D23
 OpenBabel10282417072D

 45 47  0  0  0  0  0  0  0  0999 V2000
   -2.8316   -0.8865    0.0000 C   0  0  0  0  0  0  0  0  0  0  0  0
   -3.5460   -0.4740    0.0000 C   0  0  0  0  0  0  0  0  0  0  0  0
   -3.5460    0.3510    0.0000 C   0  0  0  0  0  0  0  0  0  0  0  0
   -2.8316    0.7635    0.0000 C   0  0  0  0  0  0  0  0  0  0  0  0
   -2.1171    0.3510    0.0000 C   0  0  0  0  0  0  0  0  0  0  0  0
   -2.1171   -0.4740    0.0000 C   0  0  0  0  0  0  0  0  0  0  0  0
   -4.2605   -0.8865    0.0000 N   0  0  0  0  0  0  0  0  0  0  0  0
   -1.4026   -0.8865    0.0000 C   0  0  0  0  0  0  0  0  0  0  0  0
   -1.4026   -1.7115    0.0000 C   0  0  0  0  0  0  0  0  0  0  0  0
   -0.6882   -2.1240    0.0000 C   0  0  0  0  0  0  0  0  0  0  0  0
    0.0263   -1.7115    0.0000 C   0  0  0  0  0  0  0  0  0  0  0  0
    0.0263   -0.8865    0.0000 C   0  0  0  0  0  0  0  0  0  0  0  0
   -0.6882   -0.4740    0.0000 C   0  0  0  0  0  0  0  0  0  0  0  0
    0.7408   -2.1240    0.0000 N   0  0  0  0  0  0  0  0  0  0  0  0
    1.4553   -1.7115    0.0000 C   0  0  0  0  0  0  0  0  0  0  0  0
    1.4553   -0.8865    0.0000 N   0  0  0  0  0  0  0  0  0  0  0  0
    0.7408   -0.4740    0.0000 C   0  0  0  0  0  0  0  0  0  0  0  0
    0.7408    0.3510    0.0000 N   0  0  0  0  0  0  0  0  0  0  0  0
    1.4553    0.7635    0.0000 C   0  0  0  0  0  0  0  0  0  0  0  0
    1.8678    0.0490    0.0000 C   0  0  0  0  0  0  0  0  0  0  0  0
    1.0428    1.4780    0.0000 C   0  0  0  0  0  0  0  0  0  0  0  0
    2.1697    1.1760    0.0000 C   0  0  0  0  0  0  0  0  0  0  0  0
    2.1697   -2.1240    0.0000 C   0  0  0  0  0  0  0  0  0  0  0  0
    2.8842   -2.5365    0.0000 F   0  0  0  0  0  0  0  0  0  0  0  0
    1.7572   -2.8385    0.0000 F   0  0  0  0  0  0  0  0  0  0  0  0
    2.5822   -1.4095    0.0000 F   0  0  0  0  0  0  0  0  0  0  0  0
   -2.8316   -1.9185    0.0000 H   0  0  0  0  0  0  0  0  0  0  0  0
   -4.4397    0.8670    0.0000 H   0  0  0  0  0  0  0  0  0  0  0  0
   -2.8316    1.7955    0.0000 H   0  0  0  0  0  0  0  0  0  0  0  0
   -1.2234    0.8670    0.0000 H   0  0  0  0  0  0  0  0  0  0  0  0
   -5.1131   -0.3942    0.0000 H   0  0  0  0  0  0  0  0  0  0  0  0
   -4.2605   -1.8710    0.0000 H   0  0  0  0  0  0  0  0  0  0  0  0
   -2.2963   -2.2275    0.0000 H   0  0  0  0  0  0  0  0  0  0  0  0
   -0.6882   -3.1560    0.0000 H   0  0  0  0  0  0  0  0  0  0  0  0
   -0.6882    0.5580    0.0000 H   0  0  0  0  0  0  0  0  0  0  0  0
   -0.1118    0.8433    0.0000 H   0  0  0  0  0  0  0  0  0  0  0  0
    1.3328   -0.8776    0.0000 H   0  0  0  0  0  0  0  0  0  0  0  0
    2.9378    0.0490    0.0000 H   0  0  0  0  0  0  0  0  0  0  0  0
    2.4028   -0.8777    0.0000 H   0  0  0  0  0  0  0  0  0  0  0  0
    1.5778    2.4046    0.0000 H   0  0  0  0  0  0  0  0  0  0  0  0
   -0.0272    1.4780    0.0000 H   0  0  0  0  0  0  0  0  0  0  0  0
    0.5078    2.4047    0.0000 H   0  0  0  0  0  0  0  0  0  0  0  0
    3.0964    0.6410    0.0000 H   0  0  0  0  0  0  0  0  0  0  0  0
    2.1697    2.2460    0.0000 H   0  0  0  0  0  0  0  0  0  0  0  0
    3.0963    1.7110    0.0000 H   0  0  0  0  0  0  0  0  0  0  0  0
  1  2  2  0  0  0  0
  1  6  1  0  0  0  0
  1 27  1  0  0  0  0
  2  3  1  0  0  0  0
  2  7  1  0  0  0  0
  3  4  2  0  0  0  0
  3 28  1  0  0  0  0
  4  5  1  0  0  0  0
  4 29  1  0  0  0  0
  5  6  2  0  0  0  0
  5 30  1  0  0  0  0
  6  8  1  0  0  0  0
  7 31  1  0  0  0  0
  7 32  1  0  0  0  0
  8  9  1  0  0  0  0
  8 13  2  0  0  0  0
  9 10  2  0  0  0  0
  9 33  1  0  0  0  0
 10 11  1  0  0  0  0
 10 34  1  0  0  0  0
 11 12  2  0  0  0  0
 11 14  1  0  0  0  0
 12 13  1  0  0  0  0
 12 17  1  0  0  0  0
 13 35  1  0  0  0  0
 14 15  2  0  0  0  0
 15 16  1  0  0  0  0
 15 23  1  0  0  0  0
 16 17  2  0  0  0  0
 17 18  1  0  0  0  0
 18 19  1  0  0  0  0
 18 36  1  0  0  0  0
 19 20  1  0  0  0  0
 19 21  1  0  0  0  0
 19 22  1  0  0  0  0
 20 37  1  0  0  0  0
 20 38  1  0  0  0  0
 20 39  1  0  0  0  0
 21 40  1  0  0  0  0
 21 41  1  0  0  0  0
 21 42  1  0  0  0  0
 22 43  1  0  0  0  0
 22 44  1  0  0  0  0
 22 45  1  0  0  0  0
 23 24  1  0  0  0  0
 23 25  1  0  0  0  0
 23 26  1  0  0  0  0
M  END
>  <DRUGBANK_ID>
DB07612

>  <COMMON_NAME>
6-(3-AMINOPHENYL)-N-(TERT-BUTYL)-2-(TRIFLUOROMETHYL)QUINAZOLIN-4-AMINE

$$$$
