
 OpenBabel10282417072D

 23 23  0  0  0  0  0  0  0  0999 V2000
   -0.1480    0.2044    0.0000 C   0  0  0  0  0  0  0  0  0  0  0  0
   -0.1480   -0.6206    0.0000 C   0  0  0  0  0  0  0  0  0  0  0  0
   -0.8625    0.6169    0.0000 C   0  0  0  0  0  0  0  0  0  0  0  0
    0.5665    0.6169    0.0000 C   0  0  0  0  0  0  0  0  0  0  0  0
   -0.8625   -1.0331    0.0000 C   0  0  0  0  0  0  0  0  0  0  0  0
   -1.5770    0.2044    0.0000 C   0  0  0  0  0  0  0  0  0  0  0  0
    1.2809    0.2044    0.0000 C   0  0  3  0  0  0  0  0  0  0  0  0
   -1.5770   -0.6206    0.0000 C   0  0  0  0  0  0  0  0  0  0  0  0
    1.2809   -0.6206    0.0000 C   0  0  0  0  0  0  0  0  0  0  0  0
    1.9954    0.6169    0.0000 N   0  0  0  0  0  0  0  0  0  0  0  0
    0.7457   -1.1366    0.0000 H   0  0  0  0  0  0  0  0  0  0  0  0
   -0.8625    1.6489    0.0000 H   0  0  0  0  0  0  0  0  0  0  0  0
    0.5665    1.6869    0.0000 H   0  0  0  0  0  0  0  0  0  0  0  0
    1.4932    1.1519    0.0000 H   0  0  0  0  0  0  0  0  0  0  0  0
   -0.8625   -2.0651    0.0000 H   0  0  0  0  0  0  0  0  0  0  0  0
   -2.4707    0.7204    0.0000 H   0  0  0  0  0  0  0  0  0  0  0  0
    0.3542   -0.3306    0.0000 H   0  0  0  0  0  0  0  0  0  0  0  0
   -2.4707   -1.1366    0.0000 H   0  0  0  0  0  0  0  0  0  0  0  0
    0.3543   -1.1556    0.0000 H   0  0  0  0  0  0  0  0  0  0  0  0
    2.2075   -1.1556    0.0000 H   0  0  0  0  0  0  0  0  0  0  0  0
    1.2809   -1.6906    0.0000 H   0  0  0  0  0  0  0  0  0  0  0  0
    2.8787    0.1069    0.0000 H   0  0  0  0  0  0  0  0  0  0  0  0
    1.9954    1.6369    0.0000 H   0  0  0  0  0  0  0  0  0  0  0  0
  1  2  1  0  0  0  0
  1  3  2  0  0  0  0
  1  4  1  0  0  0  0
  2  5  2  0  0  0  0
  2 11  1  0  0  0  0
  3  6  1  0  0  0  0
  3 12  1  0  0  0  0
  4  7  1  0  0  0  0
  4 13  1  0  0  0  0
  4 14  1  0  0  0  0
  5  8  1  0  0  0  0
  5 15  1  0  0  0  0
  6  8  2  0  0  0  0
  6 16  1  0  0  0  0
  7  9  1  0  0  0  0
  7 10  1  0  0  0  0
  7 17  1  0  0  0  0
  8 18  1  0  0  0  0
  9 19  1  0  0  0  0
  9 20  1  0  0  0  0
  9 21  1  0  0  0  0
 10 22  1  0  0  0  0
 10 23  1  0  0  0  0
M  END
>  <DRUGBANK_ID>
DB00182

>  <SECONDARY_ACCESSION_NUMBERS>
APRD00480

>  <COMMON_NAME>
Amphetamine

>  <CAS_NUMBER>
300-62-9

>  <UNII>
CK833KGX7E

>  <SYNONYMS>
(+-)-alpha-Methylphenylethylamine; 1-phenyl-2-aminopropane; alpha-Methylbenzeneethaneamine; Amfetamina; Amfetamine; Amfetaminum; Amphetamine; beta-Aminopropylbenzene; beta-Phenylisopropylamin; Desoxynorephedrine; rac-(2R)-1-phenylpropan-2-amine; rac-amphetamine; α-methylbenzeneethaneamine; α-methylphenethylamine; β-aminopropylbenzene; β-phenylisopropylamine

$$$$
