
 OpenBabel10282417072D

 46 49  0  0  0  0  0  0  0  0999 V2000
    2.5006   -3.0937    0.0000 C   0  0  0  0  0  0  0  0  0  0  0  0
    2.5006   -2.2687    0.0000 C   0  0  0  0  0  0  0  0  0  0  0  0
    2.5006    2.6812    0.0000 C   0  0  0  0  0  0  0  0  0  0  0  0
   -2.5006   -1.0312    0.0000 C   0  0  0  0  0  0  0  0  0  0  0  0
    1.7861    3.0937    0.0000 C   0  0  0  0  0  0  0  0  0  0  0  0
   -2.5006   -1.8562    0.0000 C   0  0  0  0  0  0  0  0  0  0  0  0
    2.5006    1.8562    0.0000 C   0  0  0  0  0  0  0  0  0  0  0  0
   -1.7861   -0.6187    0.0000 C   0  0  0  0  0  0  0  0  0  0  0  0
    1.0717    2.6812    0.0000 C   0  0  0  0  0  0  0  0  0  0  0  0
   -1.7861   -2.2687    0.0000 C   0  0  0  0  0  0  0  0  0  0  0  0
    1.7861    1.4437    0.0000 C   0  0  0  0  0  0  0  0  0  0  0  0
   -1.0717   -1.0312    0.0000 C   0  0  0  0  0  0  0  0  0  0  0  0
    1.0717    1.8562    0.0000 C   0  0  0  0  0  0  0  0  0  0  0  0
   -1.0717   -1.8562    0.0000 C   0  0  0  0  0  0  0  0  0  0  0  0
    1.0717   -0.6187    0.0000 C   0  0  0  0  0  0  0  0  0  0  0  0
    1.0717    0.2062    0.0000 C   0  0  0  0  0  0  0  0  0  0  0  0
    0.3572   -1.0312    0.0000 C   0  0  0  0  0  0  0  0  0  0  0  0
    1.7861    0.6187    0.0000 C   0  0  0  0  0  0  0  0  0  0  0  0
   -0.3572   -0.6187    0.0000 C   0  0  0  0  0  0  0  0  0  0  0  0
    1.7861   -1.0312    0.0000 C   0  0  0  0  0  0  0  0  0  0  0  0
    0.3572    0.6187    0.0000 C   0  0  0  0  0  0  0  0  0  0  0  0
    0.3572   -1.8562    0.0000 C   0  0  0  0  0  0  0  0  0  0  0  0
    2.5006    0.2062    0.0000 O   0  0  0  0  0  0  0  0  0  0  0  0
   -0.3572    0.2062    0.0000 O   0  0  0  0  0  0  0  0  0  0  0  0
    2.5006   -0.6187    0.0000 O   0  0  0  0  0  0  0  0  0  0  0  0
   -0.4632    0.7049    0.0000 O   0  0  0  0  0  0  0  0  0  0  0  0
    1.0717   -2.2687    0.0000 O   0  0  0  0  0  0  0  0  0  0  0  0
    1.7861   -1.8562    0.0000 O   0  0  0  0  0  0  0  0  0  0  0  0
    0.3572    1.4437    0.0000 O   0  0  0  0  0  0  0  0  0  0  0  0
   -0.3572   -2.2687    0.0000 O   0  0  0  0  0  0  0  0  0  0  0  0
    1.5740   -3.6287    0.0000 H   0  0  0  0  0  0  0  0  0  0  0  0
    3.4272   -3.6287    0.0000 H   0  0  0  0  0  0  0  0  0  0  0  0
    2.5006   -4.1637    0.0000 H   0  0  0  0  0  0  0  0  0  0  0  0
    3.4272   -1.7337    0.0000 H   0  0  0  0  0  0  0  0  0  0  0  0
    2.5006   -1.1987    0.0000 H   0  0  0  0  0  0  0  0  0  0  0  0
    3.3943    3.1972    0.0000 H   0  0  0  0  0  0  0  0  0  0  0  0
   -3.3943   -0.5152    0.0000 H   0  0  0  0  0  0  0  0  0  0  0  0
    1.7861    4.1257    0.0000 H   0  0  0  0  0  0  0  0  0  0  0  0
   -3.3943   -2.3722    0.0000 H   0  0  0  0  0  0  0  0  0  0  0  0
    3.3943    1.3402    0.0000 H   0  0  0  0  0  0  0  0  0  0  0  0
   -1.7861    0.4133    0.0000 H   0  0  0  0  0  0  0  0  0  0  0  0
    0.1780    3.1972    0.0000 H   0  0  0  0  0  0  0  0  0  0  0  0
   -1.7861   -3.3007    0.0000 H   0  0  0  0  0  0  0  0  0  0  0  0
    1.0717   -1.6887    0.0000 H   0  0  0  0  0  0  0  0  0  0  0  0
    2.5006   -0.7308    0.0000 H   0  0  0  0  0  0  0  0  0  0  0  0
    0.4543    0.6747    0.0000 H   0  0  0  0  0  0  0  0  0  0  0  0
  1 31  1  0  0  0  0
  1 32  1  0  0  0  0
  1 33  1  0  0  0  0
  2  1  1  0  0  0  0
  2 34  1  0  0  0  0
  2 35  1  0  0  0  0
  3 36  1  0  0  0  0
  4 37  1  0  0  0  0
  5  3  2  0  0  0  0
  5 38  1  0  0  0  0
  6  4  2  0  0  0  0
  6 39  1  0  0  0  0
  7  3  1  0  0  0  0
  7 40  1  0  0  0  0
  8  4  1  0  0  0  0
  8 41  1  0  0  0  0
  9  5  1  0  0  0  0
  9 42  1  0  0  0  0
 10  6  1  0  0  0  0
 10 43  1  0  0  0  0
 11  7  2  0  0  0  0
 12  8  2  0  0  0  0
 13  9  2  0  0  0  0
 13 11  1  0  0  0  0
 14 10  2  0  0  0  0
 14 12  1  0  0  0  0
 15 44  1  0  0  0  0
 16 15  1  0  0  0  0
 17 15  1  0  0  0  0
 18 11  1  0  0  0  0
 18 16  2  0  0  0  0
 19 12  1  0  0  0  0
 19 17  2  0  0  0  0
 20 15  1  0  0  0  0
 21 16  1  0  0  0  0
 22 17  1  0  0  0  0
 23 18  1  0  0  0  0
 23 45  1  0  0  0  0
 24 19  1  0  0  0  0
 24 46  1  0  0  0  0
 25 20  2  0  0  0  0
 26 21  2  0  0  0  0
 27 22  2  0  0  0  0
 28  2  1  0  0  0  0
 28 20  1  0  0  0  0
 29 13  1  0  0  0  0
 29 21  1  0  0  0  0
 30 14  1  0  0  0  0
 30 22  1  0  0  0  0
M  END
>  <DRUGBANK_ID>
DB08794

>  <COMMON_NAME>
Ethyl biscoumacetate

>  <CAS_NUMBER>
548-00-5

>  <UNII>
08KL644731

>  <SYNONYMS>
Ethyl bis(4-hydroxy-2-oxo-2h-1-benzopyran-3-yl)acetate; Ethyl biscoumacetate; Ethyldicoumarol

$$$$
