
 OpenBabel10282417072D

 37 38  0  0  0  0  0  0  0  0999 V2000
    2.1434   -1.2375    0.0000 O   0  0  0  0  0  0  0  0  0  0  0  0
    2.8579   -1.6500    0.0000 C   0  0  0  0  0  0  0  0  0  0  0  0
    3.5724   -1.2375    0.0000 O   0  0  0  0  0  0  0  0  0  0  0  0
    2.8579   -2.4750    0.0000 C   0  0  0  0  0  0  0  0  0  0  0  0
    3.5724   -2.8875    0.0000 C   0  0  0  0  0  0  0  0  0  0  0  0
    3.5724   -3.7125    0.0000 C   0  0  0  0  0  0  0  0  0  0  0  0
    4.2868   -4.1250    0.0000 N   0  0  0  0  0  0  0  0  0  0  0  0
    4.2868   -4.9500    0.0000 C   0  0  0  0  0  0  0  0  0  0  0  0
    5.0013   -5.3625    0.0000 C   0  0  0  0  0  0  0  0  0  0  0  0
    5.0013   -6.1875    0.0000 C   0  0  0  0  0  0  0  0  0  0  0  0
    5.7158   -6.6000    0.0000 C   0  0  0  0  0  0  0  0  0  0  0  0
    5.7158   -7.4250    0.0000 C   0  0  0  0  0  0  0  0  0  0  0  0
    5.0013   -7.8375    0.0000 C   0  0  0  0  0  0  0  0  0  0  0  0
    4.2868   -7.4250    0.0000 C   0  0  0  0  0  0  0  0  0  0  0  0
    4.2868   -6.6000    0.0000 C   0  0  0  0  0  0  0  0  0  0  0  0
    5.0013   -8.6625    0.0000 C   0  0  0  0  0  0  0  0  0  0  0  0
    5.0013   -9.4875    0.0000 F   0  0  0  0  0  0  0  0  0  0  0  0
    4.1763   -8.6625    0.0000 F   0  0  0  0  0  0  0  0  0  0  0  0
    5.8263   -8.6625    0.0000 F   0  0  0  0  0  0  0  0  0  0  0  0
    2.8579   -4.1250    0.0000 C   0  0  0  0  0  0  0  0  0  0  0  0
    2.1434   -3.7125    0.0000 C   0  0  0  0  0  0  0  0  0  0  0  0
    2.1434   -2.8875    0.0000 C   0  0  0  0  0  0  0  0  0  0  0  0
    1.4289   -2.4750    0.0000 O   0  0  0  0  0  0  0  0  0  0  0  0
    2.1434   -0.3005    0.0000 H   0  0  0  0  0  0  0  0  0  0  0  0
    4.4661   -2.3715    0.0000 H   0  0  0  0  0  0  0  0  0  0  0  0
    5.1394   -3.6328    0.0000 H   0  0  0  0  0  0  0  0  0  0  0  0
    3.3602   -5.4850    0.0000 H   0  0  0  0  0  0  0  0  0  0  0  0
    4.2868   -6.0200    0.0000 H   0  0  0  0  0  0  0  0  0  0  0  0
    5.9279   -4.8275    0.0000 H   0  0  0  0  0  0  0  0  0  0  0  0
    5.9279   -5.8975    0.0000 H   0  0  0  0  0  0  0  0  0  0  0  0
    6.6095   -6.0840    0.0000 H   0  0  0  0  0  0  0  0  0  0  0  0
    6.6095   -7.9410    0.0000 H   0  0  0  0  0  0  0  0  0  0  0  0
    3.3931   -7.9410    0.0000 H   0  0  0  0  0  0  0  0  0  0  0  0
    3.3931   -6.0840    0.0000 H   0  0  0  0  0  0  0  0  0  0  0  0
    2.8579   -5.1570    0.0000 H   0  0  0  0  0  0  0  0  0  0  0  0
    1.2497   -4.2285    0.0000 H   0  0  0  0  0  0  0  0  0  0  0  0
    1.4289   -1.5380    0.0000 H   0  0  0  0  0  0  0  0  0  0  0  0
  1  2  1  0  0  0  0
  1 24  1  0  0  0  0
  2  3  2  0  0  0  0
  2  4  1  0  0  0  0
  4  5  2  0  0  0  0
  4 22  1  0  0  0  0
  5  6  1  0  0  0  0
  5 25  1  0  0  0  0
  6  7  1  0  0  0  0
  6 20  2  0  0  0  0
  7  8  1  0  0  0  0
  7 26  1  0  0  0  0
  8  9  1  0  0  0  0
  8 27  1  0  0  0  0
  8 28  1  0  0  0  0
  9 10  1  0  0  0  0
  9 29  1  0  0  0  0
  9 30  1  0  0  0  0
 10 11  2  0  0  0  0
 10 15  1  0  0  0  0
 11 12  1  0  0  0  0
 11 31  1  0  0  0  0
 12 13  2  0  0  0  0
 12 32  1  0  0  0  0
 13 14  1  0  0  0  0
 13 16  1  0  0  0  0
 14 15  2  0  0  0  0
 14 33  1  0  0  0  0
 15 34  1  0  0  0  0
 16 17  1  0  0  0  0
 16 18  1  0  0  0  0
 16 19  1  0  0  0  0
 20 21  1  0  0  0  0
 20 35  1  0  0  0  0
 21 22  2  0  0  0  0
 21 36  1  0  0  0  0
 22 23  1  0  0  0  0
 23 37  1  0  0  0  0
M  END
>  <DRUGBANK_ID>
DB18405

>  <COMMON_NAME>
Crisdesalazine

>  <CAS_NUMBER>
927685-43-6

>  <UNII>
11VWK61J69

>  <SYNONYMS>
2-hydroxy-5-((2-(4-(trifluoromethyl)phenyl)ethyl)amino)benzoic acid; Benzoic acid, 2-hydroxy-5-((2-(4-(trifluoromethyl)phenyl)ethyl)amino)-

$$$$
