TOL
 OpenBabel10282417072D

 38 39  0  0  0  0  0  0  0  0999 V2000
   -2.2716   -0.0276    0.0000 C   0  0  0  0  0  0  0  0  0  0  0  0
   -2.9861   -0.4401    0.0000 F   0  0  0  0  0  0  0  0  0  0  0  0
   -1.8591   -0.7421    0.0000 F   0  0  0  0  0  0  0  0  0  0  0  0
   -2.6841    0.6868    0.0000 F   0  0  0  0  0  0  0  0  0  0  0  0
   -1.5571    0.3849    0.0000 C   0  0  0  0  0  0  0  0  0  0  0  0
   -1.5571    1.2099    0.0000 C   0  0  0  0  0  0  0  0  0  0  0  0
   -2.2716    1.6224    0.0000 O   0  0  0  0  0  0  0  0  0  0  0  0
   -2.9861    1.2099    0.0000 C   0  0  0  0  0  0  0  0  0  0  0  0
   -0.8426    1.6224    0.0000 C   0  0  0  0  0  0  0  0  0  0  0  0
   -0.1282    1.2099    0.0000 C   0  0  0  0  0  0  0  0  0  0  0  0
   -0.1282    0.3849    0.0000 C   0  0  0  0  0  0  0  0  0  0  0  0
    0.5863   -0.0276    0.0000 C   0  0  0  0  0  0  0  0  0  0  0  0
    0.5863   -0.8526    0.0000 C   0  0  0  0  0  0  0  0  0  0  0  0
   -0.1282   -1.2651    0.0000 C   0  0  0  0  0  0  0  0  0  0  0  0
   -0.8426   -0.8526    0.0000 C   0  0  0  0  0  0  0  0  0  0  0  0
   -0.8426   -0.0276    0.0000 C   0  0  0  0  0  0  0  0  0  0  0  0
    1.3008    0.3849    0.0000 C   0  0  0  0  0  0  0  0  0  0  0  0
    1.3008    1.2099    0.0000 S   0  0  0  0  0  0  0  0  0  0  0  0
    2.0152   -0.0276    0.0000 N   0  0  0  0  0  0  0  0  0  0  0  0
    2.0152   -0.8526    0.0000 C   0  0  0  0  0  0  0  0  0  0  0  0
    2.7297    0.3849    0.0000 C   0  0  0  0  0  0  0  0  0  0  0  0
    3.4442   -0.0276    0.0000 C   0  0  0  0  0  0  0  0  0  0  0  0
    4.1587    0.3849    0.0000 O   0  0  0  0  0  0  0  0  0  0  0  0
    3.4442   -0.8526    0.0000 O   0  0  0  0  0  0  0  0  0  0  0  0
   -3.9127    1.7449    0.0000 H   0  0  0  0  0  0  0  0  0  0  0  0
   -2.9861    0.1399    0.0000 H   0  0  0  0  0  0  0  0  0  0  0  0
   -3.9128    0.6749    0.0000 H   0  0  0  0  0  0  0  0  0  0  0  0
   -0.8426    2.6544    0.0000 H   0  0  0  0  0  0  0  0  0  0  0  0
    0.7655    1.7259    0.0000 H   0  0  0  0  0  0  0  0  0  0  0  0
    1.4800   -1.3686    0.0000 H   0  0  0  0  0  0  0  0  0  0  0  0
   -0.1282   -2.2971    0.0000 H   0  0  0  0  0  0  0  0  0  0  0  0
   -1.7363   -1.3686    0.0000 H   0  0  0  0  0  0  0  0  0  0  0  0
    1.0886   -1.3876    0.0000 H   0  0  0  0  0  0  0  0  0  0  0  0
    2.9418   -1.3876    0.0000 H   0  0  0  0  0  0  0  0  0  0  0  0
    2.0152   -1.9226    0.0000 H   0  0  0  0  0  0  0  0  0  0  0  0
    2.7297    1.4549    0.0000 H   0  0  0  0  0  0  0  0  0  0  0  0
    3.6563    0.9199    0.0000 H   0  0  0  0  0  0  0  0  0  0  0  0
    2.6327   -1.3211    0.0000 H   0  0  0  0  0  0  0  0  0  0  0  0
  1  2  1  0  0  0  0
  1  3  1  0  0  0  0
  1  4  1  0  0  0  0
  1  5  1  0  0  0  0
  5  6  2  0  0  0  0
  5 16  1  0  0  0  0
  6  7  1  0  0  0  0
  6  9  1  0  0  0  0
  7  8  1  0  0  0  0
  8 25  1  0  0  0  0
  8 26  1  0  0  0  0
  8 27  1  0  0  0  0
  9 10  2  0  0  0  0
  9 28  1  0  0  0  0
 10 11  1  0  0  0  0
 10 29  1  0  0  0  0
 11 12  2  0  0  0  0
 11 16  1  0  0  0  0
 12 13  1  0  0  0  0
 12 17  1  0  0  0  0
 13 14  2  0  0  0  0
 13 30  1  0  0  0  0
 14 15  1  0  0  0  0
 14 31  1  0  0  0  0
 15 16  2  0  0  0  0
 15 32  1  0  0  0  0
 17 18  2  0  0  0  0
 17 19  1  0  0  0  0
 19 20  1  0  0  0  0
 19 21  1  0  0  0  0
 20 33  1  0  0  0  0
 20 34  1  0  0  0  0
 20 35  1  0  0  0  0
 21 22  1  0  0  0  0
 21 36  1  0  0  0  0
 21 37  1  0  0  0  0
 22 23  2  0  0  0  0
 22 24  1  0  0  0  0
 24 38  1  0  0  0  0
M  END
>  <DRUGBANK_ID>
DB02383

>  <SECONDARY_ACCESSION_NUMBERS>
EXPT03082

>  <COMMON_NAME>
Tolrestat

>  <CAS_NUMBER>
82964-04-3

>  <UNII>
0T93LG5NMK

>  <SYNONYMS>
Tolrestat

$$$$
