
 OpenBabel10282417072D

 33 34  0  0  0  0  0  0  0  0999 V2000
    1.4289    8.2500    0.0000 C   0  0  0  0  0  0  0  0  0  0  0  0
   -0.0000    5.7750    0.0000 C   0  0  0  0  0  0  0  0  0  0  0  0
    3.5724    2.8875    0.0000 C   0  0  0  0  0  0  0  0  0  0  0  0
    2.1434    2.8875    0.0000 C   0  0  0  0  0  0  0  0  0  0  0  0
    3.5724    3.7125    0.0000 C   0  0  0  0  0  0  0  0  0  0  0  0
    2.1434    3.7125    0.0000 C   0  0  0  0  0  0  0  0  0  0  0  0
    1.4289    7.4250    0.0000 C   0  0  0  0  0  0  0  0  0  0  0  0
    0.7145    6.1875    0.0000 C   0  0  0  0  0  0  0  0  0  0  0  0
    2.8579    2.4750    0.0000 C   0  0  0  0  0  0  0  0  0  0  0  0
    2.8579    4.1250    0.0000 C   0  0  0  0  0  0  0  0  0  0  0  0
    0.7145    7.0125    0.0000 C   0  0  0  0  0  0  0  0  0  0  0  0
    2.1434    6.1875    0.0000 C   0  0  0  0  0  0  0  0  0  0  0  0
   -0.0000    7.4250    0.0000 Br  0  0  0  0  0  0  0  0  0  0  0  0
    2.8579    1.6500    0.0000 N   0  0  0  0  0  0  0  0  0  0  0  0
    2.1434    7.0125    0.0000 N   0  0  0  0  0  0  0  0  0  0  0  0
    1.4289    5.7750    0.0000 N   0  0  0  0  0  0  0  0  0  0  0  0
    2.8579    5.7750    0.0000 N   0  0  0  0  0  0  0  0  0  0  0  0
    2.0329    4.9500    0.0000 O   0  0  0  0  0  0  0  0  0  0  0  0
    3.6829    4.9500    0.0000 O   0  0  0  0  0  0  0  0  0  0  0  0
    2.8579    4.9500    0.0000 S   0  0  0  0  0  0  0  0  0  0  0  0
    2.3555    8.7850    0.0000 H   0  0  0  0  0  0  0  0  0  0  0  0
    0.5023    8.7850    0.0000 H   0  0  0  0  0  0  0  0  0  0  0  0
    1.4289    9.3200    0.0000 H   0  0  0  0  0  0  0  0  0  0  0  0
   -0.9266    6.3100    0.0000 H   0  0  0  0  0  0  0  0  0  0  0  0
   -0.0000    4.7050    0.0000 H   0  0  0  0  0  0  0  0  0  0  0  0
   -0.9267    5.2400    0.0000 H   0  0  0  0  0  0  0  0  0  0  0  0
    4.4661    2.3715    0.0000 H   0  0  0  0  0  0  0  0  0  0  0  0
    1.2497    2.3715    0.0000 H   0  0  0  0  0  0  0  0  0  0  0  0
    4.4661    4.2285    0.0000 H   0  0  0  0  0  0  0  0  0  0  0  0
    1.2497    4.2285    0.0000 H   0  0  0  0  0  0  0  0  0  0  0  0
    2.0053    1.1577    0.0000 H   0  0  0  0  0  0  0  0  0  0  0  0
    3.7105    1.1577    0.0000 H   0  0  0  0  0  0  0  0  0  0  0  0
    3.7105    6.2673    0.0000 H   0  0  0  0  0  0  0  0  0  0  0  0
  1 21  1  0  0  0  0
  1 22  1  0  0  0  0
  1 23  1  0  0  0  0
  2 24  1  0  0  0  0
  2 25  1  0  0  0  0
  2 26  1  0  0  0  0
  3 27  1  0  0  0  0
  4 28  1  0  0  0  0
  5  3  1  0  0  0  0
  5 29  1  0  0  0  0
  6  4  2  0  0  0  0
  6 30  1  0  0  0  0
  7  1  1  0  0  0  0
  8  2  1  0  0  0  0
  9  3  2  0  0  0  0
  9  4  1  0  0  0  0
 10  5  2  0  0  0  0
 10  6  1  0  0  0  0
 11  7  2  0  0  0  0
 11  8  1  0  0  0  0
 13 11  1  0  0  0  0
 14  9  1  0  0  0  0
 14 31  1  0  0  0  0
 14 32  1  0  0  0  0
 15  7  1  0  0  0  0
 15 12  2  0  0  0  0
 16  8  2  0  0  0  0
 16 12  1  0  0  0  0
 17 12  1  0  0  0  0
 17 33  1  0  0  0  0
 20 10  1  0  0  0  0
 20 17  1  0  0  0  0
 20 18  2  0  0  0  0
 20 19  2  0  0  0  0
M  END
>  <DRUGBANK_ID>
DB11547

>  <COMMON_NAME>
Sulfabromomethazine

>  <CAS_NUMBER>
116-45-0

>  <UNII>
PQK2N461KJ

>  <SYNONYMS>
5-bromosulfamethazine; Bromosulfamethazine

$$$$
