
 OpenBabel10282417072D

 44 45  0  0  0  0  0  0  0  0999 V2000
   -2.8579    0.8250    0.0000 C   0  0  0  0  0  0  0  0  0  0  0  0
    5.0013    1.2375    0.0000 C   0  0  0  0  0  0  0  0  0  0  0  0
    4.2868    0.0000    0.0000 C   0  0  0  0  0  0  0  0  0  0  0  0
   -2.1434    1.2375    0.0000 C   0  0  0  0  0  0  0  0  0  0  0  0
   -1.4289    0.8250    0.0000 C   0  0  0  0  0  0  0  0  0  0  0  0
    1.4289   -1.6500    0.0000 C   0  0  0  0  0  0  0  0  0  0  0  0
    2.1434   -1.2375    0.0000 C   0  0  0  0  0  0  0  0  0  0  0  0
    0.7145   -1.2375    0.0000 C   0  0  0  0  0  0  0  0  0  0  0  0
   -0.7145    1.2375    0.0000 C   0  0  0  0  0  0  0  0  0  0  0  0
    2.1434   -0.4125    0.0000 C   0  0  0  0  0  0  0  0  0  0  0  0
    3.5724    1.2375    0.0000 C   0  0  0  0  0  0  0  0  0  0  0  0
    2.8579    0.8250    0.0000 C   0  0  0  0  0  0  0  0  0  0  0  0
   -0.0000    0.0000    0.0000 C   0  0  0  0  0  0  0  0  0  0  0  0
    0.7145   -0.4125    0.0000 C   0  0  0  0  0  0  0  0  0  0  0  0
   -0.0000    0.8250    0.0000 C   0  0  0  0  0  0  0  0  0  0  0  0
    1.4289    0.0000    0.0000 C   0  0  0  0  0  0  0  0  0  0  0  0
    1.4289    0.8250    0.0000 C   0  0  0  0  0  0  0  0  0  0  0  0
    0.7145    1.2375    0.0000 N   0  0  0  0  0  0  0  0  0  0  0  0
    4.2868    0.8250    0.0000 N   0  0  0  0  0  0  0  0  0  0  0  0
    2.1434    1.2375    0.0000 O   0  0  0  0  0  0  0  0  0  0  0  0
   -3.7845    1.3600    0.0000 H   0  0  0  0  0  0  0  0  0  0  0  0
   -2.8579   -0.2450    0.0000 H   0  0  0  0  0  0  0  0  0  0  0  0
   -3.7846    0.2900    0.0000 H   0  0  0  0  0  0  0  0  0  0  0  0
    5.9279    0.7025    0.0000 H   0  0  0  0  0  0  0  0  0  0  0  0
    5.0013    2.3075    0.0000 H   0  0  0  0  0  0  0  0  0  0  0  0
    5.9280    1.7725    0.0000 H   0  0  0  0  0  0  0  0  0  0  0  0
    3.3602   -0.5350    0.0000 H   0  0  0  0  0  0  0  0  0  0  0  0
    5.2134   -0.5350    0.0000 H   0  0  0  0  0  0  0  0  0  0  0  0
    4.2868   -1.0700    0.0000 H   0  0  0  0  0  0  0  0  0  0  0  0
   -2.1434    2.3075    0.0000 H   0  0  0  0  0  0  0  0  0  0  0  0
   -1.2168    1.7725    0.0000 H   0  0  0  0  0  0  0  0  0  0  0  0
   -1.4289   -0.2450    0.0000 H   0  0  0  0  0  0  0  0  0  0  0  0
   -0.5022    0.2900    0.0000 H   0  0  0  0  0  0  0  0  0  0  0  0
    1.4289   -2.6820    0.0000 H   0  0  0  0  0  0  0  0  0  0  0  0
    3.0371   -1.7535    0.0000 H   0  0  0  0  0  0  0  0  0  0  0  0
   -0.1792   -1.7535    0.0000 H   0  0  0  0  0  0  0  0  0  0  0  0
   -0.7145    2.3075    0.0000 H   0  0  0  0  0  0  0  0  0  0  0  0
    0.2121    1.7725    0.0000 H   0  0  0  0  0  0  0  0  0  0  0  0
    3.0371    0.1035    0.0000 H   0  0  0  0  0  0  0  0  0  0  0  0
    3.5724    2.3075    0.0000 H   0  0  0  0  0  0  0  0  0  0  0  0
    4.4991    1.7725    0.0000 H   0  0  0  0  0  0  0  0  0  0  0  0
    2.8579   -0.2450    0.0000 H   0  0  0  0  0  0  0  0  0  0  0  0
    1.9313    0.2900    0.0000 H   0  0  0  0  0  0  0  0  0  0  0  0
   -0.8937   -0.5160    0.0000 H   0  0  0  0  0  0  0  0  0  0  0  0
  1 21  1  0  0  0  0
  1 22  1  0  0  0  0
  1 23  1  0  0  0  0
  2 24  1  0  0  0  0
  2 25  1  0  0  0  0
  2 26  1  0  0  0  0
  3 27  1  0  0  0  0
  3 28  1  0  0  0  0
  3 29  1  0  0  0  0
  4  1  1  0  0  0  0
  4 30  1  0  0  0  0
  4 31  1  0  0  0  0
  5  4  1  0  0  0  0
  5 32  1  0  0  0  0
  5 33  1  0  0  0  0
  6 34  1  0  0  0  0
  7  6  2  0  0  0  0
  7 35  1  0  0  0  0
  8  6  1  0  0  0  0
  8 36  1  0  0  0  0
  9  5  1  0  0  0  0
  9 37  1  0  0  0  0
  9 38  1  0  0  0  0
 10  7  1  0  0  0  0
 10 39  1  0  0  0  0
 11 40  1  0  0  0  0
 11 41  1  0  0  0  0
 12 11  1  0  0  0  0
 12 42  1  0  0  0  0
 12 43  1  0  0  0  0
 13 44  1  0  0  0  0
 14  8  2  0  0  0  0
 14 13  1  0  0  0  0
 15  9  1  0  0  0  0
 15 13  2  0  0  0  0
 16 10  2  0  0  0  0
 16 14  1  0  0  0  0
 17 16  1  0  0  0  0
 18 15  1  0  0  0  0
 18 17  2  0  0  0  0
 19  2  1  0  0  0  0
 19  3  1  0  0  0  0
 19 11  1  0  0  0  0
 20 12  1  0  0  0  0
 20 17  1  0  0  0  0
M  END
>  <DRUGBANK_ID>
DB13683

>  <COMMON_NAME>
Quinisocaine

>  <CAS_NUMBER>
86-80-6

>  <UNII>
772EN3BH6I

>  <SYNONYMS>
Dimethisoquin; Quinisocaine

$$$$
