
 OpenBabel10282417072D

 63 66  0  0  0  0  0  0  0  0999 V2000
    0.4243    0.3820    0.0000 C   0  0  0  0  0  0  0  0  0  0  0  0
    1.1387   -0.0305    0.0000 C   0  0  0  0  0  0  0  0  0  0  0  0
    1.9233   -0.2854    0.0000 C   0  0  0  0  0  0  0  0  0  0  0  0
    2.6378    0.1271    0.0000 C   0  0  0  0  0  0  0  0  0  0  0  0
    3.3523   -0.2854    0.0000 C   0  0  0  0  0  0  0  0  0  0  0  0
    3.3523   -1.1104    0.0000 C   0  0  0  0  0  0  0  0  0  0  0  0
    2.6378   -1.5229    0.0000 C   0  0  0  0  0  0  0  0  0  0  0  0
    1.9233   -1.1104    0.0000 C   0  0  0  0  0  0  0  0  0  0  0  0
    1.1387   -1.3654    0.0000 N   0  0  0  0  0  0  0  0  0  0  0  0
    0.6538   -0.6979    0.0000 C   0  0  0  0  0  0  0  0  0  0  0  0
   -0.1712   -0.6979    0.0000 O   0  0  0  0  0  0  0  0  0  0  0  0
    0.8838   -2.1500    0.0000 C   0  0  0  0  0  0  0  0  0  0  0  0
    1.4358   -2.7631    0.0000 O   0  0  0  0  0  0  0  0  0  0  0  0
    0.0768   -2.3215    0.0000 N   0  0  0  0  0  0  0  0  0  0  0  0
   -0.1781   -3.1062    0.0000 C   0  0  0  0  0  0  0  0  0  0  0  0
   -0.9851   -3.2777    0.0000 C   0  0  0  0  0  0  0  0  0  0  0  0
   -1.2400   -4.0623    0.0000 C   0  0  0  0  0  0  0  0  0  0  0  0
   -2.0470   -4.2338    0.0000 C   0  0  0  0  0  0  0  0  0  0  0  0
   -2.5990   -3.6207    0.0000 N   0  0  0  0  0  0  0  0  0  0  0  0
   -2.3441   -2.8361    0.0000 C   0  0  0  0  0  0  0  0  0  0  0  0
   -1.5371   -2.6646    0.0000 C   0  0  0  0  0  0  0  0  0  0  0  0
   -3.4060   -3.7923    0.0000 C   0  0  0  0  0  0  0  0  0  0  0  0
   -3.6610   -4.5769    0.0000 C   0  0  0  0  0  0  0  0  0  0  0  0
   -3.6322   -5.4014    0.0000 C   0  0  0  0  0  0  0  0  0  0  0  0
   -4.3318   -5.8386    0.0000 C   0  0  0  0  0  0  0  0  0  0  0  0
   -5.0602   -5.4512    0.0000 O   0  0  0  0  0  0  0  0  0  0  0  0
   -5.0890   -4.6268    0.0000 C   0  0  0  0  0  0  0  0  0  0  0  0
   -4.3894   -4.1896    0.0000 C   0  0  0  0  0  0  0  0  0  0  0  0
   -2.8440   -4.6917    0.0000 O   0  0  0  0  0  0  0  0  0  0  0  0
    4.0668   -1.5229    0.0000 F   0  0  0  0  0  0  0  0  0  0  0  0
    1.4743    0.7232    0.0000 C   0  0  0  0  0  0  0  0  0  0  0  0
    0.4243    1.4520    0.0000 H   0  0  0  0  0  0  0  0  0  0  0  0
   -0.5024   -0.1530    0.0000 H   0  0  0  0  0  0  0  0  0  0  0  0
   -0.5023    0.9170    0.0000 H   0  0  0  0  0  0  0  0  0  0  0  0
    2.6378    1.1591    0.0000 H   0  0  0  0  0  0  0  0  0  0  0  0
    4.2460    0.2306    0.0000 H   0  0  0  0  0  0  0  0  0  0  0  0
    2.6378   -2.5549    0.0000 H   0  0  0  0  0  0  0  0  0  0  0  0
   -0.5820   -1.5899    0.0000 H   0  0  0  0  0  0  0  0  0  0  0  0
    0.5379   -3.9014    0.0000 H   0  0  0  0  0  0  0  0  0  0  0  0
   -0.5088   -4.1238    0.0000 H   0  0  0  0  0  0  0  0  0  0  0  0
   -2.0317   -3.5002    0.0000 H   0  0  0  0  0  0  0  0  0  0  0  0
   -0.5240   -4.8575    0.0000 H   0  0  0  0  0  0  0  0  0  0  0  0
   -1.5707   -5.0799    0.0000 H   0  0  0  0  0  0  0  0  0  0  0  0
   -2.3777   -5.2514    0.0000 H   0  0  0  0  0  0  0  0  0  0  0  0
   -3.0936   -4.4562    0.0000 H   0  0  0  0  0  0  0  0  0  0  0  0
   -3.0601   -2.0409    0.0000 H   0  0  0  0  0  0  0  0  0  0  0  0
   -2.0134   -1.8185    0.0000 H   0  0  0  0  0  0  0  0  0  0  0  0
   -1.2064   -1.6470    0.0000 H   0  0  0  0  0  0  0  0  0  0  0  0
   -0.4905   -2.4422    0.0000 H   0  0  0  0  0  0  0  0  0  0  0  0
   -4.1220   -2.9971    0.0000 H   0  0  0  0  0  0  0  0  0  0  0  0
   -4.4526   -4.0147    0.0000 H   0  0  0  0  0  0  0  0  0  0  0  0
   -2.6874   -5.9037    0.0000 H   0  0  0  0  0  0  0  0  0  0  0  0
   -3.5948   -6.4707    0.0000 H   0  0  0  0  0  0  0  0  0  0  0  0
   -4.2945   -6.9079    0.0000 H   0  0  0  0  0  0  0  0  0  0  0  0
   -5.2393   -6.4055    0.0000 H   0  0  0  0  0  0  0  0  0  0  0  0
   -6.0338   -4.1245    0.0000 H   0  0  0  0  0  0  0  0  0  0  0  0
   -5.1264   -3.5575    0.0000 H   0  0  0  0  0  0  0  0  0  0  0  0
   -4.4268   -3.1203    0.0000 H   0  0  0  0  0  0  0  0  0  0  0  0
   -3.4820   -3.6226    0.0000 H   0  0  0  0  0  0  0  0  0  0  0  0
   -2.4806   -5.5911    0.0000 H   0  0  0  0  0  0  0  0  0  0  0  0
    2.5384    0.8350    0.0000 H   0  0  0  0  0  0  0  0  0  0  0  0
    0.8454    1.5889    0.0000 H   0  0  0  0  0  0  0  0  0  0  0  0
    1.9095    1.7007    0.0000 H   0  0  0  0  0  0  0  0  0  0  0  0
  1  2  1  0  0  0  0
  1 32  1  0  0  0  0
  1 33  1  0  0  0  0
  1 34  1  0  0  0  0
  2  3  1  0  0  0  0
  2 10  1  0  0  0  0
  2 31  1  0  0  0  0
  3  4  2  0  0  0  0
  3  8  1  0  0  0  0
  4  5  1  0  0  0  0
  4 35  1  0  0  0  0
  5  6  2  0  0  0  0
  5 36  1  0  0  0  0
  6  7  1  0  0  0  0
  6 30  1  0  0  0  0
  7  8  2  0  0  0  0
  7 37  1  0  0  0  0
  8  9  1  0  0  0  0
  9 10  1  0  0  0  0
  9 12  1  0  0  0  0
 10 11  2  0  0  0  0
 12 13  2  0  0  0  0
 12 14  1  0  0  0  0
 14 15  1  0  0  0  0
 14 38  1  0  0  0  0
 15 16  1  0  0  0  0
 15 39  1  0  0  0  0
 15 40  1  0  0  0  0
 16 17  1  0  0  0  0
 16 21  1  0  0  0  0
 16 41  1  0  0  0  0
 17 18  1  0  0  0  0
 17 42  1  0  0  0  0
 17 43  1  0  0  0  0
 18 19  1  0  0  0  0
 18 44  1  0  0  0  0
 18 45  1  0  0  0  0
 19 20  1  0  0  0  0
 19 22  1  0  0  0  0
 20 21  1  0  0  0  0
 20 46  1  0  0  0  0
 20 47  1  0  0  0  0
 21 48  1  0  0  0  0
 21 49  1  0  0  0  0
 22 23  1  0  0  0  0
 22 50  1  0  0  0  0
 22 51  1  0  0  0  0
 23 24  1  0  0  0  0
 23 28  1  0  0  0  0
 23 29  1  0  0  0  0
 24 25  1  0  0  0  0
 24 52  1  0  0  0  0
 24 53  1  0  0  0  0
 25 26  1  0  0  0  0
 25 54  1  0  0  0  0
 25 55  1  0  0  0  0
 26 27  1  0  0  0  0
 27 28  1  0  0  0  0
 27 56  1  0  0  0  0
 27 57  1  0  0  0  0
 28 58  1  0  0  0  0
 28 59  1  0  0  0  0
 29 60  1  0  0  0  0
 31 61  1  0  0  0  0
 31 62  1  0  0  0  0
 31 63  1  0  0  0  0
M  END
>  <DRUGBANK_ID>
DB12949

>  <COMMON_NAME>
PF-03382792

>  <CAS_NUMBER>
1400811-63-3

>  <UNII>
QPE81T4KH0

$$$$
