1050
 OpenBabel10282417072D

 33 33  0  0  1  0  0  0  0  0999 V2000
    3.7934    2.7596    0.0000 O   0  0  0  0  0  0  0  0  0  0  0  0
    4.5079    1.5221    0.0000 O   0  0  0  0  0  0  0  0  0  0  0  0
    2.3645   -2.1904    0.0000 C   0  0  0  0  0  0  0  0  0  0  0  0
    3.0790   -1.7779    0.0000 C   0  0  0  0  0  0  0  0  0  0  0  0
    3.0790   -0.9529    0.0000 C   0  0  0  0  0  0  0  0  0  0  0  0
    3.0790    0.6971    0.0000 C   0  0  0  0  0  0  0  0  0  0  0  0
    3.0790    1.5221    0.0000 C   0  0  3  0  0  0  0  0  0  0  0  0
    2.3645   -3.0154    0.0000 C   0  0  0  0  0  0  0  0  0  0  0  0
    1.6500   -1.7779    0.0000 C   0  0  0  0  0  0  0  0  0  0  0  0
    2.3645   -0.5404    0.0000 C   0  0  0  0  0  0  0  0  0  0  0  0
    3.7934   -0.5404    0.0000 C   0  0  0  0  0  0  0  0  0  0  0  0
    2.3645    0.2846    0.0000 C   0  0  0  0  0  0  0  0  0  0  0  0
    3.7934    0.2846    0.0000 C   0  0  0  0  0  0  0  0  0  0  0  0
    2.3645    1.9346    0.0000 C   0  0  0  0  0  0  0  0  0  0  0  0
    3.7934    1.9346    0.0000 C   0  0  0  0  0  0  0  0  0  0  0  0
    4.6049    3.2281    0.0000 H   0  0  0  0  0  0  0  0  0  0  0  0
    1.4379   -2.7254    0.0000 H   0  0  0  0  0  0  0  0  0  0  0  0
    4.0056   -2.3129    0.0000 H   0  0  0  0  0  0  0  0  0  0  0  0
    4.0056   -1.2429    0.0000 H   0  0  0  0  0  0  0  0  0  0  0  0
    2.1524    0.9871    0.0000 H   0  0  0  0  0  0  0  0  0  0  0  0
    1.4379   -3.5504    0.0000 H   0  0  0  0  0  0  0  0  0  0  0  0
    3.2911   -3.5504    0.0000 H   0  0  0  0  0  0  0  0  0  0  0  0
    2.3645   -4.0854    0.0000 H   0  0  0  0  0  0  0  0  0  0  0  0
    1.6500   -0.7079    0.0000 H   0  0  0  0  0  0  0  0  0  0  0  0
    0.7234   -2.3129    0.0000 H   0  0  0  0  0  0  0  0  0  0  0  0
    0.7233   -1.2429    0.0000 H   0  0  0  0  0  0  0  0  0  0  0  0
    1.4708   -1.0564    0.0000 H   0  0  0  0  0  0  0  0  0  0  0  0
    4.6871   -1.0564    0.0000 H   0  0  0  0  0  0  0  0  0  0  0  0
    1.4708    0.8006    0.0000 H   0  0  0  0  0  0  0  0  0  0  0  0
    4.6871    0.8006    0.0000 H   0  0  0  0  0  0  0  0  0  0  0  0
    2.3645    3.0046    0.0000 H   0  0  0  0  0  0  0  0  0  0  0  0
    1.4379    1.3996    0.0000 H   0  0  0  0  0  0  0  0  0  0  0  0
    1.4378    2.4696    0.0000 H   0  0  0  0  0  0  0  0  0  0  0  0
  1 15  1  0  0  0  0
  1 16  1  0  0  0  0
  2 15  2  0  0  0  0
  3  4  1  0  0  0  0
  3  8  1  0  0  0  0
  3  9  1  0  0  0  0
  3 17  1  0  0  0  0
  4  5  1  0  0  0  0
  4 18  1  0  0  0  0
  4 19  1  0  0  0  0
  5 10  2  0  0  0  0
  5 11  1  0  0  0  0
  6  7  1  0  0  0  0
  6 12  2  0  0  0  0
  6 13  1  0  0  0  0
  7 14  1  0  0  0  0
  7 15  1  0  0  0  0
  7 20  1  0  0  0  0
  8 21  1  0  0  0  0
  8 22  1  0  0  0  0
  8 23  1  0  0  0  0
  9 24  1  0  0  0  0
  9 25  1  0  0  0  0
  9 26  1  0  0  0  0
 10 12  1  0  0  0  0
 10 27  1  0  0  0  0
 11 13  2  0  0  0  0
 11 28  1  0  0  0  0
 12 29  1  0  0  0  0
 13 30  1  0  0  0  0
 14 31  1  0  0  0  0
 14 32  1  0  0  0  0
 14 33  1  0  0  0  0
M  END
>  <DRUGBANK_ID>
DB01050

>  <SECONDARY_ACCESSION_NUMBERS>
APRD00372

>  <COMMON_NAME>
Ibuprofen

>  <CAS_NUMBER>
15687-27-1

>  <UNII>
WK2XYI10QM

>  <SYNONYMS>
(±)-2-(p-isobutylphenyl)propionic acid; (±)-ibuprofen; (±)-p-isobutylhydratropic acid; (±)-α-methyl-4-(2-methylpropyl)benzeneacetic acid; (4-isobutylphenyl)-α-methylacetic acid; (RS)-ibuprofen; 2-(4-isobutylphenyl)propanoic acid; 4-isobutylhydratropic acid; Ibuprofen; Ibuprofene; Ibuprofeno; Ibuprofenum; Ibuprophen; α-(4-isobutylphenyl)propionic acid; α-(p-isobutylphenyl)propionic acid

$$$$
