MNY
 OpenBabel10282417072D

 30 32  0  0  0  0  0  0  0  0999 V2000
    1.5243   -0.7606    0.0000 C   0  0  0  0  0  0  0  0  0  0  0  0
    0.8098   -0.3481    0.0000 C   0  0  0  0  0  0  0  0  0  0  0  0
    0.8098    0.4769    0.0000 C   0  0  0  0  0  0  0  0  0  0  0  0
    1.5243    0.8894    0.0000 C   0  0  0  0  0  0  0  0  0  0  0  0
    2.2388    0.4769    0.0000 C   0  0  0  0  0  0  0  0  0  0  0  0
    2.2388   -0.3481    0.0000 C   0  0  0  0  0  0  0  0  0  0  0  0
    0.0954    0.8894    0.0000 C   0  0  0  0  0  0  0  0  0  0  0  0
   -0.6191    0.4769    0.0000 C   0  0  0  0  0  0  0  0  0  0  0  0
   -0.6191   -0.3481    0.0000 C   0  0  0  0  0  0  0  0  0  0  0  0
    0.0954   -0.7606    0.0000 C   0  0  0  0  0  0  0  0  0  0  0  0
   -1.3336   -0.7606    0.0000 C   0  0  0  0  0  0  0  0  0  0  0  0
   -2.0481   -0.3481    0.0000 C   0  0  0  0  0  0  0  0  0  0  0  0
   -2.0481    0.4769    0.0000 C   0  0  0  0  0  0  0  0  0  0  0  0
   -1.3336    0.8894    0.0000 C   0  0  0  0  0  0  0  0  0  0  0  0
    0.0954   -1.5856    0.0000 O   0  0  0  0  0  0  0  0  0  0  0  0
    0.0954    1.7144    0.0000 O   0  0  0  0  0  0  0  0  0  0  0  0
    1.5243   -1.5856    0.0000 O   0  0  0  0  0  0  0  0  0  0  0  0
   -1.3336   -1.5856    0.0000 N   0  0  0  0  0  0  0  0  0  0  0  0
   -1.3336    1.7144    0.0000 N   0  0  0  0  0  0  0  0  0  0  0  0
    1.5243    1.7144    0.0000 O   0  0  0  0  0  0  0  0  0  0  0  0
    3.1325    0.9929    0.0000 H   0  0  0  0  0  0  0  0  0  0  0  0
    3.1325   -0.8641    0.0000 H   0  0  0  0  0  0  0  0  0  0  0  0
   -2.9418   -0.8641    0.0000 H   0  0  0  0  0  0  0  0  0  0  0  0
   -2.9418    0.9929    0.0000 H   0  0  0  0  0  0  0  0  0  0  0  0
    0.7128   -2.0541    0.0000 H   0  0  0  0  0  0  0  0  0  0  0  0
   -2.1862   -2.0778    0.0000 H   0  0  0  0  0  0  0  0  0  0  0  0
   -0.4810   -2.0778    0.0000 H   0  0  0  0  0  0  0  0  0  0  0  0
   -0.4810    2.2067    0.0000 H   0  0  0  0  0  0  0  0  0  0  0  0
   -2.1862    2.2066    0.0000 H   0  0  0  0  0  0  0  0  0  0  0  0
    2.3358    2.1829    0.0000 H   0  0  0  0  0  0  0  0  0  0  0  0
  1  2  2  0  0  0  0
  1  6  1  0  0  0  0
  1 17  1  0  0  0  0
  2  3  1  0  0  0  0
  2 10  1  0  0  0  0
  3  4  2  0  0  0  0
  3  7  1  0  0  0  0
  4  5  1  0  0  0  0
  4 20  1  0  0  0  0
  5  6  2  0  0  0  0
  5 21  1  0  0  0  0
  6 22  1  0  0  0  0
  7  8  1  0  0  0  0
  7 16  2  0  0  0  0
  8  9  2  0  0  0  0
  8 14  1  0  0  0  0
  9 10  1  0  0  0  0
  9 11  1  0  0  0  0
 10 15  2  0  0  0  0
 11 12  2  0  0  0  0
 11 18  1  0  0  0  0
 12 13  1  0  0  0  0
 12 23  1  0  0  0  0
 13 14  2  0  0  0  0
 13 24  1  0  0  0  0
 14 19  1  0  0  0  0
 17 25  1  0  0  0  0
 18 26  1  0  0  0  0
 18 27  1  0  0  0  0
 19 28  1  0  0  0  0
 19 29  1  0  0  0  0
 20 30  1  0  0  0  0
M  END
>  <DRUGBANK_ID>
DB03924

>  <SECONDARY_ACCESSION_NUMBERS>
EXPT02206

>  <COMMON_NAME>
5,8-Di-Amino-1,4-Dihydroxy-Anthraquinone

>  <UNII>
58SUQ7J26N

$$$$
