
 OpenBabel10282417072D

 55 58  0  0  0  0  0  0  0  0999 V2000
   -1.6377   -0.4137    0.0000 C   0  0  0  0  0  0  0  0  0  0  0  0
   -2.3522   -0.8263    0.0000 C   0  0  0  0  0  0  0  0  0  0  0  0
   -2.3522   -1.6512    0.0000 C   0  0  1  0  0  0  0  0  0  0  0  0
   -1.6377   -2.0637    0.0000 C   0  0  0  0  0  0  0  0  0  0  0  0
   -0.9232   -1.6512    0.0000 C   0  0  0  0  0  0  0  0  0  0  0  0
   -0.2087   -2.0637    0.0000 C   0  0  0  0  0  0  0  0  0  0  0  0
    0.5056   -1.6512    0.0000 C   0  0  0  0  0  0  0  0  0  0  0  0
   -0.2087    0.4112    0.0000 C   0  0  0  0  0  0  0  0  0  0  0  0
    0.5056    0.8237    0.0000 C   0  0  0  0  0  0  0  0  0  0  0  0
    1.2201   -1.2387    0.0000 H   0  0  0  0  0  0  0  0  0  0  0  0
   -0.2087   -0.4137    0.0000 C   0  0  2  0  0  0  0  0  0  0  0  0
   -0.2087   -1.2387    0.0000 H   0  0  0  0  0  0  0  0  0  0  0  0
    1.2201    1.2362    0.0000 C   0  0  0  0  0  0  0  0  0  0  0  0
   -0.9232   -0.8263    0.0000 C   0  0  1  0  0  0  0  0  0  0  0  0
   -0.9232   -0.0012    0.0000 C   0  0  0  0  0  0  0  0  0  0  0  0
    0.5056   -0.8263    0.0000 C   0  0  2  0  0  0  0  0  0  0  0  0
    0.5056   -0.0012    0.0000 H   0  0  0  0  0  0  0  0  0  0  0  0
    2.0047    0.6661    0.0000 C   0  0  2  0  0  0  0  0  0  0  0  0
    1.2201    0.4112    0.0000 C   0  0  2  0  0  0  0  0  0  0  0  0
    2.0047   -0.6687    0.0000 C   0  0  0  0  0  0  0  0  0  0  0  0
    2.4896   -0.0012    0.0000 C   0  0  0  0  0  0  0  0  0  0  0  0
    1.2201   -0.4137    0.0000 C   0  0  1  0  0  0  0  0  0  0  0  0
    2.2597    1.4507    0.0000 C   0  0  0  0  0  0  0  0  0  0  0  0
    3.0666    1.6222    0.0000 C   0  0  0  0  0  0  0  0  0  0  0  0
    1.7076    2.0637    0.0000 O   0  0  0  0  0  0  0  0  0  0  0  0
   -3.0666   -2.0637    0.0000 O   0  0  0  0  0  0  0  0  0  0  0  0
   -1.6377    0.6563    0.0000 H   0  0  0  0  0  0  0  0  0  0  0  0
   -2.5644    0.1213    0.0000 H   0  0  0  0  0  0  0  0  0  0  0  0
   -3.2789   -0.2913    0.0000 H   0  0  0  0  0  0  0  0  0  0  0  0
   -3.2788   -1.3613    0.0000 H   0  0  0  0  0  0  0  0  0  0  0  0
   -2.3522   -2.7212    0.0000 H   0  0  0  0  0  0  0  0  0  0  0  0
   -1.6377   -3.1337    0.0000 H   0  0  0  0  0  0  0  0  0  0  0  0
   -2.5643   -2.5987    0.0000 H   0  0  0  0  0  0  0  0  0  0  0  0
   -0.2086   -3.0957    0.0000 H   0  0  0  0  0  0  0  0  0  0  0  0
    1.4323   -2.1862    0.0000 H   0  0  0  0  0  0  0  0  0  0  0  0
    0.5057   -2.7212    0.0000 H   0  0  0  0  0  0  0  0  0  0  0  0
   -1.1354    0.9462    0.0000 H   0  0  0  0  0  0  0  0  0  0  0  0
   -0.2088    1.4812    0.0000 H   0  0  0  0  0  0  0  0  0  0  0  0
    0.5055    1.8937    0.0000 H   0  0  0  0  0  0  0  0  0  0  0  0
   -0.4211    1.3586    0.0000 H   0  0  0  0  0  0  0  0  0  0  0  0
    2.1467    1.7712    0.0000 H   0  0  0  0  0  0  0  0  0  0  0  0
    0.2935    1.7712    0.0000 H   0  0  0  0  0  0  0  0  0  0  0  0
    1.2201    2.3062    0.0000 H   0  0  0  0  0  0  0  0  0  0  0  0
    0.0034    0.5338    0.0000 H   0  0  0  0  0  0  0  0  0  0  0  0
   -1.8498    0.5338    0.0000 H   0  0  0  0  0  0  0  0  0  0  0  0
   -0.9232    1.0688    0.0000 H   0  0  0  0  0  0  0  0  0  0  0  0
    1.2481    1.4227    0.0000 H   0  0  0  0  0  0  0  0  0  0  0  0
    2.3353   -1.6863    0.0000 H   0  0  0  0  0  0  0  0  0  0  0  0
    1.2481   -1.4253    0.0000 H   0  0  0  0  0  0  0  0  0  0  0  0
    3.5596   -0.0011    0.0000 H   0  0  0  0  0  0  0  0  0  0  0  0
    2.9753    0.9522    0.0000 H   0  0  0  0  0  0  0  0  0  0  0  0
    3.7826    0.8270    0.0000 H   0  0  0  0  0  0  0  0  0  0  0  0
    3.3973    2.6398    0.0000 H   0  0  0  0  0  0  0  0  0  0  0  0
    4.1132    1.8447    0.0000 H   0  0  0  0  0  0  0  0  0  0  0  0
   -3.9067   -1.5787    0.0000 H   0  0  0  0  0  0  0  0  0  0  0  0
  1 27  1  0  0  0  0
  1 28  1  0  0  0  0
  2  1  1  0  0  0  0
  2 29  1  0  0  0  0
  2 30  1  0  0  0  0
  3  4  1  0  0  0  0
  3  2  1  0  0  0  0
  3 26  1  0  0  0  0
  3 31  1  6  0  0  0
  4  5  1  0  0  0  0
  4 32  1  0  0  0  0
  4 33  1  0  0  0  0
  6  7  1  0  0  0  0
  6  5  2  0  0  0  0
  6 34  1  0  0  0  0
  7 35  1  0  0  0  0
  7 36  1  0  0  0  0
  8  9  1  0  0  0  0
  8 37  1  0  0  0  0
  8 38  1  0  0  0  0
  9 39  1  0  0  0  0
  9 40  1  0  0  0  0
 11  8  1  0  0  0  0
 11 14  1  0  0  0  0
 11 12  1  6  0  0  0
 13 41  1  0  0  0  0
 13 42  1  0  0  0  0
 13 43  1  0  0  0  0
 14  5  1  0  0  0  0
 14  1  1  0  0  0  0
 14 15  1  1  0  0  0
 15 44  1  0  0  0  0
 15 45  1  0  0  0  0
 15 46  1  0  0  0  0
 16 11  1  0  0  0  0
 16  7  1  0  0  0  0
 16 17  1  1  0  0  0
 18 23  1  0  0  0  0
 18 21  1  0  0  0  0
 18 47  1  6  0  0  0
 19  9  1  0  0  0  0
 19 13  1  1  0  0  0
 19 18  1  0  0  0  0
 20 48  1  0  0  0  0
 20 49  1  0  0  0  0
 21 20  1  0  0  0  0
 21 50  1  0  0  0  0
 21 51  1  0  0  0  0
 22 16  1  0  0  0  0
 22 10  1  6  0  0  0
 22 19  1  0  0  0  0
 22 20  1  0  0  0  0
 24 23  1  0  0  0  0
 24 52  1  0  0  0  0
 24 53  1  0  0  0  0
 24 54  1  0  0  0  0
 25 23  2  0  0  0  0
 26 55  1  0  0  0  0
M  END
>  <DRUGBANK_ID>
DB02789

>  <SECONDARY_ACCESSION_NUMBERS>
EXPT02608

>  <COMMON_NAME>
Pregnenolone

>  <CAS_NUMBER>
145-13-1

>  <UNII>
73R90F7MQ8

>  <SYNONYMS>
Pregnenolone

$$$$
