705
 OpenBabel10282417072D

 60 63  0  0  0  0  0  0  0  0999 V2000
    2.3645    1.5132    0.0000 S   0  0  0  0  0  0  0  0  0  0  0  0
    7.7222    2.6401    0.0000 O   0  0  0  0  0  0  0  0  0  0  0  0
    2.7770    2.2276    0.0000 O   0  0  0  0  0  0  0  0  0  0  0  0
    1.9520    0.7986    0.0000 O   0  0  0  0  0  0  0  0  0  0  0  0
    8.5472   -0.2178    0.0000 N   0  0  0  0  0  0  0  0  0  0  0  0
    7.7222    1.2111    0.0000 N   0  0  0  0  0  0  0  0  0  0  0  0
    6.0031    2.5896    0.0000 N   0  0  0  0  0  0  0  0  0  0  0  0
    7.7222   -1.6468    0.0000 N   0  0  0  0  0  0  0  0  0  0  0  0
    9.7847   -0.9323    0.0000 N   0  0  0  0  0  0  0  0  0  0  0  0
    3.0791    1.1007    0.0000 N   0  0  0  0  0  0  0  0  0  0  0  0
    8.9597    0.4967    0.0000 C   0  0  0  0  0  0  0  0  0  0  0  0
    7.7222   -0.2178    0.0000 C   0  0  0  0  0  0  0  0  0  0  0  0
    8.5472    1.2111    0.0000 C   0  0  0  0  0  0  0  0  0  0  0  0
    7.3097    0.4967    0.0000 C   0  0  0  0  0  0  0  0  0  0  0  0
    8.9597   -0.9323    0.0000 C   0  0  0  0  0  0  0  0  0  0  0  0
    7.3097    1.9257    0.0000 C   0  0  0  0  0  0  0  0  0  0  0  0
    6.4846    1.9257    0.0000 C   0  0  0  0  0  0  0  0  0  0  0  0
    8.5472   -1.6468    0.0000 C   0  0  0  0  0  0  0  0  0  0  0  0
    6.0031    1.2617    0.0000 C   0  0  0  0  0  0  0  0  0  0  0  0
    5.2224    1.5132    0.0000 C   0  0  0  0  0  0  0  0  0  0  0  0
    5.2224    2.3382    0.0000 C   0  0  0  0  0  0  0  0  0  0  0  0
    7.3097   -2.3613    0.0000 C   0  0  0  0  0  0  0  0  0  0  0  0
    8.9597   -2.3613    0.0000 C   0  0  0  0  0  0  0  0  0  0  0  0
    4.5080    1.1007    0.0000 C   0  0  0  0  0  0  0  0  0  0  0  0
    4.5080    2.7507    0.0000 C   0  0  0  0  0  0  0  0  0  0  0  0
   10.1972   -1.6468    0.0000 C   0  0  0  0  0  0  0  0  0  0  0  0
    3.7935    1.5132    0.0000 C   0  0  0  0  0  0  0  0  0  0  0  0
    9.7847   -2.3613    0.0000 C   0  0  0  0  0  0  0  0  0  0  0  0
    3.7935    2.3382    0.0000 C   0  0  0  0  0  0  0  0  0  0  0  0
    6.4846   -2.3613    0.0000 C   0  0  0  0  0  0  0  0  0  0  0  0
    7.7222   -3.0758    0.0000 C   0  0  0  0  0  0  0  0  0  0  0  0
    1.6500    1.9257    0.0000 C   0  0  0  0  0  0  0  0  0  0  0  0
    6.3089    3.5254    0.0000 H   0  0  0  0  0  0  0  0  0  0  0  0
    7.2299   -0.7942    0.0000 H   0  0  0  0  0  0  0  0  0  0  0  0
    3.0792    0.1162    0.0000 H   0  0  0  0  0  0  0  0  0  0  0  0
   10.0297    0.4967    0.0000 H   0  0  0  0  0  0  0  0  0  0  0  0
    9.4947    1.4234    0.0000 H   0  0  0  0  0  0  0  0  0  0  0  0
    7.1872   -1.1444    0.0000 H   0  0  0  0  0  0  0  0  0  0  0  0
    6.6522   -0.2178    0.0000 H   0  0  0  0  0  0  0  0  0  0  0  0
    9.0822    2.1378    0.0000 H   0  0  0  0  0  0  0  0  0  0  0  0
    9.6172    1.2111    0.0000 H   0  0  0  0  0  0  0  0  0  0  0  0
    6.2397    0.4967    0.0000 H   0  0  0  0  0  0  0  0  0  0  0  0
    6.7747   -0.4299    0.0000 H   0  0  0  0  0  0  0  0  0  0  0  0
    6.3237    0.2808    0.0000 H   0  0  0  0  0  0  0  0  0  0  0  0
    6.7747   -3.2879    0.0000 H   0  0  0  0  0  0  0  0  0  0  0  0
    8.4437   -3.2550    0.0000 H   0  0  0  0  0  0  0  0  0  0  0  0
    4.5080    0.0687    0.0000 H   0  0  0  0  0  0  0  0  0  0  0  0
    4.5080    3.7827    0.0000 H   0  0  0  0  0  0  0  0  0  0  0  0
   11.2292   -1.6468    0.0000 H   0  0  0  0  0  0  0  0  0  0  0  0
   10.3007   -3.2550    0.0000 H   0  0  0  0  0  0  0  0  0  0  0  0
    2.8998    2.8542    0.0000 H   0  0  0  0  0  0  0  0  0  0  0  0
    5.9496   -1.4347    0.0000 H   0  0  0  0  0  0  0  0  0  0  0  0
    5.9496   -3.2879    0.0000 H   0  0  0  0  0  0  0  0  0  0  0  0
    5.4146   -2.3613    0.0000 H   0  0  0  0  0  0  0  0  0  0  0  0
    7.1872   -4.0024    0.0000 H   0  0  0  0  0  0  0  0  0  0  0  0
    8.7922   -3.0758    0.0000 H   0  0  0  0  0  0  0  0  0  0  0  0
    8.2572   -4.0025    0.0000 H   0  0  0  0  0  0  0  0  0  0  0  0
    1.6500    2.9957    0.0000 H   0  0  0  0  0  0  0  0  0  0  0  0
    0.7234    1.3907    0.0000 H   0  0  0  0  0  0  0  0  0  0  0  0
    0.7233    2.4607    0.0000 H   0  0  0  0  0  0  0  0  0  0  0  0
  1  3  2  0  0  0  0
  1  4  2  0  0  0  0
  1 10  1  0  0  0  0
  1 32  1  0  0  0  0
  2 16  2  0  0  0  0
  5 11  1  0  0  0  0
  5 12  1  0  0  0  0
  5 15  1  0  0  0  0
  6 13  1  0  0  0  0
  6 14  1  0  0  0  0
  6 16  1  0  0  0  0
  7 17  1  0  0  0  0
  7 21  1  0  0  0  0
  7 33  1  0  0  0  0
  8 18  1  0  0  0  0
  8 22  1  0  0  0  0
  8 34  1  0  0  0  0
  9 15  1  0  0  0  0
  9 26  2  0  0  0  0
 10 27  1  0  0  0  0
 10 35  1  0  0  0  0
 11 13  1  0  0  0  0
 11 36  1  0  0  0  0
 11 37  1  0  0  0  0
 12 14  1  0  0  0  0
 12 38  1  0  0  0  0
 12 39  1  0  0  0  0
 13 40  1  0  0  0  0
 13 41  1  0  0  0  0
 14 42  1  0  0  0  0
 14 43  1  0  0  0  0
 15 18  2  0  0  0  0
 16 17  1  0  0  0  0
 17 19  2  0  0  0  0
 18 23  1  0  0  0  0
 19 20  1  0  0  0  0
 19 44  1  0  0  0  0
 20 21  2  0  0  0  0
 20 24  1  0  0  0  0
 21 25  1  0  0  0  0
 22 30  1  0  0  0  0
 22 31  1  0  0  0  0
 22 45  1  0  0  0  0
 23 28  2  0  0  0  0
 23 46  1  0  0  0  0
 24 27  2  0  0  0  0
 24 47  1  0  0  0  0
 25 29  2  0  0  0  0
 25 48  1  0  0  0  0
 26 28  1  0  0  0  0
 26 49  1  0  0  0  0
 27 29  1  0  0  0  0
 28 50  1  0  0  0  0
 29 51  1  0  0  0  0
 30 52  1  0  0  0  0
 30 53  1  0  0  0  0
 30 54  1  0  0  0  0
 31 55  1  0  0  0  0
 31 56  1  0  0  0  0
 31 57  1  0  0  0  0
 32 58  1  0  0  0  0
 32 59  1  0  0  0  0
 32 60  1  0  0  0  0
M  END
>  <DRUGBANK_ID>
DB00705

>  <SECONDARY_ACCESSION_NUMBERS>
APRD00149; DB08563

>  <COMMON_NAME>
Delavirdine

>  <CAS_NUMBER>
136817-59-9

>  <UNII>
DOL5F9JD3E

>  <SYNONYMS>
(N-[2-[4-[3-(1-methylethylamino)pyridin-2-yl]piperazin-1-yl]carbonyl-1H-indol-5-yl] methanesulfonamide); 1-(3-((1-methylethyl)amino)-2-pyridinyl)-4-((5-((methylsulfonyl)amino)-1H-indol-2-yl)carbonyl)piperazine; 2-(4-(5-methanesulfonamido-1H-indol-2-ylcarbonyl)-1-piperazinyl)-N-(1-methylethyl)-3-pyridinamine; Delavirdin; Delavirdina; Delavirdine; Delavirdinum; N-(2-(1-(3-(isopropylamino)pyridin-2-yl)piperazine-4-carbonyl)-1H-indol-5-yl)methanesulfonamide; N-{2-[4-(3-Isopropylamino-pyridin-2-yl)-piperazine-1-carbonyl]-1H-indol-5-yl}-methanesulfonamide

$$$$
