
 OpenBabel10282417072D

 60 63  0  0  0  0  0  0  0  0999 V2000
    2.3522    0.3352    0.0000 C   0  0  0  0  0  0  0  0  0  0  0  0
    2.0701    1.1104    0.0000 C   0  0  0  0  0  0  0  0  0  0  0  0
    2.8825    1.2537    0.0000 C   0  0  0  0  0  0  0  0  0  0  0  0
    1.3556    0.6979    0.0000 C   0  0  0  0  0  0  0  0  0  0  0  0
    0.6411    1.1104    0.0000 C   0  0  0  0  0  0  0  0  0  0  0  0
    0.6411    1.9354    0.0000 C   0  0  0  0  0  0  0  0  0  0  0  0
   -0.1435    2.1904    0.0000 C   0  0  0  0  0  0  0  0  0  0  0  0
   -0.6284    1.5229    0.0000 N   0  0  0  0  0  0  0  0  0  0  0  0
   -0.1435    0.8555    0.0000 N   0  0  0  0  0  0  0  0  0  0  0  0
   -0.3984    0.0709    0.0000 C   0  0  0  0  0  0  0  0  0  0  0  0
    0.1536   -0.5422    0.0000 C   0  0  0  0  0  0  0  0  0  0  0  0
   -0.1014   -1.3268    0.0000 C   0  0  0  0  0  0  0  0  0  0  0  0
   -0.9083   -1.4984    0.0000 C   0  0  0  0  0  0  0  0  0  0  0  0
   -1.1633   -2.2830    0.0000 C   0  0  0  0  0  0  0  0  0  0  0  0
   -1.9702   -2.4545    0.0000 N   0  0  0  0  0  0  0  0  0  0  0  0
   -0.6112   -2.8961    0.0000 O   0  0  0  0  0  0  0  0  0  0  0  0
   -1.4604   -0.8853    0.0000 C   0  0  0  0  0  0  0  0  0  0  0  0
   -2.2673   -1.0568    0.0000 N   0  0  0  0  0  0  0  0  0  0  0  0
   -2.8194   -0.4437    0.0000 C   0  0  1  0  0  0  0  0  0  0  0  0
   -3.6263   -0.6152    0.0000 C   0  0  0  0  0  0  0  0  0  0  0  0
   -4.1784   -0.0021    0.0000 C   0  0  0  0  0  0  0  0  0  0  0  0
   -3.9234    0.7825    0.0000 C   0  0  2  0  0  0  0  0  0  0  0  0
   -4.4755    1.3956    0.0000 O   0  0  0  0  0  0  0  0  0  0  0  0
   -3.1165    0.9540    0.0000 C   0  0  0  0  0  0  0  0  0  0  0  0
   -2.5644    0.3409    0.0000 C   0  0  0  0  0  0  0  0  0  0  0  0
   -1.2054   -0.1006    0.0000 C   0  0  0  0  0  0  0  0  0  0  0  0
   -0.3984    2.9750    0.0000 C   0  0  0  0  0  0  0  0  0  0  0  0
   -0.6534    3.7596    0.0000 F   0  0  0  0  0  0  0  0  0  0  0  0
   -1.1831    2.7201    0.0000 F   0  0  0  0  0  0  0  0  0  0  0  0
    0.3862    3.2299    0.0000 F   0  0  0  0  0  0  0  0  0  0  0  0
    1.3556    2.3479    0.0000 C   0  0  0  0  0  0  0  0  0  0  0  0
    1.3556    3.1729    0.0000 O   0  0  0  0  0  0  0  0  0  0  0  0
    2.0701    1.9354    0.0000 C   0  0  0  0  0  0  0  0  0  0  0  0
    1.6644   -0.4844    0.0000 H   0  0  0  0  0  0  0  0  0  0  0  0
    3.4059    0.1493    0.0000 H   0  0  0  0  0  0  0  0  0  0  0  0
    2.7181   -0.6703    0.0000 H   0  0  0  0  0  0  0  0  0  0  0  0
    3.5703    0.4341    0.0000 H   0  0  0  0  0  0  0  0  0  0  0  0
    3.2484    2.2592    0.0000 H   0  0  0  0  0  0  0  0  0  0  0  0
    3.9362    1.4396    0.0000 H   0  0  0  0  0  0  0  0  0  0  0  0
    1.3556   -0.3721    0.0000 H   0  0  0  0  0  0  0  0  0  0  0  0
    0.4290    0.1629    0.0000 H   0  0  0  0  0  0  0  0  0  0  0  0
    1.1631   -0.3277    0.0000 H   0  0  0  0  0  0  0  0  0  0  0  0
    0.5892   -2.0937    0.0000 H   0  0  0  0  0  0  0  0  0  0  0  0
   -2.6289   -1.7229    0.0000 H   0  0  0  0  0  0  0  0  0  0  0  0
   -2.2744   -3.3908    0.0000 H   0  0  0  0  0  0  0  0  0  0  0  0
   -2.5715   -1.9931    0.0000 H   0  0  0  0  0  0  0  0  0  0  0  0
   -3.1500   -1.4613    0.0000 H   0  0  0  0  0  0  0  0  0  0  0  0
   -3.9569   -1.6328    0.0000 H   0  0  0  0  0  0  0  0  0  0  0  0
   -4.6729   -0.8377    0.0000 H   0  0  0  0  0  0  0  0  0  0  0  0
   -5.2250   -0.2246    0.0000 H   0  0  0  0  0  0  0  0  0  0  0  0
   -4.8943    0.7931    0.0000 H   0  0  0  0  0  0  0  0  0  0  0  0
   -4.9700    0.5600    0.0000 H   0  0  0  0  0  0  0  0  0  0  0  0
   -4.1758    2.3181    0.0000 H   0  0  0  0  0  0  0  0  0  0  0  0
   -2.7859    1.9716    0.0000 H   0  0  0  0  0  0  0  0  0  0  0  0
   -2.0699    1.1765    0.0000 H   0  0  0  0  0  0  0  0  0  0  0  0
   -1.5178    0.5634    0.0000 H   0  0  0  0  0  0  0  0  0  0  0  0
   -1.8485   -0.4543    0.0000 H   0  0  0  0  0  0  0  0  0  0  0  0
   -1.8959    0.6664    0.0000 H   0  0  0  0  0  0  0  0  0  0  0  0
    2.9967    2.4704    0.0000 H   0  0  0  0  0  0  0  0  0  0  0  0
    2.9967    1.4004    0.0000 H   0  0  0  0  0  0  0  0  0  0  0  0
  1  2  1  0  0  0  0
  1 34  1  0  0  0  0
  1 35  1  0  0  0  0
  1 36  1  0  0  0  0
  2  3  1  0  0  0  0
  2  4  1  0  0  0  0
  2 33  1  0  0  0  0
  3 37  1  0  0  0  0
  3 38  1  0  0  0  0
  3 39  1  0  0  0  0
  4  5  1  0  0  0  0
  4 40  1  0  0  0  0
  4 41  1  0  0  0  0
  5  6  2  0  0  0  0
  5  9  1  0  0  0  0
  6  7  1  0  0  0  0
  6 31  1  0  0  0  0
  7  8  2  0  0  0  0
  7 27  1  0  0  0  0
  8  9  1  0  0  0  0
  9 10  1  0  0  0  0
 10 11  2  0  0  0  0
 10 26  1  0  0  0  0
 11 12  1  0  0  0  0
 11 42  1  0  0  0  0
 12 13  2  0  0  0  0
 12 43  1  0  0  0  0
 13 14  1  0  0  0  0
 13 17  1  0  0  0  0
 14 15  1  0  0  0  0
 14 16  2  0  0  0  0
 15 44  1  0  0  0  0
 15 45  1  0  0  0  0
 17 18  1  0  0  0  0
 17 26  2  0  0  0  0
 18 46  1  0  0  0  0
 19 18  1  0  0  0  0
 19 20  1  0  0  0  0
 19 25  1  0  0  0  0
 19 47  1  6  0  0  0
 20 21  1  0  0  0  0
 20 48  1  0  0  0  0
 20 49  1  0  0  0  0
 21 50  1  0  0  0  0
 21 51  1  0  0  0  0
 22 21  1  0  0  0  0
 22 23  1  0  0  0  0
 22 24  1  0  0  0  0
 22 52  1  1  0  0  0
 23 53  1  0  0  0  0
 24 25  1  0  0  0  0
 24 54  1  0  0  0  0
 24 55  1  0  0  0  0
 25 56  1  0  0  0  0
 25 57  1  0  0  0  0
 26 58  1  0  0  0  0
 27 28  1  0  0  0  0
 27 29  1  0  0  0  0
 27 30  1  0  0  0  0
 31 32  2  0  0  0  0
 31 33  1  0  0  0  0
 33 59  1  0  0  0  0
 33 60  1  0  0  0  0
M  END
>  <DRUGBANK_ID>
DB17055

>  <COMMON_NAME>
SNX-2112

>  <CAS_NUMBER>
908112-43-6

>  <UNII>
10C9P3FFOW

>  <SYNONYMS>
Benzamide, 2-((trans-4-hydroxycyclohexyl)amino)-4-(4,5,6,7-tetrahydro-6,6-dimethyl-4-oxo-3-(trifluoromethyl)-1h-indazol-1-yl)-

$$$$
