
 OpenBabel10282417072D

 31 33  0  0  0  0  0  0  0  0999 V2000
    0.7327   -1.6500    0.0000 O   0  0  0  0  0  0  0  0  0  0  0  0
    0.7327    1.6500    0.0000 O   0  0  0  0  0  0  0  0  0  0  0  0
    1.4471   -0.4124    0.0000 N   0  0  0  0  0  0  0  0  0  0  0  0
    0.0180    0.4124    0.0000 N   0  0  0  0  0  0  0  0  0  0  0  0
   -2.1646   -0.7480    0.0000 N   0  0  0  0  0  0  0  0  0  0  0  0
   -2.3040    0.5795    0.0000 N   0  0  0  0  0  0  0  0  0  0  0  0
    1.4471    0.4124    0.0000 C   0  0  2  0  0  0  0  0  0  0  0  0
    0.0180   -0.4124    0.0000 C   0  0  2  0  0  0  0  0  0  0  0  0
    0.7327   -0.8250    0.0000 C   0  0  0  0  0  0  0  0  0  0  0  0
    0.7327    0.8250    0.0000 C   0  0  0  0  0  0  0  0  0  0  0  0
   -0.6964   -0.8250    0.0000 C   0  0  0  0  0  0  0  0  0  0  0  0
   -1.4108   -0.4124    0.0000 C   0  0  0  0  0  0  0  0  0  0  0  0
   -1.4970    0.4079    0.0000 C   0  0  0  0  0  0  0  0  0  0  0  0
   -2.7165   -0.1350    0.0000 C   0  0  0  0  0  0  0  0  0  0  0  0
    1.4429    1.3064    0.0000 H   0  0  0  0  0  0  0  0  0  0  0  0
    2.2317   -0.6673    0.0000 C   0  0  0  0  0  0  0  0  0  0  0  0
    2.7165    0.0000    0.0000 C   0  0  0  0  0  0  0  0  0  0  0  0
    2.2318    0.6673    0.0000 C   0  0  0  0  0  0  0  0  0  0  0  0
   -0.8346    0.9047    0.0000 H   0  0  0  0  0  0  0  0  0  0  0  0
   -2.3693   -1.7110    0.0000 H   0  0  0  0  0  0  0  0  0  0  0  0
   -0.9087    0.1225    0.0000 H   0  0  0  0  0  0  0  0  0  0  0  0
   -0.6964   -1.8950    0.0000 H   0  0  0  0  0  0  0  0  0  0  0  0
   -1.6231   -1.3599    0.0000 H   0  0  0  0  0  0  0  0  0  0  0  0
   -0.7300    1.0984    0.0000 H   0  0  0  0  0  0  0  0  0  0  0  0
   -3.7428   -0.2429    0.0000 H   0  0  0  0  0  0  0  0  0  0  0  0
    2.5624   -1.6849    0.0000 H   0  0  0  0  0  0  0  0  0  0  0  0
    3.2885   -0.8347    0.0000 H   0  0  0  0  0  0  0  0  0  0  0  0
    3.7865   -0.0001    0.0000 H   0  0  0  0  0  0  0  0  0  0  0  0
    3.2024    0.9533    0.0000 H   0  0  0  0  0  0  0  0  0  0  0  0
    2.5625    1.6849    0.0000 H   0  0  0  0  0  0  0  0  0  0  0  0
    3.2886    0.8346    0.0000 H   0  0  0  0  0  0  0  0  0  0  0  0
  1  9  2  0  0  0  0
  2 10  2  0  0  0  0
  3  9  1  0  0  0  0
  3 16  1  0  0  0  0
  3  7  1  0  0  0  0
  4  8  1  0  0  0  0
  4 10  1  0  0  0  0
  4 19  1  0  0  0  0
  5 12  1  0  0  0  0
  5 14  1  0  0  0  0
  5 20  1  0  0  0  0
  6 13  1  0  0  0  0
  6 14  2  0  0  0  0
  7 10  1  0  0  0  0
  7 15  1  1  0  0  0
  7 18  1  0  0  0  0
  8  9  1  0  0  0  0
  8 11  1  0  0  0  0
  8 21  1  1  0  0  0
 11 12  1  0  0  0  0
 11 22  1  0  0  0  0
 11 23  1  0  0  0  0
 12 13  2  0  0  0  0
 13 24  1  0  0  0  0
 14 25  1  0  0  0  0
 16 17  1  0  0  0  0
 16 26  1  0  0  0  0
 16 27  1  0  0  0  0
 17 18  1  0  0  0  0
 17 28  1  0  0  0  0
 17 29  1  0  0  0  0
 18 30  1  0  0  0  0
 18 31  1  0  0  0  0
M  END
>  <DRUGBANK_ID>
DB02414

>  <SECONDARY_ACCESSION_NUMBERS>
EXPT00911

>  <COMMON_NAME>
Cyclo(his-pro)

>  <CAS_NUMBER>
53109-32-3

>  <UNII>
Q10817UXVT

>  <SYNONYMS>
(3S,8aS)-3-(1H-Imidazol-4-ylmethyl)hexahydropyrrolo[1,2-a]pyrazine-1,4-dione; cyclo(histidyl-prolyl); cyclo(L-His-L-Pro); Histidyl-proline diketopiperazine; Histidyl-proline-diketopiperazine

$$$$
