
 OpenBabel10282417072D

 58 61  0  0  0  0  0  0  0  0999 V2000
    0.7145   -7.3542    0.0000 C   0  0  0  0  0  0  0  0  0  0  0  0
    0.0000   -6.9417    0.0000 C   0  0  0  0  0  0  0  0  0  0  0  0
    0.0000   -6.1167    0.0000 C   0  0  0  0  0  0  0  0  0  0  0  0
    0.7145   -5.7042    0.0000 C   0  0  0  0  0  0  0  0  0  0  0  0
    1.4289   -6.1167    0.0000 C   0  0  0  0  0  0  0  0  0  0  0  0
    1.4289   -6.9417    0.0000 C   0  0  0  0  0  0  0  0  0  0  0  0
    2.1434   -5.7042    0.0000 C   0  0  0  0  0  0  0  0  0  0  0  0
    2.1434   -4.8792    0.0000 O   0  0  0  0  0  0  0  0  0  0  0  0
    2.8579   -6.1167    0.0000 N   0  0  0  0  0  0  0  0  0  0  0  0
    3.5724   -5.7042    0.0000 C   0  0  0  0  0  0  0  0  0  0  0  0
    4.2868   -6.1167    0.0000 C   0  0  0  0  0  0  0  0  0  0  0  0
    4.2868   -6.9417    0.0000 O   0  0  0  0  0  0  0  0  0  0  0  0
    5.0013   -5.7042    0.0000 N   0  0  0  0  0  0  0  0  0  0  0  0
    5.7158   -6.1167    0.0000 C   0  0  3  0  0  0  0  0  0  0  0  0
    6.5127   -5.9032    0.0000 C   0  0  0  0  0  0  0  0  0  0  0  0
    6.7262   -6.7001    0.0000 N   0  0  3  0  0  0  0  0  0  0  0  0
    5.9293   -6.9136    0.0000 C   0  0  0  0  0  0  0  0  0  0  0  0
    7.4407   -7.1126    0.0000 C   0  0  1  0  0  0  0  0  0  0  0  0
    8.1551   -6.7001    0.0000 C   0  0  0  0  0  0  0  0  0  0  0  0
    8.8696   -7.1126    0.0000 C   0  0  0  0  0  0  0  0  0  0  0  0
    8.8696   -7.9376    0.0000 C   0  0  1  0  0  0  0  0  0  0  0  0
    8.1551   -8.3501    0.0000 C   0  0  0  0  0  0  0  0  0  0  0  0
    7.4407   -7.9376    0.0000 C   0  0  0  0  0  0  0  0  0  0  0  0
    9.6941   -7.9664    0.0000 O   0  0  0  0  0  0  0  0  0  0  0  0
    9.3068   -8.6372    0.0000 C   0  0  0  0  0  0  0  0  0  0  0  0
   10.1298   -8.6948    0.0000 S   0  0  0  0  0  0  0  0  0  0  0  0
   10.3294   -9.4953    0.0000 C   0  0  0  0  0  0  0  0  0  0  0  0
    9.6297   -9.9325    0.0000 N   0  0  0  0  0  0  0  0  0  0  0  0
    8.9977   -9.4022    0.0000 C   0  0  0  0  0  0  0  0  0  0  0  0
   -0.7145   -5.7042    0.0000 C   0  0  0  0  0  0  0  0  0  0  0  0
   -1.4289   -5.2917    0.0000 F   0  0  0  0  0  0  0  0  0  0  0  0
   -0.3020   -4.9898    0.0000 F   0  0  0  0  0  0  0  0  0  0  0  0
   -1.1270   -6.4187    0.0000 F   0  0  0  0  0  0  0  0  0  0  0  0
    0.7145   -8.3862    0.0000 H   0  0  0  0  0  0  0  0  0  0  0  0
   -0.8937   -7.4577    0.0000 H   0  0  0  0  0  0  0  0  0  0  0  0
    0.7145   -4.6722    0.0000 H   0  0  0  0  0  0  0  0  0  0  0  0
    2.3226   -7.4577    0.0000 H   0  0  0  0  0  0  0  0  0  0  0  0
    2.8579   -7.1012    0.0000 H   0  0  0  0  0  0  0  0  0  0  0  0
    3.5724   -4.6342    0.0000 H   0  0  0  0  0  0  0  0  0  0  0  0
    4.4991   -5.1692    0.0000 H   0  0  0  0  0  0  0  0  0  0  0  0
    5.0013   -4.7197    0.0000 H   0  0  0  0  0  0  0  0  0  0  0  0
    5.8555   -5.0559    0.0000 H   0  0  0  0  0  0  0  0  0  0  0  0
    7.0477   -4.9766    0.0000 H   0  0  0  0  0  0  0  0  0  0  0  0
    7.5735   -6.0429    0.0000 H   0  0  0  0  0  0  0  0  0  0  0  0
    5.3943   -7.8402    0.0000 H   0  0  0  0  0  0  0  0  0  0  0  0
    4.8685   -6.7739    0.0000 H   0  0  0  0  0  0  0  0  0  0  0  0
    7.4407   -6.0426    0.0000 H   0  0  0  0  0  0  0  0  0  0  0  0
    8.1551   -5.6301    0.0000 H   0  0  0  0  0  0  0  0  0  0  0  0
    9.0817   -6.1651    0.0000 H   0  0  0  0  0  0  0  0  0  0  0  0
    9.7962   -6.5776    0.0000 H   0  0  0  0  0  0  0  0  0  0  0  0
    9.7962   -7.6476    0.0000 H   0  0  0  0  0  0  0  0  0  0  0  0
    8.1551   -9.4201    0.0000 H   0  0  0  0  0  0  0  0  0  0  0  0
    7.2284   -8.8851    0.0000 H   0  0  0  0  0  0  0  0  0  0  0  0
    6.5140   -8.4726    0.0000 H   0  0  0  0  0  0  0  0  0  0  0  0
    6.5141   -7.4026    0.0000 H   0  0  0  0  0  0  0  0  0  0  0  0
   10.1495   -8.8229    0.0000 H   0  0  0  0  0  0  0  0  0  0  0  0
   11.2863   -9.8819    0.0000 H   0  0  0  0  0  0  0  0  0  0  0  0
    7.9964   -9.6519    0.0000 H   0  0  0  0  0  0  0  0  0  0  0  0
  1  2  2  0  0  0  0
  1  6  1  0  0  0  0
  1 34  1  0  0  0  0
  2  3  1  0  0  0  0
  2 35  1  0  0  0  0
  3  4  2  0  0  0  0
  3 30  1  0  0  0  0
  4  5  1  0  0  0  0
  4 36  1  0  0  0  0
  5  6  2  0  0  0  0
  5  7  1  0  0  0  0
  6 37  1  0  0  0  0
  7  8  2  0  0  0  0
  7  9  1  0  0  0  0
  9 10  1  0  0  0  0
  9 38  1  0  0  0  0
 10 11  1  0  0  0  0
 10 39  1  0  0  0  0
 10 40  1  0  0  0  0
 11 12  2  0  0  0  0
 11 13  1  0  0  0  0
 13 14  1  0  0  0  0
 13 41  1  0  0  0  0
 14 15  1  0  0  0  0
 14 17  1  0  0  0  0
 14 42  1  0  0  0  0
 15 16  1  0  0  0  0
 15 43  1  0  0  0  0
 15 44  1  0  0  0  0
 16 17  1  0  0  0  0
 17 45  1  0  0  0  0
 17 46  1  0  0  0  0
 18 16  1  0  0  0  0
 18 19  1  0  0  0  0
 18 23  1  0  0  0  0
 18 47  1  6  0  0  0
 19 20  1  0  0  0  0
 19 48  1  0  0  0  0
 19 49  1  0  0  0  0
 20 21  1  0  0  0  0
 20 50  1  0  0  0  0
 20 51  1  0  0  0  0
 21 22  1  0  0  0  0
 21 24  1  6  0  0  0
 21 25  1  0  0  0  0
 22 23  1  0  0  0  0
 22 52  1  0  0  0  0
 22 53  1  0  0  0  0
 23 54  1  0  0  0  0
 23 55  1  0  0  0  0
 24 56  1  0  0  0  0
 25 26  1  0  0  0  0
 25 29  2  0  0  0  0
 26 27  1  0  0  0  0
 27 28  2  0  0  0  0
 27 57  1  0  0  0  0
 28 29  1  0  0  0  0
 29 58  1  0  0  0  0
 30 31  1  0  0  0  0
 30 32  1  0  0  0  0
 30 33  1  0  0  0  0
M  END
>  <DRUGBANK_ID>
DB12632

>  <COMMON_NAME>
JNJ-41443532

>  <CAS_NUMBER>
1228650-83-6

>  <UNII>
0OJB0LES1A

$$$$
