692
 OpenBabel10282417072D

 40 42  0  0  0  0  0  0  0  0999 V2000
    2.0894   -2.2353    0.0000 O   0  0  0  0  0  0  0  0  0  0  0  0
    3.5185    0.2398    0.0000 N   0  0  0  0  0  0  0  0  0  0  0  0
    2.1365    1.9622    0.0000 N   0  0  0  0  0  0  0  0  0  0  0  0
    3.4714    1.9622    0.0000 N   0  0  0  0  0  0  0  0  0  0  0  0
    2.8040    0.6523    0.0000 C   0  0  0  0  0  0  0  0  0  0  0  0
    2.8040    1.4773    0.0000 C   0  0  0  0  0  0  0  0  0  0  0  0
    2.3915    2.7468    0.0000 C   0  0  0  0  0  0  0  0  0  0  0  0
    3.2165    2.7468    0.0000 C   0  0  0  0  0  0  0  0  0  0  0  0
    4.2329    0.6523    0.0000 C   0  0  0  0  0  0  0  0  0  0  0  0
    3.5185   -0.5853    0.0000 C   0  0  0  0  0  0  0  0  0  0  0  0
    4.9474    0.2398    0.0000 C   0  0  0  0  0  0  0  0  0  0  0  0
    4.2329    1.4773    0.0000 C   0  0  0  0  0  0  0  0  0  0  0  0
    2.8040   -0.9978    0.0000 C   0  0  0  0  0  0  0  0  0  0  0  0
    4.2329   -0.9978    0.0000 C   0  0  0  0  0  0  0  0  0  0  0  0
    5.6619    1.4773    0.0000 C   0  0  0  0  0  0  0  0  0  0  0  0
    5.6619    0.6523    0.0000 C   0  0  0  0  0  0  0  0  0  0  0  0
    4.9474    1.8898    0.0000 C   0  0  0  0  0  0  0  0  0  0  0  0
    2.8040   -1.8228    0.0000 C   0  0  0  0  0  0  0  0  0  0  0  0
    4.2329   -1.8228    0.0000 C   0  0  0  0  0  0  0  0  0  0  0  0
    3.5185   -2.2353    0.0000 C   0  0  0  0  0  0  0  0  0  0  0  0
    6.3764    1.8898    0.0000 C   0  0  0  0  0  0  0  0  0  0  0  0
    1.2780   -1.7667    0.0000 H   0  0  0  0  0  0  0  0  0  0  0  0
    1.2002    1.6580    0.0000 H   0  0  0  0  0  0  0  0  0  0  0  0
    1.8774    0.1173    0.0000 H   0  0  0  0  0  0  0  0  0  0  0  0
    1.8774    1.1873    0.0000 H   0  0  0  0  0  0  0  0  0  0  0  0
    1.7626    3.6125    0.0000 H   0  0  0  0  0  0  0  0  0  0  0  0
    2.8773    3.7002    0.0000 H   0  0  0  0  0  0  0  0  0  0  0  0
    3.8454    3.6124    0.0000 H   0  0  0  0  0  0  0  0  0  0  0  0
    2.7307    3.7002    0.0000 H   0  0  0  0  0  0  0  0  0  0  0  0
    4.9474   -0.7922    0.0000 H   0  0  0  0  0  0  0  0  0  0  0  0
    3.3392    1.9933    0.0000 H   0  0  0  0  0  0  0  0  0  0  0  0
    1.9103   -0.4818    0.0000 H   0  0  0  0  0  0  0  0  0  0  0  0
    5.1266   -0.4818    0.0000 H   0  0  0  0  0  0  0  0  0  0  0  0
    6.5556    0.1363    0.0000 H   0  0  0  0  0  0  0  0  0  0  0  0
    4.9474    2.9218    0.0000 H   0  0  0  0  0  0  0  0  0  0  0  0
    5.1266   -2.3388    0.0000 H   0  0  0  0  0  0  0  0  0  0  0  0
    3.5185   -3.2673    0.0000 H   0  0  0  0  0  0  0  0  0  0  0  0
    7.3030    1.3548    0.0000 H   0  0  0  0  0  0  0  0  0  0  0  0
    6.3764    2.9598    0.0000 H   0  0  0  0  0  0  0  0  0  0  0  0
    7.3031    2.4248    0.0000 H   0  0  0  0  0  0  0  0  0  0  0  0
  1 18  1  0  0  0  0
  1 22  1  0  0  0  0
  2  5  1  0  0  0  0
  2  9  1  0  0  0  0
  2 10  1  0  0  0  0
  3  6  1  0  0  0  0
  3  7  1  0  0  0  0
  3 23  1  0  0  0  0
  4  6  2  0  0  0  0
  4  8  1  0  0  0  0
  5  6  1  0  0  0  0
  5 24  1  0  0  0  0
  5 25  1  0  0  0  0
  7  8  1  0  0  0  0
  7 26  1  0  0  0  0
  7 27  1  0  0  0  0
  8 28  1  0  0  0  0
  8 29  1  0  0  0  0
  9 11  2  0  0  0  0
  9 12  1  0  0  0  0
 10 13  2  0  0  0  0
 10 14  1  0  0  0  0
 11 16  1  0  0  0  0
 11 30  1  0  0  0  0
 12 17  2  0  0  0  0
 12 31  1  0  0  0  0
 13 18  1  0  0  0  0
 13 32  1  0  0  0  0
 14 19  2  0  0  0  0
 14 33  1  0  0  0  0
 15 16  2  0  0  0  0
 15 17  1  0  0  0  0
 15 21  1  0  0  0  0
 16 34  1  0  0  0  0
 17 35  1  0  0  0  0
 18 20  2  0  0  0  0
 19 20  1  0  0  0  0
 19 36  1  0  0  0  0
 20 37  1  0  0  0  0
 21 38  1  0  0  0  0
 21 39  1  0  0  0  0
 21 40  1  0  0  0  0
M  END
>  <DRUGBANK_ID>
DB00692

>  <SECONDARY_ACCESSION_NUMBERS>
APRD00615

>  <COMMON_NAME>
Phentolamine

>  <CAS_NUMBER>
50-60-2

>  <UNII>
Z468598HBV

>  <SYNONYMS>
2-(N-(m-hydroxyphenyl)-p-toluidinomethyl)imidazoline; 3-((4,5-DIHYDRO-1H-IMIDAZOL-2-YLMETHYL)(4-METHYLPHENYL)AMINO)PHENOL; Fentolamina; Phentolamin; Phentolamine; Phentolaminum

$$$$
