
 OpenBabel10282417072D

 48 51  0  0  1  0  0  0  0  0999 V2000
    4.9258   -0.4558    0.0000 O   0  0  0  0  0  0  0  0  0  0  0  0
    4.6233    0.9408    0.0000 O   0  0  0  0  0  0  0  0  0  0  0  0
    9.1469   -1.2076    0.0000 N   0  0  0  0  0  0  0  0  0  0  0  0
    8.2297    0.0609    0.0000 N   0  0  0  0  0  0  0  0  0  0  0  0
    3.5651   -0.0196    0.0000 N   0  0  0  0  0  0  0  0  0  0  0  0
    7.8172   -1.2087    0.0000 C   0  0  1  0  0  0  0  0  0  0  0  0
    8.4847   -0.7238    0.0000 C   0  0  2  0  0  0  0  0  0  0  0  0
    8.0727   -1.9880    0.0000 C   0  0  0  0  0  0  0  0  0  0  0  0
    7.1497   -0.7238    0.0000 C   0  0  0  0  0  0  0  0  0  0  0  0
    8.8928   -1.9873    0.0000 C   0  0  0  0  0  0  0  0  0  0  0  0
    7.4047    0.0609    0.0000 C   0  0  0  0  0  0  0  0  0  0  0  0
    7.1497   -1.6937    0.0000 C   0  0  0  0  0  0  0  0  0  0  0  0
    9.9320   -0.9540    0.0000 C   0  0  0  0  0  0  0  0  0  0  0  0
    6.3120   -0.9153    0.0000 C   0  0  0  0  0  0  0  0  0  0  0  0
    8.7146    0.7283    0.0000 C   0  0  0  0  0  0  0  0  0  0  0  0
    6.8396    0.7083    0.0000 C   0  0  0  0  0  0  0  0  0  0  0  0
    5.7321   -0.2812    0.0000 C   0  0  0  0  0  0  0  0  0  0  0  0
    5.9977    0.5361    0.0000 C   0  0  0  0  0  0  0  0  0  0  0  0
    4.3714    0.1551    0.0000 C   0  0  0  0  0  0  0  0  0  0  0  0
    3.0107    0.5914    0.0000 C   0  0  0  0  0  0  0  0  0  0  0  0
    2.2044    0.4168    0.0000 C   0  0  0  0  0  0  0  0  0  0  0  0
    3.2626    1.3770    0.0000 C   0  0  0  0  0  0  0  0  0  0  0  0
    1.6500    1.0278    0.0000 C   0  0  0  0  0  0  0  0  0  0  0  0
    2.7082    1.9880    0.0000 C   0  0  0  0  0  0  0  0  0  0  0  0
    1.9019    1.8134    0.0000 C   0  0  0  0  0  0  0  0  0  0  0  0
    9.0191   -0.3365    0.0000 H   0  0  0  0  0  0  0  0  0  0  0  0
    3.2645   -0.9571    0.0000 H   0  0  0  0  0  0  0  0  0  0  0  0
    7.4453   -2.8548    0.0000 H   0  0  0  0  0  0  0  0  0  0  0  0
    8.5597   -2.9407    0.0000 H   0  0  0  0  0  0  0  0  0  0  0  0
    9.5217   -2.8530    0.0000 H   0  0  0  0  0  0  0  0  0  0  0  0
    8.4074   -2.9409    0.0000 H   0  0  0  0  0  0  0  0  0  0  0  0
    6.1722   -1.2585    0.0000 H   0  0  0  0  0  0  0  0  0  0  0  0
    7.2616   -2.7578    0.0000 H   0  0  0  0  0  0  0  0  0  0  0  0
    6.2841   -2.3227    0.0000 H   0  0  0  0  0  0  0  0  0  0  0  0
   10.7259   -1.6713    0.0000 H   0  0  0  0  0  0  0  0  0  0  0  0
   10.1563    0.0922    0.0000 H   0  0  0  0  0  0  0  0  0  0  0  0
   10.9502   -0.6251    0.0000 H   0  0  0  0  0  0  0  0  0  0  0  0
    6.0044   -1.9004    0.0000 H   0  0  0  0  0  0  0  0  0  0  0  0
    9.7787    0.6164    0.0000 H   0  0  0  0  0  0  0  0  0  0  0  0
    8.2794    1.7058    0.0000 H   0  0  0  0  0  0  0  0  0  0  0  0
    9.3435    1.5939    0.0000 H   0  0  0  0  0  0  0  0  0  0  0  0
    7.1698    1.6860    0.0000 H   0  0  0  0  0  0  0  0  0  0  0  0
    5.3101    1.3057    0.0000 H   0  0  0  0  0  0  0  0  0  0  0  0
    1.8892   -0.5659    0.0000 H   0  0  0  0  0  0  0  0  0  0  0  0
    4.2712    1.5955    0.0000 H   0  0  0  0  0  0  0  0  0  0  0  0
    0.6414    0.8093    0.0000 H   0  0  0  0  0  0  0  0  0  0  0  0
    3.0234    2.9707    0.0000 H   0  0  0  0  0  0  0  0  0  0  0  0
    1.2084    2.5777    0.0000 H   0  0  0  0  0  0  0  0  0  0  0  0
  1 17  1  0  0  0  0
  1 19  1  0  0  0  0
  2 19  2  0  0  0  0
  3  7  1  0  0  0  0
  3 10  1  0  0  0  0
  3 13  1  0  0  0  0
  4  7  1  0  0  0  0
  4 11  1  0  0  0  0
  4 15  1  0  0  0  0
  5 19  1  0  0  0  0
  5 20  1  0  0  0  0
  5 27  1  0  0  0  0
  6  7  1  0  0  0  0
  6  8  1  0  0  0  0
  6  9  1  0  0  0  0
  6 12  1  6  0  0  0
  7 26  1  6  0  0  0
  8 10  1  0  0  0  0
  8 28  1  0  0  0  0
  8 29  1  0  0  0  0
  9 11  2  0  0  0  0
  9 14  1  0  0  0  0
 10 30  1  0  0  0  0
 10 31  1  0  0  0  0
 11 16  1  0  0  0  0
 12 32  1  0  0  0  0
 12 33  1  0  0  0  0
 12 34  1  0  0  0  0
 13 35  1  0  0  0  0
 13 36  1  0  0  0  0
 13 37  1  0  0  0  0
 14 17  2  0  0  0  0
 14 38  1  0  0  0  0
 15 39  1  0  0  0  0
 15 40  1  0  0  0  0
 15 41  1  0  0  0  0
 16 18  2  0  0  0  0
 16 42  1  0  0  0  0
 17 18  1  0  0  0  0
 18 43  1  0  0  0  0
 20 21  2  0  0  0  0
 20 22  1  0  0  0  0
 21 23  1  0  0  0  0
 21 44  1  0  0  0  0
 22 24  2  0  0  0  0
 22 45  1  0  0  0  0
 23 25  2  0  0  0  0
 23 46  1  0  0  0  0
 24 25  1  0  0  0  0
 24 47  1  0  0  0  0
 25 48  1  0  0  0  0
M  END
>  <DRUGBANK_ID>
DB04892

>  <COMMON_NAME>
Phenserine

>  <CAS_NUMBER>
101246-66-6

>  <UNII>
SUE285UG3S

>  <SYNONYMS>
(-)-eseroline phenylcarbamate; (-)-phenserine

$$$$
