
 OpenBabel10282417072D

 46 47  0  0  0  0  0  0  0  0999 V2000
    2.5007   -0.2466    0.0000 N   0  0  0  0  0  0  0  0  0  0  0  0
    1.7862    0.1658    0.0000 C   0  0  0  0  0  0  0  0  0  0  0  0
    1.0717   -0.2466    0.0000 C   0  0  3  0  0  0  0  0  0  0  0  0
    1.0717   -1.0717    0.0000 C   0  0  0  0  0  0  0  0  0  0  0  0
    3.2151    0.1658    0.0000 C   0  0  0  0  0  0  0  0  0  0  0  0
    2.5007   -1.0717    0.0000 C   0  0  0  0  0  0  0  0  0  0  0  0
    0.3572    0.1658    0.0000 O   0  0  0  0  0  0  0  0  0  0  0  0
   -0.3571   -0.2466    0.0000 C   0  0  3  0  0  0  0  0  0  0  0  0
   -1.0717   -0.6591    0.0000 C   0  0  0  0  0  0  0  0  0  0  0  0
   -1.0717   -1.4842    0.0000 C   0  0  0  0  0  0  0  0  0  0  0  0
   -1.7861   -1.8966    0.0000 C   0  0  0  0  0  0  0  0  0  0  0  0
   -2.5006   -1.4842    0.0000 C   0  0  0  0  0  0  0  0  0  0  0  0
   -2.5006   -0.6591    0.0000 C   0  0  0  0  0  0  0  0  0  0  0  0
   -1.7861   -0.2466    0.0000 C   0  0  0  0  0  0  0  0  0  0  0  0
   -0.7697    0.4677    0.0000 C   0  0  0  0  0  0  0  0  0  0  0  0
   -1.5947    0.4677    0.0000 C   0  0  0  0  0  0  0  0  0  0  0  0
   -2.0071    1.1822    0.0000 C   0  0  0  0  0  0  0  0  0  0  0  0
   -1.5947    1.8966    0.0000 C   0  0  0  0  0  0  0  0  0  0  0  0
   -0.7697    1.8966    0.0000 C   0  0  0  0  0  0  0  0  0  0  0  0
   -0.3571    1.1822    0.0000 C   0  0  0  0  0  0  0  0  0  0  0  0
    0.0553   -0.9612    0.0000 C   0  0  0  0  0  0  0  0  0  0  0  0
   -3.2151   -1.8966    0.0000 Cl  0  0  0  0  0  0  0  0  0  0  0  0
    1.7862    1.2358    0.0000 H   0  0  0  0  0  0  0  0  0  0  0  0
    2.7128    0.7009    0.0000 H   0  0  0  0  0  0  0  0  0  0  0  0
    1.9983   -0.7817    0.0000 H   0  0  0  0  0  0  0  0  0  0  0  0
    0.1451   -1.6067    0.0000 H   0  0  0  0  0  0  0  0  0  0  0  0
    1.9983   -1.6067    0.0000 H   0  0  0  0  0  0  0  0  0  0  0  0
    1.0717   -2.1417    0.0000 H   0  0  0  0  0  0  0  0  0  0  0  0
    4.1417   -0.3693    0.0000 H   0  0  0  0  0  0  0  0  0  0  0  0
    3.2152    1.2358    0.0000 H   0  0  0  0  0  0  0  0  0  0  0  0
    4.1418    0.7007    0.0000 H   0  0  0  0  0  0  0  0  0  0  0  0
    1.5741   -1.6067    0.0000 H   0  0  0  0  0  0  0  0  0  0  0  0
    3.4273   -1.6067    0.0000 H   0  0  0  0  0  0  0  0  0  0  0  0
    2.5007   -2.1417    0.0000 H   0  0  0  0  0  0  0  0  0  0  0  0
   -0.1780   -2.0002    0.0000 H   0  0  0  0  0  0  0  0  0  0  0  0
   -1.7861   -2.9286    0.0000 H   0  0  0  0  0  0  0  0  0  0  0  0
   -3.3943   -0.1431    0.0000 H   0  0  0  0  0  0  0  0  0  0  0  0
   -1.7861    0.7854    0.0000 H   0  0  0  0  0  0  0  0  0  0  0  0
   -2.1108   -0.4260    0.0000 H   0  0  0  0  0  0  0  0  0  0  0  0
   -3.0391    1.1822    0.0000 H   0  0  0  0  0  0  0  0  0  0  0  0
   -2.1107    2.7903    0.0000 H   0  0  0  0  0  0  0  0  0  0  0  0
   -0.2538    2.7904    0.0000 H   0  0  0  0  0  0  0  0  0  0  0  0
    0.6749    1.1822    0.0000 H   0  0  0  0  0  0  0  0  0  0  0  0
   -0.4799   -1.8877    0.0000 H   0  0  0  0  0  0  0  0  0  0  0  0
    1.1253   -0.9614    0.0000 H   0  0  0  0  0  0  0  0  0  0  0  0
    0.5901   -1.8879    0.0000 H   0  0  0  0  0  0  0  0  0  0  0  0
  1  2  1  0  0  0  0
  1  5  1  0  0  0  0
  1  6  1  0  0  0  0
  2  3  1  0  0  0  0
  2 23  1  0  0  0  0
  2 24  1  0  0  0  0
  3  4  1  0  0  0  0
  3  7  1  0  0  0  0
  3 25  1  0  0  0  0
  4 26  1  0  0  0  0
  4 27  1  0  0  0  0
  4 28  1  0  0  0  0
  5 29  1  0  0  0  0
  5 30  1  0  0  0  0
  5 31  1  0  0  0  0
  6 32  1  0  0  0  0
  6 33  1  0  0  0  0
  6 34  1  0  0  0  0
  7  8  1  0  0  0  0
  8  9  1  0  0  0  0
  8 15  1  0  0  0  0
  8 21  1  0  0  0  0
  9 10  1  0  0  0  0
  9 14  2  0  0  0  0
 10 11  2  0  0  0  0
 10 35  1  0  0  0  0
 11 12  1  0  0  0  0
 11 36  1  0  0  0  0
 12 13  2  0  0  0  0
 12 22  1  0  0  0  0
 13 14  1  0  0  0  0
 13 37  1  0  0  0  0
 14 38  1  0  0  0  0
 15 16  1  0  0  0  0
 15 20  2  0  0  0  0
 16 17  2  0  0  0  0
 16 39  1  0  0  0  0
 17 18  1  0  0  0  0
 17 40  1  0  0  0  0
 18 19  2  0  0  0  0
 18 41  1  0  0  0  0
 19 20  1  0  0  0  0
 19 42  1  0  0  0  0
 20 43  1  0  0  0  0
 21 44  1  0  0  0  0
 21 45  1  0  0  0  0
 21 46  1  0  0  0  0
M  END
>  <DRUGBANK_ID>
DB15790

>  <COMMON_NAME>
Mecloxamine

>  <CAS_NUMBER>
5668-06-4

>  <UNII>
U8V8239CRM

>  <SYNONYMS>
Mecloxamine

$$$$
