
 OpenBabel10282417072D

142141  0  0  0  0  0  0  0  0999 V2000
   -8.8889    1.0404    0.0000 N   0  3  0  0  0  0  0  0  0  0  0  0
   -8.1744    0.6310    0.0000 C   0  0  0  0  0  0  0  0  0  0  0  0
   -7.4599    1.0447    0.0000 C   0  0  0  0  0  0  0  0  0  0  0  0
   -6.7453    0.6351    0.0000 O   0  0  0  0  0  0  0  0  0  0  0  0
   -6.0308    1.0488    0.0000 P   0  0  3  0  0  0  0  0  0  0  0  0
   -5.3163    0.6393    0.0000 O   0  0  0  0  0  0  0  0  0  0  0  0
   -4.6017    1.0530    0.0000 C   0  0  0  0  0  0  0  0  0  0  0  0
   -3.8872    0.6435    0.0000 C   0  0  3  0  0  0  0  0  0  0  0  0
   -3.1726    1.0572    0.0000 O   0  0  0  0  0  0  0  0  0  0  0  0
   -2.4581    0.6475    0.0000 C   0  0  0  0  0  0  0  0  0  0  0  0
   -2.4563   -0.1797    0.0000 O   0  0  0  0  0  0  0  0  0  0  0  0
   -3.8872   -0.1797    0.0000 C   0  0  0  0  0  0  0  0  0  0  0  0
   -4.6037   -0.5934    0.0000 O   0  0  0  0  0  0  0  0  0  0  0  0
   -4.6037   -1.4207    0.0000 C   0  0  0  0  0  0  0  0  0  0  0  0
   -5.3203   -1.8344    0.0000 O   0  0  0  0  0  0  0  0  0  0  0  0
   -6.6159    1.6296    0.0000 O   0  0  0  0  0  0  0  0  0  0  0  0
   -5.3205    1.4667    0.0000 O   0  5  0  0  0  0  0  0  0  0  0  0
   -8.8917    1.8678    0.0000 C   0  0  0  0  0  0  0  0  0  0  0  0
   -9.6042    0.6244    0.0000 C   0  0  0  0  0  0  0  0  0  0  0  0
   -9.6888    1.2521    0.0000 C   0  0  0  0  0  0  0  0  0  0  0  0
   -1.7437    1.0613    0.0000 C   0  0  0  0  0  0  0  0  0  0  0  0
   -1.0291    0.6519    0.0000 C   0  0  0  0  0  0  0  0  0  0  0  0
   -0.3146    1.0655    0.0000 C   0  0  0  0  0  0  0  0  0  0  0  0
    0.3998    0.6560    0.0000 C   0  0  0  0  0  0  0  0  0  0  0  0
    1.1144    1.0697    0.0000 C   0  0  0  0  0  0  0  0  0  0  0  0
    1.8289    0.6602    0.0000 C   0  0  0  0  0  0  0  0  0  0  0  0
    2.5435    1.0739    0.0000 C   0  0  0  0  0  0  0  0  0  0  0  0
    3.2580    0.6644    0.0000 C   0  0  0  0  0  0  0  0  0  0  0  0
    3.9725    1.0781    0.0000 C   0  0  0  0  0  0  0  0  0  0  0  0
    4.6871    0.6685    0.0000 C   0  0  0  0  0  0  0  0  0  0  0  0
    5.4016    1.0822    0.0000 C   0  0  0  0  0  0  0  0  0  0  0  0
    6.1161    0.6727    0.0000 C   0  0  0  0  0  0  0  0  0  0  0  0
    6.8307    1.0864    0.0000 C   0  0  0  0  0  0  0  0  0  0  0  0
    7.5452    0.6769    0.0000 C   0  0  0  0  0  0  0  0  0  0  0  0
    8.2598    1.0906    0.0000 C   0  0  0  0  0  0  0  0  0  0  0  0
    8.9743    0.6810    0.0000 C   0  0  0  0  0  0  0  0  0  0  0  0
    9.6888    1.0947    0.0000 C   0  0  0  0  0  0  0  0  0  0  0  0
   -3.8914   -1.8344    0.0000 C   0  0  0  0  0  0  0  0  0  0  0  0
   -3.1769   -1.4249    0.0000 C   0  0  0  0  0  0  0  0  0  0  0  0
   -2.4623   -1.8386    0.0000 C   0  0  0  0  0  0  0  0  0  0  0  0
   -1.7478   -1.4290    0.0000 C   0  0  0  0  0  0  0  0  0  0  0  0
   -1.0332   -1.8428    0.0000 C   0  0  0  0  0  0  0  0  0  0  0  0
   -0.3187   -1.4333    0.0000 C   0  0  0  0  0  0  0  0  0  0  0  0
    0.3957   -1.8470    0.0000 C   0  0  0  0  0  0  0  0  0  0  0  0
    1.1103   -1.4375    0.0000 C   0  0  0  0  0  0  0  0  0  0  0  0
    1.8248   -1.8512    0.0000 C   0  0  0  0  0  0  0  0  0  0  0  0
    2.5393   -1.4416    0.0000 C   0  0  0  0  0  0  0  0  0  0  0  0
    3.2539   -1.8553    0.0000 C   0  0  0  0  0  0  0  0  0  0  0  0
    3.9684   -1.4458    0.0000 C   0  0  0  0  0  0  0  0  0  0  0  0
    4.6830   -1.8595    0.0000 C   0  0  0  0  0  0  0  0  0  0  0  0
    5.3975   -1.4500    0.0000 C   0  0  0  0  0  0  0  0  0  0  0  0
    6.1120   -1.8636    0.0000 C   0  0  0  0  0  0  0  0  0  0  0  0
    6.8266   -1.4541    0.0000 C   0  0  0  0  0  0  0  0  0  0  0  0
    7.5411   -1.8678    0.0000 C   0  0  0  0  0  0  0  0  0  0  0  0
   -8.1720   -0.4390    0.0000 H   0  0  0  0  0  0  0  0  0  0  0  0
   -9.0996    0.0934    0.0000 H   0  0  0  0  0  0  0  0  0  0  0  0
   -7.4622    2.1147    0.0000 H   0  0  0  0  0  0  0  0  0  0  0  0
   -8.3875    1.5781    0.0000 H   0  0  0  0  0  0  0  0  0  0  0  0
   -4.6040    2.1230    0.0000 H   0  0  0  0  0  0  0  0  0  0  0  0
   -5.5292    1.5864    0.0000 H   0  0  0  0  0  0  0  0  0  0  0  0
   -3.8895    1.7135    0.0000 H   0  0  0  0  0  0  0  0  0  0  0  0
   -2.9605   -0.7147    0.0000 H   0  0  0  0  0  0  0  0  0  0  0  0
   -3.8872   -1.2497    0.0000 H   0  0  0  0  0  0  0  0  0  0  0  0
   -7.9669    2.4059    0.0000 H   0  0  0  0  0  0  0  0  0  0  0  0
   -9.8202    2.3997    0.0000 H   0  0  0  0  0  0  0  0  0  0  0  0
   -8.8953    2.9378    0.0000 H   0  0  0  0  0  0  0  0  0  0  0  0
  -10.5325    1.1565    0.0000 H   0  0  0  0  0  0  0  0  0  0  0  0
   -9.6008   -0.4456    0.0000 H   0  0  0  0  0  0  0  0  0  0  0  0
  -10.5292    0.0865    0.0000 H   0  0  0  0  0  0  0  0  0  0  0  0
   -9.9689    2.2848    0.0000 H   0  0  0  0  0  0  0  0  0  0  0  0
  -10.4431    0.4932    0.0000 H   0  0  0  0  0  0  0  0  0  0  0  0
  -10.7232    1.5259    0.0000 H   0  0  0  0  0  0  0  0  0  0  0  0
   -1.7462    2.1313    0.0000 H   0  0  0  0  0  0  0  0  0  0  0  0
   -0.8186    1.5989    0.0000 H   0  0  0  0  0  0  0  0  0  0  0  0
   -1.0267   -0.4181    0.0000 H   0  0  0  0  0  0  0  0  0  0  0  0
   -0.1016    0.1185    0.0000 H   0  0  0  0  0  0  0  0  0  0  0  0
   -0.3169    2.1355    0.0000 H   0  0  0  0  0  0  0  0  0  0  0  0
    0.6106    1.6029    0.0000 H   0  0  0  0  0  0  0  0  0  0  0  0
    0.4021   -0.4140    0.0000 H   0  0  0  0  0  0  0  0  0  0  0  0
    1.3273    0.1225    0.0000 H   0  0  0  0  0  0  0  0  0  0  0  0
    1.1121    2.1397    0.0000 H   0  0  0  0  0  0  0  0  0  0  0  0
    2.0396    1.6072    0.0000 H   0  0  0  0  0  0  0  0  0  0  0  0
    1.8312   -0.4098    0.0000 H   0  0  0  0  0  0  0  0  0  0  0  0
    2.7564    0.1268    0.0000 H   0  0  0  0  0  0  0  0  0  0  0  0
    2.5412    2.1439    0.0000 H   0  0  0  0  0  0  0  0  0  0  0  0
    1.6160    1.6073    0.0000 H   0  0  0  0  0  0  0  0  0  0  0  0
    3.2604   -0.4056    0.0000 H   0  0  0  0  0  0  0  0  0  0  0  0
    4.1856    0.1310    0.0000 H   0  0  0  0  0  0  0  0  0  0  0  0
    3.9702    2.1481    0.0000 H   0  0  0  0  0  0  0  0  0  0  0  0
    4.8977    1.6156    0.0000 H   0  0  0  0  0  0  0  0  0  0  0  0
    4.6894   -0.4015    0.0000 H   0  0  0  0  0  0  0  0  0  0  0  0
    5.6147    0.1351    0.0000 H   0  0  0  0  0  0  0  0  0  0  0  0
    5.3992    2.1522    0.0000 H   0  0  0  0  0  0  0  0  0  0  0  0
    6.3268    1.6197    0.0000 H   0  0  0  0  0  0  0  0  0  0  0  0
    6.1184   -0.3973    0.0000 H   0  0  0  0  0  0  0  0  0  0  0  0
    7.0436    0.1393    0.0000 H   0  0  0  0  0  0  0  0  0  0  0  0
    6.8284    2.1564    0.0000 H   0  0  0  0  0  0  0  0  0  0  0  0
    7.7559    1.6239    0.0000 H   0  0  0  0  0  0  0  0  0  0  0  0
    7.5475   -0.3931    0.0000 H   0  0  0  0  0  0  0  0  0  0  0  0
    8.4727    0.1435    0.0000 H   0  0  0  0  0  0  0  0  0  0  0  0
    8.2575    2.1606    0.0000 H   0  0  0  0  0  0  0  0  0  0  0  0
    9.1851    1.6280    0.0000 H   0  0  0  0  0  0  0  0  0  0  0  0
    8.9766   -0.3890    0.0000 H   0  0  0  0  0  0  0  0  0  0  0  0
    9.9019    0.1476    0.0000 H   0  0  0  0  0  0  0  0  0  0  0  0
   10.6161    0.5609    0.0000 H   0  0  0  0  0  0  0  0  0  0  0  0
    9.6875    2.1647    0.0000 H   0  0  0  0  0  0  0  0  0  0  0  0
   10.6148    1.6308    0.0000 H   0  0  0  0  0  0  0  0  0  0  0  0
   -3.8945   -2.9044    0.0000 H   0  0  0  0  0  0  0  0  0  0  0  0
   -2.9664   -2.3722    0.0000 H   0  0  0  0  0  0  0  0  0  0  0  0
   -3.1746   -0.3549    0.0000 H   0  0  0  0  0  0  0  0  0  0  0  0
   -2.2494   -0.8915    0.0000 H   0  0  0  0  0  0  0  0  0  0  0  0
   -2.4646   -2.9086    0.0000 H   0  0  0  0  0  0  0  0  0  0  0  0
   -1.5370   -2.3760    0.0000 H   0  0  0  0  0  0  0  0  0  0  0  0
   -1.7455   -0.3590    0.0000 H   0  0  0  0  0  0  0  0  0  0  0  0
   -0.8202   -0.8956    0.0000 H   0  0  0  0  0  0  0  0  0  0  0  0
   -1.0356   -2.9128    0.0000 H   0  0  0  0  0  0  0  0  0  0  0  0
   -0.1080   -2.3803    0.0000 H   0  0  0  0  0  0  0  0  0  0  0  0
   -0.3163   -0.3633    0.0000 H   0  0  0  0  0  0  0  0  0  0  0  0
    0.6089   -0.8999    0.0000 H   0  0  0  0  0  0  0  0  0  0  0  0
    0.3933   -2.9170    0.0000 H   0  0  0  0  0  0  0  0  0  0  0  0
    1.3209   -2.3845    0.0000 H   0  0  0  0  0  0  0  0  0  0  0  0
    1.1127   -0.3675    0.0000 H   0  0  0  0  0  0  0  0  0  0  0  0
    2.0379   -0.9041    0.0000 H   0  0  0  0  0  0  0  0  0  0  0  0
    1.8225   -2.9212    0.0000 H   0  0  0  0  0  0  0  0  0  0  0  0
    2.7500   -2.3886    0.0000 H   0  0  0  0  0  0  0  0  0  0  0  0
    2.5416   -0.3716    0.0000 H   0  0  0  0  0  0  0  0  0  0  0  0
    3.4668   -0.9081    0.0000 H   0  0  0  0  0  0  0  0  0  0  0  0
    3.2516   -2.9253    0.0000 H   0  0  0  0  0  0  0  0  0  0  0  0
    4.1791   -2.3928    0.0000 H   0  0  0  0  0  0  0  0  0  0  0  0
    3.9707   -0.3758    0.0000 H   0  0  0  0  0  0  0  0  0  0  0  0
    4.8959   -0.9124    0.0000 H   0  0  0  0  0  0  0  0  0  0  0  0
    4.6807   -2.9295    0.0000 H   0  0  0  0  0  0  0  0  0  0  0  0
    5.6082   -2.3970    0.0000 H   0  0  0  0  0  0  0  0  0  0  0  0
    5.3998   -0.3800    0.0000 H   0  0  0  0  0  0  0  0  0  0  0  0
    6.3250   -0.9165    0.0000 H   0  0  0  0  0  0  0  0  0  0  0  0
    6.1097   -2.9336    0.0000 H   0  0  0  0  0  0  0  0  0  0  0  0
    7.0372   -2.4011    0.0000 H   0  0  0  0  0  0  0  0  0  0  0  0
    6.8290   -0.3841    0.0000 H   0  0  0  0  0  0  0  0  0  0  0  0
    7.7542   -0.9207    0.0000 H   0  0  0  0  0  0  0  0  0  0  0  0
    7.5398   -2.9378    0.0000 H   0  0  0  0  0  0  0  0  0  0  0  0
    8.4684   -1.3340    0.0000 H   0  0  0  0  0  0  0  0  0  0  0  0
    8.4671   -2.4039    0.0000 H   0  0  0  0  0  0  0  0  0  0  0  0
  1 18  1  0  0  0  0
  1 19  1  0  0  0  0
  1 20  1  0  0  0  0
  1  2  1  0  0  0  0
  2  3  1  0  0  0  0
  2 55  1  0  0  0  0
  2 56  1  0  0  0  0
  3  4  1  0  0  0  0
  3 57  1  0  0  0  0
  3 58  1  0  0  0  0
  4  5  1  0  0  0  0
  5 16  2  0  0  0  0
  5 17  1  0  0  0  0
  5  6  1  0  0  0  0
  6  7  1  0  0  0  0
  7  8  1  0  0  0  0
  7 59  1  0  0  0  0
  7 60  1  0  0  0  0
  8  9  1  0  0  0  0
  8 12  1  0  0  0  0
  8 61  1  0  0  0  0
  9 10  1  0  0  0  0
 10 21  1  0  0  0  0
 10 11  2  0  0  0  0
 12 13  1  0  0  0  0
 12 62  1  0  0  0  0
 12 63  1  0  0  0  0
 13 14  1  0  0  0  0
 14 15  2  0  0  0  0
 14 38  1  0  0  0  0
 18 64  1  0  0  0  0
 18 65  1  0  0  0  0
 18 66  1  0  0  0  0
 19 67  1  0  0  0  0
 19 68  1  0  0  0  0
 19 69  1  0  0  0  0
 20 70  1  0  0  0  0
 20 71  1  0  0  0  0
 20 72  1  0  0  0  0
 21 22  1  0  0  0  0
 21 73  1  0  0  0  0
 21 74  1  0  0  0  0
 22 23  1  0  0  0  0
 22 75  1  0  0  0  0
 22 76  1  0  0  0  0
 23 24  1  0  0  0  0
 23 77  1  0  0  0  0
 23 78  1  0  0  0  0
 24 25  1  0  0  0  0
 24 79  1  0  0  0  0
 24 80  1  0  0  0  0
 25 26  1  0  0  0  0
 25 81  1  0  0  0  0
 25 82  1  0  0  0  0
 26 27  1  0  0  0  0
 26 83  1  0  0  0  0
 26 84  1  0  0  0  0
 27 28  1  0  0  0  0
 27 85  1  0  0  0  0
 27 86  1  0  0  0  0
 28 29  1  0  0  0  0
 28 87  1  0  0  0  0
 28 88  1  0  0  0  0
 29 30  1  0  0  0  0
 29 89  1  0  0  0  0
 29 90  1  0  0  0  0
 30 31  1  0  0  0  0
 30 91  1  0  0  0  0
 30 92  1  0  0  0  0
 31 32  1  0  0  0  0
 31 93  1  0  0  0  0
 31 94  1  0  0  0  0
 32 33  1  0  0  0  0
 32 95  1  0  0  0  0
 32 96  1  0  0  0  0
 33 34  1  0  0  0  0
 33 97  1  0  0  0  0
 33 98  1  0  0  0  0
 34 35  1  0  0  0  0
 34 99  1  0  0  0  0
 34100  1  0  0  0  0
 35 36  1  0  0  0  0
 35101  1  0  0  0  0
 35102  1  0  0  0  0
 36 37  1  0  0  0  0
 36103  1  0  0  0  0
 36104  1  0  0  0  0
 37105  1  0  0  0  0
 37106  1  0  0  0  0
 37107  1  0  0  0  0
 38 39  1  0  0  0  0
 38108  1  0  0  0  0
 38109  1  0  0  0  0
 39 40  1  0  0  0  0
 39110  1  0  0  0  0
 39111  1  0  0  0  0
 40 41  1  0  0  0  0
 40112  1  0  0  0  0
 40113  1  0  0  0  0
 41 42  1  0  0  0  0
 41114  1  0  0  0  0
 41115  1  0  0  0  0
 42 43  1  0  0  0  0
 42116  1  0  0  0  0
 42117  1  0  0  0  0
 43 44  1  0  0  0  0
 43118  1  0  0  0  0
 43119  1  0  0  0  0
 44 45  1  0  0  0  0
 44120  1  0  0  0  0
 44121  1  0  0  0  0
 45 46  1  0  0  0  0
 45122  1  0  0  0  0
 45123  1  0  0  0  0
 46 47  1  0  0  0  0
 46124  1  0  0  0  0
 46125  1  0  0  0  0
 47 48  1  0  0  0  0
 47126  1  0  0  0  0
 47127  1  0  0  0  0
 48 49  1  0  0  0  0
 48128  1  0  0  0  0
 48129  1  0  0  0  0
 49 50  1  0  0  0  0
 49130  1  0  0  0  0
 49131  1  0  0  0  0
 50 51  1  0  0  0  0
 50132  1  0  0  0  0
 50133  1  0  0  0  0
 51 52  1  0  0  0  0
 51134  1  0  0  0  0
 51135  1  0  0  0  0
 52 53  1  0  0  0  0
 52136  1  0  0  0  0
 52137  1  0  0  0  0
 53 54  1  0  0  0  0
 53138  1  0  0  0  0
 53139  1  0  0  0  0
 54140  1  0  0  0  0
 54141  1  0  0  0  0
 54142  1  0  0  0  0
M  CHG  2   1   1  17  -1
M  END
>  <DRUGBANK_ID>
DB14099

>  <COMMON_NAME>
1,2-Distearoyllecithin

>  <CAS_NUMBER>
4539-70-2

>  <UNII>
EAG959U971

>  <SYNONYMS>
1,2-Distearoyl-sn-glycero-3-phosphocholine; 1,2-Distearoylphosphatidylcholine; Dioctadecanoyl phosphatidylcholine; Dioctadecanoyllecithin; Distearoyl-DL-phosphatidylcholine

$$$$
