
 OpenBabel10282417072D

124128  0  0  1  0  0  0  0  0999 V2000
    3.2885   -0.5674    0.0000 H   0  0  0  0  0  0  0  0  0  0  0  0
    3.3575    0.2547    0.0000 C   0  0  2  0  0  0  0  0  0  0  0  0
    3.4265    1.0768    0.0000 O   0  0  0  0  0  0  0  0  0  0  0  0
    4.1730    1.4281    0.0000 C   0  0  2  0  0  0  0  0  0  0  0  0
    4.8505    0.9573    0.0000 O   0  0  0  0  0  0  0  0  0  0  0  0
    5.5969    1.3085    0.0000 C   0  0  2  0  0  0  0  0  0  0  0  0
    6.2744    0.8377    0.0000 C   0  0  0  0  0  0  0  0  0  0  0  0
    5.6660    2.1307    0.0000 C   0  0  0  0  0  0  0  0  0  0  0  0
    4.9885    2.6015    0.0000 C   0  0  1  0  0  0  0  0  0  0  0  0
    4.2420    2.2502    0.0000 C   0  0  1  0  0  0  0  0  0  0  0  0
    3.5646    2.7210    0.0000 O   0  0  0  0  0  0  0  0  0  0  0  0
    5.0575    3.4236    0.0000 N   0  0  0  0  0  0  0  0  0  0  0  0
    4.3800    3.8944    0.0000 C   0  0  0  0  0  0  0  0  0  0  0  0
    5.8040    3.7749    0.0000 C   0  0  0  0  0  0  0  0  0  0  0  0
    4.1431   -0.0989    0.0000 C   0  0  1  0  0  0  0  0  0  0  0  0
    4.6710    0.5351    0.0000 C   0  0  0  0  0  0  0  0  0  0  0  0
    4.6201   -0.7889    0.0000 C   0  0  0  0  0  0  0  0  0  0  0  0
    5.4425   -0.7236    0.0000 O   0  0  0  0  0  0  0  0  0  0  0  0
    4.2537   -1.5542    0.0000 C   0  0  1  0  0  0  0  0  0  0  0  0
    4.7777   -2.1914    0.0000 C   0  0  0  0  0  0  0  0  0  0  0  0
    3.4240   -1.7681    0.0000 C   0  0  0  0  0  0  0  0  0  0  0  0
    3.4393   -2.5930    0.0000 O   0  0  0  0  0  0  0  0  0  0  0  0
    2.5140   -1.5691    0.0000 O   0  0  0  0  0  0  0  0  0  0  0  0
    1.5574   -1.3683    0.0000 C   0  0  2  0  0  0  0  0  0  0  0  0
    1.1458   -2.0832    0.0000 C   0  0  0  0  0  0  0  0  0  0  0  0
    0.3208   -2.0842    0.0000 C   0  0  0  0  0  0  0  0  0  0  0  0
    0.9980   -0.7467    0.0000 C   0  0  1  0  0  0  0  0  0  0  0  0
    0.3722   -1.2844    0.0000 C   0  0  0  0  0  0  0  0  0  0  0  0
    0.4748   -0.1088    0.0000 O   0  0  0  0  0  0  0  0  0  0  0  0
    1.6661   -0.2241    0.0000 C   0  0  2  0  0  0  0  0  0  0  0  0
    2.5570   -0.5573    0.0000 O   0  0  0  0  0  0  0  0  0  0  0  0
    3.0480   -1.2567    0.0000 C   0  0  0  0  0  0  0  0  0  0  0  0
    2.8434   -2.1663    0.0000 C   0  0  0  0  0  0  0  0  0  0  0  0
    2.0158   -1.8914    0.0000 C   0  0  0  0  0  0  0  0  0  0  0  0
    2.1183   -0.9333    0.0000 O   0  0  0  0  0  0  0  0  0  0  0  0
    2.5135    0.0343    0.0000 C   0  0  1  0  0  0  0  0  0  0  0  0
    1.9700    0.6549    0.0000 C   0  0  0  0  0  0  0  0  0  0  0  0
    2.3456    0.8974    0.0000 C   0  0  0  0  0  0  0  0  0  0  0  0
    1.7196    1.4731    0.0000 C   0  0  1  0  0  0  0  0  0  0  0  0
    1.8816    2.2820    0.0000 C   0  0  0  0  0  0  0  0  0  0  0  0
    0.9307    1.1868    0.0000 C   0  0  0  0  0  0  0  0  0  0  0  0
    0.2179    1.6021    0.0000 N   0  0  0  0  0  0  0  0  0  0  0  0
    0.2211    2.4271    0.0000 C   0  0  0  0  0  0  0  0  0  0  0  0
   -0.4918    2.8423    0.0000 C   0  0  0  0  0  0  0  0  0  0  0  0
    0.9371    2.8368    0.0000 O   0  0  0  0  0  0  0  0  0  0  0  0
    1.0677    0.3779    0.0000 C   0  0  2  0  0  0  0  0  0  0  0  0
    0.2533    0.2457    0.0000 C   0  0  0  0  0  0  0  0  0  0  0  0
    3.2493   -2.8846    0.0000 N   0  0  0  0  0  0  0  0  0  0  0  0
    4.0742   -2.8922    0.0000 O   0  0  0  0  0  0  0  0  0  0  0  0
    4.4801   -3.6104    0.0000 C   0  0  0  0  0  0  0  0  0  0  0  0
    4.0611   -4.3211    0.0000 C   0  0  0  0  0  0  0  0  0  0  0  0
    4.4670   -5.0393    0.0000 C   0  0  0  0  0  0  0  0  0  0  0  0
    4.0479   -5.7499    0.0000 N   0  0  0  0  0  0  0  0  0  0  0  0
    3.2230   -5.7423    0.0000 C   0  0  0  0  0  0  0  0  0  0  0  0
    2.8171   -5.0241    0.0000 C   0  0  0  0  0  0  0  0  0  0  0  0
    3.2361   -4.3135    0.0000 C   0  0  0  0  0  0  0  0  0  0  0  0
    2.8039   -6.4530    0.0000 N   0  0  0  0  0  0  0  0  0  0  0  0
    3.1325   -7.2097    0.0000 C   0  0  0  0  0  0  0  0  0  0  0  0
    2.5144   -7.7561    0.0000 C   0  0  0  0  0  0  0  0  0  0  0  0
    1.8037   -7.3370    0.0000 C   0  0  0  0  0  0  0  0  0  0  0  0
    1.9827   -6.5317    0.0000 N   0  0  0  0  0  0  0  0  0  0  0  0
    4.0835    0.3618    0.0000 H   0  0  0  0  0  0  0  0  0  0  0  0
    5.5074    0.2423    0.0000 H   0  0  0  0  0  0  0  0  0  0  0  0
    6.1849   -0.2286    0.0000 H   0  0  0  0  0  0  0  0  0  0  0  0
    7.2425    1.2934    0.0000 H   0  0  0  0  0  0  0  0  0  0  0  0
    7.1531    0.2271    0.0000 H   0  0  0  0  0  0  0  0  0  0  0  0
    6.6342    2.5863    0.0000 H   0  0  0  0  0  0  0  0  0  0  0  0
    5.7555    3.1970    0.0000 H   0  0  0  0  0  0  0  0  0  0  0  0
    5.9566    3.0571    0.0000 H   0  0  0  0  0  0  0  0  0  0  0  0
    4.3315    3.3164    0.0000 H   0  0  0  0  0  0  0  0  0  0  0  0
    3.6458    3.6876    0.0000 H   0  0  0  0  0  0  0  0  0  0  0  0
    4.4695    4.9607    0.0000 H   0  0  0  0  0  0  0  0  0  0  0  0
    3.4119    3.4387    0.0000 H   0  0  0  0  0  0  0  0  0  0  0  0
    3.5013    4.5050    0.0000 H   0  0  0  0  0  0  0  0  0  0  0  0
    6.6826    3.1643    0.0000 H   0  0  0  0  0  0  0  0  0  0  0  0
    5.8935    4.8411    0.0000 H   0  0  0  0  0  0  0  0  0  0  0  0
    6.7722    4.2305    0.0000 H   0  0  0  0  0  0  0  0  0  0  0  0
    3.9025    0.9437    0.0000 H   0  0  0  0  0  0  0  0  0  0  0  0
    5.7254    0.3533    0.0000 H   0  0  0  0  0  0  0  0  0  0  0  0
    4.3012    1.5392    0.0000 H   0  0  0  0  0  0  0  0  0  0  0  0
    5.3557    1.3574    0.0000 H   0  0  0  0  0  0  0  0  0  0  0  0
    5.3159   -1.4252    0.0000 H   0  0  0  0  0  0  0  0  0  0  0  0
    4.4018   -3.1932    0.0000 H   0  0  0  0  0  0  0  0  0  0  0  0
    5.8332   -2.0160    0.0000 H   0  0  0  0  0  0  0  0  0  0  0  0
    5.4573   -3.0178    0.0000 H   0  0  0  0  0  0  0  0  0  0  0  0
    1.9944   -2.3450    0.0000 H   0  0  0  0  0  0  0  0  0  0  0  0
    1.6819   -3.0092    0.0000 H   0  0  0  0  0  0  0  0  0  0  0  0
    0.6119   -3.0105    0.0000 H   0  0  0  0  0  0  0  0  0  0  0  0
   -0.2153   -1.1582    0.0000 H   0  0  0  0  0  0  0  0  0  0  0  0
   -0.2131   -3.0115    0.0000 H   0  0  0  0  0  0  0  0  0  0  0  0
   -0.7492   -2.0855    0.0000 H   0  0  0  0  0  0  0  0  0  0  0  0
   -0.6375   -0.9302    0.0000 H   0  0  0  0  0  0  0  0  0  0  0  0
    0.5703   -2.3359    0.0000 H   0  0  0  0  0  0  0  0  0  0  0  0
   -0.4394   -1.9817    0.0000 H   0  0  0  0  0  0  0  0  0  0  0  0
    0.8167    0.7989    0.0000 H   0  0  0  0  0  0  0  0  0  0  0  0
    1.8291   -1.2816    0.0000 H   0  0  0  0  0  0  0  0  0  0  0  0
    4.0976   -1.0489    0.0000 H   0  0  0  0  0  0  0  0  0  0  0  0
    3.7948   -2.0230    0.0000 H   0  0  0  0  0  0  0  0  0  0  0  0
    1.1160   -2.4704    0.0000 H   0  0  0  0  0  0  0  0  0  0  0  0
    1.1052   -1.3296    0.0000 H   0  0  0  0  0  0  0  0  0  0  0  0
    2.3146    1.6679    0.0000 H   0  0  0  0  0  0  0  0  0  0  0  0
    0.9204    0.4469    0.0000 H   0  0  0  0  0  0  0  0  0  0  0  0
    1.2651    1.4599    0.0000 H   0  0  0  0  0  0  0  0  0  0  0  0
    3.2796    1.4195    0.0000 H   0  0  0  0  0  0  0  0  0  0  0  0
    2.4704    1.9601    0.0000 H   0  0  0  0  0  0  0  0  0  0  0  0
    2.7370    1.8044    0.0000 H   0  0  0  0  0  0  0  0  0  0  0  0
    2.8953    2.6246    0.0000 H   0  0  0  0  0  0  0  0  0  0  0  0
    1.0781    2.9886    0.0000 H   0  0  0  0  0  0  0  0  0  0  0  0
    2.0917    3.3312    0.0000 H   0  0  0  0  0  0  0  0  0  0  0  0
   -0.4877    3.9123    0.0000 H   0  0  0  0  0  0  0  0  0  0  0  0
   -1.4205    2.3108    0.0000 H   0  0  0  0  0  0  0  0  0  0  0  0
   -1.4164    3.3808    0.0000 H   0  0  0  0  0  0  0  0  0  0  0  0
    0.1975    1.0005    0.0000 H   0  0  0  0  0  0  0  0  0  0  0  0
   -0.4233    1.0747    0.0000 H   0  0  0  0  0  0  0  0  0  0  0  0
   -0.1263   -0.7547    0.0000 H   0  0  0  0  0  0  0  0  0  0  0  0
   -0.8029    0.0743    0.0000 H   0  0  0  0  0  0  0  0  0  0  0  0
    5.5501   -3.6202    0.0000 H   0  0  0  0  0  0  0  0  0  0  0  0
    5.0066   -4.5419    0.0000 H   0  0  0  0  0  0  0  0  0  0  0  0
    5.4990   -5.0488    0.0000 H   0  0  0  0  0  0  0  0  0  0  0  0
    1.7851   -5.0146    0.0000 H   0  0  0  0  0  0  0  0  0  0  0  0
    2.7283   -3.4151    0.0000 H   0  0  0  0  0  0  0  0  0  0  0  0
    4.1399   -7.4335    0.0000 H   0  0  0  0  0  0  0  0  0  0  0  0
    2.6129   -8.7834    0.0000 H   0  0  0  0  0  0  0  0  0  0  0  0
    0.8571   -7.7480    0.0000 H   0  0  0  0  0  0  0  0  0  0  0  0
  2  1  1  1  0  0  0
  2  3  1  0  0  0  0
  2 15  1  0  0  0  0
  2 36  1  0  0  0  0
  4  3  1  0  0  0  0
  4  5  1  0  0  0  0
  4 62  1  6  0  0  0
  6  5  1  0  0  0  0
  6  7  1  0  0  0  0
  6  8  1  0  0  0  0
  6 63  1  6  0  0  0
  7 64  1  0  0  0  0
  7 65  1  0  0  0  0
  7 66  1  0  0  0  0
  8 67  1  0  0  0  0
  8 68  1  0  0  0  0
  9  8  1  0  0  0  0
  9 12  1  0  0  0  0
  9 69  1  6  0  0  0
 10  9  1  0  0  0  0
 10  4  1  0  0  0  0
 10 11  1  0  0  0  0
 10 70  1  1  0  0  0
 11 71  1  0  0  0  0
 12 13  1  0  0  0  0
 12 14  1  0  0  0  0
 13 72  1  0  0  0  0
 13 73  1  0  0  0  0
 13 74  1  0  0  0  0
 14 75  1  0  0  0  0
 14 76  1  0  0  0  0
 14 77  1  0  0  0  0
 15 16  1  0  0  0  0
 15 17  1  0  0  0  0
 15 78  1  6  0  0  0
 16 79  1  0  0  0  0
 16 80  1  0  0  0  0
 16 81  1  0  0  0  0
 17 18  2  0  0  0  0
 19 17  1  0  0  0  0
 19 20  1  0  0  0  0
 19 21  1  0  0  0  0
 19 82  1  6  0  0  0
 20 83  1  0  0  0  0
 20 84  1  0  0  0  0
 20 85  1  0  0  0  0
 21 22  2  0  0  0  0
 21 23  1  0  0  0  0
 24 23  1  0  0  0  0
 24 25  1  0  0  0  0
 24 86  1  1  0  0  0
 25 26  1  0  0  0  0
 25 87  1  0  0  0  0
 25 88  1  0  0  0  0
 26 89  1  0  0  0  0
 26 90  1  0  0  0  0
 26 91  1  0  0  0  0
 27 24  1  0  0  0  0
 27 28  1  0  0  0  0
 27 29  1  1  0  0  0
 27 30  1  0  0  0  0
 28 92  1  0  0  0  0
 28 93  1  0  0  0  0
 28 94  1  0  0  0  0
 29 95  1  0  0  0  0
 30 31  1  0  0  0  0
 30 46  1  0  0  0  0
 30 96  1  6  0  0  0
 31 32  1  0  0  0  0
 32 33  1  0  0  0  0
 32 97  1  0  0  0  0
 32 98  1  0  0  0  0
 33 34  1  0  0  0  0
 33 48  2  0  0  0  0
 34 35  1  0  0  0  0
 34 99  1  0  0  0  0
 34100  1  0  0  0  0
 36 35  1  0  0  0  0
 36 37  1  1  0  0  0
 36 38  1  0  0  0  0
 37101  1  0  0  0  0
 37102  1  0  0  0  0
 37103  1  0  0  0  0
 38104  1  0  0  0  0
 38105  1  0  0  0  0
 39 38  1  0  0  0  0
 39 40  1  0  0  0  0
 39 41  1  0  0  0  0
 39106  1  1  0  0  0
 40107  1  0  0  0  0
 40108  1  0  0  0  0
 40109  1  0  0  0  0
 41 42  2  0  0  0  0
 42 43  1  0  0  0  0
 43 44  1  0  0  0  0
 43 45  2  0  0  0  0
 44110  1  0  0  0  0
 44111  1  0  0  0  0
 44112  1  0  0  0  0
 46 41  1  0  0  0  0
 46 47  1  0  0  0  0
 46113  1  6  0  0  0
 47114  1  0  0  0  0
 47115  1  0  0  0  0
 47116  1  0  0  0  0
 48 49  1  0  0  0  0
 49 50  1  0  0  0  0
 50 51  1  0  0  0  0
 50117  1  0  0  0  0
 50118  1  0  0  0  0
 51 52  2  0  0  0  0
 51 56  1  0  0  0  0
 52 53  1  0  0  0  0
 52119  1  0  0  0  0
 53 54  2  0  0  0  0
 54 55  1  0  0  0  0
 54 57  1  0  0  0  0
 55 56  2  0  0  0  0
 55120  1  0  0  0  0
 56121  1  0  0  0  0
 57 58  1  0  0  0  0
 57 61  1  0  0  0  0
 58 59  2  0  0  0  0
 58122  1  0  0  0  0
 59 60  1  0  0  0  0
 59123  1  0  0  0  0
 60 61  2  0  0  0  0
 60124  1  0  0  0  0
M  END
>  <DRUGBANK_ID>
DB16238

>  <COMMON_NAME>
Modithromycin

>  <CAS_NUMBER>
736992-12-4

>  <UNII>
9MAY4E090U

>  <SYNONYMS>
Modithromycin

$$$$
