
 OpenBabel10282417072D

 45 45  0  0  1  0  0  0  0  0999 V2000
    9.2881   -2.8875    0.0000 C   0  0  0  0  0  0  0  0  0  0  0  0
    5.7158   -0.8250    0.0000 C   0  0  0  0  0  0  0  0  0  0  0  0
    5.0013   -0.4125    0.0000 C   0  0  0  0  0  0  0  0  0  0  0  0
   10.0026   -0.8250    0.0000 C   0  0  0  0  0  0  0  0  0  0  0  0
    7.8592   -0.4125    0.0000 C   0  0  0  0  0  0  0  0  0  0  0  0
    9.2881    0.4125    0.0000 C   0  0  0  0  0  0  0  0  0  0  0  0
    9.2881   -2.0625    0.0000 C   0  0  0  0  0  0  0  0  0  0  0  0
    9.2881   -0.4125    0.0000 C   0  0  0  0  0  0  0  0  0  0  0  0
    8.5737   -0.8250    0.0000 C   0  0  0  0  0  0  0  0  0  0  0  0
    6.4302   -0.4125    0.0000 C   0  0  1  0  0  0  0  0  0  0  0  0
    4.2868   -0.8250    0.0000 C   0  0  0  0  0  0  0  0  0  0  0  0
    8.5737   -1.6500    0.0000 C   0  0  0  0  0  0  0  0  0  0  0  0
    6.4302    0.4125    0.0000 C   0  0  0  0  0  0  0  0  0  0  0  0
   10.0026   -1.6500    0.0000 N   0  3  0  0  0  0  0  0  0  0  0  0
    7.1447   -0.8250    0.0000 N   0  0  0  0  0  0  0  0  0  0  0  0
    3.5724   -0.4125    0.0000 O   0  0  0  0  0  0  0  0  0  0  0  0
    4.2868   -1.6500    0.0000 O   0  0  0  0  0  0  0  0  0  0  0  0
    7.8592   -2.0625    0.0000 O   0  0  0  0  0  0  0  0  0  0  0  0
    7.1447    0.8250    0.0000 O   0  0  0  0  0  0  0  0  0  0  0  0
    5.7158    0.8250    0.0000 O   0  0  0  0  0  0  0  0  0  0  0  0
   10.0026    2.4750    0.0000 O   0  0  0  0  0  0  0  0  0  0  0  0
   10.8276    1.6500    0.0000 O   0  0  0  0  0  0  0  0  0  0  0  0
    9.1776    1.6500    0.0000 O   0  0  0  0  0  0  0  0  0  0  0  0
   10.0026    0.8250    0.0000 O   0  0  0  0  0  0  0  0  0  0  0  0
   10.0026    1.6500    0.0000 P   0  0  0  0  0  0  0  0  0  0  0  0
    5.7158    0.0000    0.0000 H   0  0  0  0  0  0  0  0  0  0  0  0
    8.3615   -3.4225    0.0000 H   0  0  0  0  0  0  0  0  0  0  0  0
   10.2147   -3.4225    0.0000 H   0  0  0  0  0  0  0  0  0  0  0  0
    9.2881   -3.9575    0.0000 H   0  0  0  0  0  0  0  0  0  0  0  0
    5.7158   -1.8950    0.0000 H   0  0  0  0  0  0  0  0  0  0  0  0
    6.6425   -1.3600    0.0000 H   0  0  0  0  0  0  0  0  0  0  0  0
    5.0013    0.6575    0.0000 H   0  0  0  0  0  0  0  0  0  0  0  0
    4.0747    0.1225    0.0000 H   0  0  0  0  0  0  0  0  0  0  0  0
   10.8963   -0.3090    0.0000 H   0  0  0  0  0  0  0  0  0  0  0  0
    7.8592    0.6575    0.0000 H   0  0  0  0  0  0  0  0  0  0  0  0
    6.9326    0.1225    0.0000 H   0  0  0  0  0  0  0  0  0  0  0  0
    8.3615    0.9475    0.0000 H   0  0  0  0  0  0  0  0  0  0  0  0
    9.2881    1.4825    0.0000 H   0  0  0  0  0  0  0  0  0  0  0  0
   10.8552   -2.1423    0.0000 H   0  0  0  0  0  0  0  0  0  0  0  0
    7.1447   -1.8450    0.0000 H   0  0  0  0  0  0  0  0  0  0  0  0
    3.4753   -2.1185    0.0000 H   0  0  0  0  0  0  0  0  0  0  0  0
    7.0477   -1.5940    0.0000 H   0  0  0  0  0  0  0  0  0  0  0  0
    5.7158    1.7620    0.0000 H   0  0  0  0  0  0  0  0  0  0  0  0
   10.8426    2.9600    0.0000 H   0  0  0  0  0  0  0  0  0  0  0  0
   11.3126    0.8100    0.0000 H   0  0  0  0  0  0  0  0  0  0  0  0
  1 27  1  0  0  0  0
  1 28  1  0  0  0  0
  1 29  1  0  0  0  0
  2 30  1  0  0  0  0
  2 31  1  0  0  0  0
  3  2  1  0  0  0  0
  3 32  1  0  0  0  0
  3 33  1  0  0  0  0
  4 34  1  0  0  0  0
  5 35  1  0  0  0  0
  5 36  1  0  0  0  0
  6 37  1  0  0  0  0
  6 38  1  0  0  0  0
  7  1  1  0  0  0  0
  8  4  1  0  0  0  0
  8  6  1  0  0  0  0
  9  5  1  0  0  0  0
  9  8  2  0  0  0  0
 10  2  1  0  0  0  0
 10 15  1  0  0  0  0
 10 26  1  6  0  0  0
 11  3  1  0  0  0  0
 12  7  2  0  0  0  0
 12  9  1  0  0  0  0
 13 10  1  0  0  0  0
 14  4  2  0  0  0  0
 14  7  1  0  0  0  0
 14 39  1  0  0  0  0
 15  5  1  0  0  0  0
 15 40  1  0  0  0  0
 16 11  2  0  0  0  0
 17 11  1  0  0  0  0
 17 41  1  0  0  0  0
 18 12  1  0  0  0  0
 18 42  1  0  0  0  0
 19 13  2  0  0  0  0
 20 13  1  0  0  0  0
 20 43  1  0  0  0  0
 21 44  1  0  0  0  0
 22 45  1  0  0  0  0
 24  6  1  0  0  0  0
 25 21  1  0  0  0  0
 25 22  1  0  0  0  0
 25 23  2  0  0  0  0
 25 24  1  0  0  0  0
M  CHG  1  14   1
M  END
>  <DRUGBANK_ID>
DB01813

>  <SECONDARY_ACCESSION_NUMBERS>
EXPT02638; EXPT02576

>  <COMMON_NAME>
Pyridoxyl-Glutamic Acid-5'-Monophosphate

$$$$
