PQB
 OpenBabel10282417072D

 45 47  0  0  0  0  0  0  0  0999 V2000
   -1.6234   -0.1983    0.0000 N   0  0  0  0  0  0  0  0  0  0  0  0
   -1.4519   -1.0052    0.0000 C   0  0  0  0  0  0  0  0  0  0  0  0
   -0.6982   -1.3408    0.0000 C   0  0  0  0  0  0  0  0  0  0  0  0
   -0.7844   -2.1613    0.0000 C   0  0  0  0  0  0  0  0  0  0  0  0
   -1.5914   -2.3328    0.0000 N   0  0  0  0  0  0  0  0  0  0  0  0
   -2.0039   -1.6183    0.0000 N   0  0  0  0  0  0  0  0  0  0  0  0
   -2.8244   -1.5321    0.0000 C   0  0  0  0  0  0  0  0  0  0  0  0
   -3.3093   -2.1995    0.0000 C   0  0  0  0  0  0  0  0  0  0  0  0
   -4.1298   -2.1133    0.0000 C   0  0  0  0  0  0  0  0  0  0  0  0
   -4.4653   -1.3596    0.0000 C   0  0  0  0  0  0  0  0  0  0  0  0
   -5.2858   -1.2734    0.0000 F   0  0  0  0  0  0  0  0  0  0  0  0
   -3.9804   -0.6922    0.0000 C   0  0  0  0  0  0  0  0  0  0  0  0
   -3.1599   -0.7784    0.0000 C   0  0  0  0  0  0  0  0  0  0  0  0
    0.0163   -0.9283    0.0000 C   0  0  0  0  0  0  0  0  0  0  0  0
    0.7307   -1.3408    0.0000 O   0  0  0  0  0  0  0  0  0  0  0  0
    0.0163   -0.1033    0.0000 C   0  0  0  0  0  0  0  0  0  0  0  0
   -0.6982    0.3092    0.0000 C   0  0  0  0  0  0  0  0  0  0  0  0
   -0.6982    1.1342    0.0000 C   0  0  0  0  0  0  0  0  0  0  0  0
    0.0163    1.5467    0.0000 C   0  0  0  0  0  0  0  0  0  0  0  0
    0.7307    1.1342    0.0000 C   0  0  0  0  0  0  0  0  0  0  0  0
    1.4452    1.5467    0.0000 O   0  0  0  0  0  0  0  0  0  0  0  0
    2.1597    1.1342    0.0000 C   0  0  0  0  0  0  0  0  0  0  0  0
    2.8742    1.5467    0.0000 C   0  0  1  0  0  0  0  0  0  0  0  0
    2.8742    2.3717    0.0000 O   0  0  0  0  0  0  0  0  0  0  0  0
    3.5886    1.1342    0.0000 C   0  0  0  0  0  0  0  0  0  0  0  0
    4.3031    1.5467    0.0000 O   0  0  0  0  0  0  0  0  0  0  0  0
    0.7307    0.3092    0.0000 C   0  0  0  0  0  0  0  0  0  0  0  0
    2.3685    1.8387    0.0000 H   0  0  0  0  0  0  0  0  0  0  0  0
   -0.8918    0.4604    0.0000 H   0  0  0  0  0  0  0  0  0  0  0  0
   -2.5597    0.1059    0.0000 H   0  0  0  0  0  0  0  0  0  0  0  0
   -0.0175   -2.8518    0.0000 H   0  0  0  0  0  0  0  0  0  0  0  0
   -2.8895   -3.1423    0.0000 H   0  0  0  0  0  0  0  0  0  0  0  0
   -4.7364   -2.9482    0.0000 H   0  0  0  0  0  0  0  0  0  0  0  0
   -4.4002    0.2506    0.0000 H   0  0  0  0  0  0  0  0  0  0  0  0
   -2.5533    0.0565    0.0000 H   0  0  0  0  0  0  0  0  0  0  0  0
   -1.5919   -0.2068    0.0000 H   0  0  0  0  0  0  0  0  0  0  0  0
   -1.5919    1.6502    0.0000 H   0  0  0  0  0  0  0  0  0  0  0  0
    0.0163    2.5787    0.0000 H   0  0  0  0  0  0  0  0  0  0  0  0
    2.1597    0.0642    0.0000 H   0  0  0  0  0  0  0  0  0  0  0  0
    3.0863    0.5992    0.0000 H   0  0  0  0  0  0  0  0  0  0  0  0
    3.7142    2.8567    0.0000 H   0  0  0  0  0  0  0  0  0  0  0  0
    3.5886    0.0642    0.0000 H   0  0  0  0  0  0  0  0  0  0  0  0
    4.5152    0.5992    0.0000 H   0  0  0  0  0  0  0  0  0  0  0  0
    5.1431    1.0617    0.0000 H   0  0  0  0  0  0  0  0  0  0  0  0
    1.6244   -0.2068    0.0000 H   0  0  0  0  0  0  0  0  0  0  0  0
  1  2  1  0  0  0  0
  1 29  1  0  0  0  0
  1 30  1  0  0  0  0
  2  3  2  0  0  0  0
  2  6  1  0  0  0  0
  3  4  1  0  0  0  0
  3 14  1  0  0  0  0
  4  5  2  0  0  0  0
  4 31  1  0  0  0  0
  5  6  1  0  0  0  0
  6  7  1  0  0  0  0
  7  8  1  0  0  0  0
  7 13  2  0  0  0  0
  8  9  2  0  0  0  0
  8 32  1  0  0  0  0
  9 10  1  0  0  0  0
  9 33  1  0  0  0  0
 10 11  1  0  0  0  0
 10 12  2  0  0  0  0
 12 13  1  0  0  0  0
 12 34  1  0  0  0  0
 13 35  1  0  0  0  0
 14 15  2  0  0  0  0
 14 16  1  0  0  0  0
 16 17  2  0  0  0  0
 16 27  1  0  0  0  0
 17 18  1  0  0  0  0
 17 36  1  0  0  0  0
 18 19  2  0  0  0  0
 18 37  1  0  0  0  0
 19 20  1  0  0  0  0
 19 38  1  0  0  0  0
 20 21  1  0  0  0  0
 20 27  2  0  0  0  0
 21 22  1  0  0  0  0
 22 23  1  0  0  0  0
 22 39  1  0  0  0  0
 22 40  1  0  0  0  0
 23 24  1  0  0  0  0
 23 25  1  0  0  0  0
 23 28  1  6  0  0  0
 24 41  1  0  0  0  0
 25 26  1  0  0  0  0
 25 42  1  0  0  0  0
 25 43  1  0  0  0  0
 26 44  1  0  0  0  0
 27 45  1  0  0  0  0
M  END
>  <DRUGBANK_ID>
DB08424

>  <COMMON_NAME>
[5-AMINO-1-(4-FLUOROPHENYL)-1H-PYRAZOL-4-YL](3-{[(2R)-2,3-DIHYDROXYPROPYL]OXY}PHENYL)METHANONE

$$$$
