
 OpenBabel10282417072D

177184  0  0  0  0  0  0  0  0999 V2000
   -0.2865   -2.9418    0.0000 C   0  0  0  0  0  0  0  0  0  0  0  0
   -0.2865   -3.7668    0.0000 C   0  0  0  0  0  0  0  0  0  0  0  0
   -1.0010   -2.5293    0.0000 C   0  0  0  0  0  0  0  0  0  0  0  0
   -1.0010   -4.1793    0.0000 C   0  0  0  0  0  0  0  0  0  0  0  0
   -1.7154   -2.9418    0.0000 C   0  0  0  0  0  0  0  0  0  0  0  0
   -1.7154   -3.7668    0.0000 C   0  0  0  0  0  0  0  0  0  0  0  0
    0.4980   -2.6869    0.0000 C   0  0  0  0  0  0  0  0  0  0  0  0
    0.9829   -3.3543    0.0000 C   0  0  0  0  0  0  0  0  0  0  0  0
    0.4981   -4.0218    0.0000 N   0  0  0  0  0  0  0  0  0  0  0  0
    1.1161   -1.9827    0.0000 C   0  0  0  0  0  0  0  0  0  0  0  0
    3.2595    0.0797    0.0000 C   0  0  0  0  0  0  0  0  0  0  0  0
    3.2595   -0.7452    0.0000 C   0  0  1  0  0  0  0  0  0  0  0  0
    2.5450    0.4922    0.0000 O   0  0  0  0  0  0  0  0  0  0  0  0
    2.5450   -1.1577    0.0000 N   0  0  0  0  0  0  0  0  0  0  0  0
    1.8306    0.0797    0.0000 O   0  0  0  0  0  0  0  0  0  0  0  0
    1.8306   -0.7452    0.0000 C   0  0  0  0  0  0  0  0  0  0  0  0
    1.1161   -1.1577    0.0000 C   0  0  2  0  0  0  0  0  0  0  0  0
    0.4016   -0.7452    0.0000 N   0  0  0  0  0  0  0  0  0  0  0  0
   -0.3127   -1.1577    0.0000 C   0  0  0  0  0  0  0  0  0  0  0  0
   -1.0272   -0.7451    0.0000 C   0  0  2  0  0  0  0  0  0  0  0  0
   -0.3127   -1.9827    0.0000 O   0  0  0  0  0  0  0  0  0  0  0  0
   -1.0272    0.0798    0.0000 C   0  0  0  0  0  0  0  0  0  0  0  0
   -1.7417   -1.1576    0.0000 N   0  0  0  0  0  0  0  0  0  0  0  0
   -0.3127    0.4922    0.0000 C   0  0  0  0  0  0  0  0  0  0  0  0
   -0.3127    1.3172    0.0000 C   0  0  0  0  0  0  0  0  0  0  0  0
    0.4017    0.0797    0.0000 C   0  0  0  0  0  0  0  0  0  0  0  0
    0.4018    1.7297    0.0000 C   0  0  0  0  0  0  0  0  0  0  0  0
    1.1162    0.4922    0.0000 C   0  0  0  0  0  0  0  0  0  0  0  0
    1.1162    1.3172    0.0000 C   0  0  0  0  0  0  0  0  0  0  0  0
    1.8307    1.7297    0.0000 O   0  0  0  0  0  0  0  0  0  0  0  0
   -2.4561   -0.7451    0.0000 C   0  0  0  0  0  0  0  0  0  0  0  0
   -3.1706   -1.1576    0.0000 C   0  0  1  0  0  0  0  0  0  0  0  0
   -3.8850   -0.7450    0.0000 N   0  0  0  0  0  0  0  0  0  0  0  0
   -3.1706   -1.9826    0.0000 C   0  0  0  0  0  0  0  0  0  0  0  0
   -2.4561    0.0798    0.0000 O   0  0  0  0  0  0  0  0  0  0  0  0
   -4.5996   -1.1575    0.0000 C   0  0  0  0  0  0  0  0  0  0  0  0
   -5.3140   -0.7450    0.0000 C   0  0  2  0  0  0  0  0  0  0  0  0
   -6.0285   -1.1575    0.0000 C   0  0  0  0  0  0  0  0  0  0  0  0
   -6.0286   -1.9825    0.0000 C   0  0  0  0  0  0  0  0  0  0  0  0
   -4.5996   -1.9825    0.0000 O   0  0  0  0  0  0  0  0  0  0  0  0
   -6.6964   -2.4668    0.0000 C   0  0  0  0  0  0  0  0  0  0  0  0
   -6.4421   -3.2517    0.0000 N   0  0  0  0  0  0  0  0  0  0  0  0
   -5.3615   -2.4680    0.0000 C   0  0  0  0  0  0  0  0  0  0  0  0
   -5.6170   -3.2524    0.0000 C   0  0  0  0  0  0  0  0  0  0  0  0
   -4.0014   -2.9060    0.0000 C   0  0  0  0  0  0  0  0  0  0  0  0
   -4.2542   -3.6913    0.0000 C   0  0  0  0  0  0  0  0  0  0  0  0
   -4.5550   -2.2944    0.0000 C   0  0  0  0  0  0  0  0  0  0  0  0
   -5.0608   -3.8649    0.0000 C   0  0  0  0  0  0  0  0  0  0  0  0
   -5.3140    0.0799    0.0000 N   0  0  0  0  0  0  0  0  0  0  0  0
   -6.0284    0.4924    0.0000 C   0  0  0  0  0  0  0  0  0  0  0  0
   -6.0284    1.3174    0.0000 C   0  0  2  0  0  0  0  0  0  0  0  0
   -6.7429    0.0800    0.0000 O   0  0  0  0  0  0  0  0  0  0  0  0
   -5.3139    1.7299    0.0000 C   0  0  0  0  0  0  0  0  0  0  0  0
   -4.5994    1.3174    0.0000 C   0  0  0  0  0  0  0  0  0  0  0  0
   -3.9316    1.8017    0.0000 N   0  0  0  0  0  0  0  0  0  0  0  0
   -4.3452    0.5325    0.0000 C   0  0  0  0  0  0  0  0  0  0  0  0
   -3.2646    1.3162    0.0000 C   0  0  0  0  0  0  0  0  0  0  0  0
   -3.5201    0.5317    0.0000 N   0  0  0  0  0  0  0  0  0  0  0  0
   -6.7740    1.6705    0.0000 N   0  0  0  0  0  0  0  0  0  0  0  0
   -6.7814    2.6816    0.0000 C   0  0  0  0  0  0  0  0  0  0  0  0
   -7.4989    3.0889    0.0000 O   0  0  0  0  0  0  0  0  0  0  0  0
   -6.0700    3.0994    0.0000 C   0  0  2  0  0  0  0  0  0  0  0  0
   -6.0700    3.9244    0.0000 C   0  0  0  0  0  0  0  0  0  0  0  0
   -5.2854    4.1793    0.0000 C   0  0  0  0  0  0  0  0  0  0  0  0
   -4.8004    3.5119    0.0000 C   0  0  0  0  0  0  0  0  0  0  0  0
   -5.2852    2.8443    0.0000 N   0  0  0  0  0  0  0  0  0  0  0  0
   -3.9754    3.5119    0.0000 O   0  0  0  0  0  0  0  0  0  0  0  0
    3.9740   -1.1577    0.0000 C   0  0  0  0  0  0  0  0  0  0  0  0
    4.6885   -0.7452    0.0000 C   0  0  0  0  0  0  0  0  0  0  0  0
    5.4030   -1.1577    0.0000 C   0  0  0  0  0  0  0  0  0  0  0  0
    4.6885    0.0797    0.0000 C   0  0  0  0  0  0  0  0  0  0  0  0
    3.9740    0.4922    0.0000 N   0  0  0  0  0  0  0  0  0  0  0  0
    3.9741    1.3172    0.0000 C   0  0  2  0  0  0  0  0  0  0  0  0
    4.6885    1.7297    0.0000 C   0  0  0  0  0  0  0  0  0  0  0  0
    4.6885    2.5547    0.0000 N   0  0  0  0  0  0  0  0  0  0  0  0
    5.4030    1.3172    0.0000 O   0  0  0  0  0  0  0  0  0  0  0  0
    3.2596    1.7297    0.0000 C   0  0  0  0  0  0  0  0  0  0  0  0
    3.2596    2.5547    0.0000 C   0  0  0  0  0  0  0  0  0  0  0  0
    2.5451    2.9673    0.0000 C   0  0  0  0  0  0  0  0  0  0  0  0
    1.8306    2.5548    0.0000 N   0  0  0  0  0  0  0  0  0  0  0  0
    1.1162    2.9673    0.0000 C   0  0  0  0  0  0  0  0  0  0  0  0
    0.4017    2.5549    0.0000 N   0  0  0  0  0  0  0  0  0  0  0  0
    1.1162    3.7923    0.0000 N   0  0  0  0  0  0  0  0  0  0  0  0
    4.0207    3.0391    0.0000 C   0  0  0  0  0  0  0  0  0  0  0  0
    4.2749    3.8239    0.0000 C   0  0  0  0  0  0  0  0  0  0  0  0
    5.3555    3.0402    0.0000 C   0  0  1  0  0  0  0  0  0  0  0  0
    5.1000    3.8246    0.0000 C   0  0  0  0  0  0  0  0  0  0  0  0
    6.7845    3.0402    0.0000 O   0  0  0  0  0  0  0  0  0  0  0  0
    6.7845    1.3902    0.0000 C   0  0  0  0  0  0  0  0  0  0  0  0
    6.0700    2.6277    0.0000 C   0  0  0  0  0  0  0  0  0  0  0  0
    6.0700    1.8027    0.0000 N   0  0  0  0  0  0  0  0  0  0  0  0
    6.7845    0.5652    0.0000 C   0  0  0  0  0  0  0  0  0  0  0  0
    7.4989    0.1527    0.0000 N   0  0  0  0  0  0  0  0  0  0  0  0
    6.0700    0.1527    0.0000 O   0  0  0  0  0  0  0  0  0  0  0  0
   -2.4562   -2.3951    0.0000 O   0  0  0  0  0  0  0  0  0  0  0  0
   -1.0010   -1.4973    0.0000 H   0  0  0  0  0  0  0  0  0  0  0  0
   -1.0010   -5.2113    0.0000 H   0  0  0  0  0  0  0  0  0  0  0  0
   -2.6091   -2.4258    0.0000 H   0  0  0  0  0  0  0  0  0  0  0  0
   -2.6091   -4.2828    0.0000 H   0  0  0  0  0  0  0  0  0  0  0  0
    2.0149   -3.3542    0.0000 H   0  0  0  0  0  0  0  0  0  0  0  0
    0.8024   -4.9581    0.0000 H   0  0  0  0  0  0  0  0  0  0  0  0
    2.1174   -2.3598    0.0000 H   0  0  0  0  0  0  0  0  0  0  0  0
    1.9960   -1.3739    0.0000 H   0  0  0  0  0  0  0  0  0  0  0  0
    4.1861   -0.2102    0.0000 H   0  0  0  0  0  0  0  0  0  0  0  0
    2.5450   -2.1422    0.0000 H   0  0  0  0  0  0  0  0  0  0  0  0
    2.0427   -1.6927    0.0000 H   0  0  0  0  0  0  0  0  0  0  0  0
    0.4015    0.2393    0.0000 H   0  0  0  0  0  0  0  0  0  0  0  0
   -0.1005   -0.2101    0.0000 H   0  0  0  0  0  0  0  0  0  0  0  0
   -1.9538    0.6149    0.0000 H   0  0  0  0  0  0  0  0  0  0  0  0
   -1.0271    1.1498    0.0000 H   0  0  0  0  0  0  0  0  0  0  0  0
   -1.7417   -2.1421    0.0000 H   0  0  0  0  0  0  0  0  0  0  0  0
   -1.2064    1.8332    0.0000 H   0  0  0  0  0  0  0  0  0  0  0  0
    0.4017   -0.9523    0.0000 H   0  0  0  0  0  0  0  0  0  0  0  0
    0.4018    2.7617    0.0000 H   0  0  0  0  0  0  0  0  0  0  0  0
    2.0099   -0.0238    0.0000 H   0  0  0  0  0  0  0  0  0  0  0  0
    2.6422    1.2612    0.0000 H   0  0  0  0  0  0  0  0  0  0  0  0
   -2.2440   -1.6926    0.0000 H   0  0  0  0  0  0  0  0  0  0  0  0
   -3.8849    0.2395    0.0000 H   0  0  0  0  0  0  0  0  0  0  0  0
   -4.0973   -2.5176    0.0000 H   0  0  0  0  0  0  0  0  0  0  0  0
   -3.1706   -3.0526    0.0000 H   0  0  0  0  0  0  0  0  0  0  0  0
   -5.3140   -1.8150    0.0000 H   0  0  0  0  0  0  0  0  0  0  0  0
   -6.9551   -0.6224    0.0000 H   0  0  0  0  0  0  0  0  0  0  0  0
   -6.9552   -1.6924    0.0000 H   0  0  0  0  0  0  0  0  0  0  0  0
   -7.6776   -2.1471    0.0000 H   0  0  0  0  0  0  0  0  0  0  0  0
   -7.0214   -4.0477    0.0000 H   0  0  0  0  0  0  0  0  0  0  0  0
   -2.9925   -2.6887    0.0000 H   0  0  0  0  0  0  0  0  0  0  0  0
   -3.5616   -4.4564    0.0000 H   0  0  0  0  0  0  0  0  0  0  0  0
   -4.2386   -1.3121    0.0000 H   0  0  0  0  0  0  0  0  0  0  0  0
   -5.3764   -4.8475    0.0000 H   0  0  0  0  0  0  0  0  0  0  0  0
   -4.4614    0.5721    0.0000 H   0  0  0  0  0  0  0  0  0  0  0  0
   -5.1018    0.7824    0.0000 H   0  0  0  0  0  0  0  0  0  0  0  0
   -5.3139    2.7999    0.0000 H   0  0  0  0  0  0  0  0  0  0  0  0
   -4.3873    2.2649    0.0000 H   0  0  0  0  0  0  0  0  0  0  0  0
   -4.9526   -0.3018    0.0000 H   0  0  0  0  0  0  0  0  0  0  0  0
   -2.2829    1.6343    0.0000 H   0  0  0  0  0  0  0  0  0  0  0  0
   -2.9421   -0.2653    0.0000 H   0  0  0  0  0  0  0  0  0  0  0  0
   -7.6040    1.1410    0.0000 H   0  0  0  0  0  0  0  0  0  0  0  0
   -6.9986    3.6310    0.0000 H   0  0  0  0  0  0  0  0  0  0  0  0
   -6.9356    4.5533    0.0000 H   0  0  0  0  0  0  0  0  0  0  0  0
   -7.0234    3.4386    0.0000 H   0  0  0  0  0  0  0  0  0  0  0  0
   -4.9548    5.1969    0.0000 H   0  0  0  0  0  0  0  0  0  0  0  0
   -4.2286    4.3468    0.0000 H   0  0  0  0  0  0  0  0  0  0  0  0
   -4.9809    1.9080    0.0000 H   0  0  0  0  0  0  0  0  0  0  0  0
    3.9740   -2.2277    0.0000 H   0  0  0  0  0  0  0  0  0  0  0  0
    4.9006   -1.6927    0.0000 H   0  0  0  0  0  0  0  0  0  0  0  0
    5.6151   -0.2102    0.0000 H   0  0  0  0  0  0  0  0  0  0  0  0
    5.4030   -2.2277    0.0000 H   0  0  0  0  0  0  0  0  0  0  0  0
    6.3296   -0.6227    0.0000 H   0  0  0  0  0  0  0  0  0  0  0  0
    6.3297   -1.6927    0.0000 H   0  0  0  0  0  0  0  0  0  0  0  0
    5.6151    0.6147    0.0000 H   0  0  0  0  0  0  0  0  0  0  0  0
    3.7619    0.6147    0.0000 H   0  0  0  0  0  0  0  0  0  0  0  0
    4.6885    1.1497    0.0000 H   0  0  0  0  0  0  0  0  0  0  0  0
    4.8266   -0.0001    0.0000 H   0  0  0  0  0  0  0  0  0  0  0  0
    3.0474    0.7822    0.0000 H   0  0  0  0  0  0  0  0  0  0  0  0
    2.3330    1.1947    0.0000 H   0  0  0  0  0  0  0  0  0  0  0  0
    2.3330    2.2647    0.0000 H   0  0  0  0  0  0  0  0  0  0  0  0
    4.1863    3.0897    0.0000 H   0  0  0  0  0  0  0  0  0  0  0  0
    3.2597    3.6247    0.0000 H   0  0  0  0  0  0  0  0  0  0  0  0
    2.5452    4.0373    0.0000 H   0  0  0  0  0  0  0  0  0  0  0  0
    1.6185    3.5023    0.0000 H   0  0  0  0  0  0  0  0  0  0  0  0
    1.8306    1.5703    0.0000 H   0  0  0  0  0  0  0  0  0  0  0  0
   -0.4508    3.0473    0.0000 H   0  0  0  0  0  0  0  0  0  0  0  0
    0.4016    1.5704    0.0000 H   0  0  0  0  0  0  0  0  0  0  0  0
    1.9688    4.2846    0.0000 H   0  0  0  0  0  0  0  0  0  0  0  0
    3.0033    2.7076    0.0000 H   0  0  0  0  0  0  0  0  0  0  0  0
    3.2634    3.7950    0.0000 H   0  0  0  0  0  0  0  0  0  0  0  0
    3.6452    4.6890    0.0000 H   0  0  0  0  0  0  0  0  0  0  0  0
    4.7598    4.7777    0.0000 H   0  0  0  0  0  0  0  0  0  0  0  0
    5.4120    1.9717    0.0000 H   0  0  0  0  0  0  0  0  0  0  0  0
    5.7282    4.6907    0.0000 H   0  0  0  0  0  0  0  0  0  0  0  0
    6.1570    3.6580    0.0000 H   0  0  0  0  0  0  0  0  0  0  0  0
    7.7111    1.9252    0.0000 H   0  0  0  0  0  0  0  0  0  0  0  0
    7.7111    0.8552    0.0000 H   0  0  0  0  0  0  0  0  0  0  0  0
    5.2174    1.3104    0.0000 H   0  0  0  0  0  0  0  0  0  0  0  0
    7.4989   -0.8318    0.0000 H   0  0  0  0  0  0  0  0  0  0  0  0
    8.3515    0.6449    0.0000 H   0  0  0  0  0  0  0  0  0  0  0  0
   -2.4562   -3.3651    0.0000 H   0  0  0  0  0  0  0  0  0  0  0  0
  2  1  1  0  0  0  0
  3  1  2  0  0  0  0
  3 96  1  0  0  0  0
  4  2  2  0  0  0  0
  4 97  1  0  0  0  0
  5  3  1  0  0  0  0
  5 98  1  0  0  0  0
  6  4  1  0  0  0  0
  6  5  2  0  0  0  0
  6 99  1  0  0  0  0
  7  1  1  0  0  0  0
  7 10  1  0  0  0  0
  8  7  2  0  0  0  0
  8100  1  0  0  0  0
  9  2  1  0  0  0  0
  9  8  1  0  0  0  0
  9101  1  0  0  0  0
 10102  1  0  0  0  0
 10103  1  0  0  0  0
 11 72  1  0  0  0  0
 12 11  1  0  0  0  0
 12 68  1  0  0  0  0
 12104  1  1  0  0  0
 13 11  2  0  0  0  0
 14 12  1  0  0  0  0
 14105  1  0  0  0  0
 16 14  1  0  0  0  0
 16 15  2  0  0  0  0
 16 17  1  0  0  0  0
 17 18  1  0  0  0  0
 17 10  1  0  0  0  0
 17106  1  6  0  0  0
 18 19  1  0  0  0  0
 18107  1  0  0  0  0
 19 20  1  0  0  0  0
 19 21  2  0  0  0  0
 20 22  1  0  0  0  0
 20 23  1  0  0  0  0
 20108  1  6  0  0  0
 22 24  1  0  0  0  0
 22109  1  0  0  0  0
 22110  1  0  0  0  0
 23 31  1  0  0  0  0
 23111  1  0  0  0  0
 25 24  1  0  0  0  0
 25112  1  0  0  0  0
 26 24  2  0  0  0  0
 26113  1  0  0  0  0
 27 25  2  0  0  0  0
 27114  1  0  0  0  0
 28 26  1  0  0  0  0
 28115  1  0  0  0  0
 29 27  1  0  0  0  0
 29 28  2  0  0  0  0
 29 30  1  0  0  0  0
 30116  1  0  0  0  0
 31 32  1  0  0  0  0
 31 35  2  0  0  0  0
 32 33  1  0  0  0  0
 32 34  1  0  0  0  0
 32117  1  1  0  0  0
 33 36  1  0  0  0  0
 33118  1  0  0  0  0
 34 95  1  0  0  0  0
 34119  1  0  0  0  0
 34120  1  0  0  0  0
 36 37  1  0  0  0  0
 36 40  2  0  0  0  0
 37 38  1  0  0  0  0
 37 49  1  0  0  0  0
 37121  1  1  0  0  0
 38 39  1  0  0  0  0
 38122  1  0  0  0  0
 38123  1  0  0  0  0
 39 41  2  0  0  0  0
 41124  1  0  0  0  0
 42 41  1  0  0  0  0
 42125  1  0  0  0  0
 43 39  1  0  0  0  0
 43 47  1  0  0  0  0
 44 42  1  0  0  0  0
 44 48  1  0  0  0  0
 44 43  2  0  0  0  0
 45126  1  0  0  0  0
 46 45  1  0  0  0  0
 46127  1  0  0  0  0
 47 45  2  0  0  0  0
 47128  1  0  0  0  0
 48 46  2  0  0  0  0
 48129  1  0  0  0  0
 49 50  1  0  0  0  0
 49130  1  0  0  0  0
 50 51  1  0  0  0  0
 50 52  2  0  0  0  0
 51 53  1  0  0  0  0
 51131  1  6  0  0  0
 53 54  1  0  0  0  0
 53132  1  0  0  0  0
 53133  1  0  0  0  0
 55 54  1  0  0  0  0
 56 54  2  0  0  0  0
 56134  1  0  0  0  0
 57 55  2  0  0  0  0
 57135  1  0  0  0  0
 58 56  1  0  0  0  0
 58 57  1  0  0  0  0
 58136  1  0  0  0  0
 59 51  1  0  0  0  0
 59 60  1  0  0  0  0
 59137  1  0  0  0  0
 60 61  2  0  0  0  0
 62 60  1  0  0  0  0
 62 63  1  0  0  0  0
 62138  1  1  0  0  0
 63139  1  0  0  0  0
 63140  1  0  0  0  0
 64 63  1  0  0  0  0
 64141  1  0  0  0  0
 64142  1  0  0  0  0
 65 64  1  0  0  0  0
 65 67  2  0  0  0  0
 66 62  1  0  0  0  0
 66 65  1  0  0  0  0
 66143  1  0  0  0  0
 68 69  1  0  0  0  0
 68144  1  0  0  0  0
 68145  1  0  0  0  0
 69 70  1  0  0  0  0
 69 71  1  0  0  0  0
 69146  1  0  0  0  0
 70147  1  0  0  0  0
 70148  1  0  0  0  0
 70149  1  0  0  0  0
 71150  1  0  0  0  0
 71151  1  0  0  0  0
 71152  1  0  0  0  0
 72 73  1  0  0  0  0
 72153  1  0  0  0  0
 73 74  1  0  0  0  0
 73 77  1  0  0  0  0
 73154  1  6  0  0  0
 74 75  1  0  0  0  0
 74 76  2  0  0  0  0
 75 84  1  0  0  0  0
 77 78  1  0  0  0  0
 77155  1  0  0  0  0
 77156  1  0  0  0  0
 78 79  1  0  0  0  0
 78157  1  0  0  0  0
 78158  1  0  0  0  0
 79 80  1  0  0  0  0
 79159  1  0  0  0  0
 79160  1  0  0  0  0
 80 81  1  0  0  0  0
 80161  1  0  0  0  0
 81 82  1  0  0  0  0
 81 83  2  0  0  0  0
 82162  1  0  0  0  0
 82163  1  0  0  0  0
 83164  1  0  0  0  0
 84165  1  0  0  0  0
 84166  1  0  0  0  0
 85 84  1  0  0  0  0
 85167  1  0  0  0  0
 85168  1  0  0  0  0
 86 75  1  0  0  0  0
 86 90  1  0  0  0  0
 86169  1  6  0  0  0
 87 85  1  0  0  0  0
 87 86  1  0  0  0  0
 87170  1  0  0  0  0
 87171  1  0  0  0  0
 89 92  1  0  0  0  0
 89172  1  0  0  0  0
 89173  1  0  0  0  0
 90 88  2  0  0  0  0
 91 89  1  0  0  0  0
 91 90  1  0  0  0  0
 91174  1  0  0  0  0
 92 93  1  0  0  0  0
 92 94  2  0  0  0  0
 93175  1  0  0  0  0
 93176  1  0  0  0  0
 95177  1  0  0  0  0
M  END
>  <DRUGBANK_ID>
DB06825

>  <COMMON_NAME>
Triptorelin

>  <CAS_NUMBER>
57773-63-4

>  <UNII>
9081Y98W2V

>  <SYNONYMS>
(6-D-Tryptophan)luteinizing hormone-releasing hormone; (D-Trp6)-GnRH; Luteinizing hormone-releasing factor (pig), 6-D-tryptophan; pGlu-His-Trp-Ser-Tyr-D-Trp-Leu-Arg-Pro-Gly-NH2	; Triptorelin; Triptorelina; Triptoreline; Triptorelinum

$$$$
