
 OpenBabel10282417072D

 36 33  0  0  0  0  0  0  0  0999 V2000
    8.6544  -10.7289    0.0000 C   0  0  0  0  0  0  0  0  0  0  0  0
    7.9400  -11.1414    0.0000 C   0  0  0  0  0  0  0  0  0  0  0  0
    7.2255  -10.7289    0.0000 N   0  0  0  0  0  0  0  0  0  0  0  0
    7.2255   -9.9038    0.0000 C   0  0  0  0  0  0  0  0  0  0  0  0
    7.9400   -9.4914    0.0000 C   0  0  0  0  0  0  0  0  0  0  0  0
    8.6544   -9.9040    0.0000 O   0  0  0  0  0  0  0  0  0  0  0  0
    7.9400   -8.6664    0.0000 O   0  0  0  0  0  0  0  0  0  0  0  0
    6.5110  -11.1414    0.0000 C   0  0  0  0  0  0  0  0  0  0  0  0
    5.7966  -10.7289    0.0000 C   0  0  0  0  0  0  0  0  0  0  0  0
    5.0821  -11.1414    0.0000 O   0  0  0  0  0  0  0  0  0  0  0  0
    5.7966   -9.9039    0.0000 O   0  5  0  0  0  0  0  0  0  0  0  0
    9.3689  -11.1415    0.0000 N   0  0  0  0  0  0  0  0  0  0  0  0
    9.3689  -11.9665    0.0000 C   0  0  0  0  0  0  0  0  0  0  0  0
    8.6544  -12.3789    0.0000 C   0  0  0  0  0  0  0  0  0  0  0  0
    7.9400  -11.9664    0.0000 O   0  0  0  0  0  0  0  0  0  0  0  0
    8.6544  -13.2040    0.0000 O   0  0  0  0  0  0  0  0  0  0  0  0
   10.0833  -10.7290    0.0000 C   0  0  0  0  0  0  0  0  0  0  0  0
   10.7978  -11.1415    0.0000 C   0  0  0  0  0  0  0  0  0  0  0  0
   10.7978  -11.9665    0.0000 O   0  0  0  0  0  0  0  0  0  0  0  0
   11.5123  -10.7290    0.0000 O   0  5  0  0  0  0  0  0  0  0  0  0
   12.1445  -10.7113    0.0000 Na  0  3  0  0  0  0  0  0  0  0  0  0
    5.0794   -9.8220    0.0000 Na  0  3  0  0  0  0  0  0  0  0  0  0
    8.6544   -9.6589    0.0000 H   0  0  0  0  0  0  0  0  0  0  0  0
    9.5811  -10.1940    0.0000 H   0  0  0  0  0  0  0  0  0  0  0  0
    7.9400  -12.2114    0.0000 H   0  0  0  0  0  0  0  0  0  0  0  0
    7.0134  -11.6764    0.0000 H   0  0  0  0  0  0  0  0  0  0  0  0
    6.2989   -9.3687    0.0000 H   0  0  0  0  0  0  0  0  0  0  0  0
    7.2256   -8.8338    0.0000 H   0  0  0  0  0  0  0  0  0  0  0  0
    8.7515   -8.1979    0.0000 H   0  0  0  0  0  0  0  0  0  0  0  0
    6.5110  -12.2114    0.0000 H   0  0  0  0  0  0  0  0  0  0  0  0
    5.5843  -11.6764    0.0000 H   0  0  0  0  0  0  0  0  0  0  0  0
   10.2955  -12.5016    0.0000 H   0  0  0  0  0  0  0  0  0  0  0  0
    9.3688  -13.0365    0.0000 H   0  0  0  0  0  0  0  0  0  0  0  0
    7.8429  -13.6725    0.0000 H   0  0  0  0  0  0  0  0  0  0  0  0
   10.0833   -9.6590    0.0000 H   0  0  0  0  0  0  0  0  0  0  0  0
   11.0099  -10.1940    0.0000 H   0  0  0  0  0  0  0  0  0  0  0  0
  1  2  1  0  0  0  0
  1 12  1  0  0  0  0
  1 23  1  0  0  0  0
  1 24  1  0  0  0  0
  2  3  1  0  0  0  0
  2 25  1  0  0  0  0
  2 26  1  0  0  0  0
  3  4  1  0  0  0  0
  3  8  1  0  0  0  0
  4  5  1  0  0  0  0
  4 27  1  0  0  0  0
  4 28  1  0  0  0  0
  5  6  2  0  0  0  0
  5  7  1  0  0  0  0
  7 29  1  0  0  0  0
  8  9  1  0  0  0  0
  8 30  1  0  0  0  0
  8 31  1  0  0  0  0
  9 10  2  0  0  0  0
  9 11  1  0  0  0  0
 12 13  1  0  0  0  0
 12 17  1  0  0  0  0
 13 14  1  0  0  0  0
 13 32  1  0  0  0  0
 13 33  1  0  0  0  0
 14 15  2  0  0  0  0
 14 16  1  0  0  0  0
 16 34  1  0  0  0  0
 17 18  1  0  0  0  0
 17 35  1  0  0  0  0
 17 36  1  0  0  0  0
 18 19  2  0  0  0  0
 18 20  1  0  0  0  0
M  CHG  4  11  -1  20  -1  21   1  22   1
M  END
>  <DRUGBANK_ID>
DB14600

>  <SECONDARY_ACCESSION_NUMBERS>
DBSALT000838

>  <COMMON_NAME>
Edetate disodium anhydrous

>  <CAS_NUMBER>
139-33-3

>  <UNII>
8NLQ36F6MM

>  <SYNONYMS>
Anhydrous disodium edetate; Disodium EDTA, anhydrous; Edetate disodium, anhydrous; EDTA disodium salt (anhydrous)

$$$$
