
 OpenBabel10282417072D

 25 24  0  0  0  0  0  0  0  0999 V2000
    2.1436   -0.2061    0.0000 C   0  0  0  0  0  0  0  0  0  0  0  0
    1.4291    0.2063    0.0000 C   0  0  2  0  0  0  0  0  0  0  0  0
    1.4291    1.0313    0.0000 O   0  0  0  0  0  0  0  0  0  0  0  0
    0.7145   -0.2061    0.0000 C   0  0  2  0  0  0  0  0  0  0  0  0
    0.7145   -1.0313    0.0000 O   0  0  0  0  0  0  0  0  0  0  0  0
    0.0000    0.2063    0.0000 C   0  0  1  0  0  0  0  0  0  0  0  0
    0.0000    1.0313    0.0000 O   0  0  0  0  0  0  0  0  0  0  0  0
   -0.7145   -0.2061    0.0000 C   0  0  1  0  0  0  0  0  0  0  0  0
   -0.7145   -1.0313    0.0000 O   0  0  0  0  0  0  0  0  0  0  0  0
   -1.4290    0.2063    0.0000 C   0  0  0  0  0  0  0  0  0  0  0  0
   -2.1437   -0.2061    0.0000 O   0  0  0  0  0  0  0  0  0  0  0  0
    2.1437   -1.2761    0.0000 H   0  0  0  0  0  0  0  0  0  0  0  0
    3.0702    0.3290    0.0000 H   0  0  0  0  0  0  0  0  0  0  0  0
    3.0703   -0.7410    0.0000 H   0  0  0  0  0  0  0  0  0  0  0  0
    2.3557    0.7414    0.0000 H   0  0  0  0  0  0  0  0  0  0  0  0
    2.2691    1.5163    0.0000 H   0  0  0  0  0  0  0  0  0  0  0  0
    1.6411   -0.7412    0.0000 H   0  0  0  0  0  0  0  0  0  0  0  0
   -0.1255   -1.5163    0.0000 H   0  0  0  0  0  0  0  0  0  0  0  0
    0.9266    0.7414    0.0000 H   0  0  0  0  0  0  0  0  0  0  0  0
    0.8400    1.5163    0.0000 H   0  0  0  0  0  0  0  0  0  0  0  0
    0.2121   -0.7412    0.0000 H   0  0  0  0  0  0  0  0  0  0  0  0
   -1.5545   -1.5163    0.0000 H   0  0  0  0  0  0  0  0  0  0  0  0
   -1.4289    1.2763    0.0000 H   0  0  0  0  0  0  0  0  0  0  0  0
   -2.3556    0.7414    0.0000 H   0  0  0  0  0  0  0  0  0  0  0  0
   -2.9836    0.2791    0.0000 H   0  0  0  0  0  0  0  0  0  0  0  0
  1  2  1  0  0  0  0
  1 12  1  0  0  0  0
  1 13  1  0  0  0  0
  1 14  1  0  0  0  0
  2  3  1  0  0  0  0
  2  4  1  0  0  0  0
  2 15  1  6  0  0  0
  3 16  1  0  0  0  0
  4  5  1  0  0  0  0
  4  6  1  0  0  0  0
  4 17  1  1  0  0  0
  5 18  1  0  0  0  0
  6  7  1  0  0  0  0
  6  8  1  0  0  0  0
  6 19  1  1  0  0  0
  7 20  1  0  0  0  0
  8  9  1  0  0  0  0
  8 10  1  0  0  0  0
  8 21  1  6  0  0  0
  9 22  1  0  0  0  0
 10 11  1  0  0  0  0
 10 23  1  0  0  0  0
 10 24  1  0  0  0  0
 11 25  1  0  0  0  0
M  END
>  <DRUGBANK_ID>
DB02399

>  <SECONDARY_ACCESSION_NUMBERS>
EXPT02796

>  <COMMON_NAME>
L-Rhamnitol

>  <CAS_NUMBER>
488-28-8

>  <UNII>
IHI9UGC58P

>  <SYNONYMS>
(2S,3S,4S,5S)-hexane-1,2,3,4,5-pentol; 1-deoxy-L-mannitol; 6-deoxy-L-mannitol

$$$$
