251
 OpenBabel10282417072D

 67 71  0  0  0  0  0  0  0  0999 V2000
    2.7922   -0.4533    0.0000 C   0  0  1  0  0  0  0  0  0  0  0  0
    3.6427   -0.4408    0.0000 C   0  0  0  0  0  0  0  0  0  0  0  0
    2.9798    0.3501    0.0000 C   0  0  0  0  0  0  0  0  0  0  0  0
    1.9917   -0.2031    0.0000 O   0  0  0  0  0  0  0  0  0  0  0  0
    2.4764    0.9849    0.0000 N   0  0  0  0  0  0  0  0  0  0  0  0
    1.3133    1.7571    0.0000 N   0  0  0  0  0  0  0  0  0  0  0  0
    2.7922   -1.2382    0.0000 O   0  0  0  0  0  0  0  0  0  0  0  0
   -3.1079   -1.5790    0.0000 N   0  0  0  0  0  0  0  0  0  0  0  0
    4.0585   -1.1318    0.0000 C   0  0  0  0  0  0  0  0  0  0  0  0
    2.7327    1.7948    0.0000 N   0  0  0  0  0  0  0  0  0  0  0  0
   -4.7964   -1.5914    0.0000 N   0  0  0  0  0  0  0  0  0  0  0  0
    2.0167    2.2855    0.0000 C   0  0  0  0  0  0  0  0  0  0  0  0
    1.5883    0.9693    0.0000 C   0  0  0  0  0  0  0  0  0  0  0  0
    4.0679    0.2438    0.0000 C   0  0  0  0  0  0  0  0  0  0  0  0
    4.8339   -1.1318    0.0000 C   0  0  0  0  0  0  0  0  0  0  0  0
   -2.2700   -1.5790    0.0000 C   0  0  0  0  0  0  0  0  0  0  0  0
    1.4476   -0.8379    0.0000 C   0  0  1  0  0  0  0  0  0  0  0  0
   -3.5332   -2.2855    0.0000 C   0  0  0  0  0  0  0  0  0  0  0  0
   -3.5457   -0.8723    0.0000 C   0  0  0  0  0  0  0  0  0  0  0  0
   -4.3836   -2.2855    0.0000 C   0  0  0  0  0  0  0  0  0  0  0  0
   -4.3836   -0.8723    0.0000 C   0  0  0  0  0  0  0  0  0  0  0  0
    2.0012   -1.5227    0.0000 C   0  0  0  0  0  0  0  0  0  0  0  0
   -1.8603   -2.2732    0.0000 C   0  0  0  0  0  0  0  0  0  0  0  0
   -1.8823   -0.9004    0.0000 C   0  0  0  0  0  0  0  0  0  0  0  0
    5.3467   -0.4627    0.0000 C   0  0  0  0  0  0  0  0  0  0  0  0
   -5.6594   -1.5914    0.0000 C   0  0  0  0  0  0  0  0  0  0  0  0
    3.6332   -1.8510    0.0000 Cl  0  0  0  0  0  0  0  0  0  0  0  0
    0.2563   -1.5790    0.0000 O   0  0  0  0  0  0  0  0  0  0  0  0
    4.9059    0.2189    0.0000 C   0  0  0  0  0  0  0  0  0  0  0  0
   -0.5940   -1.5665    0.0000 C   0  0  0  0  0  0  0  0  0  0  0  0
    0.6692   -0.8379    0.0000 C   0  0  0  0  0  0  0  0  0  0  0  0
   -1.0536   -0.9004    0.0000 C   0  0  0  0  0  0  0  0  0  0  0  0
   -1.0067   -2.2732    0.0000 C   0  0  0  0  0  0  0  0  0  0  0  0
    6.0721   -0.4971    0.0000 Cl  0  0  0  0  0  0  0  0  0  0  0  0
   -6.0596   -2.2855    0.0000 C   0  0  0  0  0  0  0  0  0  0  0  0
   -6.0721   -0.8879    0.0000 C   0  0  0  0  0  0  0  0  0  0  0  0
    4.0239    0.5842    0.0000 H   0  0  0  0  0  0  0  0  0  0  0  0
    3.3365    1.3589    0.0000 H   0  0  0  0  0  0  0  0  0  0  0  0
    1.9943    3.3173    0.0000 H   0  0  0  0  0  0  0  0  0  0  0  0
    0.9982    0.1227    0.0000 H   0  0  0  0  0  0  0  0  0  0  0  0
    3.5798    1.1531    0.0000 H   0  0  0  0  0  0  0  0  0  0  0  0
    5.2906   -2.0572    0.0000 H   0  0  0  0  0  0  0  0  0  0  0  0
    1.0005    0.1342    0.0000 H   0  0  0  0  0  0  0  0  0  0  0  0
   -3.0067   -3.2170    0.0000 H   0  0  0  0  0  0  0  0  0  0  0  0
   -4.0724   -3.2097    0.0000 H   0  0  0  0  0  0  0  0  0  0  0  0
   -3.0251    0.0625    0.0000 H   0  0  0  0  0  0  0  0  0  0  0  0
   -4.0879    0.0502    0.0000 H   0  0  0  0  0  0  0  0  0  0  0  0
   -4.9126   -3.2156    0.0000 H   0  0  0  0  0  0  0  0  0  0  0  0
   -5.4535   -2.2959    0.0000 H   0  0  0  0  0  0  0  0  0  0  0  0
   -4.9197    0.0537    0.0000 H   0  0  0  0  0  0  0  0  0  0  0  0
   -3.8492    0.0547    0.0000 H   0  0  0  0  0  0  0  0  0  0  0  0
    1.7129   -2.5531    0.0000 H   0  0  0  0  0  0  0  0  0  0  0  0
    0.9533   -1.7389    0.0000 H   0  0  0  0  0  0  0  0  0  0  0  0
   -2.3720   -3.1694    0.0000 H   0  0  0  0  0  0  0  0  0  0  0  0
   -2.4003   -0.0078    0.0000 H   0  0  0  0  0  0  0  0  0  0  0  0
   -6.7294   -1.5954    0.0000 H   0  0  0  0  0  0  0  0  0  0  0  0
    5.4126    1.1179    0.0000 H   0  0  0  0  0  0  0  0  0  0  0  0
    0.1271    0.0846    0.0000 H   0  0  0  0  0  0  0  0  0  0  0  0
    1.2007    0.0908    0.0000 H   0  0  0  0  0  0  0  0  0  0  0  0
   -0.5739    0.0133    0.0000 H   0  0  0  0  0  0  0  0  0  0  0  0
   -0.4929   -3.1682    0.0000 H   0  0  0  0  0  0  0  0  0  0  0  0
   -7.1296   -2.2861    0.0000 H   0  0  0  0  0  0  0  0  0  0  0  0
   -5.5241   -3.2118    0.0000 H   0  0  0  0  0  0  0  0  0  0  0  0
   -6.5941   -3.2125    0.0000 H   0  0  0  0  0  0  0  0  0  0  0  0
   -5.5435    0.0424    0.0000 H   0  0  0  0  0  0  0  0  0  0  0  0
   -7.1421   -0.8953    0.0000 H   0  0  0  0  0  0  0  0  0  0  0  0
   -6.6135    0.0350    0.0000 H   0  0  0  0  0  0  0  0  0  0  0  0
  1  2  1  0  0  0  0
  1  3  1  1  0  0  0
  3 37  1  0  0  0  0
  3 38  1  0  0  0  0
  4  1  1  0  0  0  0
  5  3  1  0  0  0  0
  6 13  2  0  0  0  0
  7  1  1  0  0  0  0
  8 16  1  0  0  0  0
  9  2  2  0  0  0  0
 10  5  1  0  0  0  0
 11 21  1  0  0  0  0
 12 10  2  0  0  0  0
 12  6  1  0  0  0  0
 12 39  1  0  0  0  0
 13  5  1  0  0  0  0
 13 40  1  0  0  0  0
 14  2  1  0  0  0  0
 14 41  1  0  0  0  0
 15  9  1  0  0  0  0
 15 42  1  0  0  0  0
 16 23  2  0  0  0  0
 17  4  1  0  0  0  0
 17 31  1  0  0  0  0
 17 43  1  6  0  0  0
 18  8  1  0  0  0  0
 18 44  1  0  0  0  0
 18 45  1  0  0  0  0
 19  8  1  0  0  0  0
 19 46  1  0  0  0  0
 19 47  1  0  0  0  0
 20 18  1  0  0  0  0
 20 11  1  0  0  0  0
 20 48  1  0  0  0  0
 20 49  1  0  0  0  0
 21 19  1  0  0  0  0
 21 50  1  0  0  0  0
 21 51  1  0  0  0  0
 22  7  1  0  0  0  0
 22 17  1  0  0  0  0
 22 52  1  0  0  0  0
 22 53  1  0  0  0  0
 23 33  1  0  0  0  0
 23 54  1  0  0  0  0
 24 32  2  0  0  0  0
 24 16  1  0  0  0  0
 24 55  1  0  0  0  0
 25 29  1  0  0  0  0
 25 15  2  0  0  0  0
 26 11  1  0  0  0  0
 26 56  1  0  0  0  0
 27  9  1  0  0  0  0
 28 31  1  0  0  0  0
 29 14  2  0  0  0  0
 29 57  1  0  0  0  0
 30 28  1  0  0  0  0
 31 58  1  0  0  0  0
 31 59  1  0  0  0  0
 32 30  1  0  0  0  0
 32 60  1  0  0  0  0
 33 30  2  0  0  0  0
 33 61  1  0  0  0  0
 34 25  1  0  0  0  0
 35 26  1  0  0  0  0
 35 62  1  0  0  0  0
 35 63  1  0  0  0  0
 35 64  1  0  0  0  0
 36 26  1  0  0  0  0
 36 65  1  0  0  0  0
 36 66  1  0  0  0  0
 36 67  1  0  0  0  0
M  END
>  <DRUGBANK_ID>
DB00251

>  <SECONDARY_ACCESSION_NUMBERS>
APRD00659

>  <COMMON_NAME>
Terconazole

>  <CAS_NUMBER>
67915-31-5

>  <UNII>
0KJ2VE664U

>  <SYNONYMS>
Terconazole

$$$$
