GK3
 OpenBabel10282417072D

 48 51  0  0  0  0  0  0  0  0999 V2000
    5.1601    1.6069    0.0000 N   0  0  0  0  0  0  0  0  0  0  0  0
    4.4457    2.0194    0.0000 C   0  0  0  0  0  0  0  0  0  0  0  0
    3.7312    2.4319    0.0000 C   0  0  0  0  0  0  0  0  0  0  0  0
    3.7312    3.2569    0.0000 C   0  0  0  0  0  0  0  0  0  0  0  0
    3.0167    3.6694    0.0000 C   0  0  0  0  0  0  0  0  0  0  0  0
    2.3023    3.2569    0.0000 C   0  0  0  0  0  0  0  0  0  0  0  0
    3.0167    2.0194    0.0000 C   0  0  0  0  0  0  0  0  0  0  0  0
    2.3023    2.4319    0.0000 C   0  0  0  0  0  0  0  0  0  0  0  0
    1.5878    2.0194    0.0000 N   0  0  0  0  0  0  0  0  0  0  0  0
    1.5878    1.1944    0.0000 C   0  0  0  0  0  0  0  0  0  0  0  0
    2.3023    0.7819    0.0000 O   0  0  0  0  0  0  0  0  0  0  0  0
    0.8733    0.7819    0.0000 C   0  0  0  0  0  0  0  0  0  0  0  0
    0.1588    1.1944    0.0000 C   0  0  0  0  0  0  0  0  0  0  0  0
    0.8733   -0.0431    0.0000 C   0  0  0  0  0  0  0  0  0  0  0  0
    0.1588   -0.4556    0.0000 C   0  0  0  0  0  0  0  0  0  0  0  0
   -0.5556   -0.0431    0.0000 C   0  0  0  0  0  0  0  0  0  0  0  0
   -0.5556    0.7819    0.0000 C   0  0  0  0  0  0  0  0  0  0  0  0
   -1.2701   -0.4556    0.0000 C   0  0  0  0  0  0  0  0  0  0  0  0
   -1.2701   -1.2806    0.0000 C   0  0  0  0  0  0  0  0  0  0  0  0
   -1.9846   -1.6931    0.0000 C   0  0  0  0  0  0  0  0  0  0  0  0
   -1.9846   -2.5181    0.0000 C   0  0  0  0  0  0  0  0  0  0  0  0
   -1.3171   -3.0030    0.0000 O   0  0  0  0  0  0  0  0  0  0  0  0
   -1.5721   -3.7876    0.0000 C   0  0  0  0  0  0  0  0  0  0  0  0
   -1.0871   -4.4551    0.0000 C   0  0  0  0  0  0  0  0  0  0  0  0
   -2.3971   -3.7876    0.0000 N   0  0  0  0  0  0  0  0  0  0  0  0
   -2.6520   -3.0030    0.0000 N   0  0  0  0  0  0  0  0  0  0  0  0
   -2.6990   -1.2806    0.0000 C   0  0  0  0  0  0  0  0  0  0  0  0
   -2.6990   -0.4556    0.0000 C   0  0  0  0  0  0  0  0  0  0  0  0
   -1.9846   -0.0431    0.0000 C   0  0  0  0  0  0  0  0  0  0  0  0
   -1.9846    0.7819    0.0000 C   0  0  0  0  0  0  0  0  0  0  0  0
    4.6249    3.7729    0.0000 H   0  0  0  0  0  0  0  0  0  0  0  0
    3.0167    4.7014    0.0000 H   0  0  0  0  0  0  0  0  0  0  0  0
    1.4086    3.7729    0.0000 H   0  0  0  0  0  0  0  0  0  0  0  0
    3.0167    0.9874    0.0000 H   0  0  0  0  0  0  0  0  0  0  0  0
    0.7352    2.5117    0.0000 H   0  0  0  0  0  0  0  0  0  0  0  0
    0.1588    2.2264    0.0000 H   0  0  0  0  0  0  0  0  0  0  0  0
    1.7670   -0.5591    0.0000 H   0  0  0  0  0  0  0  0  0  0  0  0
    0.1588   -1.4876    0.0000 H   0  0  0  0  0  0  0  0  0  0  0  0
   -1.4493    1.2979    0.0000 H   0  0  0  0  0  0  0  0  0  0  0  0
   -0.3764   -1.7966    0.0000 H   0  0  0  0  0  0  0  0  0  0  0  0
   -1.5223   -5.4326    0.0000 H   0  0  0  0  0  0  0  0  0  0  0  0
   -0.0230   -4.3432    0.0000 H   0  0  0  0  0  0  0  0  0  0  0  0
   -0.4581   -5.3207    0.0000 H   0  0  0  0  0  0  0  0  0  0  0  0
   -3.5927   -1.7966    0.0000 H   0  0  0  0  0  0  0  0  0  0  0  0
   -3.5927    0.0604    0.0000 H   0  0  0  0  0  0  0  0  0  0  0  0
   -1.0580    1.3169    0.0000 H   0  0  0  0  0  0  0  0  0  0  0  0
   -2.9112    1.3169    0.0000 H   0  0  0  0  0  0  0  0  0  0  0  0
   -1.9846    1.8519    0.0000 H   0  0  0  0  0  0  0  0  0  0  0  0
  1  2  3  0  0  0  0
  2  3  1  0  0  0  0
  3  7  1  0  0  0  0
  4  3  2  0  0  0  0
  4  5  1  0  0  0  0
  4 31  1  0  0  0  0
  5  6  2  0  0  0  0
  5 32  1  0  0  0  0
  6  8  1  0  0  0  0
  6 33  1  0  0  0  0
  7  8  2  0  0  0  0
  7 34  1  0  0  0  0
  8  9  1  0  0  0  0
  9 10  1  0  0  0  0
  9 35  1  0  0  0  0
 10 11  2  0  0  0  0
 10 12  1  0  0  0  0
 12 14  1  0  0  0  0
 13 12  2  0  0  0  0
 13 17  1  0  0  0  0
 13 36  1  0  0  0  0
 14 15  2  0  0  0  0
 14 37  1  0  0  0  0
 15 38  1  0  0  0  0
 16 18  1  0  0  0  0
 16 15  1  0  0  0  0
 17 16  2  0  0  0  0
 17 39  1  0  0  0  0
 18 19  2  0  0  0  0
 19 20  1  0  0  0  0
 19 40  1  0  0  0  0
 20 21  1  0  0  0  0
 21 22  1  0  0  0  0
 21 26  2  0  0  0  0
 22 23  1  0  0  0  0
 23 24  1  0  0  0  0
 23 25  2  0  0  0  0
 24 41  1  0  0  0  0
 24 42  1  0  0  0  0
 24 43  1  0  0  0  0
 26 25  1  0  0  0  0
 27 20  2  0  0  0  0
 27 44  1  0  0  0  0
 28 27  1  0  0  0  0
 28 45  1  0  0  0  0
 29 28  2  0  0  0  0
 29 18  1  0  0  0  0
 30 29  1  0  0  0  0
 30 46  1  0  0  0  0
 30 47  1  0  0  0  0
 30 48  1  0  0  0  0
M  END
>  <DRUGBANK_ID>
DB07833

>  <COMMON_NAME>
N-(3-cyanophenyl)-2'-methyl-5'-(5-methyl-1,3,4-oxadiazol-2-yl)-4-biphenylcarboxamide

$$$$
