Y11
 OpenBabel10282417072D

 64 66  0  0  0  0  0  0  0  0999 V2000
   -2.2642    0.2005    0.0000 C   0  0  0  0  0  0  0  0  0  0  0  0
   -1.5497   -1.0370    0.0000 C   0  0  0  0  0  0  0  0  0  0  0  0
   -1.5497   -1.8620    0.0000 C   0  0  0  0  0  0  0  0  0  0  0  0
   -2.9787   -1.8620    0.0000 C   0  0  0  0  0  0  0  0  0  0  0  0
   -2.9787   -1.0370    0.0000 C   0  0  0  0  0  0  0  0  0  0  0  0
   -2.9787    0.6130    0.0000 O   0  0  0  0  0  0  0  0  0  0  0  0
   -2.2642   -2.2745    0.0000 O   0  0  0  0  0  0  0  0  0  0  0  0
   -2.2642   -0.6245    0.0000 N   0  0  0  0  0  0  0  0  0  0  0  0
   -1.5497    0.6130    0.0000 N   0  0  0  0  0  0  0  0  0  0  0  0
   -0.8353    0.2005    0.0000 C   0  0  1  0  0  0  0  0  0  0  0  0
   -0.8353   -0.6245    0.0000 C   0  0  0  0  0  0  0  0  0  0  0  0
   -0.1208   -1.0370    0.0000 C   0  0  0  0  0  0  0  0  0  0  0  0
   -0.1208   -1.8620    0.0000 C   0  0  0  0  0  0  0  0  0  0  0  0
    0.5937   -2.2745    0.0000 C   0  0  0  0  0  0  0  0  0  0  0  0
    1.3081   -1.8620    0.0000 C   0  0  0  0  0  0  0  0  0  0  0  0
    1.3081   -1.0370    0.0000 C   0  0  0  0  0  0  0  0  0  0  0  0
    0.5937   -0.6245    0.0000 C   0  0  0  0  0  0  0  0  0  0  0  0
   -0.1208    0.6130    0.0000 C   0  0  0  0  0  0  0  0  0  0  0  0
   -0.1208    1.4380    0.0000 O   0  0  0  0  0  0  0  0  0  0  0  0
    0.5937    0.2005    0.0000 N   0  0  0  0  0  0  0  0  0  0  0  0
    0.7778    1.2450    0.0000 C   0  0  0  0  0  0  0  0  0  0  0  0
    1.0600    2.0202    0.0000 C   0  0  0  0  0  0  0  0  0  0  0  0
    2.4028    1.5315    0.0000 C   0  0  0  0  0  0  0  0  0  0  0  0
    2.1206    0.7563    0.0000 C   0  0  0  0  0  0  0  0  0  0  0  0
    1.8725    2.1635    0.0000 N   0  0  0  0  0  0  0  0  0  0  0  0
    2.1546    2.9388    0.0000 C   0  0  0  0  0  0  0  0  0  0  0  0
    1.5903   -0.1622    0.0000 C   0  0  0  0  0  0  0  0  0  0  0  0
    1.8725   -0.9375    0.0000 N   0  0  0  0  0  0  0  0  0  0  0  0
    1.3081    0.6130    0.0000 C   0  0  0  0  0  0  0  0  0  0  0  0
   -0.8353    0.7844    0.0000 H   0  0  0  0  0  0  0  0  0  0  0  0
   -0.6231   -0.5020    0.0000 H   0  0  0  0  0  0  0  0  0  0  0  0
   -1.5497    0.0330    0.0000 H   0  0  0  0  0  0  0  0  0  0  0  0
   -0.6231   -2.3970    0.0000 H   0  0  0  0  0  0  0  0  0  0  0  0
   -1.5497   -2.9320    0.0000 H   0  0  0  0  0  0  0  0  0  0  0  0
   -3.9053   -2.3970    0.0000 H   0  0  0  0  0  0  0  0  0  0  0  0
   -3.9053   -1.3270    0.0000 H   0  0  0  0  0  0  0  0  0  0  0  0
   -3.9053   -0.5020    0.0000 H   0  0  0  0  0  0  0  0  0  0  0  0
   -3.9053   -1.5720    0.0000 H   0  0  0  0  0  0  0  0  0  0  0  0
   -1.5497    1.5975    0.0000 H   0  0  0  0  0  0  0  0  0  0  0  0
   -1.7619   -1.1595    0.0000 H   0  0  0  0  0  0  0  0  0  0  0  0
   -0.8353   -1.6945    0.0000 H   0  0  0  0  0  0  0  0  0  0  0  0
    0.8058   -1.5720    0.0000 H   0  0  0  0  0  0  0  0  0  0  0  0
   -1.0474   -2.3970    0.0000 H   0  0  0  0  0  0  0  0  0  0  0  0
   -0.1208   -2.9320    0.0000 H   0  0  0  0  0  0  0  0  0  0  0  0
    0.5937   -3.3445    0.0000 H   0  0  0  0  0  0  0  0  0  0  0  0
    1.5204   -2.8095    0.0000 H   0  0  0  0  0  0  0  0  0  0  0  0
    2.2348   -2.3970    0.0000 H   0  0  0  0  0  0  0  0  0  0  0  0
    2.2347   -1.3270    0.0000 H   0  0  0  0  0  0  0  0  0  0  0  0
    2.2348   -0.5020    0.0000 H   0  0  0  0  0  0  0  0  0  0  0  0
    1.3081    0.0330    0.0000 H   0  0  0  0  0  0  0  0  0  0  0  0
    0.5937    0.4455    0.0000 H   0  0  0  0  0  0  0  0  0  0  0  0
   -0.3329   -0.0895    0.0000 H   0  0  0  0  0  0  0  0  0  0  0  0
    0.5937   -0.7840    0.0000 H   0  0  0  0  0  0  0  0  0  0  0  0
   -0.2760    1.0592    0.0000 H   0  0  0  0  0  0  0  0  0  0  0  0
    0.4118    0.2395    0.0000 H   0  0  0  0  0  0  0  0  0  0  0  0
    0.3722    2.8399    0.0000 H   0  0  0  0  0  0  0  0  0  0  0  0
    1.4259    3.0257    0.0000 H   0  0  0  0  0  0  0  0  0  0  0  0
    3.4566    1.7173    0.0000 H   0  0  0  0  0  0  0  0  0  0  0  0
    3.0905    0.7118    0.0000 H   0  0  0  0  0  0  0  0  0  0  0  0
    2.8084   -0.0634    0.0000 H   0  0  0  0  0  0  0  0  0  0  0  0
    3.1744    0.9421    0.0000 H   0  0  0  0  0  0  0  0  0  0  0  0
    3.2083    3.1247    0.0000 H   0  0  0  0  0  0  0  0  0  0  0  0
    1.4667    3.7584    0.0000 H   0  0  0  0  0  0  0  0  0  0  0  0
    2.5205    3.9443    0.0000 H   0  0  0  0  0  0  0  0  0  0  0  0
  1  6  2  0  0  0  0
  1  8  1  0  0  0  0
  2  3  1  0  0  0  0
  2 31  1  0  0  0  0
  2 32  1  0  0  0  0
  3 33  1  0  0  0  0
  3 34  1  0  0  0  0
  4  7  1  0  0  0  0
  4 35  1  0  0  0  0
  4 36  1  0  0  0  0
  5  8  1  0  0  0  0
  5  4  1  0  0  0  0
  5 37  1  0  0  0  0
  5 38  1  0  0  0  0
  7  3  1  0  0  0  0
  8  2  1  0  0  0  0
  9  1  1  0  0  0  0
  9 39  1  0  0  0  0
 10 18  1  0  0  0  0
 10  9  1  0  0  0  0
 10 30  1  1  0  0  0
 11 10  1  0  0  0  0
 11 40  1  0  0  0  0
 11 41  1  0  0  0  0
 12 11  1  0  0  0  0
 12 42  1  0  0  0  0
 13 12  1  0  0  0  0
 13 43  1  0  0  0  0
 13 44  1  0  0  0  0
 14 13  1  0  0  0  0
 14 45  1  0  0  0  0
 14 46  1  0  0  0  0
 15 14  1  0  0  0  0
 15 16  1  0  0  0  0
 15 47  1  0  0  0  0
 15 48  1  0  0  0  0
 16 17  1  0  0  0  0
 16 49  1  0  0  0  0
 16 50  1  0  0  0  0
 17 12  1  0  0  0  0
 17 51  1  0  0  0  0
 17 52  1  0  0  0  0
 18 19  2  0  0  0  0
 20 18  1  0  0  0  0
 20 29  1  0  0  0  0
 20 53  1  0  0  0  0
 21 22  1  0  0  0  0
 21 54  1  0  0  0  0
 21 55  1  0  0  0  0
 22 56  1  0  0  0  0
 22 57  1  0  0  0  0
 23 25  1  0  0  0  0
 23 58  1  0  0  0  0
 23 59  1  0  0  0  0
 24 29  1  0  0  0  0
 24 23  1  0  0  0  0
 24 60  1  0  0  0  0
 24 61  1  0  0  0  0
 25 22  1  0  0  0  0
 25 26  1  0  0  0  0
 26 62  1  0  0  0  0
 26 63  1  0  0  0  0
 26 64  1  0  0  0  0
 27 28  3  0  0  0  0
 27 29  1  0  0  0  0
 29 21  1  0  0  0  0
M  END
>  <DRUGBANK_ID>
DB08752

>  <COMMON_NAME>
N-[(1S)-2-[(4-cyano-1-methylpiperidin-4-yl)amino]-1-(cyclohexylmethyl)-2-oxoethyl]morpholine-4-carboxamide

$$$$
