
 OpenBabel10282417072D

 66 66  0  0  0  0  0  0  0  0999 V2000
    5.7158   -9.0750    0.0000 C   0  0  0  0  0  0  0  0  0  0  0  0
    6.4302   -9.4875    0.0000 C   0  0  0  0  0  0  0  0  0  0  0  0
    7.1447   -9.0750    0.0000 C   0  0  0  0  0  0  0  0  0  0  0  0
    7.8592   -9.4875    0.0000 C   0  0  0  0  0  0  0  0  0  0  0  0
    8.5737   -9.0750    0.0000 C   0  0  0  0  0  0  0  0  0  0  0  0
    9.2881   -9.4875    0.0000 C   0  0  0  0  0  0  0  0  0  0  0  0
   10.0026   -9.0750    0.0000 C   0  0  0  0  0  0  0  0  0  0  0  0
   10.7171   -9.4875    0.0000 C   0  0  0  0  0  0  0  0  0  0  0  0
   11.4315   -9.0750    0.0000 C   0  0  0  0  0  0  0  0  0  0  0  0
   12.1460   -9.4875    0.0000 C   0  0  0  0  0  0  0  0  0  0  0  0
   12.8605   -9.0750    0.0000 C   0  0  0  0  0  0  0  0  0  0  0  0
   13.5749   -9.4875    0.0000 C   0  0  0  0  0  0  0  0  0  0  0  0
   14.2894   -9.0750    0.0000 C   0  0  0  0  0  0  0  0  0  0  0  0
   15.0039   -9.4875    0.0000 C   0  0  0  0  0  0  0  0  0  0  0  0
   15.7184   -9.0750    0.0000 N   0  3  0  0  0  0  0  0  0  0  0  0
   16.1309   -9.7895    0.0000 C   0  0  0  0  0  0  0  0  0  0  0  0
   15.3059   -8.3605    0.0000 C   0  0  0  0  0  0  0  0  0  0  0  0
   16.4328   -8.6625    0.0000 C   0  0  0  0  0  0  0  0  0  0  0  0
   17.1473   -9.0750    0.0000 C   0  0  0  0  0  0  0  0  0  0  0  0
   17.8618   -8.6625    0.0000 C   0  0  0  0  0  0  0  0  0  0  0  0
   18.5762   -9.0750    0.0000 C   0  0  0  0  0  0  0  0  0  0  0  0
   18.5762   -9.9000    0.0000 C   0  0  0  0  0  0  0  0  0  0  0  0
   17.8618  -10.3125    0.0000 C   0  0  0  0  0  0  0  0  0  0  0  0
   17.1473   -9.9000    0.0000 C   0  0  0  0  0  0  0  0  0  0  0  0
    5.7158   -8.0050    0.0000 H   0  0  0  0  0  0  0  0  0  0  0  0
    4.7891   -9.6100    0.0000 H   0  0  0  0  0  0  0  0  0  0  0  0
    4.7892   -8.5400    0.0000 H   0  0  0  0  0  0  0  0  0  0  0  0
    6.4302  -10.5575    0.0000 H   0  0  0  0  0  0  0  0  0  0  0  0
    7.3568  -10.0225    0.0000 H   0  0  0  0  0  0  0  0  0  0  0  0
    7.1447   -8.0050    0.0000 H   0  0  0  0  0  0  0  0  0  0  0  0
    8.0713   -8.5400    0.0000 H   0  0  0  0  0  0  0  0  0  0  0  0
    7.8592  -10.5575    0.0000 H   0  0  0  0  0  0  0  0  0  0  0  0
    8.7858  -10.0225    0.0000 H   0  0  0  0  0  0  0  0  0  0  0  0
    8.5737   -8.0050    0.0000 H   0  0  0  0  0  0  0  0  0  0  0  0
    9.5004   -8.5400    0.0000 H   0  0  0  0  0  0  0  0  0  0  0  0
    9.2881  -10.5575    0.0000 H   0  0  0  0  0  0  0  0  0  0  0  0
   10.2147  -10.0225    0.0000 H   0  0  0  0  0  0  0  0  0  0  0  0
   10.0026   -8.0050    0.0000 H   0  0  0  0  0  0  0  0  0  0  0  0
   10.9292   -8.5400    0.0000 H   0  0  0  0  0  0  0  0  0  0  0  0
   10.7171  -10.5575    0.0000 H   0  0  0  0  0  0  0  0  0  0  0  0
   11.6438  -10.0225    0.0000 H   0  0  0  0  0  0  0  0  0  0  0  0
   11.4315   -8.0050    0.0000 H   0  0  0  0  0  0  0  0  0  0  0  0
   12.3581   -8.5400    0.0000 H   0  0  0  0  0  0  0  0  0  0  0  0
   12.1460  -10.5575    0.0000 H   0  0  0  0  0  0  0  0  0  0  0  0
   13.0726  -10.0225    0.0000 H   0  0  0  0  0  0  0  0  0  0  0  0
   12.8605   -8.0050    0.0000 H   0  0  0  0  0  0  0  0  0  0  0  0
   13.7872   -8.5400    0.0000 H   0  0  0  0  0  0  0  0  0  0  0  0
   13.5749  -10.5575    0.0000 H   0  0  0  0  0  0  0  0  0  0  0  0
   14.5015  -10.0225    0.0000 H   0  0  0  0  0  0  0  0  0  0  0  0
   14.2894   -8.0050    0.0000 H   0  0  0  0  0  0  0  0  0  0  0  0
   15.2160   -8.5400    0.0000 H   0  0  0  0  0  0  0  0  0  0  0  0
   15.0039  -10.5575    0.0000 H   0  0  0  0  0  0  0  0  0  0  0  0
   15.9305  -10.0225    0.0000 H   0  0  0  0  0  0  0  0  0  0  0  0
   15.5959  -10.7161    0.0000 H   0  0  0  0  0  0  0  0  0  0  0  0
   17.2009   -9.7895    0.0000 H   0  0  0  0  0  0  0  0  0  0  0  0
   16.6659  -10.7162    0.0000 H   0  0  0  0  0  0  0  0  0  0  0  0
   15.8409   -7.4339    0.0000 H   0  0  0  0  0  0  0  0  0  0  0  0
   14.2359   -8.3605    0.0000 H   0  0  0  0  0  0  0  0  0  0  0  0
   14.7709   -7.4338    0.0000 H   0  0  0  0  0  0  0  0  0  0  0  0
   16.4328   -7.5925    0.0000 H   0  0  0  0  0  0  0  0  0  0  0  0
   17.3594   -8.1275    0.0000 H   0  0  0  0  0  0  0  0  0  0  0  0
   17.8618   -7.6305    0.0000 H   0  0  0  0  0  0  0  0  0  0  0  0
   19.4699   -8.5590    0.0000 H   0  0  0  0  0  0  0  0  0  0  0  0
   19.4699  -10.4160    0.0000 H   0  0  0  0  0  0  0  0  0  0  0  0
   17.8618  -11.3445    0.0000 H   0  0  0  0  0  0  0  0  0  0  0  0
   16.2536  -10.4160    0.0000 H   0  0  0  0  0  0  0  0  0  0  0  0
  1  2  1  0  0  0  0
  1 25  1  0  0  0  0
  1 26  1  0  0  0  0
  1 27  1  0  0  0  0
  2  3  1  0  0  0  0
  2 28  1  0  0  0  0
  2 29  1  0  0  0  0
  3  4  1  0  0  0  0
  3 30  1  0  0  0  0
  3 31  1  0  0  0  0
  4  5  1  0  0  0  0
  4 32  1  0  0  0  0
  4 33  1  0  0  0  0
  5  6  1  0  0  0  0
  5 34  1  0  0  0  0
  5 35  1  0  0  0  0
  6  7  1  0  0  0  0
  6 36  1  0  0  0  0
  6 37  1  0  0  0  0
  7  8  1  0  0  0  0
  7 38  1  0  0  0  0
  7 39  1  0  0  0  0
  8  9  1  0  0  0  0
  8 40  1  0  0  0  0
  8 41  1  0  0  0  0
  9 10  1  0  0  0  0
  9 42  1  0  0  0  0
  9 43  1  0  0  0  0
 10 11  1  0  0  0  0
 10 44  1  0  0  0  0
 10 45  1  0  0  0  0
 11 12  1  0  0  0  0
 11 46  1  0  0  0  0
 11 47  1  0  0  0  0
 12 13  1  0  0  0  0
 12 48  1  0  0  0  0
 12 49  1  0  0  0  0
 13 14  1  0  0  0  0
 13 50  1  0  0  0  0
 13 51  1  0  0  0  0
 14 15  1  0  0  0  0
 14 52  1  0  0  0  0
 14 53  1  0  0  0  0
 15 16  1  0  0  0  0
 15 17  1  0  0  0  0
 15 18  1  0  0  0  0
 16 54  1  0  0  0  0
 16 55  1  0  0  0  0
 16 56  1  0  0  0  0
 17 57  1  0  0  0  0
 17 58  1  0  0  0  0
 17 59  1  0  0  0  0
 18 19  1  0  0  0  0
 18 60  1  0  0  0  0
 18 61  1  0  0  0  0
 19 20  2  0  0  0  0
 19 24  1  0  0  0  0
 20 21  1  0  0  0  0
 20 62  1  0  0  0  0
 21 22  2  0  0  0  0
 21 63  1  0  0  0  0
 22 23  1  0  0  0  0
 22 64  1  0  0  0  0
 23 24  2  0  0  0  0
 23 65  1  0  0  0  0
 24 66  1  0  0  0  0
M  CHG  1  15   1
M  END
>  <DRUGBANK_ID>
DB13774

>  <COMMON_NAME>
Myristalkonium

>  <CAS_NUMBER>
16287-71-1

>  <UNII>
I5M8YK41GK

>  <SYNONYMS>
Miristalkonium; Myristalkonium cation; Myristalkonium ion; Myristyl-benzalkonium; Tetradecylbenzyldimethylammonium; Zephiramine cation; Zephiramine ion

$$$$
