
 OpenBabel10282417072D

 52 54  0  0  0  0  0  0  0  0999 V2000
    2.3094    0.5175    0.0000 C   0  0  0  0  0  0  0  0  0  0  0  0
    2.1661   -0.2949    0.0000 N   0  0  0  0  0  0  0  0  0  0  0  0
    2.7982   -0.8253    0.0000 C   0  0  0  0  0  0  0  0  0  0  0  0
    3.5734   -0.5431    0.0000 C   0  0  0  0  0  0  0  0  0  0  0  0
    3.7167    0.2693    0.0000 C   0  0  0  0  0  0  0  0  0  0  0  0
    3.0847    0.7996    0.0000 C   0  0  0  0  0  0  0  0  0  0  0  0
   -1.1805    1.8728    0.0000 C   0  0  0  0  0  0  0  0  0  0  0  0
   -1.1805    1.0478    0.0000 C   0  0  0  0  0  0  0  0  0  0  0  0
   -0.4660    0.6353    0.0000 C   0  0  0  0  0  0  0  0  0  0  0  0
    0.2484    1.0478    0.0000 C   0  0  0  0  0  0  0  0  0  0  0  0
    0.2484    1.8728    0.0000 N   0  0  0  0  0  0  0  0  0  0  0  0
   -0.4660    2.2853    0.0000 S   0  0  0  0  0  0  0  0  0  0  0  0
   -2.6095    1.8728    0.0000 C   0  0  0  0  0  0  0  0  0  0  0  0
   -2.6095    1.0478    0.0000 C   0  0  0  0  0  0  0  0  0  0  0  0
   -1.8950    0.6353    0.0000 C   0  0  0  0  0  0  0  0  0  0  0  0
   -1.8950    2.2853    0.0000 C   0  0  0  0  0  0  0  0  0  0  0  0
   -0.9963    2.9173    0.0000 O   0  0  0  0  0  0  0  0  0  0  0  0
    0.0642    2.9174    0.0000 O   0  0  0  0  0  0  0  0  0  0  0  0
    0.9629    2.2853    0.0000 C   0  0  0  0  0  0  0  0  0  0  0  0
    0.9629    0.6353    0.0000 C   0  0  0  0  0  0  0  0  0  0  0  0
    1.6774    1.0478    0.0000 N   0  0  0  0  0  0  0  0  0  0  0  0
    0.9629   -0.1897    0.0000 O   0  0  0  0  0  0  0  0  0  0  0  0
   -0.4660   -0.1897    0.0000 O   0  0  0  0  0  0  0  0  0  0  0  0
   -1.2412   -0.4719    0.0000 C   0  0  3  0  0  0  0  0  0  0  0  0
   -1.3845   -1.2844    0.0000 O   0  0  0  0  0  0  0  0  0  0  0  0
   -2.1970   -1.4276    0.0000 C   0  0  0  0  0  0  0  0  0  0  0  0
   -2.4792   -2.2029    0.0000 O   0  0  0  0  0  0  0  0  0  0  0  0
   -3.3042   -2.2029    0.0000 C   0  0  0  0  0  0  0  0  0  0  0  0
   -3.7167   -2.9174    0.0000 C   0  0  0  0  0  0  0  0  0  0  0  0
   -2.7273   -0.7956    0.0000 O   0  0  0  0  0  0  0  0  0  0  0  0
   -1.6837   -0.1006    0.0000 C   0  0  0  0  0  0  0  0  0  0  0  0
    2.6190   -1.8416    0.0000 H   0  0  0  0  0  0  0  0  0  0  0  0
    4.3640   -1.2065    0.0000 H   0  0  0  0  0  0  0  0  0  0  0  0
    4.6865    0.6222    0.0000 H   0  0  0  0  0  0  0  0  0  0  0  0
    3.2639    1.8159    0.0000 H   0  0  0  0  0  0  0  0  0  0  0  0
   -3.5032    2.3888    0.0000 H   0  0  0  0  0  0  0  0  0  0  0  0
   -3.5032    0.5318    0.0000 H   0  0  0  0  0  0  0  0  0  0  0  0
   -1.8950   -0.3967    0.0000 H   0  0  0  0  0  0  0  0  0  0  0  0
   -1.8950    3.3173    0.0000 H   0  0  0  0  0  0  0  0  0  0  0  0
    1.8895    1.7503    0.0000 H   0  0  0  0  0  0  0  0  0  0  0  0
    0.9629    3.3553    0.0000 H   0  0  0  0  0  0  0  0  0  0  0  0
    1.8896    2.8203    0.0000 H   0  0  0  0  0  0  0  0  0  0  0  0
    1.7632    2.0286    0.0000 H   0  0  0  0  0  0  0  0  0  0  0  0
   -0.4215   -1.1597    0.0000 H   0  0  0  0  0  0  0  0  0  0  0  0
   -3.8392   -1.2763    0.0000 H   0  0  0  0  0  0  0  0  0  0  0  0
   -4.3742   -2.2029    0.0000 H   0  0  0  0  0  0  0  0  0  0  0  0
   -4.7867   -2.9174    0.0000 H   0  0  0  0  0  0  0  0  0  0  0  0
   -3.1817   -3.8440    0.0000 H   0  0  0  0  0  0  0  0  0  0  0  0
   -4.2517   -3.8441    0.0000 H   0  0  0  0  0  0  0  0  0  0  0  0
   -1.4979    0.9531    0.0000 H   0  0  0  0  0  0  0  0  0  0  0  0
   -2.6892   -0.4666    0.0000 H   0  0  0  0  0  0  0  0  0  0  0  0
   -2.5034    0.5872    0.0000 H   0  0  0  0  0  0  0  0  0  0  0  0
  1  2  2  0  0  0  0
  2  3  1  0  0  0  0
  3  4  2  0  0  0  0
  3 32  1  0  0  0  0
  4  5  1  0  0  0  0
  4 33  1  0  0  0  0
  5  6  2  0  0  0  0
  5 34  1  0  0  0  0
  6  1  1  0  0  0  0
  6 35  1  0  0  0  0
  7 16  2  0  0  0  0
  7 12  1  0  0  0  0
  7  8  1  0  0  0  0
  8  9  1  0  0  0  0
  9 10  2  0  0  0  0
  9 23  1  0  0  0  0
 10 20  1  0  0  0  0
 10 11  1  0  0  0  0
 11 19  1  0  0  0  0
 11 12  1  0  0  0  0
 12 17  2  0  0  0  0
 12 18  2  0  0  0  0
 13 14  2  0  0  0  0
 13 36  1  0  0  0  0
 14 15  1  0  0  0  0
 14 37  1  0  0  0  0
 15  8  2  0  0  0  0
 15 38  1  0  0  0  0
 16 13  1  0  0  0  0
 16 39  1  0  0  0  0
 19 40  1  0  0  0  0
 19 41  1  0  0  0  0
 19 42  1  0  0  0  0
 20 21  1  0  0  0  0
 20 22  2  0  0  0  0
 21  1  1  0  0  0  0
 21 43  1  0  0  0  0
 23 24  1  0  0  0  0
 24 25  1  0  0  0  0
 24 31  1  0  0  0  0
 24 44  1  0  0  0  0
 25 26  1  0  0  0  0
 26 27  1  0  0  0  0
 26 30  2  0  0  0  0
 27 28  1  0  0  0  0
 28 29  1  0  0  0  0
 28 45  1  0  0  0  0
 28 46  1  0  0  0  0
 29 47  1  0  0  0  0
 29 48  1  0  0  0  0
 29 49  1  0  0  0  0
 31 50  1  0  0  0  0
 31 51  1  0  0  0  0
 31 52  1  0  0  0  0
M  END
>  <DRUGBANK_ID>
DB16877

>  <COMMON_NAME>
Ampiroxicam

>  <CAS_NUMBER>
99464-64-9

>  <UNII>
0PV32JZB1J

>  <SYNONYMS>
Ampiroxicam

$$$$
