
 OpenBabel10282417072D

 66 70  0  0  0  0  0  0  0  0999 V2000
    3.9934    5.7750    0.0000 C   0  0  0  0  0  0  0  0  0  0  0  0
    3.2789    6.1875    0.0000 C   0  0  0  0  0  0  0  0  0  0  0  0
    3.2789    7.0125    0.0000 C   0  0  0  0  0  0  0  0  0  0  0  0
    2.5645    5.7750    0.0000 O   0  0  0  0  0  0  0  0  0  0  0  0
    1.8500    6.1875    0.0000 C   0  0  0  0  0  0  0  0  0  0  0  0
    1.8500    7.0125    0.0000 C   0  0  0  0  0  0  0  0  0  0  0  0
    1.1355    7.4250    0.0000 C   0  0  0  0  0  0  0  0  0  0  0  0
    0.4210    7.0125    0.0000 C   0  0  0  0  0  0  0  0  0  0  0  0
    0.4210    6.1875    0.0000 C   0  0  0  0  0  0  0  0  0  0  0  0
    1.1355    5.7750    0.0000 C   0  0  0  0  0  0  0  0  0  0  0  0
    1.1355    4.9500    0.0000 C   0  0  0  0  0  0  0  0  0  0  0  0
    0.4210    4.5375    0.0000 N   0  0  0  0  0  0  0  0  0  0  0  0
   -0.2934    4.9500    0.0000 C   0  0  0  0  0  0  0  0  0  0  0  0
   -0.2934    5.7750    0.0000 N   0  0  0  0  0  0  0  0  0  0  0  0
    1.8500    4.5375    0.0000 N   0  0  0  0  0  0  0  0  0  0  0  0
    1.8500    3.7125    0.0000 C   0  0  0  0  0  0  0  0  0  0  0  0
    2.5645    3.3000    0.0000 C   0  0  0  0  0  0  0  0  0  0  0  0
    2.5645    2.4750    0.0000 C   0  0  0  0  0  0  0  0  0  0  0  0
    1.8500    2.0625    0.0000 N   0  0  0  0  0  0  0  0  0  0  0  0
    1.1355    2.4750    0.0000 C   0  0  0  0  0  0  0  0  0  0  0  0
    1.1355    3.3000    0.0000 C   0  0  0  0  0  0  0  0  0  0  0  0
    0.3509    3.5549    0.0000 O   0  0  0  0  0  0  0  0  0  0  0  0
   -0.1340    2.8875    0.0000 C   0  0  0  0  0  0  0  0  0  0  0  0
    0.3509    2.2201    0.0000 O   0  0  0  0  0  0  0  0  0  0  0  0
    3.2789    3.7125    0.0000 Cl  0  0  0  0  0  0  0  0  0  0  0  0
    1.1355    8.2500    0.0000 O   0  0  0  0  0  0  0  0  0  0  0  0
    1.8500    8.6625    0.0000 C   0  0  0  0  0  0  0  0  0  0  0  0
    1.8500    9.4875    0.0000 C   0  0  0  0  0  0  0  0  0  0  0  0
    2.5645    9.9000    0.0000 N   0  0  0  0  0  0  0  0  0  0  0  0
    2.5645   10.7250    0.0000 C   0  0  0  0  0  0  0  0  0  0  0  0
    3.2789   11.1375    0.0000 C   0  0  0  0  0  0  0  0  0  0  0  0
    3.9934   10.7250    0.0000 N   0  0  0  0  0  0  0  0  0  0  0  0
    3.9934    9.9000    0.0000 C   0  0  0  0  0  0  0  0  0  0  0  0
    3.2789    9.4875    0.0000 C   0  0  0  0  0  0  0  0  0  0  0  0
    4.7079   11.1375    0.0000 C   0  0  0  0  0  0  0  0  0  0  0  0
    4.7079   11.9625    0.0000 O   0  0  0  0  0  0  0  0  0  0  0  0
    5.4223   10.7250    0.0000 C   0  0  0  0  0  0  0  0  0  0  0  0
    3.9934    4.7050    0.0000 H   0  0  0  0  0  0  0  0  0  0  0  0
    4.9200    6.3100    0.0000 H   0  0  0  0  0  0  0  0  0  0  0  0
    4.9201    5.2400    0.0000 H   0  0  0  0  0  0  0  0  0  0  0  0
    2.3522    6.7225    0.0000 H   0  0  0  0  0  0  0  0  0  0  0  0
    4.2055    7.5475    0.0000 H   0  0  0  0  0  0  0  0  0  0  0  0
    2.3523    7.5475    0.0000 H   0  0  0  0  0  0  0  0  0  0  0  0
    3.2789    8.0825    0.0000 H   0  0  0  0  0  0  0  0  0  0  0  0
    2.7437    7.5285    0.0000 H   0  0  0  0  0  0  0  0  0  0  0  0
   -0.4727    7.5285    0.0000 H   0  0  0  0  0  0  0  0  0  0  0  0
   -1.1871    4.4340    0.0000 H   0  0  0  0  0  0  0  0  0  0  0  0
    2.7026    5.0298    0.0000 H   0  0  0  0  0  0  0  0  0  0  0  0
    3.4582    1.9590    0.0000 H   0  0  0  0  0  0  0  0  0  0  0  0
   -1.2040    2.8875    0.0000 H   0  0  0  0  0  0  0  0  0  0  0  0
   -0.6198    1.9341    0.0000 H   0  0  0  0  0  0  0  0  0  0  0  0
    2.7766    8.1275    0.0000 H   0  0  0  0  0  0  0  0  0  0  0  0
    2.7766    9.1975    0.0000 H   0  0  0  0  0  0  0  0  0  0  0  0
    0.9234   10.0225    0.0000 H   0  0  0  0  0  0  0  0  0  0  0  0
    1.8500   10.5575    0.0000 H   0  0  0  0  0  0  0  0  0  0  0  0
    1.6378   11.2600    0.0000 H   0  0  0  0  0  0  0  0  0  0  0  0
    2.5645   11.7950    0.0000 H   0  0  0  0  0  0  0  0  0  0  0  0
    3.2789   12.2075    0.0000 H   0  0  0  0  0  0  0  0  0  0  0  0
    4.2055   11.6725    0.0000 H   0  0  0  0  0  0  0  0  0  0  0  0
    4.9200    9.3650    0.0000 H   0  0  0  0  0  0  0  0  0  0  0  0
    3.9934    8.8300    0.0000 H   0  0  0  0  0  0  0  0  0  0  0  0
    3.2789    8.4175    0.0000 H   0  0  0  0  0  0  0  0  0  0  0  0
    2.3522    8.9525    0.0000 H   0  0  0  0  0  0  0  0  0  0  0  0
    5.4223    9.6550    0.0000 H   0  0  0  0  0  0  0  0  0  0  0  0
    6.3490   11.2600    0.0000 H   0  0  0  0  0  0  0  0  0  0  0  0
    6.3489   10.1900    0.0000 H   0  0  0  0  0  0  0  0  0  0  0  0
  1  2  1  0  0  0  0
  1 38  1  0  0  0  0
  1 39  1  0  0  0  0
  1 40  1  0  0  0  0
  2  3  1  0  0  0  0
  2  4  1  0  0  0  0
  2 41  1  0  0  0  0
  3 42  1  0  0  0  0
  3 43  1  0  0  0  0
  3 44  1  0  0  0  0
  4  5  1  0  0  0  0
  5  6  1  0  0  0  0
  5 10  2  0  0  0  0
  6  7  2  0  0  0  0
  6 45  1  0  0  0  0
  7  8  1  0  0  0  0
  7 26  1  0  0  0  0
  8  9  2  0  0  0  0
  8 46  1  0  0  0  0
  9 10  1  0  0  0  0
  9 14  1  0  0  0  0
 10 11  1  0  0  0  0
 11 12  2  0  0  0  0
 11 15  1  0  0  0  0
 12 13  1  0  0  0  0
 13 14  2  0  0  0  0
 13 47  1  0  0  0  0
 15 16  1  0  0  0  0
 15 48  1  0  0  0  0
 16 17  2  0  0  0  0
 16 21  1  0  0  0  0
 17 18  1  0  0  0  0
 17 25  1  0  0  0  0
 18 19  2  0  0  0  0
 18 49  1  0  0  0  0
 19 20  1  0  0  0  0
 20 21  2  0  0  0  0
 20 24  1  0  0  0  0
 21 22  1  0  0  0  0
 22 23  1  0  0  0  0
 23 24  1  0  0  0  0
 23 50  1  0  0  0  0
 23 51  1  0  0  0  0
 26 27  1  0  0  0  0
 27 28  1  0  0  0  0
 27 52  1  0  0  0  0
 27 53  1  0  0  0  0
 28 29  1  0  0  0  0
 28 54  1  0  0  0  0
 28 55  1  0  0  0  0
 29 30  1  0  0  0  0
 29 34  1  0  0  0  0
 30 31  1  0  0  0  0
 30 56  1  0  0  0  0
 30 57  1  0  0  0  0
 31 32  1  0  0  0  0
 31 58  1  0  0  0  0
 31 59  1  0  0  0  0
 32 33  1  0  0  0  0
 32 35  1  0  0  0  0
 33 34  1  0  0  0  0
 33 60  1  0  0  0  0
 33 61  1  0  0  0  0
 34 62  1  0  0  0  0
 34 63  1  0  0  0  0
 35 36  2  0  0  0  0
 35 37  1  0  0  0  0
 37 64  1  0  0  0  0
 37 65  1  0  0  0  0
 37 66  1  0  0  0  0
M  END
>  <DRUGBANK_ID>
DB13088

>  <COMMON_NAME>
AZD-0424

>  <CAS_NUMBER>
692054-06-1

>  <UNII>
642PS51324

$$$$
