
 OpenBabel10282417072D

 36 39  0  0  0  0  0  0  0  0999 V2000
   -0.0041    0.0291    0.0000 C   0  0  3  0  0  0  0  0  0  0  0  0
    0.8209    0.0291    0.0000 C   0  0  3  0  0  0  0  0  0  0  0  0
   -0.5209    0.6750    0.0000 C   0  0  0  0  0  0  0  0  0  0  0  0
    0.4083    1.8376    0.0000 O   0  0  0  0  0  0  0  0  0  0  0  0
   -0.3333    1.4793    0.0000 C   0  0  0  0  0  0  0  0  0  0  0  0
    1.3335    0.6750    0.0000 C   0  0  0  0  0  0  0  0  0  0  0  0
    1.1459    1.4793    0.0000 C   0  0  0  0  0  0  0  0  0  0  0  0
    0.4083   -1.2377    0.0000 N   0  0  0  0  0  0  0  0  0  0  0  0
   -0.2583   -0.7501    0.0000 C   0  0  0  0  0  0  0  0  0  0  0  0
    1.0709   -0.7501    0.0000 C   0  0  0  0  0  0  0  0  0  0  0  0
   -1.3460    0.4750    0.0000 C   0  0  0  0  0  0  0  0  0  0  0  0
   -0.9209    2.0628    0.0000 C   0  0  0  0  0  0  0  0  0  0  0  0
   -1.9293    1.0542    0.0000 C   0  0  0  0  0  0  0  0  0  0  0  0
   -1.7168    1.8501    0.0000 C   0  0  0  0  0  0  0  0  0  0  0  0
   -2.7294    0.8417    0.0000 Cl  0  0  0  0  0  0  0  0  0  0  0  0
    0.4083   -2.0628    0.0000 C   0  0  0  0  0  0  0  0  0  0  0  0
    2.1211    0.4375    0.0000 C   0  0  0  0  0  0  0  0  0  0  0  0
    1.7543    2.0418    0.0000 C   0  0  0  0  0  0  0  0  0  0  0  0
    2.7294    1.0000    0.0000 C   0  0  0  0  0  0  0  0  0  0  0  0
    2.5461    1.8001    0.0000 C   0  0  0  0  0  0  0  0  0  0  0  0
    0.4594    0.9935    0.0000 H   0  0  0  0  0  0  0  0  0  0  0  0
    0.3555    0.9926    0.0000 H   0  0  0  0  0  0  0  0  0  0  0  0
   -1.2767   -1.0785    0.0000 H   0  0  0  0  0  0  0  0  0  0  0  0
   -1.0136    0.0078    0.0000 H   0  0  0  0  0  0  0  0  0  0  0  0
    2.0889   -1.0795    0.0000 H   0  0  0  0  0  0  0  0  0  0  0  0
    1.2421   -1.8063    0.0000 H   0  0  0  0  0  0  0  0  0  0  0  0
   -1.6233   -0.5191    0.0000 H   0  0  0  0  0  0  0  0  0  0  0  0
   -0.6552    3.0600    0.0000 H   0  0  0  0  0  0  0  0  0  0  0  0
   -2.4466    2.5797    0.0000 H   0  0  0  0  0  0  0  0  0  0  0  0
   -0.5183   -2.5978    0.0000 H   0  0  0  0  0  0  0  0  0  0  0  0
    1.3349   -2.5978    0.0000 H   0  0  0  0  0  0  0  0  0  0  0  0
    0.4083   -3.1328    0.0000 H   0  0  0  0  0  0  0  0  0  0  0  0
    2.3531   -0.5681    0.0000 H   0  0  0  0  0  0  0  0  0  0  0  0
    1.5241    3.0478    0.0000 H   0  0  0  0  0  0  0  0  0  0  0  0
    3.7154    0.6954    0.0000 H   0  0  0  0  0  0  0  0  0  0  0  0
    3.3013    2.5035    0.0000 H   0  0  0  0  0  0  0  0  0  0  0  0
  1  3  1  0  0  0  0
  1  9  1  0  0  0  0
  1 21  1  0  0  0  0
  2  1  1  0  0  0  0
  2  6  1  0  0  0  0
  2 10  1  0  0  0  0
  2 22  1  0  0  0  0
  4  5  1  0  0  0  0
  5  3  1  0  0  0  0
  7  6  2  0  0  0  0
  7  4  1  0  0  0  0
  8  9  1  0  0  0  0
  8 10  1  0  0  0  0
  9 23  1  0  0  0  0
  9 24  1  0  0  0  0
 10 25  1  0  0  0  0
 10 26  1  0  0  0  0
 11  3  2  0  0  0  0
 11 27  1  0  0  0  0
 12  5  2  0  0  0  0
 12 28  1  0  0  0  0
 13 11  1  0  0  0  0
 14 12  1  0  0  0  0
 14 13  2  0  0  0  0
 14 29  1  0  0  0  0
 15 13  1  0  0  0  0
 16  8  1  0  0  0  0
 16 30  1  0  0  0  0
 16 31  1  0  0  0  0
 16 32  1  0  0  0  0
 17  6  1  0  0  0  0
 17 33  1  0  0  0  0
 18  7  1  0  0  0  0
 18 34  1  0  0  0  0
 19 17  2  0  0  0  0
 19 20  1  0  0  0  0
 19 35  1  0  0  0  0
 20 18  2  0  0  0  0
 20 36  1  0  0  0  0
M  END
>  <DRUGBANK_ID>
DB06216

>  <COMMON_NAME>
Asenapine

>  <CAS_NUMBER>
65576-45-6

>  <UNII>
JKZ19V908O

>  <SYNONYMS>
Asenapina; Asenapine

$$$$
