ET1
 OpenBabel10282417072D

 46 48  0  0  0  0  0  0  0  0999 V2000
   -1.1155   -2.4704    0.0000 C   0  0  0  0  0  0  0  0  0  0  0  0
   -1.3704    1.5614    0.0000 C   0  0  0  0  0  0  0  0  0  0  0  0
   -0.2663    2.7876    0.0000 C   0  0  0  0  0  0  0  0  0  0  0  0
   -0.0114    2.0030    0.0000 C   0  0  0  0  0  0  0  0  0  0  0  0
   -0.0536   -0.1793    0.0000 N   0  0  0  0  0  0  0  0  0  0  0  0
   -0.5385   -0.8468    0.0000 C   0  0  0  0  0  0  0  0  0  0  0  0
   -0.0536   -1.5142    0.0000 C   0  0  0  0  0  0  0  0  0  0  0  0
    0.7311   -1.2593    0.0000 C   0  0  0  0  0  0  0  0  0  0  0  0
    0.7311   -0.4343    0.0000 C   0  0  0  0  0  0  0  0  0  0  0  0
    2.1600   -1.2593    0.0000 C   0  0  0  0  0  0  0  0  0  0  0  0
    2.1600   -0.4343    0.0000 C   0  0  0  0  0  0  0  0  0  0  0  0
    1.4455   -0.0218    0.0000 C   0  0  0  0  0  0  0  0  0  0  0  0
    1.4455   -1.6718    0.0000 C   0  0  0  0  0  0  0  0  0  0  0  0
    2.8745   -1.6718    0.0000 O   0  0  0  0  0  0  0  0  0  0  0  0
    2.8745   -2.4968    0.0000 C   0  0  0  0  0  0  0  0  0  0  0  0
   -0.3085   -2.2988    0.0000 C   0  0  0  0  0  0  0  0  0  0  0  0
   -1.3704   -3.2550    0.0000 C   0  0  0  0  0  0  0  0  0  0  0  0
   -0.3085    0.6053    0.0000 S   0  0  0  0  0  0  0  0  0  0  0  0
   -0.5634    1.3899    0.0000 C   0  0  0  0  0  0  0  0  0  0  0  0
   -1.6253    2.3461    0.0000 C   0  0  0  0  0  0  0  0  0  0  0  0
   -1.0733    2.9592    0.0000 C   0  0  0  0  0  0  0  0  0  0  0  0
    0.4761    0.8602    0.0000 O   0  0  0  0  0  0  0  0  0  0  0  0
   -1.0931    0.3503    0.0000 O   0  0  0  0  0  0  0  0  0  0  0  0
   -2.1774   -3.4265    0.0000 O   0  0  0  0  0  0  0  0  0  0  0  0
   -0.8184   -3.8681    0.0000 O   0  0  0  0  0  0  0  0  0  0  0  0
   -1.3282    3.7438    0.0000 O   0  0  0  0  0  0  0  0  0  0  0  0
   -2.1352    3.9153    0.0000 C   0  0  0  0  0  0  0  0  0  0  0  0
   -1.8315   -1.6753    0.0000 H   0  0  0  0  0  0  0  0  0  0  0  0
   -2.1621   -2.6929    0.0000 H   0  0  0  0  0  0  0  0  0  0  0  0
   -2.0610    0.7945    0.0000 H   0  0  0  0  0  0  0  0  0  0  0  0
    0.4243    3.5545    0.0000 H   0  0  0  0  0  0  0  0  0  0  0  0
    0.9980    1.7884    0.0000 H   0  0  0  0  0  0  0  0  0  0  0  0
   -1.5705   -0.8468    0.0000 H   0  0  0  0  0  0  0  0  0  0  0  0
    3.0537    0.0817    0.0000 H   0  0  0  0  0  0  0  0  0  0  0  0
    1.4455    1.0102    0.0000 H   0  0  0  0  0  0  0  0  0  0  0  0
    1.4455   -2.7038    0.0000 H   0  0  0  0  0  0  0  0  0  0  0  0
    1.9479   -3.0318    0.0000 H   0  0  0  0  0  0  0  0  0  0  0  0
    3.8011   -3.0318    0.0000 H   0  0  0  0  0  0  0  0  0  0  0  0
    2.8745   -3.5668    0.0000 H   0  0  0  0  0  0  0  0  0  0  0  0
    0.4075   -3.0939    0.0000 H   0  0  0  0  0  0  0  0  0  0  0  0
    0.7381   -2.0763    0.0000 H   0  0  0  0  0  0  0  0  0  0  0  0
   -2.6347    2.5607    0.0000 H   0  0  0  0  0  0  0  0  0  0  0  0
   -1.1080   -4.7592    0.0000 H   0  0  0  0  0  0  0  0  0  0  0  0
   -2.4659    4.9329    0.0000 H   0  0  0  0  0  0  0  0  0  0  0  0
   -2.8511    3.1201    0.0000 H   0  0  0  0  0  0  0  0  0  0  0  0
   -3.1818    4.1377    0.0000 H   0  0  0  0  0  0  0  0  0  0  0  0
  1 16  1  0  0  0  0
  1 17  1  0  0  0  0
  1 28  1  0  0  0  0
  1 29  1  0  0  0  0
  2 20  1  0  0  0  0
  2 30  1  0  0  0  0
  3 21  1  0  0  0  0
  3 31  1  0  0  0  0
  4  3  2  0  0  0  0
  4 32  1  0  0  0  0
  5  6  1  0  0  0  0
  5 18  1  0  0  0  0
  6 33  1  0  0  0  0
  7  6  2  0  0  0  0
  7 16  1  0  0  0  0
  8  7  1  0  0  0  0
  8  9  1  0  0  0  0
  9  5  1  0  0  0  0
 10 11  2  0  0  0  0
 10 13  1  0  0  0  0
 11 12  1  0  0  0  0
 11 34  1  0  0  0  0
 12  9  2  0  0  0  0
 12 35  1  0  0  0  0
 13  8  2  0  0  0  0
 13 36  1  0  0  0  0
 14 10  1  0  0  0  0
 14 15  1  0  0  0  0
 15 37  1  0  0  0  0
 15 38  1  0  0  0  0
 15 39  1  0  0  0  0
 16 40  1  0  0  0  0
 16 41  1  0  0  0  0
 17 25  1  0  0  0  0
 18 19  1  0  0  0  0
 19  2  2  0  0  0  0
 19  4  1  0  0  0  0
 20 21  2  0  0  0  0
 20 42  1  0  0  0  0
 21 26  1  0  0  0  0
 22 18  2  0  0  0  0
 23 18  2  0  0  0  0
 24 17  2  0  0  0  0
 25 43  1  0  0  0  0
 26 27  1  0  0  0  0
 27 44  1  0  0  0  0
 27 45  1  0  0  0  0
 27 46  1  0  0  0  0
M  END
>  <DRUGBANK_ID>
DB07724

>  <COMMON_NAME>
Indeglitazar

>  <CAS_NUMBER>
835619-41-5

>  <UNII>
JMC809G4ZH

>  <SYNONYMS>
Indeglitazar

$$$$
