
 OpenBabel10282417072D

 63 64  0  0  0  0  0  0  0  0999 V2000
    2.8414   -0.4190    0.0000 C   0  0  2  0  0  0  0  0  0  0  0  0
    3.6319   -0.1613    0.0000 N   0  0  0  0  0  0  0  0  0  0  0  0
    2.1987    0.0517    0.0000 O   0  0  0  0  0  0  0  0  0  0  0  0
    2.6008   -1.2266    0.0000 C   0  0  1  0  0  0  0  0  0  0  0  0
    4.2507   -0.7110    0.0000 C   0  0  0  0  0  0  0  0  0  0  0  0
    3.8039    0.6463    0.0000 C   0  0  0  0  0  0  0  0  0  0  0  0
    1.5285   -0.4395    0.0000 C   0  0  1  0  0  0  0  0  0  0  0  0
    1.7725   -1.2266    0.0000 C   0  0  1  0  0  0  0  0  0  0  0  0
    3.0854   -1.8900    0.0000 O   0  0  0  0  0  0  0  0  0  0  0  0
    5.0377   -0.4500    0.0000 N   0  0  0  0  0  0  0  0  0  0  0  0
    4.0856   -1.5154    0.0000 O   0  0  0  0  0  0  0  0  0  0  0  0
    4.5805    0.9111    0.0000 C   0  0  0  0  0  0  0  0  0  0  0  0
    0.7415   -0.1852    0.0000 C   0  0  0  0  0  0  0  0  0  0  0  0
    1.2845   -1.8865    0.0000 O   0  0  0  0  0  0  0  0  0  0  0  0
    5.2061    0.3577    0.0000 C   0  0  0  0  0  0  0  0  0  0  0  0
    0.1571   -0.7593    0.0000 O   0  0  0  0  0  0  0  0  0  0  0  0
   -0.6642   -0.7593    0.0000 P   0  0  3  0  0  0  0  0  0  0  0  0
   -1.4856   -0.7593    0.0000 O   0  0  0  0  0  0  0  0  0  0  0  0
   -0.6676   -1.5807    0.0000 O   0  0  0  0  0  0  0  0  0  0  0  0
   -0.6676    0.0621    0.0000 O   0  0  0  0  0  0  0  0  0  0  0  0
   -2.3071   -0.7559    0.0000 P   0  0  3  0  0  0  0  0  0  0  0  0
   -2.3140   -1.5773    0.0000 O   0  0  0  0  0  0  0  0  0  0  0  0
   -2.3140    0.0045    0.0000 O   0  0  0  0  0  0  0  0  0  0  0  0
    5.9898    0.6155    0.0000 N   0  0  0  0  0  0  0  0  0  0  0  0
   -3.1319   -0.7559    0.0000 O   0  0  0  0  0  0  0  0  0  0  0  0
   -3.8463   -0.3434    0.0000 C   0  0  0  0  0  0  0  0  0  0  0  0
   -5.9898   -0.7559    0.0000 C   0  0  0  0  0  0  0  0  0  0  0  0
   -5.9898   -1.5809    0.0000 O   0  0  0  0  0  0  0  0  0  0  0  0
   -4.5608   -0.7559    0.0000 C   0  0  1  0  0  0  0  0  0  0  0  0
   -4.5608   -1.5809    0.0000 O   0  0  0  0  0  0  0  0  0  0  0  0
   -5.8587    0.2400    0.0000 C   0  0  0  0  0  0  0  0  0  0  0  0
   -5.2753   -0.3434    0.0000 C   0  0  2  0  0  0  0  0  0  0  0  0
   -4.6919    0.2400    0.0000 O   0  0  0  0  0  0  0  0  0  0  0  0
   -3.8669    1.0650    0.0000 O   0  0  0  0  0  0  0  0  0  0  0  0
   -5.5169    1.0650    0.0000 O   0  0  0  0  0  0  0  0  0  0  0  0
   -4.6919    1.0650    0.0000 P   0  0  0  0  0  0  0  0  0  0  0  0
   -4.6919    1.8900    0.0000 O   0  0  0  0  0  0  0  0  0  0  0  0
    3.0103    0.6376    0.0000 H   0  0  0  0  0  0  0  0  0  0  0  0
    3.6553   -1.0449    0.0000 H   0  0  0  0  0  0  0  0  0  0  0  0
    3.0321    1.3314    0.0000 H   0  0  0  0  0  0  0  0  0  0  0  0
    1.3581    0.6168    0.0000 H   0  0  0  0  0  0  0  0  0  0  0  0
    2.2542   -2.1820    0.0000 H   0  0  0  0  0  0  0  0  0  0  0  0
    2.6931   -2.7772    0.0000 H   0  0  0  0  0  0  0  0  0  0  0  0
    4.7833    1.9230    0.0000 H   0  0  0  0  0  0  0  0  0  0  0  0
    0.4955    0.8561    0.0000 H   0  0  0  0  0  0  0  0  0  0  0  0
   -0.2865    0.1117    0.0000 H   0  0  0  0  0  0  0  0  0  0  0  0
    0.3207   -1.7770    0.0000 H   0  0  0  0  0  0  0  0  0  0  0  0
   -1.5096   -2.0622    0.0000 H   0  0  0  0  0  0  0  0  0  0  0  0
   -3.1581   -2.0552    0.0000 H   0  0  0  0  0  0  0  0  0  0  0  0
    6.7238   -0.0406    0.0000 H   0  0  0  0  0  0  0  0  0  0  0  0
    6.1910    1.5792    0.0000 H   0  0  0  0  0  0  0  0  0  0  0  0
   -3.8463    0.7266    0.0000 H   0  0  0  0  0  0  0  0  0  0  0  0
   -4.7729    0.1916    0.0000 H   0  0  0  0  0  0  0  0  0  0  0  0
   -6.9164   -0.2209    0.0000 H   0  0  0  0  0  0  0  0  0  0  0  0
   -6.9164   -1.2909    0.0000 H   0  0  0  0  0  0  0  0  0  0  0  0
   -6.8298   -2.0659    0.0000 H   0  0  0  0  0  0  0  0  0  0  0  0
   -3.6342   -1.2909    0.0000 H   0  0  0  0  0  0  0  0  0  0  0  0
   -5.4008   -2.0659    0.0000 H   0  0  0  0  0  0  0  0  0  0  0  0
   -5.5818    1.2735    0.0000 H   0  0  0  0  0  0  0  0  0  0  0  0
   -6.8922   -0.0369    0.0000 H   0  0  0  0  0  0  0  0  0  0  0  0
   -6.6153    0.9966    0.0000 H   0  0  0  0  0  0  0  0  0  0  0  0
   -3.3819    0.2250    0.0000 H   0  0  0  0  0  0  0  0  0  0  0  0
   -3.8519    2.3750    0.0000 H   0  0  0  0  0  0  0  0  0  0  0  0
  1  2  1  0  0  0  0
  1  3  1  0  0  0  0
  1  4  1  0  0  0  0
  1 38  1  6  0  0  0
  2  5  1  0  0  0  0
  2  6  1  0  0  0  0
  3  7  1  0  0  0  0
  4  8  1  0  0  0  0
  4  9  1  0  0  0  0
  4 39  1  1  0  0  0
  5 10  1  0  0  0  0
  5 11  2  0  0  0  0
  6 12  2  0  0  0  0
  6 40  1  0  0  0  0
  7 13  1  0  0  0  0
  7  8  1  0  0  0  0
  7 41  1  6  0  0  0
  8 14  1  0  0  0  0
  8 42  1  1  0  0  0
  9 43  1  0  0  0  0
 10 15  2  0  0  0  0
 12 15  1  0  0  0  0
 12 44  1  0  0  0  0
 13 16  1  0  0  0  0
 13 45  1  0  0  0  0
 13 46  1  0  0  0  0
 14 47  1  0  0  0  0
 15 24  1  0  0  0  0
 16 17  1  0  0  0  0
 17 18  1  0  0  0  0
 17 19  1  0  0  0  0
 17 20  2  0  0  0  0
 18 21  1  0  0  0  0
 19 48  1  0  0  0  0
 21 22  1  0  0  0  0
 21 25  1  0  0  0  0
 21 23  2  0  0  0  0
 22 49  1  0  0  0  0
 24 50  1  0  0  0  0
 24 51  1  0  0  0  0
 25 26  1  0  0  0  0
 26 29  1  0  0  0  0
 26 52  1  0  0  0  0
 26 53  1  0  0  0  0
 27 28  1  0  0  0  0
 27 54  1  0  0  0  0
 27 55  1  0  0  0  0
 28 56  1  0  0  0  0
 29 32  1  0  0  0  0
 29 30  1  0  0  0  0
 29 57  1  6  0  0  0
 30 58  1  0  0  0  0
 31 59  1  0  0  0  0
 31 60  1  0  0  0  0
 31 61  1  0  0  0  0
 32 27  1  0  0  0  0
 32 31  1  0  0  0  0
 32 33  1  6  0  0  0
 33 36  1  0  0  0  0
 34 62  1  0  0  0  0
 36 34  1  0  0  0  0
 36 35  2  0  0  0  0
 36 37  1  0  0  0  0
 37 63  1  0  0  0  0
M  END
>  <DRUGBANK_ID>
DB01859

>  <SECONDARY_ACCESSION_NUMBERS>
EXPT02978

>  <COMMON_NAME>
4-CDP-2-C-methyl-D-erythritol 2-phosphate

>  <CAS_NUMBER>
263016-95-1

>  <SYNONYMS>
2-Phospho-4-(cytidine 5'-diphospho)-2-C-methyl-D-erythritol

$$$$
