
 OpenBabel10282417072D

 61 61  0  0  0  0  0  0  0  0999 V2000
   -5.4423    2.1498    0.0000 C   0  0  0  0  0  0  0  0  0  0  0  0
   -4.7279    1.7373    0.0000 C   0  0  0  0  0  0  0  0  0  0  0  0
   -4.7279    0.9123    0.0000 N   0  3  0  0  0  0  0  0  0  0  0  0
   -5.4423    0.4998    0.0000 C   0  0  0  0  0  0  0  0  0  0  0  0
   -6.1568    0.9123    0.0000 C   0  0  0  0  0  0  0  0  0  0  0  0
   -6.1568    1.7373    0.0000 C   0  0  0  0  0  0  0  0  0  0  0  0
   -4.0134    0.4998    0.0000 C   0  0  0  0  0  0  0  0  0  0  0  0
   -3.2989    0.9123    0.0000 C   0  0  0  0  0  0  0  0  0  0  0  0
   -2.5845    0.4998    0.0000 N   0  0  0  0  0  0  0  0  0  0  0  0
   -1.8700    0.9123    0.0000 C   0  0  0  0  0  0  0  0  0  0  0  0
   -1.1555    0.4998    0.0000 C   0  0  0  0  0  0  0  0  0  0  0  0
   -0.4410    0.9123    0.0000 O   0  0  0  0  0  0  0  0  0  0  0  0
    0.2733    0.4998    0.0000 C   0  0  0  0  0  0  0  0  0  0  0  0
    0.9878    0.9123    0.0000 C   0  0  0  0  0  0  0  0  0  0  0  0
    1.7023    0.4998    0.0000 C   0  0  0  0  0  0  0  0  0  0  0  0
    2.4167    0.9123    0.0000 C   0  0  0  0  0  0  0  0  0  0  0  0
    3.1312    0.4998    0.0000 C   0  0  0  0  0  0  0  0  0  0  0  0
    3.8457    0.9123    0.0000 C   0  0  0  0  0  0  0  0  0  0  0  0
    4.5602    0.4998    0.0000 C   0  0  0  0  0  0  0  0  0  0  0  0
    5.2746    0.9123    0.0000 C   0  0  0  0  0  0  0  0  0  0  0  0
    5.9891    0.4998    0.0000 C   0  0  0  0  0  0  0  0  0  0  0  0
    6.7036    0.9123    0.0000 C   0  0  0  0  0  0  0  0  0  0  0  0
    7.4180    0.4998    0.0000 C   0  0  0  0  0  0  0  0  0  0  0  0
    8.1325    0.9123    0.0000 C   0  0  0  0  0  0  0  0  0  0  0  0
   -3.2989    1.7373    0.0000 O   0  0  0  0  0  0  0  0  0  0  0  0
    0.2733   -0.3251    0.0000 O   0  0  0  0  0  0  0  0  0  0  0  0
   -5.4423    3.1818    0.0000 H   0  0  0  0  0  0  0  0  0  0  0  0
   -3.8342    2.2533    0.0000 H   0  0  0  0  0  0  0  0  0  0  0  0
   -5.4423   -0.5322    0.0000 H   0  0  0  0  0  0  0  0  0  0  0  0
   -7.0505    0.3963    0.0000 H   0  0  0  0  0  0  0  0  0  0  0  0
   -7.0505    2.2533    0.0000 H   0  0  0  0  0  0  0  0  0  0  0  0
   -4.0134   -0.5702    0.0000 H   0  0  0  0  0  0  0  0  0  0  0  0
   -3.0868   -0.0352    0.0000 H   0  0  0  0  0  0  0  0  0  0  0  0
   -2.5845   -0.4847    0.0000 H   0  0  0  0  0  0  0  0  0  0  0  0
   -1.8700    1.9823    0.0000 H   0  0  0  0  0  0  0  0  0  0  0  0
   -0.9434    1.4473    0.0000 H   0  0  0  0  0  0  0  0  0  0  0  0
   -1.1555   -0.5702    0.0000 H   0  0  0  0  0  0  0  0  0  0  0  0
   -0.2289   -0.0352    0.0000 H   0  0  0  0  0  0  0  0  0  0  0  0
    0.9878    1.9823    0.0000 H   0  0  0  0  0  0  0  0  0  0  0  0
    1.9144    1.4473    0.0000 H   0  0  0  0  0  0  0  0  0  0  0  0
    1.7023   -0.5702    0.0000 H   0  0  0  0  0  0  0  0  0  0  0  0
    2.6290   -0.0352    0.0000 H   0  0  0  0  0  0  0  0  0  0  0  0
    2.4167    1.9823    0.0000 H   0  0  0  0  0  0  0  0  0  0  0  0
    3.3433    1.4473    0.0000 H   0  0  0  0  0  0  0  0  0  0  0  0
    3.1312   -0.5702    0.0000 H   0  0  0  0  0  0  0  0  0  0  0  0
    4.0578   -0.0352    0.0000 H   0  0  0  0  0  0  0  0  0  0  0  0
    3.8457    1.9823    0.0000 H   0  0  0  0  0  0  0  0  0  0  0  0
    4.7723    1.4473    0.0000 H   0  0  0  0  0  0  0  0  0  0  0  0
    4.5602   -0.5702    0.0000 H   0  0  0  0  0  0  0  0  0  0  0  0
    5.4869   -0.0352    0.0000 H   0  0  0  0  0  0  0  0  0  0  0  0
    5.2746    1.9823    0.0000 H   0  0  0  0  0  0  0  0  0  0  0  0
    6.2012    1.4473    0.0000 H   0  0  0  0  0  0  0  0  0  0  0  0
    5.9891   -0.5702    0.0000 H   0  0  0  0  0  0  0  0  0  0  0  0
    6.9157   -0.0352    0.0000 H   0  0  0  0  0  0  0  0  0  0  0  0
    6.7036    1.9823    0.0000 H   0  0  0  0  0  0  0  0  0  0  0  0
    7.6303    1.4473    0.0000 H   0  0  0  0  0  0  0  0  0  0  0  0
    7.4180   -0.5702    0.0000 H   0  0  0  0  0  0  0  0  0  0  0  0
    8.3446   -0.0352    0.0000 H   0  0  0  0  0  0  0  0  0  0  0  0
    9.0591    0.3773    0.0000 H   0  0  0  0  0  0  0  0  0  0  0  0
    8.1325    1.9823    0.0000 H   0  0  0  0  0  0  0  0  0  0  0  0
    9.0592    1.4473    0.0000 H   0  0  0  0  0  0  0  0  0  0  0  0
  1  2  2  0  0  0  0
  1 27  1  0  0  0  0
  2  3  1  0  0  0  0
  2 28  1  0  0  0  0
  3  7  1  0  0  0  0
  3  4  2  0  0  0  0
  4  5  1  0  0  0  0
  4 29  1  0  0  0  0
  5  6  2  0  0  0  0
  5 30  1  0  0  0  0
  6  1  1  0  0  0  0
  6 31  1  0  0  0  0
  7  8  1  0  0  0  0
  7 32  1  0  0  0  0
  7 33  1  0  0  0  0
  8  9  1  0  0  0  0
  8 25  2  0  0  0  0
  9 10  1  0  0  0  0
  9 34  1  0  0  0  0
 10 11  1  0  0  0  0
 10 35  1  0  0  0  0
 10 36  1  0  0  0  0
 11 12  1  0  0  0  0
 11 37  1  0  0  0  0
 11 38  1  0  0  0  0
 12 13  1  0  0  0  0
 13 14  1  0  0  0  0
 13 26  2  0  0  0  0
 14 15  1  0  0  0  0
 14 39  1  0  0  0  0
 14 40  1  0  0  0  0
 15 16  1  0  0  0  0
 15 41  1  0  0  0  0
 15 42  1  0  0  0  0
 16 17  1  0  0  0  0
 16 43  1  0  0  0  0
 16 44  1  0  0  0  0
 17 18  1  0  0  0  0
 17 45  1  0  0  0  0
 17 46  1  0  0  0  0
 18 19  1  0  0  0  0
 18 47  1  0  0  0  0
 18 48  1  0  0  0  0
 19 20  1  0  0  0  0
 19 49  1  0  0  0  0
 19 50  1  0  0  0  0
 20 21  1  0  0  0  0
 20 51  1  0  0  0  0
 20 52  1  0  0  0  0
 21 22  1  0  0  0  0
 21 53  1  0  0  0  0
 21 54  1  0  0  0  0
 22 23  1  0  0  0  0
 22 55  1  0  0  0  0
 22 56  1  0  0  0  0
 23 24  1  0  0  0  0
 23 57  1  0  0  0  0
 23 58  1  0  0  0  0
 24 59  1  0  0  0  0
 24 60  1  0  0  0  0
 24 61  1  0  0  0  0
M  CHG  1   3   1
M  END
>  <DRUGBANK_ID>
DB09376

>  <COMMON_NAME>
Lapyrium

>  <CAS_NUMBER>
109260-82-4

>  <UNII>
5172AI8LRR

$$$$
