
 OpenBabel10282417072D

 17 18  0  0  0  0  0  0  0  0999 V2000
    1.7861    1.2375    0.0000 O   0  0  0  0  0  0  0  0  0  0  0  0
    1.0717    0.8250    0.0000 Bi  0  0  3  0  0  0  0  0  0  0  0  0
    1.0717    0.0000    0.0000 O   0  0  0  0  0  0  0  0  0  0  0  0
    0.3572   -0.4125    0.0000 C   0  0  0  0  0  0  0  0  0  0  0  0
    0.3572   -1.2375    0.0000 O   0  0  0  0  0  0  0  0  0  0  0  0
   -0.3572    0.0000    0.0000 C   0  0  0  0  0  0  0  0  0  0  0  0
   -1.0717   -0.4125    0.0000 C   0  0  0  0  0  0  0  0  0  0  0  0
   -1.7861    0.0000    0.0000 C   0  0  0  0  0  0  0  0  0  0  0  0
   -1.7861    0.8250    0.0000 C   0  0  0  0  0  0  0  0  0  0  0  0
   -1.0717    1.2375    0.0000 C   0  0  0  0  0  0  0  0  0  0  0  0
   -0.3572    0.8250    0.0000 C   0  0  0  0  0  0  0  0  0  0  0  0
    0.3572    1.2375    0.0000 O   0  0  0  0  0  0  0  0  0  0  0  0
    2.6262    0.7525    0.0000 H   0  0  0  0  0  0  0  0  0  0  0  0
   -1.0717   -1.4445    0.0000 H   0  0  0  0  0  0  0  0  0  0  0  0
   -2.6798   -0.5160    0.0000 H   0  0  0  0  0  0  0  0  0  0  0  0
   -2.6798    1.3410    0.0000 H   0  0  0  0  0  0  0  0  0  0  0  0
   -1.0717    2.2695    0.0000 H   0  0  0  0  0  0  0  0  0  0  0  0
  1  2  1  0  0  0  0
  1 13  1  0  0  0  0
  2  3  1  0  0  0  0
  2 12  1  0  0  0  0
  3  4  1  0  0  0  0
  4  5  2  0  0  0  0
  4  6  1  0  0  0  0
  6  7  2  0  0  0  0
  6 11  1  0  0  0  0
  7  8  1  0  0  0  0
  7 14  1  0  0  0  0
  8  9  2  0  0  0  0
  8 15  1  0  0  0  0
  9 10  1  0  0  0  0
  9 16  1  0  0  0  0
 10 11  2  0  0  0  0
 10 17  1  0  0  0  0
 11 12  1  0  0  0  0
M  END
>  <DRUGBANK_ID>
DB01294

>  <SECONDARY_ACCESSION_NUMBERS>
DB01402

>  <COMMON_NAME>
Bismuth subsalicylate

>  <CAS_NUMBER>
14882-18-9

>  <UNII>
62TEY51RR1

>  <SYNONYMS>
2-Hydroxy-benzo[1,3,2]dioxabismin-4-one; Basic bismuth salicylate; Bismuth oxide salicylate; Bismuth oxysalicylate; Bismuth subsalicylate; Pink bismuth; Wismutsubsalicylat

$$$$
