
 OpenBabel10282417072D

 39 34  0  0  0  0  0  0  0  0999 V2000
   -1.9041    0.0957    0.0000 C   0  0  0  0  0  0  0  0  0  0  0  0
   -2.2061   -1.0312    0.0000 C   0  0  0  0  0  0  0  0  0  0  0  0
   -1.9041    0.9207    0.0000 C   0  0  0  0  0  0  0  0  0  0  0  0
   -1.3811   -1.0312    0.0000 C   0  0  0  0  0  0  0  0  0  0  0  0
   -3.3331   -0.7292    0.0000 C   0  0  0  0  0  0  0  0  0  0  0  0
   -2.6186   -0.3167    0.0000 C   0  0  0  0  0  0  0  0  0  0  0  0
   -1.1897    1.3332    0.0000 O   0  0  0  0  0  0  0  0  0  0  0  0
   -2.6186    1.3332    0.0000 O   0  5  0  0  0  0  0  0  0  0  0  0
   -0.9686   -1.7457    0.0000 O   0  0  0  0  0  0  0  0  0  0  0  0
   -0.9686   -0.3167    0.0000 O   0  5  0  0  0  0  0  0  0  0  0  0
   -3.3331   -1.5542    0.0000 O   0  0  0  0  0  0  0  0  0  0  0  0
   -4.0475   -0.3167    0.0000 O   0  5  0  0  0  0  0  0  0  0  0  0
   -3.0311    0.3976    0.0000 O   0  0  0  0  0  0  0  0  0  0  0  0
    3.8265    0.2783    0.0000 C   0  0  0  0  0  0  0  0  0  0  0  0
    3.5245   -0.8485    0.0000 C   0  0  0  0  0  0  0  0  0  0  0  0
    3.8265    1.1033    0.0000 C   0  0  0  0  0  0  0  0  0  0  0  0
    4.3495   -0.8485    0.0000 C   0  0  0  0  0  0  0  0  0  0  0  0
    2.3975   -0.5466    0.0000 C   0  0  0  0  0  0  0  0  0  0  0  0
    3.1120   -0.1341    0.0000 C   0  0  0  0  0  0  0  0  0  0  0  0
    3.1120    1.5158    0.0000 O   0  0  0  0  0  0  0  0  0  0  0  0
    4.5410    1.5158    0.0000 O   0  5  0  0  0  0  0  0  0  0  0  0
    4.7620   -0.1341    0.0000 O   0  0  0  0  0  0  0  0  0  0  0  0
    4.7620   -1.5630    0.0000 O   0  5  0  0  0  0  0  0  0  0  0  0
    2.3975   -1.3716    0.0000 O   0  0  0  0  0  0  0  0  0  0  0  0
    1.6831   -0.1341    0.0000 O   0  5  0  0  0  0  0  0  0  0  0  0
    2.6995    0.5803    0.0000 O   0  0  0  0  0  0  0  0  0  0  0  0
   -3.3331    1.7457    0.0000 Mn  0  2  0  0  0  0  0  0  0  0  0  0
   -0.5561    0.3976    0.0000 Mn  0  2  0  0  0  0  0  0  0  0  0  0
   -4.7620    0.0957    0.0000 Mn  0  2  0  0  0  0  0  0  0  0  0  0
   -0.9775   -0.4394    0.0000 H   0  0  0  0  0  0  0  0  0  0  0  0
   -1.9042   -0.9743    0.0000 H   0  0  0  0  0  0  0  0  0  0  0  0
   -2.7411   -1.9578    0.0000 H   0  0  0  0  0  0  0  0  0  0  0  0
   -3.2761   -1.0312    0.0000 H   0  0  0  0  0  0  0  0  0  0  0  0
   -2.5462    1.2377    0.0000 H   0  0  0  0  0  0  0  0  0  0  0  0
    4.7531   -0.2568    0.0000 H   0  0  0  0  0  0  0  0  0  0  0  0
    3.8264   -0.7917    0.0000 H   0  0  0  0  0  0  0  0  0  0  0  0
    2.9895   -1.7752    0.0000 H   0  0  0  0  0  0  0  0  0  0  0  0
    2.4545   -0.8485    0.0000 H   0  0  0  0  0  0  0  0  0  0  0  0
    3.1845    1.4204    0.0000 H   0  0  0  0  0  0  0  0  0  0  0  0
  1 30  1  0  0  0  0
  1 31  1  0  0  0  0
  2 32  1  0  0  0  0
  2 33  1  0  0  0  0
  3  1  1  0  0  0  0
  4  2  1  0  0  0  0
  6  1  1  0  0  0  0
  6  2  1  0  0  0  0
  6  5  1  0  0  0  0
  7  3  2  0  0  0  0
  8  3  1  0  0  0  0
  9  4  2  0  0  0  0
 10  4  1  0  0  0  0
 11  5  2  0  0  0  0
 12  5  1  0  0  0  0
 13  6  1  0  0  0  0
 13 34  1  0  0  0  0
 14 35  1  0  0  0  0
 14 36  1  0  0  0  0
 15 37  1  0  0  0  0
 15 38  1  0  0  0  0
 16 14  1  0  0  0  0
 17 15  1  0  0  0  0
 19 14  1  0  0  0  0
 19 15  1  0  0  0  0
 19 18  1  0  0  0  0
 20 16  2  0  0  0  0
 21 16  1  0  0  0  0
 22 17  2  0  0  0  0
 23 17  1  0  0  0  0
 24 18  2  0  0  0  0
 25 18  1  0  0  0  0
 26 19  1  0  0  0  0
 26 39  1  0  0  0  0
M  CHG  8   8  -1  10  -1  12  -1  21  -1  23  -1  25  -1  27   2  28   2
M  CHG  1  29   2
M  END
>  <DRUGBANK_ID>
DB14495

>  <COMMON_NAME>
Manganese citrate

>  <CAS_NUMBER>
10060-26-1

>  <UNII>
74NE0422XH

>  <SYNONYMS>
Manganese citrate anhydrous; Trimanganese dicitrate

$$$$
