1431
 OpenBabel10282417072D

 54 57  0  0  1  0  0  0  0  0999 V2000
    5.9104    1.6065    0.0000 O   0  0  0  0  0  0  0  0  0  0  0  0
    5.3833    0.5700    0.0000 C   0  0  1  0  0  0  0  0  0  0  0  0
    5.3833   -0.2550    0.0000 C   0  0  2  0  0  0  0  0  0  0  0  0
    4.6689   -0.6675    0.0000 C   0  0  1  0  0  0  0  0  0  0  0  0
    3.9544   -0.2550    0.0000 C   0  0  2  0  0  0  0  0  0  0  0  0
    6.1640    0.8214    0.0000 C   0  0  2  0  0  0  0  0  0  0  0  0
    4.6689    0.9825    0.0000 C   0  0  0  0  0  0  0  0  0  0  0  0
    6.1640   -0.5064    0.0000 C   0  0  0  0  0  0  0  0  0  0  0  0
    3.9544    0.5700    0.0000 C   0  0  0  0  0  0  0  0  0  0  0  0
    6.6455    0.1575    0.0000 C   0  0  0  0  0  0  0  0  0  0  0  0
    3.2036   -0.6731    0.0000 C   0  0  2  0  0  0  0  0  0  0  0  0
    4.6821   -1.5268    0.0000 C   0  0  0  0  0  0  0  0  0  0  0  0
    5.3833    1.3950    0.0000 C   0  0  0  0  0  0  0  0  0  0  0  0
    3.9412   -1.9622    0.0000 C   0  0  0  0  0  0  0  0  0  0  0  0
    3.1970   -1.5325    0.0000 C   0  0  0  0  0  0  0  0  0  0  0  0
    6.8323    1.3052    0.0000 C   0  0  0  0  0  0  0  0  0  0  0  0
    2.4389   -0.2078    0.0000 C   0  0  0  0  0  0  0  0  0  0  0  0
    1.6570   -0.6433    0.0000 C   0  0  0  0  0  0  0  0  0  0  0  0
    2.4252   -1.9861    0.0000 C   0  0  0  0  0  0  0  0  0  0  0  0
    1.6500   -1.5385    0.0000 C   0  0  0  0  0  0  0  0  0  0  0  0
    7.5854    0.9683    0.0000 C   0  0  0  0  0  0  0  0  0  0  0  0
    8.2537    1.4521    0.0000 C   0  0  0  0  0  0  0  0  0  0  0  0
    5.4532   -0.9113    0.0000 H   0  0  0  0  0  0  0  0  0  0  0  0
    5.2430   -0.9931    0.0000 H   0  0  0  0  0  0  0  0  0  0  0  0
    4.5260    0.0750    0.0000 H   0  0  0  0  0  0  0  0  0  0  0  0
    3.2163   -0.0133    0.0000 H   0  0  0  0  0  0  0  0  0  0  0  0
    6.5607    2.3262    0.0000 H   0  0  0  0  0  0  0  0  0  0  0  0
    4.6689    2.0525    0.0000 H   0  0  0  0  0  0  0  0  0  0  0  0
    3.7423    1.5175    0.0000 H   0  0  0  0  0  0  0  0  0  0  0  0
    6.4964   -1.5235    0.0000 H   0  0  0  0  0  0  0  0  0  0  0  0
    7.2210   -0.6724    0.0000 H   0  0  0  0  0  0  0  0  0  0  0  0
    3.0278    1.1050    0.0000 H   0  0  0  0  0  0  0  0  0  0  0  0
    3.9544    1.6400    0.0000 H   0  0  0  0  0  0  0  0  0  0  0  0
    7.7155    0.1575    0.0000 H   0  0  0  0  0  0  0  0  0  0  0  0
    7.1317   -0.7957    0.0000 H   0  0  0  0  0  0  0  0  0  0  0  0
    5.6149   -2.0511    0.0000 H   0  0  0  0  0  0  0  0  0  0  0  0
    4.6924   -2.5968    0.0000 H   0  0  0  0  0  0  0  0  0  0  0  0
    6.3099    1.9300    0.0000 H   0  0  0  0  0  0  0  0  0  0  0  0
    4.4567    1.9300    0.0000 H   0  0  0  0  0  0  0  0  0  0  0  0
    5.3833    2.4650    0.0000 H   0  0  0  0  0  0  0  0  0  0  0  0
    3.9453   -3.0322    0.0000 H   0  0  0  0  0  0  0  0  0  0  0  0
    3.0156   -2.4990    0.0000 H   0  0  0  0  0  0  0  0  0  0  0  0
    6.7223    2.3695    0.0000 H   0  0  0  0  0  0  0  0  0  0  0  0
    7.6991    1.9326    0.0000 H   0  0  0  0  0  0  0  0  0  0  0  0
    2.4595    0.8620    0.0000 H   0  0  0  0  0  0  0  0  0  0  0  0
    1.5217    0.3432    0.0000 H   0  0  0  0  0  0  0  0  0  0  0  0
    0.7366   -0.0976    0.0000 H   0  0  0  0  0  0  0  0  0  0  0  0
    0.7252   -1.1693    0.0000 H   0  0  0  0  0  0  0  0  0  0  0  0
    2.4292   -3.0181    0.0000 H   0  0  0  0  0  0  0  0  0  0  0  0
    0.7213   -2.0699    0.0000 H   0  0  0  0  0  0  0  0  0  0  0  0
    1.6479   -2.6085    0.0000 H   0  0  0  0  0  0  0  0  0  0  0  0
    7.6915   -0.0582    0.0000 H   0  0  0  0  0  0  0  0  0  0  0  0
    9.1958    1.0307    0.0000 H   0  0  0  0  0  0  0  0  0  0  0  0
    8.1476    2.4786    0.0000 H   0  0  0  0  0  0  0  0  0  0  0  0
  1 27  1  0  0  0  0
  2  3  1  0  0  0  0
  2  6  1  0  0  0  0
  2  7  1  0  0  0  0
  2 13  1  1  0  0  0
  3  4  1  0  0  0  0
  3  8  1  0  0  0  0
  3 23  1  6  0  0  0
  4  5  1  0  0  0  0
  4 12  1  0  0  0  0
  4 24  1  1  0  0  0
  5  9  1  0  0  0  0
  5 11  1  0  0  0  0
  5 25  1  6  0  0  0
  6  1  1  1  0  0  0
  6 10  1  0  0  0  0
  6 16  1  0  0  0  0
  7  9  1  0  0  0  0
  7 28  1  0  0  0  0
  7 29  1  0  0  0  0
  8 10  1  0  0  0  0
  8 30  1  0  0  0  0
  8 31  1  0  0  0  0
  9 32  1  0  0  0  0
  9 33  1  0  0  0  0
 10 34  1  0  0  0  0
 10 35  1  0  0  0  0
 11 15  1  0  0  0  0
 11 17  1  0  0  0  0
 11 26  1  1  0  0  0
 12 14  1  0  0  0  0
 12 36  1  0  0  0  0
 12 37  1  0  0  0  0
 13 38  1  0  0  0  0
 13 39  1  0  0  0  0
 13 40  1  0  0  0  0
 14 15  1  0  0  0  0
 14 41  1  0  0  0  0
 14 42  1  0  0  0  0
 15 19  2  0  0  0  0
 16 21  1  0  0  0  0
 16 43  1  0  0  0  0
 16 44  1  0  0  0  0
 17 18  1  0  0  0  0
 17 45  1  0  0  0  0
 17 46  1  0  0  0  0
 18 20  1  0  0  0  0
 18 47  1  0  0  0  0
 18 48  1  0  0  0  0
 19 20  1  0  0  0  0
 19 49  1  0  0  0  0
 20 50  1  0  0  0  0
 20 51  1  0  0  0  0
 21 22  2  0  0  0  0
 21 52  1  0  0  0  0
 22 53  1  0  0  0  0
 22 54  1  0  0  0  0
M  END
>  <DRUGBANK_ID>
DB01431

>  <COMMON_NAME>
Allylestrenol

>  <CAS_NUMBER>
432-60-0

>  <UNII>
I47VB5DZ8O

>  <SYNONYMS>
17α-allylestr-4-en-17β-ol; 3-deketo-17α-allyl-19-nortestosterone; Alilestrenol; Allilestrenolo; Allyl estrenol; Allylestrenol; Allylestrenolum; Allyloestrenol

$$$$
