
 OpenBabel10282417072D

154167  0  0  1  0  0  0  0  0999 V2000
    4.7017    4.7343    0.0000 H   0  0  0  0  0  0  0  0  0  0  0  0
    3.8837    4.8413    0.0000 C   0  0  2  0  0  0  0  0  0  0  0  0
    4.1651    4.0427    0.0000 O   0  0  0  0  0  0  0  0  0  0  0  0
    4.9932    4.1813    0.0000 C   0  0  0  0  0  0  0  0  0  0  0  0
    5.0696    5.0500    0.0000 C   0  0  0  0  0  0  0  0  0  0  0  0
    5.9085    5.2260    0.0000 C   0  0  0  0  0  0  0  0  0  0  0  0
    5.8422    6.0708    0.0000 C   0  0  0  0  0  0  0  0  0  0  0  0
    5.0406    6.4063    0.0000 C   0  0  1  0  0  0  0  0  0  0  0  0
    5.4940    7.1498    0.0000 N   0  0  0  0  0  0  0  0  0  0  0  0
    6.2696    7.4309    0.0000 C   0  0  0  0  0  0  0  0  0  0  0  0
    6.4140    8.2432    0.0000 C   0  0  0  0  0  0  0  0  0  0  0  0
    6.1329    9.0188    0.0000 C   0  0  0  0  0  0  0  0  0  0  0  0
    6.9451    8.8745    0.0000 C   0  0  0  0  0  0  0  0  0  0  0  0
    4.7101    7.4165    0.0000 C   0  0  0  0  0  0  0  0  0  0  0  0
    4.5318    6.5769    0.0000 C   0  0  0  0  0  0  0  0  0  0  0  0
    4.4194    5.6262    0.0000 C   0  0  1  0  0  0  0  0  0  0  0  0
    4.0339    6.4023    0.0000 C   0  0  1  0  0  0  0  0  0  0  0  0
    3.7173    5.7423    0.0000 C   0  0  0  0  0  0  0  0  0  0  0  0
    3.1468    5.2949    0.0000 C   0  0  0  0  0  0  0  0  0  0  0  0
    2.9721    4.6194    0.0000 C   0  0  2  0  0  0  0  0  0  0  0  0
    2.6061    3.8800    0.0000 O   0  0  0  0  0  0  0  0  0  0  0  0
    3.0635    3.1934    0.0000 C   0  0  0  0  0  0  0  0  0  0  0  0
    2.5891    5.4936    0.0000 C   0  0  2  0  0  0  0  0  0  0  0  0
    2.1053    4.8254    0.0000 H   0  0  0  0  0  0  0  0  0  0  0  0
    3.1051    6.2412    0.0000 C   0  0  0  0  0  0  0  0  0  0  0  0
    1.7679    5.5724    0.0000 C   0  0  2  0  0  0  0  0  0  0  0  0
    1.8467    6.3936    0.0000 C   0  0  0  0  0  0  0  0  0  0  0  0
    1.6891    4.7511    0.0000 O   0  0  0  0  0  0  0  0  0  0  0  0
    0.9467    5.6511    0.0000 C   0  0  0  0  0  0  0  0  0  0  0  0
    1.0254    6.4724    0.0000 C   0  0  0  0  0  0  0  0  0  0  0  0
    0.8679    4.8299    0.0000 C   0  0  0  0  0  0  0  0  0  0  0  0
    0.1254    5.7299    0.0000 C   0  0  0  0  0  0  0  0  0  0  0  0
    6.5586    4.6725    0.0000 C   0  0  0  0  0  0  0  0  0  0  0  0
    6.3832    3.8543    0.0000 C   0  0  0  0  0  0  0  0  0  0  0  0
    5.5970    3.5881    0.0000 C   0  0  0  0  0  0  0  0  0  0  0  0
    5.4129    2.7839    0.0000 O   0  0  0  0  0  0  0  0  0  0  0  0
    6.0173    2.2224    0.0000 C   0  0  0  0  0  0  0  0  0  0  0  0
    5.8332    1.4182    0.0000 C   0  0  0  0  0  0  0  0  0  0  0  0
    6.4376    0.8566    0.0000 O   0  0  0  0  0  0  0  0  0  0  0  0
    6.2535    0.0524    0.0000 C   0  0  0  0  0  0  0  0  0  0  0  0
    6.8456   -0.5293    0.0000 C   0  0  0  0  0  0  0  0  0  0  0  0
    6.6476   -1.3423    0.0000 C   0  0  0  0  0  0  0  0  0  0  0  0
    5.8214   -1.5578    0.0000 C   0  0  0  0  0  0  0  0  0  0  0  0
    5.3942   -2.2897    0.0000 C   0  0  0  0  0  0  0  0  0  0  0  0
    4.5264   -2.2429    0.0000 C   0  0  1  0  0  0  0  0  0  0  0  0
    4.6112   -3.1097    0.0000 N   0  0  0  0  0  0  0  0  0  0  0  0
    5.1873   -3.7003    0.0000 C   0  0  0  0  0  0  0  0  0  0  0  0
    4.9639   -4.4945    0.0000 C   0  0  0  0  0  0  0  0  0  0  0  0
    5.1675   -5.2939    0.0000 C   0  0  0  0  0  0  0  0  0  0  0  0
    4.3733   -5.0706    0.0000 C   0  0  0  0  0  0  0  0  0  0  0  0
    3.7894   -3.0088    0.0000 C   0  0  0  0  0  0  0  0  0  0  0  0
    3.9941   -2.1752    0.0000 C   0  0  0  0  0  0  0  0  0  0  0  0
    4.3065   -1.2703    0.0000 C   0  0  2  0  0  0  0  0  0  0  0  0
    5.1426   -1.0344    0.0000 C   0  0  0  0  0  0  0  0  0  0  0  0
    5.4518   -0.2190    0.0000 C   0  0  0  0  0  0  0  0  0  0  0  0
    4.7664    0.2661    0.0000 O   0  0  0  0  0  0  0  0  0  0  0  0
    4.1656   -0.3306    0.0000 C   0  0  1  0  0  0  0  0  0  0  0  0
    4.9487   -0.5901    0.0000 H   0  0  0  0  0  0  0  0  0  0  0  0
    3.4413    0.2658    0.0000 C   0  0  1  0  0  0  0  0  0  0  0  0
    3.3047   -0.4184    0.0000 C   0  0  0  0  0  0  0  0  0  0  0  0
    3.6238   -1.0694    0.0000 C   0  0  0  0  0  0  0  0  0  0  0  0
    3.6217   -1.8014    0.0000 C   0  0  1  0  0  0  0  0  0  0  0  0
    2.8556   -1.2523    0.0000 C   0  0  0  0  0  0  0  0  0  0  0  0
    2.7162   -0.3547    0.0000 C   0  0  2  0  0  0  0  0  0  0  0  0
    2.0774   -0.8767    0.0000 H   0  0  0  0  0  0  0  0  0  0  0  0
    1.9425   -0.0683    0.0000 C   0  0  2  0  0  0  0  0  0  0  0  0
    2.2289    0.7054    0.0000 C   0  0  0  0  0  0  0  0  0  0  0  0
    1.6561   -0.8420    0.0000 O   0  0  0  0  0  0  0  0  0  0  0  0
    1.1688    0.2180    0.0000 C   0  0  0  0  0  0  0  0  0  0  0  0
    1.4552    0.9917    0.0000 C   0  0  0  0  0  0  0  0  0  0  0  0
    0.8824   -0.5557    0.0000 C   0  0  0  0  0  0  0  0  0  0  0  0
    0.3951    0.5044    0.0000 C   0  0  0  0  0  0  0  0  0  0  0  0
    3.4335    1.0908    0.0000 O   0  0  0  0  0  0  0  0  0  0  0  0
    2.7151    1.4965    0.0000 C   0  0  0  0  0  0  0  0  0  0  0  0
    6.7091    6.6980    0.0000 H   0  0  0  0  0  0  0  0  0  0  0  0
    5.7194    7.1337    0.0000 H   0  0  0  0  0  0  0  0  0  0  0  0
    6.0585    6.7362    0.0000 H   0  0  0  0  0  0  0  0  0  0  0  0
    7.0883    6.7420    0.0000 H   0  0  0  0  0  0  0  0  0  0  0  0
    7.2756    7.7955    0.0000 H   0  0  0  0  0  0  0  0  0  0  0  0
    6.6012    9.2967    0.0000 H   0  0  0  0  0  0  0  0  0  0  0  0
    5.3141    9.7077    0.0000 H   0  0  0  0  0  0  0  0  0  0  0  0
    6.5864    9.9880    0.0000 H   0  0  0  0  0  0  0  0  0  0  0  0
    7.9510    9.2392    0.0000 H   0  0  0  0  0  0  0  0  0  0  0  0
    7.5577    7.9972    0.0000 H   0  0  0  0  0  0  0  0  0  0  0  0
    4.1814    8.3468    0.0000 H   0  0  0  0  0  0  0  0  0  0  0  0
    3.6527    7.2526    0.0000 H   0  0  0  0  0  0  0  0  0  0  0  0
    3.4761    6.7510    0.0000 H   0  0  0  0  0  0  0  0  0  0  0  0
    3.6766    5.9338    0.0000 H   0  0  0  0  0  0  0  0  0  0  0  0
    4.5516    5.0724    0.0000 H   0  0  0  0  0  0  0  0  0  0  0  0
    3.7112    4.6723    0.0000 H   0  0  0  0  0  0  0  0  0  0  0  0
    2.2514    5.8808    0.0000 H   0  0  0  0  0  0  0  0  0  0  0  0
    2.1489    4.9088    0.0000 H   0  0  0  0  0  0  0  0  0  0  0  0
    2.5889    2.2344    0.0000 H   0  0  0  0  0  0  0  0  0  0  0  0
    4.1313    3.2619    0.0000 H   0  0  0  0  0  0  0  0  0  0  0  0
    3.6567    2.3029    0.0000 H   0  0  0  0  0  0  0  0  0  0  0  0
    2.5284    7.1425    0.0000 H   0  0  0  0  0  0  0  0  0  0  0  0
    3.5364    7.2204    0.0000 H   0  0  0  0  0  0  0  0  0  0  0  0
    2.8202    6.8376    0.0000 H   0  0  0  0  0  0  0  0  0  0  0  0
    0.9754    7.0147    0.0000 H   0  0  0  0  0  0  0  0  0  0  0  0
    1.9489    7.4587    0.0000 H   0  0  0  0  0  0  0  0  0  0  0  0
    0.8066    4.3485    0.0000 H   0  0  0  0  0  0  0  0  0  0  0  0
    1.9989    6.9166    0.0000 H   0  0  0  0  0  0  0  0  0  0  0  0
    0.1540    7.0934    0.0000 H   0  0  0  0  0  0  0  0  0  0  0  0
    1.1275    7.5375    0.0000 H   0  0  0  0  0  0  0  0  0  0  0  0
   -0.1056    4.3859    0.0000 H   0  0  0  0  0  0  0  0  0  0  0  0
    1.7392    4.2088    0.0000 H   0  0  0  0  0  0  0  0  0  0  0  0
    0.7657    3.7648    0.0000 H   0  0  0  0  0  0  0  0  0  0  0  0
   -0.3187    6.7034    0.0000 H   0  0  0  0  0  0  0  0  0  0  0  0
   -0.4957    4.8586    0.0000 H   0  0  0  0  0  0  0  0  0  0  0  0
   -0.9397    5.8321    0.0000 H   0  0  0  0  0  0  0  0  0  0  0  0
    7.5359    5.0041    0.0000 H   0  0  0  0  0  0  0  0  0  0  0  0
    7.1538    3.1678    0.0000 H   0  0  0  0  0  0  0  0  0  0  0  0
    7.0400    2.5371    0.0000 H   0  0  0  0  0  0  0  0  0  0  0  0
    6.8012    1.4941    0.0000 H   0  0  0  0  0  0  0  0  0  0  0  0
    4.8105    1.1035    0.0000 H   0  0  0  0  0  0  0  0  0  0  0  0
    5.5944    0.3752    0.0000 H   0  0  0  0  0  0  0  0  0  0  0  0
    7.8381   -0.2464    0.0000 H   0  0  0  0  0  0  0  0  0  0  0  0
    7.3832   -2.0661    0.0000 H   0  0  0  0  0  0  0  0  0  0  0  0
    5.9018   -3.2316    0.0000 H   0  0  0  0  0  0  0  0  0  0  0  0
    4.8211   -3.1933    0.0000 H   0  0  0  0  0  0  0  0  0  0  0  0
    5.2993   -2.9828    0.0000 H   0  0  0  0  0  0  0  0  0  0  0  0
    6.2242   -3.4362    0.0000 H   0  0  0  0  0  0  0  0  0  0  0  0
    5.9345   -4.4662    0.0000 H   0  0  0  0  0  0  0  0  0  0  0  0
    4.6741   -5.5245    0.0000 H   0  0  0  0  0  0  0  0  0  0  0  0
    5.9147   -6.0598    0.0000 H   0  0  0  0  0  0  0  0  0  0  0  0
    4.6211   -6.2139    0.0000 H   0  0  0  0  0  0  0  0  0  0  0  0
    3.3364   -5.3347    0.0000 H   0  0  0  0  0  0  0  0  0  0  0  0
    3.8498   -4.1374    0.0000 H   0  0  0  0  0  0  0  0  0  0  0  0
    2.9087   -3.6164    0.0000 H   0  0  0  0  0  0  0  0  0  0  0  0
    2.9086   -2.4012    0.0000 H   0  0  0  0  0  0  0  0  0  0  0  0
    2.9677   -1.8727    0.0000 H   0  0  0  0  0  0  0  0  0  0  0  0
    3.5039   -1.2241    0.0000 H   0  0  0  0  0  0  0  0  0  0  0  0
    2.2436   -0.5564    0.0000 H   0  0  0  0  0  0  0  0  0  0  0  0
    2.7984   -1.3611    0.0000 H   0  0  0  0  0  0  0  0  0  0  0  0
    4.6665   -0.8292    0.0000 H   0  0  0  0  0  0  0  0  0  0  0  0
    4.4601   -1.7369    0.0000 H   0  0  0  0  0  0  0  0  0  0  0  0
    1.9442   -1.8129    0.0000 H   0  0  0  0  0  0  0  0  0  0  0  0
    1.8842   -0.8037    0.0000 H   0  0  0  0  0  0  0  0  0  0  0  0
    3.2836    0.8854    0.0000 H   0  0  0  0  0  0  0  0  0  0  0  0
    1.5456    1.5288    0.0000 H   0  0  0  0  0  0  0  0  0  0  0  0
    2.6003    1.7089    0.0000 H   0  0  0  0  0  0  0  0  0  0  0  0
    0.6999   -1.0052    0.0000 H   0  0  0  0  0  0  0  0  0  0  0  0
    2.5099    1.1717    0.0000 H   0  0  0  0  0  0  0  0  0  0  0  0
    0.7719    1.8151    0.0000 H   0  0  0  0  0  0  0  0  0  0  0  0
    1.8266    1.9952    0.0000 H   0  0  0  0  0  0  0  0  0  0  0  0
   -0.1723   -0.7357    0.0000 H   0  0  0  0  0  0  0  0  0  0  0  0
    1.5657   -1.3791    0.0000 H   0  0  0  0  0  0  0  0  0  0  0  0
    0.5110   -1.5592    0.0000 H   0  0  0  0  0  0  0  0  0  0  0  0
    0.2151    1.5591    0.0000 H   0  0  0  0  0  0  0  0  0  0  0  0
   -0.4283   -0.1789    0.0000 H   0  0  0  0  0  0  0  0  0  0  0  0
   -0.6084    0.8758    0.0000 H   0  0  0  0  0  0  0  0  0  0  0  0
    2.7049    2.5665    0.0000 H   0  0  0  0  0  0  0  0  0  0  0  0
    1.7936    0.9527    0.0000 H   0  0  0  0  0  0  0  0  0  0  0  0
    1.7834    2.0227    0.0000 H   0  0  0  0  0  0  0  0  0  0  0  0
  2  1  1  6  0  0  0
  2  3  1  0  0  0  0
  2 16  1  0  0  0  0
  2 20  1  0  0  0  0
  3  4  1  0  0  0  0
  4  5  2  0  0  0  0
  4 35  1  0  0  0  0
  5  6  1  0  0  0  0
  6  7  1  0  0  0  0
  6 33  2  0  0  0  0
  7 75  1  0  0  0  0
  7 76  1  0  0  0  0
  8  7  1  0  0  0  0
  8  9  1  0  0  0  0
  8 77  1  1  0  0  0
  9 10  1  0  0  0  0
  9 14  1  0  0  0  0
 10 11  1  0  0  0  0
 10 78  1  0  0  0  0
 10 79  1  0  0  0  0
 11 12  1  0  0  0  0
 11 13  1  0  0  0  0
 11 80  1  0  0  0  0
 12 13  1  0  0  0  0
 12 81  1  0  0  0  0
 12 82  1  0  0  0  0
 13 83  1  0  0  0  0
 13 84  1  0  0  0  0
 14 15  1  0  0  0  0
 14 85  1  0  0  0  0
 14 86  1  0  0  0  0
 15 87  1  0  0  0  0
 15 88  1  0  0  0  0
 16 15  1  0  0  0  0
 16  5  1  1  0  0  0
 16 17  1  0  0  0  0
 17  8  1  0  0  0  0
 17 18  1  1  0  0  0
 17 25  1  0  0  0  0
 18 19  1  0  0  0  0
 18 89  1  0  0  0  0
 18 90  1  0  0  0  0
 19 91  1  0  0  0  0
 19 92  1  0  0  0  0
 20 19  1  0  0  0  0
 20 21  1  1  0  0  0
 20 23  1  0  0  0  0
 21 22  1  0  0  0  0
 22 93  1  0  0  0  0
 22 94  1  0  0  0  0
 22 95  1  0  0  0  0
 23 24  1  6  0  0  0
 23 25  1  0  0  0  0
 23 26  1  0  0  0  0
 25 96  1  0  0  0  0
 25 97  1  0  0  0  0
 26 27  1  0  0  0  0
 26 28  1  1  0  0  0
 26 29  1  0  0  0  0
 27 98  1  0  0  0  0
 27 99  1  0  0  0  0
 27100  1  0  0  0  0
 28101  1  0  0  0  0
 29 30  1  0  0  0  0
 29 31  1  0  0  0  0
 29 32  1  0  0  0  0
 30102  1  0  0  0  0
 30103  1  0  0  0  0
 30104  1  0  0  0  0
 31105  1  0  0  0  0
 31106  1  0  0  0  0
 31107  1  0  0  0  0
 32108  1  0  0  0  0
 32109  1  0  0  0  0
 32110  1  0  0  0  0
 33 34  1  0  0  0  0
 33111  1  0  0  0  0
 34 35  2  0  0  0  0
 34112  1  0  0  0  0
 35 36  1  0  0  0  0
 36 37  1  0  0  0  0
 37 38  1  0  0  0  0
 37113  1  0  0  0  0
 37114  1  0  0  0  0
 38 39  1  0  0  0  0
 38115  1  0  0  0  0
 38116  1  0  0  0  0
 39 40  1  0  0  0  0
 40 41  2  0  0  0  0
 40 55  1  0  0  0  0
 41 42  1  0  0  0  0
 41117  1  0  0  0  0
 42 43  2  0  0  0  0
 42118  1  0  0  0  0
 43 44  1  0  0  0  0
 43 54  1  0  0  0  0
 44119  1  0  0  0  0
 44120  1  0  0  0  0
 45 44  1  0  0  0  0
 45 46  1  0  0  0  0
 45121  1  6  0  0  0
 46 47  1  0  0  0  0
 46 51  1  0  0  0  0
 47 48  1  0  0  0  0
 47122  1  0  0  0  0
 47123  1  0  0  0  0
 48 49  1  0  0  0  0
 48 50  1  0  0  0  0
 48124  1  0  0  0  0
 49 50  1  0  0  0  0
 49125  1  0  0  0  0
 49126  1  0  0  0  0
 50127  1  0  0  0  0
 50128  1  0  0  0  0
 51 52  1  0  0  0  0
 51129  1  0  0  0  0
 51130  1  0  0  0  0
 52131  1  0  0  0  0
 52132  1  0  0  0  0
 53 52  1  0  0  0  0
 53 54  1  6  0  0  0
 53 57  1  0  0  0  0
 53 62  1  0  0  0  0
 54 55  2  0  0  0  0
 55 56  1  0  0  0  0
 57 56  1  0  0  0  0
 57 58  1  1  0  0  0
 57 59  1  0  0  0  0
 59 60  1  0  0  0  0
 59 64  1  0  0  0  0
 59 73  1  6  0  0  0
 60 61  1  0  0  0  0
 60133  1  0  0  0  0
 60134  1  0  0  0  0
 61135  1  0  0  0  0
 61136  1  0  0  0  0
 62 61  1  6  0  0  0
 62 45  1  0  0  0  0
 62 63  1  0  0  0  0
 63137  1  0  0  0  0
 63138  1  0  0  0  0
 64 63  1  0  0  0  0
 64 65  1  1  0  0  0
 64 66  1  0  0  0  0
 66 67  1  0  0  0  0
 66 68  1  1  0  0  0
 66 69  1  0  0  0  0
 67139  1  0  0  0  0
 67140  1  0  0  0  0
 67141  1  0  0  0  0
 68142  1  0  0  0  0
 69 70  1  0  0  0  0
 69 71  1  0  0  0  0
 69 72  1  0  0  0  0
 70143  1  0  0  0  0
 70144  1  0  0  0  0
 70145  1  0  0  0  0
 71146  1  0  0  0  0
 71147  1  0  0  0  0
 71148  1  0  0  0  0
 72149  1  0  0  0  0
 72150  1  0  0  0  0
 72151  1  0  0  0  0
 73 74  1  0  0  0  0
 74152  1  0  0  0  0
 74153  1  0  0  0  0
 74154  1  0  0  0  0
M  END
>  <DRUGBANK_ID>
DB16072

>  <COMMON_NAME>
ORP-101

>  <CAS_NUMBER>
1820753-68-1

>  <UNII>
SE6KE496VO

>  <SYNONYMS>
Buprenorphine dimer

$$$$
