7DE
 OpenBabel10282417072D

 36 37  0  0  0  0  0  0  0  0999 V2000
   -2.4551    3.7610    0.0000 O   0  0  0  0  0  0  0  0  0  0  0  0
   -2.4551    2.9360    0.0000 N   0  3  0  0  0  0  0  0  0  0  0  0
   -3.1696    2.5235    0.0000 O   0  5  0  0  0  0  0  0  0  0  0  0
   -1.7407    2.5235    0.0000 C   0  0  0  0  0  0  0  0  0  0  0  0
   -1.0262    2.9360    0.0000 C   0  0  0  0  0  0  0  0  0  0  0  0
   -1.7407    1.6985    0.0000 C   0  0  0  0  0  0  0  0  0  0  0  0
   -1.0262    1.2860    0.0000 C   0  0  0  0  0  0  0  0  0  0  0  0
   -0.3117    1.6985    0.0000 C   0  0  0  0  0  0  0  0  0  0  0  0
   -0.3117    2.5235    0.0000 C   0  0  0  0  0  0  0  0  0  0  0  0
   -1.0262    0.4610    0.0000 N   0  0  0  0  0  0  0  0  0  0  0  0
   -0.3588   -0.0239    0.0000 C   0  0  0  0  0  0  0  0  0  0  0  0
    0.4259    0.2311    0.0000 C   0  0  0  0  0  0  0  0  0  0  0  0
   -0.6137   -0.8085    0.0000 C   0  0  0  0  0  0  0  0  0  0  0  0
   -1.4387   -0.8085    0.0000 C   0  0  0  0  0  0  0  0  0  0  0  0
   -1.6936   -0.0239    0.0000 N   0  0  0  0  0  0  0  0  0  0  0  0
   -1.9236   -1.4759    0.0000 C   0  0  0  0  0  0  0  0  0  0  0  0
   -0.1288   -1.4759    0.0000 C   0  0  0  0  0  0  0  0  0  0  0  0
   -0.4643   -2.2296    0.0000 O   0  0  0  0  0  0  0  0  0  0  0  0
    0.6917   -1.3897    0.0000 O   0  0  0  0  0  0  0  0  0  0  0  0
    1.1766   -2.0571    0.0000 C   0  0  0  0  0  0  0  0  0  0  0  0
    1.9971   -1.9709    0.0000 C   0  0  0  0  0  0  0  0  0  0  0  0
   -1.0262    3.9680    0.0000 H   0  0  0  0  0  0  0  0  0  0  0  0
   -2.6344    1.1825    0.0000 H   0  0  0  0  0  0  0  0  0  0  0  0
    0.5820    1.1825    0.0000 H   0  0  0  0  0  0  0  0  0  0  0  0
    0.5820    3.0395    0.0000 H   0  0  0  0  0  0  0  0  0  0  0  0
    1.2211   -0.4848    0.0000 H   0  0  0  0  0  0  0  0  0  0  0  0
    0.6483    1.2777    0.0000 H   0  0  0  0  0  0  0  0  0  0  0  0
    1.4435    0.5618    0.0000 H   0  0  0  0  0  0  0  0  0  0  0  0
   -2.9877   -1.3640    0.0000 H   0  0  0  0  0  0  0  0  0  0  0  0
   -1.4884   -2.4534    0.0000 H   0  0  0  0  0  0  0  0  0  0  0  0
   -2.5525   -2.3415    0.0000 H   0  0  0  0  0  0  0  0  0  0  0  0
    0.7414   -3.0346    0.0000 H   0  0  0  0  0  0  0  0  0  0  0  0
    1.8055   -2.9228    0.0000 H   0  0  0  0  0  0  0  0  0  0  0  0
    2.6260   -2.8366    0.0000 H   0  0  0  0  0  0  0  0  0  0  0  0
    2.4324   -0.9934    0.0000 H   0  0  0  0  0  0  0  0  0  0  0  0
    3.0612   -1.8591    0.0000 H   0  0  0  0  0  0  0  0  0  0  0  0
  1  2  2  0  0  0  0
  2  3  1  0  0  0  0
  2  4  1  0  0  0  0
  4  5  2  0  0  0  0
  4  6  1  0  0  0  0
  5  9  1  0  0  0  0
  5 22  1  0  0  0  0
  6  7  2  0  0  0  0
  6 23  1  0  0  0  0
  7  8  1  0  0  0  0
  7 10  1  0  0  0  0
  8  9  2  0  0  0  0
  8 24  1  0  0  0  0
  9 25  1  0  0  0  0
 10 11  1  0  0  0  0
 10 15  1  0  0  0  0
 11 12  1  0  0  0  0
 11 13  2  0  0  0  0
 12 26  1  0  0  0  0
 12 27  1  0  0  0  0
 12 28  1  0  0  0  0
 13 14  1  0  0  0  0
 13 17  1  0  0  0  0
 14 15  2  0  0  0  0
 14 16  1  0  0  0  0
 16 29  1  0  0  0  0
 16 30  1  0  0  0  0
 16 31  1  0  0  0  0
 17 18  2  0  0  0  0
 17 19  1  0  0  0  0
 19 20  1  0  0  0  0
 20 21  1  0  0  0  0
 20 32  1  0  0  0  0
 20 33  1  0  0  0  0
 21 34  1  0  0  0  0
 21 35  1  0  0  0  0
 21 36  1  0  0  0  0
M  CHG  2   2   1   3  -1
M  END
>  <DRUGBANK_ID>
DB01959

>  <SECONDARY_ACCESSION_NUMBERS>
EXPT00309

>  <COMMON_NAME>
3,5-Dimethyl-1-(3-Nitrophenyl)-1h-Pyrazole-4-Carboxylic Acid Ethyl Ester

$$$$
