177
 OpenBabel10282417072D

 61 63  0  0  1  0  0  0  0  0999 V2000
    2.0930    1.2209    0.0000 O   0  0  0  0  0  0  0  0  0  0  0  0
    4.9509   -0.4292    0.0000 O   0  0  0  0  0  0  0  0  0  0  0  0
    2.8075   -0.0167    0.0000 O   0  0  0  0  0  0  0  0  0  0  0  0
    4.2365    0.8084    0.0000 N   0  0  0  0  0  0  0  0  0  0  0  0
    7.8559    1.2933    0.0000 N   0  0  0  0  0  0  0  0  0  0  0  0
    9.1909    1.2933    0.0000 N   0  0  0  0  0  0  0  0  0  0  0  0
    8.1109    2.0779    0.0000 N   0  0  0  0  0  0  0  0  0  0  0  0
    8.9359    2.0779    0.0000 N   0  0  0  0  0  0  0  0  0  0  0  0
    3.5220    1.2209    0.0000 C   0  0  1  0  0  0  0  0  0  0  0  0
    3.5220    2.0459    0.0000 C   0  0  0  0  0  0  0  0  0  0  0  0
    4.9509    1.2209    0.0000 C   0  0  0  0  0  0  0  0  0  0  0  0
    4.2365   -0.0167    0.0000 C   0  0  0  0  0  0  0  0  0  0  0  0
    2.8075    2.4584    0.0000 C   0  0  0  0  0  0  0  0  0  0  0  0
    4.2365    2.4584    0.0000 C   0  0  0  0  0  0  0  0  0  0  0  0
    3.5220   -0.4292    0.0000 C   0  0  0  0  0  0  0  0  0  0  0  0
    2.8075    0.8084    0.0000 C   0  0  0  0  0  0  0  0  0  0  0  0
    5.6655    0.8084    0.0000 C   0  0  0  0  0  0  0  0  0  0  0  0
    3.5220   -1.2542    0.0000 C   0  0  0  0  0  0  0  0  0  0  0  0
    2.8075   -1.6667    0.0000 C   0  0  0  0  0  0  0  0  0  0  0  0
    6.3799    1.2209    0.0000 C   0  0  0  0  0  0  0  0  0  0  0  0
    5.6655   -0.0167    0.0000 C   0  0  0  0  0  0  0  0  0  0  0  0
    7.0944   -0.0167    0.0000 C   0  0  0  0  0  0  0  0  0  0  0  0
    7.0944    0.8084    0.0000 C   0  0  0  0  0  0  0  0  0  0  0  0
    6.3799   -0.4292    0.0000 C   0  0  0  0  0  0  0  0  0  0  0  0
    2.8075   -2.4917    0.0000 C   0  0  0  0  0  0  0  0  0  0  0  0
    7.8089   -0.4292    0.0000 C   0  0  0  0  0  0  0  0  0  0  0  0
    8.5234   -0.0167    0.0000 C   0  0  0  0  0  0  0  0  0  0  0  0
    7.8089   -1.2542    0.0000 C   0  0  0  0  0  0  0  0  0  0  0  0
    9.2379   -0.4292    0.0000 C   0  0  0  0  0  0  0  0  0  0  0  0
    8.5234   -1.6667    0.0000 C   0  0  0  0  0  0  0  0  0  0  0  0
    8.5234    0.8084    0.0000 C   0  0  0  0  0  0  0  0  0  0  0  0
    9.2379   -1.2542    0.0000 C   0  0  0  0  0  0  0  0  0  0  0  0
    2.0930    2.1579    0.0000 H   0  0  0  0  0  0  0  0  0  0  0  0
    7.5323    2.8744    0.0000 H   0  0  0  0  0  0  0  0  0  0  0  0
    4.4486    1.7559    0.0000 H   0  0  0  0  0  0  0  0  0  0  0  0
    3.5220    3.1159    0.0000 H   0  0  0  0  0  0  0  0  0  0  0  0
    4.9508    2.2909    0.0000 H   0  0  0  0  0  0  0  0  0  0  0  0
    5.8775    1.7560    0.0000 H   0  0  0  0  0  0  0  0  0  0  0  0
    2.8075    3.5284    0.0000 H   0  0  0  0  0  0  0  0  0  0  0  0
    1.8809    1.9234    0.0000 H   0  0  0  0  0  0  0  0  0  0  0  0
    1.8808    2.9934    0.0000 H   0  0  0  0  0  0  0  0  0  0  0  0
    5.1631    1.9234    0.0000 H   0  0  0  0  0  0  0  0  0  0  0  0
    4.2365    3.5284    0.0000 H   0  0  0  0  0  0  0  0  0  0  0  0
    5.1632    2.9934    0.0000 H   0  0  0  0  0  0  0  0  0  0  0  0
    2.5954    0.1058    0.0000 H   0  0  0  0  0  0  0  0  0  0  0  0
    2.5954   -0.9642    0.0000 H   0  0  0  0  0  0  0  0  0  0  0  0
    4.4486   -1.7892    0.0000 H   0  0  0  0  0  0  0  0  0  0  0  0
    3.5220   -2.3242    0.0000 H   0  0  0  0  0  0  0  0  0  0  0  0
    1.8809   -1.1317    0.0000 H   0  0  0  0  0  0  0  0  0  0  0  0
    1.8809   -2.2017    0.0000 H   0  0  0  0  0  0  0  0  0  0  0  0
    6.3799    2.2529    0.0000 H   0  0  0  0  0  0  0  0  0  0  0  0
    4.7718   -0.5327    0.0000 H   0  0  0  0  0  0  0  0  0  0  0  0
    7.9881    1.3244    0.0000 H   0  0  0  0  0  0  0  0  0  0  0  0
    6.3799   -1.4612    0.0000 H   0  0  0  0  0  0  0  0  0  0  0  0
    1.8809   -3.0267    0.0000 H   0  0  0  0  0  0  0  0  0  0  0  0
    3.7341   -3.0267    0.0000 H   0  0  0  0  0  0  0  0  0  0  0  0
    2.8075   -3.5617    0.0000 H   0  0  0  0  0  0  0  0  0  0  0  0
    6.9152   -1.7702    0.0000 H   0  0  0  0  0  0  0  0  0  0  0  0
   10.1316    0.0868    0.0000 H   0  0  0  0  0  0  0  0  0  0  0  0
    8.5234   -2.6987    0.0000 H   0  0  0  0  0  0  0  0  0  0  0  0
   10.1316   -1.7702    0.0000 H   0  0  0  0  0  0  0  0  0  0  0  0
  1 16  1  0  0  0  0
  1 33  1  0  0  0  0
  2 12  2  0  0  0  0
  3 16  2  0  0  0  0
  4 11  1  0  0  0  0
  4 12  1  0  0  0  0
  5  7  1  0  0  0  0
  5 31  2  0  0  0  0
  6  8  2  0  0  0  0
  6 31  1  0  0  0  0
  7  8  1  0  0  0  0
  7 34  1  0  0  0  0
  9  4  1  0  0  0  0
  9 10  1  0  0  0  0
  9 16  1  0  0  0  0
  9 35  1  1  0  0  0
 10 13  1  0  0  0  0
 10 14  1  0  0  0  0
 10 36  1  0  0  0  0
 11 17  1  0  0  0  0
 11 37  1  0  0  0  0
 11 38  1  0  0  0  0
 12 15  1  0  0  0  0
 13 39  1  0  0  0  0
 13 40  1  0  0  0  0
 13 41  1  0  0  0  0
 14 42  1  0  0  0  0
 14 43  1  0  0  0  0
 14 44  1  0  0  0  0
 15 18  1  0  0  0  0
 15 45  1  0  0  0  0
 15 46  1  0  0  0  0
 17 20  2  0  0  0  0
 17 21  1  0  0  0  0
 18 19  1  0  0  0  0
 18 47  1  0  0  0  0
 18 48  1  0  0  0  0
 19 25  1  0  0  0  0
 19 49  1  0  0  0  0
 19 50  1  0  0  0  0
 20 23  1  0  0  0  0
 20 51  1  0  0  0  0
 21 24  2  0  0  0  0
 21 52  1  0  0  0  0
 22 23  2  0  0  0  0
 22 24  1  0  0  0  0
 22 26  1  0  0  0  0
 23 53  1  0  0  0  0
 24 54  1  0  0  0  0
 25 55  1  0  0  0  0
 25 56  1  0  0  0  0
 25 57  1  0  0  0  0
 26 27  1  0  0  0  0
 26 28  2  0  0  0  0
 27 29  2  0  0  0  0
 27 31  1  0  0  0  0
 28 30  1  0  0  0  0
 28 58  1  0  0  0  0
 29 32  1  0  0  0  0
 29 59  1  0  0  0  0
 30 32  2  0  0  0  0
 30 60  1  0  0  0  0
 32 61  1  0  0  0  0
M  END
>  <DRUGBANK_ID>
DB00177

>  <SECONDARY_ACCESSION_NUMBERS>
APRD00133

>  <COMMON_NAME>
Valsartan

>  <CAS_NUMBER>
137862-53-4

>  <UNII>
80M03YXJ7I

>  <SYNONYMS>
(S)-N-Valeryl-N-{[2'-(1H-tetrazol-5-yl)biphenyl-4-yl]-methyl}-valine; N-(P-(O-1H-Tetrazol-5-ylphenyl)benzyl)-N-valeryl-L-valine; N-pentanoyl-N-{[2'-(1H-tetrazol-5-yl)biphenyl-4-yl]methyl}-L-valine; Valsartan

$$$$
