B29
 OpenBabel10282417072D

 48 51  0  0  0  0  0  0  0  0999 V2000
    3.0459   -0.1642    0.0000 C   0  0  0  0  0  0  0  0  0  0  0  0
    3.5979   -0.7773    0.0000 C   0  0  0  0  0  0  0  0  0  0  0  0
    4.4049   -0.6058    0.0000 C   0  0  0  0  0  0  0  0  0  0  0  0
    4.6598    0.1788    0.0000 C   0  0  0  0  0  0  0  0  0  0  0  0
    4.1078    0.7919    0.0000 C   0  0  0  0  0  0  0  0  0  0  0  0
    3.3008    0.6204    0.0000 C   0  0  0  0  0  0  0  0  0  0  0  0
    2.6334    1.1053    0.0000 O   0  0  0  0  0  0  0  0  0  0  0  0
    1.9660    0.6204    0.0000 C   0  0  0  0  0  0  0  0  0  0  0  0
    2.2209   -0.1642    0.0000 C   0  0  0  0  0  0  0  0  0  0  0  0
    1.6689   -0.7773    0.0000 C   0  0  0  0  0  0  0  0  0  0  0  0
    0.8619   -0.6058    0.0000 C   0  0  0  0  0  0  0  0  0  0  0  0
    0.6070    0.1788    0.0000 C   0  0  0  0  0  0  0  0  0  0  0  0
    1.1590    0.7919    0.0000 C   0  0  0  0  0  0  0  0  0  0  0  0
    0.9040    1.5766    0.0000 C   0  0  0  0  0  0  0  0  0  0  0  0
    1.4561    2.1897    0.0000 C   0  0  0  0  0  0  0  0  0  0  0  0
    0.0971    1.7481    0.0000 C   0  0  0  0  0  0  0  0  0  0  0  0
   -0.1579    2.5327    0.0000 C   0  0  0  0  0  0  0  0  0  0  0  0
    0.3942    3.1458    0.0000 C   0  0  0  0  0  0  0  0  0  0  0  0
    1.2011    2.9743    0.0000 C   0  0  0  0  0  0  0  0  0  0  0  0
    1.7532    3.5874    0.0000 C   0  0  0  0  0  0  0  0  0  0  0  0
    1.4982    4.3720    0.0000 C   0  0  0  0  0  0  0  0  0  0  0  0
    2.2829    4.6269    0.0000 P   0  0  0  0  0  0  0  0  0  0  0  0
    3.0675    4.8819    0.0000 O   0  0  0  0  0  0  0  0  0  0  0  0
    2.0279    5.4116    0.0000 O   0  0  0  0  0  0  0  0  0  0  0  0
    2.5378    3.8423    0.0000 O   0  0  0  0  0  0  0  0  0  0  0  0
    0.7136    4.1171    0.0000 P   0  0  0  0  0  0  0  0  0  0  0  0
    0.4587    4.9017    0.0000 O   0  0  0  0  0  0  0  0  0  0  0  0
   -0.0710    3.8621    0.0000 O   0  0  0  0  0  0  0  0  0  0  0  0
    0.9686    3.3324    0.0000 O   0  0  0  0  0  0  0  0  0  0  0  0
    1.2433    5.1566    0.0000 O   0  0  0  0  0  0  0  0  0  0  0  0
    3.2790   -1.7588    0.0000 H   0  0  0  0  0  0  0  0  0  0  0  0
    5.0954   -1.3727    0.0000 H   0  0  0  0  0  0  0  0  0  0  0  0
    5.6692    0.3934    0.0000 H   0  0  0  0  0  0  0  0  0  0  0  0
    4.4267    1.7734    0.0000 H   0  0  0  0  0  0  0  0  0  0  0  0
    1.9878   -1.7588    0.0000 H   0  0  0  0  0  0  0  0  0  0  0  0
    0.1714   -1.3727    0.0000 H   0  0  0  0  0  0  0  0  0  0  0  0
   -0.4024    0.3934    0.0000 H   0  0  0  0  0  0  0  0  0  0  0  0
    2.4656    1.9751    0.0000 H   0  0  0  0  0  0  0  0  0  0  0  0
   -0.5934    0.9811    0.0000 H   0  0  0  0  0  0  0  0  0  0  0  0
   -1.1674    2.7473    0.0000 H   0  0  0  0  0  0  0  0  0  0  0  0
    0.0753    4.1273    0.0000 H   0  0  0  0  0  0  0  0  0  0  0  0
    2.7998    3.3649    0.0000 H   0  0  0  0  0  0  0  0  0  0  0  0
    2.4691    4.3826    0.0000 H   0  0  0  0  0  0  0  0  0  0  0  0
    2.6769    6.1325    0.0000 H   0  0  0  0  0  0  0  0  0  0  0  0
    1.8887    3.1215    0.0000 H   0  0  0  0  0  0  0  0  0  0  0  0
   -0.7919    4.5111    0.0000 H   0  0  0  0  0  0  0  0  0  0  0  0
    0.3196    2.6115    0.0000 H   0  0  0  0  0  0  0  0  0  0  0  0
    1.8924    5.8774    0.0000 H   0  0  0  0  0  0  0  0  0  0  0  0
  1  6  2  0  0  0  0
  1  2  1  0  0  0  0
  1  9  1  0  0  0  0
  2  3  2  0  0  0  0
  2 31  1  0  0  0  0
  3  4  1  0  0  0  0
  3 32  1  0  0  0  0
  4  5  2  0  0  0  0
  4 33  1  0  0  0  0
  5  6  1  0  0  0  0
  5 34  1  0  0  0  0
  6  7  1  0  0  0  0
  7  8  1  0  0  0  0
  8  9  2  0  0  0  0
  8 13  1  0  0  0  0
  9 10  1  0  0  0  0
 10 11  2  0  0  0  0
 10 35  1  0  0  0  0
 11 12  1  0  0  0  0
 11 36  1  0  0  0  0
 12 13  2  0  0  0  0
 12 37  1  0  0  0  0
 13 14  1  0  0  0  0
 14 16  2  0  0  0  0
 14 15  1  0  0  0  0
 15 19  2  0  0  0  0
 15 38  1  0  0  0  0
 16 17  1  0  0  0  0
 16 39  1  0  0  0  0
 17 18  2  0  0  0  0
 17 40  1  0  0  0  0
 18 19  1  0  0  0  0
 18 41  1  0  0  0  0
 19 20  1  0  0  0  0
 20 21  1  0  0  0  0
 20 42  1  0  0  0  0
 20 43  1  0  0  0  0
 21 22  1  0  0  0  0
 21 26  1  0  0  0  0
 21 30  1  0  0  0  0
 22 23  2  0  0  0  0
 22 25  1  0  0  0  0
 22 24  1  0  0  0  0
 24 44  1  0  0  0  0
 25 45  1  0  0  0  0
 26 27  2  0  0  0  0
 26 28  1  0  0  0  0
 26 29  1  0  0  0  0
 28 46  1  0  0  0  0
 29 47  1  0  0  0  0
 30 48  1  0  0  0  0
M  END
>  <DRUGBANK_ID>
DB07410

>  <COMMON_NAME>
[2-(3-DIBENZOFURAN-4-YL-PHENYL)-1-HYDROXY-1-PHOSPHONO-ETHYL]-PHOSPHONIC ACID

$$$$
