
 OpenBabel10282417072D

114113  0  0  0  0  0  0  0  0999 V2000
    1.0718    0.8251    0.0000 C   0  0  0  0  0  0  0  0  0  0  0  0
    0.3572    1.2376    0.0000 C   0  0  0  0  0  0  0  0  0  0  0  0
   -0.3571    0.8251    0.0000 C   0  0  0  0  0  0  0  0  0  0  0  0
    2.5006    0.8251    0.0000 C   0  0  0  0  0  0  0  0  0  0  0  0
    1.7861    1.2376    0.0000 C   0  0  0  0  0  0  0  0  0  0  0  0
    3.9295    0.8251    0.0000 C   0  0  2  0  0  0  0  0  0  0  0  0
    3.2149    1.2376    0.0000 C   0  0  0  0  0  0  0  0  0  0  0  0
    4.6438    1.2376    0.0000 C   0  0  2  0  0  0  0  0  0  0  0  0
    5.3582    0.8251    0.0000 C   0  0  2  0  0  0  0  0  0  0  0  0
    6.0728    1.2376    0.0000 C   0  0  0  0  0  0  0  0  0  0  0  0
    4.6438    2.0624    0.0000 O   0  0  0  0  0  0  0  0  0  0  0  0
    5.3582    0.0000    0.0000 N   0  0  0  0  0  2  0  0  0  0  0  0
    6.7870    0.8249    0.0000 O   0  0  0  0  0  0  0  0  0  0  0  0
   -1.0716    1.2376    0.0000 C   0  0  0  0  0  0  0  0  0  0  0  0
   -1.7859    0.8250    0.0000 C   0  0  0  0  0  0  0  0  0  0  0  0
   -2.5004    1.2375    0.0000 C   0  0  0  0  0  0  0  0  0  0  0  0
   -3.2148    0.8250    0.0000 C   0  0  0  0  0  0  0  0  0  0  0  0
   -3.9293    1.2374    0.0000 C   0  0  0  0  0  0  0  0  0  0  0  0
   -4.6436    0.8249    0.0000 C   0  0  0  0  0  0  0  0  0  0  0  0
   -5.3581    1.2374    0.0000 C   0  0  0  0  0  0  0  0  0  0  0  0
   -6.0726    0.8249    0.0000 C   0  0  0  0  0  0  0  0  0  0  0  0
    5.3582   -0.8249    0.0000 C   0  0  0  0  0  0  0  0  0  0  0  0
    6.0727   -1.2374    0.0000 O   0  0  0  0  0  0  0  0  0  0  0  0
    4.6437   -1.2374    0.0000 C   0  0  3  0  0  0  0  0  0  0  0  0
    3.9294   -0.8249    0.0000 C   0  0  0  0  0  0  0  0  0  0  0  0
    3.2149   -1.2374    0.0000 C   0  0  0  0  0  0  0  0  0  0  0  0
    2.5005   -0.8249    0.0000 C   0  0  0  0  0  0  0  0  0  0  0  0
    1.7860   -1.2374    0.0000 C   0  0  0  0  0  0  0  0  0  0  0  0
    1.0717   -0.8249    0.0000 C   0  0  0  0  0  0  0  0  0  0  0  0
    0.3572   -1.2374    0.0000 C   0  0  0  0  0  0  0  0  0  0  0  0
   -0.3572   -0.8249    0.0000 C   0  0  0  0  0  0  0  0  0  0  0  0
   -1.0716   -1.2374    0.0000 C   0  0  0  0  0  0  0  0  0  0  0  0
   -1.7860   -0.8249    0.0000 C   0  0  0  0  0  0  0  0  0  0  0  0
   -2.5005   -1.2374    0.0000 C   0  0  0  0  0  0  0  0  0  0  0  0
   -3.2149   -0.8249    0.0000 C   0  0  0  0  0  0  0  0  0  0  0  0
   -3.9293   -1.2374    0.0000 C   0  0  0  0  0  0  0  0  0  0  0  0
   -4.6437   -0.8249    0.0000 C   0  0  0  0  0  0  0  0  0  0  0  0
   -5.3582   -1.2374    0.0000 C   0  0  0  0  0  0  0  0  0  0  0  0
   -6.0726   -0.8249    0.0000 C   0  0  0  0  0  0  0  0  0  0  0  0
   -6.7870   -1.2374    0.0000 C   0  0  0  0  0  0  0  0  0  0  0  0
    4.6437   -2.0624    0.0000 O   0  0  0  0  0  0  0  0  0  0  0  0
    3.9295    0.0001    0.0000 O   0  0  0  0  0  0  0  0  0  0  0  0
    1.0719   -0.2449    0.0000 H   0  0  0  0  0  0  0  0  0  0  0  0
    1.9985    0.2902    0.0000 H   0  0  0  0  0  0  0  0  0  0  0  0
    0.3571    2.3076    0.0000 H   0  0  0  0  0  0  0  0  0  0  0  0
   -0.5695    1.7725    0.0000 H   0  0  0  0  0  0  0  0  0  0  0  0
   -0.3570   -0.2449    0.0000 H   0  0  0  0  0  0  0  0  0  0  0  0
   -1.2837    0.2901    0.0000 H   0  0  0  0  0  0  0  0  0  0  0  0
    2.5007   -0.2449    0.0000 H   0  0  0  0  0  0  0  0  0  0  0  0
    3.4273    0.2902    0.0000 H   0  0  0  0  0  0  0  0  0  0  0  0
    1.7860    2.3076    0.0000 H   0  0  0  0  0  0  0  0  0  0  0  0
    0.8594    1.7725    0.0000 H   0  0  0  0  0  0  0  0  0  0  0  0
    3.0029    0.2901    0.0000 H   0  0  0  0  0  0  0  0  0  0  0  0
    3.2148    2.3076    0.0000 H   0  0  0  0  0  0  0  0  0  0  0  0
    2.2882    1.7725    0.0000 H   0  0  0  0  0  0  0  0  0  0  0  0
    3.7171    1.7726    0.0000 H   0  0  0  0  0  0  0  0  0  0  0  0
    4.4315    0.2901    0.0000 H   0  0  0  0  0  0  0  0  0  0  0  0
    6.0730    2.3076    0.0000 H   0  0  0  0  0  0  0  0  0  0  0  0
    6.9996    1.7723    0.0000 H   0  0  0  0  0  0  0  0  0  0  0  0
    5.4838    2.5474    0.0000 H   0  0  0  0  0  0  0  0  0  0  0  0
    6.7866   -0.1451    0.0000 H   0  0  0  0  0  0  0  0  0  0  0  0
   -1.0717    2.3076    0.0000 H   0  0  0  0  0  0  0  0  0  0  0  0
   -1.9983    1.7725    0.0000 H   0  0  0  0  0  0  0  0  0  0  0  0
   -1.7858   -0.2450    0.0000 H   0  0  0  0  0  0  0  0  0  0  0  0
   -2.7125    0.2899    0.0000 H   0  0  0  0  0  0  0  0  0  0  0  0
   -2.5004    2.3075    0.0000 H   0  0  0  0  0  0  0  0  0  0  0  0
   -3.4271    1.7725    0.0000 H   0  0  0  0  0  0  0  0  0  0  0  0
   -3.2147   -0.2450    0.0000 H   0  0  0  0  0  0  0  0  0  0  0  0
   -4.1414    0.2899    0.0000 H   0  0  0  0  0  0  0  0  0  0  0  0
   -3.9294    2.3074    0.0000 H   0  0  0  0  0  0  0  0  0  0  0  0
   -4.8560    1.7723    0.0000 H   0  0  0  0  0  0  0  0  0  0  0  0
   -4.6435   -0.2451    0.0000 H   0  0  0  0  0  0  0  0  0  0  0  0
   -5.5702    0.2899    0.0000 H   0  0  0  0  0  0  0  0  0  0  0  0
   -5.3581    2.3074    0.0000 H   0  0  0  0  0  0  0  0  0  0  0  0
   -6.2847    1.7724    0.0000 H   0  0  0  0  0  0  0  0  0  0  0  0
   -6.9992    1.3599    0.0000 H   0  0  0  0  0  0  0  0  0  0  0  0
   -6.0726   -0.2451    0.0000 H   0  0  0  0  0  0  0  0  0  0  0  0
   -6.9993    0.2899    0.0000 H   0  0  0  0  0  0  0  0  0  0  0  0
    4.6438   -0.1674    0.0000 H   0  0  0  0  0  0  0  0  0  0  0  0
    3.9295    0.2451    0.0000 H   0  0  0  0  0  0  0  0  0  0  0  0
    3.0028   -0.2899    0.0000 H   0  0  0  0  0  0  0  0  0  0  0  0
    3.2149   -2.3074    0.0000 H   0  0  0  0  0  0  0  0  0  0  0  0
    2.2882   -1.7724    0.0000 H   0  0  0  0  0  0  0  0  0  0  0  0
    2.5005    0.2451    0.0000 H   0  0  0  0  0  0  0  0  0  0  0  0
    1.5739   -0.2899    0.0000 H   0  0  0  0  0  0  0  0  0  0  0  0
    1.7859   -2.3074    0.0000 H   0  0  0  0  0  0  0  0  0  0  0  0
    0.8593   -1.7723    0.0000 H   0  0  0  0  0  0  0  0  0  0  0  0
    1.0718    0.2451    0.0000 H   0  0  0  0  0  0  0  0  0  0  0  0
    0.1451   -0.2899    0.0000 H   0  0  0  0  0  0  0  0  0  0  0  0
    0.3572   -2.3074    0.0000 H   0  0  0  0  0  0  0  0  0  0  0  0
   -0.5695   -1.7724    0.0000 H   0  0  0  0  0  0  0  0  0  0  0  0
   -0.3572    0.2451    0.0000 H   0  0  0  0  0  0  0  0  0  0  0  0
   -1.2839   -0.2899    0.0000 H   0  0  0  0  0  0  0  0  0  0  0  0
   -1.0716   -2.3074    0.0000 H   0  0  0  0  0  0  0  0  0  0  0  0
   -1.9983   -1.7724    0.0000 H   0  0  0  0  0  0  0  0  0  0  0  0
   -1.7860    0.2451    0.0000 H   0  0  0  0  0  0  0  0  0  0  0  0
   -2.7126   -0.2899    0.0000 H   0  0  0  0  0  0  0  0  0  0  0  0
   -2.5005   -2.3074    0.0000 H   0  0  0  0  0  0  0  0  0  0  0  0
   -3.4272   -1.7724    0.0000 H   0  0  0  0  0  0  0  0  0  0  0  0
   -3.2149    0.2451    0.0000 H   0  0  0  0  0  0  0  0  0  0  0  0
   -4.1416   -0.2899    0.0000 H   0  0  0  0  0  0  0  0  0  0  0  0
   -3.9293   -2.3074    0.0000 H   0  0  0  0  0  0  0  0  0  0  0  0
   -4.8560   -1.7724    0.0000 H   0  0  0  0  0  0  0  0  0  0  0  0
   -4.6437    0.2451    0.0000 H   0  0  0  0  0  0  0  0  0  0  0  0
   -5.5703   -0.2899    0.0000 H   0  0  0  0  0  0  0  0  0  0  0  0
   -5.3582   -2.3074    0.0000 H   0  0  0  0  0  0  0  0  0  0  0  0
   -6.2849   -1.7724    0.0000 H   0  0  0  0  0  0  0  0  0  0  0  0
   -6.0726    0.2451    0.0000 H   0  0  0  0  0  0  0  0  0  0  0  0
   -6.9993   -0.2899    0.0000 H   0  0  0  0  0  0  0  0  0  0  0  0
   -7.7137   -0.7024    0.0000 H   0  0  0  0  0  0  0  0  0  0  0  0
   -6.7870   -2.3074    0.0000 H   0  0  0  0  0  0  0  0  0  0  0  0
   -7.7136   -1.7724    0.0000 H   0  0  0  0  0  0  0  0  0  0  0  0
    3.8037   -2.5474    0.0000 H   0  0  0  0  0  0  0  0  0  0  0  0
    3.0895   -0.4849    0.0000 H   0  0  0  0  0  0  0  0  0  0  0  0
  1  5  1  0  0  0  0
  1 43  1  0  0  0  0
  1 44  1  0  0  0  0
  2  1  1  0  0  0  0
  2 45  1  0  0  0  0
  2 46  1  0  0  0  0
  3  2  1  0  0  0  0
  3 14  1  0  0  0  0
  3 47  1  0  0  0  0
  3 48  1  0  0  0  0
  4  7  1  0  0  0  0
  4 49  1  0  0  0  0
  4 50  1  0  0  0  0
  5  4  1  0  0  0  0
  5 51  1  0  0  0  0
  5 52  1  0  0  0  0
  6 42  1  0  0  0  0
  6 53  1  1  0  0  0
  7  6  1  0  0  0  0
  7 54  1  0  0  0  0
  7 55  1  0  0  0  0
  8  6  1  0  0  0  0
  8 11  1  0  0  0  0
  8  9  1  0  0  0  0
  8 56  1  6  0  0  0
  9 12  1  0  0  0  0
  9 10  1  0  0  0  0
  9 57  1  1  0  0  0
 10 13  1  0  0  0  0
 10 58  1  0  0  0  0
 10 59  1  0  0  0  0
 11 60  1  0  0  0  0
 12 22  1  0  0  0  0
 13 61  1  0  0  0  0
 14 15  1  0  0  0  0
 14 62  1  0  0  0  0
 14 63  1  0  0  0  0
 15 16  1  0  0  0  0
 15 64  1  0  0  0  0
 15 65  1  0  0  0  0
 16 17  1  0  0  0  0
 16 66  1  0  0  0  0
 16 67  1  0  0  0  0
 17 18  1  0  0  0  0
 17 68  1  0  0  0  0
 17 69  1  0  0  0  0
 18 19  1  0  0  0  0
 18 70  1  0  0  0  0
 18 71  1  0  0  0  0
 19 20  1  0  0  0  0
 19 72  1  0  0  0  0
 19 73  1  0  0  0  0
 20 21  1  0  0  0  0
 20 74  1  0  0  0  0
 20 75  1  0  0  0  0
 21 76  1  0  0  0  0
 21 77  1  0  0  0  0
 21 78  1  0  0  0  0
 22 23  2  0  0  0  0
 22 24  1  0  0  0  0
 24 25  1  0  0  0  0
 24 41  1  0  0  0  0
 24 79  1  0  0  0  0
 25 26  1  0  0  0  0
 25 80  1  0  0  0  0
 25 81  1  0  0  0  0
 26 27  1  0  0  0  0
 26 82  1  0  0  0  0
 26 83  1  0  0  0  0
 27 28  1  0  0  0  0
 27 84  1  0  0  0  0
 27 85  1  0  0  0  0
 28 29  1  0  0  0  0
 28 86  1  0  0  0  0
 28 87  1  0  0  0  0
 29 30  1  0  0  0  0
 29 88  1  0  0  0  0
 29 89  1  0  0  0  0
 30 31  1  0  0  0  0
 30 90  1  0  0  0  0
 30 91  1  0  0  0  0
 31 32  1  0  0  0  0
 31 92  1  0  0  0  0
 31 93  1  0  0  0  0
 32 33  1  0  0  0  0
 32 94  1  0  0  0  0
 32 95  1  0  0  0  0
 33 34  1  0  0  0  0
 33 96  1  0  0  0  0
 33 97  1  0  0  0  0
 34 35  1  0  0  0  0
 34 98  1  0  0  0  0
 34 99  1  0  0  0  0
 35 36  1  0  0  0  0
 35100  1  0  0  0  0
 35101  1  0  0  0  0
 36 37  1  0  0  0  0
 36102  1  0  0  0  0
 36103  1  0  0  0  0
 37 38  1  0  0  0  0
 37104  1  0  0  0  0
 37105  1  0  0  0  0
 38 39  1  0  0  0  0
 38106  1  0  0  0  0
 38107  1  0  0  0  0
 39 40  1  0  0  0  0
 39108  1  0  0  0  0
 39109  1  0  0  0  0
 40110  1  0  0  0  0
 40111  1  0  0  0  0
 40112  1  0  0  0  0
 41113  1  0  0  0  0
 42114  1  0  0  0  0
M  END
>  <DRUGBANK_ID>
DB14705

>  <COMMON_NAME>
Ceramide AP

>  <CAS_NUMBER>
212070-45-6

>  <UNII>
F1X8L2B00J

>  <SYNONYMS>
Biomide 6; Ceramide 6; Ceramide 6 II; Ceramide VI; Cytomide VI; N-(2-hydroxyoctadecanoyl)-4-hydroxysphinganine; N-(2-hydroxyoctadecanoyl)-4R-hydroxysphinganine; N-(2-hydroxyoctadecanoyl)-hydroxysphinganine; N-(2-hydroxyoctadecanoyl)phytoceramide; N-(2-hydroxyoctadecanoyl)phytosphingosine; N-2-hydroxystearoyl-phytosphingosine; PHC-C 18:0/18:0; phytosphingosine-2-hydroxy-18:0

$$$$
