
 OpenBabel10282417072D

 74 76  0  0  0  0  0  0  0  0999 V2000
   -1.2373   -0.9405    0.0000 C   0  0  1  0  0  0  0  0  0  0  0  0
   -0.4138   -0.9364    0.0000 O   0  0  0  0  0  0  0  0  0  0  0  0
   -1.6469   -1.6553    0.0000 C   0  0  1  0  0  0  0  0  0  0  0  0
   -1.6511    0.5977    0.0000 C   0  0  2  0  0  0  0  0  0  0  0  0
   -0.9364    1.8350    0.0000 C   0  0  1  0  0  0  0  0  0  0  0  0
   -0.0041   -1.6512    0.0000 C   0  0  1  0  0  0  0  0  0  0  0  0
   -1.2415   -2.3660    0.0000 C   0  0  2  0  0  0  0  0  0  0  0  0
   -0.9364    1.0073    0.0000 C   0  0  1  0  0  0  0  0  0  0  0  0
   -0.4179   -2.3660    0.0000 C   0  0  2  0  0  0  0  0  0  0  0  0
    1.0199    1.5341    0.0000 C   0  0  1  0  0  0  0  0  0  0  0  0
    0.6103    2.2488    0.0000 C   0  0  1  0  0  0  0  0  0  0  0  0
   -1.6511   -0.2299    0.0000 O   0  0  0  0  0  0  0  0  0  0  0  0
    1.8434    1.5341    0.0000 C   0  0  2  0  0  0  0  0  0  0  0  0
   -0.2173    2.2488    0.0000 O   0  0  0  0  0  0  0  0  0  0  0  0
    2.2572    2.2488    0.0000 C   0  0  2  0  0  0  0  0  0  0  0  0
   -2.3617    1.0073    0.0000 C   0  0  2  0  0  0  0  0  0  0  0  0
   -1.6511    2.2530    0.0000 C   0  0  1  0  0  0  0  0  0  0  0  0
    1.0157    2.9679    0.0000 O   0  0  0  0  0  0  0  0  0  0  0  0
   -2.3617    1.8350    0.0000 C   0  0  0  0  0  0  0  0  0  0  0  0
    1.8434    2.9636    0.0000 C   0  0  0  0  0  0  0  0  0  0  0  0
   -2.4746   -1.6553    0.0000 N   0  0  0  0  0  0  0  0  0  0  0  0
    0.8235   -1.6553    0.0000 C   0  0  2  0  0  0  0  0  0  0  0  0
    2.2572    0.8192    0.0000 N   0  0  0  0  0  0  0  0  0  0  0  0
    0.6061    0.8192    0.0000 O   0  0  0  0  0  0  0  0  0  0  0  0
   -1.6553   -3.0808    0.0000 O   0  0  0  0  0  0  0  0  0  0  0  0
   -0.0041   -3.0849    0.0000 O   0  0  0  0  0  0  0  0  0  0  0  0
   -0.2173    0.5935    0.0000 O   0  0  0  0  0  0  0  0  0  0  0  0
   -3.0808    0.5935    0.0000 N   0  0  0  0  0  0  0  0  0  0  0  0
   -1.6511    3.0849    0.0000 N   0  0  0  0  0  0  0  0  0  0  0  0
    2.9679    2.6668    0.0000 O   0  0  0  0  0  0  0  0  0  0  0  0
    1.2373   -0.9364    0.0000 O   0  0  0  0  0  0  0  0  0  0  0  0
    2.9679    1.8350    0.0000 C   0  0  0  0  0  0  0  0  0  0  0  0
    3.0808    0.8192    0.0000 C   0  0  0  0  0  0  0  0  0  0  0  0
    1.2373   -2.3660    0.0000 C   0  0  0  0  0  0  0  0  0  0  0  0
   -2.0650   -0.9405    0.0000 H   0  0  0  0  0  0  0  0  0  0  0  0
    0.1922    2.9679    0.0000 H   0  0  0  0  0  0  0  0  0  0  0  0
    0.4012   -0.9280    0.0000 H   0  0  0  0  0  0  0  0  0  0  0  0
   -2.1834   -0.7295    0.0000 H   0  0  0  0  0  0  0  0  0  0  0  0
   -0.7253    0.0612    0.0000 H   0  0  0  0  0  0  0  0  0  0  0  0
   -0.0101    1.2993    0.0000 H   0  0  0  0  0  0  0  0  0  0  0  0
   -2.3115   -2.3626    0.0000 H   0  0  0  0  0  0  0  0  0  0  0  0
   -0.0101    1.5430    0.0000 H   0  0  0  0  0  0  0  0  0  0  0  0
    0.6521   -2.3673    0.0000 H   0  0  0  0  0  0  0  0  0  0  0  0
   -0.0501    1.5364    0.0000 H   0  0  0  0  0  0  0  0  0  0  0  0
    1.3089    0.6072    0.0000 H   0  0  0  0  0  0  0  0  0  0  0  0
   -2.3621   -0.0627    0.0000 H   0  0  0  0  0  0  0  0  0  0  0  0
   -0.7230    2.7854    0.0000 H   0  0  0  0  0  0  0  0  0  0  0  0
   -3.2905    2.3662    0.0000 H   0  0  0  0  0  0  0  0  0  0  0  0
   -2.3682    2.9050    0.0000 H   0  0  0  0  0  0  0  0  0  0  0  0
    2.3803    3.8892    0.0000 H   0  0  0  0  0  0  0  0  0  0  0  0
    1.3117    3.8922    0.0000 H   0  0  0  0  0  0  0  0  0  0  0  0
   -2.9846   -0.7720    0.0000 H   0  0  0  0  0  0  0  0  0  0  0  0
   -2.9846   -2.5386    0.0000 H   0  0  0  0  0  0  0  0  0  0  0  0
    0.2902   -0.7277    0.0000 H   0  0  0  0  0  0  0  0  0  0  0  0
    1.7477   -0.0644    0.0000 H   0  0  0  0  0  0  0  0  0  0  0  0
   -0.3639    0.8203    0.0000 H   0  0  0  0  0  0  0  0  0  0  0  0
   -2.6253   -3.0797    0.0000 H   0  0  0  0  0  0  0  0  0  0  0  0
   -0.4902   -3.9243    0.0000 H   0  0  0  0  0  0  0  0  0  0  0  0
   -0.2159   -0.3765    0.0000 H   0  0  0  0  0  0  0  0  0  0  0  0
   -3.9634    1.1048    0.0000 H   0  0  0  0  0  0  0  0  0  0  0  0
   -3.0823   -0.4265    0.0000 H   0  0  0  0  0  0  0  0  0  0  0  0
   -0.7678    3.5949    0.0000 H   0  0  0  0  0  0  0  0  0  0  0  0
   -2.5344    3.5949    0.0000 H   0  0  0  0  0  0  0  0  0  0  0  0
    3.8118    2.1886    0.0000 H   0  0  0  0  0  0  0  0  0  0  0  0
    2.2073   -0.9351    0.0000 H   0  0  0  0  0  0  0  0  0  0  0  0
    2.9640    0.7650    0.0000 H   0  0  0  0  0  0  0  0  0  0  0  0
    3.8965    2.3666    0.0000 H   0  0  0  0  0  0  0  0  0  0  0  0
    3.8926    1.2966    0.0000 H   0  0  0  0  0  0  0  0  0  0  0  0
    3.6158   -0.1074    0.0000 H   0  0  0  0  0  0  0  0  0  0  0  0
    3.6158    1.7458    0.0000 H   0  0  0  0  0  0  0  0  0  0  0  0
    4.1508    0.8192    0.0000 H   0  0  0  0  0  0  0  0  0  0  0  0
    0.7057   -3.2946    0.0000 H   0  0  0  0  0  0  0  0  0  0  0  0
    2.3073   -2.3621    0.0000 H   0  0  0  0  0  0  0  0  0  0  0  0
    1.7757   -3.2907    0.0000 H   0  0  0  0  0  0  0  0  0  0  0  0
  1 35  1  6  0  0  0
  2  1  1  0  0  0  0
  3  1  1  0  0  0  0
  3 21  1  0  0  0  0
  3 38  1  6  0  0  0
  4 12  1  0  0  0  0
  4 39  1  1  0  0  0
  5  8  1  0  0  0  0
  5 14  1  0  0  0  0
  5 40  1  1  0  0  0
  6  2  1  0  0  0  0
  6 37  1  1  0  0  0
  7  3  1  0  0  0  0
  7 25  1  0  0  0  0
  7 41  1  1  0  0  0
  8  4  1  0  0  0  0
  8 27  1  0  0  0  0
  8 42  1  6  0  0  0
  9  6  1  0  0  0  0
  9 26  1  0  0  0  0
  9  7  1  0  0  0  0
  9 43  1  6  0  0  0
 10 11  1  0  0  0  0
 10 24  1  0  0  0  0
 10 44  1  6  0  0  0
 11 14  1  0  0  0  0
 11 36  1  6  0  0  0
 12  1  1  0  0  0  0
 13 10  1  0  0  0  0
 13 23  1  0  0  0  0
 13 45  1  1  0  0  0
 15 20  1  0  0  0  0
 15 30  1  6  0  0  0
 15 32  1  0  0  0  0
 15 13  1  0  0  0  0
 16  4  1  0  0  0  0
 16 28  1  0  0  0  0
 16 46  1  6  0  0  0
 17  5  1  0  0  0  0
 17 29  1  0  0  0  0
 17 19  1  0  0  0  0
 17 47  1  6  0  0  0
 18 11  1  0  0  0  0
 19 16  1  0  0  0  0
 19 48  1  0  0  0  0
 19 49  1  0  0  0  0
 20 18  1  0  0  0  0
 20 50  1  0  0  0  0
 20 51  1  0  0  0  0
 21 52  1  0  0  0  0
 21 53  1  0  0  0  0
 22  6  1  0  0  0  0
 22 31  1  0  0  0  0
 22 54  1  1  0  0  0
 23 55  1  0  0  0  0
 24 56  1  0  0  0  0
 25 57  1  0  0  0  0
 26 58  1  0  0  0  0
 27 59  1  0  0  0  0
 28 60  1  0  0  0  0
 28 61  1  0  0  0  0
 29 62  1  0  0  0  0
 29 63  1  0  0  0  0
 30 64  1  0  0  0  0
 31 65  1  0  0  0  0
 32 66  1  0  0  0  0
 32 67  1  0  0  0  0
 32 68  1  0  0  0  0
 33 23  1  0  0  0  0
 33 69  1  0  0  0  0
 33 70  1  0  0  0  0
 33 71  1  0  0  0  0
 34 22  1  0  0  0  0
 34 72  1  0  0  0  0
 34 73  1  0  0  0  0
 34 74  1  0  0  0  0
M  END
>  <DRUGBANK_ID>
DB04263

>  <SECONDARY_ACCESSION_NUMBERS>
EXPT01586

>  <COMMON_NAME>
Geneticin

>  <CAS_NUMBER>
49863-47-0

>  <UNII>
A08F5XTI6G

$$$$
