1253
 OpenBabel10282417072D

 47 50  0  0  1  0  0  0  0  0999 V2000
    2.3776    0.2215    0.0000 O   0  0  0  0  0  0  0  0  0  0  0  0
    1.6520    3.1062    0.0000 O   0  0  0  0  0  0  0  0  0  0  0  0
    5.2917    0.2213    0.0000 N   0  0  0  0  0  0  0  0  0  0  0  0
    6.2666   -3.1748    0.0000 N   0  0  0  0  0  0  0  0  0  0  0  0
    3.0872    1.4617    0.0000 N   0  0  0  0  0  0  0  0  0  0  0  0
    5.2784   -0.6380    0.0000 C   0  0  1  0  0  0  0  0  0  0  0  0
    4.5639   -1.0505    0.0000 C   0  0  0  0  0  0  0  0  0  0  0  0
    5.9928   -1.0505    0.0000 C   0  0  0  0  0  0  0  0  0  0  0  0
    3.8065    0.2270    0.0000 C   0  0  1  0  0  0  0  0  0  0  0  0
    4.5507    0.6567    0.0000 C   0  0  0  0  0  0  0  0  0  0  0  0
    5.9928   -1.8755    0.0000 C   0  0  0  0  0  0  0  0  0  0  0  0
    4.5639   -1.8755    0.0000 C   0  0  0  0  0  0  0  0  0  0  0  0
    5.2784   -2.2880    0.0000 C   0  0  0  0  0  0  0  0  0  0  0  0
    3.8132   -0.6324    0.0000 C   0  0  0  0  0  0  0  0  0  0  0  0
    5.2917   -3.1472    0.0000 C   0  0  0  0  0  0  0  0  0  0  0  0
    6.0108    0.6255    0.0000 C   0  0  0  0  0  0  0  0  0  0  0  0
    6.6009   -2.4258    0.0000 C   0  0  0  0  0  0  0  0  0  0  0  0
    3.0905    0.6367    0.0000 C   0  0  0  0  0  0  0  0  0  0  0  0
    3.8132   -2.2936    0.0000 C   0  0  0  0  0  0  0  0  0  0  0  0
    4.5507   -3.5827    0.0000 C   0  0  0  0  0  0  0  0  0  0  0  0
    3.8065   -3.1529    0.0000 C   0  0  0  0  0  0  0  0  0  0  0  0
    2.3712    1.8715    0.0000 C   0  0  2  0  0  0  0  0  0  0  0  0
    2.3680    2.6965    0.0000 C   0  0  0  0  0  0  0  0  0  0  0  0
    1.6583    1.4562    0.0000 C   0  0  0  0  0  0  0  0  0  0  0  0
    5.8525   -0.3124    0.0000 H   0  0  0  0  0  0  0  0  0  0  0  0
    1.6482    4.0762    0.0000 H   0  0  0  0  0  0  0  0  0  0  0  0
    6.7907   -4.0082    0.0000 H   0  0  0  0  0  0  0  0  0  0  0  0
    3.9379    1.9573    0.0000 H   0  0  0  0  0  0  0  0  0  0  0  0
    6.9195   -0.5155    0.0000 H   0  0  0  0  0  0  0  0  0  0  0  0
    6.9194   -1.5855    0.0000 H   0  0  0  0  0  0  0  0  0  0  0  0
    3.8044    1.2970    0.0000 H   0  0  0  0  0  0  0  0  0  0  0  0
    4.5548    1.7267    0.0000 H   0  0  0  0  0  0  0  0  0  0  0  0
    3.6251    1.1934    0.0000 H   0  0  0  0  0  0  0  0  0  0  0  0
    2.9255   -1.1587    0.0000 H   0  0  0  0  0  0  0  0  0  0  0  0
    6.9312    0.0799    0.0000 H   0  0  0  0  0  0  0  0  0  0  0  0
    6.0231    1.6954    0.0000 H   0  0  0  0  0  0  0  0  0  0  0  0
    6.9435    1.1498    0.0000 H   0  0  0  0  0  0  0  0  0  0  0  0
    7.6107   -2.2130    0.0000 H   0  0  0  0  0  0  0  0  0  0  0  0
    2.9255   -1.7673    0.0000 H   0  0  0  0  0  0  0  0  0  0  0  0
    4.5546   -4.6147    0.0000 H   0  0  0  0  0  0  0  0  0  0  0  0
    2.9107   -3.6654    0.0000 H   0  0  0  0  0  0  0  0  0  0  0  0
    3.2958    2.4100    0.0000 H   0  0  0  0  0  0  0  0  0  0  0  0
    3.2926    3.2351    0.0000 H   0  0  0  0  0  0  0  0  0  0  0  0
    3.2967    2.1651    0.0000 H   0  0  0  0  0  0  0  0  0  0  0  0
    0.7296    1.9876    0.0000 H   0  0  0  0  0  0  0  0  0  0  0  0
    1.6625    0.3862    0.0000 H   0  0  0  0  0  0  0  0  0  0  0  0
    0.7337    0.9176    0.0000 H   0  0  0  0  0  0  0  0  0  0  0  0
  1 18  2  0  0  0  0
  2 23  1  0  0  0  0
  2 26  1  0  0  0  0
  3  6  1  0  0  0  0
  3 10  1  0  0  0  0
  3 16  1  0  0  0  0
  4 15  1  0  0  0  0
  4 17  1  0  0  0  0
  4 27  1  0  0  0  0
  5 18  1  0  0  0  0
  5 28  1  0  0  0  0
  6  7  1  0  0  0  0
  6  8  1  0  0  0  0
  6 25  1  1  0  0  0
  7 12  1  0  0  0  0
  7 14  2  0  0  0  0
  8 11  1  0  0  0  0
  8 29  1  0  0  0  0
  8 30  1  0  0  0  0
  9 10  1  0  0  0  0
  9 14  1  0  0  0  0
  9 18  1  0  0  0  0
  9 31  1  6  0  0  0
 10 32  1  0  0  0  0
 10 33  1  0  0  0  0
 11 13  1  0  0  0  0
 11 17  2  0  0  0  0
 12 13  2  0  0  0  0
 12 19  1  0  0  0  0
 13 15  1  0  0  0  0
 14 34  1  0  0  0  0
 15 20  2  0  0  0  0
 16 35  1  0  0  0  0
 16 36  1  0  0  0  0
 16 37  1  0  0  0  0
 17 38  1  0  0  0  0
 19 21  2  0  0  0  0
 19 39  1  0  0  0  0
 20 21  1  0  0  0  0
 20 40  1  0  0  0  0
 21 41  1  0  0  0  0
 22  5  1  0  0  0  0
 22 23  1  0  0  0  0
 22 24  1  0  0  0  0
 22 42  1  6  0  0  0
 23 43  1  0  0  0  0
 23 44  1  0  0  0  0
 24 45  1  0  0  0  0
 24 46  1  0  0  0  0
 24 47  1  0  0  0  0
M  END
>  <DRUGBANK_ID>
DB01253

>  <COMMON_NAME>
Ergometrine

>  <CAS_NUMBER>
60-79-7

>  <UNII>
WH41D8433D

>  <SYNONYMS>
(6aR,9R)-7-Methyl-4,6,6a,7,8,9-hexahydro-indolo[4,3-fg]quinoline-9-carboxylic acid ((S)-2-hydroxy-1-methyl-ethyl)-amide; [8β(S)]-9,10-didehydro-N-(2-hydroxy-1-methylethyl)-6-methylergoline-8-carboxamide; 9,10-didehydro-N-(2-hydroxy-1-methylethyl)-6-methylergoline-8β(S)-carboxamide; 9,10-didehydro-N-(α-(hydroxymethyl)ethyl)-6-methylergoline-8-β-carboxamide; D-lysergic acid 1-hydroxymethylethylamide; D-lysergic acid-L-propanolamide; Ergobasine; Ergometrina; Ergometrine; Ergométrine; Ergometrinum; Ergonovine; Ergotocine; Margonovine; N-(2-Hydroxy-1-methylethyl)-D-(+)-lysergamide; N-(α-(hydroxymethyl)ethyl)-D-lysergamide

$$$$
