259
 OpenBabel10282417072D

 19 19  0  0  0  0  0  0  0  0999 V2000
    2.4751    1.2375    0.0000 S   0  0  0  0  0  0  0  0  0  0  0  0
    1.6500    1.2375    0.0000 O   0  0  0  0  0  0  0  0  0  0  0  0
    3.3001    1.2375    0.0000 O   0  0  0  0  0  0  0  0  0  0  0  0
    2.4751    2.0625    0.0000 N   0  0  0  0  0  0  0  0  0  0  0  0
    2.4751   -2.0625    0.0000 N   0  0  0  0  0  0  0  0  0  0  0  0
    2.4751    0.4125    0.0000 C   0  0  0  0  0  0  0  0  0  0  0  0
    1.7606    0.0000    0.0000 C   0  0  0  0  0  0  0  0  0  0  0  0
    3.1895    0.0000    0.0000 C   0  0  0  0  0  0  0  0  0  0  0  0
    2.4751   -1.2375    0.0000 C   0  0  0  0  0  0  0  0  0  0  0  0
    1.7606   -0.8250    0.0000 C   0  0  0  0  0  0  0  0  0  0  0  0
    3.1895   -0.8250    0.0000 C   0  0  0  0  0  0  0  0  0  0  0  0
    3.3584    2.5725    0.0000 H   0  0  0  0  0  0  0  0  0  0  0  0
    1.5918    2.5725    0.0000 H   0  0  0  0  0  0  0  0  0  0  0  0
    1.6225   -2.5548    0.0000 H   0  0  0  0  0  0  0  0  0  0  0  0
    3.3277   -2.5547    0.0000 H   0  0  0  0  0  0  0  0  0  0  0  0
    0.8669    0.5160    0.0000 H   0  0  0  0  0  0  0  0  0  0  0  0
    4.0832    0.5160    0.0000 H   0  0  0  0  0  0  0  0  0  0  0  0
    0.8669   -1.3410    0.0000 H   0  0  0  0  0  0  0  0  0  0  0  0
    4.0832   -1.3410    0.0000 H   0  0  0  0  0  0  0  0  0  0  0  0
  1  2  2  0  0  0  0
  1  3  2  0  0  0  0
  1  4  1  0  0  0  0
  1  6  1  0  0  0  0
  4 12  1  0  0  0  0
  4 13  1  0  0  0  0
  5  9  1  0  0  0  0
  5 14  1  0  0  0  0
  5 15  1  0  0  0  0
  6  7  2  0  0  0  0
  6  8  1  0  0  0  0
  7 10  1  0  0  0  0
  7 16  1  0  0  0  0
  8 11  2  0  0  0  0
  8 17  1  0  0  0  0
  9 10  2  0  0  0  0
  9 11  1  0  0  0  0
 10 18  1  0  0  0  0
 11 19  1  0  0  0  0
M  END
>  <DRUGBANK_ID>
DB00259

>  <SECONDARY_ACCESSION_NUMBERS>
APRD00438

>  <COMMON_NAME>
Sulfanilamide

>  <CAS_NUMBER>
63-74-1

>  <UNII>
21240MF57M

>  <SYNONYMS>
4-aminobenzene sulfonic acid amide; 4-azanylbenzenesulfonamide; p-aminobenzenesulfamide; p-aminobenzenesulfonamide; para-aminobenzenesulfonamide; Prontosil album; SA; Streptocide; Sulfamine; Sulfanilamida; Sulfanilamide; Sulfanilamidum; Sulphanilamide

$$$$
