84098
 OpenBabel10282417072D

 36 38  0  0  0  0  0  0  0  0999 V2000
    5.2708    1.1823    0.0000 S   0  0  0  0  0  0  0  0  0  0  0  0
    7.4142   -1.7053    0.0000 F   0  0  0  0  0  0  0  0  0  0  0  0
    6.2872   -2.0073    0.0000 F   0  0  0  0  0  0  0  0  0  0  0  0
    7.1122   -0.5783    0.0000 F   0  0  0  0  0  0  0  0  0  0  0  0
    1.8216   -0.3328    0.0000 O   0  0  0  0  0  0  0  0  0  0  0  0
    3.8418    1.1823    0.0000 O   0  0  0  0  0  0  0  0  0  0  0  0
    6.0958    1.1823    0.0000 O   0  0  0  0  0  0  0  0  0  0  0  0
    4.4458    1.1823    0.0000 O   0  0  0  0  0  0  0  0  0  0  0  0
    2.2341   -1.0473    0.0000 N   0  0  0  0  0  0  0  0  0  0  0  0
    2.2021    1.0873    0.0000 C   0  0  0  0  0  0  0  0  0  0  0  0
    2.4571    1.8719    0.0000 C   0  0  0  0  0  0  0  0  0  0  0  0
    1.6500    1.7004    0.0000 C   0  0  0  0  0  0  0  0  0  0  0  0
    2.3736    0.2803    0.0000 C   0  0  0  0  0  0  0  0  0  0  0  0
    3.1273   -0.0553    0.0000 C   0  0  0  0  0  0  0  0  0  0  0  0
    3.8418    0.3572    0.0000 C   0  0  0  0  0  0  0  0  0  0  0  0
    3.0411   -0.8758    0.0000 C   0  0  0  0  0  0  0  0  0  0  0  0
    4.5562   -0.0553    0.0000 C   0  0  0  0  0  0  0  0  0  0  0  0
    5.2708    0.3572    0.0000 C   0  0  0  0  0  0  0  0  0  0  0  0
    4.5562   -0.8803    0.0000 C   0  0  0  0  0  0  0  0  0  0  0  0
    5.9853   -0.0553    0.0000 C   0  0  0  0  0  0  0  0  0  0  0  0
    5.9853   -0.8803    0.0000 C   0  0  0  0  0  0  0  0  0  0  0  0
    5.2708   -1.2928    0.0000 C   0  0  0  0  0  0  0  0  0  0  0  0
    5.2708    2.0073    0.0000 C   0  0  0  0  0  0  0  0  0  0  0  0
    6.6997   -1.2928    0.0000 C   0  0  0  0  0  0  0  0  0  0  0  0
    1.7463    0.8550    0.0000 H   0  0  0  0  0  0  0  0  0  0  0  0
    2.9635    1.8008    0.0000 H   0  0  0  0  0  0  0  0  0  0  0  0
    2.4392    2.3831    0.0000 H   0  0  0  0  0  0  0  0  0  0  0  0
    1.4584    2.1747    0.0000 H   0  0  0  0  0  0  0  0  0  0  0  0
    1.2162    1.4293    0.0000 H   0  0  0  0  0  0  0  0  0  0  0  0
    3.4212   -1.2181    0.0000 H   0  0  0  0  0  0  0  0  0  0  0  0
    4.1133   -1.1360    0.0000 H   0  0  0  0  0  0  0  0  0  0  0  0
    6.4282    0.2005    0.0000 H   0  0  0  0  0  0  0  0  0  0  0  0
    5.2708   -1.8043    0.0000 H   0  0  0  0  0  0  0  0  0  0  0  0
    5.7823    2.0073    0.0000 H   0  0  0  0  0  0  0  0  0  0  0  0
    5.2708    2.5188    0.0000 H   0  0  0  0  0  0  0  0  0  0  0  0
    4.7593    2.0073    0.0000 H   0  0  0  0  0  0  0  0  0  0  0  0
  1  7  2  0  0  0  0
  1  8  2  0  0  0  0
  1 18  1  0  0  0  0
  1 23  1  0  0  0  0
  2 24  1  0  0  0  0
  3 24  1  0  0  0  0
  4 24  1  0  0  0  0
  5  9  1  0  0  0  0
  5 13  1  0  0  0  0
  6 15  2  0  0  0  0
  9 16  2  0  0  0  0
 10 11  1  0  0  0  0
 10 12  1  0  0  0  0
 10 13  1  0  0  0  0
 10 25  1  0  0  0  0
 11 12  1  0  0  0  0
 11 26  1  0  0  0  0
 11 27  1  0  0  0  0
 12 28  1  0  0  0  0
 12 29  1  0  0  0  0
 13 14  2  0  0  0  0
 14 15  1  0  0  0  0
 14 16  1  0  0  0  0
 15 17  1  0  0  0  0
 16 30  1  0  0  0  0
 17 18  2  0  0  0  0
 17 19  1  0  0  0  0
 18 20  1  0  0  0  0
 19 22  2  0  0  0  0
 19 31  1  0  0  0  0
 20 21  2  0  0  0  0
 20 32  1  0  0  0  0
 21 22  1  0  0  0  0
 21 24  1  0  0  0  0
 22 33  1  0  0  0  0
 23 34  1  0  0  0  0
 23 35  1  0  0  0  0
 23 36  1  0  0  0  0
M  END
>  <DRUGBANK_ID>
DB12938

>  <COMMON_NAME>
Isoxaflutole

>  <CAS_NUMBER>
141112-29-0

>  <UNII>
0T9R0O0EYT

>  <SYNONYMS>
Balance; Merlin

$$$$
