
 OpenBabel10282417072D

 39 41  0  0  0  0  0  0  0  0999 V2000
   -1.5356    7.2402    0.0000 C   0  0  0  0  0  0  0  0  0  0  0  0
   -1.5356    8.0652    0.0000 C   0  0  0  0  0  0  0  0  0  0  0  0
   -0.8212    8.4777    0.0000 C   0  0  0  0  0  0  0  0  0  0  0  0
   -0.1067    8.0652    0.0000 C   0  0  0  0  0  0  0  0  0  0  0  0
   -0.1067    7.2402    0.0000 C   0  0  0  0  0  0  0  0  0  0  0  0
   -0.8212    6.8277    0.0000 C   0  0  0  0  0  0  0  0  0  0  0  0
   -0.8212    6.0027    0.0000 C   0  0  0  0  0  0  0  0  0  0  0  0
   -1.5356    5.5902    0.0000 O   0  0  0  0  0  0  0  0  0  0  0  0
   -0.1067    5.5902    0.0000 C   0  0  0  0  0  0  0  0  0  0  0  0
    0.6078    6.0027    0.0000 C   0  0  0  0  0  0  0  0  0  0  0  0
    1.3222    5.5902    0.0000 C   0  0  0  0  0  0  0  0  0  0  0  0
    1.3222    4.7652    0.0000 C   0  0  0  0  0  0  0  0  0  0  0  0
    0.6078    4.3527    0.0000 C   0  0  0  0  0  0  0  0  0  0  0  0
   -0.1067    4.7652    0.0000 C   0  0  0  0  0  0  0  0  0  0  0  0
   -0.8212    4.3527    0.0000 Cl  0  0  0  0  0  0  0  0  0  0  0  0
    2.0367    4.3527    0.0000 C   0  0  0  0  0  0  0  0  0  0  0  0
    2.0367    3.5277    0.0000 N   0  0  0  0  0  0  0  0  0  0  0  0
    2.7041    3.0428    0.0000 C   0  0  0  0  0  0  0  0  0  0  0  0
    2.4492    2.2581    0.0000 C   0  0  0  0  0  0  0  0  0  0  0  0
    1.6242    2.2581    0.0000 N   0  0  0  0  0  0  0  0  0  0  0  0
    1.3693    3.0428    0.0000 N   0  0  0  0  0  0  0  0  0  0  0  0
    2.9341    1.5907    0.0000 C   0  0  0  0  0  0  0  0  0  0  0  0
    2.5986    0.8370    0.0000 O   0  0  0  0  0  0  0  0  0  0  0  0
    3.7546    1.6769    0.0000 N   0  0  0  0  0  0  0  0  0  0  0  0
    3.4888    3.2977    0.0000 N   0  0  0  0  0  0  0  0  0  0  0  0
    0.6078    6.8277    0.0000 Cl  0  0  0  0  0  0  0  0  0  0  0  0
   -0.8212    9.3027    0.0000 Cl  0  0  0  0  0  0  0  0  0  0  0  0
   -2.4293    6.7242    0.0000 H   0  0  0  0  0  0  0  0  0  0  0  0
   -2.4293    8.5812    0.0000 H   0  0  0  0  0  0  0  0  0  0  0  0
    0.7870    8.5812    0.0000 H   0  0  0  0  0  0  0  0  0  0  0  0
    0.7870    6.7242    0.0000 H   0  0  0  0  0  0  0  0  0  0  0  0
    2.2159    6.1062    0.0000 H   0  0  0  0  0  0  0  0  0  0  0  0
    0.6078    3.3207    0.0000 H   0  0  0  0  0  0  0  0  0  0  0  0
    2.9633    4.8877    0.0000 H   0  0  0  0  0  0  0  0  0  0  0  0
    2.9633    3.8177    0.0000 H   0  0  0  0  0  0  0  0  0  0  0  0
    4.3332    0.8804    0.0000 H   0  0  0  0  0  0  0  0  0  0  0  0
    4.1551    2.5763    0.0000 H   0  0  0  0  0  0  0  0  0  0  0  0
    4.2204    2.6389    0.0000 H   0  0  0  0  0  0  0  0  0  0  0  0
    3.6936    4.2607    0.0000 H   0  0  0  0  0  0  0  0  0  0  0  0
  1  2  2  0  0  0  0
  1  6  1  0  0  0  0
  1 28  1  0  0  0  0
  2  3  1  0  0  0  0
  2 29  1  0  0  0  0
  3  4  2  0  0  0  0
  3 27  1  0  0  0  0
  4  5  1  0  0  0  0
  4 30  1  0  0  0  0
  5  6  2  0  0  0  0
  5 31  1  0  0  0  0
  6  7  1  0  0  0  0
  7  8  2  0  0  0  0
  7  9  1  0  0  0  0
  9 10  2  0  0  0  0
  9 14  1  0  0  0  0
 10 11  1  0  0  0  0
 10 26  1  0  0  0  0
 11 12  2  0  0  0  0
 11 32  1  0  0  0  0
 12 13  1  0  0  0  0
 12 16  1  0  0  0  0
 13 14  2  0  0  0  0
 13 33  1  0  0  0  0
 14 15  1  0  0  0  0
 16 17  1  0  0  0  0
 16 34  1  0  0  0  0
 16 35  1  0  0  0  0
 17 18  1  0  0  0  0
 17 21  1  0  0  0  0
 18 19  2  0  0  0  0
 18 25  1  0  0  0  0
 19 20  1  0  0  0  0
 19 22  1  0  0  0  0
 20 21  2  0  0  0  0
 22 23  2  0  0  0  0
 22 24  1  0  0  0  0
 24 36  1  0  0  0  0
 24 37  1  0  0  0  0
 25 38  1  0  0  0  0
 25 39  1  0  0  0  0
M  END
>  <DRUGBANK_ID>
DB11960

>  <COMMON_NAME>
Carboxyamidotriazole

>  <CAS_NUMBER>
99519-84-3

>  <UNII>
6ST3ZF52WB

>  <SYNONYMS>
CAI

$$$$
