
 OpenBabel10282417072D

113117  0  0  0  0  0  0  0  0999 V2000
    0.9077    2.7506    0.0000 C   0  0  2  0  0  0  0  0  0  0  0  0
    1.3233    2.0379    0.0000 C   0  0  2  0  0  0  0  0  0  0  0  0
    2.1442    2.0437    0.0000 C   0  0  1  0  0  0  0  0  0  0  0  0
    2.5496    2.7550    0.0000 C   0  0  2  0  0  0  0  0  0  0  0  0
    2.1382    3.4679    0.0000 C   0  0  0  0  0  0  0  0  0  0  0  0
    1.3131    3.4693    0.0000 C   0  0  1  0  0  0  0  0  0  0  0  0
    2.5556    1.3349    0.0000 O   0  0  0  0  0  0  0  0  0  0  0  0
    3.3808    1.3384    0.0000 C   0  0  2  0  0  0  0  0  0  0  0  0
    3.7929    0.6244    0.0000 C   0  0  1  0  0  0  0  0  0  0  0  0
    4.6144    0.6259    0.0000 C   0  0  2  0  0  0  0  0  0  0  0  0
    5.0279    1.3402    0.0000 C   0  0  1  0  0  0  0  0  0  0  0  0
    4.6136    2.0507    0.0000 C   0  0  2  0  0  0  0  0  0  0  0  0
    3.7900    2.0509    0.0000 O   0  0  0  0  0  0  0  0  0  0  0  0
    0.9147    1.3251    0.0000 O   0  0  0  0  0  0  0  0  0  0  0  0
    0.4955    0.6147    0.0000 C   0  0  1  0  0  0  0  0  0  0  0  0
   -0.3254    0.5313    0.0000 C   0  0  1  0  0  0  0  0  0  0  0  0
   -0.5088   -0.2738    0.0000 C   0  0  1  0  0  0  0  0  0  0  0  0
    0.2014   -0.6930    0.0000 C   0  0  2  0  0  0  0  0  0  0  0  0
    0.8197   -0.1468    0.0000 O   0  0  0  0  0  0  0  0  0  0  0  0
    5.8488    1.3406    0.0000 O   0  0  0  0  0  0  0  0  0  0  0  0
    5.0273   -0.0885    0.0000 O   0  0  0  0  0  0  0  0  0  0  0  0
    3.3811   -0.0905    0.0000 N   0  0  0  0  0  0  0  0  0  0  0  0
    0.8975    4.1821    0.0000 N   0  0  0  0  0  0  0  0  0  0  0  0
    3.3747    2.7573    0.0000 N   0  0  0  0  0  0  0  0  0  0  0  0
    0.0825    2.7447    0.0000 O   0  0  0  0  0  0  0  0  0  0  0  0
    0.2800   -1.5144    0.0000 C   0  0  0  0  0  0  0  0  0  0  0  0
   -1.2659   -0.6027    0.0000 O   0  0  0  0  0  0  0  0  0  0  0  0
   -0.8741    1.1438    0.0000 O   0  0  0  0  0  0  0  0  0  0  0  0
    1.0307   -1.8529    0.0000 O   0  0  0  0  0  0  0  0  0  0  0  0
   -1.6603   -1.3275    0.0000 C   0  0  2  0  0  0  0  0  0  0  0  0
   -2.4829   -1.3474    0.0000 C   0  0  1  0  0  0  0  0  0  0  0  0
   -2.8734   -2.0695    0.0000 C   0  0  2  0  0  0  0  0  0  0  0  0
   -2.4464   -2.7760    0.0000 C   0  0  1  0  0  0  0  0  0  0  0  0
   -1.6228   -2.7517    0.0000 C   0  0  1  0  0  0  0  0  0  0  0  0
   -1.2240   -2.0264    0.0000 O   0  0  0  0  0  0  0  0  0  0  0  0
   -1.1963   -3.4609    0.0000 C   0  0  0  0  0  0  0  0  0  0  0  0
   -1.5877   -4.1821    0.0000 N   0  0  0  0  0  0  0  0  0  0  0  0
   -2.8435   -3.4992    0.0000 O   0  0  0  0  0  0  0  0  0  0  0  0
   -3.6984   -2.0872    0.0000 O   0  0  0  0  0  0  0  0  0  0  0  0
   -2.9082   -0.6442    0.0000 N   0  0  0  0  0  0  0  0  0  0  0  0
    5.0256    2.7656    0.0000 C   0  0  0  0  0  0  0  0  0  0  0  0
    5.8465    2.7663    0.0000 O   0  0  0  0  0  0  0  0  0  0  0  0
   -1.6983    1.1304    0.0000 C   0  0  0  0  0  0  0  0  0  0  0  0
   -2.1260    1.8359    0.0000 C   0  0  0  0  0  0  0  0  0  0  0  0
   -2.9509    1.8184    0.0000 N   0  0  0  0  0  0  0  0  0  0  0  0
   -3.3786    2.5242    0.0000 C   0  0  0  0  0  0  0  0  0  0  0  0
   -4.2035    2.5066    0.0000 C   0  0  3  0  0  0  0  0  0  0  0  0
   -4.6263    3.2140    0.0000 C   0  0  0  0  0  0  0  0  0  0  0  0
   -5.4477    3.1986    0.0000 C   0  0  0  0  0  0  0  0  0  0  0  0
   -5.8488    2.4771    0.0000 C   0  0  0  0  0  0  0  0  0  0  0  0
   -5.4225    1.7695    0.0000 N   0  0  0  0  0  0  0  0  0  0  0  0
   -4.5947    1.7835    0.0000 C   0  0  0  0  0  0  0  0  0  0  0  0
    0.3780    1.8209    0.0000 H   0  0  0  0  0  0  0  0  0  0  0  0
    0.2533    2.0339    0.0000 H   0  0  0  0  0  0  0  0  0  0  0  0
    1.6135    1.1146    0.0000 H   0  0  0  0  0  0  0  0  0  0  0  0
    3.0885    1.8306    0.0000 H   0  0  0  0  0  0  0  0  0  0  0  0
    2.6741    4.3940    0.0000 H   0  0  0  0  0  0  0  0  0  0  0  0
    1.6044    4.3953    0.0000 H   0  0  0  0  0  0  0  0  0  0  0  0
    0.2431    3.4617    0.0000 H   0  0  0  0  0  0  0  0  0  0  0  0
    2.8477    0.4107    0.0000 H   0  0  0  0  0  0  0  0  0  0  0  0
    2.7229    0.6239    0.0000 H   0  0  0  0  0  0  0  0  0  0  0  0
    5.6844    0.6255    0.0000 H   0  0  0  0  0  0  0  0  0  0  0  0
    5.5626    0.4134    0.0000 H   0  0  0  0  0  0  0  0  0  0  0  0
    5.6836    2.0534    0.0000 H   0  0  0  0  0  0  0  0  0  0  0  0
   -0.0814    1.5158    0.0000 H   0  0  0  0  0  0  0  0  0  0  0  0
    0.0610    1.5291    0.0000 H   0  0  0  0  0  0  0  0  0  0  0  0
   -1.3323    0.4093    0.0000 H   0  0  0  0  0  0  0  0  0  0  0  0
   -0.7015   -1.2672    0.0000 H   0  0  0  0  0  0  0  0  0  0  0  0
    6.3342    0.5008    0.0000 H   0  0  0  0  0  0  0  0  0  0  0  0
    4.5427   -0.9288    0.0000 H   0  0  0  0  0  0  0  0  0  0  0  0
    2.3611   -0.0915    0.0000 H   0  0  0  0  0  0  0  0  0  0  0  0
    3.8920   -0.9733    0.0000 H   0  0  0  0  0  0  0  0  0  0  0  0
    1.4037    5.0676    0.0000 H   0  0  0  0  0  0  0  0  0  0  0  0
   -0.1225    4.1777    0.0000 H   0  0  0  0  0  0  0  0  0  0  0  0
    3.8872    1.8754    0.0000 H   0  0  0  0  0  0  0  0  0  0  0  0
    3.8822    3.6421    0.0000 H   0  0  0  0  0  0  0  0  0  0  0  0
   -0.4085    3.5813    0.0000 H   0  0  0  0  0  0  0  0  0  0  0  0
   -0.5900   -2.1372    0.0000 H   0  0  0  0  0  0  0  0  0  0  0  0
    0.3856   -2.5792    0.0000 H   0  0  0  0  0  0  0  0  0  0  0  0
    1.1275   -2.8181    0.0000 H   0  0  0  0  0  0  0  0  0  0  0  0
   -2.2180   -0.4144    0.0000 H   0  0  0  0  0  0  0  0  0  0  0  0
   -1.9687   -0.4091    0.0000 H   0  0  0  0  0  0  0  0  0  0  0  0
   -3.4311   -1.1563    0.0000 H   0  0  0  0  0  0  0  0  0  0  0  0
   -3.5162   -2.7982    0.0000 H   0  0  0  0  0  0  0  0  0  0  0  0
   -2.1357   -3.6907    0.0000 H   0  0  0  0  0  0  0  0  0  0  0  0
   -0.1266   -3.4373    0.0000 H   0  0  0  0  0  0  0  0  0  0  0  0
   -0.6390   -4.3743    0.0000 H   0  0  0  0  0  0  0  0  0  0  0  0
   -2.6073   -4.2090    0.0000 H   0  0  0  0  0  0  0  0  0  0  0  0
   -1.0546   -5.0517    0.0000 H   0  0  0  0  0  0  0  0  0  0  0  0
   -3.8133   -3.5200    0.0000 H   0  0  0  0  0  0  0  0  0  0  0  0
   -4.2013   -1.2578    0.0000 H   0  0  0  0  0  0  0  0  0  0  0  0
   -2.4163    0.2493    0.0000 H   0  0  0  0  0  0  0  0  0  0  0  0
   -3.9280   -0.6650    0.0000 H   0  0  0  0  0  0  0  0  0  0  0  0
    4.4898    3.6918    0.0000 H   0  0  0  0  0  0  0  0  0  0  0  0
    5.5598    3.6927    0.0000 H   0  0  0  0  0  0  0  0  0  0  0  0
    6.3322    1.9267    0.0000 H   0  0  0  0  0  0  0  0  0  0  0  0
   -2.2158    0.1938    0.0000 H   0  0  0  0  0  0  0  0  0  0  0  0
   -2.7681    1.1089    0.0000 H   0  0  0  0  0  0  0  0  0  0  0  0
   -1.6109    2.7737    0.0000 H   0  0  0  0  0  0  0  0  0  0  0  0
   -2.6806    2.7510    0.0000 H   0  0  0  0  0  0  0  0  0  0  0  0
   -3.4421    0.9244    0.0000 H   0  0  0  0  0  0  0  0  0  0  0  0
   -2.8634    3.4620    0.0000 H   0  0  0  0  0  0  0  0  0  0  0  0
   -3.9332    3.4392    0.0000 H   0  0  0  0  0  0  0  0  0  0  0  0
   -3.6855    3.4428    0.0000 H   0  0  0  0  0  0  0  0  0  0  0  0
   -4.1071    4.1496    0.0000 H   0  0  0  0  0  0  0  0  0  0  0  0
   -5.1777    4.1310    0.0000 H   0  0  0  0  0  0  0  0  0  0  0  0
   -5.9988    4.1158    0.0000 H   0  0  0  0  0  0  0  0  0  0  0  0
   -6.5175    3.1806    0.0000 H   0  0  0  0  0  0  0  0  0  0  0  0
   -6.9186    2.4585    0.0000 H   0  0  0  0  0  0  0  0  0  0  0  0
   -6.3670    1.5410    0.0000 H   0  0  0  0  0  0  0  0  0  0  0  0
   -5.9167    0.8772    0.0000 H   0  0  0  0  0  0  0  0  0  0  0  0
   -4.0392    0.8690    0.0000 H   0  0  0  0  0  0  0  0  0  0  0  0
   -5.1114    0.8465    0.0000 H   0  0  0  0  0  0  0  0  0  0  0  0
  1 25  1  0  0  0  0
  1  2  1  0  0  0  0
  1  6  1  0  0  0  0
  1 53  1  6  0  0  0
  2 14  1  0  0  0  0
  2  3  1  0  0  0  0
  2 54  1  1  0  0  0
  3  7  1  0  0  0  0
  3  4  1  0  0  0  0
  3 55  1  6  0  0  0
  4  5  1  0  0  0  0
  4 24  1  0  0  0  0
  4 56  1  1  0  0  0
  5  6  1  0  0  0  0
  5 57  1  0  0  0  0
  5 58  1  0  0  0  0
  6 23  1  0  0  0  0
  6 59  1  1  0  0  0
  8  7  1  0  0  0  0
  8  9  1  0  0  0  0
  8 13  1  0  0  0  0
  8 60  1  6  0  0  0
  9 22  1  0  0  0  0
  9 10  1  0  0  0  0
  9 61  1  6  0  0  0
 10 11  1  0  0  0  0
 10 21  1  0  0  0  0
 10 62  1  1  0  0  0
 11 12  1  0  0  0  0
 11 20  1  0  0  0  0
 11 63  1  6  0  0  0
 12 13  1  0  0  0  0
 12 41  1  0  0  0  0
 12 64  1  1  0  0  0
 15 14  1  0  0  0  0
 15 16  1  0  0  0  0
 15 65  1  1  0  0  0
 16 28  1  0  0  0  0
 16 17  1  0  0  0  0
 16 66  1  6  0  0  0
 17 27  1  0  0  0  0
 17 18  1  0  0  0  0
 17 67  1  6  0  0  0
 18 26  1  0  0  0  0
 18 19  1  0  0  0  0
 18 68  1  1  0  0  0
 19 15  1  0  0  0  0
 20 69  1  0  0  0  0
 21 70  1  0  0  0  0
 22 71  1  0  0  0  0
 22 72  1  0  0  0  0
 23 73  1  0  0  0  0
 23 74  1  0  0  0  0
 24 75  1  0  0  0  0
 24 76  1  0  0  0  0
 25 77  1  0  0  0  0
 26 29  1  0  0  0  0
 26 78  1  0  0  0  0
 26 79  1  0  0  0  0
 28 43  1  0  0  0  0
 29 80  1  0  0  0  0
 30 27  1  0  0  0  0
 30 31  1  0  0  0  0
 30 35  1  0  0  0  0
 30 81  1  6  0  0  0
 31 32  1  0  0  0  0
 31 40  1  0  0  0  0
 31 82  1  6  0  0  0
 32 33  1  0  0  0  0
 32 39  1  0  0  0  0
 32 83  1  1  0  0  0
 33 34  1  0  0  0  0
 33 38  1  0  0  0  0
 33 84  1  6  0  0  0
 34 35  1  0  0  0  0
 34 36  1  0  0  0  0
 34 85  1  6  0  0  0
 36 37  1  0  0  0  0
 36 86  1  0  0  0  0
 36 87  1  0  0  0  0
 37 88  1  0  0  0  0
 37 89  1  0  0  0  0
 38 90  1  0  0  0  0
 39 91  1  0  0  0  0
 40 92  1  0  0  0  0
 40 93  1  0  0  0  0
 41 42  1  0  0  0  0
 41 94  1  0  0  0  0
 41 95  1  0  0  0  0
 42 96  1  0  0  0  0
 43 44  1  0  0  0  0
 43 97  1  0  0  0  0
 43 98  1  0  0  0  0
 44 45  1  0  0  0  0
 44 99  1  0  0  0  0
 44100  1  0  0  0  0
 45 46  1  0  0  0  0
 45101  1  0  0  0  0
 46 47  1  0  0  0  0
 46102  1  0  0  0  0
 46103  1  0  0  0  0
 47 48  1  0  0  0  0
 47 52  1  0  0  0  0
 47104  1  0  0  0  0
 48 49  1  0  0  0  0
 48105  1  0  0  0  0
 48106  1  0  0  0  0
 49 50  1  0  0  0  0
 49107  1  0  0  0  0
 49108  1  0  0  0  0
 50 51  1  0  0  0  0
 50109  1  0  0  0  0
 50110  1  0  0  0  0
 51 52  1  0  0  0  0
 51111  1  0  0  0  0
 52112  1  0  0  0  0
 52113  1  0  0  0  0
M  END
>  <DRUGBANK_ID>
DB04718

>  <COMMON_NAME>
(1R,2R,3S,4R,6S)-4,6-diamino-2-{[3-O-(2,6-diamino-2,6-dideoxy-beta-L-idopyranosyl)-2-O-{2-[(piperidin-3-ylmethyl)amino]ethyl}-beta-D-ribofuranosyl]oxy}-3-hydroxycyclohexyl 2-amino-2-deoxy-alpha-D-glucopyranoside

>  <SYNONYMS>
(1R,2R,3S,4R,6S)-4,6-diamino-2-{[3-O-(2,6-diamino-2,6-dideoxy-β-L-idopyranosyl)-2-O-{2-[(piperidin-3-ylmethyl)amino]ethyl}-β-D-ribofuranosyl]oxy}-3-hydroxycyclohexyl 2-amino-2-deoxy-α-D-glucopyranoside

$$$$
