
 OpenBabel10282417072D

 85 87  0  0  1  0  0  0  0  0999 V2000
   20.7702  -12.4705    0.0000 C   0  0  2  0  0  0  0  0  0  0  0  0
   20.7702  -13.3024    0.0000 C   0  0  1  0  0  0  0  0  0  0  0  0
   20.0482  -12.0599    0.0000 O   0  0  0  0  0  0  0  0  0  0  0  0
   21.4853  -12.0599    0.0000 O   0  0  0  0  0  0  0  0  0  0  0  0
   20.0482  -13.7200    0.0000 C   0  0  2  0  0  0  0  0  0  0  0  0
   21.5809  -14.0493    0.0000 N   0  0  0  0  0  0  0  0  0  0  0  0
   19.3368  -12.4705    0.0000 C   0  0  1  0  0  0  0  0  0  0  0  0
   22.3100  -12.0599    0.0000 P   0  0  3  0  0  0  0  0  0  0  0  0
   19.3368  -13.3024    0.0000 C   0  0  1  0  0  0  0  0  0  0  0  0
   20.0482  -14.5484    0.0000 O   0  0  0  0  0  0  0  0  0  0  0  0
   21.5809  -14.8774    0.0000 C   0  0  0  0  0  0  0  0  0  0  0  0
   18.6254  -12.0599    0.0000 C   0  0  0  0  0  0  0  0  0  0  0  0
   23.1312  -12.0599    0.0000 O   0  0  0  0  0  0  0  0  0  0  0  0
   22.3100  -11.2352    0.0000 O   0  0  0  0  0  0  0  0  0  0  0  0
   22.3100  -12.8811    0.0000 O   0  0  0  0  0  0  0  0  0  0  0  0
   18.6217  -13.7094    0.0000 O   0  0  0  0  0  0  0  0  0  0  0  0
   19.3332  -14.9554    0.0000 C   0  0  1  0  0  0  0  0  0  0  0  0
   22.2959  -15.2845    0.0000 C   0  0  0  0  0  0  0  0  0  0  0  0
   20.8694  -15.2881    0.0000 O   0  0  0  0  0  0  0  0  0  0  0  0
   18.6183  -11.2103    0.0000 O   0  0  0  0  0  0  0  0  0  0  0  0
   23.9524  -12.0599    0.0000 P   0  0  3  0  0  0  0  0  0  0  0  0
   19.3296  -15.7802    0.0000 C   0  0  0  0  0  0  0  0  0  0  0  0
   18.6217  -14.5447    0.0000 C   0  0  0  0  0  0  0  0  0  0  0  0
   24.7807  -12.0599    0.0000 O   0  0  0  0  0  0  0  0  0  0  0  0
   23.9560  -11.2352    0.0000 O   0  0  0  0  0  0  0  0  0  0  0  0
   23.9524  -12.8811    0.0000 O   0  0  0  0  0  0  0  0  0  0  0  0
   18.4235  -16.4809    0.0000 N   0  0  0  0  0  0  0  0  0  0  0  0
   20.0412  -16.1907    0.0000 O   0  0  0  0  0  0  0  0  0  0  0  0
   24.9577  -12.8669    0.0000 C   0  0  0  0  0  0  0  0  0  0  0  0
   18.4129  -17.2950    0.0000 C   0  0  2  0  0  0  0  0  0  0  0  0
   25.7399  -13.1183    0.0000 C   0  0  1  0  0  0  0  0  0  0  0  0
   17.6236  -17.5641    0.0000 C   0  0  0  0  0  0  0  0  0  0  0  0
   19.1066  -17.7623    0.0000 C   0  0  0  0  0  0  0  0  0  0  0  0
   26.3948  -12.6369    0.0000 O   0  0  0  0  0  0  0  0  0  0  0  0
   26.0054  -13.9005    0.0000 C   0  0  2  0  0  0  0  0  0  0  0  0
   16.9475  -17.0863    0.0000 O   0  0  0  0  0  0  0  0  0  0  0  0
   17.6236  -18.3888    0.0000 O   0  0  0  0  0  0  0  0  0  0  0  0
   27.0709  -13.1324    0.0000 C   0  0  2  0  0  0  0  0  0  0  0  0
   26.8231  -13.9005    0.0000 C   0  0  2  0  0  0  0  0  0  0  0  0
   25.5241  -14.5696    0.0000 O   0  0  0  0  0  0  0  0  0  0  0  0
   27.7150  -11.7908    0.0000 N   0  0  0  0  0  0  0  0  0  0  0  0
   27.3151  -14.5660    0.0000 O   0  0  0  0  0  0  0  0  0  0  0  0
   27.0036  -11.3697    0.0000 C   0  0  0  0  0  0  0  0  0  0  0  0
   28.4372  -11.3697    0.0000 C   0  0  0  0  0  0  0  0  0  0  0  0
   27.0036  -10.5343    0.0000 N   0  0  0  0  0  0  0  0  0  0  0  0
   26.2886  -11.7768    0.0000 O   0  0  0  0  0  0  0  0  0  0  0  0
   28.4372  -10.5343    0.0000 C   0  0  0  0  0  0  0  0  0  0  0  0
   27.7186  -10.1237    0.0000 C   0  0  0  0  0  0  0  0  0  0  0  0
   27.7150   -9.3062    0.0000 O   0  0  0  0  0  0  0  0  0  0  0  0
   21.6962  -13.0066    0.0000 H   0  0  0  0  0  0  0  0  0  0  0  0
   21.7502  -12.8728    0.0000 H   0  0  0  0  0  0  0  0  0  0  0  0
   20.9751  -14.2546    0.0000 H   0  0  0  0  0  0  0  0  0  0  0  0
   22.4826  -13.6540    0.0000 H   0  0  0  0  0  0  0  0  0  0  0  0
   19.3368  -11.4005    0.0000 H   0  0  0  0  0  0  0  0  0  0  0  0
   19.3296  -14.3724    0.0000 H   0  0  0  0  0  0  0  0  0  0  0  0
   17.7010  -12.5988    0.0000 H   0  0  0  0  0  0  0  0  0  0  0  0
   17.6954  -11.5307    0.0000 H   0  0  0  0  0  0  0  0  0  0  0  0
   23.1500  -10.7502    0.0000 H   0  0  0  0  0  0  0  0  0  0  0  0
   17.7847  -13.2192    0.0000 H   0  0  0  0  0  0  0  0  0  0  0  0
   19.3364  -13.8854    0.0000 H   0  0  0  0  0  0  0  0  0  0  0  0
   22.3023  -16.3545    0.0000 H   0  0  0  0  0  0  0  0  0  0  0  0
   23.2193  -14.7439    0.0000 H   0  0  0  0  0  0  0  0  0  0  0  0
   23.2257  -15.8139    0.0000 H   0  0  0  0  0  0  0  0  0  0  0  0
   19.4543  -10.7183    0.0000 H   0  0  0  0  0  0  0  0  0  0  0  0
   18.6216  -13.4747    0.0000 H   0  0  0  0  0  0  0  0  0  0  0  0
   17.6951  -15.0798    0.0000 H   0  0  0  0  0  0  0  0  0  0  0  0
   17.6950  -14.0098    0.0000 H   0  0  0  0  0  0  0  0  0  0  0  0
   24.7982  -10.7539    0.0000 H   0  0  0  0  0  0  0  0  0  0  0  0
   17.5426  -16.0414    0.0000 H   0  0  0  0  0  0  0  0  0  0  0  0
   24.1660  -13.5867    0.0000 H   0  0  0  0  0  0  0  0  0  0  0  0
   25.1844  -13.9126    0.0000 H   0  0  0  0  0  0  0  0  0  0  0  0
   17.5468  -16.6667    0.0000 H   0  0  0  0  0  0  0  0  0  0  0  0
   25.5679  -12.0622    0.0000 H   0  0  0  0  0  0  0  0  0  0  0  0
   19.0326  -18.8297    0.0000 H   0  0  0  0  0  0  0  0  0  0  0  0
   20.0680  -17.2927    0.0000 H   0  0  0  0  0  0  0  0  0  0  0  0
   19.9940  -18.3601    0.0000 H   0  0  0  0  0  0  0  0  0  0  0  0
   24.9471  -13.7425    0.0000 H   0  0  0  0  0  0  0  0  0  0  0  0
   17.0332  -16.1532    0.0000 H   0  0  0  0  0  0  0  0  0  0  0  0
   26.8110  -12.0944    0.0000 H   0  0  0  0  0  0  0  0  0  0  0  0
   26.3413  -14.8559    0.0000 H   0  0  0  0  0  0  0  0  0  0  0  0
   24.5589  -14.4728    0.0000 H   0  0  0  0  0  0  0  0  0  0  0  0
   26.9279  -15.4554    0.0000 H   0  0  0  0  0  0  0  0  0  0  0  0
   29.3320  -11.8838    0.0000 H   0  0  0  0  0  0  0  0  0  0  0  0
   26.1516  -10.0411    0.0000 H   0  0  0  0  0  0  0  0  0  0  0  0
   29.3298  -10.0163    0.0000 H   0  0  0  0  0  0  0  0  0  0  0  0
  1  2  1  0  0  0  0
  1  3  1  0  0  0  0
  1  4  1  0  0  0  0
  1 50  1  1  0  0  0
  2  5  1  0  0  0  0
  2  6  1  0  0  0  0
  2 51  1  1  0  0  0
  3  7  1  0  0  0  0
  4  8  1  0  0  0  0
  5  9  1  0  0  0  0
  5 10  1  0  0  0  0
  5 52  1  6  0  0  0
  6 11  1  0  0  0  0
  6 53  1  0  0  0  0
  7 12  1  0  0  0  0
  7  9  1  0  0  0  0
  7 54  1  6  0  0  0
  8 13  1  0  0  0  0
  8 14  1  0  0  0  0
  8 15  2  0  0  0  0
  9 16  1  0  0  0  0
  9 55  1  1  0  0  0
 10 17  1  0  0  0  0
 11 18  1  0  0  0  0
 11 19  2  0  0  0  0
 12 20  1  0  0  0  0
 12 56  1  0  0  0  0
 12 57  1  0  0  0  0
 13 21  1  0  0  0  0
 14 58  1  0  0  0  0
 16 59  1  0  0  0  0
 17 22  1  0  0  0  0
 17 23  1  0  0  0  0
 17 60  1  6  0  0  0
 18 61  1  0  0  0  0
 18 62  1  0  0  0  0
 18 63  1  0  0  0  0
 20 64  1  0  0  0  0
 21 24  1  0  0  0  0
 21 25  1  0  0  0  0
 21 26  2  0  0  0  0
 22 27  1  0  0  0  0
 22 28  2  0  0  0  0
 23 65  1  0  0  0  0
 23 66  1  0  0  0  0
 23 67  1  0  0  0  0
 24 29  1  0  0  0  0
 25 68  1  0  0  0  0
 27 69  1  0  0  0  0
 29 70  1  0  0  0  0
 29 71  1  0  0  0  0
 30 27  1  0  0  0  0
 30 32  1  0  0  0  0
 30 33  1  0  0  0  0
 30 72  1  6  0  0  0
 31 29  1  0  0  0  0
 31 34  1  0  0  0  0
 31 35  1  0  0  0  0
 31 73  1  6  0  0  0
 32 36  1  0  0  0  0
 32 37  2  0  0  0  0
 33 74  1  0  0  0  0
 33 75  1  0  0  0  0
 33 76  1  0  0  0  0
 34 38  1  0  0  0  0
 35 39  1  0  0  0  0
 35 40  1  0  0  0  0
 35 77  1  1  0  0  0
 36 78  1  0  0  0  0
 38 41  1  0  0  0  0
 38 39  1  0  0  0  0
 38 79  1  6  0  0  0
 39 42  1  0  0  0  0
 39 80  1  1  0  0  0
 40 81  1  0  0  0  0
 41 43  1  0  0  0  0
 41 44  1  0  0  0  0
 42 82  1  0  0  0  0
 43 45  1  0  0  0  0
 43 46  2  0  0  0  0
 44 47  2  0  0  0  0
 44 83  1  0  0  0  0
 45 48  1  0  0  0  0
 45 84  1  0  0  0  0
 47 48  1  0  0  0  0
 47 85  1  0  0  0  0
 48 49  2  0  0  0  0
M  END
>  <DRUGBANK_ID>
DB01673

>  <SECONDARY_ACCESSION_NUMBERS>
EXPT03184

>  <COMMON_NAME>
Uridine-5'-Diphosphate-N-Acetylmuramoyl-L-Alanine

$$$$
