
 OpenBabel10282417072D

 67 71  0  0  1  0  0  0  0  0999 V2000
    9.7825    7.2979    0.0000 C   0  0  0  0  0  0  0  0  0  0  0  0
    9.0681    6.8854    0.0000 N   0  0  0  0  0  0  0  0  0  0  0  0
    9.0681    6.0604    0.0000 C   0  0  0  0  0  0  0  0  0  0  0  0
    8.3536    5.6479    0.0000 C   0  0  0  0  0  0  0  0  0  0  0  0
    7.6391    6.0604    0.0000 C   0  0  0  0  0  0  0  0  0  0  0  0
    7.6391    6.8854    0.0000 C   0  0  0  0  0  0  0  0  0  0  0  0
    8.3536    7.2979    0.0000 C   0  0  0  0  0  0  0  0  0  0  0  0
    6.9246    5.6479    0.0000 N   0  0  3  0  0  0  0  0  0  0  0  0
    6.9246    4.8229    0.0000 C   0  0  0  0  0  0  0  0  0  0  0  0
    6.2102    4.4104    0.0000 C   0  0  0  0  0  0  0  0  0  0  0  0
    5.4957    4.8229    0.0000 N   0  0  0  0  0  0  0  0  0  0  0  0
    5.4957    5.6479    0.0000 C   0  0  0  0  0  0  0  0  0  0  0  0
    6.2102    6.0604    0.0000 C   0  0  0  0  0  0  0  0  0  0  0  0
    4.7812    4.4104    0.0000 C   0  0  0  0  0  0  0  0  0  0  0  0
    4.0668    4.8229    0.0000 O   0  0  0  0  0  0  0  0  0  0  0  0
    4.7812    3.5854    0.0000 C   0  0  1  0  0  0  0  0  0  0  0  0
    5.4957    3.1729    0.0000 C   0  0  0  0  0  0  0  0  0  0  0  0
    6.2102    3.5854    0.0000 C   0  0  0  0  0  0  0  0  0  0  0  0
    6.9246    3.1729    0.0000 C   0  0  0  0  0  0  0  0  0  0  0  0
    6.9246    2.3479    0.0000 C   0  0  0  0  0  0  0  0  0  0  0  0
    6.2102    1.9354    0.0000 C   0  0  0  0  0  0  0  0  0  0  0  0
    5.4957    2.3479    0.0000 C   0  0  0  0  0  0  0  0  0  0  0  0
    4.0668    3.1729    0.0000 N   0  0  0  0  0  0  0  0  0  0  0  0
    4.0668    2.3479    0.0000 C   0  0  0  0  0  0  0  0  0  0  0  0
    4.7812    1.9354    0.0000 O   0  0  0  0  0  0  0  0  0  0  0  0
    3.3523    1.9354    0.0000 C   0  0  0  0  0  0  0  0  0  0  0  0
    3.3523    1.1104    0.0000 C   0  0  0  0  0  0  0  0  0  0  0  0
    2.6378    0.6979    0.0000 C   0  0  0  0  0  0  0  0  0  0  0  0
    1.9233    1.1104    0.0000 C   0  0  0  0  0  0  0  0  0  0  0  0
    1.1387    0.8555    0.0000 C   0  0  0  0  0  0  0  0  0  0  0  0
    0.6538    1.5229    0.0000 C   0  0  0  0  0  0  0  0  0  0  0  0
    1.1387    2.1904    0.0000 N   0  0  0  0  0  0  0  0  0  0  0  0
    1.9233    1.9354    0.0000 C   0  0  0  0  0  0  0  0  0  0  0  0
    2.6378    2.3479    0.0000 C   0  0  0  0  0  0  0  0  0  0  0  0
   10.7092    6.7629    0.0000 H   0  0  0  0  0  0  0  0  0  0  0  0
    9.7825    8.3679    0.0000 H   0  0  0  0  0  0  0  0  0  0  0  0
   10.7091    7.8329    0.0000 H   0  0  0  0  0  0  0  0  0  0  0  0
    9.9947    5.5254    0.0000 H   0  0  0  0  0  0  0  0  0  0  0  0
    9.0681    4.9904    0.0000 H   0  0  0  0  0  0  0  0  0  0  0  0
    8.3536    4.5779    0.0000 H   0  0  0  0  0  0  0  0  0  0  0  0
    7.4270    5.1129    0.0000 H   0  0  0  0  0  0  0  0  0  0  0  0
    6.7125    6.5954    0.0000 H   0  0  0  0  0  0  0  0  0  0  0  0
    6.7125    7.4204    0.0000 H   0  0  0  0  0  0  0  0  0  0  0  0
    7.6391    7.9554    0.0000 H   0  0  0  0  0  0  0  0  0  0  0  0
    8.3536    8.3679    0.0000 H   0  0  0  0  0  0  0  0  0  0  0  0
    9.2802    7.8329    0.0000 H   0  0  0  0  0  0  0  0  0  0  0  0
    7.8513    4.2879    0.0000 H   0  0  0  0  0  0  0  0  0  0  0  0
    6.9246    3.7529    0.0000 H   0  0  0  0  0  0  0  0  0  0  0  0
    6.2102    3.3404    0.0000 H   0  0  0  0  0  0  0  0  0  0  0  0
    5.2836    3.8754    0.0000 H   0  0  0  0  0  0  0  0  0  0  0  0
    4.5691    6.1829    0.0000 H   0  0  0  0  0  0  0  0  0  0  0  0
    5.4957    6.7179    0.0000 H   0  0  0  0  0  0  0  0  0  0  0  0
    6.2102    7.1304    0.0000 H   0  0  0  0  0  0  0  0  0  0  0  0
    7.1369    6.5954    0.0000 H   0  0  0  0  0  0  0  0  0  0  0  0
    3.8545    4.1204    0.0000 H   0  0  0  0  0  0  0  0  0  0  0  0
    6.2102    4.6174    0.0000 H   0  0  0  0  0  0  0  0  0  0  0  0
    7.8183    3.6889    0.0000 H   0  0  0  0  0  0  0  0  0  0  0  0
    7.8183    1.8319    0.0000 H   0  0  0  0  0  0  0  0  0  0  0  0
    6.2102    0.9034    0.0000 H   0  0  0  0  0  0  0  0  0  0  0  0
    4.6020    1.8319    0.0000 H   0  0  0  0  0  0  0  0  0  0  0  0
    3.2142    3.6651    0.0000 H   0  0  0  0  0  0  0  0  0  0  0  0
    4.2460    0.5944    0.0000 H   0  0  0  0  0  0  0  0  0  0  0  0
    2.6378   -0.3341    0.0000 H   0  0  0  0  0  0  0  0  0  0  0  0
    0.8198   -0.1260    0.0000 H   0  0  0  0  0  0  0  0  0  0  0  0
   -0.3782    1.5229    0.0000 H   0  0  0  0  0  0  0  0  0  0  0  0
    0.8345    3.1267    0.0000 H   0  0  0  0  0  0  0  0  0  0  0  0
    2.6378    3.3799    0.0000 H   0  0  0  0  0  0  0  0  0  0  0  0
  1  2  1  0  0  0  0
  1 35  1  0  0  0  0
  1 36  1  0  0  0  0
  1 37  1  0  0  0  0
  2  3  1  0  0  0  0
  2  7  1  0  0  0  0
  3  4  1  0  0  0  0
  3 38  1  0  0  0  0
  3 39  1  0  0  0  0
  4  5  1  0  0  0  0
  4 40  1  0  0  0  0
  4 41  1  0  0  0  0
  5  6  1  0  0  0  0
  5  8  1  0  0  0  0
  5 42  1  0  0  0  0
  6  7  1  0  0  0  0
  6 43  1  0  0  0  0
  6 44  1  0  0  0  0
  7 45  1  0  0  0  0
  7 46  1  0  0  0  0
  8  9  1  0  0  0  0
  8 13  1  0  0  0  0
  9 10  1  0  0  0  0
  9 47  1  0  0  0  0
  9 48  1  0  0  0  0
 10 11  1  0  0  0  0
 10 49  1  0  0  0  0
 10 50  1  0  0  0  0
 11 12  1  0  0  0  0
 11 14  1  0  0  0  0
 12 13  1  0  0  0  0
 12 51  1  0  0  0  0
 12 52  1  0  0  0  0
 13 53  1  0  0  0  0
 13 54  1  0  0  0  0
 14 15  2  0  0  0  0
 14 16  1  0  0  0  0
 16 17  1  0  0  0  0
 16 23  1  0  0  0  0
 16 55  1  6  0  0  0
 17 18  2  0  0  0  0
 17 22  1  0  0  0  0
 18 19  1  0  0  0  0
 18 56  1  0  0  0  0
 19 20  2  0  0  0  0
 19 57  1  0  0  0  0
 20 21  1  0  0  0  0
 20 58  1  0  0  0  0
 21 22  2  0  0  0  0
 21 59  1  0  0  0  0
 22 60  1  0  0  0  0
 23 24  1  0  0  0  0
 23 61  1  0  0  0  0
 24 25  2  0  0  0  0
 24 26  1  0  0  0  0
 26 27  2  0  0  0  0
 26 34  1  0  0  0  0
 27 28  1  0  0  0  0
 27 62  1  0  0  0  0
 28 29  2  0  0  0  0
 28 63  1  0  0  0  0
 29 30  1  0  0  0  0
 29 33  1  0  0  0  0
 30 31  2  0  0  0  0
 30 64  1  0  0  0  0
 31 32  1  0  0  0  0
 31 65  1  0  0  0  0
 32 33  1  0  0  0  0
 32 66  1  0  0  0  0
 33 34  2  0  0  0  0
 34 67  1  0  0  0  0
M  END
>  <DRUGBANK_ID>
DB05713

>  <COMMON_NAME>
LY-517717

>  <CAS_NUMBER>
313489-71-3

>  <UNII>
TSA990HP1K

$$$$
