
 OpenBabel10282417072D

 75 78  0  0  0  0  0  0  0  0999 V2000
    0.8007    1.0285    0.0000 O   0  0  0  0  0  0  0  0  0  0  0  0
    1.2829    1.6915    0.0000 C   0  0  1  0  0  0  0  0  0  0  0  0
    2.1079    1.6915    0.0000 C   0  0  2  0  0  0  0  0  0  0  0  0
    1.0391    2.4779    0.0000 C   0  0  2  0  0  0  0  0  0  0  0  0
    2.3512    2.4938    0.0000 C   0  0  1  0  0  0  0  0  0  0  0  0
    1.7060    2.9681    0.0000 O   0  0  0  0  0  0  0  0  0  0  0  0
    0.2553    2.7335    0.0000 C   0  0  0  0  0  0  0  0  0  0  0  0
   -0.6238    2.9005    0.0000 O   0  0  0  0  0  0  0  0  0  0  0  0
    3.1424    2.7542    0.0000 N   0  0  0  0  0  0  0  0  0  0  0  0
    3.7563    2.2060    0.0000 C   0  0  0  0  0  0  0  0  0  0  0  0
    4.5432    2.4666    0.0000 N   0  0  0  0  0  0  0  0  0  0  0  0
    4.7120    3.2712    0.0000 C   0  0  0  0  0  0  0  0  0  0  0  0
    4.0897    3.8195    0.0000 C   0  0  0  0  0  0  0  0  0  0  0  0
    3.3068    3.5631    0.0000 C   0  0  0  0  0  0  0  0  0  0  0  0
    2.5948    1.0248    0.0000 O   0  0  0  0  0  0  0  0  0  0  0  0
    3.5917    1.3971    0.0000 O   0  0  0  0  0  0  0  0  0  0  0  0
    5.4948    3.5317    0.0000 O   0  0  0  0  0  0  0  0  0  0  0  0
   -3.9435   -3.8158    0.0000 O   0  0  0  0  0  0  0  0  0  0  0  0
   -3.4614   -3.1529    0.0000 C   0  0  1  0  0  0  0  0  0  0  0  0
   -2.6365   -3.1529    0.0000 C   0  0  2  0  0  0  0  0  0  0  0  0
   -3.7052   -2.3666    0.0000 C   0  0  2  0  0  0  0  0  0  0  0  0
   -2.3931   -2.3506    0.0000 C   0  0  1  0  0  0  0  0  0  0  0  0
   -3.0382   -1.8764    0.0000 O   0  0  0  0  0  0  0  0  0  0  0  0
   -4.4890   -2.1110    0.0000 C   0  0  0  0  0  0  0  0  0  0  0  0
   -4.5094   -1.2976    0.0000 O   0  0  0  0  0  0  0  0  0  0  0  0
   -1.6020   -2.0902    0.0000 N   0  0  0  0  0  0  0  0  0  0  0  0
   -0.9880   -2.6384    0.0000 C   0  0  0  0  0  0  0  0  0  0  0  0
   -0.2012   -2.3779    0.0000 N   0  0  0  0  0  0  0  0  0  0  0  0
   -0.0323   -1.5733    0.0000 C   0  0  0  0  0  0  0  0  0  0  0  0
   -0.6547   -1.0249    0.0000 C   0  0  0  0  0  0  0  0  0  0  0  0
   -1.4374   -1.2813    0.0000 C   0  0  0  0  0  0  0  0  0  0  0  0
   -2.1496   -3.8195    0.0000 O   0  0  0  0  0  0  0  0  0  0  0  0
   -1.1527   -3.4473    0.0000 O   0  0  0  0  0  0  0  0  0  0  0  0
    0.7504   -1.3127    0.0000 O   0  0  0  0  0  0  0  0  0  0  0  0
   -4.9023    0.8092    0.0000 O   0  0  0  0  0  0  0  0  0  0  0  0
   -4.5240   -0.4888    0.0000 P   0  0  3  0  0  0  0  0  0  0  0  0
   -5.3699   -0.5346    0.0000 O   0  0  0  0  0  0  0  0  0  0  0  0
   -3.6235   -0.0656    0.0000 O   0  0  0  0  0  0  0  0  0  0  0  0
   -5.4948    1.4323    0.0000 O   0  0  0  0  0  0  0  0  0  0  0  0
   -4.6194    1.6854    0.0000 P   0  0  3  0  0  0  0  0  0  0  0  0
   -3.7433    1.5020    0.0000 O   0  0  0  0  0  0  0  0  0  0  0  0
   -4.8400    2.6844    0.0000 O   0  0  0  0  0  0  0  0  0  0  0  0
   -2.1940    1.6868    0.0000 O   0  0  0  0  0  0  0  0  0  0  0  0
   -2.9029    1.7452    0.0000 P   0  0  3  0  0  0  0  0  0  0  0  0
   -2.9653    0.8074    0.0000 O   0  0  0  0  0  0  0  0  0  0  0  0
   -3.1530    2.7753    0.0000 O   0  0  0  0  0  0  0  0  0  0  0  0
   -1.5307    2.3709    0.0000 P   0  0  3  0  0  0  0  0  0  0  0  0
   -0.8741    1.6208    0.0000 O   0  0  0  0  0  0  0  0  0  0  0  0
   -1.9064    3.3099    0.0000 O   0  0  0  0  0  0  0  0  0  0  0  0
   -0.1639    1.1304    0.0000 H   0  0  0  0  0  0  0  0  0  0  0  0
    1.7684    0.7380    0.0000 H   0  0  0  0  0  0  0  0  0  0  0  0
    1.6233    0.7375    0.0000 H   0  0  0  0  0  0  0  0  0  0  0  0
    0.2770    1.7268    0.0000 H   0  0  0  0  0  0  0  0  0  0  0  0
    3.1166    1.7461    0.0000 H   0  0  0  0  0  0  0  0  0  0  0  0
    0.5216    3.7698    0.0000 H   0  0  0  0  0  0  0  0  0  0  0  0
    1.1933    3.2484    0.0000 H   0  0  0  0  0  0  0  0  0  0  0  0
    5.2776    1.8109    0.0000 H   0  0  0  0  0  0  0  0  0  0  0  0
    4.2976    4.8303    0.0000 H   0  0  0  0  0  0  0  0  0  0  0  0
    2.5360    4.2493    0.0000 H   0  0  0  0  0  0  0  0  0  0  0  0
    2.2024    0.1377    0.0000 H   0  0  0  0  0  0  0  0  0  0  0  0
   -4.9081   -3.7140    0.0000 H   0  0  0  0  0  0  0  0  0  0  0  0
   -2.9759   -4.1064    0.0000 H   0  0  0  0  0  0  0  0  0  0  0  0
   -3.1211   -4.1069    0.0000 H   0  0  0  0  0  0  0  0  0  0  0  0
   -4.4673   -3.1177    0.0000 H   0  0  0  0  0  0  0  0  0  0  0  0
   -1.6277   -3.0983    0.0000 H   0  0  0  0  0  0  0  0  0  0  0  0
   -5.3470   -2.7503    0.0000 H   0  0  0  0  0  0  0  0  0  0  0  0
   -4.3158   -3.1669    0.0000 H   0  0  0  0  0  0  0  0  0  0  0  0
    0.5331   -3.0337    0.0000 H   0  0  0  0  0  0  0  0  0  0  0  0
   -0.4468   -0.0141    0.0000 H   0  0  0  0  0  0  0  0  0  0  0  0
   -2.2081   -0.5950    0.0000 H   0  0  0  0  0  0  0  0  0  0  0  0
   -2.5419   -4.7066    0.0000 H   0  0  0  0  0  0  0  0  0  0  0  0
   -5.8996    0.2780    0.0000 H   0  0  0  0  0  0  0  0  0  0  0  0
   -6.1940    2.1046    0.0000 H   0  0  0  0  0  0  0  0  0  0  0  0
   -3.8357    0.3792    0.0000 H   0  0  0  0  0  0  0  0  0  0  0  0
   -1.1867    0.7026    0.0000 H   0  0  0  0  0  0  0  0  0  0  0  0
  1 50  1  0  0  0  0
  2  3  1  0  0  0  0
  2  4  1  0  0  0  0
  2  1  1  0  0  0  0
  2 51  1  1  0  0  0
  3 15  1  0  0  0  0
  3  5  1  0  0  0  0
  3 52  1  1  0  0  0
  4  6  1  0  0  0  0
  4  7  1  0  0  0  0
  4 53  1  6  0  0  0
  5  9  1  0  0  0  0
  5  6  1  0  0  0  0
  5 54  1  6  0  0  0
  7  8  1  0  0  0  0
  7 55  1  0  0  0  0
  7 56  1  0  0  0  0
  8 47  1  0  0  0  0
  9 10  1  0  0  0  0
 10 16  2  0  0  0  0
 10 11  1  0  0  0  0
 11 12  1  0  0  0  0
 11 57  1  0  0  0  0
 12 17  2  0  0  0  0
 12 13  1  0  0  0  0
 13 14  2  0  0  0  0
 13 58  1  0  0  0  0
 14  9  1  0  0  0  0
 14 59  1  0  0  0  0
 15 60  1  0  0  0  0
 18 61  1  0  0  0  0
 19 20  1  0  0  0  0
 19 21  1  0  0  0  0
 19 18  1  0  0  0  0
 19 62  1  1  0  0  0
 20 22  1  0  0  0  0
 20 32  1  0  0  0  0
 20 63  1  1  0  0  0
 21 23  1  0  0  0  0
 21 24  1  0  0  0  0
 21 64  1  6  0  0  0
 22 23  1  0  0  0  0
 22 26  1  0  0  0  0
 22 65  1  6  0  0  0
 24 25  1  0  0  0  0
 24 66  1  0  0  0  0
 24 67  1  0  0  0  0
 26 27  1  0  0  0  0
 27 28  1  0  0  0  0
 27 33  2  0  0  0  0
 28 29  1  0  0  0  0
 28 68  1  0  0  0  0
 29 30  1  0  0  0  0
 29 34  2  0  0  0  0
 30 31  2  0  0  0  0
 30 69  1  0  0  0  0
 31 26  1  0  0  0  0
 31 70  1  0  0  0  0
 32 71  1  0  0  0  0
 35 36  1  0  0  0  0
 36 37  1  0  0  0  0
 36 25  1  0  0  0  0
 36 38  2  0  0  0  0
 37 72  1  0  0  0  0
 39 40  1  0  0  0  0
 39 73  1  0  0  0  0
 40 41  1  0  0  0  0
 40 35  1  0  0  0  0
 40 42  2  0  0  0  0
 43 44  1  0  0  0  0
 44 45  1  0  0  0  0
 44 41  1  0  0  0  0
 44 46  2  0  0  0  0
 45 74  1  0  0  0  0
 47 48  1  0  0  0  0
 47 43  1  0  0  0  0
 47 49  2  0  0  0  0
 48 75  1  0  0  0  0
M  END
>  <DRUGBANK_ID>
DB15919

>  <COMMON_NAME>
Diquafosol

>  <CAS_NUMBER>
59985-21-6

>  <UNII>
7828VC80FJ

>  <SYNONYMS>
Diquafosol

$$$$
