ChEBI
 OpenBabel10282417072D

 43 46  0  0  1  0  0  0  0  0999 V2000
   16.9197  -13.7280    0.0000 C   0  0  1  0  0  0  0  0  0  0  0  0
   16.9196  -15.5818    0.0000 C   0  0  2  0  0  0  0  0  0  0  0  0
   17.7239  -15.3982    0.0000 C   0  0  0  0  0  0  0  0  0  0  0  0
   17.7240  -13.9116    0.0000 C   0  0  0  0  0  0  0  0  0  0  0  0
   16.2746  -14.2424    0.0000 C   0  0  1  0  0  0  0  0  0  0  0  0
   16.2746  -15.0674    0.0000 C   0  0  2  0  0  0  0  0  0  0  0  0
   15.5602  -14.6549    0.0000 O   0  0  0  0  0  0  0  0  0  0  0  0
   16.7692  -14.6346    0.0000 N   0  0  0  0  0  0  0  0  0  0  0  0
   17.4713  -14.6346    0.0000 C   0  0  0  0  0  0  0  0  0  0  0  0
   18.0819  -14.6549    0.0000 C   0  0  2  0  0  0  0  0  0  0  0  0
   18.9069  -14.6549    0.0000 O   0  0  0  0  0  0  0  0  0  0  0  0
   19.6214  -15.8924    0.0000 O   0  0  0  0  0  0  0  0  0  0  0  0
   19.6214  -15.0674    0.0000 C   0  0  0  0  0  0  0  0  0  0  0  0
   20.3358  -13.8299    0.0000 C   0  0  0  0  0  0  0  0  0  0  0  0
   21.0503  -13.4174    0.0000 O   0  0  0  0  0  0  0  0  0  0  0  0
   20.3358  -14.6549    0.0000 C   0  0  2  0  0  0  0  0  0  0  0  0
   21.0503  -15.0674    0.0000 C   0  0  0  0  0  0  0  0  0  0  0  0
   21.7648  -14.6549    0.0000 C   0  0  0  0  0  0  0  0  0  0  0  0
   21.0503  -15.8924    0.0000 C   0  0  0  0  0  0  0  0  0  0  0  0
   21.7648  -16.3049    0.0000 C   0  0  0  0  0  0  0  0  0  0  0  0
   22.4792  -15.8924    0.0000 C   0  0  0  0  0  0  0  0  0  0  0  0
   22.4792  -15.0674    0.0000 C   0  0  0  0  0  0  0  0  0  0  0  0
   16.3778  -14.6506    0.0000 H   0  0  0  0  0  0  0  0  0  0  0  0
   16.3810  -14.6573    0.0000 H   0  0  0  0  0  0  0  0  0  0  0  0
   18.3910  -16.2348    0.0000 H   0  0  0  0  0  0  0  0  0  0  0  0
   18.7872  -15.2784    0.0000 H   0  0  0  0  0  0  0  0  0  0  0  0
   18.3912  -13.0751    0.0000 H   0  0  0  0  0  0  0  0  0  0  0  0
   18.7873  -14.0315    0.0000 H   0  0  0  0  0  0  0  0  0  0  0  0
   15.6718  -13.3583    0.0000 H   0  0  0  0  0  0  0  0  0  0  0  0
   15.7396  -14.1407    0.0000 H   0  0  0  0  0  0  0  0  0  0  0  0
   18.0063  -15.5612    0.0000 H   0  0  0  0  0  0  0  0  0  0  0  0
   18.0063  -13.7080    0.0000 H   0  0  0  0  0  0  0  0  0  0  0  0
   18.5413  -14.6346    0.0000 H   0  0  0  0  0  0  0  0  0  0  0  0
   18.6512  -15.5609    0.0000 H   0  0  0  0  0  0  0  0  0  0  0  0
   19.4092  -13.2949    0.0000 H   0  0  0  0  0  0  0  0  0  0  0  0
   20.3358  -12.7599    0.0000 H   0  0  0  0  0  0  0  0  0  0  0  0
   21.8903  -13.9024    0.0000 H   0  0  0  0  0  0  0  0  0  0  0  0
   19.4091  -14.1199    0.0000 H   0  0  0  0  0  0  0  0  0  0  0  0
   21.7648  -13.6229    0.0000 H   0  0  0  0  0  0  0  0  0  0  0  0
   20.1566  -16.4084    0.0000 H   0  0  0  0  0  0  0  0  0  0  0  0
   21.7648  -17.3369    0.0000 H   0  0  0  0  0  0  0  0  0  0  0  0
   23.3729  -16.4084    0.0000 H   0  0  0  0  0  0  0  0  0  0  0  0
   23.3729  -14.5514    0.0000 H   0  0  0  0  0  0  0  0  0  0  0  0
  1  5  1  0  0  0  0
  1  8  1  0  0  0  0
  1 23  1  1  0  0  0
  2  3  1  0  0  0  0
  2  8  1  0  0  0  0
  2 24  1  1  0  0  0
  3 10  1  0  0  0  0
  3 25  1  0  0  0  0
  3 26  1  0  0  0  0
  4  1  1  0  0  0  0
  4 27  1  0  0  0  0
  4 28  1  0  0  0  0
  5  6  1  0  0  0  0
  5  7  1  0  0  0  0
  5 29  1  6  0  0  0
  6  2  1  0  0  0  0
  6  7  1  0  0  0  0
  6 30  1  6  0  0  0
  8  9  1  0  0  0  0
  9 31  1  0  0  0  0
  9 32  1  0  0  0  0
  9 33  1  0  0  0  0
 10  4  1  0  0  0  0
 10 11  1  0  0  0  0
 10 34  1  1  0  0  0
 11 13  1  0  0  0  0
 13 12  2  0  0  0  0
 13 16  1  0  0  0  0
 14 15  1  0  0  0  0
 14 35  1  0  0  0  0
 14 36  1  0  0  0  0
 15 37  1  0  0  0  0
 16 14  1  0  0  0  0
 16 17  1  0  0  0  0
 16 38  1  1  0  0  0
 17 19  1  0  0  0  0
 18 17  2  0  0  0  0
 18 22  1  0  0  0  0
 18 39  1  0  0  0  0
 19 20  2  0  0  0  0
 19 40  1  0  0  0  0
 20 21  1  0  0  0  0
 20 41  1  0  0  0  0
 21 22  2  0  0  0  0
 21 42  1  0  0  0  0
 22 43  1  0  0  0  0
M  END
>  <DRUGBANK_ID>
DB00747

>  <SECONDARY_ACCESSION_NUMBERS>
APRD00616

>  <COMMON_NAME>
Scopolamine

>  <CAS_NUMBER>
51-34-3

>  <UNII>
DL48G20X8X

>  <SYNONYMS>
(-)-hyoscine; (-)-scopolamine; (1S,3S,5R,6R,7S)-6,7-Epoxytropan-3-yl (2S)-3-hydroxy-2-phenylpropanoate; 6-beta,7-beta-Epoxy-3-alpha-tropanyl S-(-)-tropate; 6,7-Epoxytropine tropate; alpha-(Hydroxymethyl)benzeneacetic acid 9-methyl-3-oxa-9-azatricyclo(3.3.1.0(2.4))non-7-yl ester; Hyoscine; scopine (-)-tropate; scopine (âˆ’)-tropate; Scopolamine; Scopolamine hydrobromide

$$$$
