
 OpenBabel10282417072D

 30 31  0  0  1  0  0  0  0  0999 V2000
    0.2811   -0.8852    0.0000 F   0  0  0  0  0  0  0  0  0  0  0  0
    1.8460    0.5668    0.0000 O   0  0  0  0  0  0  0  0  0  0  0  0
    2.8966   -0.7990    0.0000 O   0  0  0  0  0  0  0  0  0  0  0  0
    2.6076    1.8768    0.0000 O   0  0  0  0  0  0  0  0  0  0  0  0
    1.1785    4.3520    0.0000 O   0  0  0  0  0  0  0  0  0  0  0  0
    1.1785    1.8768    0.0000 N   0  0  0  0  0  0  0  0  0  0  0  0
    1.8931    3.1144    0.0000 N   0  0  0  0  0  0  0  0  0  0  0  0
    1.1785    1.0518    0.0000 C   0  0  1  0  0  0  0  0  0  0  0  0
    0.5110    0.5668    0.0000 C   0  0  0  0  0  0  0  0  0  0  0  0
    0.7660   -0.2178    0.0000 C   0  0  1  0  0  0  0  0  0  0  0  0
    1.5910   -0.2178    0.0000 C   0  0  1  0  0  0  0  0  0  0  0  0
    2.0760   -0.8852    0.0000 C   0  0  0  0  0  0  0  0  0  0  0  0
    0.4640    2.2894    0.0000 C   0  0  0  0  0  0  0  0  0  0  0  0
    1.8931    2.2894    0.0000 C   0  0  0  0  0  0  0  0  0  0  0  0
    0.4640    3.1144    0.0000 C   0  0  0  0  0  0  0  0  0  0  0  0
    1.1785    3.5270    0.0000 C   0  0  0  0  0  0  0  0  0  0  0  0
   -0.2504    3.5270    0.0000 C   0  0  0  0  0  0  0  0  0  0  0  0
    3.4667   -1.5838    0.0000 H   0  0  0  0  0  0  0  0  0  0  0  0
    2.7457    3.6066    0.0000 H   0  0  0  0  0  0  0  0  0  0  0  0
    2.1319    1.5376    0.0000 H   0  0  0  0  0  0  0  0  0  0  0  0
   -0.5066    0.8974    0.0000 H   0  0  0  0  0  0  0  0  0  0  0  0
   -0.2456   -0.1899    0.0000 H   0  0  0  0  0  0  0  0  0  0  0  0
   -0.2908   -0.0505    0.0000 H   0  0  0  0  0  0  0  0  0  0  0  0
    2.6478   -0.0504    0.0000 H   0  0  0  0  0  0  0  0  0  0  0  0
    1.6408   -1.8627    0.0000 H   0  0  0  0  0  0  0  0  0  0  0  0
    1.0119   -0.9971    0.0000 H   0  0  0  0  0  0  0  0  0  0  0  0
   -0.4298    1.7734    0.0000 H   0  0  0  0  0  0  0  0  0  0  0  0
   -0.2502    4.5970    0.0000 H   0  0  0  0  0  0  0  0  0  0  0  0
   -1.1771    2.9921    0.0000 H   0  0  0  0  0  0  0  0  0  0  0  0
   -1.1770    4.0621    0.0000 H   0  0  0  0  0  0  0  0  0  0  0  0
  2  8  1  0  0  0  0
  2 11  1  0  0  0  0
  3 12  1  0  0  0  0
  3 18  1  0  0  0  0
  4 14  2  0  0  0  0
  5 16  2  0  0  0  0
  6 13  1  0  0  0  0
  6 14  1  0  0  0  0
  7 14  1  0  0  0  0
  7 16  1  0  0  0  0
  7 19  1  0  0  0  0
  8  6  1  0  0  0  0
  8  9  1  0  0  0  0
  8 20  1  1  0  0  0
  9 10  1  0  0  0  0
  9 21  1  0  0  0  0
  9 22  1  0  0  0  0
 10  1  1  0  0  0  0
 10 11  1  0  0  0  0
 10 23  1  6  0  0  0
 11 12  1  0  0  0  0
 11 24  1  1  0  0  0
 12 25  1  0  0  0  0
 12 26  1  0  0  0  0
 13 15  2  0  0  0  0
 13 27  1  0  0  0  0
 15 16  1  0  0  0  0
 15 17  1  0  0  0  0
 17 28  1  0  0  0  0
 17 29  1  0  0  0  0
 17 30  1  0  0  0  0
M  END
>  <DRUGBANK_ID>
DB06198

>  <COMMON_NAME>
Alovudine

>  <CAS_NUMBER>
25526-93-6

>  <UNII>
PG53R0DWDQ

>  <SYNONYMS>
Alovudine

$$$$
