
 OpenBabel10282417072D

 77 81  0  0  1  0  0  0  0  0999 V2000
    7.4313   -1.2852    0.0000 C   0  0  0  0  0  0  0  0  0  0  0  0
    6.6453   -1.5358    0.0000 C   0  0  0  0  0  0  0  0  0  0  0  0
    6.4692   -2.3418    0.0000 O   0  0  0  0  0  0  0  0  0  0  0  0
    6.0353   -0.9803    0.0000 O   0  0  0  0  0  0  0  0  0  0  0  0
    5.2493   -1.2308    0.0000 C   0  0  0  0  0  0  0  0  0  0  0  0
    4.7546   -0.6577    0.0000 C   0  0  0  0  0  0  0  0  0  0  0  0
    3.8532   -0.9258    0.0000 O   0  0  0  0  0  0  0  0  0  0  0  0
    4.8154    0.1307    0.0000 C   0  0  1  0  0  0  0  0  0  0  0  0
    4.9914    0.9367    0.0000 C   0  0  1  0  0  0  0  0  0  0  0  0
    4.2793    1.3532    0.0000 C   0  0  0  0  0  0  0  0  0  0  0  0
    3.6631    0.8046    0.0000 C   0  0  2  0  0  0  0  0  0  0  0  0
    3.9944    0.0491    0.0000 C   0  0  2  0  0  0  0  0  0  0  0  0
    3.5057   -0.6156    0.0000 C   0  0  0  0  0  0  0  0  0  0  0  0
    2.6857   -0.5248    0.0000 C   0  0  1  0  0  0  0  0  0  0  0  0
    2.3544    0.2308    0.0000 C   0  0  1  0  0  0  0  0  0  0  0  0
    2.8431    0.8955    0.0000 C   0  0  1  0  0  0  0  0  0  0  0  0
    2.5118    1.6510    0.0000 C   0  0  0  0  0  0  0  0  0  0  0  0
    1.6918    1.7419    0.0000 C   0  0  0  0  0  0  0  0  0  0  0  0
    1.2031    1.0772    0.0000 C   0  0  0  0  0  0  0  0  0  0  0  0
    1.5345    0.3216    0.0000 C   0  0  2  0  0  0  0  0  0  0  0  0
    1.0458   -0.3431    0.0000 C   0  0  0  0  0  0  0  0  0  0  0  0
    0.2258   -0.2522    0.0000 C   0  0  0  0  0  0  0  0  0  0  0  0
   -0.1055    0.5034    0.0000 C   0  0  0  0  0  0  0  0  0  0  0  0
    0.3832    1.1681    0.0000 C   0  0  0  0  0  0  0  0  0  0  0  0
   -0.9255    0.5942    0.0000 O   0  0  0  0  0  0  0  0  0  0  0  0
   -1.4142   -0.0705    0.0000 C   0  0  0  0  0  0  0  0  0  0  0  0
   -2.2342    0.0204    0.0000 C   0  0  0  0  0  0  0  0  0  0  0  0
   -2.5655    0.7759    0.0000 Cl  0  0  0  0  0  0  0  0  0  0  0  0
    2.2118   -0.3811    0.0000 C   0  0  0  0  0  0  0  0  0  0  0  0
    1.3605    2.4974    0.0000 C   0  0  0  0  0  0  0  0  0  0  0  0
    1.8492    3.1621    0.0000 O   0  0  0  0  0  0  0  0  0  0  0  0
    1.8658   -0.4339    0.0000 F   0  0  0  0  0  0  0  0  0  0  0  0
    2.1971   -1.1895    0.0000 O   0  0  0  0  0  0  0  0  0  0  0  0
    4.4029   -0.6677    0.0000 C   0  0  0  0  0  0  0  0  0  0  0  0
    5.8124    1.0183    0.0000 O   0  0  0  0  0  0  0  0  0  0  0  0
    6.1437    0.2627    0.0000 C   0  0  0  0  0  0  0  0  0  0  0  0
    5.5275   -0.2858    0.0000 O   0  0  0  0  0  0  0  0  0  0  0  0
    6.9323    0.5050    0.0000 C   0  0  0  0  0  0  0  0  0  0  0  0
    6.7594   -0.2863    0.0000 C   0  0  0  0  0  0  0  0  0  0  0  0
    8.2225   -2.0055    0.0000 H   0  0  0  0  0  0  0  0  0  0  0  0
    7.6595   -0.2398    0.0000 H   0  0  0  0  0  0  0  0  0  0  0  0
    8.4507   -0.9602    0.0000 H   0  0  0  0  0  0  0  0  0  0  0  0
    4.9587   -2.2606    0.0000 H   0  0  0  0  0  0  0  0  0  0  0  0
    4.2047   -1.4628    0.0000 H   0  0  0  0  0  0  0  0  0  0  0  0
    5.7029    0.1375    0.0000 H   0  0  0  0  0  0  0  0  0  0  0  0
    4.1734    2.4180    0.0000 H   0  0  0  0  0  0  0  0  0  0  0  0
    3.2825    1.7423    0.0000 H   0  0  0  0  0  0  0  0  0  0  0  0
    4.7085    0.5763    0.0000 H   0  0  0  0  0  0  0  0  0  0  0  0
    3.9354   -1.5955    0.0000 H   0  0  0  0  0  0  0  0  0  0  0  0
    2.8719   -1.4777    0.0000 H   0  0  0  0  0  0  0  0  0  0  0  0
    3.1155   -1.5047    0.0000 H   0  0  0  0  0  0  0  0  0  0  0  0
    1.7796    1.0133    0.0000 H   0  0  0  0  0  0  0  0  0  0  0  0
    3.1456    2.5131    0.0000 H   0  0  0  0  0  0  0  0  0  0  0  0
    2.0821    2.6309    0.0000 H   0  0  0  0  0  0  0  0  0  0  0  0
    1.4755   -1.3230    0.0000 H   0  0  0  0  0  0  0  0  0  0  0  0
    0.4120   -1.2052    0.0000 H   0  0  0  0  0  0  0  0  0  0  0  0
   -0.4080   -1.1143    0.0000 H   0  0  0  0  0  0  0  0  0  0  0  0
   -0.8377   -0.1343    0.0000 H   0  0  0  0  0  0  0  0  0  0  0  0
   -0.0312    2.1132    0.0000 H   0  0  0  0  0  0  0  0  0  0  0  0
   -0.9845   -1.0504    0.0000 H   0  0  0  0  0  0  0  0  0  0  0  0
   -2.0480   -0.9326    0.0000 H   0  0  0  0  0  0  0  0  0  0  0  0
   -2.8680   -0.8417    0.0000 H   0  0  0  0  0  0  0  0  0  0  0  0
   -3.2977    0.1382    0.0000 H   0  0  0  0  0  0  0  0  0  0  0  0
    1.9159   -1.4094    0.0000 H   0  0  0  0  0  0  0  0  0  0  0  0
    3.2503   -0.1232    0.0000 H   0  0  0  0  0  0  0  0  0  0  0  0
    2.9544   -1.1515    0.0000 H   0  0  0  0  0  0  0  0  0  0  0  0
    0.3348    2.6111    0.0000 H   0  0  0  0  0  0  0  0  0  0  0  0
    1.2330   -1.0827    0.0000 H   0  0  0  0  0  0  0  0  0  0  0  0
    3.8627   -1.5913    0.0000 H   0  0  0  0  0  0  0  0  0  0  0  0
    5.4729   -0.6737    0.0000 H   0  0  0  0  0  0  0  0  0  0  0  0
    4.9327   -1.5973    0.0000 H   0  0  0  0  0  0  0  0  0  0  0  0
    7.7159   -0.2236    0.0000 H   0  0  0  0  0  0  0  0  0  0  0  0
    7.1715    1.5479    0.0000 H   0  0  0  0  0  0  0  0  0  0  0  0
    7.9551    0.8193    0.0000 H   0  0  0  0  0  0  0  0  0  0  0  0
    6.5420   -1.3340    0.0000 H   0  0  0  0  0  0  0  0  0  0  0  0
    7.7754    0.0493    0.0000 H   0  0  0  0  0  0  0  0  0  0  0  0
    7.5580   -0.9984    0.0000 H   0  0  0  0  0  0  0  0  0  0  0  0
  1  2  1  0  0  0  0
  1 40  1  0  0  0  0
  1 41  1  0  0  0  0
  1 42  1  0  0  0  0
  2  3  2  0  0  0  0
  2  4  1  0  0  0  0
  4  5  1  0  0  0  0
  5  6  1  0  0  0  0
  5 43  1  0  0  0  0
  5 44  1  0  0  0  0
  6  7  2  0  0  0  0
  8  6  1  6  0  0  0
  8  9  1  0  0  0  0
  8 12  1  0  0  0  0
  8 37  1  0  0  0  0
  9 10  1  0  0  0  0
  9 35  1  0  0  0  0
  9 45  1  6  0  0  0
 10 46  1  0  0  0  0
 10 47  1  0  0  0  0
 11 10  1  0  0  0  0
 11 12  1  0  0  0  0
 11 16  1  0  0  0  0
 11 48  1  1  0  0  0
 12 13  1  0  0  0  0
 12 34  1  6  0  0  0
 13 14  1  0  0  0  0
 13 49  1  0  0  0  0
 13 50  1  0  0  0  0
 14 15  1  0  0  0  0
 14 33  1  0  0  0  0
 14 51  1  1  0  0  0
 15 16  1  0  0  0  0
 15 20  1  0  0  0  0
 15 32  1  1  0  0  0
 16 17  1  0  0  0  0
 16 52  1  6  0  0  0
 17 18  1  0  0  0  0
 17 53  1  0  0  0  0
 17 54  1  0  0  0  0
 18 19  2  0  0  0  0
 18 30  1  0  0  0  0
 19 20  1  0  0  0  0
 19 24  1  0  0  0  0
 20 21  1  0  0  0  0
 20 29  1  6  0  0  0
 21 22  1  0  0  0  0
 21 55  1  0  0  0  0
 21 56  1  0  0  0  0
 22 23  1  0  0  0  0
 22 57  1  0  0  0  0
 22 58  1  0  0  0  0
 23 24  2  0  0  0  0
 23 25  1  0  0  0  0
 24 59  1  0  0  0  0
 25 26  1  0  0  0  0
 26 27  1  0  0  0  0
 26 60  1  0  0  0  0
 26 61  1  0  0  0  0
 27 28  1  0  0  0  0
 27 62  1  0  0  0  0
 27 63  1  0  0  0  0
 29 64  1  0  0  0  0
 29 65  1  0  0  0  0
 29 66  1  0  0  0  0
 30 31  2  0  0  0  0
 30 67  1  0  0  0  0
 33 68  1  0  0  0  0
 34 69  1  0  0  0  0
 34 70  1  0  0  0  0
 34 71  1  0  0  0  0
 35 36  1  0  0  0  0
 36 37  1  0  0  0  0
 36 38  1  0  0  0  0
 36 39  1  0  0  0  0
 38 72  1  0  0  0  0
 38 73  1  0  0  0  0
 38 74  1  0  0  0  0
 39 75  1  0  0  0  0
 39 76  1  0  0  0  0
 39 77  1  0  0  0  0
M  END
>  <DRUGBANK_ID>
DB13664

>  <COMMON_NAME>
Formocortal

>  <CAS_NUMBER>
2825-60-7

>  <UNII>
8E21R0Z4M5

>  <SYNONYMS>
Formocortal

$$$$
