
 OpenBabel10282417072D

 47 49  0  0  0  0  0  0  0  0999 V2000
    0.0000    0.0000    0.0000 C   0  0  0  0  0  0  0  0  0  0  0  0
   -4.2868    1.6500    0.0000 C   0  0  0  0  0  0  0  0  0  0  0  0
    0.7144    0.4125    0.0000 C   0  0  0  0  0  0  0  0  0  0  0  0
   -0.7144    0.4125    0.0000 C   0  0  0  0  0  0  0  0  0  0  0  0
   -3.5723    1.2375    0.0000 C   0  0  0  0  0  0  0  0  0  0  0  0
   -4.2868    2.4750    0.0000 C   0  0  0  0  0  0  0  0  0  0  0  0
    0.7144    1.2375    0.0000 C   0  0  0  0  0  0  0  0  0  0  0  0
   -0.7144    1.2375    0.0000 C   0  0  0  0  0  0  0  0  0  0  0  0
    1.4289    2.4750    0.0000 C   0  0  0  0  0  0  0  0  0  0  0  0
    0.7144    3.7125    0.0000 C   0  0  0  0  0  0  0  0  0  0  0  0
    2.1434    2.8875    0.0000 C   0  0  0  0  0  0  0  0  0  0  0  0
    1.4289    4.1250    0.0000 C   0  0  0  0  0  0  0  0  0  0  0  0
   -2.8578    1.6500    0.0000 C   0  0  0  0  0  0  0  0  0  0  0  0
   -3.5723    2.8875    0.0000 C   0  0  0  0  0  0  0  0  0  0  0  0
   -2.1434    2.8875    0.0000 C   0  0  0  0  0  0  0  0  0  0  0  0
   -1.4289    2.4750    0.0000 C   0  0  0  0  0  0  0  0  0  0  0  0
    0.0000    1.6500    0.0000 C   0  0  0  0  0  0  0  0  0  0  0  0
    0.7144    2.8875    0.0000 C   0  0  0  0  0  0  0  0  0  0  0  0
    2.1434    3.7125    0.0000 C   0  0  0  0  0  0  0  0  0  0  0  0
    0.0000    2.4750    0.0000 C   0  0  3  0  0  0  0  0  0  0  0  0
    2.8578    4.1250    0.0000 Cl  0  0  0  0  0  0  0  0  0  0  0  0
   -2.8578    2.4750    0.0000 N   0  0  0  0  0  0  0  0  0  0  0  0
   -0.7144    2.8875    0.0000 O   0  0  0  0  0  0  0  0  0  0  0  0
    0.0000   -1.0320    0.0000 H   0  0  0  0  0  0  0  0  0  0  0  0
   -5.2134    1.1150    0.0000 H   0  0  0  0  0  0  0  0  0  0  0  0
   -5.2134    2.1850    0.0000 H   0  0  0  0  0  0  0  0  0  0  0  0
    1.6081   -0.1035    0.0000 H   0  0  0  0  0  0  0  0  0  0  0  0
   -1.6081   -0.1035    0.0000 H   0  0  0  0  0  0  0  0  0  0  0  0
   -3.5723    0.1675    0.0000 H   0  0  0  0  0  0  0  0  0  0  0  0
   -2.6457    0.7025    0.0000 H   0  0  0  0  0  0  0  0  0  0  0  0
   -5.2134    3.0100    0.0000 H   0  0  0  0  0  0  0  0  0  0  0  0
   -4.2868    3.5450    0.0000 H   0  0  0  0  0  0  0  0  0  0  0  0
    1.6081    1.7535    0.0000 H   0  0  0  0  0  0  0  0  0  0  0  0
   -1.6081    1.7535    0.0000 H   0  0  0  0  0  0  0  0  0  0  0  0
    1.4289    1.4430    0.0000 H   0  0  0  0  0  0  0  0  0  0  0  0
   -0.1793    4.2285    0.0000 H   0  0  0  0  0  0  0  0  0  0  0  0
    3.0371    2.3715    0.0000 H   0  0  0  0  0  0  0  0  0  0  0  0
    1.4289    5.1570    0.0000 H   0  0  0  0  0  0  0  0  0  0  0  0
   -1.9312    1.1150    0.0000 H   0  0  0  0  0  0  0  0  0  0  0  0
   -1.9312    2.1850    0.0000 H   0  0  0  0  0  0  0  0  0  0  0  0
   -3.5723    3.9575    0.0000 H   0  0  0  0  0  0  0  0  0  0  0  0
   -2.6457    3.4225    0.0000 H   0  0  0  0  0  0  0  0  0  0  0  0
   -2.1434    3.9575    0.0000 H   0  0  0  0  0  0  0  0  0  0  0  0
   -3.0701    3.4225    0.0000 H   0  0  0  0  0  0  0  0  0  0  0  0
   -1.4289    1.4050    0.0000 H   0  0  0  0  0  0  0  0  0  0  0  0
   -0.5023    1.9400    0.0000 H   0  0  0  0  0  0  0  0  0  0  0  0
    0.9267    1.9400    0.0000 H   0  0  0  0  0  0  0  0  0  0  0  0
  1 24  1  0  0  0  0
  2 25  1  0  0  0  0
  2 26  1  0  0  0  0
  3  1  2  0  0  0  0
  3 27  1  0  0  0  0
  4  1  1  0  0  0  0
  4 28  1  0  0  0  0
  5  2  1  0  0  0  0
  5 29  1  0  0  0  0
  5 30  1  0  0  0  0
  6  2  1  0  0  0  0
  6 31  1  0  0  0  0
  6 32  1  0  0  0  0
  7  3  1  0  0  0  0
  7 33  1  0  0  0  0
  8  4  2  0  0  0  0
  8 34  1  0  0  0  0
  9 35  1  0  0  0  0
 10 36  1  0  0  0  0
 11  9  1  0  0  0  0
 11 37  1  0  0  0  0
 12 10  2  0  0  0  0
 12 38  1  0  0  0  0
 13  5  1  0  0  0  0
 13 39  1  0  0  0  0
 13 40  1  0  0  0  0
 14  6  1  0  0  0  0
 14 41  1  0  0  0  0
 14 42  1  0  0  0  0
 15 43  1  0  0  0  0
 15 44  1  0  0  0  0
 16 15  1  0  0  0  0
 16 45  1  0  0  0  0
 16 46  1  0  0  0  0
 17  7  2  0  0  0  0
 17  8  1  0  0  0  0
 18  9  2  0  0  0  0
 18 10  1  0  0  0  0
 19 11  2  0  0  0  0
 19 12  1  0  0  0  0
 20 17  1  0  0  0  0
 20 18  1  0  0  0  0
 20 47  1  0  0  0  0
 21 19  1  0  0  0  0
 22 13  1  0  0  0  0
 22 14  1  0  0  0  0
 22 15  1  0  0  0  0
 23 16  1  0  0  0  0
 23 20  1  0  0  0  0
M  END
>  <DRUGBANK_ID>
DB09002

>  <COMMON_NAME>
Cloperastine

>  <CAS_NUMBER>
3703-76-2

>  <UNII>
69M5L7BXEK

>  <SYNONYMS>
Cloperastina; Cloperastine

$$$$
