
 OpenBabel10282417072D

 48 46  0  0  0  0  0  0  0  0999 V2000
   -0.7144   -0.2062    0.0000 C   0  0  0  0  0  0  0  0  0  0  0  0
    0.7144   -0.2062    0.0000 C   0  0  0  0  0  0  0  0  0  0  0  0
   -1.4289    0.2062    0.0000 C   0  0  0  0  0  0  0  0  0  0  0  0
    1.4289    0.2062    0.0000 C   0  0  0  0  0  0  0  0  0  0  0  0
    0.0000    1.0312    0.0000 C   0  0  0  0  0  0  0  0  0  0  0  0
   -2.8578    0.2062    0.0000 C   0  0  0  0  0  0  0  0  0  0  0  0
   -2.1434   -1.0312    0.0000 C   0  0  0  0  0  0  0  0  0  0  0  0
    2.8578    0.2062    0.0000 C   0  0  0  0  0  0  0  0  0  0  0  0
    2.1434   -1.0312    0.0000 C   0  0  0  0  0  0  0  0  0  0  0  0
    0.7144    1.4437    0.0000 C   0  0  0  0  0  0  0  0  0  0  0  0
   -2.8578    1.0312    0.0000 C   0  0  0  0  0  0  0  0  0  0  0  0
   -2.8578   -1.4437    0.0000 C   0  0  0  0  0  0  0  0  0  0  0  0
    2.8578    1.0312    0.0000 C   0  0  0  0  0  0  0  0  0  0  0  0
    2.8578   -1.4437    0.0000 C   0  0  0  0  0  0  0  0  0  0  0  0
    0.0000    0.2062    0.0000 N   0  0  0  0  0  0  0  0  0  0  0  0
   -2.1434   -0.2062    0.0000 N   0  0  0  0  0  0  0  0  0  0  0  0
    2.1434   -0.2062    0.0000 N   0  0  0  0  0  0  0  0  0  0  0  0
    0.7144    2.2687    0.0000 O   0  0  0  0  0  0  0  0  0  0  0  0
    1.4289    1.0312    0.0000 O   0  5  0  0  0  0  0  0  0  0  0  0
   -2.1434    1.4437    0.0000 O   0  0  0  0  0  0  0  0  0  0  0  0
   -3.5723    1.4437    0.0000 O   0  5  0  0  0  0  0  0  0  0  0  0
   -2.8578   -2.2687    0.0000 O   0  0  0  0  0  0  0  0  0  0  0  0
   -3.5723   -1.0312    0.0000 O   0  5  0  0  0  0  0  0  0  0  0  0
    2.1434    1.4437    0.0000 O   0  0  0  0  0  0  0  0  0  0  0  0
    3.5723    1.4437    0.0000 O   0  0  0  0  0  0  0  0  0  0  0  0
    3.5723   -1.0312    0.0000 O   0  0  0  0  0  0  0  0  0  0  0  0
    2.8578   -2.2687    0.0000 O   0  0  0  0  0  0  0  0  0  0  0  0
    2.1434    0.6187    0.0000 In  0  1  0  0  0  0  0  0  0  0  0  0
   -0.7144   -1.2762    0.0000 H   0  0  0  0  0  0  0  0  0  0  0  0
    0.2122   -0.7412    0.0000 H   0  0  0  0  0  0  0  0  0  0  0  0
    0.7144   -1.2762    0.0000 H   0  0  0  0  0  0  0  0  0  0  0  0
   -0.2122   -0.7412    0.0000 H   0  0  0  0  0  0  0  0  0  0  0  0
   -1.4289    1.2762    0.0000 H   0  0  0  0  0  0  0  0  0  0  0  0
   -2.3555    0.7413    0.0000 H   0  0  0  0  0  0  0  0  0  0  0  0
    1.4289    1.2762    0.0000 H   0  0  0  0  0  0  0  0  0  0  0  0
    2.3555    0.7413    0.0000 H   0  0  0  0  0  0  0  0  0  0  0  0
   -0.9267    1.5662    0.0000 H   0  0  0  0  0  0  0  0  0  0  0  0
   -0.9266    0.4962    0.0000 H   0  0  0  0  0  0  0  0  0  0  0  0
   -3.7844   -0.3288    0.0000 H   0  0  0  0  0  0  0  0  0  0  0  0
   -2.8578   -0.8638    0.0000 H   0  0  0  0  0  0  0  0  0  0  0  0
   -1.2167   -1.5662    0.0000 H   0  0  0  0  0  0  0  0  0  0  0  0
   -1.2168   -0.4962    0.0000 H   0  0  0  0  0  0  0  0  0  0  0  0
    3.7844   -0.3288    0.0000 H   0  0  0  0  0  0  0  0  0  0  0  0
    2.8578   -0.8638    0.0000 H   0  0  0  0  0  0  0  0  0  0  0  0
    1.2167   -1.5662    0.0000 H   0  0  0  0  0  0  0  0  0  0  0  0
    1.2168   -0.4962    0.0000 H   0  0  0  0  0  0  0  0  0  0  0  0
    4.3838    0.9752    0.0000 H   0  0  0  0  0  0  0  0  0  0  0  0
    2.0463   -2.7372    0.0000 H   0  0  0  0  0  0  0  0  0  0  0  0
  1 29  1  0  0  0  0
  1 30  1  0  0  0  0
  2 31  1  0  0  0  0
  2 32  1  0  0  0  0
  3  1  1  0  0  0  0
  3 33  1  0  0  0  0
  3 34  1  0  0  0  0
  4  2  1  0  0  0  0
  4 35  1  0  0  0  0
  4 36  1  0  0  0  0
  5 37  1  0  0  0  0
  5 38  1  0  0  0  0
  6 39  1  0  0  0  0
  6 40  1  0  0  0  0
  7 41  1  0  0  0  0
  7 42  1  0  0  0  0
  8 43  1  0  0  0  0
  8 44  1  0  0  0  0
  9 45  1  0  0  0  0
  9 46  1  0  0  0  0
 10  5  1  0  0  0  0
 11  6  1  0  0  0  0
 12  7  1  0  0  0  0
 13  8  1  0  0  0  0
 14  9  1  0  0  0  0
 15  1  1  0  0  0  0
 15  2  1  0  0  0  0
 15  5  1  0  0  0  0
 16  3  1  0  0  0  0
 16  6  1  0  0  0  0
 16  7  1  0  0  0  0
 17  4  1  0  0  0  0
 17  8  1  0  0  0  0
 17  9  1  0  0  0  0
 18 10  2  0  0  0  0
 19 10  1  0  0  0  0
 20 11  2  0  0  0  0
 21 11  1  0  0  0  0
 22 12  2  0  0  0  0
 23 12  1  0  0  0  0
 24 13  2  0  0  0  0
 25 13  1  0  0  0  0
 25 47  1  0  0  0  0
 26 14  2  0  0  0  0
 27 14  1  0  0  0  0
 27 48  1  0  0  0  0
M  ISO  1  28 111
M  CHG  4  19  -1  21  -1  23  -1  28   3
M  END
>  <DRUGBANK_ID>
DB09425

>  <COMMON_NAME>
Indium In-111 pentetate

>  <CAS_NUMBER>
135998-32-2

>  <UNII>
5K3UP561AX

>  <SYNONYMS>
Indium (111In) pentetic acid; Indium In 111 pentetate; Indium In-111 pentetate

$$$$
