
 OpenBabel10282417072D

 93100  0  0  1  0  0  0  0  0999 V2000
   10.4591   -1.6023    0.0000 C   0  0  0  0  0  0  0  0  0  0  0  0
   10.2197   -2.3918    0.0000 C   0  0  1  0  0  0  0  0  0  0  0  0
   10.7837   -2.9939    0.0000 C   0  0  0  0  0  0  0  0  0  0  0  0
   10.5443   -3.7834    0.0000 N   0  0  3  0  0  0  0  0  0  0  0  0
    9.7409   -3.9708    0.0000 C   0  0  0  0  0  0  0  0  0  0  0  0
    9.1769   -3.3687    0.0000 C   0  0  0  0  0  0  0  0  0  0  0  0
    9.4163   -2.5792    0.0000 N   0  0  0  0  0  0  0  0  0  0  0  0
    8.8523   -1.9771    0.0000 C   0  0  0  0  0  0  0  0  0  0  0  0
    8.0488   -2.1645    0.0000 C   0  0  0  0  0  0  0  0  0  0  0  0
    7.4848   -1.5624    0.0000 C   0  0  0  0  0  0  0  0  0  0  0  0
    7.7243   -0.7729    0.0000 C   0  0  0  0  0  0  0  0  0  0  0  0
    7.1602   -0.1708    0.0000 N   0  0  0  0  0  0  0  0  0  0  0  0
    7.3997    0.6187    0.0000 C   0  0  0  0  0  0  0  0  0  0  0  0
    6.8357    1.2208    0.0000 C   0  0  0  0  0  0  0  0  0  0  0  0
    7.0751    2.0103    0.0000 C   0  0  0  0  0  0  0  0  0  0  0  0
    7.8785    2.1977    0.0000 C   0  0  0  0  0  0  0  0  0  0  0  0
    8.4425    1.5956    0.0000 N   0  0  0  0  0  0  0  0  0  0  0  0
    9.2460    1.7830    0.0000 C   0  0  0  0  0  0  0  0  0  0  0  0
    8.2031    0.8061    0.0000 C   0  0  0  0  0  0  0  0  0  0  0  0
    8.7671    0.2040    0.0000 O   0  0  0  0  0  0  0  0  0  0  0  0
    6.5111    2.6123    0.0000 C   0  0  0  0  0  0  0  0  0  0  0  0
    5.7076    2.4249    0.0000 C   0  0  0  0  0  0  0  0  0  0  0  0
    5.4682    1.6355    0.0000 C   0  0  0  0  0  0  0  0  0  0  0  0
    4.6648    1.4481    0.0000 O   0  0  0  0  0  0  0  0  0  0  0  0
    5.1436    3.0270    0.0000 C   0  0  0  0  0  0  0  0  0  0  0  0
    5.3830    3.8165    0.0000 N   0  0  0  0  0  0  0  0  0  0  0  0
    6.1865    4.0039    0.0000 C   0  0  0  0  0  0  0  0  0  0  0  0
    6.7505    3.4018    0.0000 C   0  0  0  0  0  0  0  0  0  0  0  0
    4.3402    2.8396    0.0000 N   0  0  0  0  0  0  0  0  0  0  0  0
    4.1008    2.0501    0.0000 C   0  0  0  0  0  0  0  0  0  0  0  0
    3.2973    1.8627    0.0000 C   0  0  0  0  0  0  0  0  0  0  0  0
    2.7333    2.4648    0.0000 N   0  0  0  0  0  0  0  0  0  0  0  0
    2.9727    3.2543    0.0000 C   0  0  0  0  0  0  0  0  0  0  0  0
    2.2959    3.7260    0.0000 C   0  0  0  0  0  0  0  0  0  0  0  0
    1.6381    3.2280    0.0000 C   0  0  0  0  0  0  0  0  0  0  0  0
    1.9085    2.4486    0.0000 C   0  0  0  0  0  0  0  0  0  0  0  0
    1.2507    1.9506    0.0000 C   0  0  0  0  0  0  0  0  0  0  0  0
    0.5739    2.4223    0.0000 C   0  0  0  0  0  0  0  0  0  0  0  0
    0.1755    1.6998    0.0000 C   0  0  0  0  0  0  0  0  0  0  0  0
   -0.1863    2.7429    0.0000 C   0  0  0  0  0  0  0  0  0  0  0  0
    0.8133    3.2118    0.0000 C   0  0  0  0  0  0  0  0  0  0  0  0
    3.7762    3.4417    0.0000 C   0  0  0  0  0  0  0  0  0  0  0  0
    4.0156    4.2312    0.0000 O   0  0  0  0  0  0  0  0  0  0  0  0
    8.5277   -0.5855    0.0000 N   0  0  0  0  0  0  0  0  0  0  0  0
    9.0917   -1.1876    0.0000 C   0  0  0  0  0  0  0  0  0  0  0  0
   11.1083   -4.3855    0.0000 C   0  0  0  0  0  0  0  0  0  0  0  0
   11.9329   -4.4124    0.0000 C   0  0  0  0  0  0  0  0  0  0  0  0
   11.9060   -5.2370    0.0000 O   0  0  0  0  0  0  0  0  0  0  0  0
   11.0814   -5.2100    0.0000 C   0  0  0  0  0  0  0  0  0  0  0  0
   11.5011   -1.3592    0.0000 H   0  0  0  0  0  0  0  0  0  0  0  0
    9.7276   -0.8214    0.0000 H   0  0  0  0  0  0  0  0  0  0  0  0
   10.7696   -0.5783    0.0000 H   0  0  0  0  0  0  0  0  0  0  0  0
   11.2617   -2.1487    0.0000 H   0  0  0  0  0  0  0  0  0  0  0  0
   11.8257   -2.7508    0.0000 H   0  0  0  0  0  0  0  0  0  0  0  0
   11.5152   -3.7748    0.0000 H   0  0  0  0  0  0  0  0  0  0  0  0
    9.4304   -4.9947    0.0000 H   0  0  0  0  0  0  0  0  0  0  0  0
    8.6989   -4.2138    0.0000 H   0  0  0  0  0  0  0  0  0  0  0  0
    8.1349   -3.6118    0.0000 H   0  0  0  0  0  0  0  0  0  0  0  0
    8.4454   -2.5878    0.0000 H   0  0  0  0  0  0  0  0  0  0  0  0
    7.7493   -3.1521    0.0000 H   0  0  0  0  0  0  0  0  0  0  0  0
    6.4798   -1.7968    0.0000 H   0  0  0  0  0  0  0  0  0  0  0  0
    6.2014   -0.3944    0.0000 H   0  0  0  0  0  0  0  0  0  0  0  0
    5.8307    0.9864    0.0000 H   0  0  0  0  0  0  0  0  0  0  0  0
    8.1780    3.1853    0.0000 H   0  0  0  0  0  0  0  0  0  0  0  0
    9.9775    1.0021    0.0000 H   0  0  0  0  0  0  0  0  0  0  0  0
    9.5565    2.8069    0.0000 H   0  0  0  0  0  0  0  0  0  0  0  0
   10.2880    2.0260    0.0000 H   0  0  0  0  0  0  0  0  0  0  0  0
    6.1997    0.8546    0.0000 H   0  0  0  0  0  0  0  0  0  0  0  0
    5.1577    0.6115    0.0000 H   0  0  0  0  0  0  0  0  0  0  0  0
    4.0017    2.1560    0.0000 H   0  0  0  0  0  0  0  0  0  0  0  0
    6.4860    4.9915    0.0000 H   0  0  0  0  0  0  0  0  0  0  0  0
    7.7555    3.6362    0.0000 H   0  0  0  0  0  0  0  0  0  0  0  0
    4.8323    1.2692    0.0000 H   0  0  0  0  0  0  0  0  0  0  0  0
    3.7903    1.0262    0.0000 H   0  0  0  0  0  0  0  0  0  0  0  0
    2.9868    0.8388    0.0000 H   0  0  0  0  0  0  0  0  0  0  0  0
    2.2553    1.6197    0.0000 H   0  0  0  0  0  0  0  0  0  0  0  0
    2.2756    4.7578    0.0000 H   0  0  0  0  0  0  0  0  0  0  0  0
    1.2717    0.8808    0.0000 H   0  0  0  0  0  0  0  0  0  0  0  0
    0.3071    1.4462    0.0000 H   0  0  0  0  0  0  0  0  0  0  0  0
   -0.8943    1.6788    0.0000 H   0  0  0  0  0  0  0  0  0  0  0  0
    0.7286    0.7839    0.0000 H   0  0  0  0  0  0  0  0  0  0  0  0
   -0.3412    0.7628    0.0000 H   0  0  0  0  0  0  0  0  0  0  0  0
   -0.3192    3.8046    0.0000 H   0  0  0  0  0  0  0  0  0  0  0  0
   -1.0393    2.0970    0.0000 H   0  0  0  0  0  0  0  0  0  0  0  0
   -1.1722    3.1587    0.0000 H   0  0  0  0  0  0  0  0  0  0  0  0
    0.1674    4.0649    0.0000 H   0  0  0  0  0  0  0  0  0  0  0  0
    1.2802    4.1745    0.0000 H   0  0  0  0  0  0  0  0  0  0  0  0
   10.0967   -0.9532    0.0000 H   0  0  0  0  0  0  0  0  0  0  0  0
   11.8398   -5.1664    0.0000 H   0  0  0  0  0  0  0  0  0  0  0  0
   12.7138   -3.6809    0.0000 H   0  0  0  0  0  0  0  0  0  0  0  0
   12.9076   -4.8539    0.0000 H   0  0  0  0  0  0  0  0  0  0  0  0
   10.3005   -5.9415    0.0000 H   0  0  0  0  0  0  0  0  0  0  0  0
   10.1067   -4.7685    0.0000 H   0  0  0  0  0  0  0  0  0  0  0  0
  1 50  1  0  0  0  0
  1 51  1  0  0  0  0
  1 52  1  0  0  0  0
  2  1  1  0  0  0  0
  2  3  1  0  0  0  0
  2  7  1  0  0  0  0
  2 53  1  6  0  0  0
  3  4  1  0  0  0  0
  3 54  1  0  0  0  0
  3 55  1  0  0  0  0
  4  5  1  0  0  0  0
  4 46  1  0  0  0  0
  5  6  1  0  0  0  0
  5 56  1  0  0  0  0
  5 57  1  0  0  0  0
  6  7  1  0  0  0  0
  6 58  1  0  0  0  0
  6 59  1  0  0  0  0
  7  8  1  0  0  0  0
  8  9  2  0  0  0  0
  8 45  1  0  0  0  0
  9 10  1  0  0  0  0
  9 60  1  0  0  0  0
 10 11  2  0  0  0  0
 10 61  1  0  0  0  0
 11 12  1  0  0  0  0
 11 44  1  0  0  0  0
 12 13  1  0  0  0  0
 12 62  1  0  0  0  0
 13 14  2  0  0  0  0
 13 19  1  0  0  0  0
 14 15  1  0  0  0  0
 14 63  1  0  0  0  0
 15 16  2  0  0  0  0
 15 21  1  0  0  0  0
 16 17  1  0  0  0  0
 16 64  1  0  0  0  0
 17 18  1  0  0  0  0
 17 19  1  0  0  0  0
 18 65  1  0  0  0  0
 18 66  1  0  0  0  0
 18 67  1  0  0  0  0
 19 20  2  0  0  0  0
 21 22  2  0  0  0  0
 21 28  1  0  0  0  0
 22 23  1  0  0  0  0
 22 25  1  0  0  0  0
 23 24  1  0  0  0  0
 23 68  1  0  0  0  0
 23 69  1  0  0  0  0
 24 70  1  0  0  0  0
 25 26  2  0  0  0  0
 25 29  1  0  0  0  0
 26 27  1  0  0  0  0
 27 28  2  0  0  0  0
 27 71  1  0  0  0  0
 28 72  1  0  0  0  0
 29 30  1  0  0  0  0
 29 42  1  0  0  0  0
 30 31  1  0  0  0  0
 30 73  1  0  0  0  0
 30 74  1  0  0  0  0
 31 32  1  0  0  0  0
 31 75  1  0  0  0  0
 31 76  1  0  0  0  0
 32 33  1  0  0  0  0
 32 36  1  0  0  0  0
 33 34  2  0  0  0  0
 33 42  1  0  0  0  0
 34 35  1  0  0  0  0
 34 77  1  0  0  0  0
 35 36  2  0  0  0  0
 35 41  1  0  0  0  0
 36 37  1  0  0  0  0
 37 38  1  0  0  0  0
 37 78  1  0  0  0  0
 37 79  1  0  0  0  0
 38 39  1  0  0  0  0
 38 40  1  0  0  0  0
 38 41  1  0  0  0  0
 39 80  1  0  0  0  0
 39 81  1  0  0  0  0
 39 82  1  0  0  0  0
 40 83  1  0  0  0  0
 40 84  1  0  0  0  0
 40 85  1  0  0  0  0
 41 86  1  0  0  0  0
 41 87  1  0  0  0  0
 42 43  2  0  0  0  0
 44 45  2  0  0  0  0
 45 88  1  0  0  0  0
 46 47  1  0  0  0  0
 46 49  1  0  0  0  0
 46 89  1  0  0  0  0
 47 48  1  0  0  0  0
 47 90  1  0  0  0  0
 47 91  1  0  0  0  0
 48 49  1  0  0  0  0
 49 92  1  0  0  0  0
 49 93  1  0  0  0  0
M  END
>  <DRUGBANK_ID>
DB14785

>  <COMMON_NAME>
Fenebrutinib

>  <CAS_NUMBER>
1434048-34-6

>  <UNII>
E9L2885WUL

>  <SYNONYMS>
Fenebrutinib

$$$$
