
 OpenBabel10282417072D

 59 64  0  0  1  0  0  0  0  0999 V2000
    5.6566    3.3362    0.0000 O   0  0  0  0  0  0  0  0  0  0  0  0
    6.3711    2.9237    0.0000 C   0  0  0  0  0  0  0  0  0  0  0  0
    7.0856    3.3362    0.0000 O   0  0  0  0  0  0  0  0  0  0  0  0
    6.3711    2.0987    0.0000 C   0  0  0  0  0  0  0  0  0  0  0  0
    7.0856    1.6862    0.0000 C   0  0  0  0  0  0  0  0  0  0  0  0
    7.0856    0.8612    0.0000 C   0  0  0  0  0  0  0  0  0  0  0  0
    6.3711    0.4487    0.0000 C   0  0  0  0  0  0  0  0  0  0  0  0
    5.6566    0.8612    0.0000 C   0  0  0  0  0  0  0  0  0  0  0  0
    5.6566    1.6862    0.0000 C   0  0  0  0  0  0  0  0  0  0  0  0
    6.3711   -0.3763    0.0000 C   0  0  1  0  0  0  0  0  0  0  0  0
    6.7836   -1.0907    0.0000 C   0  0  0  0  0  0  0  0  0  0  0  0
    5.9586   -1.0907    0.0000 C   0  0  2  0  0  0  0  0  0  0  0  0
    5.2441   -1.5032    0.0000 C   0  0  0  0  0  0  0  0  0  0  0  0
    5.2441   -2.3282    0.0000 C   0  0  0  0  0  0  0  0  0  0  0  0
    5.9586   -2.7407    0.0000 Cl  0  0  0  0  0  0  0  0  0  0  0  0
    4.5297   -2.7407    0.0000 C   0  0  0  0  0  0  0  0  0  0  0  0
    3.8152   -2.3282    0.0000 C   0  0  0  0  0  0  0  0  0  0  0  0
    3.1007   -2.7407    0.0000 O   0  0  0  0  0  0  0  0  0  0  0  0
    2.3863   -2.3282    0.0000 C   0  0  0  0  0  0  0  0  0  0  0  0
    1.6718   -2.7407    0.0000 C   0  0  0  0  0  0  0  0  0  0  0  0
    1.5856   -3.5612    0.0000 C   0  0  0  0  0  0  0  0  0  0  0  0
    0.7786   -3.7327    0.0000 O   0  0  0  0  0  0  0  0  0  0  0  0
    0.3661   -3.0183    0.0000 N   0  0  0  0  0  0  0  0  0  0  0  0
    0.9181   -2.4052    0.0000 C   0  0  0  0  0  0  0  0  0  0  0  0
    0.7466   -1.5982    0.0000 C   0  0  0  0  0  0  0  0  0  0  0  0
   -0.0380   -1.3433    0.0000 C   0  0  0  0  0  0  0  0  0  0  0  0
   -0.6511   -1.8953    0.0000 Cl  0  0  0  0  0  0  0  0  0  0  0  0
   -0.2096   -0.5363    0.0000 C   0  0  0  0  0  0  0  0  0  0  0  0
    0.4035    0.0157    0.0000 C   0  0  0  0  0  0  0  0  0  0  0  0
    1.1882   -0.2392    0.0000 C   0  0  0  0  0  0  0  0  0  0  0  0
    1.3597   -1.0462    0.0000 C   0  0  0  0  0  0  0  0  0  0  0  0
    2.1443   -1.3011    0.0000 Cl  0  0  0  0  0  0  0  0  0  0  0  0
    2.1986   -4.1132    0.0000 C   0  0  0  0  0  0  0  0  0  0  0  0
    3.0056   -4.2848    0.0000 C   0  0  0  0  0  0  0  0  0  0  0  0
    2.4536   -4.8979    0.0000 C   0  0  0  0  0  0  0  0  0  0  0  0
    3.8152   -1.5032    0.0000 C   0  0  0  0  0  0  0  0  0  0  0  0
    4.5297   -1.0907    0.0000 C   0  0  0  0  0  0  0  0  0  0  0  0
    5.6566    4.2732    0.0000 H   0  0  0  0  0  0  0  0  0  0  0  0
    7.9793    2.2022    0.0000 H   0  0  0  0  0  0  0  0  0  0  0  0
    7.9793    0.3452    0.0000 H   0  0  0  0  0  0  0  0  0  0  0  0
    4.7629    0.3452    0.0000 H   0  0  0  0  0  0  0  0  0  0  0  0
    4.7629    2.2022    0.0000 H   0  0  0  0  0  0  0  0  0  0  0  0
    7.4046   -0.0993    0.0000 H   0  0  0  0  0  0  0  0  0  0  0  0
    7.7103   -1.6257    0.0000 H   0  0  0  0  0  0  0  0  0  0  0  0
    6.5067   -2.1242    0.0000 H   0  0  0  0  0  0  0  0  0  0  0  0
    6.2355   -2.1242    0.0000 H   0  0  0  0  0  0  0  0  0  0  0  0
    4.5297   -3.7727    0.0000 H   0  0  0  0  0  0  0  0  0  0  0  0
    2.3863   -1.2582    0.0000 H   0  0  0  0  0  0  0  0  0  0  0  0
    1.4597   -1.7932    0.0000 H   0  0  0  0  0  0  0  0  0  0  0  0
   -1.1911   -0.2174    0.0000 H   0  0  0  0  0  0  0  0  0  0  0  0
    0.1889    1.0251    0.0000 H   0  0  0  0  0  0  0  0  0  0  0  0
    1.9551    0.4514    0.0000 H   0  0  0  0  0  0  0  0  0  0  0  0
    2.9938   -4.8292    0.0000 H   0  0  0  0  0  0  0  0  0  0  0  0
    4.0232   -3.9542    0.0000 H   0  0  0  0  0  0  0  0  0  0  0  0
    3.5884   -5.1822    0.0000 H   0  0  0  0  0  0  0  0  0  0  0  0
    2.2312   -5.9445    0.0000 H   0  0  0  0  0  0  0  0  0  0  0  0
    1.3851   -4.9539    0.0000 H   0  0  0  0  0  0  0  0  0  0  0  0
    2.9215   -0.9872    0.0000 H   0  0  0  0  0  0  0  0  0  0  0  0
    4.5297   -0.0587    0.0000 H   0  0  0  0  0  0  0  0  0  0  0  0
  1  2  1  0  0  0  0
  1 38  1  0  0  0  0
  2  3  2  0  0  0  0
  2  4  1  0  0  0  0
  4  5  2  0  0  0  0
  4  9  1  0  0  0  0
  5  6  1  0  0  0  0
  5 39  1  0  0  0  0
  6  7  2  0  0  0  0
  6 40  1  0  0  0  0
  7  8  1  0  0  0  0
  8  9  2  0  0  0  0
  8 41  1  0  0  0  0
  9 42  1  0  0  0  0
 10  7  1  0  0  0  0
 10 11  1  0  0  0  0
 10 12  1  0  0  0  0
 10 43  1  6  0  0  0
 11 44  1  0  0  0  0
 11 45  1  0  0  0  0
 12 11  1  0  0  0  0
 12 13  1  0  0  0  0
 12 46  1  1  0  0  0
 13 14  2  0  0  0  0
 13 37  1  0  0  0  0
 14 15  1  0  0  0  0
 14 16  1  0  0  0  0
 16 17  2  0  0  0  0
 16 47  1  0  0  0  0
 17 18  1  0  0  0  0
 17 36  1  0  0  0  0
 18 19  1  0  0  0  0
 19 20  1  0  0  0  0
 19 48  1  0  0  0  0
 19 49  1  0  0  0  0
 20 21  2  0  0  0  0
 20 24  1  0  0  0  0
 21 22  1  0  0  0  0
 21 33  1  0  0  0  0
 22 23  1  0  0  0  0
 23 24  2  0  0  0  0
 24 25  1  0  0  0  0
 25 26  2  0  0  0  0
 25 31  1  0  0  0  0
 26 27  1  0  0  0  0
 26 28  1  0  0  0  0
 28 29  2  0  0  0  0
 28 50  1  0  0  0  0
 29 30  1  0  0  0  0
 29 51  1  0  0  0  0
 30 31  2  0  0  0  0
 30 52  1  0  0  0  0
 31 32  1  0  0  0  0
 33 34  1  0  0  0  0
 33 35  1  0  0  0  0
 33 53  1  0  0  0  0
 34 35  1  0  0  0  0
 34 54  1  0  0  0  0
 34 55  1  0  0  0  0
 35 56  1  0  0  0  0
 35 57  1  0  0  0  0
 36 37  2  0  0  0  0
 36 58  1  0  0  0  0
 37 59  1  0  0  0  0
M  END
>  <DRUGBANK_ID>
DB15416

>  <COMMON_NAME>
PX-102

>  <CAS_NUMBER>
1268244-88-7

>  <UNII>
378SU5NO8S

$$$$
