
 OpenBabel10282417072D

 68 70  0  0  0  0  0  0  0  0999 V2000
   -1.4404    0.0983    0.0000 S   0  0  0  0  0  0  0  0  0  0  0  0
   -0.7261   -0.3140    0.0000 C   0  0  0  0  0  0  0  0  0  0  0  0
   -0.7261   -1.1391    0.0000 C   0  0  0  0  0  0  0  0  0  0  0  0
   -0.0116    0.0983    0.0000 C   0  0  0  0  0  0  0  0  0  0  0  0
   -0.0116   -1.5515    0.0000 C   0  0  0  0  0  0  0  0  0  0  0  0
    0.7029   -0.3140    0.0000 C   0  0  0  0  0  0  0  0  0  0  0  0
    0.7029   -1.1391    0.0000 C   0  0  0  0  0  0  0  0  0  0  0  0
    1.4173   -1.5515    0.0000 C   0  0  0  0  0  0  0  0  0  0  0  0
    2.1317   -1.1391    0.0000 C   0  0  0  0  0  0  0  0  0  0  0  0
    2.1317   -0.3140    0.0000 N   0  0  0  0  0  0  0  0  0  0  0  0
    2.8463    0.0983    0.0000 C   0  0  0  0  0  0  0  0  0  0  0  0
    3.5607   -0.3140    0.0000 O   0  0  0  0  0  0  0  0  0  0  0  0
    2.8463    0.9233    0.0000 N   0  0  0  0  0  0  0  0  0  0  0  0
    2.1788    1.4083    0.0000 C   0  0  0  0  0  0  0  0  0  0  0  0
    3.5136    1.4083    0.0000 C   0  0  0  0  0  0  0  0  0  0  0  0
    2.4338    2.1929    0.0000 C   0  0  0  0  0  0  0  0  0  0  0  0
    3.2587    2.1929    0.0000 C   0  0  0  0  0  0  0  0  0  0  0  0
    3.7437    2.8604    0.0000 C   0  0  0  0  0  0  0  0  0  0  0  0
    3.4082    3.6141    0.0000 C   0  0  0  0  0  0  0  0  0  0  0  0
    1.9488    2.8604    0.0000 C   0  0  0  0  0  0  0  0  0  0  0  0
    4.2984    1.1534    0.0000 O   0  0  0  0  0  0  0  0  0  0  0  0
   -2.1550   -0.3140    0.0000 N   0  0  0  0  0  0  0  0  0  0  0  0
   -2.8695    0.0983    0.0000 C   0  0  0  0  0  0  0  0  0  0  0  0
   -2.8695    0.9233    0.0000 O   0  0  0  0  0  0  0  0  0  0  0  0
   -3.5839   -0.3140    0.0000 N   0  0  0  0  0  0  0  0  0  0  0  0
   -3.5839   -1.1391    0.0000 C   0  0  1  0  0  0  0  0  0  0  0  0
   -2.8695   -1.5515    0.0000 C   0  0  0  0  0  0  0  0  0  0  0  0
   -2.8695   -2.3765    0.0000 C   0  0  0  0  0  0  0  0  0  0  0  0
   -4.2984   -2.3765    0.0000 C   0  0  0  0  0  0  0  0  0  0  0  0
   -4.2984   -1.5515    0.0000 C   0  0  0  0  0  0  0  0  0  0  0  0
   -3.5839   -2.7891    0.0000 C   0  0  1  0  0  0  0  0  0  0  0  0
   -3.5839   -3.6140    0.0000 C   0  0  0  0  0  0  0  0  0  0  0  0
   -1.8530    0.8129    0.0000 O   0  0  0  0  0  0  0  0  0  0  0  0
   -1.0280    0.8129    0.0000 O   0  0  0  0  0  0  0  0  0  0  0  0
   -1.6198   -1.6552    0.0000 H   0  0  0  0  0  0  0  0  0  0  0  0
   -0.0116    1.1303    0.0000 H   0  0  0  0  0  0  0  0  0  0  0  0
   -0.0116   -2.5835    0.0000 H   0  0  0  0  0  0  0  0  0  0  0  0
    1.5966    0.2021    0.0000 H   0  0  0  0  0  0  0  0  0  0  0  0
    1.4173   -2.6215    0.0000 H   0  0  0  0  0  0  0  0  0  0  0  0
    2.3439   -2.0865    0.0000 H   0  0  0  0  0  0  0  0  0  0  0  0
    3.0583   -1.6741    0.0000 H   0  0  0  0  0  0  0  0  0  0  0  0
    3.0584   -0.6041    0.0000 H   0  0  0  0  0  0  0  0  0  0  0  0
    1.2792    0.1784    0.0000 H   0  0  0  0  0  0  0  0  0  0  0  0
    1.1612    1.0777    0.0000 H   0  0  0  0  0  0  0  0  0  0  0  0
    1.4222    2.1650    0.0000 H   0  0  0  0  0  0  0  0  0  0  0  0
    4.8078    2.7485    0.0000 H   0  0  0  0  0  0  0  0  0  0  0  0
    4.3727    3.7260    0.0000 H   0  0  0  0  0  0  0  0  0  0  0  0
    4.0372    4.4797    0.0000 H   0  0  0  0  0  0  0  0  0  0  0  0
    2.3441    3.7260    0.0000 H   0  0  0  0  0  0  0  0  0  0  0  0
    2.9731    4.5916    0.0000 H   0  0  0  0  0  0  0  0  0  0  0  0
    2.3840    3.8379    0.0000 H   0  0  0  0  0  0  0  0  0  0  0  0
    0.8847    2.7485    0.0000 H   0  0  0  0  0  0  0  0  0  0  0  0
    1.3198    3.7260    0.0000 H   0  0  0  0  0  0  0  0  0  0  0  0
   -2.1550   -1.2985    0.0000 H   0  0  0  0  0  0  0  0  0  0  0  0
   -4.4365    0.1783    0.0000 H   0  0  0  0  0  0  0  0  0  0  0  0
   -2.6573   -0.6041    0.0000 H   0  0  0  0  0  0  0  0  0  0  0  0
   -1.9429   -1.0165    0.0000 H   0  0  0  0  0  0  0  0  0  0  0  0
   -1.9428   -2.0865    0.0000 H   0  0  0  0  0  0  0  0  0  0  0  0
   -1.9428   -2.9114    0.0000 H   0  0  0  0  0  0  0  0  0  0  0  0
   -2.8694   -3.4465    0.0000 H   0  0  0  0  0  0  0  0  0  0  0  0
   -5.2251   -2.9115    0.0000 H   0  0  0  0  0  0  0  0  0  0  0  0
   -5.2250   -1.8415    0.0000 H   0  0  0  0  0  0  0  0  0  0  0  0
   -5.2250   -1.0164    0.0000 H   0  0  0  0  0  0  0  0  0  0  0  0
   -5.2251   -2.0865    0.0000 H   0  0  0  0  0  0  0  0  0  0  0  0
   -2.6572   -3.3240    0.0000 H   0  0  0  0  0  0  0  0  0  0  0  0
   -4.5105   -4.1490    0.0000 H   0  0  0  0  0  0  0  0  0  0  0  0
   -2.6573   -4.1490    0.0000 H   0  0  0  0  0  0  0  0  0  0  0  0
   -3.5839   -4.6840    0.0000 H   0  0  0  0  0  0  0  0  0  0  0  0
  1 22  1  0  0  0  0
  2  1  1  0  0  0  0
  3  2  2  0  0  0  0
  3 35  1  0  0  0  0
  4  2  1  0  0  0  0
  4 36  1  0  0  0  0
  5  3  1  0  0  0  0
  5 37  1  0  0  0  0
  6  4  2  0  0  0  0
  6 38  1  0  0  0  0
  7  5  2  0  0  0  0
  7  6  1  0  0  0  0
  8  7  1  0  0  0  0
  8 39  1  0  0  0  0
  8 40  1  0  0  0  0
  9  8  1  0  0  0  0
  9 41  1  0  0  0  0
  9 42  1  0  0  0  0
 10  9  1  0  0  0  0
 10 43  1  0  0  0  0
 11 10  1  0  0  0  0
 12 11  2  0  0  0  0
 13 11  1  0  0  0  0
 14 13  1  0  0  0  0
 14 44  1  0  0  0  0
 14 45  1  0  0  0  0
 15 13  1  0  0  0  0
 16 14  1  0  0  0  0
 17 15  1  0  0  0  0
 17 16  2  0  0  0  0
 18 17  1  0  0  0  0
 18 46  1  0  0  0  0
 18 47  1  0  0  0  0
 19 18  1  0  0  0  0
 19 48  1  0  0  0  0
 19 49  1  0  0  0  0
 19 50  1  0  0  0  0
 20 16  1  0  0  0  0
 20 51  1  0  0  0  0
 20 52  1  0  0  0  0
 20 53  1  0  0  0  0
 21 15  2  0  0  0  0
 22 23  1  0  0  0  0
 22 54  1  0  0  0  0
 23 25  1  0  0  0  0
 23 24  2  0  0  0  0
 25 55  1  0  0  0  0
 26 25  1  0  0  0  0
 26 27  1  0  0  0  0
 26 30  1  0  0  0  0
 26 56  1  6  0  0  0
 27 28  1  0  0  0  0
 27 57  1  0  0  0  0
 27 58  1  0  0  0  0
 28 31  1  0  0  0  0
 28 59  1  0  0  0  0
 28 60  1  0  0  0  0
 29 30  1  0  0  0  0
 29 61  1  0  0  0  0
 29 62  1  0  0  0  0
 30 63  1  0  0  0  0
 30 64  1  0  0  0  0
 31 29  1  0  0  0  0
 31 32  1  0  0  0  0
 31 65  1  1  0  0  0
 32 66  1  0  0  0  0
 32 67  1  0  0  0  0
 32 68  1  0  0  0  0
 33  1  2  0  0  0  0
 34  1  2  0  0  0  0
M  END
>  <DRUGBANK_ID>
DB00222

>  <SECONDARY_ACCESSION_NUMBERS>
APRD00381

>  <COMMON_NAME>
Glimepiride

>  <CAS_NUMBER>
93479-97-1

>  <UNII>
6KY687524K

>  <SYNONYMS>
Glimepirida; Glimepiride; GlimÃ©piride; Glimepiridum

$$$$
