
 OpenBabel10282417072D

 41 45  0  0  1  0  0  0  0  0999 V2000
    0.1536   -2.7631    0.0000 C   0  0  0  0  0  0  0  0  0  0  0  0
   -0.3984   -2.1500    0.0000 C   0  0  1  0  0  0  0  0  0  0  0  0
   -1.2054   -2.3215    0.0000 C   0  0  0  0  0  0  0  0  0  0  0  0
   -1.4604   -3.1062    0.0000 C   0  0  0  0  0  0  0  0  0  0  0  0
   -2.2673   -3.2777    0.0000 C   0  0  0  0  0  0  0  0  0  0  0  0
   -2.8194   -2.6646    0.0000 C   0  0  0  0  0  0  0  0  0  0  0  0
   -3.6444   -2.6646    0.0000 N   0  0  0  0  0  0  0  0  0  0  0  0
   -3.8993   -1.8800    0.0000 C   0  0  0  0  0  0  0  0  0  0  0  0
   -3.2319   -1.3950    0.0000 C   0  0  0  0  0  0  0  0  0  0  0  0
   -2.5644   -1.8800    0.0000 N   0  0  0  0  0  0  0  0  0  0  0  0
   -1.7575   -1.7084    0.0000 C   0  0  0  0  0  0  0  0  0  0  0  0
   -0.1435   -1.3654    0.0000 N   0  0  0  0  0  0  0  0  0  0  0  0
    0.6411   -1.1104    0.0000 C   0  0  0  0  0  0  0  0  0  0  0  0
    0.6411   -0.2854    0.0000 C   0  0  0  0  0  0  0  0  0  0  0  0
    1.3556    0.1271    0.0000 N   0  0  0  0  0  0  0  0  0  0  0  0
    2.0701   -0.2854    0.0000 C   0  0  0  0  0  0  0  0  0  0  0  0
    2.0701   -1.1104    0.0000 C   0  0  0  0  0  0  0  0  0  0  0  0
    1.3556   -1.5229    0.0000 N   0  0  0  0  0  0  0  0  0  0  0  0
    2.7845   -1.5229    0.0000 C   0  0  0  0  0  0  0  0  0  0  0  0
    3.5382   -1.1874    0.0000 C   0  0  0  0  0  0  0  0  0  0  0  0
    4.0902   -1.8005    0.0000 N   0  0  0  0  0  0  0  0  0  0  0  0
    3.6777   -2.5150    0.0000 N   0  0  0  0  0  0  0  0  0  0  0  0
    2.8708   -2.3434    0.0000 C   0  0  0  0  0  0  0  0  0  0  0  0
    4.0133   -3.2686    0.0000 C   0  0  0  0  0  0  0  0  0  0  0  0
   -0.1435   -0.0305    0.0000 N   0  0  0  0  0  0  0  0  0  0  0  0
   -0.6284   -0.6979    0.0000 N   0  0  0  0  0  0  0  0  0  0  0  0
   -0.1771   -3.7807    0.0000 H   0  0  0  0  0  0  0  0  0  0  0  0
    1.2002   -2.5407    0.0000 H   0  0  0  0  0  0  0  0  0  0  0  0
    0.8695   -3.5583    0.0000 H   0  0  0  0  0  0  0  0  0  0  0  0
   -0.7291   -3.1676    0.0000 H   0  0  0  0  0  0  0  0  0  0  0  0
   -0.7699   -3.8731    0.0000 H   0  0  0  0  0  0  0  0  0  0  0  0
   -2.5862   -4.2592    0.0000 H   0  0  0  0  0  0  0  0  0  0  0  0
   -4.8808   -1.5611    0.0000 H   0  0  0  0  0  0  0  0  0  0  0  0
   -3.2319   -0.3630    0.0000 H   0  0  0  0  0  0  0  0  0  0  0  0
   -1.4387   -0.7269    0.0000 H   0  0  0  0  0  0  0  0  0  0  0  0
    2.9638    0.2306    0.0000 H   0  0  0  0  0  0  0  0  0  0  0  0
    3.7528   -0.1780    0.0000 H   0  0  0  0  0  0  0  0  0  0  0  0
    2.1039   -3.0339    0.0000 H   0  0  0  0  0  0  0  0  0  0  0  0
    3.3844   -4.1343    0.0000 H   0  0  0  0  0  0  0  0  0  0  0  0
    5.0774   -3.3804    0.0000 H   0  0  0  0  0  0  0  0  0  0  0  0
    4.4486   -4.2461    0.0000 H   0  0  0  0  0  0  0  0  0  0  0  0
  1 27  1  0  0  0  0
  1 28  1  0  0  0  0
  1 29  1  0  0  0  0
  2  1  1  0  0  0  0
  2  3  1  0  0  0  0
  2 12  1  0  0  0  0
  2 30  1  6  0  0  0
  3  4  1  0  0  0  0
  3 11  2  0  0  0  0
  4  5  2  0  0  0  0
  4 31  1  0  0  0  0
  5  6  1  0  0  0  0
  5 32  1  0  0  0  0
  6  7  2  0  0  0  0
  6 10  1  0  0  0  0
  7  8  1  0  0  0  0
  8  9  2  0  0  0  0
  8 33  1  0  0  0  0
  9 10  1  0  0  0  0
  9 34  1  0  0  0  0
 10 11  1  0  0  0  0
 11 35  1  0  0  0  0
 12 13  1  0  0  0  0
 12 26  1  0  0  0  0
 13 14  1  0  0  0  0
 13 18  2  0  0  0  0
 14 15  2  0  0  0  0
 14 25  1  0  0  0  0
 15 16  1  0  0  0  0
 16 17  2  0  0  0  0
 16 36  1  0  0  0  0
 17 18  1  0  0  0  0
 17 19  1  0  0  0  0
 19 20  1  0  0  0  0
 19 23  2  0  0  0  0
 20 21  2  0  0  0  0
 20 37  1  0  0  0  0
 21 22  1  0  0  0  0
 22 23  1  0  0  0  0
 22 24  1  0  0  0  0
 23 38  1  0  0  0  0
 24 39  1  0  0  0  0
 24 40  1  0  0  0  0
 24 41  1  0  0  0  0
 25 26  2  0  0  0  0
M  END
>  <DRUGBANK_ID>
DB12048

>  <COMMON_NAME>
Savolitinib

>  <CAS_NUMBER>
1313725-88-0

>  <UNII>
2A2DA6857R

>  <SYNONYMS>
Savolitinib; Volitinib

$$$$
