
 OpenBabel10282417072D

100110  0  0  0  0  0  0  0  0999 V2000
   -0.7514    0.6132    0.0000 N   0  0  0  0  0  0  0  0  0  0  0  0
   -0.0840    1.0981    0.0000 C   0  0  2  0  0  0  0  0  0  0  0  0
   -0.3389    1.8827    0.0000 C   0  0  2  0  0  0  0  0  0  0  0  0
   -1.1639    1.8827    0.0000 C   0  0  0  0  0  0  0  0  0  0  0  0
   -1.4188    1.0981    0.0000 C   0  0  0  0  0  0  0  0  0  0  0  0
   -2.2258    0.9265    0.0000 C   0  0  0  0  0  0  0  0  0  0  0  0
   -2.7779    1.5396    0.0000 C   0  0  0  0  0  0  0  0  0  0  0  0
   -2.5229    2.3243    0.0000 C   0  0  0  0  0  0  0  0  0  0  0  0
   -1.7159    2.4958    0.0000 C   0  0  0  0  0  0  0  0  0  0  0  0
    0.7229    0.9266    0.0000 C   0  0  0  0  0  0  0  0  0  0  0  0
    1.2750    1.5397    0.0000 C   0  0  1  0  0  0  0  0  0  0  0  0
    1.0200    2.3243    0.0000 C   0  0  0  0  0  0  0  0  0  0  0  0
    0.2130    2.4958    0.0000 C   0  0  2  0  0  0  0  0  0  0  0  0
    0.7964    3.0792    0.0000 N   0  3  1  0  0  0  0  0  0  0  0  0
    1.8583    2.1230    0.0000 C   0  0  0  0  0  0  0  0  0  0  0  0
    1.5933    2.8657    0.0000 C   0  0  0  0  0  0  0  0  0  0  0  0
    1.3798    3.6626    0.0000 C   0  0  0  0  0  0  0  0  0  0  0  0
   -0.2330    3.6156    0.0000 C   0  0  0  0  0  0  0  0  0  0  0  0
   -0.8107    3.1258    0.0000 C   0  0  0  0  0  0  0  0  0  0  0  0
   -0.3403    3.0929    0.0000 H   0  0  0  0  0  0  0  0  0  0  0  0
    1.9894    1.1272    0.0000 H   0  0  0  0  0  0  0  0  0  0  0  0
    2.1767    3.4490    0.0000 C   0  0  0  0  0  0  0  0  0  0  0  0
    2.7600    4.0324    0.0000 C   0  0  0  0  0  0  0  0  0  0  0  0
    2.6833    2.1230    0.0000 C   0  0  0  0  0  0  0  0  0  0  0  0
    3.2667    1.5397    0.0000 C   0  0  0  0  0  0  0  0  0  0  0  0
    4.0917    1.5397    0.0000 O   0  0  0  0  0  0  0  0  0  0  0  0
    0.7514   -0.6132    0.0000 N   0  0  0  0  0  0  0  0  0  0  0  0
    0.0840   -1.0981    0.0000 C   0  0  2  0  0  0  0  0  0  0  0  0
    0.3389   -1.8827    0.0000 C   0  0  2  0  0  0  0  0  0  0  0  0
    1.1639   -1.8827    0.0000 C   0  0  0  0  0  0  0  0  0  0  0  0
    1.4188   -1.0981    0.0000 C   0  0  0  0  0  0  0  0  0  0  0  0
    1.7159   -2.4958    0.0000 C   0  0  0  0  0  0  0  0  0  0  0  0
    2.5229   -2.3243    0.0000 C   0  0  0  0  0  0  0  0  0  0  0  0
    2.7779   -1.5397    0.0000 C   0  0  0  0  0  0  0  0  0  0  0  0
    2.2258   -0.9266    0.0000 C   0  0  0  0  0  0  0  0  0  0  0  0
   -0.2130   -2.4959    0.0000 C   0  0  2  0  0  0  0  0  0  0  0  0
   -1.0200   -2.3244    0.0000 C   0  0  0  0  0  0  0  0  0  0  0  0
   -1.2749   -1.5398    0.0000 C   0  0  2  0  0  0  0  0  0  0  0  0
   -0.7229   -0.9266    0.0000 C   0  0  0  0  0  0  0  0  0  0  0  0
    1.1354    0.2121    0.0000 C   0  0  0  0  0  0  0  0  0  0  0  0
   -0.9649   -0.1836    0.0000 C   0  0  0  0  0  0  0  0  0  0  0  0
   -1.8583   -2.1231    0.0000 C   0  0  0  0  0  0  0  0  0  0  0  0
   -0.7964   -3.0792    0.0000 N   0  3  1  0  0  0  0  0  0  0  0  0
   -1.6448   -2.9200    0.0000 C   0  0  0  0  0  0  0  0  0  0  0  0
   -1.3798   -3.6626    0.0000 C   0  0  0  0  0  0  0  0  0  0  0  0
   -2.1766   -3.4491    0.0000 C   0  0  0  0  0  0  0  0  0  0  0  0
   -2.7600   -4.0324    0.0000 C   0  0  0  0  0  0  0  0  0  0  0  0
    0.5013   -2.9084    0.0000 H   0  0  0  0  0  0  0  0  0  0  0  0
   -1.9894   -1.1273    0.0000 H   0  0  0  0  0  0  0  0  0  0  0  0
    0.4935   -3.5276    0.0000 C   0  0  0  0  0  0  0  0  0  0  0  0
    1.0032   -3.0356    0.0000 C   0  0  0  0  0  0  0  0  0  0  0  0
   -2.6833   -2.1231    0.0000 C   0  0  0  0  0  0  0  0  0  0  0  0
   -3.2667   -1.5398    0.0000 C   0  0  0  0  0  0  0  0  0  0  0  0
   -4.0917   -1.5398    0.0000 O   0  0  0  0  0  0  0  0  0  0  0  0
   -0.0840    0.2731    0.0000 H   0  0  0  0  0  0  0  0  0  0  0  0
    0.0840   -0.2731    0.0000 H   0  0  0  0  0  0  0  0  0  0  0  0
   -2.5446   -0.0550    0.0000 H   0  0  0  0  0  0  0  0  0  0  0  0
   -3.7873    1.3250    0.0000 H   0  0  0  0  0  0  0  0  0  0  0  0
   -3.2134    3.0913    0.0000 H   0  0  0  0  0  0  0  0  0  0  0  0
   -1.3970    3.4773    0.0000 H   0  0  0  0  0  0  0  0  0  0  0  0
    1.7359    3.1195    0.0000 H   0  0  0  0  0  0  0  0  0  0  0  0
    0.6893    3.3419    0.0000 H   0  0  0  0  0  0  0  0  0  0  0  0
    2.3187    3.6523    0.0000 H   0  0  0  0  0  0  0  0  0  0  0  0
    2.6417    2.6520    0.0000 H   0  0  0  0  0  0  0  0  0  0  0  0
    1.1029    4.6962    0.0000 H   0  0  0  0  0  0  0  0  0  0  0  0
    2.1365    4.4192    0.0000 H   0  0  0  0  0  0  0  0  0  0  0  0
   -0.3520    4.6790    0.0000 H   0  0  0  0  0  0  0  0  0  0  0  0
   -1.2274    4.0106    0.0000 H   0  0  0  0  0  0  0  0  0  0  0  0
   -1.8468    3.3930    0.0000 H   0  0  0  0  0  0  0  0  0  0  0  0
   -1.0499    4.1687    0.0000 H   0  0  0  0  0  0  0  0  0  0  0  0
    2.4438    2.4522    0.0000 H   0  0  0  0  0  0  0  0  0  0  0  0
    3.7569    3.7654    0.0000 H   0  0  0  0  0  0  0  0  0  0  0  0
    2.4928    5.0292    0.0000 H   0  0  0  0  0  0  0  0  0  0  0  0
    3.0782    3.0765    0.0000 H   0  0  0  0  0  0  0  0  0  0  0  0
    2.8573    0.5511    0.0000 H   0  0  0  0  0  0  0  0  0  0  0  0
    3.8612    0.6500    0.0000 H   0  0  0  0  0  0  0  0  0  0  0  0
    4.5767    0.6997    0.0000 H   0  0  0  0  0  0  0  0  0  0  0  0
    1.3970   -3.4773    0.0000 H   0  0  0  0  0  0  0  0  0  0  0  0
    3.2134   -3.0913    0.0000 H   0  0  0  0  0  0  0  0  0  0  0  0
    3.7874   -1.3251    0.0000 H   0  0  0  0  0  0  0  0  0  0  0  0
    2.5447    0.0549    0.0000 H   0  0  0  0  0  0  0  0  0  0  0  0
   -1.7360   -3.1196    0.0000 H   0  0  0  0  0  0  0  0  0  0  0  0
   -2.0666   -2.1019    0.0000 H   0  0  0  0  0  0  0  0  0  0  0  0
    2.1664    0.2575    0.0000 H   0  0  0  0  0  0  0  0  0  0  0  0
   -1.9965   -0.2110    0.0000 H   0  0  0  0  0  0  0  0  0  0  0  0
   -2.3720   -3.7049    0.0000 H   0  0  0  0  0  0  0  0  0  0  0  0
   -1.3092   -3.9360    0.0000 H   0  0  0  0  0  0  0  0  0  0  0  0
   -1.1029   -4.6961    0.0000 H   0  0  0  0  0  0  0  0  0  0  0  0
   -2.1364   -4.4192    0.0000 H   0  0  0  0  0  0  0  0  0  0  0  0
   -2.4437   -2.4523    0.0000 H   0  0  0  0  0  0  0  0  0  0  0  0
   -3.7568   -3.7652    0.0000 H   0  0  0  0  0  0  0  0  0  0  0  0
   -2.4930   -5.0293    0.0000 H   0  0  0  0  0  0  0  0  0  0  0  0
    0.7234   -4.5726    0.0000 H   0  0  0  0  0  0  0  0  0  0  0  0
    1.5178   -3.8369    0.0000 H   0  0  0  0  0  0  0  0  0  0  0  0
    2.0627   -3.1851    0.0000 H   0  0  0  0  0  0  0  0  0  0  0  0
    1.3335   -4.0534    0.0000 H   0  0  0  0  0  0  0  0  0  0  0  0
   -3.0782   -3.0766    0.0000 H   0  0  0  0  0  0  0  0  0  0  0  0
   -2.8573   -0.5512    0.0000 H   0  0  0  0  0  0  0  0  0  0  0  0
   -3.8612   -0.6501    0.0000 H   0  0  0  0  0  0  0  0  0  0  0  0
   -4.5767   -0.6998    0.0000 H   0  0  0  0  0  0  0  0  0  0  0  0
  1  2  1  0  0  0  0
  1  5  1  0  0  0  0
  1 41  1  0  0  0  0
  2 10  1  0  0  0  0
  2 55  1  1  0  0  0
  3  4  1  6  0  0  0
  3  2  1  0  0  0  0
  3 13  1  0  0  0  0
  3 19  1  0  0  0  0
  4  9  1  0  0  0  0
  4  5  2  0  0  0  0
  5  6  1  0  0  0  0
  6  7  2  0  0  0  0
  6 57  1  0  0  0  0
  7  8  1  0  0  0  0
  7 58  1  0  0  0  0
  8  9  2  0  0  0  0
  8 59  1  0  0  0  0
  9 60  1  0  0  0  0
 10 11  1  0  0  0  0
 10 40  2  0  0  0  0
 11 12  1  0  0  0  0
 11 15  1  0  0  0  0
 11 21  1  6  0  0  0
 12 13  1  0  0  0  0
 12 61  1  0  0  0  0
 12 62  1  0  0  0  0
 13 14  1  0  0  0  0
 13 20  1  6  0  0  0
 14 16  1  0  0  0  0
 14 17  1  6  0  0  0
 14 18  1  0  0  0  0
 15 16  1  0  0  0  0
 15 24  2  0  0  0  0
 16 63  1  0  0  0  0
 16 64  1  0  0  0  0
 17 22  1  0  0  0  0
 17 65  1  0  0  0  0
 17 66  1  0  0  0  0
 18 19  1  0  0  0  0
 18 67  1  0  0  0  0
 18 68  1  0  0  0  0
 19 69  1  0  0  0  0
 19 70  1  0  0  0  0
 22 23  2  0  0  0  0
 22 71  1  0  0  0  0
 23 72  1  0  0  0  0
 23 73  1  0  0  0  0
 24 25  1  0  0  0  0
 24 74  1  0  0  0  0
 25 26  1  0  0  0  0
 25 75  1  0  0  0  0
 25 76  1  0  0  0  0
 26 77  1  0  0  0  0
 27 28  1  0  0  0  0
 27 31  1  0  0  0  0
 27 40  1  0  0  0  0
 28 39  1  0  0  0  0
 28 29  1  0  0  0  0
 28 56  1  1  0  0  0
 29 30  1  6  0  0  0
 29 36  1  0  0  0  0
 29 51  1  0  0  0  0
 30 32  1  0  0  0  0
 31 30  2  0  0  0  0
 31 35  1  0  0  0  0
 32 33  2  0  0  0  0
 32 78  1  0  0  0  0
 33 34  1  0  0  0  0
 33 79  1  0  0  0  0
 34 35  2  0  0  0  0
 34 80  1  0  0  0  0
 35 81  1  0  0  0  0
 36 37  1  0  0  0  0
 36 43  1  0  0  0  0
 36 48  1  6  0  0  0
 37 38  1  0  0  0  0
 37 82  1  0  0  0  0
 37 83  1  0  0  0  0
 38 39  1  0  0  0  0
 38 42  1  0  0  0  0
 38 49  1  6  0  0  0
 39 41  2  0  0  0  0
 40 84  1  0  0  0  0
 41 85  1  0  0  0  0
 42 44  1  0  0  0  0
 42 52  2  0  0  0  0
 43 44  1  0  0  0  0
 43 45  1  6  0  0  0
 43 50  1  0  0  0  0
 44 86  1  0  0  0  0
 44 87  1  0  0  0  0
 45 46  1  0  0  0  0
 45 88  1  0  0  0  0
 45 89  1  0  0  0  0
 46 47  2  0  0  0  0
 46 90  1  0  0  0  0
 47 91  1  0  0  0  0
 47 92  1  0  0  0  0
 50 93  1  0  0  0  0
 50 94  1  0  0  0  0
 51 50  1  0  0  0  0
 51 95  1  0  0  0  0
 51 96  1  0  0  0  0
 52 53  1  0  0  0  0
 52 97  1  0  0  0  0
 53 54  1  0  0  0  0
 53 98  1  0  0  0  0
 53 99  1  0  0  0  0
 54100  1  0  0  0  0
M  CHG  2  14   1  43   1
M  END
>  <DRUGBANK_ID>
DB13648

>  <COMMON_NAME>
Alcuronium

>  <CAS_NUMBER>
23214-96-2

>  <UNII>
S8U3J5W06N

>  <SYNONYMS>
Alcuronum; Alloferine; Diallylnortoxiferine; Diallyltoxiferine; N,N'-diallyl-bis-nor-toxiferine; N,N'-Diallylnortoxiferinium

$$$$
