SX3
 OpenBabel10282417072D

 37 38  0  0  0  0  0  0  0  0999 V2000
    0.0891    3.4606    0.0000 Br  0  0  0  0  0  0  0  0  0  0  0  0
    0.0891    2.6356    0.0000 C   0  0  0  0  0  0  0  0  0  0  0  0
   -0.6254    2.2231    0.0000 C   0  0  0  0  0  0  0  0  0  0  0  0
    0.8035    2.2231    0.0000 C   0  0  0  0  0  0  0  0  0  0  0  0
    0.8035    1.3981    0.0000 C   0  0  0  0  0  0  0  0  0  0  0  0
    0.0891    0.9856    0.0000 C   0  0  0  0  0  0  0  0  0  0  0  0
    0.0891    0.1606    0.0000 N   0  0  0  0  0  0  0  0  0  0  0  0
   -0.6254    1.3981    0.0000 C   0  0  0  0  0  0  0  0  0  0  0  0
   -1.3399    0.9856    0.0000 C   0  0  0  0  0  0  0  0  0  0  0  0
   -2.0544    1.3981    0.0000 O   0  0  0  0  0  0  0  0  0  0  0  0
   -1.3399    0.1606    0.0000 N   0  0  0  0  0  0  0  0  0  0  0  0
   -2.0544   -0.2519    0.0000 C   0  0  0  0  0  0  0  0  0  0  0  0
   -2.0544   -1.0769    0.0000 C   0  0  2  0  0  0  0  0  0  0  0  0
   -2.7688   -1.4894    0.0000 C   0  0  0  0  0  0  0  0  0  0  0  0
   -1.3399   -1.4894    0.0000 C   0  0  0  0  0  0  0  0  0  0  0  0
   -0.6254   -0.2519    0.0000 C   0  0  0  0  0  0  0  0  0  0  0  0
   -0.6254   -1.0769    0.0000 C   0  0  1  0  0  0  0  0  0  0  0  0
    0.0891   -1.4894    0.0000 C   0  0  0  0  0  0  0  0  0  0  0  0
   -2.5601   -0.7849    0.0000 H   0  0  0  0  0  0  0  0  0  0  0  0
   -0.6254   -1.6608    0.0000 H   0  0  0  0  0  0  0  0  0  0  0  0
   -1.5191    2.7391    0.0000 H   0  0  0  0  0  0  0  0  0  0  0  0
    1.6972    2.7391    0.0000 H   0  0  0  0  0  0  0  0  0  0  0  0
    1.6972    0.8821    0.0000 H   0  0  0  0  0  0  0  0  0  0  0  0
   -0.7635   -0.3317    0.0000 H   0  0  0  0  0  0  0  0  0  0  0  0
    0.9417   -0.3317    0.0000 H   0  0  0  0  0  0  0  0  0  0  0  0
   -2.9810    0.2831    0.0000 H   0  0  0  0  0  0  0  0  0  0  0  0
   -2.9810   -0.7869    0.0000 H   0  0  0  0  0  0  0  0  0  0  0  0
   -3.6955   -0.9544    0.0000 H   0  0  0  0  0  0  0  0  0  0  0  0
   -2.7688   -2.5594    0.0000 H   0  0  0  0  0  0  0  0  0  0  0  0
   -3.6954   -2.0244    0.0000 H   0  0  0  0  0  0  0  0  0  0  0  0
   -1.3399   -2.5594    0.0000 H   0  0  0  0  0  0  0  0  0  0  0  0
   -0.4133   -2.0244    0.0000 H   0  0  0  0  0  0  0  0  0  0  0  0
    0.3012    0.2831    0.0000 H   0  0  0  0  0  0  0  0  0  0  0  0
    0.3012   -0.7869    0.0000 H   0  0  0  0  0  0  0  0  0  0  0  0
    0.0891   -2.5594    0.0000 H   0  0  0  0  0  0  0  0  0  0  0  0
    1.0157   -0.9544    0.0000 H   0  0  0  0  0  0  0  0  0  0  0  0
    1.0158   -2.0244    0.0000 H   0  0  0  0  0  0  0  0  0  0  0  0
  1  2  1  0  0  0  0
  2  4  2  0  0  0  0
  2  3  1  0  0  0  0
  3  8  2  0  0  0  0
  3 21  1  0  0  0  0
  4  5  1  0  0  0  0
  4 22  1  0  0  0  0
  5  6  2  0  0  0  0
  5 23  1  0  0  0  0
  6  7  1  0  0  0  0
  7 24  1  0  0  0  0
  7 25  1  0  0  0  0
  8  6  1  0  0  0  0
  8  9  1  0  0  0  0
  9 11  1  0  0  0  0
  9 10  2  0  0  0  0
 11 16  1  0  0  0  0
 12 11  1  0  0  0  0
 12 26  1  0  0  0  0
 12 27  1  0  0  0  0
 13 12  1  0  0  0  0
 13 15  1  0  0  0  0
 13 19  1  6  0  0  0
 13 14  1  0  0  0  0
 14 28  1  0  0  0  0
 14 29  1  0  0  0  0
 14 30  1  0  0  0  0
 15 17  1  0  0  0  0
 15 31  1  0  0  0  0
 15 32  1  0  0  0  0
 16 33  1  0  0  0  0
 16 34  1  0  0  0  0
 17 16  1  0  0  0  0
 17 18  1  0  0  0  0
 17 20  1  6  0  0  0
 18 35  1  0  0  0  0
 18 36  1  0  0  0  0
 18 37  1  0  0  0  0
M  END
>  <DRUGBANK_ID>
DB08579

>  <COMMON_NAME>
4-bromo-2-{[(3R,5S)-3,5-dimethylpiperidin-1-yl]carbonyl}aniline

$$$$
