
 OpenBabel10282417072D

 38 39  0  0  0  0  0  0  0  0999 V2000
   -3.1902    5.4206    0.0000 C   0  0  0  0  0  0  0  0  0  0  0  0
    3.8137    6.6056    0.0000 C   0  0  0  0  0  0  0  0  0  0  0  0
    2.6577    7.4455    0.0000 C   0  0  0  0  0  0  0  0  0  0  0  0
    4.2987    7.2730    0.0000 C   0  0  0  0  0  0  0  0  0  0  0  0
    3.1426    8.1130    0.0000 C   0  0  0  0  0  0  0  0  0  0  0  0
   -1.0468    5.8331    0.0000 C   0  0  0  0  0  0  0  0  0  0  0  0
   -0.1447    7.2056    0.0000 C   0  0  0  0  0  0  0  0  0  0  0  0
   -0.9293    6.9507    0.0000 C   0  0  0  0  0  0  0  0  0  0  0  0
   -1.7613    5.4206    0.0000 C   0  0  0  0  0  0  0  0  0  0  0  0
    2.5083    6.0244    0.0000 C   0  0  0  0  0  0  0  0  0  0  0  0
    2.9933    6.6918    0.0000 C   0  0  0  0  0  0  0  0  0  0  0  0
    3.9631    8.0267    0.0000 C   0  0  0  0  0  0  0  0  0  0  0  0
    1.6879    6.1106    0.0000 C   0  0  0  0  0  0  0  0  0  0  0  0
   -0.3323    5.4206    0.0000 C   0  0  0  0  0  0  0  0  0  0  0  0
    0.3822    5.8331    0.0000 C   0  0  0  0  0  0  0  0  0  0  0  0
    1.2754    6.8251    0.0000 C   0  0  0  0  0  0  0  0  0  0  0  0
    1.1358    5.4975    0.0000 N   0  0  0  0  0  0  0  0  0  0  0  0
    0.4684    6.6536    0.0000 N   0  0  0  0  0  0  0  0  0  0  0  0
   -1.5424    7.5027    0.0000 O   0  0  0  0  0  0  0  0  0  0  0  0
    4.4480    8.6942    0.0000 O   0  5  0  0  0  0  0  0  0  0  0  0
   -0.3323    4.5956    0.0000 O   0  0  0  0  0  0  0  0  0  0  0  0
    1.6109    7.5788    0.0000 O   0  0  0  0  0  0  0  0  0  0  0  0
   -2.4757    5.8331    0.0000 S   0  0  0  0  0  0  0  0  0  0  0  0
    2.8439    5.2707    0.0000 H   0  0  0  0  0  0  0  0  0  0  0  0
   -4.1168    5.9556    0.0000 H   0  0  0  0  0  0  0  0  0  0  0  0
   -3.1902    4.3506    0.0000 H   0  0  0  0  0  0  0  0  0  0  0  0
   -4.1169    4.8856    0.0000 H   0  0  0  0  0  0  0  0  0  0  0  0
    4.2334    5.6628    0.0000 H   0  0  0  0  0  0  0  0  0  0  0  0
    1.6313    7.5533    0.0000 H   0  0  0  0  0  0  0  0  0  0  0  0
    5.3250    7.1651    0.0000 H   0  0  0  0  0  0  0  0  0  0  0  0
    2.7229    9.0558    0.0000 H   0  0  0  0  0  0  0  0  0  0  0  0
   -1.0468    6.9031    0.0000 H   0  0  0  0  0  0  0  0  0  0  0  0
   -0.1202    6.3681    0.0000 H   0  0  0  0  0  0  0  0  0  0  0  0
    0.0778    8.2522    0.0000 H   0  0  0  0  0  0  0  0  0  0  0  0
    0.8729    7.5363    0.0000 H   0  0  0  0  0  0  0  0  0  0  0  0
   -1.1439    5.9413    0.0000 H   0  0  0  0  0  0  0  0  0  0  0  0
   -1.7613    4.3506    0.0000 H   0  0  0  0  0  0  0  0  0  0  0  0
   -2.6880    4.8856    0.0000 H   0  0  0  0  0  0  0  0  0  0  0  0
  1 25  1  0  0  0  0
  1 26  1  0  0  0  0
  1 27  1  0  0  0  0
  2 28  1  0  0  0  0
  3 29  1  0  0  0  0
  4  2  1  0  0  0  0
  4 30  1  0  0  0  0
  5  3  2  0  0  0  0
  5 31  1  0  0  0  0
  6 32  1  0  0  0  0
  6 33  1  0  0  0  0
  7 34  1  0  0  0  0
  7 35  1  0  0  0  0
  8  7  1  0  0  0  0
  8 36  1  0  0  0  0
  9  6  1  0  0  0  0
  9 37  1  0  0  0  0
  9 38  1  0  0  0  0
 11  2  2  0  0  0  0
 11  3  1  0  0  0  0
 11 10  1  0  0  0  0
 12  4  2  0  0  0  0
 12  5  1  0  0  0  0
 13 10  2  0  0  0  0
 14  6  1  0  0  0  0
 15 14  1  0  0  0  0
 16 13  1  0  0  0  0
 17 13  1  0  0  0  0
 17 15  2  0  0  0  0
 18  7  1  0  0  0  0
 18 15  1  0  0  0  0
 18 16  1  0  0  0  0
 19  8  2  0  0  0  0
 20 12  1  0  0  0  0
 21 14  2  0  0  0  0
 22 16  2  0  0  0  0
 23  1  1  0  0  0  0
 23  9  1  0  0  0  0
 24 10  1  0  0  0  0
M  CHG  1  20  -1
M  END
>  <DRUGBANK_ID>
DB02781

>  <SECONDARY_ACCESSION_NUMBERS>
EXPT01022

>  <COMMON_NAME>
4-{(Z)-[2-[3-(Methylsulfanyl)Propanoyl]-5-Oxo-1-(2-Oxoethyl)-1,5-Dihydro-4h-Imidazol-4-Ylidene]Methyl}Benzenolate

$$$$
