3QC
 OpenBabel10282417072D

 48 50  0  0  0  0  0  0  0  0999 V2000
    0.8837    0.6992    0.0000 C   0  0  0  0  0  0  0  0  0  0  0  0
    0.1693    1.1117    0.0000 C   0  0  0  0  0  0  0  0  0  0  0  0
    1.5982   -0.5383    0.0000 C   0  0  0  0  0  0  0  0  0  0  0  0
    2.3127   -0.1258    0.0000 C   0  0  0  0  0  0  0  0  0  0  0  0
    2.3127    0.6992    0.0000 C   0  0  0  0  0  0  0  0  0  0  0  0
    1.5982    1.1117    0.0000 C   0  0  0  0  0  0  0  0  0  0  0  0
    0.8837   -1.7758    0.0000 C   0  0  0  0  0  0  0  0  0  0  0  0
    0.8837   -2.6008    0.0000 C   0  0  0  0  0  0  0  0  0  0  0  0
    0.1693   -3.0133    0.0000 C   0  0  0  0  0  0  0  0  0  0  0  0
   -0.5452   -2.6008    0.0000 C   0  0  0  0  0  0  0  0  0  0  0  0
    1.5982   -3.0133    0.0000 O   0  0  0  0  0  0  0  0  0  0  0  0
    1.5982    1.9367    0.0000 C   0  0  0  0  0  0  0  0  0  0  0  0
   -0.5452    0.6992    0.0000 N   0  0  0  0  0  0  0  0  0  0  0  0
   -0.5452   -0.1258    0.0000 C   0  0  0  0  0  0  0  0  0  0  0  0
    0.1693   -0.5383    0.0000 C   0  0  1  0  0  0  0  0  0  0  0  0
    0.8837   -0.1258    0.0000 C   0  0  0  0  0  0  0  0  0  0  0  0
    0.1693   -1.3633    0.0000 C   0  0  0  0  0  0  0  0  0  0  0  0
   -0.5452   -1.7758    0.0000 C   0  0  0  0  0  0  0  0  0  0  0  0
    3.0271    1.1117    0.0000 C   0  0  0  0  0  0  0  0  0  0  0  0
   -1.2597    1.1117    0.0000 C   0  0  0  0  0  0  0  0  0  0  0  0
   -1.9742    0.6992    0.0000 N   0  0  0  0  0  0  0  0  0  0  0  0
   -1.9742   -0.1258    0.0000 C   0  0  0  0  0  0  0  0  0  0  0  0
   -2.6886    1.1117    0.0000 C   0  0  0  0  0  0  0  0  0  0  0  0
   -1.2597    1.9367    0.0000 O   0  0  0  0  0  0  0  0  0  0  0  0
   -0.3364   -0.8303    0.0000 H   0  0  0  0  0  0  0  0  0  0  0  0
    0.1693    2.1817    0.0000 H   0  0  0  0  0  0  0  0  0  0  0  0
   -0.7573    1.6467    0.0000 H   0  0  0  0  0  0  0  0  0  0  0  0
    1.5982   -1.5703    0.0000 H   0  0  0  0  0  0  0  0  0  0  0  0
    3.2064   -0.6418    0.0000 H   0  0  0  0  0  0  0  0  0  0  0  0
    1.7774   -1.2598    0.0000 H   0  0  0  0  0  0  0  0  0  0  0  0
    0.1693   -4.0453    0.0000 H   0  0  0  0  0  0  0  0  0  0  0  0
   -1.4389   -3.1168    0.0000 H   0  0  0  0  0  0  0  0  0  0  0  0
    1.5982   -3.9503    0.0000 H   0  0  0  0  0  0  0  0  0  0  0  0
    2.5248    2.4717    0.0000 H   0  0  0  0  0  0  0  0  0  0  0  0
    0.6716    2.4717    0.0000 H   0  0  0  0  0  0  0  0  0  0  0  0
    1.5982    3.0067    0.0000 H   0  0  0  0  0  0  0  0  0  0  0  0
   -1.4718   -0.6608    0.0000 H   0  0  0  0  0  0  0  0  0  0  0  0
   -0.5452   -1.1958    0.0000 H   0  0  0  0  0  0  0  0  0  0  0  0
   -1.4389   -1.2598    0.0000 H   0  0  0  0  0  0  0  0  0  0  0  0
    3.9538    0.5767    0.0000 H   0  0  0  0  0  0  0  0  0  0  0  0
    3.0271    2.1817    0.0000 H   0  0  0  0  0  0  0  0  0  0  0  0
    3.9537    1.6467    0.0000 H   0  0  0  0  0  0  0  0  0  0  0  0
   -2.9008   -0.6608    0.0000 H   0  0  0  0  0  0  0  0  0  0  0  0
   -1.0476   -0.6608    0.0000 H   0  0  0  0  0  0  0  0  0  0  0  0
   -1.9742   -1.1958    0.0000 H   0  0  0  0  0  0  0  0  0  0  0  0
   -2.6886    2.1817    0.0000 H   0  0  0  0  0  0  0  0  0  0  0  0
   -3.6153    0.5767    0.0000 H   0  0  0  0  0  0  0  0  0  0  0  0
   -3.6152    1.6467    0.0000 H   0  0  0  0  0  0  0  0  0  0  0  0
  1  2  1  0  0  0  0
  1  6  1  0  0  0  0
  1 16  2  0  0  0  0
  2 13  1  0  0  0  0
  2 26  1  0  0  0  0
  2 27  1  0  0  0  0
  3  4  2  0  0  0  0
  3 16  1  0  0  0  0
  3 28  1  0  0  0  0
  4  5  1  0  0  0  0
  4 29  1  0  0  0  0
  5  6  2  0  0  0  0
  5 19  1  0  0  0  0
  6 12  1  0  0  0  0
  7  8  1  0  0  0  0
  7 17  2  0  0  0  0
  7 30  1  0  0  0  0
  8  9  2  0  0  0  0
  8 11  1  0  0  0  0
  9 10  1  0  0  0  0
  9 31  1  0  0  0  0
 10 18  2  0  0  0  0
 10 32  1  0  0  0  0
 11 33  1  0  0  0  0
 12 34  1  0  0  0  0
 12 35  1  0  0  0  0
 12 36  1  0  0  0  0
 13 14  1  0  0  0  0
 13 20  1  0  0  0  0
 14 15  1  0  0  0  0
 14 37  1  0  0  0  0
 14 38  1  0  0  0  0
 15 16  1  0  0  0  0
 15 17  1  0  0  0  0
 15 25  1  6  0  0  0
 17 18  1  0  0  0  0
 18 39  1  0  0  0  0
 19 40  1  0  0  0  0
 19 41  1  0  0  0  0
 19 42  1  0  0  0  0
 20 21  1  0  0  0  0
 20 24  2  0  0  0  0
 21 22  1  0  0  0  0
 21 23  1  0  0  0  0
 22 43  1  0  0  0  0
 22 44  1  0  0  0  0
 22 45  1  0  0  0  0
 23 46  1  0  0  0  0
 23 47  1  0  0  0  0
 23 48  1  0  0  0  0
M  END
>  <DRUGBANK_ID>
DB07064

>  <COMMON_NAME>
(4R)-4-(3-HYDROXYPHENYL)-N,N,7,8-TETRAMETHYL-3,4-DIHYDROISOQUINOLINE-2(1H)-CARBOXAMIDE

$$$$
