DFN
 OpenBabel10282417072D

 50 53  0  0  0  0  0  0  0  0999 V2000
   -1.6183    3.4841    0.0000 C   0  0  0  0  0  0  0  0  0  0  0  0
   -1.3633    2.6994    0.0000 N   0  0  0  0  0  0  0  0  0  0  0  0
   -1.8482    2.0320    0.0000 C   0  0  0  0  0  0  0  0  0  0  0  0
   -0.5787    2.4445    0.0000 C   0  0  0  0  0  0  0  0  0  0  0  0
    0.1358    2.8570    0.0000 C   0  0  0  0  0  0  0  0  0  0  0  0
    0.8502    2.4445    0.0000 C   0  0  0  0  0  0  0  0  0  0  0  0
    0.8502    1.6195    0.0000 C   0  0  0  0  0  0  0  0  0  0  0  0
    1.5647    1.2070    0.0000 F   0  0  0  0  0  0  0  0  0  0  0  0
   -0.5787    1.6195    0.0000 C   0  0  0  0  0  0  0  0  0  0  0  0
    0.1358    1.2070    0.0000 C   0  0  0  0  0  0  0  0  0  0  0  0
   -1.3633    1.3646    0.0000 C   0  0  0  0  0  0  0  0  0  0  0  0
   -1.6183    0.5799    0.0000 C   0  0  0  0  0  0  0  0  0  0  0  0
   -1.1333   -0.0875    0.0000 C   0  0  0  0  0  0  0  0  0  0  0  0
   -1.6183   -0.7549    0.0000 C   0  0  0  0  0  0  0  0  0  0  0  0
   -1.3633   -1.5396    0.0000 O   0  0  0  0  0  0  0  0  0  0  0  0
   -2.4029   -0.5000    0.0000 N   0  0  0  0  0  0  0  0  0  0  0  0
   -2.4029    0.3250    0.0000 C   0  0  0  0  0  0  0  0  0  0  0  0
   -3.0703    0.8099    0.0000 O   0  0  0  0  0  0  0  0  0  0  0  0
   -0.3083   -0.0875    0.0000 C   0  0  0  0  0  0  0  0  0  0  0  0
    0.1042   -0.8020    0.0000 C   0  0  0  0  0  0  0  0  0  0  0  0
    0.9292   -0.8020    0.0000 C   0  0  0  0  0  0  0  0  0  0  0  0
    1.3417   -0.0875    0.0000 C   0  0  0  0  0  0  0  0  0  0  0  0
    0.9292    0.6270    0.0000 C   0  0  0  0  0  0  0  0  0  0  0  0
    0.1042    0.6270    0.0000 C   0  0  0  0  0  0  0  0  0  0  0  0
    1.3417   -1.5165    0.0000 N   0  0  0  0  0  0  0  0  0  0  0  0
    2.1667   -1.5165    0.0000 C   0  0  0  0  0  0  0  0  0  0  0  0
    2.5792   -2.2309    0.0000 C   0  0  2  0  0  0  0  0  0  0  0  0
    2.1667   -2.9454    0.0000 O   0  0  0  0  0  0  0  0  0  0  0  0
    3.4042   -2.2309    0.0000 C   0  0  0  0  0  0  0  0  0  0  0  0
    3.8167   -2.9454    0.0000 O   0  0  0  0  0  0  0  0  0  0  0  0
    1.9952   -2.2309    0.0000 H   0  0  0  0  0  0  0  0  0  0  0  0
   -0.9024    4.2793    0.0000 H   0  0  0  0  0  0  0  0  0  0  0  0
   -2.6649    3.7065    0.0000 H   0  0  0  0  0  0  0  0  0  0  0  0
   -1.9490    4.5017    0.0000 H   0  0  0  0  0  0  0  0  0  0  0  0
   -2.8802    2.0320    0.0000 H   0  0  0  0  0  0  0  0  0  0  0  0
    0.1358    3.8890    0.0000 H   0  0  0  0  0  0  0  0  0  0  0  0
    1.7439    2.9605    0.0000 H   0  0  0  0  0  0  0  0  0  0  0  0
    0.1358    0.1750    0.0000 H   0  0  0  0  0  0  0  0  0  0  0  0
   -3.1994   -1.0787    0.0000 H   0  0  0  0  0  0  0  0  0  0  0  0
   -0.4118   -1.6957    0.0000 H   0  0  0  0  0  0  0  0  0  0  0  0
    2.3737   -0.0875    0.0000 H   0  0  0  0  0  0  0  0  0  0  0  0
    1.4452    1.5207    0.0000 H   0  0  0  0  0  0  0  0  0  0  0  0
   -0.4118    1.5207    0.0000 H   0  0  0  0  0  0  0  0  0  0  0  0
    0.8494   -2.3691    0.0000 H   0  0  0  0  0  0  0  0  0  0  0  0
    2.7017   -0.5898    0.0000 H   0  0  0  0  0  0  0  0  0  0  0  0
    3.2367   -1.5165    0.0000 H   0  0  0  0  0  0  0  0  0  0  0  0
    1.1967   -2.9454    0.0000 H   0  0  0  0  0  0  0  0  0  0  0  0
    3.9392   -1.3043    0.0000 H   0  0  0  0  0  0  0  0  0  0  0  0
    4.4742   -2.2309    0.0000 H   0  0  0  0  0  0  0  0  0  0  0  0
    3.3317   -3.7854    0.0000 H   0  0  0  0  0  0  0  0  0  0  0  0
  1  2  1  0  0  0  0
  1 32  1  0  0  0  0
  1 33  1  0  0  0  0
  1 34  1  0  0  0  0
  2  3  1  0  0  0  0
  2  4  1  0  0  0  0
  3 11  2  0  0  0  0
  3 35  1  0  0  0  0
  4  5  2  0  0  0  0
  4  9  1  0  0  0  0
  5  6  1  0  0  0  0
  5 36  1  0  0  0  0
  6  7  2  0  0  0  0
  6 37  1  0  0  0  0
  7  8  1  0  0  0  0
  7 10  1  0  0  0  0
  9 10  2  0  0  0  0
  9 11  1  0  0  0  0
 10 38  1  0  0  0  0
 11 12  1  0  0  0  0
 12 13  2  0  0  0  0
 12 17  1  0  0  0  0
 13 14  1  0  0  0  0
 13 19  1  0  0  0  0
 14 15  2  0  0  0  0
 14 16  1  0  0  0  0
 16 17  1  0  0  0  0
 16 39  1  0  0  0  0
 17 18  2  0  0  0  0
 19 20  2  0  0  0  0
 19 24  1  0  0  0  0
 20 21  1  0  0  0  0
 20 40  1  0  0  0  0
 21 22  2  0  0  0  0
 21 25  1  0  0  0  0
 22 23  1  0  0  0  0
 22 41  1  0  0  0  0
 23 24  2  0  0  0  0
 23 42  1  0  0  0  0
 24 43  1  0  0  0  0
 25 26  1  0  0  0  0
 25 44  1  0  0  0  0
 26 27  1  0  0  0  0
 26 45  1  0  0  0  0
 26 46  1  0  0  0  0
 27 28  1  0  0  0  0
 27 29  1  0  0  0  0
 27 31  1  6  0  0  0
 28 47  1  0  0  0  0
 29 30  1  0  0  0  0
 29 48  1  0  0  0  0
 29 49  1  0  0  0  0
 30 50  1  0  0  0  0
M  END
>  <DRUGBANK_ID>
DB01772

>  <SECONDARY_ACCESSION_NUMBERS>
EXPT01170

>  <COMMON_NAME>
3-[3-(2,3-Dihydroxy-Propylamino)-Phenyl]-4-(5-Fluoro-1-Methyl-1h-Indol-3-Yl)-Pyrrole-2,5-Dione

$$$$
