
 OpenBabel10282417072D

 41 43  0  0  0  0  0  0  0  0999 V2000
   -1.4837    0.0000    0.0000 O   0  0  0  0  0  0  0  0  0  0  0  0
   -1.3732   -1.2375    0.0000 N   0  0  0  0  0  0  0  0  0  0  0  0
   -0.6587   -0.8250    0.0000 C   0  0  3  0  0  0  0  0  0  0  0  0
   -0.6587    0.0000    0.0000 C   0  0  0  0  0  0  0  0  0  0  0  0
    0.0556   -1.2375    0.0000 C   0  0  0  0  0  0  0  0  0  0  0  0
    0.0556   -2.0625    0.0000 C   0  0  0  0  0  0  0  0  0  0  0  0
   -0.6587   -2.4750    0.0000 C   0  0  0  0  0  0  0  0  0  0  0  0
   -1.3732   -2.0625    0.0000 C   0  0  0  0  0  0  0  0  0  0  0  0
   -0.6587    0.8250    0.0000 C   0  0  0  0  0  0  0  0  0  0  0  0
    0.1662    0.0000    0.0000 C   0  0  0  0  0  0  0  0  0  0  0  0
   -1.3732    1.2375    0.0000 C   0  0  0  0  0  0  0  0  0  0  0  0
    0.5787   -0.7144    0.0000 C   0  0  0  0  0  0  0  0  0  0  0  0
    0.0556    1.2375    0.0000 C   0  0  0  0  0  0  0  0  0  0  0  0
    0.5787    0.7144    0.0000 C   0  0  0  0  0  0  0  0  0  0  0  0
   -1.3732    2.0625    0.0000 C   0  0  0  0  0  0  0  0  0  0  0  0
    1.4037   -0.7144    0.0000 C   0  0  0  0  0  0  0  0  0  0  0  0
    0.0556    2.0625    0.0000 C   0  0  0  0  0  0  0  0  0  0  0  0
    1.4037    0.7144    0.0000 C   0  0  0  0  0  0  0  0  0  0  0  0
   -0.6587    2.4750    0.0000 C   0  0  0  0  0  0  0  0  0  0  0  0
    1.8162    0.0000    0.0000 C   0  0  0  0  0  0  0  0  0  0  0  0
   -1.8162   -0.9817    0.0000 H   0  0  0  0  0  0  0  0  0  0  0  0
   -1.9687    0.8400    0.0000 H   0  0  0  0  0  0  0  0  0  0  0  0
   -1.5853   -0.2900    0.0000 H   0  0  0  0  0  0  0  0  0  0  0  0
    0.9823   -0.7025    0.0000 H   0  0  0  0  0  0  0  0  0  0  0  0
    0.9822   -1.7725    0.0000 H   0  0  0  0  0  0  0  0  0  0  0  0
    0.9823   -2.5975    0.0000 H   0  0  0  0  0  0  0  0  0  0  0  0
    0.0557   -3.1325    0.0000 H   0  0  0  0  0  0  0  0  0  0  0  0
   -0.6586   -3.5450    0.0000 H   0  0  0  0  0  0  0  0  0  0  0  0
   -1.5853   -3.0100    0.0000 H   0  0  0  0  0  0  0  0  0  0  0  0
   -2.2998   -2.5975    0.0000 H   0  0  0  0  0  0  0  0  0  0  0  0
   -1.3732   -3.1325    0.0000 H   0  0  0  0  0  0  0  0  0  0  0  0
   -2.2669    0.7215    0.0000 H   0  0  0  0  0  0  0  0  0  0  0  0
    0.0627   -1.6081    0.0000 H   0  0  0  0  0  0  0  0  0  0  0  0
    0.9494    0.7215    0.0000 H   0  0  0  0  0  0  0  0  0  0  0  0
    0.0627    1.6081    0.0000 H   0  0  0  0  0  0  0  0  0  0  0  0
   -2.2669    2.5785    0.0000 H   0  0  0  0  0  0  0  0  0  0  0  0
    1.9197   -1.6081    0.0000 H   0  0  0  0  0  0  0  0  0  0  0  0
    0.9494    2.5785    0.0000 H   0  0  0  0  0  0  0  0  0  0  0  0
    1.9197    1.6081    0.0000 H   0  0  0  0  0  0  0  0  0  0  0  0
   -0.6586    3.5070    0.0000 H   0  0  0  0  0  0  0  0  0  0  0  0
    2.8482    0.0000    0.0000 H   0  0  0  0  0  0  0  0  0  0  0  0
  1  4  1  0  0  0  0
  1 22  1  0  0  0  0
  2  3  1  0  0  0  0
  2  8  1  0  0  0  0
  2 21  1  0  0  0  0
  3  4  1  0  0  0  0
  3  5  1  0  0  0  0
  3 23  1  0  0  0  0
  4  9  1  0  0  0  0
  4 10  1  0  0  0  0
  5  6  1  0  0  0  0
  5 24  1  0  0  0  0
  5 25  1  0  0  0  0
  6  7  1  0  0  0  0
  6 26  1  0  0  0  0
  6 27  1  0  0  0  0
  7  8  1  0  0  0  0
  7 28  1  0  0  0  0
  7 29  1  0  0  0  0
  8 30  1  0  0  0  0
  8 31  1  0  0  0  0
  9 11  2  0  0  0  0
  9 13  1  0  0  0  0
 10 12  2  0  0  0  0
 10 14  1  0  0  0  0
 11 15  1  0  0  0  0
 11 32  1  0  0  0  0
 12 16  1  0  0  0  0
 12 33  1  0  0  0  0
 13 17  2  0  0  0  0
 13 34  1  0  0  0  0
 14 18  2  0  0  0  0
 14 35  1  0  0  0  0
 15 19  2  0  0  0  0
 15 36  1  0  0  0  0
 16 20  2  0  0  0  0
 16 37  1  0  0  0  0
 17 19  1  0  0  0  0
 17 38  1  0  0  0  0
 18 20  1  0  0  0  0
 18 39  1  0  0  0  0
 19 40  1  0  0  0  0
 20 41  1  0  0  0  0
M  END
>  <DRUGBANK_ID>
DB11584

>  <COMMON_NAME>
Pipradrol

>  <CAS_NUMBER>
467-60-7

>  <UNII>
S6I030E0DA

>  <SYNONYMS>
Pipradrol

$$$$
