
 OpenBabel10282417072D

 78 79  0  0  0  0  0  0  0  0999 V2000
    3.5724   -2.8875    0.0000 C   0  0  0  0  0  0  0  0  0  0  0  0
    2.8579   -3.3000    0.0000 C   0  0  0  0  0  0  0  0  0  0  0  0
    2.1434   -2.8875    0.0000 C   0  0  0  0  0  0  0  0  0  0  0  0
    2.8579   -4.1250    0.0000 C   0  0  0  0  0  0  0  0  0  0  0  0
    3.5724   -4.5375    0.0000 C   0  0  0  0  0  0  0  0  0  0  0  0
    3.5724   -5.3625    0.0000 C   0  0  0  0  0  0  0  0  0  0  0  0
    2.8579   -5.7750    0.0000 C   0  0  0  0  0  0  0  0  0  0  0  0
    2.1434   -5.3625    0.0000 C   0  0  0  0  0  0  0  0  0  0  0  0
    2.1434   -4.5375    0.0000 C   0  0  0  0  0  0  0  0  0  0  0  0
    1.4289   -4.1250    0.0000 O   0  0  0  0  0  0  0  0  0  0  0  0
    0.7145   -4.5375    0.0000 S   0  0  0  0  0  0  0  0  0  0  0  0
    0.3020   -3.8230    0.0000 O   0  0  0  0  0  0  0  0  0  0  0  0
    1.1270   -5.2520    0.0000 O   0  0  0  0  0  0  0  0  0  0  0  0
    0.0000   -4.9500    0.0000 N   0  0  0  0  0  0  0  0  0  0  0  0
   -0.7145   -4.5375    0.0000 C   0  0  0  0  0  0  0  0  0  0  0  0
   -0.7145   -3.7125    0.0000 O   0  0  0  0  0  0  0  0  0  0  0  0
   -1.4289   -4.9500    0.0000 C   0  0  0  0  0  0  0  0  0  0  0  0
   -2.1434   -4.5375    0.0000 C   0  0  0  0  0  0  0  0  0  0  0  0
   -2.8579   -4.9500    0.0000 C   0  0  0  0  0  0  0  0  0  0  0  0
   -3.5724   -4.5375    0.0000 C   0  0  0  0  0  0  0  0  0  0  0  0
   -3.5724   -3.7125    0.0000 C   0  0  0  0  0  0  0  0  0  0  0  0
   -2.8579   -3.3000    0.0000 C   0  0  0  0  0  0  0  0  0  0  0  0
   -2.1434   -3.7125    0.0000 C   0  0  0  0  0  0  0  0  0  0  0  0
   -1.4289   -3.3000    0.0000 C   0  0  0  0  0  0  0  0  0  0  0  0
   -0.6085   -3.2138    0.0000 C   0  0  0  0  0  0  0  0  0  0  0  0
   -1.4289   -2.4750    0.0000 C   0  0  0  0  0  0  0  0  0  0  0  0
   -4.2868   -3.3000    0.0000 C   0  0  0  0  0  0  0  0  0  0  0  0
   -5.0013   -3.7125    0.0000 C   0  0  0  0  0  0  0  0  0  0  0  0
   -4.2868   -2.4750    0.0000 C   0  0  0  0  0  0  0  0  0  0  0  0
   -2.8579   -5.7750    0.0000 C   0  0  0  0  0  0  0  0  0  0  0  0
   -3.5724   -6.1875    0.0000 C   0  0  0  0  0  0  0  0  0  0  0  0
   -2.1434   -6.1875    0.0000 C   0  0  0  0  0  0  0  0  0  0  0  0
    1.4289   -5.7750    0.0000 C   0  0  0  0  0  0  0  0  0  0  0  0
    0.7145   -5.3625    0.0000 C   0  0  0  0  0  0  0  0  0  0  0  0
    1.4289   -6.6000    0.0000 C   0  0  0  0  0  0  0  0  0  0  0  0
    4.4990   -3.4225    0.0000 H   0  0  0  0  0  0  0  0  0  0  0  0
    3.5724   -1.8175    0.0000 H   0  0  0  0  0  0  0  0  0  0  0  0
    4.4991   -2.3525    0.0000 H   0  0  0  0  0  0  0  0  0  0  0  0
    1.9313   -3.8350    0.0000 H   0  0  0  0  0  0  0  0  0  0  0  0
    2.1434   -1.8175    0.0000 H   0  0  0  0  0  0  0  0  0  0  0  0
    1.2168   -3.4225    0.0000 H   0  0  0  0  0  0  0  0  0  0  0  0
    1.2167   -2.3525    0.0000 H   0  0  0  0  0  0  0  0  0  0  0  0
    4.4661   -4.0215    0.0000 H   0  0  0  0  0  0  0  0  0  0  0  0
    4.4661   -5.8785    0.0000 H   0  0  0  0  0  0  0  0  0  0  0  0
    2.8579   -6.8070    0.0000 H   0  0  0  0  0  0  0  0  0  0  0  0
    0.0000   -5.9345    0.0000 H   0  0  0  0  0  0  0  0  0  0  0  0
   -1.4289   -6.0200    0.0000 H   0  0  0  0  0  0  0  0  0  0  0  0
   -2.3555   -5.4850    0.0000 H   0  0  0  0  0  0  0  0  0  0  0  0
   -4.4661   -5.0535    0.0000 H   0  0  0  0  0  0  0  0  0  0  0  0
   -2.8579   -2.2680    0.0000 H   0  0  0  0  0  0  0  0  0  0  0  0
   -0.7129   -2.5048    0.0000 H   0  0  0  0  0  0  0  0  0  0  0  0
    0.0204   -4.0795    0.0000 H   0  0  0  0  0  0  0  0  0  0  0  0
   -0.1733   -2.2363    0.0000 H   0  0  0  0  0  0  0  0  0  0  0  0
    0.4556   -3.1020    0.0000 H   0  0  0  0  0  0  0  0  0  0  0  0
   -0.5023   -1.9400    0.0000 H   0  0  0  0  0  0  0  0  0  0  0  0
   -2.3555   -1.9400    0.0000 H   0  0  0  0  0  0  0  0  0  0  0  0
   -1.4289   -1.4050    0.0000 H   0  0  0  0  0  0  0  0  0  0  0  0
   -5.2134   -2.7650    0.0000 H   0  0  0  0  0  0  0  0  0  0  0  0
   -5.9279   -3.1775    0.0000 H   0  0  0  0  0  0  0  0  0  0  0  0
   -5.0013   -4.7825    0.0000 H   0  0  0  0  0  0  0  0  0  0  0  0
   -5.9280   -4.2475    0.0000 H   0  0  0  0  0  0  0  0  0  0  0  0
   -3.3602   -1.9400    0.0000 H   0  0  0  0  0  0  0  0  0  0  0  0
   -5.2134   -1.9400    0.0000 H   0  0  0  0  0  0  0  0  0  0  0  0
   -4.2868   -1.4050    0.0000 H   0  0  0  0  0  0  0  0  0  0  0  0
   -2.8579   -6.8450    0.0000 H   0  0  0  0  0  0  0  0  0  0  0  0
   -4.4990   -5.6525    0.0000 H   0  0  0  0  0  0  0  0  0  0  0  0
   -3.5724   -7.2575    0.0000 H   0  0  0  0  0  0  0  0  0  0  0  0
   -4.4991   -6.7225    0.0000 H   0  0  0  0  0  0  0  0  0  0  0  0
   -2.1434   -7.2575    0.0000 H   0  0  0  0  0  0  0  0  0  0  0  0
   -1.2168   -5.6525    0.0000 H   0  0  0  0  0  0  0  0  0  0  0  0
   -1.2167   -6.7225    0.0000 H   0  0  0  0  0  0  0  0  0  0  0  0
    0.5022   -6.3100    0.0000 H   0  0  0  0  0  0  0  0  0  0  0  0
    0.7145   -4.2925    0.0000 H   0  0  0  0  0  0  0  0  0  0  0  0
   -0.2122   -5.8975    0.0000 H   0  0  0  0  0  0  0  0  0  0  0  0
   -0.2121   -4.8275    0.0000 H   0  0  0  0  0  0  0  0  0  0  0  0
    0.5023   -7.1350    0.0000 H   0  0  0  0  0  0  0  0  0  0  0  0
    2.3555   -7.1350    0.0000 H   0  0  0  0  0  0  0  0  0  0  0  0
    1.4289   -7.6700    0.0000 H   0  0  0  0  0  0  0  0  0  0  0  0
  1  2  1  0  0  0  0
  1 36  1  0  0  0  0
  1 37  1  0  0  0  0
  1 38  1  0  0  0  0
  2  3  1  0  0  0  0
  2  4  1  0  0  0  0
  2 39  1  0  0  0  0
  3 40  1  0  0  0  0
  3 41  1  0  0  0  0
  3 42  1  0  0  0  0
  4  5  2  0  0  0  0
  4  9  1  0  0  0  0
  5  6  1  0  0  0  0
  5 43  1  0  0  0  0
  6  7  2  0  0  0  0
  6 44  1  0  0  0  0
  7  8  1  0  0  0  0
  7 45  1  0  0  0  0
  8  9  2  0  0  0  0
  8 33  1  0  0  0  0
  9 10  1  0  0  0  0
 10 11  1  0  0  0  0
 11 12  2  0  0  0  0
 11 13  2  0  0  0  0
 11 14  1  0  0  0  0
 14 15  1  0  0  0  0
 14 46  1  0  0  0  0
 15 16  2  0  0  0  0
 15 17  1  0  0  0  0
 17 18  1  0  0  0  0
 17 47  1  0  0  0  0
 17 48  1  0  0  0  0
 18 19  2  0  0  0  0
 18 23  1  0  0  0  0
 19 20  1  0  0  0  0
 19 30  1  0  0  0  0
 20 21  2  0  0  0  0
 20 49  1  0  0  0  0
 21 22  1  0  0  0  0
 21 27  1  0  0  0  0
 22 23  2  0  0  0  0
 22 50  1  0  0  0  0
 23 24  1  0  0  0  0
 24 25  1  0  0  0  0
 24 26  1  0  0  0  0
 24 51  1  0  0  0  0
 25 52  1  0  0  0  0
 25 53  1  0  0  0  0
 25 54  1  0  0  0  0
 26 55  1  0  0  0  0
 26 56  1  0  0  0  0
 26 57  1  0  0  0  0
 27 28  1  0  0  0  0
 27 29  1  0  0  0  0
 27 58  1  0  0  0  0
 28 59  1  0  0  0  0
 28 60  1  0  0  0  0
 28 61  1  0  0  0  0
 29 62  1  0  0  0  0
 29 63  1  0  0  0  0
 29 64  1  0  0  0  0
 30 31  1  0  0  0  0
 30 32  1  0  0  0  0
 30 65  1  0  0  0  0
 31 66  1  0  0  0  0
 31 67  1  0  0  0  0
 31 68  1  0  0  0  0
 32 69  1  0  0  0  0
 32 70  1  0  0  0  0
 32 71  1  0  0  0  0
 33 34  1  0  0  0  0
 33 35  1  0  0  0  0
 33 72  1  0  0  0  0
 34 73  1  0  0  0  0
 34 74  1  0  0  0  0
 34 75  1  0  0  0  0
 35 76  1  0  0  0  0
 35 77  1  0  0  0  0
 35 78  1  0  0  0  0
M  END
>  <DRUGBANK_ID>
DB06442

>  <COMMON_NAME>
Avasimibe

>  <CAS_NUMBER>
166518-60-1

>  <UNII>
28LQ20T5RC

>  <SYNONYMS>
Avasimibe

$$$$
