3033968
 OpenBabel10282417072D

 49 52  0  0  1  0  0  0  0  0999 V2000
    6.6263    1.5550    0.0000 O   0  0  0  0  0  0  0  0  0  0  0  0
    1.6500   -1.9996    0.0000 O   0  0  0  0  0  0  0  0  0  0  0  0
    6.0993    0.5186    0.0000 C   0  0  2  0  0  0  0  0  0  0  0  0
    5.3849   -0.7189    0.0000 C   0  0  1  0  0  0  0  0  0  0  0  0
    6.0993   -0.3064    0.0000 C   0  0  2  0  0  0  0  0  0  0  0  0
    4.6703   -0.3064    0.0000 C   0  0  2  0  0  0  0  0  0  0  0  0
    5.3849    0.9311    0.0000 C   0  0  0  0  0  0  0  0  0  0  0  0
    4.6703    0.5186    0.0000 C   0  0  0  0  0  0  0  0  0  0  0  0
    3.9196   -0.7246    0.0000 C   0  0  2  0  0  0  0  0  0  0  0  0
    6.8799    0.7700    0.0000 C   0  0  2  0  0  0  0  0  0  0  0  0
    5.3981   -1.5782    0.0000 C   0  0  0  0  0  0  0  0  0  0  0  0
    6.0993    1.3436    0.0000 C   0  0  0  0  0  0  0  0  0  0  0  0
    6.8799   -0.5579    0.0000 C   0  0  0  0  0  0  0  0  0  0  0  0
    3.9130   -1.5839    0.0000 C   0  0  0  0  0  0  0  0  0  0  0  0
    4.6572   -2.0136    0.0000 C   0  0  0  0  0  0  0  0  0  0  0  0
    7.3614    0.1061    0.0000 C   0  0  0  0  0  0  0  0  0  0  0  0
    3.1550   -0.2592    0.0000 C   0  0  0  0  0  0  0  0  0  0  0  0
    5.3849    1.7561    0.0000 C   0  0  0  0  0  0  0  0  0  0  0  0
    2.3729   -0.6948    0.0000 C   0  0  0  0  0  0  0  0  0  0  0  0
    3.1413   -2.0374    0.0000 C   0  0  0  0  0  0  0  0  0  0  0  0
    7.5482    1.2538    0.0000 C   0  0  0  0  0  0  0  0  0  0  0  0
    2.3661   -1.5899    0.0000 C   0  0  0  0  0  0  0  0  0  0  0  0
    8.2165    1.7375    0.0000 C   0  0  0  0  0  0  0  0  0  0  0  0
    7.2766    2.2748    0.0000 H   0  0  0  0  0  0  0  0  0  0  0  0
    6.3156   -1.2467    0.0000 H   0  0  0  0  0  0  0  0  0  0  0  0
    6.9642    0.3236    0.0000 H   0  0  0  0  0  0  0  0  0  0  0  0
    5.5969    0.2286    0.0000 H   0  0  0  0  0  0  0  0  0  0  0  0
    5.3850    2.0011    0.0000 H   0  0  0  0  0  0  0  0  0  0  0  0
    4.4583    1.4662    0.0000 H   0  0  0  0  0  0  0  0  0  0  0  0
    3.7437    1.0536    0.0000 H   0  0  0  0  0  0  0  0  0  0  0  0
    4.6704    1.5886    0.0000 H   0  0  0  0  0  0  0  0  0  0  0  0
    3.9402    0.3452    0.0000 H   0  0  0  0  0  0  0  0  0  0  0  0
    6.3309   -2.1025    0.0000 H   0  0  0  0  0  0  0  0  0  0  0  0
    5.4084   -2.6482    0.0000 H   0  0  0  0  0  0  0  0  0  0  0  0
    7.0260    1.8786    0.0000 H   0  0  0  0  0  0  0  0  0  0  0  0
    6.0993    2.4136    0.0000 H   0  0  0  0  0  0  0  0  0  0  0  0
    7.2005   -1.5388    0.0000 H   0  0  0  0  0  0  0  0  0  0  0  0
    4.6613   -3.0836    0.0000 H   0  0  0  0  0  0  0  0  0  0  0  0
    3.7316   -2.5504    0.0000 H   0  0  0  0  0  0  0  0  0  0  0  0
    8.3934    0.1061    0.0000 H   0  0  0  0  0  0  0  0  0  0  0  0
    3.1757    0.8106    0.0000 H   0  0  0  0  0  0  0  0  0  0  0  0
    2.2378    0.2918    0.0000 H   0  0  0  0  0  0  0  0  0  0  0  0
    5.3849    2.8261    0.0000 H   0  0  0  0  0  0  0  0  0  0  0  0
    4.4582    1.2211    0.0000 H   0  0  0  0  0  0  0  0  0  0  0  0
    4.4583    2.2911    0.0000 H   0  0  0  0  0  0  0  0  0  0  0  0
    1.4525   -0.1492    0.0000 H   0  0  0  0  0  0  0  0  0  0  0  0
    1.4412   -1.2209    0.0000 H   0  0  0  0  0  0  0  0  0  0  0  0
    3.1453   -3.0694    0.0000 H   0  0  0  0  0  0  0  0  0  0  0  0
    9.0217    2.3203    0.0000 H   0  0  0  0  0  0  0  0  0  0  0  0
  1 24  1  0  0  0  0
  2 22  2  0  0  0  0
  3  5  1  0  0  0  0
  3  7  1  0  0  0  0
  3 10  1  0  0  0  0
  3 12  1  1  0  0  0
  4  5  1  0  0  0  0
  4  6  1  0  0  0  0
  4 11  1  0  0  0  0
  4 25  1  1  0  0  0
  5 13  1  0  0  0  0
  5 26  1  6  0  0  0
  6  8  1  0  0  0  0
  6  9  1  0  0  0  0
  6 27  1  6  0  0  0
  7  8  1  0  0  0  0
  7 28  1  0  0  0  0
  7 29  1  0  0  0  0
  8 30  1  0  0  0  0
  8 31  1  0  0  0  0
  9 14  1  0  0  0  0
  9 17  1  0  0  0  0
  9 32  1  1  0  0  0
 10  1  1  0  0  0  0
 10 16  1  0  0  0  0
 10 21  1  6  0  0  0
 11 15  1  0  0  0  0
 11 33  1  0  0  0  0
 11 34  1  0  0  0  0
 12 18  1  0  0  0  0
 12 35  1  0  0  0  0
 12 36  1  0  0  0  0
 13 16  2  0  0  0  0
 13 37  1  0  0  0  0
 14 15  1  0  0  0  0
 14 20  2  0  0  0  0
 15 38  1  0  0  0  0
 15 39  1  0  0  0  0
 16 40  1  0  0  0  0
 17 19  1  0  0  0  0
 17 41  1  0  0  0  0
 17 42  1  0  0  0  0
 18 43  1  0  0  0  0
 18 44  1  0  0  0  0
 18 45  1  0  0  0  0
 19 22  1  0  0  0  0
 19 46  1  0  0  0  0
 19 47  1  0  0  0  0
 20 22  1  0  0  0  0
 20 48  1  0  0  0  0
 21 23  3  0  0  0  0
 23 49  1  0  0  0  0
M  END
>  <DRUGBANK_ID>
DB06730

>  <COMMON_NAME>
Gestodene

>  <CAS_NUMBER>
60282-87-3

>  <UNII>
1664P6E6MI

>  <SYNONYMS>
Gestodene; Gestodeno; Gestodenum

$$$$
