279
 OpenBabel10282417072D

 35 36  0  0  1  0  0  0  0  0999 V2000
    4.9509    0.8250    0.0000 I   0  0  0  0  0  0  0  0  0  0  0  0
    2.0930    0.8250    0.0000 I   0  0  0  0  0  0  0  0  0  0  0  0
    6.3799    1.6500    0.0000 I   0  0  0  0  0  0  0  0  0  0  0  0
    3.5220    1.6500    0.0000 O   0  0  0  0  0  0  0  0  0  0  0  0
    2.0930   -3.3001    0.0000 O   0  0  0  0  0  0  0  0  0  0  0  0
    3.5220   -3.3001    0.0000 O   0  0  0  0  0  0  0  0  0  0  0  0
    6.3799    3.3001    0.0000 O   0  0  0  0  0  0  0  0  0  0  0  0
    2.0930   -1.6500    0.0000 N   0  0  0  0  0  0  0  0  0  0  0  0
    3.5220   -1.6500    0.0000 C   0  0  0  0  0  0  0  0  0  0  0  0
    2.8075   -2.0625    0.0000 C   0  0  1  0  0  0  0  0  0  0  0  0
    3.5220   -0.8250    0.0000 C   0  0  0  0  0  0  0  0  0  0  0  0
    2.8075   -0.4125    0.0000 C   0  0  0  0  0  0  0  0  0  0  0  0
    4.2365   -0.4125    0.0000 C   0  0  0  0  0  0  0  0  0  0  0  0
    3.5220    0.8250    0.0000 C   0  0  0  0  0  0  0  0  0  0  0  0
    4.2365    0.4125    0.0000 C   0  0  0  0  0  0  0  0  0  0  0  0
    2.8075    0.4125    0.0000 C   0  0  0  0  0  0  0  0  0  0  0  0
    2.8075   -2.8876    0.0000 C   0  0  0  0  0  0  0  0  0  0  0  0
    4.2365    2.0625    0.0000 C   0  0  0  0  0  0  0  0  0  0  0  0
    4.9509    1.6500    0.0000 C   0  0  0  0  0  0  0  0  0  0  0  0
    4.2365    2.8876    0.0000 C   0  0  0  0  0  0  0  0  0  0  0  0
    5.6655    2.0625    0.0000 C   0  0  0  0  0  0  0  0  0  0  0  0
    4.9509    3.3001    0.0000 C   0  0  0  0  0  0  0  0  0  0  0  0
    5.6655    2.8876    0.0000 C   0  0  0  0  0  0  0  0  0  0  0  0
    1.2815   -2.8316    0.0000 H   0  0  0  0  0  0  0  0  0  0  0  0
    7.1914    2.8316    0.0000 H   0  0  0  0  0  0  0  0  0  0  0  0
    2.0930   -0.6300    0.0000 H   0  0  0  0  0  0  0  0  0  0  0  0
    1.2097   -2.1600    0.0000 H   0  0  0  0  0  0  0  0  0  0  0  0
    4.4486   -2.1850    0.0000 H   0  0  0  0  0  0  0  0  0  0  0  0
    4.4486   -1.1150    0.0000 H   0  0  0  0  0  0  0  0  0  0  0  0
    2.8075   -0.9925    0.0000 H   0  0  0  0  0  0  0  0  0  0  0  0
    1.9138   -0.9285    0.0000 H   0  0  0  0  0  0  0  0  0  0  0  0
    5.1302   -0.9285    0.0000 H   0  0  0  0  0  0  0  0  0  0  0  0
    4.9508    0.6180    0.0000 H   0  0  0  0  0  0  0  0  0  0  0  0
    3.3428    3.4036    0.0000 H   0  0  0  0  0  0  0  0  0  0  0  0
    4.9508    4.3321    0.0000 H   0  0  0  0  0  0  0  0  0  0  0  0
  1 15  1  0  0  0  0
  2 16  1  0  0  0  0
  3 21  1  0  0  0  0
  4 14  1  0  0  0  0
  4 18  1  0  0  0  0
  5 17  1  0  0  0  0
  5 24  1  0  0  0  0
  6 17  2  0  0  0  0
  7 23  1  0  0  0  0
  7 25  1  0  0  0  0
  8 26  1  0  0  0  0
  8 27  1  0  0  0  0
  9 10  1  0  0  0  0
  9 11  1  0  0  0  0
  9 28  1  0  0  0  0
  9 29  1  0  0  0  0
 10  8  1  0  0  0  0
 10 17  1  0  0  0  0
 10 30  1  6  0  0  0
 11 12  2  0  0  0  0
 11 13  1  0  0  0  0
 12 16  1  0  0  0  0
 12 31  1  0  0  0  0
 13 15  2  0  0  0  0
 13 32  1  0  0  0  0
 14 15  1  0  0  0  0
 14 16  2  0  0  0  0
 18 19  2  0  0  0  0
 18 20  1  0  0  0  0
 19 21  1  0  0  0  0
 19 33  1  0  0  0  0
 20 22  2  0  0  0  0
 20 34  1  0  0  0  0
 21 23  2  0  0  0  0
 22 23  1  0  0  0  0
 22 35  1  0  0  0  0
M  END
>  <DRUGBANK_ID>
DB00279

>  <SECONDARY_ACCESSION_NUMBERS>
APRD01074

>  <COMMON_NAME>
Liothyronine

>  <CAS_NUMBER>
6893-02-3

>  <UNII>
06LU7C9H1V

>  <SYNONYMS>
3,3',5-triiodo-L-thyronine; 3,5,3'-Triiodo-L-thyronine; 3,5,3'-Triiodothyronine; 4-(4-hydroxy-3-iodophenoxy)-3,5-diiodo-L-phenylalanine; L-3,5,3'-Triiodothyronine; L-T3; Liothyronine; Liothyroninum; Liotironina; O-(4-hydroxy-3-iodophenyl)-3,5-diiodo-L-tyrosine; T3; Triiodothyronine

$$$$
