NAR
 OpenBabel10282417072D

 32 34  0  0  0  0  0  0  0  0999 V2000
   -1.7854    0.4721    0.0000 C   0  0  0  0  0  0  0  0  0  0  0  0
   -2.4999    0.0596    0.0000 C   0  0  0  0  0  0  0  0  0  0  0  0
   -2.4999   -0.7654    0.0000 C   0  0  0  0  0  0  0  0  0  0  0  0
   -1.7854   -1.1779    0.0000 C   0  0  0  0  0  0  0  0  0  0  0  0
   -1.0710   -0.7654    0.0000 C   0  0  0  0  0  0  0  0  0  0  0  0
   -1.0710    0.0596    0.0000 C   0  0  0  0  0  0  0  0  0  0  0  0
   -0.3565   -1.1779    0.0000 C   0  0  0  0  0  0  0  0  0  0  0  0
    0.3580   -0.7654    0.0000 C   0  0  0  0  0  0  0  0  0  0  0  0
    0.3580    0.0596    0.0000 C   0  0  2  0  0  0  0  0  0  0  0  0
   -0.3565    0.4721    0.0000 O   0  0  0  0  0  0  0  0  0  0  0  0
   -0.3565   -2.0029    0.0000 O   0  0  0  0  0  0  0  0  0  0  0  0
    1.0725    0.4721    0.0000 C   0  0  0  0  0  0  0  0  0  0  0  0
    1.0725    1.2971    0.0000 C   0  0  0  0  0  0  0  0  0  0  0  0
    1.7869    1.7096    0.0000 C   0  0  0  0  0  0  0  0  0  0  0  0
    2.5014    1.2971    0.0000 C   0  0  0  0  0  0  0  0  0  0  0  0
    2.5014    0.4721    0.0000 C   0  0  0  0  0  0  0  0  0  0  0  0
    1.7869    0.0596    0.0000 C   0  0  0  0  0  0  0  0  0  0  0  0
    3.2159    1.7096    0.0000 O   0  0  0  0  0  0  0  0  0  0  0  0
   -3.2144    0.4721    0.0000 O   0  0  0  0  0  0  0  0  0  0  0  0
   -1.7854   -2.0029    0.0000 O   0  0  0  0  0  0  0  0  0  0  0  0
    0.8637   -0.2323    0.0000 H   0  0  0  0  0  0  0  0  0  0  0  0
   -1.7854    1.5041    0.0000 H   0  0  0  0  0  0  0  0  0  0  0  0
   -3.3936   -1.2814    0.0000 H   0  0  0  0  0  0  0  0  0  0  0  0
    1.2846   -1.3004    0.0000 H   0  0  0  0  0  0  0  0  0  0  0  0
    1.2846   -0.2304    0.0000 H   0  0  0  0  0  0  0  0  0  0  0  0
    0.1788    1.8131    0.0000 H   0  0  0  0  0  0  0  0  0  0  0  0
    1.7869    2.7416    0.0000 H   0  0  0  0  0  0  0  0  0  0  0  0
    3.3951   -0.0439    0.0000 H   0  0  0  0  0  0  0  0  0  0  0  0
    1.7869   -0.9724    0.0000 H   0  0  0  0  0  0  0  0  0  0  0  0
    4.0274    1.2411    0.0000 H   0  0  0  0  0  0  0  0  0  0  0  0
   -3.2144    1.4091    0.0000 H   0  0  0  0  0  0  0  0  0  0  0  0
   -2.5969   -2.4714    0.0000 H   0  0  0  0  0  0  0  0  0  0  0  0
  1  2  2  0  0  0  0
  1  6  1  0  0  0  0
  1 22  1  0  0  0  0
  2  3  1  0  0  0  0
  2 19  1  0  0  0  0
  3  4  2  0  0  0  0
  3 23  1  0  0  0  0
  4  5  1  0  0  0  0
  4 20  1  0  0  0  0
  5  6  2  0  0  0  0
  5  7  1  0  0  0  0
  6 10  1  0  0  0  0
  7  8  1  0  0  0  0
  7 11  2  0  0  0  0
  8  9  1  0  0  0  0
  8 24  1  0  0  0  0
  8 25  1  0  0  0  0
  9 10  1  0  0  0  0
  9 12  1  0  0  0  0
  9 21  1  1  0  0  0
 12 13  1  0  0  0  0
 12 17  2  0  0  0  0
 13 14  2  0  0  0  0
 13 26  1  0  0  0  0
 14 15  1  0  0  0  0
 14 27  1  0  0  0  0
 15 16  2  0  0  0  0
 15 18  1  0  0  0  0
 16 17  1  0  0  0  0
 16 28  1  0  0  0  0
 17 29  1  0  0  0  0
 18 30  1  0  0  0  0
 19 31  1  0  0  0  0
 20 32  1  0  0  0  0
M  END
>  <DRUGBANK_ID>
DB03467

>  <SECONDARY_ACCESSION_NUMBERS>
EXPT02295

>  <COMMON_NAME>
Naringenin

>  <CAS_NUMBER>
480-41-1

>  <UNII>
HN5425SBF2

$$$$
