
 OpenBabel10282417072D

 79 82  0  0  0  0  0  0  0  0999 V2000
    0.8838   -2.1500    0.0000 C   0  0  0  0  0  0  0  0  0  0  0  0
    1.1387   -1.3654    0.0000 N   0  0  0  0  0  0  0  0  0  0  0  0
    0.6538   -0.6979    0.0000 C   0  0  0  0  0  0  0  0  0  0  0  0
   -0.1712   -0.6979    0.0000 N   0  0  0  0  0  0  0  0  0  0  0  0
   -0.5837    0.0165    0.0000 C   0  0  0  0  0  0  0  0  0  0  0  0
   -1.4087    0.0165    0.0000 C   0  0  0  0  0  0  0  0  0  0  0  0
   -1.8212   -0.6979    0.0000 Cl  0  0  0  0  0  0  0  0  0  0  0  0
   -1.8212    0.7310    0.0000 C   0  0  0  0  0  0  0  0  0  0  0  0
   -1.4087    1.4455    0.0000 C   0  0  0  0  0  0  0  0  0  0  0  0
   -0.5837    1.4455    0.0000 C   0  0  0  0  0  0  0  0  0  0  0  0
   -0.1712    2.1599    0.0000 C   0  0  0  0  0  0  0  0  0  0  0  0
   -0.5837    2.8744    0.0000 N   0  0  0  0  0  0  0  0  0  0  0  0
   -0.1712    3.5889    0.0000 C   0  0  0  0  0  0  0  0  0  0  0  0
    0.6538    3.5889    0.0000 O   0  0  0  0  0  0  0  0  0  0  0  0
   -0.5837    4.3034    0.0000 C   0  0  0  0  0  0  0  0  0  0  0  0
   -0.9962    5.0178    0.0000 C   0  0  0  0  0  0  0  0  0  0  0  0
   -1.2982    3.8909    0.0000 C   0  0  0  0  0  0  0  0  0  0  0  0
    0.1308    4.7159    0.0000 C   0  0  0  0  0  0  0  0  0  0  0  0
   -0.1712    0.7310    0.0000 C   0  0  0  0  0  0  0  0  0  0  0  0
    0.6538    0.7310    0.0000 Cl  0  0  0  0  0  0  0  0  0  0  0  0
    1.1387   -0.0305    0.0000 N   0  0  0  0  0  0  0  0  0  0  0  0
    1.9233   -0.2854    0.0000 C   0  0  0  0  0  0  0  0  0  0  0  0
    2.6378    0.1271    0.0000 C   0  0  0  0  0  0  0  0  0  0  0  0
    3.3523   -0.2854    0.0000 C   0  0  0  0  0  0  0  0  0  0  0  0
    4.0668    0.1271    0.0000 C   0  0  0  0  0  0  0  0  0  0  0  0
    4.7812   -0.2854    0.0000 O   0  0  0  0  0  0  0  0  0  0  0  0
    4.0668    0.9521    0.0000 N   0  0  0  0  0  0  0  0  0  0  0  0
    4.7812    1.3646    0.0000 C   0  0  1  0  0  0  0  0  0  0  0  0
    4.7812    2.1896    0.0000 C   0  0  0  0  0  0  0  0  0  0  0  0
    5.4957    2.6021    0.0000 C   0  0  0  0  0  0  0  0  0  0  0  0
    6.2102    2.1896    0.0000 C   0  0  1  0  0  0  0  0  0  0  0  0
    6.2102    1.3646    0.0000 C   0  0  0  0  0  0  0  0  0  0  0  0
    5.4957    0.9521    0.0000 C   0  0  0  0  0  0  0  0  0  0  0  0
    6.9246    2.6021    0.0000 C   0  0  0  0  0  0  0  0  0  0  0  0
    7.6391    3.0146    0.0000 F   0  0  0  0  0  0  0  0  0  0  0  0
    7.3371    1.8876    0.0000 F   0  0  0  0  0  0  0  0  0  0  0  0
    6.5121    3.3165    0.0000 F   0  0  0  0  0  0  0  0  0  0  0  0
    3.3523   -1.1104    0.0000 C   0  0  0  0  0  0  0  0  0  0  0  0
    4.0668   -1.5229    0.0000 O   0  0  0  0  0  0  0  0  0  0  0  0
    4.0668   -2.3479    0.0000 C   0  0  0  0  0  0  0  0  0  0  0  0
    3.3523   -2.7604    0.0000 C   0  0  0  0  0  0  0  0  0  0  0  0
    3.3523   -3.5854    0.0000 F   0  0  0  0  0  0  0  0  0  0  0  0
    2.6378   -2.3479    0.0000 F   0  0  0  0  0  0  0  0  0  0  0  0
    2.6378   -1.5229    0.0000 C   0  0  0  0  0  0  0  0  0  0  0  0
    1.9233   -1.1104    0.0000 C   0  0  0  0  0  0  0  0  0  0  0  0
   -0.1628   -2.3725    0.0000 H   0  0  0  0  0  0  0  0  0  0  0  0
    1.5998   -2.9451    0.0000 H   0  0  0  0  0  0  0  0  0  0  0  0
    0.5532   -3.1676    0.0000 H   0  0  0  0  0  0  0  0  0  0  0  0
   -0.6634   -1.5505    0.0000 H   0  0  0  0  0  0  0  0  0  0  0  0
   -2.8532    0.7310    0.0000 H   0  0  0  0  0  0  0  0  0  0  0  0
   -1.9247    2.3392    0.0000 H   0  0  0  0  0  0  0  0  0  0  0  0
    0.8988    2.1599    0.0000 H   0  0  0  0  0  0  0  0  0  0  0  0
    0.3638    3.0865    0.0000 H   0  0  0  0  0  0  0  0  0  0  0  0
   -1.5682    2.8744    0.0000 H   0  0  0  0  0  0  0  0  0  0  0  0
   -0.4612    5.9445    0.0000 H   0  0  0  0  0  0  0  0  0  0  0  0
   -2.0662    5.0178    0.0000 H   0  0  0  0  0  0  0  0  0  0  0  0
   -1.5312    5.9444    0.0000 H   0  0  0  0  0  0  0  0  0  0  0  0
   -2.2248    4.4259    0.0000 H   0  0  0  0  0  0  0  0  0  0  0  0
   -1.2982    2.8209    0.0000 H   0  0  0  0  0  0  0  0  0  0  0  0
   -2.2249    3.3559    0.0000 H   0  0  0  0  0  0  0  0  0  0  0  0
    1.0574    4.1809    0.0000 H   0  0  0  0  0  0  0  0  0  0  0  0
    0.1308    5.7859    0.0000 H   0  0  0  0  0  0  0  0  0  0  0  0
    1.0575    5.2509    0.0000 H   0  0  0  0  0  0  0  0  0  0  0  0
    2.6378    1.1591    0.0000 H   0  0  0  0  0  0  0  0  0  0  0  0
    3.2142    1.4443    0.0000 H   0  0  0  0  0  0  0  0  0  0  0  0
    3.8545    1.8996    0.0000 H   0  0  0  0  0  0  0  0  0  0  0  0
    3.8546    2.7246    0.0000 H   0  0  0  0  0  0  0  0  0  0  0  0
    4.7812    3.2596    0.0000 H   0  0  0  0  0  0  0  0  0  0  0  0
    5.4957    3.6721    0.0000 H   0  0  0  0  0  0  0  0  0  0  0  0
    6.4223    3.1371    0.0000 H   0  0  0  0  0  0  0  0  0  0  0  0
    6.2102    3.2596    0.0000 H   0  0  0  0  0  0  0  0  0  0  0  0
    7.1368    0.8296    0.0000 H   0  0  0  0  0  0  0  0  0  0  0  0
    6.2102    0.2946    0.0000 H   0  0  0  0  0  0  0  0  0  0  0  0
    5.4957   -0.1179    0.0000 H   0  0  0  0  0  0  0  0  0  0  0  0
    4.5691    0.4171    0.0000 H   0  0  0  0  0  0  0  0  0  0  0  0
    4.9934   -2.8829    0.0000 H   0  0  0  0  0  0  0  0  0  0  0  0
    4.0668   -3.4179    0.0000 H   0  0  0  0  0  0  0  0  0  0  0  0
    2.4257   -3.2954    0.0000 H   0  0  0  0  0  0  0  0  0  0  0  0
    2.6378   -2.5549    0.0000 H   0  0  0  0  0  0  0  0  0  0  0  0
  1  2  1  0  0  0  0
  1 46  1  0  0  0  0
  1 47  1  0  0  0  0
  1 48  1  0  0  0  0
  2  3  1  0  0  0  0
  2 45  1  0  0  0  0
  3  4  1  0  0  0  0
  3 21  2  0  0  0  0
  4  5  1  0  0  0  0
  4 49  1  0  0  0  0
  5  6  2  0  0  0  0
  5 19  1  0  0  0  0
  6  7  1  0  0  0  0
  6  8  1  0  0  0  0
  8  9  2  0  0  0  0
  8 50  1  0  0  0  0
  9 10  1  0  0  0  0
  9 51  1  0  0  0  0
 10 11  1  0  0  0  0
 10 19  2  0  0  0  0
 11 12  1  0  0  0  0
 11 52  1  0  0  0  0
 11 53  1  0  0  0  0
 12 13  1  0  0  0  0
 12 54  1  0  0  0  0
 13 14  2  0  0  0  0
 13 15  1  0  0  0  0
 15 16  1  0  0  0  0
 15 17  1  0  0  0  0
 15 18  1  0  0  0  0
 16 55  1  0  0  0  0
 16 56  1  0  0  0  0
 16 57  1  0  0  0  0
 17 58  1  0  0  0  0
 17 59  1  0  0  0  0
 17 60  1  0  0  0  0
 18 61  1  0  0  0  0
 18 62  1  0  0  0  0
 18 63  1  0  0  0  0
 19 20  1  0  0  0  0
 21 22  1  0  0  0  0
 22 23  2  0  0  0  0
 22 45  1  0  0  0  0
 23 24  1  0  0  0  0
 23 64  1  0  0  0  0
 24 25  1  0  0  0  0
 24 38  2  0  0  0  0
 25 26  2  0  0  0  0
 25 27  1  0  0  0  0
 27 65  1  0  0  0  0
 28 27  1  0  0  0  0
 28 29  1  0  0  0  0
 28 33  1  0  0  0  0
 28 66  1  6  0  0  0
 29 30  1  0  0  0  0
 29 67  1  0  0  0  0
 29 68  1  0  0  0  0
 30 69  1  0  0  0  0
 30 70  1  0  0  0  0
 31 30  1  0  0  0  0
 31 32  1  0  0  0  0
 31 34  1  0  0  0  0
 31 71  1  1  0  0  0
 32 33  1  0  0  0  0
 32 72  1  0  0  0  0
 32 73  1  0  0  0  0
 33 74  1  0  0  0  0
 33 75  1  0  0  0  0
 34 35  1  0  0  0  0
 34 36  1  0  0  0  0
 34 37  1  0  0  0  0
 38 39  1  0  0  0  0
 38 44  1  0  0  0  0
 39 40  1  0  0  0  0
 40 41  1  0  0  0  0
 40 76  1  0  0  0  0
 40 77  1  0  0  0  0
 41 42  1  0  0  0  0
 41 43  1  0  0  0  0
 41 78  1  0  0  0  0
 44 45  2  0  0  0  0
 44 79  1  0  0  0  0
M  END
>  <DRUGBANK_ID>
DB18126

>  <COMMON_NAME>
Vipoglanstat

>  <CAS_NUMBER>
1360622-01-0

>  <UNII>
FN57BDR4DA

>  <SYNONYMS>
2-{2,6-Dichloro-3-[(2,2-dimethyl-propionylamino)-methyl]-phenylamino}-6-(2,2-difluoroethoxy)-1-methyl-1H-benzoimidazole-5-carboxylic acid (trans-4-trifluoromethylcyclohexyl)-amide

$$$$
