
 OpenBabel10282417072D

 97100  0  0  1  0  0  0  0  0999 V2000
    2.8579   -7.4250    0.0000 C   0  0  0  0  0  0  0  0  0  0  0  0
   -6.4302   -3.7125    0.0000 C   0  0  0  0  0  0  0  0  0  0  0  0
   -6.4302   -4.5375    0.0000 C   0  0  0  0  0  0  0  0  0  0  0  0
    4.2868   -3.3000    0.0000 C   0  0  0  0  0  0  0  0  0  0  0  0
    5.7158   -5.7750    0.0000 C   0  0  0  0  0  0  0  0  0  0  0  0
    5.7158   -4.9500    0.0000 C   0  0  0  0  0  0  0  0  0  0  0  0
    2.1434   -7.0125    0.0000 C   0  0  0  0  0  0  0  0  0  0  0  0
    1.4289   -3.3000    0.0000 C   0  0  0  0  0  0  0  0  0  0  0  0
    2.1434   -3.7125    0.0000 C   0  0  0  0  0  0  0  0  0  0  0  0
   -0.7145   -7.0125    0.0000 C   0  0  0  0  0  0  0  0  0  0  0  0
   -0.7145   -6.1875    0.0000 C   0  0  0  0  0  0  0  0  0  0  0  0
   -1.4289   -7.4250    0.0000 C   0  0  0  0  0  0  0  0  0  0  0  0
    0.7145   -3.7125    0.0000 C   0  0  0  0  0  0  0  0  0  0  0  0
   -2.8579   -4.9500    0.0000 C   0  0  0  0  0  0  0  0  0  0  0  0
   -3.5724   -3.7125    0.0000 C   0  0  0  0  0  0  0  0  0  0  0  0
   -2.1434   -4.5375    0.0000 C   0  0  0  0  0  0  0  0  0  0  0  0
   -4.2868   -3.3000    0.0000 C   0  0  0  0  0  0  0  0  0  0  0  0
    2.1434   -4.5375    0.0000 C   0  0  0  0  0  0  0  0  0  0  0  0
   -4.2868   -4.9500    0.0000 C   0  0  0  0  0  0  0  0  0  0  0  0
   -2.1434   -6.1875    0.0000 C   0  0  0  0  0  0  0  0  0  0  0  0
    2.8579   -4.9500    0.0000 C   0  0  0  0  0  0  0  0  0  0  0  0
    3.5724   -6.1875    0.0000 C   0  0  0  0  0  0  0  0  0  0  0  0
   -2.8579   -8.2500    0.0000 C   0  0  0  0  0  0  0  0  0  0  0  0
   -3.5724   -4.5375    0.0000 C   0  0  0  0  0  0  0  0  0  0  0  0
   -1.4289   -5.7750    0.0000 C   0  0  0  0  0  0  0  0  0  0  0  0
    2.8579   -5.7750    0.0000 C   0  0  0  0  0  0  0  0  0  0  0  0
   -2.1434   -7.0125    0.0000 C   0  0  0  0  0  0  0  0  0  0  0  0
    2.1434   -6.1875    0.0000 C   0  0  1  0  0  0  0  0  0  0  0  0
    0.7145   -4.5375    0.0000 C   0  0  1  0  0  0  0  0  0  0  0  0
   -1.4289   -4.9500    0.0000 C   0  0  2  0  0  0  0  0  0  0  0  0
   -5.0013   -3.7125    0.0000 C   0  0  0  0  0  0  0  0  0  0  0  0
   -5.0013   -4.5375    0.0000 C   0  0  0  0  0  0  0  0  0  0  0  0
    3.5724   -4.5375    0.0000 C   0  0  0  0  0  0  0  0  0  0  0  0
    4.2868   -5.7750    0.0000 C   0  0  0  0  0  0  0  0  0  0  0  0
   -3.5724   -8.6625    0.0000 C   0  0  0  0  0  0  0  0  0  0  0  0
    4.2868   -4.9500    0.0000 C   0  0  0  0  0  0  0  0  0  0  0  0
    1.4289   -5.7750    0.0000 C   0  0  0  0  0  0  0  0  0  0  0  0
    0.0000   -4.9500    0.0000 C   0  0  0  0  0  0  0  0  0  0  0  0
    1.4289   -4.9500    0.0000 N   0  0  0  0  0  0  0  0  0  0  0  0
   -3.5724   -9.4875    0.0000 O   0  0  0  0  0  0  0  0  0  0  0  0
   -4.2868   -8.2500    0.0000 O   0  0  0  0  0  0  0  0  0  0  0  0
    0.7145   -6.1875    0.0000 O   0  0  0  0  0  0  0  0  0  0  0  0
    0.0000   -5.7750    0.0000 O   0  0  0  0  0  0  0  0  0  0  0  0
   -5.7158   -3.3000    0.0000 O   0  0  0  0  0  0  0  0  0  0  0  0
   -5.7158   -4.9500    0.0000 O   0  0  0  0  0  0  0  0  0  0  0  0
    3.5724   -3.7125    0.0000 O   0  0  0  0  0  0  0  0  0  0  0  0
    5.0013   -6.1875    0.0000 O   0  0  0  0  0  0  0  0  0  0  0  0
    5.0013   -4.5375    0.0000 O   0  0  0  0  0  0  0  0  0  0  0  0
   -2.8579   -7.4250    0.0000 O   0  0  0  0  0  0  0  0  0  0  0  0
   -0.7145   -4.5375    0.0000 O   0  0  0  0  0  0  0  0  0  0  0  0
    2.8579   -6.6000    0.0000 H   0  0  0  0  0  0  0  0  0  0  0  0
    0.0000   -4.1250    0.0000 H   0  0  0  0  0  0  0  0  0  0  0  0
   -2.1434   -5.3625    0.0000 H   0  0  0  0  0  0  0  0  0  0  0  0
    2.8579   -8.4950    0.0000 H   0  0  0  0  0  0  0  0  0  0  0  0
    3.7845   -6.8900    0.0000 H   0  0  0  0  0  0  0  0  0  0  0  0
    3.7846   -7.9600    0.0000 H   0  0  0  0  0  0  0  0  0  0  0  0
   -7.3569   -3.1775    0.0000 H   0  0  0  0  0  0  0  0  0  0  0  0
   -6.4302   -4.7825    0.0000 H   0  0  0  0  0  0  0  0  0  0  0  0
   -7.3568   -4.2475    0.0000 H   0  0  0  0  0  0  0  0  0  0  0  0
   -6.4302   -3.4675    0.0000 H   0  0  0  0  0  0  0  0  0  0  0  0
   -7.3569   -5.0725    0.0000 H   0  0  0  0  0  0  0  0  0  0  0  0
   -7.3568   -4.0025    0.0000 H   0  0  0  0  0  0  0  0  0  0  0  0
    5.2135   -3.8350    0.0000 H   0  0  0  0  0  0  0  0  0  0  0  0
    4.2868   -2.2300    0.0000 H   0  0  0  0  0  0  0  0  0  0  0  0
    5.2134   -2.7650    0.0000 H   0  0  0  0  0  0  0  0  0  0  0  0
    6.6424   -6.3100    0.0000 H   0  0  0  0  0  0  0  0  0  0  0  0
    5.7158   -4.7050    0.0000 H   0  0  0  0  0  0  0  0  0  0  0  0
    6.6425   -5.2400    0.0000 H   0  0  0  0  0  0  0  0  0  0  0  0
    5.7158   -6.0200    0.0000 H   0  0  0  0  0  0  0  0  0  0  0  0
    6.6424   -4.4150    0.0000 H   0  0  0  0  0  0  0  0  0  0  0  0
    6.6425   -5.4850    0.0000 H   0  0  0  0  0  0  0  0  0  0  0  0
    1.2168   -7.5475    0.0000 H   0  0  0  0  0  0  0  0  0  0  0  0
    1.2168   -6.4775    0.0000 H   0  0  0  0  0  0  0  0  0  0  0  0
    1.4289   -2.2300    0.0000 H   0  0  0  0  0  0  0  0  0  0  0  0
    0.5022   -2.7650    0.0000 H   0  0  0  0  0  0  0  0  0  0  0  0
    3.0700   -3.1775    0.0000 H   0  0  0  0  0  0  0  0  0  0  0  0
    3.0700   -4.2475    0.0000 H   0  0  0  0  0  0  0  0  0  0  0  0
    0.1792   -7.5285    0.0000 H   0  0  0  0  0  0  0  0  0  0  0  0
    0.1792   -5.6715    0.0000 H   0  0  0  0  0  0  0  0  0  0  0  0
   -1.4289   -8.4570    0.0000 H   0  0  0  0  0  0  0  0  0  0  0  0
   -0.2122   -3.1775    0.0000 H   0  0  0  0  0  0  0  0  0  0  0  0
   -0.2121   -4.2475    0.0000 H   0  0  0  0  0  0  0  0  0  0  0  0
   -2.8579   -6.0200    0.0000 H   0  0  0  0  0  0  0  0  0  0  0  0
   -3.7845   -5.4850    0.0000 H   0  0  0  0  0  0  0  0  0  0  0  0
   -2.6787   -3.1965    0.0000 H   0  0  0  0  0  0  0  0  0  0  0  0
   -2.1434   -3.4675    0.0000 H   0  0  0  0  0  0  0  0  0  0  0  0
   -1.2168   -4.0025    0.0000 H   0  0  0  0  0  0  0  0  0  0  0  0
   -4.2868   -2.2680    0.0000 H   0  0  0  0  0  0  0  0  0  0  0  0
    3.0700   -5.0725    0.0000 H   0  0  0  0  0  0  0  0  0  0  0  0
    2.1434   -5.6075    0.0000 H   0  0  0  0  0  0  0  0  0  0  0  0
   -4.2868   -5.9820    0.0000 H   0  0  0  0  0  0  0  0  0  0  0  0
   -3.0371   -5.6715    0.0000 H   0  0  0  0  0  0  0  0  0  0  0  0
    1.9642   -4.4340    0.0000 H   0  0  0  0  0  0  0  0  0  0  0  0
    3.5724   -7.2195    0.0000 H   0  0  0  0  0  0  0  0  0  0  0  0
   -1.9313   -8.7850    0.0000 H   0  0  0  0  0  0  0  0  0  0  0  0
   -1.9313   -7.7150    0.0000 H   0  0  0  0  0  0  0  0  0  0  0  0
   -4.2868   -7.3130    0.0000 H   0  0  0  0  0  0  0  0  0  0  0  0
  1 54  1  0  0  0  0
  1 55  1  0  0  0  0
  1 56  1  0  0  0  0
  2 57  1  0  0  0  0
  2 58  1  0  0  0  0
  2 59  1  0  0  0  0
  3 60  1  0  0  0  0
  3 61  1  0  0  0  0
  3 62  1  0  0  0  0
  4 63  1  0  0  0  0
  4 64  1  0  0  0  0
  4 65  1  0  0  0  0
  5 66  1  0  0  0  0
  5 67  1  0  0  0  0
  5 68  1  0  0  0  0
  6 69  1  0  0  0  0
  6 70  1  0  0  0  0
  6 71  1  0  0  0  0
  7  1  1  0  0  0  0
  7 72  1  0  0  0  0
  7 73  1  0  0  0  0
  8 74  1  0  0  0  0
  8 75  1  0  0  0  0
  9  8  1  0  0  0  0
  9 76  1  0  0  0  0
  9 77  1  0  0  0  0
 10 78  1  0  0  0  0
 11 10  2  0  0  0  0
 11 79  1  0  0  0  0
 12 10  1  0  0  0  0
 12 80  1  0  0  0  0
 13  8  1  0  0  0  0
 13 81  1  0  0  0  0
 13 82  1  0  0  0  0
 14 83  1  0  0  0  0
 14 84  1  0  0  0  0
 15 85  1  0  0  0  0
 16 14  1  0  0  0  0
 16 86  1  0  0  0  0
 16 87  1  0  0  0  0
 17 15  2  0  0  0  0
 17 88  1  0  0  0  0
 18  9  1  0  0  0  0
 18 89  1  0  0  0  0
 18 90  1  0  0  0  0
 19 91  1  0  0  0  0
 20 92  1  0  0  0  0
 21 93  1  0  0  0  0
 22 94  1  0  0  0  0
 23 95  1  0  0  0  0
 23 96  1  0  0  0  0
 24 14  1  0  0  0  0
 24 15  1  0  0  0  0
 24 19  2  0  0  0  0
 25 11  1  0  0  0  0
 25 20  2  0  0  0  0
 26 21  2  0  0  0  0
 26 22  1  0  0  0  0
 27 12  2  0  0  0  0
 27 20  1  0  0  0  0
 28  7  1  0  0  0  0
 28 26  1  0  0  0  0
 28 37  1  0  0  0  0
 28 51  1  1  0  0  0
 29 13  1  0  0  0  0
 29 38  1  0  0  0  0
 29 52  1  1  0  0  0
 30 16  1  0  0  0  0
 30 25  1  0  0  0  0
 30 50  1  0  0  0  0
 30 53  1  6  0  0  0
 31 17  1  0  0  0  0
 32 19  1  0  0  0  0
 32 31  2  0  0  0  0
 33 21  1  0  0  0  0
 34 22  2  0  0  0  0
 35 23  1  0  0  0  0
 36 33  2  0  0  0  0
 36 34  1  0  0  0  0
 39 18  1  0  0  0  0
 39 29  1  0  0  0  0
 39 37  1  0  0  0  0
 40 35  2  0  0  0  0
 41 35  1  0  0  0  0
 41 97  1  0  0  0  0
 42 37  2  0  0  0  0
 43 38  2  0  0  0  0
 44  2  1  0  0  0  0
 44 31  1  0  0  0  0
 45  3  1  0  0  0  0
 45 32  1  0  0  0  0
 46  4  1  0  0  0  0
 46 33  1  0  0  0  0
 47  5  1  0  0  0  0
 47 34  1  0  0  0  0
 48  6  1  0  0  0  0
 48 36  1  0  0  0  0
 49 23  1  0  0  0  0
 49 27  1  0  0  0  0
 50 38  1  0  0  0  0
M  END
>  <DRUGBANK_ID>
DB01723

>  <SECONDARY_ACCESSION_NUMBERS>
EXPT00532

>  <COMMON_NAME>
{3-[3-(3,4-Dimethoxy-Phenyl)-1-(1-{1-[2-(3,4,5-Trimethoxy-Phenyl)-Butyryl]-Piperidin-2yl}-Vinyloxy)-Propyl]-Phenoxy}-Acetic Acid

$$$$
