
 OpenBabel10282417072D

 44 44  0  0  0  0  0  0  0  0999 V2000
    2.8578    1.8562    0.0000 C   0  0  0  0  0  0  0  0  0  0  0  0
    1.4289    1.8562    0.0000 C   0  0  0  0  0  0  0  0  0  0  0  0
    2.1434   -1.8562    0.0000 C   0  0  0  0  0  0  0  0  0  0  0  0
   -2.8578    0.2062    0.0000 C   0  0  0  0  0  0  0  0  0  0  0  0
    2.8578   -0.6187    0.0000 C   0  0  0  0  0  0  0  0  0  0  0  0
    2.8578    0.2062    0.0000 C   0  0  0  0  0  0  0  0  0  0  0  0
    1.4289   -0.6187    0.0000 C   0  0  0  0  0  0  0  0  0  0  0  0
   -1.4289    0.2062    0.0000 C   0  0  0  0  0  0  0  0  0  0  0  0
    2.1434    1.4437    0.0000 C   0  0  0  0  0  0  0  0  0  0  0  0
    2.1434   -1.0312    0.0000 C   0  0  2  0  0  0  0  0  0  0  0  0
   -2.1434    0.6187    0.0000 C   0  0  3  0  0  0  0  0  0  0  0  0
    2.1434    0.6187    0.0000 C   0  0  1  0  0  0  0  0  0  0  0  0
    1.4289    0.2062    0.0000 C   0  0  2  0  0  0  0  0  0  0  0  0
    0.0000    0.2062    0.0000 C   0  0  0  0  0  0  0  0  0  0  0  0
   -2.1434    1.4437    0.0000 O   0  0  0  0  0  0  0  0  0  0  0  0
    0.0000   -0.6187    0.0000 O   0  0  0  0  0  0  0  0  0  0  0  0
   -0.7144    0.6187    0.0000 O   0  0  0  0  0  0  0  0  0  0  0  0
    0.7144    0.6187    0.0000 O   0  0  0  0  0  0  0  0  0  0  0  0
    1.4289   -1.4437    0.0000 H   0  0  0  0  0  0  0  0  0  0  0  0
   -2.1434   -0.2062    0.0000 H   0  0  0  0  0  0  0  0  0  0  0  0
    2.8578    1.0312    0.0000 H   0  0  0  0  0  0  0  0  0  0  0  0
    1.4289    1.0312    0.0000 H   0  0  0  0  0  0  0  0  0  0  0  0
    3.7845    1.3212    0.0000 H   0  0  0  0  0  0  0  0  0  0  0  0
    2.8578    2.9262    0.0000 H   0  0  0  0  0  0  0  0  0  0  0  0
    3.7844    2.3912    0.0000 H   0  0  0  0  0  0  0  0  0  0  0  0
    1.4289    2.9262    0.0000 H   0  0  0  0  0  0  0  0  0  0  0  0
    0.5023    1.3212    0.0000 H   0  0  0  0  0  0  0  0  0  0  0  0
    0.5022    2.3912    0.0000 H   0  0  0  0  0  0  0  0  0  0  0  0
    1.2168   -2.3912    0.0000 H   0  0  0  0  0  0  0  0  0  0  0  0
    3.0700   -2.3912    0.0000 H   0  0  0  0  0  0  0  0  0  0  0  0
    2.1434   -2.9262    0.0000 H   0  0  0  0  0  0  0  0  0  0  0  0
   -3.7845    0.7412    0.0000 H   0  0  0  0  0  0  0  0  0  0  0  0
   -2.8578   -0.8638    0.0000 H   0  0  0  0  0  0  0  0  0  0  0  0
   -3.7844   -0.3288    0.0000 H   0  0  0  0  0  0  0  0  0  0  0  0
    3.7845   -1.1537    0.0000 H   0  0  0  0  0  0  0  0  0  0  0  0
    2.8578   -1.6887    0.0000 H   0  0  0  0  0  0  0  0  0  0  0  0
    3.7845    0.7412    0.0000 H   0  0  0  0  0  0  0  0  0  0  0  0
    2.8578    1.2762    0.0000 H   0  0  0  0  0  0  0  0  0  0  0  0
    0.5023   -1.1537    0.0000 H   0  0  0  0  0  0  0  0  0  0  0  0
    0.5023   -0.0837    0.0000 H   0  0  0  0  0  0  0  0  0  0  0  0
   -1.4289   -0.8638    0.0000 H   0  0  0  0  0  0  0  0  0  0  0  0
   -0.5023   -0.3288    0.0000 H   0  0  0  0  0  0  0  0  0  0  0  0
    1.2168    0.9087    0.0000 H   0  0  0  0  0  0  0  0  0  0  0  0
   -1.3034    1.9287    0.0000 H   0  0  0  0  0  0  0  0  0  0  0  0
  1 23  1  0  0  0  0
  1 24  1  0  0  0  0
  1 25  1  0  0  0  0
  2 26  1  0  0  0  0
  2 27  1  0  0  0  0
  2 28  1  0  0  0  0
  3 29  1  0  0  0  0
  3 30  1  0  0  0  0
  3 31  1  0  0  0  0
  4 32  1  0  0  0  0
  4 33  1  0  0  0  0
  4 34  1  0  0  0  0
  5 35  1  0  0  0  0
  5 36  1  0  0  0  0
  6  5  1  0  0  0  0
  6 37  1  0  0  0  0
  6 38  1  0  0  0  0
  7 39  1  0  0  0  0
  7 40  1  0  0  0  0
  8 41  1  0  0  0  0
  8 42  1  0  0  0  0
  9  1  1  0  0  0  0
  9  2  1  0  0  0  0
  9 43  1  0  0  0  0
 10  3  1  0  0  0  0
 10  5  1  0  0  0  0
 10  7  1  0  0  0  0
 10 19  1  6  0  0  0
 11  4  1  0  0  0  0
 11  8  1  0  0  0  0
 12  6  1  0  0  0  0
 12  9  1  0  0  0  0
 12 13  1  0  0  0  0
 12 21  1  1  0  0  0
 13  7  1  0  0  0  0
 13 18  1  0  0  0  0
 13 22  1  6  0  0  0
 15 11  1  0  0  0  0
 15 44  1  0  0  0  0
 16 14  2  0  0  0  0
 17  8  1  0  0  0  0
 17 14  1  0  0  0  0
 18 14  1  0  0  0  0
 20 11  1  0  0  0  0
M  END
>  <DRUGBANK_ID>
DB14136

>  <COMMON_NAME>
(-)-menthol 1-propylene glycol carbonate

>  <CAS_NUMBER>
260781-16-6

>  <UNII>
2WL8FX4EEZ

>  <SYNONYMS>
(-)-menthol (+/-)-1-propylene glycol carbonate; 2-hydroxypropyl ((1R,2S,5R)-2-isopropyl-5-methyl-cyclohexyl) carbonate; Carbonic acid, 2-hydroxypropyl (1R,2S,5R)-5-methyl-2-(1-methylethyl)cyclohexyl ester; Fema no. 3806, 1-propylene glycol carbonate

$$$$
