
 OpenBabel10282417072D

 31 34  0  0  0  0  0  0  0  0999 V2000
    0.2369    1.6500    0.0000 C   0  0  0  0  0  0  0  0  0  0  0  0
    0.9514    2.0625    0.0000 C   0  0  0  0  0  0  0  0  0  0  0  0
    1.6659    1.6500    0.0000 C   0  0  0  0  0  0  0  0  0  0  0  0
    1.6659    0.8250    0.0000 C   0  0  0  0  0  0  0  0  0  0  0  0
    2.3803    0.4125    0.0000 C   0  0  0  0  0  0  0  0  0  0  0  0
    2.3803   -0.4125    0.0000 C   0  0  0  0  0  0  0  0  0  0  0  0
    1.6659   -0.8250    0.0000 C   0  0  0  0  0  0  0  0  0  0  0  0
    1.6659   -1.6500    0.0000 C   0  0  0  0  0  0  0  0  0  0  0  0
    0.9514   -2.0625    0.0000 C   0  0  0  0  0  0  0  0  0  0  0  0
    0.2369   -1.6500    0.0000 C   0  0  0  0  0  0  0  0  0  0  0  0
    0.9514   -0.4125    0.0000 C   0  0  0  0  0  0  0  0  0  0  0  0
    0.9514    0.4125    0.0000 C   0  0  0  0  0  0  0  0  0  0  0  0
    0.2369   -0.8250    0.0000 N   0  0  0  0  0  0  0  0  0  0  0  0
    0.2369    0.8250    0.0000 N   0  0  0  0  0  0  0  0  0  0  0  0
   -1.5553    0.0000    0.0000 C   0  0  0  0  0  0  0  0  0  0  0  0
   -2.3803    0.0000    0.0000 O   0  0  0  0  0  0  0  0  0  0  0  0
   -0.7303    1.6500    0.0000 O   0  0  0  0  0  0  0  0  0  0  0  0
   -0.7303    0.0000    0.0000 Re  0  3  0  0  0  0  0  0  0  0  0  0
   -0.7303   -1.6500    0.0000 O   0  0  0  0  0  0  0  0  0  0  0  0
   -0.7303    0.8250    0.0000 C   0  0  0  0  0  0  0  0  0  0  0  0
   -0.7303   -0.8250    0.0000 C   0  0  0  0  0  0  0  0  0  0  0  0
   -0.6568    2.1660    0.0000 H   0  0  0  0  0  0  0  0  0  0  0  0
    0.9514    3.0945    0.0000 H   0  0  0  0  0  0  0  0  0  0  0  0
    2.5596    2.1660    0.0000 H   0  0  0  0  0  0  0  0  0  0  0  0
    3.2740    0.9285    0.0000 H   0  0  0  0  0  0  0  0  0  0  0  0
    3.2740   -0.9285    0.0000 H   0  0  0  0  0  0  0  0  0  0  0  0
    2.5596   -2.1660    0.0000 H   0  0  0  0  0  0  0  0  0  0  0  0
    0.9514   -3.0945    0.0000 H   0  0  0  0  0  0  0  0  0  0  0  0
   -0.6568   -2.1660    0.0000 H   0  0  0  0  0  0  0  0  0  0  0  0
    0.3267    0.1554    0.0000 H   0  0  0  0  0  0  0  0  0  0  0  0
    0.3267   -0.1554    0.0000 H   0  0  0  0  0  0  0  0  0  0  0  0
  1  2  1  0  0  0  0
  1 22  1  0  0  0  0
  2  3  2  0  0  0  0
  2 23  1  0  0  0  0
  3  4  1  0  0  0  0
  3 24  1  0  0  0  0
  4  5  1  0  0  0  0
  4 12  2  0  0  0  0
  5  6  2  0  0  0  0
  5 25  1  0  0  0  0
  6  7  1  0  0  0  0
  6 26  1  0  0  0  0
  7  8  1  0  0  0  0
  7 11  2  0  0  0  0
  8  9  2  0  0  0  0
  8 27  1  0  0  0  0
  9 10  1  0  0  0  0
  9 28  1  0  0  0  0
 10 13  2  0  0  0  0
 10 29  1  0  0  0  0
 11 12  1  0  0  0  0
 13 11  1  0  0  0  0
 13 30  1  0  0  0  0
 14  1  2  0  0  0  0
 14 12  1  0  0  0  0
 14 31  1  0  0  0  0
 16 15  3  0  0  0  0
 18 15  1  0  0  0  0
 18 20  1  0  0  0  0
 18 21  1  0  0  0  0
 18 14  1  0  0  0  0
 18 13  1  0  0  0  0
 20 17  3  0  0  0  0
 21 19  3  0  0  0  0
M  CHG  1  18   1
M  END
>  <DRUGBANK_ID>
DB04100

>  <SECONDARY_ACCESSION_NUMBERS>
EXPT02771

>  <COMMON_NAME>
Tricarbonyl(1,10-phenanthroline)rhenium(1+)

>  <SYNONYMS>
(1,10 phenanthroline)-(tri-carbon monoxide) rhenium (I); tricarbonyl(1,10-phenanthroline)rhenium(I)

$$$$
