
 OpenBabel10282417072D

 41 44  0  0  0  0  0  0  0  0999 V2000
    1.1270   -2.4909    0.0000 C   0  0  0  0  0  0  0  0  0  0  0  0
    1.3819   -1.7063    0.0000 C   0  0  0  0  0  0  0  0  0  0  0  0
    0.7144   -1.2214    0.0000 N   0  0  0  0  0  0  0  0  0  0  0  0
    0.0470   -1.7063    0.0000 C   0  0  0  0  0  0  0  0  0  0  0  0
    0.3020   -2.4909    0.0000 C   0  0  0  0  0  0  0  0  0  0  0  0
   -2.1433    1.2534    0.0000 C   0  0  0  0  0  0  0  0  0  0  0  0
   -2.1433    2.0784    0.0000 C   0  0  0  0  0  0  0  0  0  0  0  0
   -1.4289    2.4909    0.0000 C   0  0  0  0  0  0  0  0  0  0  0  0
   -1.4288    0.8409    0.0000 C   0  0  0  0  0  0  0  0  0  0  0  0
   -0.7144    1.2535    0.0000 C   0  0  0  0  0  0  0  0  0  0  0  0
   -0.7144    2.0784    0.0000 C   0  0  0  0  0  0  0  0  0  0  0  0
    0.0000    2.4909    0.0000 S   0  0  0  0  0  0  0  0  0  0  0  0
    0.0000    0.8410    0.0000 N   0  0  0  0  0  0  0  0  0  0  0  0
    0.7144    1.2535    0.0000 C   0  0  0  0  0  0  0  0  0  0  0  0
    0.7144    2.0784    0.0000 C   0  0  0  0  0  0  0  0  0  0  0  0
    1.4288    2.4909    0.0000 C   0  0  0  0  0  0  0  0  0  0  0  0
    2.1433    2.0784    0.0000 C   0  0  0  0  0  0  0  0  0  0  0  0
    2.1433    1.2535    0.0000 C   0  0  0  0  0  0  0  0  0  0  0  0
    1.4288    0.8410    0.0000 C   0  0  0  0  0  0  0  0  0  0  0  0
    0.0000    0.0160    0.0000 C   0  0  0  0  0  0  0  0  0  0  0  0
    0.7144   -0.3964    0.0000 C   0  0  0  0  0  0  0  0  0  0  0  0
    1.7559   -3.3565    0.0000 H   0  0  0  0  0  0  0  0  0  0  0  0
    2.1838   -2.3235    0.0000 H   0  0  0  0  0  0  0  0  0  0  0  0
    2.3995   -1.3756    0.0000 H   0  0  0  0  0  0  0  0  0  0  0  0
    1.5492   -0.6495    0.0000 H   0  0  0  0  0  0  0  0  0  0  0  0
   -0.9706   -1.3757    0.0000 H   0  0  0  0  0  0  0  0  0  0  0  0
   -0.1204   -0.6495    0.0000 H   0  0  0  0  0  0  0  0  0  0  0  0
   -0.3269   -3.3566    0.0000 H   0  0  0  0  0  0  0  0  0  0  0  0
    0.7878   -3.4443    0.0000 H   0  0  0  0  0  0  0  0  0  0  0  0
   -3.0370    0.7374    0.0000 H   0  0  0  0  0  0  0  0  0  0  0  0
   -3.0370    2.5944    0.0000 H   0  0  0  0  0  0  0  0  0  0  0  0
   -1.4289    3.5229    0.0000 H   0  0  0  0  0  0  0  0  0  0  0  0
   -1.4287   -0.1911    0.0000 H   0  0  0  0  0  0  0  0  0  0  0  0
    1.4288    3.5229    0.0000 H   0  0  0  0  0  0  0  0  0  0  0  0
    3.0370    2.5944    0.0000 H   0  0  0  0  0  0  0  0  0  0  0  0
    3.0370    0.7375    0.0000 H   0  0  0  0  0  0  0  0  0  0  0  0
    1.4288   -0.1910    0.0000 H   0  0  0  0  0  0  0  0  0  0  0  0
   -0.9266   -0.5190    0.0000 H   0  0  0  0  0  0  0  0  0  0  0  0
    0.0000   -1.0540    0.0000 H   0  0  0  0  0  0  0  0  0  0  0  0
    1.6410    0.1386    0.0000 H   0  0  0  0  0  0  0  0  0  0  0  0
    1.6411   -0.9314    0.0000 H   0  0  0  0  0  0  0  0  0  0  0  0
  1  5  1  0  0  0  0
  1  2  1  0  0  0  0
  1 22  1  0  0  0  0
  1 23  1  0  0  0  0
  2  3  1  0  0  0  0
  2 24  1  0  0  0  0
  2 25  1  0  0  0  0
  3  4  1  0  0  0  0
  4  5  1  0  0  0  0
  4 26  1  0  0  0  0
  4 27  1  0  0  0  0
  5 28  1  0  0  0  0
  5 29  1  0  0  0  0
  6  7  2  0  0  0  0
  6 30  1  0  0  0  0
  7  8  1  0  0  0  0
  7 31  1  0  0  0  0
  8 11  2  0  0  0  0
  8 32  1  0  0  0  0
  9  6  1  0  0  0  0
  9 33  1  0  0  0  0
 10 13  1  0  0  0  0
 10  9  2  0  0  0  0
 10 11  1  0  0  0  0
 11 12  1  0  0  0  0
 12 15  1  0  0  0  0
 13 20  1  0  0  0  0
 14 13  1  0  0  0  0
 14 15  2  0  0  0  0
 15 16  1  0  0  0  0
 16 17  2  0  0  0  0
 16 34  1  0  0  0  0
 17 18  1  0  0  0  0
 17 35  1  0  0  0  0
 18 19  2  0  0  0  0
 18 36  1  0  0  0  0
 19 14  1  0  0  0  0
 19 37  1  0  0  0  0
 20 21  1  0  0  0  0
 20 38  1  0  0  0  0
 20 39  1  0  0  0  0
 21  3  1  0  0  0  0
 21 40  1  0  0  0  0
 21 41  1  0  0  0  0
M  END
>  <DRUGBANK_ID>
DB15978

>  <COMMON_NAME>
Parathiazine

>  <CAS_NUMBER>
84-08-2

>  <UNII>
2305SQ56Z2

>  <SYNONYMS>
Parathiazine; Paratiazina; Pyrathiazine

$$$$
