802
 OpenBabel10282417072D

 31 33  0  0  0  0  0  0  0  0999 V2000
    2.1435    0.2212    0.0000 C   0  0  0  0  0  0  0  0  0  0  0  0
    2.1435   -0.6038    0.0000 C   0  0  0  0  0  0  0  0  0  0  0  0
    1.4290   -1.0163    0.0000 C   0  0  0  0  0  0  0  0  0  0  0  0
    0.7146   -0.6038    0.0000 C   0  0  0  0  0  0  0  0  0  0  0  0
    0.7146    0.2212    0.0000 C   0  0  0  0  0  0  0  0  0  0  0  0
    1.4290    0.6337    0.0000 C   0  0  0  0  0  0  0  0  0  0  0  0
    2.8580    0.6337    0.0000 C   0  0  0  0  0  0  0  0  0  0  0  0
    3.5724    0.2212    0.0000 N   0  0  0  0  0  0  0  0  0  0  0  0
    2.8580    1.4587    0.0000 N   0  3  0  0  0  0  0  0  0  0  0  0
   -0.0701   -0.8587    0.0000 N   0  0  0  0  0  0  0  0  0  0  0  0
   -0.0701    0.4762    0.0000 N   0  0  0  0  0  0  0  0  0  0  0  0
   -0.5550   -0.1913    0.0000 C   0  0  0  0  0  0  0  0  0  0  0  0
   -1.3800   -0.1913    0.0000 C   0  0  0  0  0  0  0  0  0  0  0  0
   -1.7925   -0.9057    0.0000 C   0  0  0  0  0  0  0  0  0  0  0  0
   -2.6175   -0.9057    0.0000 C   0  0  0  0  0  0  0  0  0  0  0  0
   -3.0300   -1.6202    0.0000 F   0  0  0  0  0  0  0  0  0  0  0  0
   -3.0300   -0.1913    0.0000 C   0  0  0  0  0  0  0  0  0  0  0  0
   -2.6175    0.5232    0.0000 C   0  0  0  0  0  0  0  0  0  0  0  0
   -1.7925    0.5232    0.0000 C   0  0  0  0  0  0  0  0  0  0  0  0
   -1.3800    1.2377    0.0000 O   0  5  0  0  0  0  0  0  0  0  0  0
    3.0372   -1.1198    0.0000 H   0  0  0  0  0  0  0  0  0  0  0  0
    1.4290   -2.0483    0.0000 H   0  0  0  0  0  0  0  0  0  0  0  0
    1.4290    1.6657    0.0000 H   0  0  0  0  0  0  0  0  0  0  0  0
    3.5724   -0.7633    0.0000 H   0  0  0  0  0  0  0  0  0  0  0  0
    4.4250    0.7134    0.0000 H   0  0  0  0  0  0  0  0  0  0  0  0
    3.7106    1.9510    0.0000 H   0  0  0  0  0  0  0  0  0  0  0  0
    2.0054    1.9510    0.0000 H   0  0  0  0  0  0  0  0  0  0  0  0
   -0.3744   -1.7950    0.0000 H   0  0  0  0  0  0  0  0  0  0  0  0
   -1.2765   -1.7994    0.0000 H   0  0  0  0  0  0  0  0  0  0  0  0
   -4.0620   -0.1913    0.0000 H   0  0  0  0  0  0  0  0  0  0  0  0
   -3.1335    1.4169    0.0000 H   0  0  0  0  0  0  0  0  0  0  0  0
  1  2  2  0  0  0  0
  1  6  1  0  0  0  0
  1  7  1  0  0  0  0
  2  3  1  0  0  0  0
  2 21  1  0  0  0  0
  3  4  2  0  0  0  0
  3 22  1  0  0  0  0
  4  5  1  0  0  0  0
  4 10  1  0  0  0  0
  5  6  2  0  0  0  0
  5 11  1  0  0  0  0
  6 23  1  0  0  0  0
  7  8  1  0  0  0  0
  7  9  2  0  0  0  0
  8 24  1  0  0  0  0
  8 25  1  0  0  0  0
  9 26  1  0  0  0  0
  9 27  1  0  0  0  0
 10 12  1  0  0  0  0
 10 28  1  0  0  0  0
 11 12  2  0  0  0  0
 12 13  1  0  0  0  0
 13 14  2  0  0  0  0
 13 19  1  0  0  0  0
 14 15  1  0  0  0  0
 14 29  1  0  0  0  0
 15 16  1  0  0  0  0
 15 17  2  0  0  0  0
 17 18  1  0  0  0  0
 17 30  1  0  0  0  0
 18 19  2  0  0  0  0
 18 31  1  0  0  0  0
 19 20  1  0  0  0  0
M  CHG  2   9   1  20  -1
M  END
>  <DRUGBANK_ID>
DB02875

>  <SECONDARY_ACCESSION_NUMBERS>
EXPT00318

>  <COMMON_NAME>
CRA_1802

$$$$
