
 OpenBabel10282417072D

 17 16  0  0  0  0  0  0  0  0999 V2000
   -0.0411    0.7698    0.0000 C   0  0  0  0  0  0  0  0  0  0  0  0
    0.3713   -0.7698    0.0000 C   0  0  0  0  0  0  0  0  0  0  0  0
    0.7558   -0.2687    0.0000 C   0  0  0  0  0  0  0  0  0  0  0  0
   -0.0411   -0.0552    0.0000 N   0  3  0  0  0  0  0  0  0  0  0  0
   -0.7557   -0.4677    0.0000 C   0  0  0  0  0  0  0  0  0  0  0  0
    0.8855    1.3048    0.0000 H   0  0  0  0  0  0  0  0  0  0  0  0
   -0.9677    1.3048    0.0000 H   0  0  0  0  0  0  0  0  0  0  0  0
   -0.0411    1.8398    0.0000 H   0  0  0  0  0  0  0  0  0  0  0  0
   -0.1639   -1.6963    0.0000 H   0  0  0  0  0  0  0  0  0  0  0  0
    1.4413   -0.7700    0.0000 H   0  0  0  0  0  0  0  0  0  0  0  0
    0.9061   -1.6965    0.0000 H   0  0  0  0  0  0  0  0  0  0  0  0
    1.0328   -1.3022    0.0000 H   0  0  0  0  0  0  0  0  0  0  0  0
    1.5124    0.4879    0.0000 H   0  0  0  0  0  0  0  0  0  0  0  0
    1.7893   -0.5456    0.0000 H   0  0  0  0  0  0  0  0  0  0  0  0
   -1.6823    0.0674    0.0000 H   0  0  0  0  0  0  0  0  0  0  0  0
   -0.7558   -1.5377    0.0000 H   0  0  0  0  0  0  0  0  0  0  0  0
   -1.6824   -1.0026    0.0000 H   0  0  0  0  0  0  0  0  0  0  0  0
  1  6  1  0  0  0  0
  1  7  1  0  0  0  0
  1  8  1  0  0  0  0
  2  9  1  0  0  0  0
  2 10  1  0  0  0  0
  2 11  1  0  0  0  0
  3 12  1  0  0  0  0
  3 13  1  0  0  0  0
  3 14  1  0  0  0  0
  4  1  1  0  0  0  0
  4  2  1  0  0  0  0
  4  3  1  0  0  0  0
  4  5  1  0  0  0  0
  5 15  1  0  0  0  0
  5 16  1  0  0  0  0
  5 17  1  0  0  0  0
M  CHG  1   4   1
M  END
>  <DRUGBANK_ID>
DB03095

>  <SECONDARY_ACCESSION_NUMBERS>
EXPT03069

>  <COMMON_NAME>
Tetramethylammonium

>  <CAS_NUMBER>
51-92-3

>  <UNII>
H0W55235FC

>  <SYNONYMS>
Trimethylaminomethane

$$$$
