M29
 OpenBabel10282417072D

 32 32  0  0  0  0  0  0  0  0999 V2000
   -0.5369   -1.6183    0.0000 C   0  0  0  0  0  0  0  0  0  0  0  0
    0.1776   -1.2058    0.0000 C   0  0  0  0  0  0  0  0  0  0  0  0
    0.8921   -1.6183    0.0000 C   0  0  0  0  0  0  0  0  0  0  0  0
    0.8921   -2.4433    0.0000 C   0  0  0  0  0  0  0  0  0  0  0  0
    0.1776   -2.8558    0.0000 C   0  0  0  0  0  0  0  0  0  0  0  0
   -0.5369   -2.4433    0.0000 C   0  0  0  0  0  0  0  0  0  0  0  0
   -1.2514   -1.2058    0.0000 S   0  0  0  0  0  0  0  0  0  0  0  0
   -1.9658   -0.7933    0.0000 O   0  0  0  0  0  0  0  0  0  0  0  0
   -1.6639   -1.9203    0.0000 O   0  0  0  0  0  0  0  0  0  0  0  0
   -0.8389   -0.4913    0.0000 N   0  0  0  0  0  0  0  0  0  0  0  0
    1.6065   -2.8558    0.0000 C   0  0  0  0  0  0  0  0  0  0  0  0
    2.3210   -2.4433    0.0000 C   0  0  0  0  0  0  0  0  0  0  0  0
    3.0355   -2.8558    0.0000 C   0  0  0  0  0  0  0  0  0  0  0  0
    3.7499   -2.4433    0.0000 O   0  0  0  0  0  0  0  0  0  0  0  0
    3.0355   -3.6808    0.0000 O   0  0  0  0  0  0  0  0  0  0  0  0
    4.4644   -2.8558    0.0000 C   0  0  0  0  0  0  0  0  0  0  0  0
    5.1789   -2.4433    0.0000 C   0  0  0  0  0  0  0  0  0  0  0  0
    0.1776   -0.1738    0.0000 H   0  0  0  0  0  0  0  0  0  0  0  0
    1.7858   -1.1023    0.0000 H   0  0  0  0  0  0  0  0  0  0  0  0
    0.1776   -3.8878    0.0000 H   0  0  0  0  0  0  0  0  0  0  0  0
   -1.4306   -2.9593    0.0000 H   0  0  0  0  0  0  0  0  0  0  0  0
    0.1811   -0.4913    0.0000 H   0  0  0  0  0  0  0  0  0  0  0  0
   -1.3489    0.3920    0.0000 H   0  0  0  0  0  0  0  0  0  0  0  0
    1.6065   -3.9258    0.0000 H   0  0  0  0  0  0  0  0  0  0  0  0
    2.5331   -3.3908    0.0000 H   0  0  0  0  0  0  0  0  0  0  0  0
    2.3210   -1.3733    0.0000 H   0  0  0  0  0  0  0  0  0  0  0  0
    3.2476   -1.9083    0.0000 H   0  0  0  0  0  0  0  0  0  0  0  0
    4.4644   -3.9258    0.0000 H   0  0  0  0  0  0  0  0  0  0  0  0
    5.3910   -3.3908    0.0000 H   0  0  0  0  0  0  0  0  0  0  0  0
    6.1055   -2.9783    0.0000 H   0  0  0  0  0  0  0  0  0  0  0  0
    5.1789   -1.3733    0.0000 H   0  0  0  0  0  0  0  0  0  0  0  0
    6.1056   -1.9083    0.0000 H   0  0  0  0  0  0  0  0  0  0  0  0
  1  7  1  0  0  0  0
  1  2  2  0  0  0  0
  1  6  1  0  0  0  0
  2  3  1  0  0  0  0
  2 18  1  0  0  0  0
  3  4  2  0  0  0  0
  3 19  1  0  0  0  0
  4  5  1  0  0  0  0
  4 11  1  0  0  0  0
  5  6  2  0  0  0  0
  5 20  1  0  0  0  0
  6 21  1  0  0  0  0
  7  8  2  0  0  0  0
  7  9  2  0  0  0  0
  7 10  1  0  0  0  0
 10 22  1  0  0  0  0
 10 23  1  0  0  0  0
 11 12  1  0  0  0  0
 11 24  1  0  0  0  0
 11 25  1  0  0  0  0
 12 13  1  0  0  0  0
 12 26  1  0  0  0  0
 12 27  1  0  0  0  0
 13 14  1  0  0  0  0
 13 15  2  0  0  0  0
 14 16  1  0  0  0  0
 16 17  1  0  0  0  0
 16 28  1  0  0  0  0
 16 29  1  0  0  0  0
 17 30  1  0  0  0  0
 17 31  1  0  0  0  0
 17 32  1  0  0  0  0
M  END
>  <DRUGBANK_ID>
DB08157

>  <COMMON_NAME>
ETHYL 3-[4-(AMINOSULFONYL)PHENYL]PROPANOATE

$$$$
