LZQ
 OpenBabel10282417072D

 50 52  0  0  0  0  0  0  0  0999 V2000
    1.8149    0.9161    0.0000 C   0  0  0  0  0  0  0  0  0  0  0  0
    2.5293   -0.3214    0.0000 C   0  0  0  0  0  0  0  0  0  0  0  0
    3.9583   -0.3214    0.0000 C   0  0  0  0  0  0  0  0  0  0  0  0
    4.6727    0.0911    0.0000 C   0  0  0  0  0  0  0  0  0  0  0  0
   -1.0430   -1.5589    0.0000 C   0  0  0  0  0  0  0  0  0  0  0  0
   -1.0430    0.9161    0.0000 C   0  0  0  0  0  0  0  0  0  0  0  0
   -0.3286   -0.3214    0.0000 N   0  0  0  0  0  0  0  0  0  0  0  0
    5.3872   -0.3214    0.0000 O   0  0  0  0  0  0  0  0  0  0  0  0
    1.1004    1.3286    0.0000 C   0  0  0  0  0  0  0  0  0  0  0  0
   -1.0430   -2.3839    0.0000 C   0  0  0  0  0  0  0  0  0  0  0  0
   -0.3286    1.3286    0.0000 C   0  0  0  0  0  0  0  0  0  0  0  0
    2.5293   -1.1464    0.0000 O   0  0  0  0  0  0  0  0  0  0  0  0
    3.9583   -1.1464    0.0000 O   0  0  0  0  0  0  0  0  0  0  0  0
    4.6727    0.9161    0.0000 O   0  0  0  0  0  0  0  0  0  0  0  0
    0.3859    0.9161    0.0000 C   0  0  0  0  0  0  0  0  0  0  0  0
   -1.7575   -2.7964    0.0000 C   0  0  0  0  0  0  0  0  0  0  0  0
   -0.3286    2.1536    0.0000 C   0  0  0  0  0  0  0  0  0  0  0  0
    0.3859    0.0911    0.0000 C   0  0  0  0  0  0  0  0  0  0  0  0
   -2.4720   -2.3839    0.0000 C   0  0  0  0  0  0  0  0  0  0  0  0
   -1.0430    2.5661    0.0000 C   0  0  0  0  0  0  0  0  0  0  0  0
    1.1004   -0.3214    0.0000 C   0  0  0  0  0  0  0  0  0  0  0  0
   -2.4720   -1.5589    0.0000 C   0  0  0  0  0  0  0  0  0  0  0  0
   -1.7575    2.1536    0.0000 C   0  0  0  0  0  0  0  0  0  0  0  0
    1.8149    0.0911    0.0000 C   0  0  0  0  0  0  0  0  0  0  0  0
   -1.7575   -1.1464    0.0000 C   0  0  0  0  0  0  0  0  0  0  0  0
   -1.7575    1.3286    0.0000 C   0  0  0  0  0  0  0  0  0  0  0  0
    3.2438    0.0911    0.0000 C   0  0  0  0  0  0  0  0  0  0  0  0
   -0.3286   -1.1464    0.0000 C   0  0  0  0  0  0  0  0  0  0  0  0
   -1.0430    0.0911    0.0000 C   0  0  0  0  0  0  0  0  0  0  0  0
    2.7086    1.4321    0.0000 H   0  0  0  0  0  0  0  0  0  0  0  0
    1.1004    2.3606    0.0000 H   0  0  0  0  0  0  0  0  0  0  0  0
   -0.1493   -2.8999    0.0000 H   0  0  0  0  0  0  0  0  0  0  0  0
    0.5651    0.8126    0.0000 H   0  0  0  0  0  0  0  0  0  0  0  0
    5.4842    1.3846    0.0000 H   0  0  0  0  0  0  0  0  0  0  0  0
   -0.5078    1.4321    0.0000 H   0  0  0  0  0  0  0  0  0  0  0  0
   -1.7575   -3.8284    0.0000 H   0  0  0  0  0  0  0  0  0  0  0  0
    0.5651    2.6696    0.0000 H   0  0  0  0  0  0  0  0  0  0  0  0
   -3.3657   -2.8999    0.0000 H   0  0  0  0  0  0  0  0  0  0  0  0
   -1.0430    3.5981    0.0000 H   0  0  0  0  0  0  0  0  0  0  0  0
    1.1004   -1.3534    0.0000 H   0  0  0  0  0  0  0  0  0  0  0  0
   -3.3657   -1.0429    0.0000 H   0  0  0  0  0  0  0  0  0  0  0  0
   -2.6512    2.6696    0.0000 H   0  0  0  0  0  0  0  0  0  0  0  0
   -1.7575   -0.1144    0.0000 H   0  0  0  0  0  0  0  0  0  0  0  0
   -2.6512    0.8126    0.0000 H   0  0  0  0  0  0  0  0  0  0  0  0
    3.2438    1.1611    0.0000 H   0  0  0  0  0  0  0  0  0  0  0  0
    4.1704    0.6261    0.0000 H   0  0  0  0  0  0  0  0  0  0  0  0
    0.5981   -1.6814    0.0000 H   0  0  0  0  0  0  0  0  0  0  0  0
    0.5980   -0.6114    0.0000 H   0  0  0  0  0  0  0  0  0  0  0  0
   -1.9697   -0.4439    0.0000 H   0  0  0  0  0  0  0  0  0  0  0  0
   -1.0430   -0.9789    0.0000 H   0  0  0  0  0  0  0  0  0  0  0  0
  1 30  1  0  0  0  0
  2 27  1  0  0  0  0
  2 12  2  0  0  0  0
  3  4  1  0  0  0  0
  3 13  2  0  0  0  0
  4 14  1  0  0  0  0
  5 10  1  0  0  0  0
  6 29  1  0  0  0  0
  6 26  1  0  0  0  0
  7 18  1  0  0  0  0
  8  4  2  0  0  0  0
  9  1  1  0  0  0  0
  9 31  1  0  0  0  0
 10 16  2  0  0  0  0
 10 32  1  0  0  0  0
 11  6  2  0  0  0  0
 11 33  1  0  0  0  0
 14 34  1  0  0  0  0
 15  9  2  0  0  0  0
 15 35  1  0  0  0  0
 16 36  1  0  0  0  0
 17 11  1  0  0  0  0
 17 20  2  0  0  0  0
 17 37  1  0  0  0  0
 18 15  1  0  0  0  0
 18 21  2  0  0  0  0
 19 16  1  0  0  0  0
 19 38  1  0  0  0  0
 20 23  1  0  0  0  0
 20 39  1  0  0  0  0
 21 24  1  0  0  0  0
 21 40  1  0  0  0  0
 22 19  2  0  0  0  0
 22 41  1  0  0  0  0
 23 26  2  0  0  0  0
 23 42  1  0  0  0  0
 24  1  2  0  0  0  0
 24  2  1  0  0  0  0
 25  5  2  0  0  0  0
 25 22  1  0  0  0  0
 25 43  1  0  0  0  0
 26 44  1  0  0  0  0
 27  3  1  0  0  0  0
 27 45  1  0  0  0  0
 27 46  1  0  0  0  0
 28  5  1  0  0  0  0
 28  7  1  0  0  0  0
 28 47  1  0  0  0  0
 28 48  1  0  0  0  0
 29  7  1  0  0  0  0
 29 49  1  0  0  0  0
 29 50  1  0  0  0  0
M  END
>  <DRUGBANK_ID>
DB08147

>  <COMMON_NAME>
4-[3-(dibenzylamino)phenyl]-2,4-dioxobutanoic acid

$$$$
