
 OpenBabel10282417072D

 48 51  0  0  0  0  0  0  0  0999 V2000
    5.0933   -5.5515    0.0000 C   0  0  1  0  0  0  0  0  0  0  0  0
    6.1822   -6.3701    0.0000 C   0  0  2  0  0  0  0  0  0  0  0  0
    5.6597   -5.9352    0.0000 C   0  0  0  0  0  0  0  0  0  0  0  0
    4.6662   -5.9352    0.0000 C   0  0  1  0  0  0  0  0  0  0  0  0
    4.5215   -5.1055    0.0000 N   0  0  0  0  0  0  0  0  0  0  0  0
    5.9596   -5.5696    0.0000 C   0  0  0  0  0  0  0  0  0  0  0  0
    4.1353   -6.6591    0.0000 C   0  0  0  0  0  0  0  0  0  0  0  0
    4.7670   -6.2764    0.0000 C   0  0  0  0  0  0  0  0  0  0  0  0
    6.8697   -7.5363    0.0000 C   0  0  0  0  0  0  0  0  0  0  0  0
    6.1602   -7.1609    0.0000 O   0  0  0  0  0  0  0  0  0  0  0  0
    3.8600   -5.7119    0.0000 H   0  0  0  0  0  0  0  0  0  0  0  0
    5.5023   -4.8311    0.0000 H   0  0  0  0  0  0  0  0  0  0  0  0
    7.5685   -7.0977    0.0000 C   0  0  0  0  0  0  0  0  0  0  0  0
    6.9002   -8.3608    0.0000 C   0  0  0  0  0  0  0  0  0  0  0  0
    8.2970   -7.4867    0.0000 C   0  0  0  0  0  0  0  0  0  0  0  0
    8.9953   -7.0487    0.0000 C   0  0  0  0  0  0  0  0  0  0  0  0
    8.9654   -6.2233    0.0000 C   0  0  0  0  0  0  0  0  0  0  0  0
    8.2310   -5.8378    0.0000 C   0  0  0  0  0  0  0  0  0  0  0  0
    7.5357   -6.2780    0.0000 C   0  0  0  0  0  0  0  0  0  0  0  0
    6.2018   -8.7962    0.0000 C   0  0  0  0  0  0  0  0  0  0  0  0
    6.2319   -9.6200    0.0000 C   0  0  0  0  0  0  0  0  0  0  0  0
    6.9618  -10.0067    0.0000 C   0  0  0  0  0  0  0  0  0  0  0  0
    7.6628   -9.5635    0.0000 C   0  0  0  0  0  0  0  0  0  0  0  0
    7.6293   -8.7413    0.0000 C   0  0  0  0  0  0  0  0  0  0  0  0
    4.0968   -4.3980    0.0000 C   0  0  0  0  0  0  0  0  0  0  0  0
    6.8967   -5.9576    0.0000 H   0  0  0  0  0  0  0  0  0  0  0  0
    6.0237   -4.9290    0.0000 H   0  0  0  0  0  0  0  0  0  0  0  0
    5.0451   -5.0593    0.0000 H   0  0  0  0  0  0  0  0  0  0  0  0
    6.6158   -4.7245    0.0000 H   0  0  0  0  0  0  0  0  0  0  0  0
    7.0094   -5.7764    0.0000 H   0  0  0  0  0  0  0  0  0  0  0  0
    3.3461   -7.3817    0.0000 H   0  0  0  0  0  0  0  0  0  0  0  0
    4.7769   -7.5154    0.0000 H   0  0  0  0  0  0  0  0  0  0  0  0
    5.5682   -6.9856    0.0000 H   0  0  0  0  0  0  0  0  0  0  0  0
    4.6709   -7.3421    0.0000 H   0  0  0  0  0  0  0  0  0  0  0  0
    5.9635   -8.1052    0.0000 H   0  0  0  0  0  0  0  0  0  0  0  0
    8.3330   -8.5181    0.0000 H   0  0  0  0  0  0  0  0  0  0  0  0
    9.9072   -7.5318    0.0000 H   0  0  0  0  0  0  0  0  0  0  0  0
    9.8388   -5.6735    0.0000 H   0  0  0  0  0  0  0  0  0  0  0  0
    8.1892   -4.8066    0.0000 H   0  0  0  0  0  0  0  0  0  0  0  0
    6.6218   -5.7985    0.0000 H   0  0  0  0  0  0  0  0  0  0  0  0
    5.2905   -8.3120    0.0000 H   0  0  0  0  0  0  0  0  0  0  0  0
    5.3576  -10.1682    0.0000 H   0  0  0  0  0  0  0  0  0  0  0  0
    7.0013  -11.0379    0.0000 H   0  0  0  0  0  0  0  0  0  0  0  0
    8.5767  -10.0429    0.0000 H   0  0  0  0  0  0  0  0  0  0  0  0
    8.5008   -8.1885    0.0000 H   0  0  0  0  0  0  0  0  0  0  0  0
    4.6159   -3.4624    0.0000 H   0  0  0  0  0  0  0  0  0  0  0  0
    3.0270   -4.4162    0.0000 H   0  0  0  0  0  0  0  0  0  0  0  0
    3.5461   -3.4806    0.0000 H   0  0  0  0  0  0  0  0  0  0  0  0
  1 12  1  6  0  0  0
  1  6  1  0  0  0  0
  1  8  1  0  0  0  0
  2  3  1  0  0  0  0
  2 10  1  0  0  0  0
  2 26  1  1  0  0  0
  3  4  1  0  0  0  0
  3 27  1  0  0  0  0
  3 28  1  0  0  0  0
  4  5  1  0  0  0  0
  4  7  1  0  0  0  0
  4 11  1  1  0  0  0
  5  1  1  0  0  0  0
  5 25  1  0  0  0  0
  6  2  1  0  0  0  0
  6 29  1  0  0  0  0
  6 30  1  0  0  0  0
  7  8  1  0  0  0  0
  7 31  1  0  0  0  0
  7 32  1  0  0  0  0
  8 33  1  0  0  0  0
  8 34  1  0  0  0  0
  9 13  1  0  0  0  0
  9 14  1  0  0  0  0
  9 35  1  0  0  0  0
 10  9  1  0  0  0  0
 13 15  2  0  0  0  0
 14 20  2  0  0  0  0
 15 16  1  0  0  0  0
 15 36  1  0  0  0  0
 16 17  2  0  0  0  0
 16 37  1  0  0  0  0
 17 18  1  0  0  0  0
 17 38  1  0  0  0  0
 18 19  2  0  0  0  0
 18 39  1  0  0  0  0
 19 13  1  0  0  0  0
 19 40  1  0  0  0  0
 20 21  1  0  0  0  0
 20 41  1  0  0  0  0
 21 22  2  0  0  0  0
 21 42  1  0  0  0  0
 22 23  1  0  0  0  0
 22 43  1  0  0  0  0
 23 24  2  0  0  0  0
 23 44  1  0  0  0  0
 24 14  1  0  0  0  0
 24 45  1  0  0  0  0
 25 46  1  0  0  0  0
 25 47  1  0  0  0  0
 25 48  1  0  0  0  0
M  END
>  <DRUGBANK_ID>
DB00245

>  <SECONDARY_ACCESSION_NUMBERS>
APRD00748

>  <COMMON_NAME>
Benzatropine

>  <CAS_NUMBER>
86-13-5

>  <UNII>
1NHL2J4X8K

>  <SYNONYMS>
3-alpha-(diphenylmethoxy)tropane; 3endo-benzhydryloxytropane; 3α-(diphenylmethoxy)-1αH,5αH-tropane; 3α-(diphenylmethoxy)tropane; 3α-benzhydryloxy-8-methyl-8-azabicyclo[3.2.1]octane; Benzatropina; Benzatropine; Benzatropinum; benzhydryl 8-methyl-8-azabicyclo[3.2.1]oct-3-yl ether; Benztropine; Tropine benzohydryl ether

$$$$
