
 OpenBabel10282417072D

 41 44  0  0  1  0  0  0  0  0999 V2000
   -0.1435   -0.0305    0.0000 C   0  0  0  0  0  0  0  0  0  0  0  0
   -0.6284   -0.6979    0.0000 C   0  0  0  0  0  0  0  0  0  0  0  0
   -0.1435   -1.3654    0.0000 N   0  0  0  0  0  0  0  0  0  0  0  0
    0.6411   -1.1104    0.0000 C   0  0  0  0  0  0  0  0  0  0  0  0
    0.6411   -0.2854    0.0000 C   0  0  0  0  0  0  0  0  0  0  0  0
    1.3556    0.1271    0.0000 C   0  0  0  0  0  0  0  0  0  0  0  0
    2.0701   -0.2854    0.0000 N   0  0  0  0  0  0  0  0  0  0  0  0
    2.0701   -1.1104    0.0000 C   0  0  0  0  0  0  0  0  0  0  0  0
    1.3556   -1.5229    0.0000 N   0  0  0  0  0  0  0  0  0  0  0  0
    1.3556    0.9521    0.0000 C   0  0  0  0  0  0  0  0  0  0  0  0
    0.6881    1.4370    0.0000 C   0  0  0  0  0  0  0  0  0  0  0  0
    0.9431    2.2216    0.0000 N   0  0  0  0  0  0  0  0  0  0  0  0
    1.7681    2.2216    0.0000 N   0  0  0  0  0  0  0  0  0  0  0  0
    2.0230    1.4370    0.0000 C   0  0  0  0  0  0  0  0  0  0  0  0
    2.2530    2.8890    0.0000 C   0  0  2  0  0  0  0  0  0  0  0  0
    3.0735    2.8028    0.0000 C   0  0  0  0  0  0  0  0  0  0  0  0
    3.5584    3.4702    0.0000 C   0  0  0  0  0  0  0  0  0  0  0  0
    4.0433    4.1377    0.0000 N   0  0  0  0  0  0  0  0  0  0  0  0
    1.9175    3.6427    0.0000 C   0  0  0  0  0  0  0  0  0  0  0  0
    1.1105    3.8142    0.0000 C   0  0  0  0  0  0  0  0  0  0  0  0
    1.0242    4.6347    0.0000 C   0  0  0  0  0  0  0  0  0  0  0  0
    1.7779    4.9703    0.0000 C   0  0  0  0  0  0  0  0  0  0  0  0
    2.3300    4.3572    0.0000 C   0  0  0  0  0  0  0  0  0  0  0  0
   -0.4624    0.9510    0.0000 H   0  0  0  0  0  0  0  0  0  0  0  0
   -1.6604   -0.6979    0.0000 H   0  0  0  0  0  0  0  0  0  0  0  0
   -0.4477   -2.3017    0.0000 H   0  0  0  0  0  0  0  0  0  0  0  0
    2.9638   -1.6264    0.0000 H   0  0  0  0  0  0  0  0  0  0  0  0
   -0.2934    1.1181    0.0000 H   0  0  0  0  0  0  0  0  0  0  0  0
    3.0045    1.1181    0.0000 H   0  0  0  0  0  0  0  0  0  0  0  0
    2.6882    1.9115    0.0000 H   0  0  0  0  0  0  0  0  0  0  0  0
    3.5087    1.8253    0.0000 H   0  0  0  0  0  0  0  0  0  0  0  0
    4.1376    2.6910    0.0000 H   0  0  0  0  0  0  0  0  0  0  0  0
    1.4823    4.6202    0.0000 H   0  0  0  0  0  0  0  0  0  0  0  0
    0.3154    3.0982    0.0000 H   0  0  0  0  0  0  0  0  0  0  0  0
    0.1115    4.1976    0.0000 H   0  0  0  0  0  0  0  0  0  0  0  0
    0.0975    5.1696    0.0000 H   0  0  0  0  0  0  0  0  0  0  0  0
    1.0802    5.7032    0.0000 H   0  0  0  0  0  0  0  0  0  0  0  0
    2.0003    6.0169    0.0000 H   0  0  0  0  0  0  0  0  0  0  0  0
    2.8114    5.2473    0.0000 H   0  0  0  0  0  0  0  0  0  0  0  0
    3.3941    4.4691    0.0000 H   0  0  0  0  0  0  0  0  0  0  0  0
    2.9128    3.4598    0.0000 H   0  0  0  0  0  0  0  0  0  0  0  0
  1  2  2  0  0  0  0
  1  5  1  0  0  0  0
  1 24  1  0  0  0  0
  2  3  1  0  0  0  0
  2 25  1  0  0  0  0
  3  4  1  0  0  0  0
  3 26  1  0  0  0  0
  4  5  1  0  0  0  0
  4  9  2  0  0  0  0
  5  6  2  0  0  0  0
  6  7  1  0  0  0  0
  6 10  1  0  0  0  0
  7  8  2  0  0  0  0
  8  9  1  0  0  0  0
  8 27  1  0  0  0  0
 10 11  1  0  0  0  0
 10 14  2  0  0  0  0
 11 12  2  0  0  0  0
 11 28  1  0  0  0  0
 12 13  1  0  0  0  0
 13 14  1  0  0  0  0
 14 29  1  0  0  0  0
 15 13  1  0  0  0  0
 15 16  1  0  0  0  0
 15 19  1  0  0  0  0
 15 30  1  6  0  0  0
 16 17  1  0  0  0  0
 16 31  1  0  0  0  0
 16 32  1  0  0  0  0
 17 18  3  0  0  0  0
 19 20  1  0  0  0  0
 19 23  1  0  0  0  0
 19 33  1  0  0  0  0
 20 21  1  0  0  0  0
 20 34  1  0  0  0  0
 20 35  1  0  0  0  0
 21 22  1  0  0  0  0
 21 36  1  0  0  0  0
 21 37  1  0  0  0  0
 22 23  1  0  0  0  0
 22 38  1  0  0  0  0
 22 39  1  0  0  0  0
 23 40  1  0  0  0  0
 23 41  1  0  0  0  0
M  END
>  <DRUGBANK_ID>
DB08877

>  <SECONDARY_ACCESSION_NUMBERS>
DB06164

>  <COMMON_NAME>
Ruxolitinib

>  <CAS_NUMBER>
941678-49-5

>  <UNII>
82S8X8XX8H

>  <SYNONYMS>
Ruxolitinib

$$$$
