NBL
 OpenBabel10282417072D

 52 53  0  0  0  0  0  0  0  0999 V2000
    0.7792   -1.9404    0.0000 C   0  0  0  0  0  0  0  0  0  0  0  0
    0.7792   -1.1154    0.0000 C   0  0  0  0  0  0  0  0  0  0  0  0
    1.4937   -0.7029    0.0000 C   0  0  0  0  0  0  0  0  0  0  0  0
    0.0647   -0.7029    0.0000 C   0  0  0  0  0  0  0  0  0  0  0  0
    0.0647    0.1221    0.0000 C   0  0  2  0  0  0  0  0  0  0  0  0
   -0.6497    0.5346    0.0000 N   0  0  0  0  0  0  0  0  0  0  0  0
   -1.3642    0.1221    0.0000 C   0  0  0  0  0  0  0  0  0  0  0  0
   -1.3642   -0.7029    0.0000 O   0  0  0  0  0  0  0  0  0  0  0  0
   -2.0787    0.5346    0.0000 O   0  0  0  0  0  0  0  0  0  0  0  0
   -2.7932    0.1221    0.0000 C   0  0  0  0  0  0  0  0  0  0  0  0
   -3.5076    0.5346    0.0000 C   0  0  0  0  0  0  0  0  0  0  0  0
   -4.2221    0.1221    0.0000 C   0  0  0  0  0  0  0  0  0  0  0  0
   -4.9366    0.5346    0.0000 C   0  0  0  0  0  0  0  0  0  0  0  0
   -4.9366    1.3596    0.0000 C   0  0  0  0  0  0  0  0  0  0  0  0
   -4.2221    1.7721    0.0000 C   0  0  0  0  0  0  0  0  0  0  0  0
   -3.5076    1.3596    0.0000 C   0  0  0  0  0  0  0  0  0  0  0  0
    0.7792    0.5346    0.0000 C   0  0  0  0  0  0  0  0  0  0  0  0
    0.7792    1.3596    0.0000 O   0  0  0  0  0  0  0  0  0  0  0  0
    1.4937    0.1221    0.0000 N   0  0  0  0  0  0  0  0  0  0  0  0
    2.2081    0.5346    0.0000 C   0  0  2  0  0  0  0  0  0  0  0  0
    2.2944    1.3551    0.0000 C   0  0  0  0  0  0  0  0  0  0  0  0
    3.1013    1.5266    0.0000 C   0  0  0  0  0  0  0  0  0  0  0  0
    3.5138    0.8121    0.0000 N   0  0  0  0  0  0  0  0  0  0  0  0
    2.9618    0.1990    0.0000 C   0  0  0  0  0  0  0  0  0  0  0  0
    4.3343    0.7259    0.0000 C   0  0  0  0  0  0  0  0  0  0  0  0
    5.1548    0.6397    0.0000 N   0  0  0  0  0  0  0  0  0  0  0  0
   -0.4410   -0.1699    0.0000 H   0  0  0  0  0  0  0  0  0  0  0  0
    1.7184    0.8526    0.0000 H   0  0  0  0  0  0  0  0  0  0  0  0
   -0.1474   -2.4754    0.0000 H   0  0  0  0  0  0  0  0  0  0  0  0
    1.7058   -2.4754    0.0000 H   0  0  0  0  0  0  0  0  0  0  0  0
    0.7792   -3.0104    0.0000 H   0  0  0  0  0  0  0  0  0  0  0  0
    0.7792   -0.0454    0.0000 H   0  0  0  0  0  0  0  0  0  0  0  0
    2.4203   -1.2379    0.0000 H   0  0  0  0  0  0  0  0  0  0  0  0
    1.4937    0.3671    0.0000 H   0  0  0  0  0  0  0  0  0  0  0  0
    2.4204   -0.1679    0.0000 H   0  0  0  0  0  0  0  0  0  0  0  0
   -0.8619   -1.2379    0.0000 H   0  0  0  0  0  0  0  0  0  0  0  0
   -0.8619   -0.1679    0.0000 H   0  0  0  0  0  0  0  0  0  0  0  0
   -0.6497    1.5191    0.0000 H   0  0  0  0  0  0  0  0  0  0  0  0
   -2.7932   -0.9479    0.0000 H   0  0  0  0  0  0  0  0  0  0  0  0
   -3.7199   -0.4129    0.0000 H   0  0  0  0  0  0  0  0  0  0  0  0
   -4.2221   -0.9099    0.0000 H   0  0  0  0  0  0  0  0  0  0  0  0
   -5.8303    0.0186    0.0000 H   0  0  0  0  0  0  0  0  0  0  0  0
   -5.8303    1.8756    0.0000 H   0  0  0  0  0  0  0  0  0  0  0  0
   -4.2221    2.8041    0.0000 H   0  0  0  0  0  0  0  0  0  0  0  0
   -2.6139    1.8756    0.0000 H   0  0  0  0  0  0  0  0  0  0  0  0
    1.4937   -0.8624    0.0000 H   0  0  0  0  0  0  0  0  0  0  0  0
    1.4993    2.0711    0.0000 H   0  0  0  0  0  0  0  0  0  0  0  0
    2.5714    2.3886    0.0000 H   0  0  0  0  0  0  0  0  0  0  0  0
    3.5365    2.5041    0.0000 H   0  0  0  0  0  0  0  0  0  0  0  0
    4.1698    1.5826    0.0000 H   0  0  0  0  0  0  0  0  0  0  0  0
    3.1843   -0.8476    0.0000 H   0  0  0  0  0  0  0  0  0  0  0  0
    3.9953   -0.0779    0.0000 H   0  0  0  0  0  0  0  0  0  0  0  0
  1  2  1  0  0  0  0
  1 29  1  0  0  0  0
  1 30  1  0  0  0  0
  1 31  1  0  0  0  0
  2  3  1  0  0  0  0
  2  4  1  0  0  0  0
  2 32  1  0  0  0  0
  3 33  1  0  0  0  0
  3 34  1  0  0  0  0
  3 35  1  0  0  0  0
  4  5  1  0  0  0  0
  4 36  1  0  0  0  0
  4 37  1  0  0  0  0
  5  6  1  0  0  0  0
  5 17  1  0  0  0  0
  5 27  1  1  0  0  0
  6  7  1  0  0  0  0
  6 38  1  0  0  0  0
  7  8  2  0  0  0  0
  7  9  1  0  0  0  0
  9 10  1  0  0  0  0
 10 11  1  0  0  0  0
 10 39  1  0  0  0  0
 10 40  1  0  0  0  0
 11 12  2  0  0  0  0
 11 16  1  0  0  0  0
 12 13  1  0  0  0  0
 12 41  1  0  0  0  0
 13 14  2  0  0  0  0
 13 42  1  0  0  0  0
 14 15  1  0  0  0  0
 14 43  1  0  0  0  0
 15 16  2  0  0  0  0
 15 44  1  0  0  0  0
 16 45  1  0  0  0  0
 17 18  2  0  0  0  0
 17 19  1  0  0  0  0
 19 46  1  0  0  0  0
 20 19  1  0  0  0  0
 20 21  1  0  0  0  0
 20 24  1  0  0  0  0
 20 28  1  1  0  0  0
 21 22  1  0  0  0  0
 21 47  1  0  0  0  0
 21 48  1  0  0  0  0
 22 23  1  0  0  0  0
 22 49  1  0  0  0  0
 22 50  1  0  0  0  0
 23 24  1  0  0  0  0
 23 25  1  0  0  0  0
 24 51  1  0  0  0  0
 24 52  1  0  0  0  0
 25 26  3  0  0  0  0
M  END
>  <DRUGBANK_ID>
DB03456

>  <SECONDARY_ACCESSION_NUMBERS>
EXPT02301

>  <COMMON_NAME>
N2-[(benzyloxy)carbonyl]-n1-[(3S)-1-cyanopyrrolidin-3-yl]-l-leucinamide

$$$$
