KSF
 OpenBabel10282417072D

 36 39  0  0  0  0  0  0  0  0999 V2000
    0.9509    3.4168    0.0000 Cl  0  0  0  0  0  0  0  0  0  0  0  0
    0.2364    3.0043    0.0000 C   0  0  0  0  0  0  0  0  0  0  0  0
    0.2364    2.1793    0.0000 C   0  0  0  0  0  0  0  0  0  0  0  0
   -0.4781    1.7668    0.0000 C   0  0  0  0  0  0  0  0  0  0  0  0
   -1.1926    2.1793    0.0000 C   0  0  0  0  0  0  0  0  0  0  0  0
   -1.1926    3.0043    0.0000 C   0  0  0  0  0  0  0  0  0  0  0  0
   -0.4781    3.4168    0.0000 C   0  0  0  0  0  0  0  0  0  0  0  0
    0.9509    1.7668    0.0000 N   0  0  0  0  0  0  0  0  0  0  0  0
    0.9509    0.9418    0.0000 C   0  0  0  0  0  0  0  0  0  0  0  0
    1.6653    0.5293    0.0000 N   0  0  0  0  0  0  0  0  0  0  0  0
    1.6653   -0.2957    0.0000 C   0  0  0  0  0  0  0  0  0  0  0  0
    0.9509   -0.7082    0.0000 C   0  0  0  0  0  0  0  0  0  0  0  0
    0.2364   -0.2957    0.0000 N   0  0  0  0  0  0  0  0  0  0  0  0
   -0.5482   -0.5506    0.0000 C   0  0  0  0  0  0  0  0  0  0  0  0
   -1.0332    0.1168    0.0000 N   0  0  0  0  0  0  0  0  0  0  0  0
   -0.5482    0.7843    0.0000 C   0  0  0  0  0  0  0  0  0  0  0  0
    0.2364    0.5293    0.0000 C   0  0  0  0  0  0  0  0  0  0  0  0
    0.9509   -1.5332    0.0000 C   0  0  0  0  0  0  0  0  0  0  0  0
    1.6653   -1.9457    0.0000 C   0  0  0  0  0  0  0  0  0  0  0  0
    1.6653   -2.7707    0.0000 C   0  0  0  0  0  0  0  0  0  0  0  0
    0.9509   -3.1832    0.0000 C   0  0  0  0  0  0  0  0  0  0  0  0
    0.2364   -2.7707    0.0000 C   0  0  0  0  0  0  0  0  0  0  0  0
    0.2364   -1.9457    0.0000 C   0  0  0  0  0  0  0  0  0  0  0  0
   -0.4781    0.7348    0.0000 H   0  0  0  0  0  0  0  0  0  0  0  0
   -2.0863    1.6633    0.0000 H   0  0  0  0  0  0  0  0  0  0  0  0
   -2.0863    3.5203    0.0000 H   0  0  0  0  0  0  0  0  0  0  0  0
   -0.4781    4.4488    0.0000 H   0  0  0  0  0  0  0  0  0  0  0  0
    1.8035    2.2591    0.0000 H   0  0  0  0  0  0  0  0  0  0  0  0
    2.5590   -0.8117    0.0000 H   0  0  0  0  0  0  0  0  0  0  0  0
   -0.8671   -1.5321    0.0000 H   0  0  0  0  0  0  0  0  0  0  0  0
   -0.8671    1.7658    0.0000 H   0  0  0  0  0  0  0  0  0  0  0  0
    2.5590   -1.4297    0.0000 H   0  0  0  0  0  0  0  0  0  0  0  0
    2.5590   -3.2867    0.0000 H   0  0  0  0  0  0  0  0  0  0  0  0
    0.9509   -4.2152    0.0000 H   0  0  0  0  0  0  0  0  0  0  0  0
   -0.6573   -3.2867    0.0000 H   0  0  0  0  0  0  0  0  0  0  0  0
   -0.6573   -1.4297    0.0000 H   0  0  0  0  0  0  0  0  0  0  0  0
  1  2  1  0  0  0  0
  2  3  2  0  0  0  0
  2  7  1  0  0  0  0
  3  4  1  0  0  0  0
  3  8  1  0  0  0  0
  4  5  2  0  0  0  0
  4 24  1  0  0  0  0
  5  6  1  0  0  0  0
  5 25  1  0  0  0  0
  6  7  2  0  0  0  0
  6 26  1  0  0  0  0
  7 27  1  0  0  0  0
  8  9  1  0  0  0  0
  8 28  1  0  0  0  0
  9 10  2  0  0  0  0
  9 17  1  0  0  0  0
 10 11  1  0  0  0  0
 11 12  2  0  0  0  0
 11 29  1  0  0  0  0
 12 13  1  0  0  0  0
 12 18  1  0  0  0  0
 13 14  1  0  0  0  0
 13 17  1  0  0  0  0
 14 15  2  0  0  0  0
 14 30  1  0  0  0  0
 15 16  1  0  0  0  0
 16 17  2  0  0  0  0
 16 31  1  0  0  0  0
 18 19  2  0  0  0  0
 18 23  1  0  0  0  0
 19 20  1  0  0  0  0
 19 32  1  0  0  0  0
 20 21  2  0  0  0  0
 20 33  1  0  0  0  0
 21 22  1  0  0  0  0
 21 34  1  0  0  0  0
 22 23  2  0  0  0  0
 22 35  1  0  0  0  0
 23 36  1  0  0  0  0
M  END
>  <DRUGBANK_ID>
DB08055

>  <COMMON_NAME>
N-(2-chlorophenyl)-5-phenylimidazo[1,5-a]pyrazin-8-amine

$$$$
