
 OpenBabel10282417072D

 66 68  0  0  0  0  0  0  0  0999 V2000
    0.0000    5.2917    0.0000 C   0  0  0  0  0  0  0  0  0  0  0  0
    0.0000    4.4667    0.0000 O   0  0  0  0  0  0  0  0  0  0  0  0
    0.7145    4.0542    0.0000 C   0  0  0  0  0  0  0  0  0  0  0  0
    1.4289    4.4667    0.0000 C   0  0  0  0  0  0  0  0  0  0  0  0
    2.1434    4.0542    0.0000 C   0  0  0  0  0  0  0  0  0  0  0  0
    2.1434    3.2292    0.0000 C   0  0  0  0  0  0  0  0  0  0  0  0
    2.8579    2.8167    0.0000 C   0  0  0  0  0  0  0  0  0  0  0  0
    2.8579    1.9917    0.0000 C   0  0  0  0  0  0  0  0  0  0  0  0
    3.5724    1.5792    0.0000 C   0  0  0  0  0  0  0  0  0  0  0  0
    4.2868    1.9917    0.0000 O   0  0  0  0  0  0  0  0  0  0  0  0
    3.5724    0.7542    0.0000 C   0  0  3  0  0  0  0  0  0  0  0  0
    2.8579    0.3417    0.0000 C   0  0  0  0  0  0  0  0  0  0  0  0
    2.8579   -0.4833    0.0000 C   0  0  0  0  0  0  0  0  0  0  0  0
    3.4412   -1.0666    0.0000 C   0  0  0  0  0  0  0  0  0  0  0  0
    2.8579   -1.6500    0.0000 C   0  0  0  0  0  0  0  0  0  0  0  0
    2.2745   -1.0666    0.0000 C   0  0  0  0  0  0  0  0  0  0  0  0
    4.2868    0.3417    0.0000 C   0  0  0  0  0  0  0  0  0  0  0  0
    5.0013    0.7542    0.0000 O   0  0  0  0  0  0  0  0  0  0  0  0
    4.2868   -0.4833    0.0000 C   0  0  0  0  0  0  0  0  0  0  0  0
    5.0013   -0.8958    0.0000 C   0  0  0  0  0  0  0  0  0  0  0  0
    5.0013   -1.7208    0.0000 C   0  0  0  0  0  0  0  0  0  0  0  0
    5.7158   -2.1333    0.0000 C   0  0  0  0  0  0  0  0  0  0  0  0
    5.7158   -2.9583    0.0000 C   0  0  0  0  0  0  0  0  0  0  0  0
    5.0013   -3.3708    0.0000 C   0  0  0  0  0  0  0  0  0  0  0  0
    5.0013   -4.1958    0.0000 O   0  0  0  0  0  0  0  0  0  0  0  0
    5.7158   -4.6083    0.0000 C   0  0  0  0  0  0  0  0  0  0  0  0
    4.2868   -2.9583    0.0000 C   0  0  0  0  0  0  0  0  0  0  0  0
    3.5724   -3.3708    0.0000 O   0  0  0  0  0  0  0  0  0  0  0  0
    2.8579   -2.9583    0.0000 C   0  0  0  0  0  0  0  0  0  0  0  0
    4.2868   -2.1333    0.0000 C   0  0  0  0  0  0  0  0  0  0  0  0
    1.4289    2.8167    0.0000 C   0  0  0  0  0  0  0  0  0  0  0  0
    0.7145    3.2292    0.0000 C   0  0  0  0  0  0  0  0  0  0  0  0
    0.0000    2.8167    0.0000 O   0  0  0  0  0  0  0  0  0  0  0  0
   -0.7145    3.2292    0.0000 C   0  0  0  0  0  0  0  0  0  0  0  0
    0.9266    5.8267    0.0000 H   0  0  0  0  0  0  0  0  0  0  0  0
   -0.9266    5.8267    0.0000 H   0  0  0  0  0  0  0  0  0  0  0  0
    0.0000    6.3617    0.0000 H   0  0  0  0  0  0  0  0  0  0  0  0
    1.4289    5.4987    0.0000 H   0  0  0  0  0  0  0  0  0  0  0  0
    3.0371    4.5702    0.0000 H   0  0  0  0  0  0  0  0  0  0  0  0
    3.7516    3.3327    0.0000 H   0  0  0  0  0  0  0  0  0  0  0  0
    1.9642    1.4757    0.0000 H   0  0  0  0  0  0  0  0  0  0  0  0
    2.6458    1.2892    0.0000 H   0  0  0  0  0  0  0  0  0  0  0  0
    1.9313    0.8767    0.0000 H   0  0  0  0  0  0  0  0  0  0  0  0
    1.9313   -0.1933    0.0000 H   0  0  0  0  0  0  0  0  0  0  0  0
    2.8579   -1.5533    0.0000 H   0  0  0  0  0  0  0  0  0  0  0  0
    4.5112   -1.0666    0.0000 H   0  0  0  0  0  0  0  0  0  0  0  0
    3.8507   -2.0551    0.0000 H   0  0  0  0  0  0  0  0  0  0  0  0
    2.8579   -2.7200    0.0000 H   0  0  0  0  0  0  0  0  0  0  0  0
    1.8694   -2.0595    0.0000 H   0  0  0  0  0  0  0  0  0  0  0  0
    1.2045   -1.0666    0.0000 H   0  0  0  0  0  0  0  0  0  0  0  0
    1.8651   -0.0780    0.0000 H   0  0  0  0  0  0  0  0  0  0  0  0
    3.3931   -0.9993    0.0000 H   0  0  0  0  0  0  0  0  0  0  0  0
    5.8950   -0.3798    0.0000 H   0  0  0  0  0  0  0  0  0  0  0  0
    6.6095   -1.6173    0.0000 H   0  0  0  0  0  0  0  0  0  0  0  0
    6.6095   -3.4743    0.0000 H   0  0  0  0  0  0  0  0  0  0  0  0
    5.7158   -5.6783    0.0000 H   0  0  0  0  0  0  0  0  0  0  0  0
    6.6424   -4.0733    0.0000 H   0  0  0  0  0  0  0  0  0  0  0  0
    6.6425   -5.1433    0.0000 H   0  0  0  0  0  0  0  0  0  0  0  0
    2.8579   -1.8883    0.0000 H   0  0  0  0  0  0  0  0  0  0  0  0
    1.9313   -3.4933    0.0000 H   0  0  0  0  0  0  0  0  0  0  0  0
    1.9312   -2.4233    0.0000 H   0  0  0  0  0  0  0  0  0  0  0  0
    3.3931   -1.6173    0.0000 H   0  0  0  0  0  0  0  0  0  0  0  0
    1.4289    1.7847    0.0000 H   0  0  0  0  0  0  0  0  0  0  0  0
   -0.7145    4.2992    0.0000 H   0  0  0  0  0  0  0  0  0  0  0  0
   -1.6411    2.6942    0.0000 H   0  0  0  0  0  0  0  0  0  0  0  0
   -1.6412    3.7642    0.0000 H   0  0  0  0  0  0  0  0  0  0  0  0
  1  2  1  0  0  0  0
  1 35  1  0  0  0  0
  1 36  1  0  0  0  0
  1 37  1  0  0  0  0
  2  3  1  0  0  0  0
  3  4  2  0  0  0  0
  3 32  1  0  0  0  0
  4  5  1  0  0  0  0
  4 38  1  0  0  0  0
  5  6  2  0  0  0  0
  5 39  1  0  0  0  0
  6  7  1  0  0  0  0
  6 31  1  0  0  0  0
  7  8  2  0  0  0  0
  7 40  1  0  0  0  0
  8  9  1  0  0  0  0
  8 41  1  0  0  0  0
  9 10  2  0  0  0  0
  9 11  1  0  0  0  0
 11 12  1  0  0  0  0
 11 17  1  0  0  0  0
 11 42  1  0  0  0  0
 12 13  1  0  0  0  0
 12 43  1  0  0  0  0
 12 44  1  0  0  0  0
 13 14  1  0  0  0  0
 13 16  1  0  0  0  0
 13 45  1  0  0  0  0
 14 15  1  0  0  0  0
 14 46  1  0  0  0  0
 14 47  1  0  0  0  0
 15 16  1  0  0  0  0
 15 48  1  0  0  0  0
 15 49  1  0  0  0  0
 16 50  1  0  0  0  0
 16 51  1  0  0  0  0
 17 18  2  0  0  0  0
 17 19  1  0  0  0  0
 19 20  2  0  0  0  0
 19 52  1  0  0  0  0
 20 21  1  0  0  0  0
 20 53  1  0  0  0  0
 21 22  2  0  0  0  0
 21 30  1  0  0  0  0
 22 23  1  0  0  0  0
 22 54  1  0  0  0  0
 23 24  2  0  0  0  0
 23 55  1  0  0  0  0
 24 25  1  0  0  0  0
 24 27  1  0  0  0  0
 25 26  1  0  0  0  0
 26 56  1  0  0  0  0
 26 57  1  0  0  0  0
 26 58  1  0  0  0  0
 27 28  1  0  0  0  0
 27 30  2  0  0  0  0
 28 29  1  0  0  0  0
 29 59  1  0  0  0  0
 29 60  1  0  0  0  0
 29 61  1  0  0  0  0
 30 62  1  0  0  0  0
 31 32  2  0  0  0  0
 31 63  1  0  0  0  0
 32 33  1  0  0  0  0
 33 34  1  0  0  0  0
 34 64  1  0  0  0  0
 34 65  1  0  0  0  0
 34 66  1  0  0  0  0
M  END
>  <DRUGBANK_ID>
DB16931

>  <COMMON_NAME>
ASC-JM-17

>  <CAS_NUMBER>
1039760-91-2

>  <UNII>
5VLL140BN9

>  <SYNONYMS>
(1e,6e)-1,7-bis(3,4-dimethoxyphenyl)-4-cyclobutylmethyl-1,6-heptadiene-3,5-dione; (1e,6e)-4-(cyclobutylmethyl)-1,7-bis(3,4-dimethoxyphenyl)-1,6-heptadiene-3,5-dione; 1,6-heptadiene-3,5-dione, 4-(cyclobutylmethyl)-1,7-bis(3,4-dimethoxyphenyl)-, (1e,6e)-

$$$$
