A3M
 OpenBabel10282417072D

 30 30  0  0  0  0  0  0  0  0999 V2000
    0.9744    1.6063    0.0000 C   0  0  0  0  0  0  0  0  0  0  0  0
    0.7195    0.8217    0.0000 C   0  0  0  0  0  0  0  0  0  0  0  0
   -0.1055    0.8217    0.0000 N   0  0  0  0  0  0  0  0  0  0  0  0
   -0.3605    1.6063    0.0000 C   0  0  0  0  0  0  0  0  0  0  0  0
    0.3070    2.0912    0.0000 C   0  0  0  0  0  0  0  0  0  0  0  0
   -0.5904    0.1543    0.0000 C   0  0  0  0  0  0  0  0  0  0  0  0
   -0.2549   -0.5994    0.0000 C   0  0  2  0  0  0  0  0  0  0  0  0
   -0.7398   -1.2669    0.0000 C   0  0  0  0  0  0  0  0  0  0  0  0
   -0.4042   -2.0205    0.0000 C   0  0  0  0  0  0  0  0  0  0  0  0
   -1.4109    0.2405    0.0000 O   0  0  0  0  0  0  0  0  0  0  0  0
    0.5656   -0.6857    0.0000 N   0  0  0  0  0  0  0  0  0  0  0  0
   -1.5603   -1.1806    0.0000 C   0  0  0  0  0  0  0  0  0  0  0  0
   -0.8356   -0.5384    0.0000 H   0  0  0  0  0  0  0  0  0  0  0  0
    1.9920    1.9370    0.0000 H   0  0  0  0  0  0  0  0  0  0  0  0
    1.1418    2.6631    0.0000 H   0  0  0  0  0  0  0  0  0  0  0  0
    1.3484   -0.0439    0.0000 H   0  0  0  0  0  0  0  0  0  0  0  0
    0.2337   -0.1317    0.0000 H   0  0  0  0  0  0  0  0  0  0  0  0
   -1.3781    1.9369    0.0000 H   0  0  0  0  0  0  0  0  0  0  0  0
   -0.5279    2.6631    0.0000 H   0  0  0  0  0  0  0  0  0  0  0  0
    0.3070    3.1612    0.0000 H   0  0  0  0  0  0  0  0  0  0  0  0
   -0.6464    2.5770    0.0000 H   0  0  0  0  0  0  0  0  0  0  0  0
   -1.3687   -2.1326    0.0000 H   0  0  0  0  0  0  0  0  0  0  0  0
   -1.0331   -2.8862    0.0000 H   0  0  0  0  0  0  0  0  0  0  0  0
    0.6599   -2.1323    0.0000 H   0  0  0  0  0  0  0  0  0  0  0  0
    0.0311   -2.9980    0.0000 H   0  0  0  0  0  0  0  0  0  0  0  0
    0.9804   -1.6175    0.0000 H   0  0  0  0  0  0  0  0  0  0  0  0
    1.1652    0.1395    0.0000 H   0  0  0  0  0  0  0  0  0  0  0  0
   -1.9954   -0.2031    0.0000 H   0  0  0  0  0  0  0  0  0  0  0  0
   -2.1893   -2.0462    0.0000 H   0  0  0  0  0  0  0  0  0  0  0  0
   -2.6244   -1.0687    0.0000 H   0  0  0  0  0  0  0  0  0  0  0  0
  1  2  1  0  0  0  0
  1  5  1  0  0  0  0
  1 14  1  0  0  0  0
  1 15  1  0  0  0  0
  2  3  1  0  0  0  0
  2 16  1  0  0  0  0
  2 17  1  0  0  0  0
  3  4  1  0  0  0  0
  3  6  1  0  0  0  0
  4  5  1  0  0  0  0
  4 18  1  0  0  0  0
  4 19  1  0  0  0  0
  5 20  1  0  0  0  0
  5 21  1  0  0  0  0
  6  7  1  0  0  0  0
  6 10  2  0  0  0  0
  7  8  1  0  0  0  0
  7 11  1  0  0  0  0
  7 13  1  6  0  0  0
  8  9  1  0  0  0  0
  8 12  1  0  0  0  0
  8 22  1  0  0  0  0
  9 23  1  0  0  0  0
  9 24  1  0  0  0  0
  9 25  1  0  0  0  0
 11 26  1  0  0  0  0
 11 27  1  0  0  0  0
 12 28  1  0  0  0  0
 12 29  1  0  0  0  0
 12 30  1  0  0  0  0
M  END
>  <DRUGBANK_ID>
DB01884

>  <SECONDARY_ACCESSION_NUMBERS>
EXPT00369

>  <COMMON_NAME>
2-Amino-3-Methyl-1-Pyrrolidin-1-Yl-Butan-1-One

$$$$
