CTL
 OpenBabel10282417072D

 25 26  0  0  0  0  0  0  0  0999 V2000
   -0.2047   -0.5717    0.0000 C   0  0  1  0  0  0  0  0  0  0  0  0
   -0.9192   -0.1592    0.0000 C   0  0  2  0  0  0  0  0  0  0  0  0
   -0.9192    0.6658    0.0000 C   0  0  0  0  0  0  0  0  0  0  0  0
   -0.2047    1.0783    0.0000 C   0  0  0  0  0  0  0  0  0  0  0  0
    0.5097    0.6658    0.0000 C   0  0  0  0  0  0  0  0  0  0  0  0
    1.2242    1.0783    0.0000 C   0  0  0  0  0  0  0  0  0  0  0  0
    0.5097   -0.1592    0.0000 C   0  0  0  0  0  0  0  0  0  0  0  0
    1.2242   -0.5717    0.0000 C   0  0  0  0  0  0  0  0  0  0  0  0
    1.9387   -0.1592    0.0000 C   0  0  0  0  0  0  0  0  0  0  0  0
    1.9387    0.6658    0.0000 C   0  0  0  0  0  0  0  0  0  0  0  0
   -0.2047   -1.3967    0.0000 O   0  0  0  0  0  0  0  0  0  0  0  0
   -1.6337   -0.5717    0.0000 N   0  0  0  0  0  0  0  0  0  0  0  0
   -0.5801   -1.0191    0.0000 H   0  0  0  0  0  0  0  0  0  0  0  0
   -1.1189   -0.7079    0.0000 H   0  0  0  0  0  0  0  0  0  0  0  0
   -1.8458    1.2008    0.0000 H   0  0  0  0  0  0  0  0  0  0  0  0
   -0.9192    1.7358    0.0000 H   0  0  0  0  0  0  0  0  0  0  0  0
   -0.2047    2.1483    0.0000 H   0  0  0  0  0  0  0  0  0  0  0  0
    0.7220    1.6133    0.0000 H   0  0  0  0  0  0  0  0  0  0  0  0
    1.2242    2.1103    0.0000 H   0  0  0  0  0  0  0  0  0  0  0  0
    1.2242   -1.6037    0.0000 H   0  0  0  0  0  0  0  0  0  0  0  0
    2.8324   -0.6752    0.0000 H   0  0  0  0  0  0  0  0  0  0  0  0
    2.8324    1.1818    0.0000 H   0  0  0  0  0  0  0  0  0  0  0  0
   -1.0447   -1.8817    0.0000 H   0  0  0  0  0  0  0  0  0  0  0  0
   -2.5170   -0.0617    0.0000 H   0  0  0  0  0  0  0  0  0  0  0  0
   -1.6337   -1.5917    0.0000 H   0  0  0  0  0  0  0  0  0  0  0  0
  1  2  1  0  0  0  0
  1  7  1  0  0  0  0
  1 11  1  0  0  0  0
  1 13  1  6  0  0  0
  2  3  1  0  0  0  0
  2 12  1  0  0  0  0
  2 14  1  6  0  0  0
  3  4  1  0  0  0  0
  3 15  1  0  0  0  0
  3 16  1  0  0  0  0
  4  5  1  0  0  0  0
  4 17  1  0  0  0  0
  4 18  1  0  0  0  0
  5  6  2  0  0  0  0
  5  7  1  0  0  0  0
  6 10  1  0  0  0  0
  6 19  1  0  0  0  0
  7  8  2  0  0  0  0
  8  9  1  0  0  0  0
  8 20  1  0  0  0  0
  9 10  2  0  0  0  0
  9 21  1  0  0  0  0
 10 22  1  0  0  0  0
 11 23  1  0  0  0  0
 12 24  1  0  0  0  0
 12 25  1  0  0  0  0
M  END
>  <DRUGBANK_ID>
DB07597

>  <COMMON_NAME>
CIS-(1R,2S)-2-AMINO-1,2,3,4-TETRAHYDRONAPHTHALEN-1-OL

$$$$
