
 OpenBabel10282417072D

 61 63  0  0  0  0  0  0  0  0999 V2000
    2.9371    0.4866    0.0000 C   0  0  0  0  0  0  0  0  0  0  0  0
    2.9371   -0.4521    0.0000 C   0  0  0  0  0  0  0  0  0  0  0  0
    2.2054    0.9042    0.0000 C   0  0  0  0  0  0  0  0  0  0  0  0
    3.6757    0.7489    0.0000 N   0  0  0  0  0  0  0  0  0  0  0  0
    2.1917   -0.8974    0.0000 N   0  0  0  0  0  0  0  0  0  0  0  0
    3.6895   -0.7109    0.0000 N   0  0  0  0  0  0  0  0  0  0  0  0
    1.4150    0.4487    0.0000 N   0  0  0  0  0  0  0  0  0  0  0  0
    2.2054    1.7498    0.0000 O   0  0  0  0  0  0  0  0  0  0  0  0
    4.2073    0.0483    0.0000 C   0  0  0  0  0  0  0  0  0  0  0  0
    1.4150   -0.4521    0.0000 C   0  0  0  0  0  0  0  0  0  0  0  0
    2.2054   -1.7360    0.0000 C   0  0  0  0  0  0  0  0  0  0  0  0
    0.6868    0.8524    0.0000 C   0  0  0  0  0  0  0  0  0  0  0  0
    5.0528    0.0517    0.0000 Cl  0  0  0  0  0  0  0  0  0  0  0  0
    0.6903   -0.8904    0.0000 O   0  0  0  0  0  0  0  0  0  0  0  0
   -2.9129   -0.8283    0.0000 C   0  0  0  0  0  0  0  0  0  0  0  0
   -2.1881   -1.2286    0.0000 C   0  0  0  0  0  0  0  0  0  0  0  0
   -3.6308   -1.2494    0.0000 C   0  0  0  0  0  0  0  0  0  0  0  0
   -2.9129    0.0102    0.0000 O   0  0  0  0  0  0  0  0  0  0  0  0
   -2.2123   -2.0501    0.0000 C   0  0  0  0  0  0  0  0  0  0  0  0
   -1.4668   -0.8283    0.0000 C   0  0  0  0  0  0  0  0  0  0  0  0
   -3.6308   -2.0915    0.0000 C   0  0  0  0  0  0  0  0  0  0  0  0
   -4.3314   -0.8490    0.0000 C   0  0  0  0  0  0  0  0  0  0  0  0
   -3.6308    0.4383    0.0000 C   0  0  0  0  0  0  0  0  0  0  0  0
   -1.4875   -2.4643    0.0000 C   0  0  0  0  0  0  0  0  0  0  0  0
   -0.7662   -1.2494    0.0000 C   0  0  0  0  0  0  0  0  0  0  0  0
   -4.3314   -2.4919    0.0000 C   0  0  0  0  0  0  0  0  0  0  0  0
   -5.0528   -1.2494    0.0000 C   0  0  0  0  0  0  0  0  0  0  0  0
   -3.6308    1.2528    0.0000 C   0  0  0  0  0  0  0  0  0  0  0  0
   -0.7662   -2.0639    0.0000 C   0  0  0  0  0  0  0  0  0  0  0  0
   -5.0528   -2.0915    0.0000 C   0  0  0  0  0  0  0  0  0  0  0  0
   -4.3314    1.6738    0.0000 N   0  0  0  0  0  0  0  0  0  0  0  0
   -4.3314    2.4919    0.0000 C   0  0  0  0  0  0  0  0  0  0  0  0
   -5.0528    1.2528    0.0000 C   0  0  0  0  0  0  0  0  0  0  0  0
    3.9996   -1.6453    0.0000 H   0  0  0  0  0  0  0  0  0  0  0  0
    1.2876   -2.2861    0.0000 H   0  0  0  0  0  0  0  0  0  0  0  0
    3.1407   -2.2558    0.0000 H   0  0  0  0  0  0  0  0  0  0  0  0
    2.2229   -2.8059    0.0000 H   0  0  0  0  0  0  0  0  0  0  0  0
    0.6682    1.9222    0.0000 H   0  0  0  0  0  0  0  0  0  0  0  0
   -0.2304    0.3014    0.0000 H   0  0  0  0  0  0  0  0  0  0  0  0
   -0.2490    1.3712    0.0000 H   0  0  0  0  0  0  0  0  0  0  0  0
   -3.8414   -0.2965    0.0000 H   0  0  0  0  0  0  0  0  0  0  0  0
   -3.1124   -2.5549    0.0000 H   0  0  0  0  0  0  0  0  0  0  0  0
   -1.4490    0.2035    0.0000 H   0  0  0  0  0  0  0  0  0  0  0  0
   -2.7382   -2.6095    0.0000 H   0  0  0  0  0  0  0  0  0  0  0  0
   -4.3249    0.1830    0.0000 H   0  0  0  0  0  0  0  0  0  0  0  0
   -4.5612   -0.0901    0.0000 H   0  0  0  0  0  0  0  0  0  0  0  0
   -4.5556    0.9766    0.0000 H   0  0  0  0  0  0  0  0  0  0  0  0
   -1.4939   -3.4963    0.0000 H   0  0  0  0  0  0  0  0  0  0  0  0
    0.1320   -0.7413    0.0000 H   0  0  0  0  0  0  0  0  0  0  0  0
   -4.3249   -3.5239    0.0000 H   0  0  0  0  0  0  0  0  0  0  0  0
   -5.9421   -0.7259    0.0000 H   0  0  0  0  0  0  0  0  0  0  0  0
   -2.6995    1.7797    0.0000 H   0  0  0  0  0  0  0  0  0  0  0  0
   -3.6168    2.3227    0.0000 H   0  0  0  0  0  0  0  0  0  0  0  0
    0.1232   -2.5874    0.0000 H   0  0  0  0  0  0  0  0  0  0  0  0
   -5.9421   -2.6150    0.0000 H   0  0  0  0  0  0  0  0  0  0  0  0
   -3.4048    3.0269    0.0000 H   0  0  0  0  0  0  0  0  0  0  0  0
   -5.2580    3.0269    0.0000 H   0  0  0  0  0  0  0  0  0  0  0  0
   -4.3314    3.5619    0.0000 H   0  0  0  0  0  0  0  0  0  0  0  0
   -5.9819    1.7835    0.0000 H   0  0  0  0  0  0  0  0  0  0  0  0
   -5.0478    0.1828    0.0000 H   0  0  0  0  0  0  0  0  0  0  0  0
   -5.9769    0.7135    0.0000 H   0  0  0  0  0  0  0  0  0  0  0  0
  1  2  2  0  0  0  0
  1  3  1  0  0  0  0
  1  4  1  0  0  0  0
  2  5  1  0  0  0  0
  2  6  1  0  0  0  0
  3  7  1  0  0  0  0
  3  8  2  0  0  0  0
  4  9  2  0  0  0  0
  5 10  1  0  0  0  0
  5 11  1  0  0  0  0
  6  9  1  0  0  0  0
  6 34  1  0  0  0  0
  7 12  1  0  0  0  0
  7 10  1  0  0  0  0
  9 13  1  0  0  0  0
 10 14  2  0  0  0  0
 11 35  1  0  0  0  0
 11 36  1  0  0  0  0
 11 37  1  0  0  0  0
 12 38  1  0  0  0  0
 12 39  1  0  0  0  0
 12 40  1  0  0  0  0
 15 16  1  0  0  0  0
 15 17  1  0  0  0  0
 15 18  1  0  0  0  0
 15 41  1  0  0  0  0
 16 19  1  0  0  0  0
 16 20  2  0  0  0  0
 17 21  2  0  0  0  0
 17 22  1  0  0  0  0
 18 23  1  0  0  0  0
 19 24  2  0  0  0  0
 19 42  1  0  0  0  0
 20 25  1  0  0  0  0
 20 43  1  0  0  0  0
 21 26  1  0  0  0  0
 21 44  1  0  0  0  0
 22 27  2  0  0  0  0
 22 45  1  0  0  0  0
 23 28  1  0  0  0  0
 23 46  1  0  0  0  0
 23 47  1  0  0  0  0
 24 29  1  0  0  0  0
 24 48  1  0  0  0  0
 25 29  2  0  0  0  0
 25 49  1  0  0  0  0
 26 30  2  0  0  0  0
 26 50  1  0  0  0  0
 27 30  1  0  0  0  0
 27 51  1  0  0  0  0
 28 31  1  0  0  0  0
 28 52  1  0  0  0  0
 28 53  1  0  0  0  0
 29 54  1  0  0  0  0
 30 55  1  0  0  0  0
 31 32  1  0  0  0  0
 31 33  1  0  0  0  0
 32 56  1  0  0  0  0
 32 57  1  0  0  0  0
 32 58  1  0  0  0  0
 33 59  1  0  0  0  0
 33 60  1  0  0  0  0
 33 61  1  0  0  0  0
M  END
>  <DRUGBANK_ID>
DB00985

>  <SECONDARY_ACCESSION_NUMBERS>
APRD00924

>  <COMMON_NAME>
Dimenhydrinate

>  <CAS_NUMBER>
523-87-5

>  <UNII>
JB937PER5C

>  <SYNONYMS>
(O-benzhydryl(dimethylamino)ethanol) 8-chlorotheophyllinate; 8-chloro-1,3-dimethyl-3,7-dihydro-1H-purine-2,6-dione - 2-(diphenylmethoxy)-N,N-dimethylethanamine (1:1); Benzhydryl-β-dimethylaminoethylether 8-chlorotheophylline; Dimenhidrinato; Dimenhydrinate; Dimenhydrinatum; diphenhydramine 8-chlorotheophyllinate; diphenhydramine 8-chlorotheophylline; Diphenhydramine theoclate; N,N-dimethyl-2-diphenylmethoxyethylamine 8-chlorotheophyllinate; O-benzhydryldimethylaminoethanol 8-chlorotheophyllinate; β-dimethylaminoethyl benzhydryl ether 1,3-dimethyl-8-chloroxanthine

$$$$
