128
 OpenBabel10282417072D

 16 15  0  0  1  0  0  0  0  0999 V2000
    5.6655   -0.0784    0.0000 O   0  0  0  0  0  0  0  0  0  0  0  0
    2.0930    0.3341    0.0000 O   0  0  0  0  0  0  0  0  0  0  0  0
    4.9509    1.1592    0.0000 O   0  0  0  0  0  0  0  0  0  0  0  0
    2.8075   -0.9034    0.0000 O   0  0  0  0  0  0  0  0  0  0  0  0
    4.2365   -0.9034    0.0000 N   0  0  0  0  0  0  0  0  0  0  0  0
    4.2365   -0.0784    0.0000 C   0  0  1  0  0  0  0  0  0  0  0  0
    3.5220    0.3341    0.0000 C   0  0  0  0  0  0  0  0  0  0  0  0
    4.9509    0.3341    0.0000 C   0  0  0  0  0  0  0  0  0  0  0  0
    2.8075   -0.0784    0.0000 C   0  0  0  0  0  0  0  0  0  0  0  0
    5.6656   -1.0154    0.0000 H   0  0  0  0  0  0  0  0  0  0  0  0
    2.0930    1.2711    0.0000 H   0  0  0  0  0  0  0  0  0  0  0  0
    3.3532   -1.4134    0.0000 H   0  0  0  0  0  0  0  0  0  0  0  0
    5.1198   -1.4134    0.0000 H   0  0  0  0  0  0  0  0  0  0  0  0
    3.3099   -0.6134    0.0000 H   0  0  0  0  0  0  0  0  0  0  0  0
    3.5220    1.4041    0.0000 H   0  0  0  0  0  0  0  0  0  0  0  0
    2.5954    0.8691    0.0000 H   0  0  0  0  0  0  0  0  0  0  0  0
  1  8  1  0  0  0  0
  1 10  1  0  0  0  0
  2  9  1  0  0  0  0
  2 11  1  0  0  0  0
  3  8  2  0  0  0  0
  4  9  2  0  0  0  0
  5 12  1  0  0  0  0
  5 13  1  0  0  0  0
  6  5  1  0  0  0  0
  6  7  1  0  0  0  0
  6  8  1  0  0  0  0
  6 14  1  6  0  0  0
  7  9  1  0  0  0  0
  7 15  1  0  0  0  0
  7 16  1  0  0  0  0
M  END
>  <DRUGBANK_ID>
DB00128

>  <SECONDARY_ACCESSION_NUMBERS>
NUTR00016; EXPT01823

>  <COMMON_NAME>
Aspartic acid

>  <CAS_NUMBER>
56-84-8

>  <UNII>
30KYC7MIAI

>  <SYNONYMS>
(S)-2-aminobutanedioic acid; (S)-2-aminosuccinic acid; 2-Aminosuccinic acid; ácido aspártico; Acidum asparticum; Asp; Aspartic acid; D; L-Asp; L-Asparaginsäure; L-Aspartate; L-Aspartic acid

$$$$
