
 OpenBabel10282417072D

 55 58  0  0  0  0  0  0  0  0999 V2000
    1.1657    0.4291    0.0000 C   0  0  1  0  0  0  0  0  0  0  0  0
   -0.2465   -0.4170    0.0000 C   0  0  2  0  0  0  0  0  0  0  0  0
   -0.9619   -0.8461    0.0000 C   0  0  2  0  0  0  0  0  0  0  0  0
    1.1566   -0.3652    0.0000 C   0  0  2  0  0  0  0  0  0  0  0  0
    1.9268    0.7213    0.0000 C   0  0  2  0  0  0  0  0  0  0  0  0
    0.4444   -0.8127    0.0000 C   0  0  2  0  0  0  0  0  0  0  0  0
    2.4259    0.0730    0.0000 C   0  0  0  0  0  0  0  0  0  0  0  0
   -0.9619   -1.6711    0.0000 C   0  0  0  0  0  0  0  0  0  0  0  0
   -0.2465    0.4108    0.0000 C   0  0  2  0  0  0  0  0  0  0  0  0
    0.4078    0.8340    0.0000 C   0  0  0  0  0  0  0  0  0  0  0  0
    1.9602   -0.6209    0.0000 C   0  0  0  0  0  0  0  0  0  0  0  0
   -1.7076   -0.4474    0.0000 C   0  0  0  0  0  0  0  0  0  0  0  0
   -1.6619   -2.1093    0.0000 C   0  0  0  0  0  0  0  0  0  0  0  0
    1.8720    1.5341    0.0000 C   0  0  0  0  0  0  0  0  0  0  0  0
    0.4444   -1.6406    0.0000 C   0  0  0  0  0  0  0  0  0  0  0  0
   -2.4198   -0.8857    0.0000 C   0  0  0  0  0  0  0  0  0  0  0  0
   -2.4289   -1.7076    0.0000 C   0  0  0  0  0  0  0  0  0  0  0  0
   -0.2130   -2.0728    0.0000 C   0  0  0  0  0  0  0  0  0  0  0  0
    3.1230    0.0730    0.0000 C   0  0  0  0  0  0  0  0  0  0  0  0
   -0.2404   -1.1292    0.0000 F   0  0  0  0  0  0  0  0  0  0  0  0
    2.6664    1.7807    0.0000 O   0  0  0  0  0  0  0  0  0  0  0  0
   -3.1230   -2.1550    0.0000 O   0  0  0  0  0  0  0  0  0  0  0  0
    2.7820    0.8127    0.0000 O   0  0  0  0  0  0  0  0  0  0  0  0
    1.0378    1.2327    0.0000 C   0  0  0  0  0  0  0  0  0  0  0  0
   -0.9710    0.7792    0.0000 O   0  0  0  0  0  0  0  0  0  0  0  0
   -0.9801   -0.0273    0.0000 C   0  0  0  0  0  0  0  0  0  0  0  0
    1.3392    2.1550    0.0000 C   0  0  0  0  0  0  0  0  0  0  0  0
    0.5266    2.0363    0.0000 O   0  0  0  0  0  0  0  0  0  0  0  0
    0.4170   -0.1004    0.0000 H   0  0  0  0  0  0  0  0  0  0  0  0
    1.3971   -1.2022    0.0000 H   0  0  0  0  0  0  0  0  0  0  0  0
   -1.1586   -0.1486    0.0000 H   0  0  0  0  0  0  0  0  0  0  0  0
    0.3632    1.9031    0.0000 H   0  0  0  0  0  0  0  0  0  0  0  0
    1.3138    1.4032    0.0000 H   0  0  0  0  0  0  0  0  0  0  0  0
    2.3128   -1.6311    0.0000 H   0  0  0  0  0  0  0  0  0  0  0  0
    3.0215   -0.7571    0.0000 H   0  0  0  0  0  0  0  0  0  0  0  0
   -1.7389    0.5841    0.0000 H   0  0  0  0  0  0  0  0  0  0  0  0
   -1.6222   -3.1405    0.0000 H   0  0  0  0  0  0  0  0  0  0  0  0
    1.3862   -2.1485    0.0000 H   0  0  0  0  0  0  0  0  0  0  0  0
    0.4909   -2.7096    0.0000 H   0  0  0  0  0  0  0  0  0  0  0  0
   -3.3179   -0.3773    0.0000 H   0  0  0  0  0  0  0  0  0  0  0  0
   -0.1653   -3.1417    0.0000 H   0  0  0  0  0  0  0  0  0  0  0  0
   -1.1187   -2.6426    0.0000 H   0  0  0  0  0  0  0  0  0  0  0  0
    3.6390   -0.8207    0.0000 H   0  0  0  0  0  0  0  0  0  0  0  0
    3.6390    0.9667    0.0000 H   0  0  0  0  0  0  0  0  0  0  0  0
    3.3535    0.0290    0.0000 H   0  0  0  0  0  0  0  0  0  0  0  0
    1.8688    1.9067    0.0000 H   0  0  0  0  0  0  0  0  0  0  0  0
    0.0386    1.6154    0.0000 H   0  0  0  0  0  0  0  0  0  0  0  0
    0.8696    2.2894    0.0000 H   0  0  0  0  0  0  0  0  0  0  0  0
   -1.0226    1.7478    0.0000 H   0  0  0  0  0  0  0  0  0  0  0  0
   -0.0656    0.5282    0.0000 H   0  0  0  0  0  0  0  0  0  0  0  0
   -1.9184    0.4870    0.0000 H   0  0  0  0  0  0  0  0  0  0  0  0
   -1.0039    1.0424    0.0000 H   0  0  0  0  0  0  0  0  0  0  0  0
    1.7144    3.1571    0.0000 H   0  0  0  0  0  0  0  0  0  0  0  0
    0.6674    2.9878    0.0000 H   0  0  0  0  0  0  0  0  0  0  0  0
   -0.0747    2.7974    0.0000 H   0  0  0  0  0  0  0  0  0  0  0  0
  1 24  1  1  0  0  0
  2  9  1  0  0  0  0
  2 20  1  6  0  0  0
  2  6  1  0  0  0  0
  3  2  1  0  0  0  0
  3 26  1  1  0  0  0
  4  1  1  0  0  0  0
  4 30  1  6  0  0  0
  5  1  1  0  0  0  0
  5 14  1  1  0  0  0
  5 23  1  0  0  0  0
  6  4  1  0  0  0  0
  6 29  1  1  0  0  0
  7  5  1  0  0  0  0
  8  3  1  0  0  0  0
  8 18  1  0  0  0  0
  9 10  1  0  0  0  0
  9 25  1  0  0  0  0
  9 31  1  6  0  0  0
 10  1  1  0  0  0  0
 10 32  1  0  0  0  0
 10 33  1  0  0  0  0
 11  4  1  0  0  0  0
 11  7  1  0  0  0  0
 11 34  1  0  0  0  0
 11 35  1  0  0  0  0
 12  3  1  0  0  0  0
 12 36  1  0  0  0  0
 13  8  2  0  0  0  0
 13 17  1  0  0  0  0
 13 37  1  0  0  0  0
 15  6  1  0  0  0  0
 15 38  1  0  0  0  0
 15 39  1  0  0  0  0
 16 12  2  0  0  0  0
 16 40  1  0  0  0  0
 17 16  1  0  0  0  0
 18 15  1  0  0  0  0
 18 41  1  0  0  0  0
 18 42  1  0  0  0  0
 19  7  2  0  0  0  0
 19 43  1  0  0  0  0
 19 44  1  0  0  0  0
 21 14  2  0  0  0  0
 22 17  2  0  0  0  0
 23 45  1  0  0  0  0
 24 46  1  0  0  0  0
 24 47  1  0  0  0  0
 24 48  1  0  0  0  0
 25 49  1  0  0  0  0
 26 50  1  0  0  0  0
 26 51  1  0  0  0  0
 26 52  1  0  0  0  0
 27 14  1  0  0  0  0
 27 53  1  0  0  0  0
 27 54  1  0  0  0  0
 28 27  1  0  0  0  0
 28 55  1  0  0  0  0
M  END
>  <DRUGBANK_ID>
DB08970

>  <COMMON_NAME>
Fluprednidene

>  <CAS_NUMBER>
2193-87-5

>  <UNII>
FA517NS3N7

>  <SYNONYMS>
Fluprednidene

$$$$
