
 OpenBabel10282417072D

 28 29  0  0  1  0  0  0  0  0999 V2000
   -0.2643   -0.0240    0.0000 C   0  0  2  0  0  0  0  0  0  0  0  0
    0.5252    0.2403    0.0000 N   0  0  0  0  0  0  0  0  0  0  0  0
   -0.9062    0.4531    0.0000 O   0  0  0  0  0  0  0  0  0  0  0  0
   -0.5046   -0.8239    0.0000 C   0  0  0  0  0  0  0  0  0  0  0  0
    1.1431   -0.3089    0.0000 C   0  0  0  0  0  0  0  0  0  0  0  0
    0.6968    1.0436    0.0000 C   0  0  0  0  0  0  0  0  0  0  0  0
   -1.5756   -0.0377    0.0000 C   0  0  1  0  0  0  0  0  0  0  0  0
   -1.3285   -0.8239    0.0000 C   0  0  1  0  0  0  0  0  0  0  0  0
    1.9291   -0.0515    0.0000 N   0  0  0  0  0  0  0  0  0  0  0  0
    0.9784   -1.1190    0.0000 O   0  0  0  0  0  0  0  0  0  0  0  0
    1.4761    1.3044    0.0000 C   0  0  0  0  0  0  0  0  0  0  0  0
   -2.3617    0.2128    0.0000 C   0  0  0  0  0  0  0  0  0  0  0  0
   -1.8193   -1.4898    0.0000 O   0  0  0  0  0  0  0  0  0  0  0  0
    2.0974    0.7552    0.0000 C   0  0  0  0  0  0  0  0  0  0  0  0
   -2.9693   -0.3432    0.0000 O   0  0  0  0  0  0  0  0  0  0  0  0
    2.8800    1.0126    0.0000 O   0  0  0  0  0  0  0  0  0  0  0  0
   -0.0959    1.0327    0.0000 H   0  0  0  0  0  0  0  0  0  0  0  0
    0.1340   -1.6825    0.0000 H   0  0  0  0  0  0  0  0  0  0  0  0
   -0.9850   -1.7800    0.0000 H   0  0  0  0  0  0  0  0  0  0  0  0
   -0.0728    1.7312    0.0000 H   0  0  0  0  0  0  0  0  0  0  0  0
   -1.7483    1.0183    0.0000 H   0  0  0  0  0  0  0  0  0  0  0  0
   -0.8460   -1.7789    0.0000 H   0  0  0  0  0  0  0  0  0  0  0  0
    2.6627   -0.7080    0.0000 H   0  0  0  0  0  0  0  0  0  0  0  0
    1.6816    2.3157    0.0000 H   0  0  0  0  0  0  0  0  0  0  0  0
   -2.5913    1.2579    0.0000 H   0  0  0  0  0  0  0  0  0  0  0  0
   -3.3818    0.5359    0.0000 H   0  0  0  0  0  0  0  0  0  0  0  0
   -2.7833   -1.3818    0.0000 H   0  0  0  0  0  0  0  0  0  0  0  0
   -3.8942   -0.0509    0.0000 H   0  0  0  0  0  0  0  0  0  0  0  0
  1  2  1  0  0  0  0
  1  3  1  0  0  0  0
  1  4  1  0  0  0  0
  1 17  1  6  0  0  0
  2  5  1  0  0  0  0
  2  6  1  0  0  0  0
  3  7  1  0  0  0  0
  4  8  1  0  0  0  0
  4 18  1  0  0  0  0
  4 19  1  0  0  0  0
  5  9  1  0  0  0  0
  5 10  2  0  0  0  0
  6 11  2  0  0  0  0
  6 20  1  0  0  0  0
  7 12  1  0  0  0  0
  7  8  1  0  0  0  0
  7 21  1  6  0  0  0
  8 13  1  0  0  0  0
  8 22  1  1  0  0  0
  9 14  1  0  0  0  0
  9 23  1  0  0  0  0
 11 14  1  0  0  0  0
 11 24  1  0  0  0  0
 12 15  1  0  0  0  0
 12 25  1  0  0  0  0
 12 26  1  0  0  0  0
 13 27  1  0  0  0  0
 14 16  2  0  0  0  0
 15 28  1  0  0  0  0
M  END
>  <DRUGBANK_ID>
DB02256

>  <SECONDARY_ACCESSION_NUMBERS>
EXPT01300

>  <COMMON_NAME>
2'-Deoxyuridine

>  <CAS_NUMBER>
951-78-0

>  <UNII>
W78I7AY22C

$$$$
