
 OpenBabel10282417072D

 87 87  0  0  0  0  0  0  0  0999 V2000
    6.4302   -1.4437    0.0000 C   0  0  0  0  0  0  0  0  0  0  0  0
    5.0013   -1.4437    0.0000 C   0  0  0  0  0  0  0  0  0  0  0  0
    4.2868   -1.0312    0.0000 C   0  0  0  0  0  0  0  0  0  0  0  0
    3.5723   -1.4437    0.0000 C   0  0  0  0  0  0  0  0  0  0  0  0
    2.8578   -1.0312    0.0000 C   0  0  1  0  0  0  0  0  0  0  0  0
    2.8578   -0.2062    0.0000 C   0  0  0  0  0  0  0  0  0  0  0  0
    1.4289   -1.0312    0.0000 C   0  0  0  0  0  0  0  0  0  0  0  0
    0.7144   -1.4437    0.0000 C   0  0  2  0  0  0  0  0  0  0  0  0
    0.7144   -2.2687    0.0000 C   0  0  0  0  0  0  0  0  0  0  0  0
    0.0000   -2.6812    0.0000 C   0  0  0  0  0  0  0  0  0  0  0  0
    1.4289   -2.6812    0.0000 C   0  0  0  0  0  0  0  0  0  0  0  0
   -0.7144   -1.4437    0.0000 C   0  0  0  0  0  0  0  0  0  0  0  0
   -1.4289   -1.0312    0.0000 C   0  0  2  0  0  0  0  0  0  0  0  0
   -1.4289   -0.2062    0.0000 C   0  0  0  0  0  0  0  0  0  0  0  0
   -0.7144    0.2062    0.0000 C   0  0  0  0  0  0  0  0  0  0  0  0
   -0.7144    1.0312    0.0000 C   0  0  0  0  0  0  0  0  0  0  0  0
    0.0000    2.2687    0.0000 C   0  0  0  0  0  0  0  0  0  0  0  0
   -2.8578   -1.0312    0.0000 C   0  0  0  0  0  0  0  0  0  0  0  0
   -4.2868   -1.0312    0.0000 C   0  0  2  0  0  0  0  0  0  0  0  0
   -4.2868   -0.2062    0.0000 C   0  0  0  0  0  0  0  0  0  0  0  0
   -5.0012   -1.4437    0.0000 C   0  0  0  0  0  0  0  0  0  0  0  0
   -5.7157   -1.0312    0.0000 C   0  0  0  0  0  0  0  0  0  0  0  0
   -6.4302   -1.4437    0.0000 C   0  0  0  0  0  0  0  0  0  0  0  0
   -7.1447   -1.0312    0.0000 C   0  0  0  0  0  0  0  0  0  0  0  0
   -7.1447   -0.2062    0.0000 C   0  0  0  0  0  0  0  0  0  0  0  0
   -6.4302    0.2062    0.0000 C   0  0  0  0  0  0  0  0  0  0  0  0
   -5.7157   -0.2062    0.0000 C   0  0  0  0  0  0  0  0  0  0  0  0
    2.1434   -1.4437    0.0000 N   0  0  0  0  0  0  0  0  0  0  0  0
    0.0000   -1.0312    0.0000 N   0  0  0  0  0  0  0  0  0  0  0  0
    0.0000    1.4437    0.0000 N   0  0  0  0  0  0  0  0  0  0  0  0
   -0.7144    2.6812    0.0000 N   0  0  0  0  0  0  0  0  0  0  0  0
    0.7144    2.6812    0.0000 N   0  0  0  0  0  0  0  0  0  0  0  0
   -2.1434   -1.4437    0.0000 N   0  0  0  0  0  0  0  0  0  0  0  0
   -3.5723   -1.4437    0.0000 N   0  0  0  0  0  0  0  0  0  0  0  0
    5.7157   -1.0312    0.0000 N   0  0  0  0  0  0  0  0  0  0  0  0
    7.1447   -1.0312    0.0000 N   0  0  0  0  0  0  0  0  0  0  0  0
    6.4302   -2.2687    0.0000 N   0  0  0  0  0  0  0  0  0  0  0  0
    2.1434    0.2062    0.0000 O   0  0  0  0  0  0  0  0  0  0  0  0
    1.4289   -0.2062    0.0000 O   0  0  0  0  0  0  0  0  0  0  0  0
   -0.7144   -2.2687    0.0000 O   0  0  0  0  0  0  0  0  0  0  0  0
   -2.8578   -0.2062    0.0000 O   0  0  0  0  0  0  0  0  0  0  0  0
   -3.5723    0.2062    0.0000 O   0  0  0  0  0  0  0  0  0  0  0  0
   -5.0012    0.2062    0.0000 O   0  0  0  0  0  0  0  0  0  0  0  0
    5.0013   -2.5137    0.0000 H   0  0  0  0  0  0  0  0  0  0  0  0
    5.9280   -1.9787    0.0000 H   0  0  0  0  0  0  0  0  0  0  0  0
    4.2868    0.0388    0.0000 H   0  0  0  0  0  0  0  0  0  0  0  0
    3.3602   -0.4962    0.0000 H   0  0  0  0  0  0  0  0  0  0  0  0
    3.5723   -2.5137    0.0000 H   0  0  0  0  0  0  0  0  0  0  0  0
    2.6457   -1.9787    0.0000 H   0  0  0  0  0  0  0  0  0  0  0  0
    2.8578   -2.1012    0.0000 H   0  0  0  0  0  0  0  0  0  0  0  0
    3.7515    0.3098    0.0000 H   0  0  0  0  0  0  0  0  0  0  0  0
    0.7144   -0.3737    0.0000 H   0  0  0  0  0  0  0  0  0  0  0  0
    0.7144   -3.3387    0.0000 H   0  0  0  0  0  0  0  0  0  0  0  0
   -0.9267   -2.1462    0.0000 H   0  0  0  0  0  0  0  0  0  0  0  0
    0.0000   -3.7512    0.0000 H   0  0  0  0  0  0  0  0  0  0  0  0
   -0.9266   -3.2162    0.0000 H   0  0  0  0  0  0  0  0  0  0  0  0
    1.4289   -3.7512    0.0000 H   0  0  0  0  0  0  0  0  0  0  0  0
    2.3555   -2.1462    0.0000 H   0  0  0  0  0  0  0  0  0  0  0  0
    2.3556   -3.2162    0.0000 H   0  0  0  0  0  0  0  0  0  0  0  0
   -1.4289   -2.1012    0.0000 H   0  0  0  0  0  0  0  0  0  0  0  0
   -2.3555    0.3289    0.0000 H   0  0  0  0  0  0  0  0  0  0  0  0
   -1.4288    0.8638    0.0000 H   0  0  0  0  0  0  0  0  0  0  0  0
    0.2122   -0.3289    0.0000 H   0  0  0  0  0  0  0  0  0  0  0  0
    0.2123    0.7412    0.0000 H   0  0  0  0  0  0  0  0  0  0  0  0
   -1.6411    1.5662    0.0000 H   0  0  0  0  0  0  0  0  0  0  0  0
   -0.7144    2.1012    0.0000 H   0  0  0  0  0  0  0  0  0  0  0  0
   -3.3602   -0.4962    0.0000 H   0  0  0  0  0  0  0  0  0  0  0  0
   -5.0012   -2.5137    0.0000 H   0  0  0  0  0  0  0  0  0  0  0  0
   -5.9278   -1.9787    0.0000 H   0  0  0  0  0  0  0  0  0  0  0  0
   -6.4302   -2.4757    0.0000 H   0  0  0  0  0  0  0  0  0  0  0  0
   -8.0384   -1.5472    0.0000 H   0  0  0  0  0  0  0  0  0  0  0  0
   -8.0384    0.3099    0.0000 H   0  0  0  0  0  0  0  0  0  0  0  0
   -6.4302    1.2382    0.0000 H   0  0  0  0  0  0  0  0  0  0  0  0
   -4.8220    0.3099    0.0000 H   0  0  0  0  0  0  0  0  0  0  0  0
    2.1434   -2.4282    0.0000 H   0  0  0  0  0  0  0  0  0  0  0  0
    0.0000   -0.0467    0.0000 H   0  0  0  0  0  0  0  0  0  0  0  0
    0.8526    0.9515    0.0000 H   0  0  0  0  0  0  0  0  0  0  0  0
   -0.7144    3.6657    0.0000 H   0  0  0  0  0  0  0  0  0  0  0  0
   -1.5670    2.1890    0.0000 H   0  0  0  0  0  0  0  0  0  0  0  0
    1.5670    2.1890    0.0000 H   0  0  0  0  0  0  0  0  0  0  0  0
   -2.1434   -2.4282    0.0000 H   0  0  0  0  0  0  0  0  0  0  0  0
   -3.5723   -2.4282    0.0000 H   0  0  0  0  0  0  0  0  0  0  0  0
    5.7157   -0.0467    0.0000 H   0  0  0  0  0  0  0  0  0  0  0  0
    7.9973   -1.5235    0.0000 H   0  0  0  0  0  0  0  0  0  0  0  0
    7.1447   -0.0467    0.0000 H   0  0  0  0  0  0  0  0  0  0  0  0
    5.5776   -2.7610    0.0000 H   0  0  0  0  0  0  0  0  0  0  0  0
   -5.0013    1.1432    0.0000 H   0  0  0  0  0  0  0  0  0  0  0  0
  1 35  1  0  0  0  0
  1 36  1  0  0  0  0
  1 37  2  0  0  0  0
  2  3  1  0  0  0  0
  2 35  1  0  0  0  0
  2 44  1  0  0  0  0
  2 45  1  0  0  0  0
  3  4  1  0  0  0  0
  3 46  1  0  0  0  0
  3 47  1  0  0  0  0
  4  5  1  0  0  0  0
  4 48  1  0  0  0  0
  4 49  1  0  0  0  0
  5  6  1  0  0  0  0
  5 28  1  0  0  0  0
  5 50  1  1  0  0  0
  6 38  2  0  0  0  0
  6 51  1  0  0  0  0
  7  8  1  0  0  0  0
  7 28  1  0  0  0  0
  7 39  2  0  0  0  0
  8  9  1  0  0  0  0
  8 29  1  0  0  0  0
  8 52  1  1  0  0  0
  9 10  1  0  0  0  0
  9 11  1  0  0  0  0
  9 53  1  0  0  0  0
 10 54  1  0  0  0  0
 10 55  1  0  0  0  0
 10 56  1  0  0  0  0
 11 57  1  0  0  0  0
 11 58  1  0  0  0  0
 11 59  1  0  0  0  0
 12 13  1  0  0  0  0
 12 29  1  0  0  0  0
 12 40  2  0  0  0  0
 13 14  1  0  0  0  0
 13 33  1  0  0  0  0
 13 60  1  6  0  0  0
 14 15  1  0  0  0  0
 14 61  1  0  0  0  0
 14 62  1  0  0  0  0
 15 16  1  0  0  0  0
 15 63  1  0  0  0  0
 15 64  1  0  0  0  0
 16 30  1  0  0  0  0
 16 65  1  0  0  0  0
 16 66  1  0  0  0  0
 17 30  1  0  0  0  0
 17 31  1  0  0  0  0
 17 32  2  0  0  0  0
 18 33  1  0  0  0  0
 18 34  1  0  0  0  0
 18 41  2  0  0  0  0
 19 20  1  0  0  0  0
 19 21  1  0  0  0  0
 19 34  1  0  0  0  0
 19 67  1  6  0  0  0
 20 42  2  0  0  0  0
 20 43  1  0  0  0  0
 21 22  1  0  0  0  0
 21 68  1  0  0  0  0
 21 69  1  0  0  0  0
 22 23  2  0  0  0  0
 22 27  1  0  0  0  0
 23 24  1  0  0  0  0
 23 70  1  0  0  0  0
 24 25  2  0  0  0  0
 24 71  1  0  0  0  0
 25 26  1  0  0  0  0
 25 72  1  0  0  0  0
 26 27  2  0  0  0  0
 26 73  1  0  0  0  0
 27 74  1  0  0  0  0
 28 75  1  0  0  0  0
 29 76  1  0  0  0  0
 30 77  1  0  0  0  0
 31 78  1  0  0  0  0
 31 79  1  0  0  0  0
 32 80  1  0  0  0  0
 33 81  1  0  0  0  0
 34 82  1  0  0  0  0
 35 83  1  0  0  0  0
 36 84  1  0  0  0  0
 36 85  1  0  0  0  0
 37 86  1  0  0  0  0
 43 87  1  0  0  0  0
M  END
>  <DRUGBANK_ID>
DB15251

>  <COMMON_NAME>
Antipain

>  <CAS_NUMBER>
37691-11-5

>  <UNII>
47V479BE6L

$$$$
