1246
 OpenBabel10282417072D

 43 45  0  0  1  0  0  0  0  0999 V2000
    3.6959   -2.3626    0.0000 S   0  0  0  0  0  0  0  0  0  0  0  0
    3.6959   -0.7784    0.0000 N   0  0  0  0  0  0  0  0  0  0  0  0
    5.0680    1.5979    0.0000 N   0  0  0  0  0  0  0  0  0  0  0  0
    4.3820    0.4097    0.0000 C   0  0  3  0  0  0  0  0  0  0  0  0
    3.6959    0.0137    0.0000 C   0  0  0  0  0  0  0  0  0  0  0  0
    4.3820    1.2019    0.0000 C   0  0  0  0  0  0  0  0  0  0  0  0
    5.0680    0.0137    0.0000 C   0  0  0  0  0  0  0  0  0  0  0  0
    4.3820   -1.1744    0.0000 C   0  0  0  0  0  0  0  0  0  0  0  0
    3.0100   -1.1744    0.0000 C   0  0  0  0  0  0  0  0  0  0  0  0
    4.3820   -1.9666    0.0000 C   0  0  0  0  0  0  0  0  0  0  0  0
    3.0100   -1.9666    0.0000 C   0  0  0  0  0  0  0  0  0  0  0  0
    5.0900   -0.7509    0.0000 C   0  0  0  0  0  0  0  0  0  0  0  0
    2.3019   -0.7509    0.0000 C   0  0  0  0  0  0  0  0  0  0  0  0
    5.0680    2.3900    0.0000 C   0  0  0  0  0  0  0  0  0  0  0  0
    5.7539    1.2019    0.0000 C   0  0  0  0  0  0  0  0  0  0  0  0
    5.0900   -2.3900    0.0000 C   0  0  0  0  0  0  0  0  0  0  0  0
    2.3019   -2.3900    0.0000 C   0  0  0  0  0  0  0  0  0  0  0  0
    5.8078   -1.1580    0.0000 C   0  0  0  0  0  0  0  0  0  0  0  0
    1.5842   -1.1580    0.0000 C   0  0  0  0  0  0  0  0  0  0  0  0
    5.8078   -1.9831    0.0000 C   0  0  0  0  0  0  0  0  0  0  0  0
    1.5842   -1.9831    0.0000 C   0  0  0  0  0  0  0  0  0  0  0  0
    3.4554    0.9448    0.0000 H   0  0  0  0  0  0  0  0  0  0  0  0
    2.7693    0.5488    0.0000 H   0  0  0  0  0  0  0  0  0  0  0  0
    3.6960    1.0837    0.0000 H   0  0  0  0  0  0  0  0  0  0  0  0
    3.4554    1.7369    0.0000 H   0  0  0  0  0  0  0  0  0  0  0  0
    3.4553    0.6669    0.0000 H   0  0  0  0  0  0  0  0  0  0  0  0
    5.0681   -1.0563    0.0000 H   0  0  0  0  0  0  0  0  0  0  0  0
    5.9946    0.5488    0.0000 H   0  0  0  0  0  0  0  0  0  0  0  0
    5.9947   -0.5212    0.0000 H   0  0  0  0  0  0  0  0  0  0  0  0
    5.0781    0.2810    0.0000 H   0  0  0  0  0  0  0  0  0  0  0  0
    2.3138    0.2810    0.0000 H   0  0  0  0  0  0  0  0  0  0  0  0
    5.9946    2.9250    0.0000 H   0  0  0  0  0  0  0  0  0  0  0  0
    4.1414    2.9250    0.0000 H   0  0  0  0  0  0  0  0  0  0  0  0
    5.0680    3.4600    0.0000 H   0  0  0  0  0  0  0  0  0  0  0  0
    5.7539    0.1319    0.0000 H   0  0  0  0  0  0  0  0  0  0  0  0
    6.6805    1.7369    0.0000 H   0  0  0  0  0  0  0  0  0  0  0  0
    6.6805    0.6669    0.0000 H   0  0  0  0  0  0  0  0  0  0  0  0
    5.0780   -3.4219    0.0000 H   0  0  0  0  0  0  0  0  0  0  0  0
    2.3138   -3.4219    0.0000 H   0  0  0  0  0  0  0  0  0  0  0  0
    6.6995   -0.6386    0.0000 H   0  0  0  0  0  0  0  0  0  0  0  0
    0.6924   -0.6386    0.0000 H   0  0  0  0  0  0  0  0  0  0  0  0
    6.6995   -2.5026    0.0000 H   0  0  0  0  0  0  0  0  0  0  0  0
    0.6925   -2.5026    0.0000 H   0  0  0  0  0  0  0  0  0  0  0  0
  1 10  1  0  0  0  0
  1 11  1  0  0  0  0
  2  5  1  0  0  0  0
  2  8  1  0  0  0  0
  2  9  1  0  0  0  0
  3  6  1  0  0  0  0
  3 14  1  0  0  0  0
  3 15  1  0  0  0  0
  4  5  1  0  0  0  0
  4  6  1  0  0  0  0
  4  7  1  0  0  0  0
  4 22  1  0  0  0  0
  5 23  1  0  0  0  0
  5 24  1  0  0  0  0
  6 25  1  0  0  0  0
  6 26  1  0  0  0  0
  7 27  1  0  0  0  0
  7 28  1  0  0  0  0
  7 29  1  0  0  0  0
  8 10  1  0  0  0  0
  8 12  2  0  0  0  0
  9 11  1  0  0  0  0
  9 13  2  0  0  0  0
 10 16  2  0  0  0  0
 11 17  2  0  0  0  0
 12 18  1  0  0  0  0
 12 30  1  0  0  0  0
 13 19  1  0  0  0  0
 13 31  1  0  0  0  0
 14 32  1  0  0  0  0
 14 33  1  0  0  0  0
 14 34  1  0  0  0  0
 15 35  1  0  0  0  0
 15 36  1  0  0  0  0
 15 37  1  0  0  0  0
 16 20  1  0  0  0  0
 16 38  1  0  0  0  0
 17 21  1  0  0  0  0
 17 39  1  0  0  0  0
 18 20  2  0  0  0  0
 18 40  1  0  0  0  0
 19 21  2  0  0  0  0
 19 41  1  0  0  0  0
 20 42  1  0  0  0  0
 21 43  1  0  0  0  0
M  END
>  <DRUGBANK_ID>
DB01246

>  <SECONDARY_ACCESSION_NUMBERS>
APRD00258

>  <COMMON_NAME>
Alimemazine

>  <CAS_NUMBER>
84-96-8

>  <UNII>
76H78MJJ52

>  <SYNONYMS>
Alimemazina; Alimemazine; Alimemazinum; Methylpromazine; Trimeprazine

$$$$
