
 OpenBabel10282417072D

 13 12  0  0  0  0  0  0  0  0999 V2000
    0.3572    0.2062    0.0000 C   0  0  2  0  0  0  0  0  0  0  0  0
    1.0717    0.6187    0.0000 O   0  0  0  0  0  0  0  0  0  0  0  0
   -0.3572    0.6188    0.0000 C   0  0  0  0  0  0  0  0  0  0  0  0
   -1.0717    0.2063    0.0000 O   0  0  0  0  0  0  0  0  0  0  0  0
    0.3572   -0.6188    0.0000 C   0  0  0  0  0  0  0  0  0  0  0  0
    1.2838   -0.3288    0.0000 H   0  0  0  0  0  0  0  0  0  0  0  0
    1.9117    0.1337    0.0000 H   0  0  0  0  0  0  0  0  0  0  0  0
   -0.3571    1.6888    0.0000 H   0  0  0  0  0  0  0  0  0  0  0  0
   -1.2838    1.1538    0.0000 H   0  0  0  0  0  0  0  0  0  0  0  0
   -1.9117    0.6913    0.0000 H   0  0  0  0  0  0  0  0  0  0  0  0
   -0.5694   -1.1538    0.0000 H   0  0  0  0  0  0  0  0  0  0  0  0
    1.2838   -1.1538    0.0000 H   0  0  0  0  0  0  0  0  0  0  0  0
    0.3572   -1.6888    0.0000 H   0  0  0  0  0  0  0  0  0  0  0  0
  1  5  1  0  0  0  0
  1  3  1  0  0  0  0
  1  6  1  6  0  0  0
  2  1  1  0  0  0  0
  2  7  1  0  0  0  0
  3  8  1  0  0  0  0
  3  9  1  0  0  0  0
  4  3  1  0  0  0  0
  4 10  1  0  0  0  0
  5 11  1  0  0  0  0
  5 12  1  0  0  0  0
  5 13  1  0  0  0  0
M  END
>  <DRUGBANK_ID>
DB04349

>  <SECONDARY_ACCESSION_NUMBERS>
EXPT02573

>  <COMMON_NAME>
(S)-propane-1,2-diol

>  <CAS_NUMBER>
4254-15-3

>  <UNII>
942194N4TD

>  <SYNONYMS>
(S)-1,2-Propanediol; (S)-propane-1,2-diol; (S)-Propylene glycol; S-1,2-Propanediol

$$$$
