
 OpenBabel10282417072D

 27 27  0  0  0  0  0  0  0  0999 V2000
    1.4288    1.2375    0.0000 C   0  0  0  0  0  0  0  0  0  0  0  0
    0.7145    0.8250    0.0000 C   0  0  0  0  0  0  0  0  0  0  0  0
    0.7145    0.0000    0.0000 C   0  0  0  0  0  0  0  0  0  0  0  0
    1.4288   -0.4125    0.0000 C   0  0  0  0  0  0  0  0  0  0  0  0
    2.1433    0.0000    0.0000 C   0  0  0  0  0  0  0  0  0  0  0  0
    2.1433    0.8250    0.0000 C   0  0  0  0  0  0  0  0  0  0  0  0
    0.0000   -0.4125    0.0000 C   0  0  1  0  0  0  0  0  0  0  0  0
   -0.7145    0.0000    0.0000 C   0  0  1  0  0  0  0  0  0  0  0  0
   -1.4288   -0.4125    0.0000 N   0  0  0  0  0  0  0  0  0  0  0  0
   -2.1433    0.0000    0.0000 C   0  0  0  0  0  0  0  0  0  0  0  0
   -0.7145    0.8249    0.0000 C   0  0  0  0  0  0  0  0  0  0  0  0
    0.0000   -1.2375    0.0000 O   0  0  0  0  0  0  0  0  0  0  0  0
    1.4287    2.2695    0.0000 H   0  0  0  0  0  0  0  0  0  0  0  0
   -0.1793    1.3410    0.0000 H   0  0  0  0  0  0  0  0  0  0  0  0
    1.4287   -1.4445    0.0000 H   0  0  0  0  0  0  0  0  0  0  0  0
    3.0370   -0.5160    0.0000 H   0  0  0  0  0  0  0  0  0  0  0  0
    3.0370    1.3410    0.0000 H   0  0  0  0  0  0  0  0  0  0  0  0
    0.9266   -0.9475    0.0000 H   0  0  0  0  0  0  0  0  0  0  0  0
    0.2121    0.5350    0.0000 H   0  0  0  0  0  0  0  0  0  0  0  0
   -1.4287   -1.4325    0.0000 H   0  0  0  0  0  0  0  0  0  0  0  0
   -2.1433    1.0700    0.0000 H   0  0  0  0  0  0  0  0  0  0  0  0
   -3.0699   -0.5350    0.0000 H   0  0  0  0  0  0  0  0  0  0  0  0
   -3.0700    0.5350    0.0000 H   0  0  0  0  0  0  0  0  0  0  0  0
    0.2121    1.3599    0.0000 H   0  0  0  0  0  0  0  0  0  0  0  0
   -1.6411    1.3599    0.0000 H   0  0  0  0  0  0  0  0  0  0  0  0
   -0.7145    1.8949    0.0000 H   0  0  0  0  0  0  0  0  0  0  0  0
   -0.8400   -1.7225    0.0000 H   0  0  0  0  0  0  0  0  0  0  0  0
  1  2  1  0  0  0  0
  1  6  2  0  0  0  0
  1 13  1  0  0  0  0
  2  3  2  0  0  0  0
  2 14  1  0  0  0  0
  3  4  1  0  0  0  0
  3  7  1  0  0  0  0
  4  5  2  0  0  0  0
  4 15  1  0  0  0  0
  5  6  1  0  0  0  0
  5 16  1  0  0  0  0
  6 17  1  0  0  0  0
  7  8  1  0  0  0  0
  7 12  1  0  0  0  0
  7 18  1  1  0  0  0
  8  9  1  0  0  0  0
  8 11  1  0  0  0  0
  8 19  1  6  0  0  0
  9 10  1  0  0  0  0
  9 20  1  0  0  0  0
 10 21  1  0  0  0  0
 10 22  1  0  0  0  0
 10 23  1  0  0  0  0
 11 24  1  0  0  0  0
 11 25  1  0  0  0  0
 11 26  1  0  0  0  0
 12 27  1  0  0  0  0
M  END
>  <DRUGBANK_ID>
DB00852

>  <SECONDARY_ACCESSION_NUMBERS>
APRD00634

>  <COMMON_NAME>
Pseudoephedrine

>  <CAS_NUMBER>
90-82-4

>  <UNII>
7CUC9DDI9F

>  <SYNONYMS>
(+) threo-2-(methylamino)-1-phenyl-1-propanol; (+)-(1S,2S)-Pseudoephedrine; (+)-Pseudoephedrine; (+)-psi-Ephedrine; (+)-threo-Ephedrine; d-Isoephedrine; d-Pseudoephedrine; d-psi-2-Methylamino-1-phenyl-1-propanol; d-psi-Ephedrine; Isoephedrine; L-(+)-Pseudoephedrine; L(+)-psi-Ephedrine; Pseudoefedrina; Pseudoephedrine; pseudoéphédrine; Pseudoephedrine D-form; Pseudoephedrinum; Psi-ephedrin; Psi-ephedrine; trans-Ephedrine; ψ-ephedrine

$$$$
