
 OpenBabel10282417072D

 55 59  0  0  1  0  0  0  0  0999 V2000
    5.2309    1.7605    0.0000 O   0  0  0  0  0  0  0  0  0  0  0  0
    4.4059    1.7605    0.0000 C   0  0  0  0  0  0  0  0  0  0  0  0
    3.9934    2.4750    0.0000 C   0  0  0  0  0  0  0  0  0  0  0  0
    3.5809    3.1895    0.0000 C   0  0  0  0  0  0  0  0  0  0  0  0
    4.2954    3.6020    0.0000 C   0  0  0  0  0  0  0  0  0  0  0  0
    4.7079    2.8875    0.0000 C   0  0  0  0  0  0  0  0  0  0  0  0
    3.2789    2.0625    0.0000 N   0  0  0  0  0  0  0  0  0  0  0  0
    3.2789    1.2375    0.0000 C   0  0  0  0  0  0  0  0  0  0  0  0
    3.9934    0.8250    0.0000 N   0  0  0  0  0  0  0  0  0  0  0  0
    3.9934    0.0000    0.0000 C   0  0  0  0  0  0  0  0  0  0  0  0
    3.2789   -0.4125    0.0000 N   0  0  0  0  0  0  0  0  0  0  0  0
    2.5645    0.0000    0.0000 C   0  0  0  0  0  0  0  0  0  0  0  0
    1.7798   -0.2549    0.0000 C   0  0  0  0  0  0  0  0  0  0  0  0
    1.2949    0.4125    0.0000 C   0  0  0  0  0  0  0  0  0  0  0  0
    1.7798    1.0799    0.0000 S   0  3  1  0  0  0  0  0  0  0  0  0
    1.5249    1.8646    0.0000 O   0  5  0  0  0  0  0  0  0  0  0  0
    2.5645    0.8250    0.0000 C   0  0  0  0  0  0  0  0  0  0  0  0
    4.7079   -0.4125    0.0000 N   0  0  0  0  0  0  0  0  0  0  0  0
    5.4223    0.0000    0.0000 C   0  0  0  0  0  0  0  0  0  0  0  0
    6.1368   -0.4125    0.0000 C   0  0  0  0  0  0  0  0  0  0  0  0
    6.1368   -1.2375    0.0000 C   0  0  3  0  0  0  0  0  0  0  0  0
    5.4223   -1.6500    0.0000 C   0  0  0  0  0  0  0  0  0  0  0  0
    4.7079   -1.2375    0.0000 C   0  0  0  0  0  0  0  0  0  0  0  0
    6.8513   -1.6500    0.0000 C   0  0  0  0  0  0  0  0  0  0  0  0
    7.5658   -1.2375    0.0000 N   0  0  0  0  0  0  0  0  0  0  0  0
    8.2802   -1.6500    0.0000 C   0  0  0  0  0  0  0  0  0  0  0  0
    8.2802   -2.4750    0.0000 C   0  0  0  0  0  0  0  0  0  0  0  0
    8.9947   -2.8875    0.0000 Cl  0  0  0  0  0  0  0  0  0  0  0  0
    7.5658   -2.8875    0.0000 C   0  0  0  0  0  0  0  0  0  0  0  0
    6.8513   -2.4750    0.0000 N   0  0  0  0  0  0  0  0  0  0  0  0
    5.7159    0.9205    0.0000 H   0  0  0  0  0  0  0  0  0  0  0  0
    3.8709    0.8339    0.0000 H   0  0  0  0  0  0  0  0  0  0  0  0
    3.3359    1.7605    0.0000 H   0  0  0  0  0  0  0  0  0  0  0  0
    2.5474    3.4665    0.0000 H   0  0  0  0  0  0  0  0  0  0  0  0
    3.4413    4.2503    0.0000 H   0  0  0  0  0  0  0  0  0  0  0  0
    4.5724    4.6355    0.0000 H   0  0  0  0  0  0  0  0  0  0  0  0
    5.3562    3.7416    0.0000 H   0  0  0  0  0  0  0  0  0  0  0  0
    5.7414    2.6105    0.0000 H   0  0  0  0  0  0  0  0  0  0  0  0
    4.8475    1.8267    0.0000 H   0  0  0  0  0  0  0  0  0  0  0  0
    2.4263    2.5548    0.0000 H   0  0  0  0  0  0  0  0  0  0  0  0
    1.4491   -1.2725    0.0000 H   0  0  0  0  0  0  0  0  0  0  0  0
    0.7230   -0.4223    0.0000 H   0  0  0  0  0  0  0  0  0  0  0  0
    0.2249    0.4125    0.0000 H   0  0  0  0  0  0  0  0  0  0  0  0
    0.8091    1.3659    0.0000 H   0  0  0  0  0  0  0  0  0  0  0  0
    5.4223    1.0700    0.0000 H   0  0  0  0  0  0  0  0  0  0  0  0
    6.3489    0.5350    0.0000 H   0  0  0  0  0  0  0  0  0  0  0  0
    7.0634    0.1225    0.0000 H   0  0  0  0  0  0  0  0  0  0  0  0
    7.0634   -0.9475    0.0000 H   0  0  0  0  0  0  0  0  0  0  0  0
    5.2102   -0.7025    0.0000 H   0  0  0  0  0  0  0  0  0  0  0  0
    5.4223   -2.7200    0.0000 H   0  0  0  0  0  0  0  0  0  0  0  0
    4.4956   -2.1850    0.0000 H   0  0  0  0  0  0  0  0  0  0  0  0
    3.7812   -1.7725    0.0000 H   0  0  0  0  0  0  0  0  0  0  0  0
    3.7813   -0.7025    0.0000 H   0  0  0  0  0  0  0  0  0  0  0  0
    9.1739   -1.1340    0.0000 H   0  0  0  0  0  0  0  0  0  0  0  0
    7.5658   -3.9195    0.0000 H   0  0  0  0  0  0  0  0  0  0  0  0
  1  2  1  0  0  0  0
  1 31  1  0  0  0  0
  2  3  1  0  0  0  0
  2 32  1  0  0  0  0
  2 33  1  0  0  0  0
  3  4  1  0  0  0  0
  3  6  1  0  0  0  0
  3  7  1  0  0  0  0
  4  5  1  0  0  0  0
  4 34  1  0  0  0  0
  4 35  1  0  0  0  0
  5  6  1  0  0  0  0
  5 36  1  0  0  0  0
  5 37  1  0  0  0  0
  6 38  1  0  0  0  0
  6 39  1  0  0  0  0
  7  8  1  0  0  0  0
  7 40  1  0  0  0  0
  8  9  2  0  0  0  0
  8 17  1  0  0  0  0
  9 10  1  0  0  0  0
 10 11  2  0  0  0  0
 10 18  1  0  0  0  0
 11 12  1  0  0  0  0
 12 13  1  0  0  0  0
 12 17  2  0  0  0  0
 13 14  1  0  0  0  0
 13 41  1  0  0  0  0
 13 42  1  0  0  0  0
 14 43  1  0  0  0  0
 14 44  1  0  0  0  0
 15 14  1  0  0  0  0
 15 16  1  1  0  0  0
 15 17  1  0  0  0  0
 18 19  1  0  0  0  0
 18 23  1  0  0  0  0
 19 20  1  0  0  0  0
 19 45  1  0  0  0  0
 19 46  1  0  0  0  0
 20 21  1  0  0  0  0
 20 47  1  0  0  0  0
 20 48  1  0  0  0  0
 21 22  1  0  0  0  0
 21 24  1  0  0  0  0
 21 49  1  0  0  0  0
 22 23  1  0  0  0  0
 22 50  1  0  0  0  0
 22 51  1  0  0  0  0
 23 52  1  0  0  0  0
 23 53  1  0  0  0  0
 24 25  2  0  0  0  0
 24 30  1  0  0  0  0
 25 26  1  0  0  0  0
 26 27  2  0  0  0  0
 26 54  1  0  0  0  0
 27 28  1  0  0  0  0
 27 29  1  0  0  0  0
 29 30  2  0  0  0  0
 29 55  1  0  0  0  0
M  CHG  2  15   1  16  -1
M  END
>  <DRUGBANK_ID>
DB18237

>  <COMMON_NAME>
Nerandomilast

>  <CAS_NUMBER>
1423719-30-5

>  <UNII>
I5DGT51IB8

>  <SYNONYMS>
BI-1015550

$$$$
