
 OpenBabel10282417072D

 36 38  0  0  0  0  0  0  0  0999 V2000
    4.3613    1.2168    0.0000 C   0  0  0  0  0  0  0  0  0  0  0  0
    3.6601    0.7822    0.0000 C   0  0  0  0  0  0  0  0  0  0  0  0
    3.5995   -0.0406    0.0000 N   0  0  0  0  0  0  0  0  0  0  0  0
    2.7983   -0.2372    0.0000 C   0  0  0  0  0  0  0  0  0  0  0  0
    2.3637    0.4640    0.0000 C   0  0  0  0  0  0  0  0  0  0  0  0
    2.8963    1.0941    0.0000 N   0  0  0  0  0  0  0  0  0  0  0  0
    2.6996    1.8953    0.0000 C   0  0  0  0  0  0  0  0  0  0  0  0
    3.2952    2.4662    0.0000 C   0  0  0  0  0  0  0  0  0  0  0  0
    3.0986    3.2674    0.0000 C   0  0  0  0  0  0  0  0  0  0  0  0
    4.0874    2.2359    0.0000 C   0  0  0  0  0  0  0  0  0  0  0  0
    1.5391    0.4383    0.0000 C   0  0  0  0  0  0  0  0  0  0  0  0
    1.1491   -0.2887    0.0000 C   0  0  0  0  0  0  0  0  0  0  0  0
    0.3245   -0.3145    0.0000 C   0  0  0  0  0  0  0  0  0  0  0  0
   -0.1101    0.3867    0.0000 C   0  0  0  0  0  0  0  0  0  0  0  0
    0.2799    1.1137    0.0000 C   0  0  0  0  0  0  0  0  0  0  0  0
    1.1045    1.1395    0.0000 N   0  0  0  0  0  0  0  0  0  0  0  0
    1.5837   -0.9900    0.0000 N   0  0  0  0  0  0  0  0  0  0  0  0
    2.4083   -0.9642    0.0000 C   0  0  0  0  0  0  0  0  0  0  0  0
    2.8429   -1.6655    0.0000 N   0  0  0  0  0  0  0  0  0  0  0  0
    5.3042    0.7110    0.0000 H   0  0  0  0  0  0  0  0  0  0  0  0
    4.3279    2.2863    0.0000 H   0  0  0  0  0  0  0  0  0  0  0  0
    5.2708    1.7805    0.0000 H   0  0  0  0  0  0  0  0  0  0  0  0
    1.6721    2.1940    0.0000 H   0  0  0  0  0  0  0  0  0  0  0  0
    2.4446    2.9345    0.0000 H   0  0  0  0  0  0  0  0  0  0  0  0
    4.0676    3.2066    0.0000 H   0  0  0  0  0  0  0  0  0  0  0  0
    3.8711    4.0078    0.0000 H   0  0  0  0  0  0  0  0  0  0  0  0
    2.0712    3.5662    0.0000 H   0  0  0  0  0  0  0  0  0  0  0  0
    2.8436    4.3066    0.0000 H   0  0  0  0  0  0  0  0  0  0  0  0
    4.3425    1.1967    0.0000 H   0  0  0  0  0  0  0  0  0  0  0  0
    4.8598    2.9764    0.0000 H   0  0  0  0  0  0  0  0  0  0  0  0
    5.1149    1.9372    0.0000 H   0  0  0  0  0  0  0  0  0  0  0  0
   -0.1633   -1.2239    0.0000 H   0  0  0  0  0  0  0  0  0  0  0  0
   -1.1416    0.3545    0.0000 H   0  0  0  0  0  0  0  0  0  0  0  0
   -0.2638    1.9909    0.0000 H   0  0  0  0  0  0  0  0  0  0  0  0
    2.3775   -2.5330    0.0000 H   0  0  0  0  0  0  0  0  0  0  0  0
    3.8269   -1.6348    0.0000 H   0  0  0  0  0  0  0  0  0  0  0  0
  1  2  1  0  0  0  0
  1 20  1  0  0  0  0
  1 21  1  0  0  0  0
  1 22  1  0  0  0  0
  2  3  2  0  0  0  0
  2  6  1  0  0  0  0
  3  4  1  0  0  0  0
  4  5  2  0  0  0  0
  4 18  1  0  0  0  0
  5  6  1  0  0  0  0
  5 11  1  0  0  0  0
  6  7  1  0  0  0  0
  7  8  1  0  0  0  0
  7 23  1  0  0  0  0
  7 24  1  0  0  0  0
  8  9  1  0  0  0  0
  8 10  1  0  0  0  0
  8 25  1  0  0  0  0
  9 26  1  0  0  0  0
  9 27  1  0  0  0  0
  9 28  1  0  0  0  0
 10 29  1  0  0  0  0
 10 30  1  0  0  0  0
 10 31  1  0  0  0  0
 11 12  1  0  0  0  0
 11 16  2  0  0  0  0
 12 13  2  0  0  0  0
 12 17  1  0  0  0  0
 13 14  1  0  0  0  0
 13 32  1  0  0  0  0
 14 15  2  0  0  0  0
 14 33  1  0  0  0  0
 15 16  1  0  0  0  0
 15 34  1  0  0  0  0
 17 18  2  0  0  0  0
 18 19  1  0  0  0  0
 19 35  1  0  0  0  0
 19 36  1  0  0  0  0
M  END
>  <DRUGBANK_ID>
DB05680

>  <COMMON_NAME>
Sotirimod

>  <CAS_NUMBER>
227318-75-4

>  <UNII>
X04FQM7J4M

>  <SYNONYMS>
Sotirimod

$$$$
