BI5
 OpenBabel10282417072D

 39 41  0  0  0  0  0  0  0  0999 V2000
   -0.2916    3.5850    0.0000 N   0  0  0  0  0  0  0  0  0  0  0  0
   -0.2916    2.7600    0.0000 C   0  0  0  0  0  0  0  0  0  0  0  0
   -1.0061    2.3475    0.0000 C   0  0  0  0  0  0  0  0  0  0  0  0
   -1.7206    2.7600    0.0000 C   0  0  0  0  0  0  0  0  0  0  0  0
   -1.7206    3.5850    0.0000 C   0  0  0  0  0  0  0  0  0  0  0  0
   -1.0061    3.9975    0.0000 C   0  0  0  0  0  0  0  0  0  0  0  0
    0.4229    2.3475    0.0000 C   0  0  0  0  0  0  0  0  0  0  0  0
    0.4229    1.5225    0.0000 N   0  0  0  0  0  0  0  0  0  0  0  0
    1.1373    1.1100    0.0000 C   0  0  0  0  0  0  0  0  0  0  0  0
    1.1373    0.2850    0.0000 C   0  0  0  0  0  0  0  0  0  0  0  0
    1.8518   -0.1275    0.0000 C   0  0  0  0  0  0  0  0  0  0  0  0
    1.8518   -0.9525    0.0000 C   0  0  0  0  0  0  0  0  0  0  0  0
    1.1373   -1.3650    0.0000 C   0  0  0  0  0  0  0  0  0  0  0  0
    0.4229   -0.9525    0.0000 C   0  0  0  0  0  0  0  0  0  0  0  0
    0.4229   -0.1275    0.0000 C   0  0  0  0  0  0  0  0  0  0  0  0
    1.1373   -2.1900    0.0000 O   0  0  0  0  0  0  0  0  0  0  0  0
    0.4229   -2.6025    0.0000 C   0  0  0  0  0  0  0  0  0  0  0  0
    0.4229   -3.4275    0.0000 C   0  0  0  0  0  0  0  0  0  0  0  0
   -0.2916   -3.8400    0.0000 C   0  0  0  0  0  0  0  0  0  0  0  0
   -1.0061   -3.4275    0.0000 C   0  0  0  0  0  0  0  0  0  0  0  0
   -1.0061   -2.6025    0.0000 C   0  0  0  0  0  0  0  0  0  0  0  0
   -0.2916   -2.1900    0.0000 C   0  0  0  0  0  0  0  0  0  0  0  0
    1.8518    1.5225    0.0000 O   0  0  0  0  0  0  0  0  0  0  0  0
   -1.0061    1.3155    0.0000 H   0  0  0  0  0  0  0  0  0  0  0  0
   -2.6143    2.2440    0.0000 H   0  0  0  0  0  0  0  0  0  0  0  0
   -2.6143    4.1010    0.0000 H   0  0  0  0  0  0  0  0  0  0  0  0
   -1.0061    5.0295    0.0000 H   0  0  0  0  0  0  0  0  0  0  0  0
    1.3495    2.8825    0.0000 H   0  0  0  0  0  0  0  0  0  0  0  0
    1.3495    1.8125    0.0000 H   0  0  0  0  0  0  0  0  0  0  0  0
   -0.4297    1.0303    0.0000 H   0  0  0  0  0  0  0  0  0  0  0  0
    2.7455    0.3885    0.0000 H   0  0  0  0  0  0  0  0  0  0  0  0
    2.7455   -1.4685    0.0000 H   0  0  0  0  0  0  0  0  0  0  0  0
   -0.4708   -1.4685    0.0000 H   0  0  0  0  0  0  0  0  0  0  0  0
   -0.4708    0.3885    0.0000 H   0  0  0  0  0  0  0  0  0  0  0  0
    1.3166   -3.9435    0.0000 H   0  0  0  0  0  0  0  0  0  0  0  0
   -0.2916   -4.8720    0.0000 H   0  0  0  0  0  0  0  0  0  0  0  0
   -1.8998   -3.9435    0.0000 H   0  0  0  0  0  0  0  0  0  0  0  0
   -1.8998   -2.0865    0.0000 H   0  0  0  0  0  0  0  0  0  0  0  0
   -0.2916   -1.1580    0.0000 H   0  0  0  0  0  0  0  0  0  0  0  0
  1  2  2  0  0  0  0
  1  6  1  0  0  0  0
  2  3  1  0  0  0  0
  2  7  1  0  0  0  0
  3  4  2  0  0  0  0
  3 24  1  0  0  0  0
  4  5  1  0  0  0  0
  4 25  1  0  0  0  0
  5  6  2  0  0  0  0
  5 26  1  0  0  0  0
  6 27  1  0  0  0  0
  7  8  1  0  0  0  0
  7 28  1  0  0  0  0
  7 29  1  0  0  0  0
  8  9  1  0  0  0  0
  8 30  1  0  0  0  0
  9 10  1  0  0  0  0
  9 23  2  0  0  0  0
 10 11  2  0  0  0  0
 10 15  1  0  0  0  0
 11 12  1  0  0  0  0
 11 31  1  0  0  0  0
 12 13  2  0  0  0  0
 12 32  1  0  0  0  0
 13 14  1  0  0  0  0
 13 16  1  0  0  0  0
 14 15  2  0  0  0  0
 14 33  1  0  0  0  0
 15 34  1  0  0  0  0
 16 17  1  0  0  0  0
 17 18  2  0  0  0  0
 17 22  1  0  0  0  0
 18 19  1  0  0  0  0
 18 35  1  0  0  0  0
 19 20  2  0  0  0  0
 19 36  1  0  0  0  0
 20 21  1  0  0  0  0
 20 37  1  0  0  0  0
 21 22  2  0  0  0  0
 21 38  1  0  0  0  0
 22 39  1  0  0  0  0
M  END
>  <DRUGBANK_ID>
DB07459

>  <COMMON_NAME>
4-PHENOXY-N-(PYRIDIN-2-YLMETHYL)BENZAMIDE

>  <UNII>
6J2NXX77VH

$$$$
