RF3
 OpenBabel10282417072D

 41 44  0  0  0  0  0  0  0  0999 V2000
   -1.6242    3.0278    0.0000 C   0  0  0  0  0  0  0  0  0  0  0  0
   -2.2917    3.5127    0.0000 C   0  0  0  0  0  0  0  0  0  0  0  0
   -2.9591    3.0278    0.0000 C   0  0  0  0  0  0  0  0  0  0  0  0
   -2.7042    2.2432    0.0000 S   0  0  0  0  0  0  0  0  0  0  0  0
   -1.8792    2.2432    0.0000 C   0  0  0  0  0  0  0  0  0  0  0  0
   -1.3942    1.5757    0.0000 C   0  0  0  0  0  0  0  0  0  0  0  0
   -0.5738    1.6620    0.0000 C   0  0  0  0  0  0  0  0  0  0  0  0
   -0.2382    2.4156    0.0000 O   0  0  0  0  0  0  0  0  0  0  0  0
   -0.0888    0.9945    0.0000 N   0  0  0  0  0  0  0  0  0  0  0  0
    0.7316    1.0808    0.0000 C   0  0  0  0  0  0  0  0  0  0  0  0
    1.2166    0.4133    0.0000 C   0  0  0  0  0  0  0  0  0  0  0  0
   -0.4244    0.2409    0.0000 C   0  0  0  0  0  0  0  0  0  0  0  0
    0.0605   -0.4266    0.0000 C   0  0  0  0  0  0  0  0  0  0  0  0
    0.8810   -0.3403    0.0000 C   0  0  0  0  0  0  0  0  0  0  0  0
    1.3659   -1.0078    0.0000 C   0  0  0  0  0  0  0  0  0  0  0  0
    1.1110   -1.7924    0.0000 N   0  0  0  0  0  0  0  0  0  0  0  0
    2.1909   -1.0078    0.0000 O   0  0  0  0  0  0  0  0  0  0  0  0
    2.4459   -1.7924    0.0000 N   0  0  0  0  0  0  0  0  0  0  0  0
    1.7784   -2.2773    0.0000 C   0  0  0  0  0  0  0  0  0  0  0  0
    1.7784   -3.1023    0.0000 C   0  0  0  0  0  0  0  0  0  0  0  0
    2.4459   -3.5873    0.0000 C   0  0  0  0  0  0  0  0  0  0  0  0
    2.1909   -4.3719    0.0000 C   0  0  0  0  0  0  0  0  0  0  0  0
    1.3659   -4.3719    0.0000 C   0  0  0  0  0  0  0  0  0  0  0  0
    1.1110   -3.5873    0.0000 S   0  0  0  0  0  0  0  0  0  0  0  0
   -0.6427    3.3467    0.0000 H   0  0  0  0  0  0  0  0  0  0  0  0
   -2.2917    4.5447    0.0000 H   0  0  0  0  0  0  0  0  0  0  0  0
   -3.9406    3.3467    0.0000 H   0  0  0  0  0  0  0  0  0  0  0  0
   -1.8293    0.5982    0.0000 H   0  0  0  0  0  0  0  0  0  0  0  0
   -0.7652    0.7101    0.0000 H   0  0  0  0  0  0  0  0  0  0  0  0
    1.1667    2.0583    0.0000 H   0  0  0  0  0  0  0  0  0  0  0  0
    1.7957    1.1927    0.0000 H   0  0  0  0  0  0  0  0  0  0  0  0
    2.2807    0.5251    0.0000 H   0  0  0  0  0  0  0  0  0  0  0  0
    1.8455   -0.4524    0.0000 H   0  0  0  0  0  0  0  0  0  0  0  0
   -1.4885    0.1291    0.0000 H   0  0  0  0  0  0  0  0  0  0  0  0
   -0.8597   -0.7366    0.0000 H   0  0  0  0  0  0  0  0  0  0  0  0
   -0.3747   -1.4041    0.0000 H   0  0  0  0  0  0  0  0  0  0  0  0
    0.6895   -1.2922    0.0000 H   0  0  0  0  0  0  0  0  0  0  0  0
    1.9451   -0.2285    0.0000 H   0  0  0  0  0  0  0  0  0  0  0  0
    3.4274   -3.2684    0.0000 H   0  0  0  0  0  0  0  0  0  0  0  0
    2.7975   -5.2068    0.0000 H   0  0  0  0  0  0  0  0  0  0  0  0
    0.7593   -5.2068    0.0000 H   0  0  0  0  0  0  0  0  0  0  0  0
  1 25  1  0  0  0  0
  2  1  1  0  0  0  0
  2 26  1  0  0  0  0
  3  2  2  0  0  0  0
  3 27  1  0  0  0  0
  4  3  1  0  0  0  0
  4  5  1  0  0  0  0
  5  1  2  0  0  0  0
  5  6  1  0  0  0  0
  6 28  1  0  0  0  0
  6 29  1  0  0  0  0
  7  6  1  0  0  0  0
  7  9  1  0  0  0  0
  8  7  2  0  0  0  0
  9 10  1  0  0  0  0
 10 11  1  0  0  0  0
 10 30  1  0  0  0  0
 10 31  1  0  0  0  0
 11 32  1  0  0  0  0
 11 33  1  0  0  0  0
 12  9  1  0  0  0  0
 12 13  1  0  0  0  0
 12 34  1  0  0  0  0
 12 35  1  0  0  0  0
 13 14  1  0  0  0  0
 13 36  1  0  0  0  0
 13 37  1  0  0  0  0
 14 11  1  0  0  0  0
 14 15  1  0  0  0  0
 14 38  1  0  0  0  0
 15 17  1  0  0  0  0
 16 15  2  0  0  0  0
 16 19  1  0  0  0  0
 17 18  1  0  0  0  0
 19 18  2  0  0  0  0
 20 19  1  0  0  0  0
 20 21  2  0  0  0  0
 21 39  1  0  0  0  0
 22 21  1  0  0  0  0
 22 40  1  0  0  0  0
 23 22  2  0  0  0  0
 23 41  1  0  0  0  0
 24 20  1  0  0  0  0
 24 23  1  0  0  0  0
M  END
>  <DRUGBANK_ID>
DB08471

>  <COMMON_NAME>
1-(thiophen-2-ylacetyl)-4-(3-thiophen-2-yl-1,2,4-oxadiazol-5-yl)piperidine

$$$$
