
 OpenBabel10282417072D

 78 81  0  0  0  0  0  0  0  0999 V2000
   -3.6145   -1.9955    0.0000 O   0  0  0  0  0  0  0  0  0  0  0  0
   -4.3290   -1.5831    0.0000 S   0  0  0  0  0  0  0  0  0  0  0  0
   -5.0435   -1.9955    0.0000 O   0  0  0  0  0  0  0  0  0  0  0  0
   -3.9165   -0.8686    0.0000 O   0  0  0  0  0  0  0  0  0  0  0  0
   -4.7415   -0.8686    0.0000 O   0  0  0  0  0  0  0  0  0  0  0  0
   -2.1587   -0.3288    0.0000 C   0  0  0  0  0  0  0  0  0  0  0  0
   -2.8813   -0.7255    0.0000 C   0  0  0  0  0  0  0  0  0  0  0  0
   -2.8813   -1.5647    0.0000 C   0  0  1  0  0  0  0  0  0  0  0  0
   -2.1587   -1.9769    0.0000 C   0  0  0  0  0  0  0  0  0  0  0  0
   -1.4590   -1.5647    0.0000 C   0  0  0  0  0  0  0  0  0  0  0  0
   -0.7441   -1.9769    0.0000 C   0  0  0  0  0  0  0  0  0  0  0  0
   -1.4590   -0.7255    0.0000 C   0  0  2  0  0  0  0  0  0  0  0  0
   -0.7441    0.4792    0.0000 C   0  0  0  0  0  0  0  0  0  0  0  0
   -0.0133    0.8992    0.0000 C   0  0  0  0  0  0  0  0  0  0  0  0
    0.6863    0.4792    0.0000 C   0  0  1  0  0  0  0  0  0  0  0  0
    0.6863   -0.3288    0.0000 C   0  0  1  0  0  0  0  0  0  0  0  0
    1.4711   -0.5856    0.0000 C   0  0  0  0  0  0  0  0  0  0  0  0
    1.9374    0.0673    0.0000 C   0  0  0  0  0  0  0  0  0  0  0  0
    1.4711    0.7356    0.0000 C   0  0  2  0  0  0  0  0  0  0  0  0
    0.6863    1.3266    0.0000 C   0  0  0  0  0  0  0  0  0  0  0  0
   -1.4590    0.0829    0.0000 C   0  0  0  0  0  0  0  0  0  0  0  0
    0.6863   -1.1606    0.0000 H   0  0  0  0  0  0  0  0  0  0  0  0
    2.1941    1.1401    0.0000 H   0  0  0  0  0  0  0  0  0  0  0  0
   -0.7441   -0.3288    0.0000 C   0  0  1  0  0  0  0  0  0  0  0  0
   -0.7441   -1.1543    0.0000 H   0  0  0  0  0  0  0  0  0  0  0  0
    0.7567    1.9955    0.0000 C   0  0  0  0  0  0  0  0  0  0  0  0
   -0.0133   -0.7255    0.0000 C   0  0  1  0  0  0  0  0  0  0  0  0
   -0.0133    0.0995    0.0000 H   0  0  0  0  0  0  0  0  0  0  0  0
   -0.0133   -1.5647    0.0000 C   0  0  0  0  0  0  0  0  0  0  0  0
    2.9000    1.5830    0.0000 C   0  0  0  0  0  0  0  0  0  0  0  0
    3.6144    1.9955    0.0000 C   0  0  0  0  0  0  0  0  0  0  0  0
    4.3290    1.5830    0.0000 C   0  0  0  0  0  0  0  0  0  0  0  0
    4.3290    0.7580    0.0000 C   0  0  0  0  0  0  0  0  0  0  0  0
    2.1856    1.9955    0.0000 C   0  0  0  0  0  0  0  0  0  0  0  0
    1.4711    1.5830    0.0000 C   0  0  2  0  0  0  0  0  0  0  0  0
    5.0435    1.9955    0.0000 C   0  0  0  0  0  0  0  0  0  0  0  0
   -5.8835   -1.5104    0.0000 H   0  0  0  0  0  0  0  0  0  0  0  0
   -2.1514    0.7412    0.0000 H   0  0  0  0  0  0  0  0  0  0  0  0
   -3.0777    0.2193    0.0000 H   0  0  0  0  0  0  0  0  0  0  0  0
   -3.8021   -0.1806    0.0000 H   0  0  0  0  0  0  0  0  0  0  0  0
   -3.8108   -1.2555    0.0000 H   0  0  0  0  0  0  0  0  0  0  0  0
   -2.8744   -2.6347    0.0000 H   0  0  0  0  0  0  0  0  0  0  0  0
   -2.1512   -3.0469    0.0000 H   0  0  0  0  0  0  0  0  0  0  0  0
   -3.0821   -2.5175    0.0000 H   0  0  0  0  0  0  0  0  0  0  0  0
   -0.7490   -3.0089    0.0000 H   0  0  0  0  0  0  0  0  0  0  0  0
   -1.6702    1.0151    0.0000 H   0  0  0  0  0  0  0  0  0  0  0  0
   -0.7425    1.5492    0.0000 H   0  0  0  0  0  0  0  0  0  0  0  0
   -0.0031    1.9692    0.0000 H   0  0  0  0  0  0  0  0  0  0  0  0
   -0.9369    1.4395    0.0000 H   0  0  0  0  0  0  0  0  0  0  0  0
    1.8048   -1.6022    0.0000 H   0  0  0  0  0  0  0  0  0  0  0  0
    2.5288   -0.7471    0.0000 H   0  0  0  0  0  0  0  0  0  0  0  0
    3.0074    0.0614    0.0000 H   0  0  0  0  0  0  0  0  0  0  0  0
    2.4244   -0.8854    0.0000 H   0  0  0  0  0  0  0  0  0  0  0  0
    1.6129    1.8616    0.0000 H   0  0  0  0  0  0  0  0  0  0  0  0
   -0.2403    1.8616    0.0000 H   0  0  0  0  0  0  0  0  0  0  0  0
    0.6863    2.3966    0.0000 H   0  0  0  0  0  0  0  0  0  0  0  0
   -0.5324    0.6179    0.0000 H   0  0  0  0  0  0  0  0  0  0  0  0
   -2.3856    0.6179    0.0000 H   0  0  0  0  0  0  0  0  0  0  0  0
   -1.4590    1.1529    0.0000 H   0  0  0  0  0  0  0  0  0  0  0  0
    0.7567    3.0655    0.0000 H   0  0  0  0  0  0  0  0  0  0  0  0
   -0.1700    1.4605    0.0000 H   0  0  0  0  0  0  0  0  0  0  0  0
   -0.1699    2.5305    0.0000 H   0  0  0  0  0  0  0  0  0  0  0  0
    0.9106   -2.1043    0.0000 H   0  0  0  0  0  0  0  0  0  0  0  0
   -0.0214   -2.6347    0.0000 H   0  0  0  0  0  0  0  0  0  0  0  0
    2.9000    0.5130    0.0000 H   0  0  0  0  0  0  0  0  0  0  0  0
    3.8267    1.0480    0.0000 H   0  0  0  0  0  0  0  0  0  0  0  0
    3.6143    3.0655    0.0000 H   0  0  0  0  0  0  0  0  0  0  0  0
    4.5410    2.5306    0.0000 H   0  0  0  0  0  0  0  0  0  0  0  0
    5.2556    1.0480    0.0000 H   0  0  0  0  0  0  0  0  0  0  0  0
    3.4024    0.2230    0.0000 H   0  0  0  0  0  0  0  0  0  0  0  0
    5.2556    0.2230    0.0000 H   0  0  0  0  0  0  0  0  0  0  0  0
    4.3290   -0.3120    0.0000 H   0  0  0  0  0  0  0  0  0  0  0  0
    2.1856    3.0655    0.0000 H   0  0  0  0  0  0  0  0  0  0  0  0
    1.2590    2.5305    0.0000 H   0  0  0  0  0  0  0  0  0  0  0  0
    0.5444    1.0480    0.0000 H   0  0  0  0  0  0  0  0  0  0  0  0
    5.9701    1.4605    0.0000 H   0  0  0  0  0  0  0  0  0  0  0  0
    5.0435    3.0655    0.0000 H   0  0  0  0  0  0  0  0  0  0  0  0
    5.9702    2.5305    0.0000 H   0  0  0  0  0  0  0  0  0  0  0  0
  1  2  1  0  0  0  0
  2  3  1  0  0  0  0
  2  4  2  0  0  0  0
  2  5  2  0  0  0  0
  3 37  1  0  0  0  0
  6 12  1  0  0  0  0
  6 38  1  0  0  0  0
  6 39  1  0  0  0  0
  7  6  1  0  0  0  0
  7 40  1  0  0  0  0
  7 41  1  0  0  0  0
  8  9  1  0  0  0  0
  8  7  1  0  0  0  0
  8  1  1  0  0  0  0
  8 42  1  6  0  0  0
  9 10  1  0  0  0  0
  9 43  1  0  0  0  0
  9 44  1  0  0  0  0
 10 12  1  0  0  0  0
 11 29  1  0  0  0  0
 11 10  2  0  0  0  0
 11 45  1  0  0  0  0
 12 24  1  0  0  0  0
 12 21  1  1  0  0  0
 13 24  1  0  0  0  0
 13 14  1  0  0  0  0
 13 46  1  0  0  0  0
 13 47  1  0  0  0  0
 14 15  1  0  0  0  0
 14 48  1  0  0  0  0
 14 49  1  0  0  0  0
 15 20  1  1  0  0  0
 16 15  1  0  0  0  0
 16 22  1  6  0  0  0
 17 16  1  0  0  0  0
 17 50  1  0  0  0  0
 17 51  1  0  0  0  0
 18 19  1  0  0  0  0
 18 17  1  0  0  0  0
 18 52  1  0  0  0  0
 18 53  1  0  0  0  0
 19 15  1  0  0  0  0
 19 23  1  6  0  0  0
 20 54  1  0  0  0  0
 20 55  1  0  0  0  0
 20 56  1  0  0  0  0
 21 57  1  0  0  0  0
 21 58  1  0  0  0  0
 21 59  1  0  0  0  0
 24 25  1  6  0  0  0
 26 60  1  0  0  0  0
 26 61  1  0  0  0  0
 26 62  1  0  0  0  0
 27 16  1  0  0  0  0
 27 24  1  0  0  0  0
 27 28  1  1  0  0  0
 29 27  1  0  0  0  0
 29 63  1  0  0  0  0
 29 64  1  0  0  0  0
 30 65  1  0  0  0  0
 30 66  1  0  0  0  0
 31 30  1  0  0  0  0
 31 67  1  0  0  0  0
 31 68  1  0  0  0  0
 32 31  1  0  0  0  0
 32 69  1  0  0  0  0
 33 32  1  0  0  0  0
 33 70  1  0  0  0  0
 33 71  1  0  0  0  0
 33 72  1  0  0  0  0
 34 30  1  0  0  0  0
 34 35  1  0  0  0  0
 34 73  1  0  0  0  0
 34 74  1  0  0  0  0
 35 19  1  0  0  0  0
 35 26  1  0  0  0  0
 35 75  1  1  0  0  0
 36 32  1  0  0  0  0
 36 76  1  0  0  0  0
 36 77  1  0  0  0  0
 36 78  1  0  0  0  0
M  END
>  <DRUGBANK_ID>
DB01990

>  <SECONDARY_ACCESSION_NUMBERS>
EXPT00810; DBSALT002202

>  <COMMON_NAME>
Cholesterol sulfate

>  <CAS_NUMBER>
1256-86-6

>  <UNII>
KU576NT9O9

>  <SYNONYMS>
Cholest-5-en-3beta-ol sulfate; Cholesterol 3-sulfate; Cholesterol 3-sulphate; Cholesterol hydrogen sulfate; Cholesterol hydrogen sulphate; Cholesterol sulphate; Cholesterol-Sulfate; Cholesteryl sulphate

$$$$
