TL6
 OpenBabel10282417072D

 25 25  0  0  0  0  0  0  0  0999 V2000
   -1.7153   -1.6900    0.0000 O   0  0  0  0  0  0  0  0  0  0  0  0
   -1.2304   -1.0226    0.0000 C   0  0  0  0  0  0  0  0  0  0  0  0
   -1.4854   -0.2380    0.0000 S   0  0  0  0  0  0  0  0  0  0  0  0
   -0.8179    0.2470    0.0000 C   0  0  1  0  0  0  0  0  0  0  0  0
   -1.3699    0.8601    0.0000 C   0  0  0  0  0  0  0  0  0  0  0  0
   -0.1505   -0.2380    0.0000 C   0  0  0  0  0  0  0  0  0  0  0  0
    0.6341    0.0170    0.0000 O   0  0  0  0  0  0  0  0  0  0  0  0
   -0.4054   -1.0226    0.0000 C   0  0  0  0  0  0  0  0  0  0  0  0
    0.0795   -1.6900    0.0000 C   0  0  0  0  0  0  0  0  0  0  0  0
   -0.2659    0.8601    0.0000 C   0  0  0  0  0  0  0  0  0  0  0  0
    0.5411    0.6885    0.0000 C   0  0  0  0  0  0  0  0  0  0  0  0
    1.0931    1.3016    0.0000 C   0  0  0  0  0  0  0  0  0  0  0  0
    0.8382    2.0862    0.0000 C   0  0  0  0  0  0  0  0  0  0  0  0
   -1.0392    1.8777    0.0000 H   0  0  0  0  0  0  0  0  0  0  0  0
   -2.4165    0.6377    0.0000 H   0  0  0  0  0  0  0  0  0  0  0  0
   -2.0858    1.6553    0.0000 H   0  0  0  0  0  0  0  0  0  0  0  0
    1.3305   -0.6099    0.0000 H   0  0  0  0  0  0  0  0  0  0  0  0
   -0.3557   -2.6675    0.0000 H   0  0  0  0  0  0  0  0  0  0  0  0
    1.1436   -1.5781    0.0000 H   0  0  0  0  0  0  0  0  0  0  0  0
    0.7084   -2.5556    0.0000 H   0  0  0  0  0  0  0  0  0  0  0  0
   -0.5848    1.8416    0.0000 H   0  0  0  0  0  0  0  0  0  0  0  0
    0.8600   -0.2930    0.0000 H   0  0  0  0  0  0  0  0  0  0  0  0
    2.1025    1.0870    0.0000 H   0  0  0  0  0  0  0  0  0  0  0  0
    1.5288    2.8531    0.0000 H   0  0  0  0  0  0  0  0  0  0  0  0
   -0.1712    2.3008    0.0000 H   0  0  0  0  0  0  0  0  0  0  0  0
  1  2  2  0  0  0  0
  2  3  1  0  0  0  0
  2  8  1  0  0  0  0
  3  4  1  0  0  0  0
  4  5  1  0  0  0  0
  4  6  1  0  0  0  0
  4 10  1  6  0  0  0
  5 14  1  0  0  0  0
  5 15  1  0  0  0  0
  5 16  1  0  0  0  0
  6  7  1  0  0  0  0
  6  8  2  0  0  0  0
  7 17  1  0  0  0  0
  8  9  1  0  0  0  0
  9 18  1  0  0  0  0
  9 19  1  0  0  0  0
  9 20  1  0  0  0  0
 10 11  2  0  0  0  0
 10 21  1  0  0  0  0
 11 12  1  0  0  0  0
 11 22  1  0  0  0  0
 12 13  2  0  0  0  0
 12 23  1  0  0  0  0
 13 24  1  0  0  0  0
 13 25  1  0  0  0  0
M  END
>  <DRUGBANK_ID>
DB08628

>  <COMMON_NAME>
(5R)-5-[(1E)-BUTA-1,3-DIENYL]-4-HYDROXY-3,5-DIMETHYLTHIOPHEN-2(5H)-ONE

$$$$
