
 OpenBabel10282417072D

  6  4  0  0  0  0  0  0  0  0999 V2000
    0.8250    0.0000    0.0000 O   0  5  0  0  0  0  0  0  0  0  0  0
    1.6500    0.0000    0.0000 S   0  0  0  0  0  0  0  0  0  0  0  0
    2.4750    0.0000    0.0000 O   0  0  0  0  0  0  0  0  0  0  0  0
    1.6500    0.8250    0.0000 O   0  0  0  0  0  0  0  0  0  0  0  0
    1.6500   -0.8250    0.0000 O   0  5  0  0  0  0  0  0  0  0  0  0
    0.0000    0.0000    0.0000 Cr  0  2  0  0  0  0  0  0  0  0  0  0
  1  2  1  0  0  0  0
  2  3  2  0  0  0  0
  2  4  2  0  0  0  0
  2  5  1  0  0  0  0
M  CHG  3   1  -1   5  -1   6   2
M  END
>  <DRUGBANK_ID>
DB14530

>  <SECONDARY_ACCESSION_NUMBERS>
DBSALT002355

>  <COMMON_NAME>
Chromous sulfate

>  <CAS_NUMBER>
13825-86-0

>  <UNII>
TR64E2WM7Z

$$$$
