
 OpenBabel10282417072D

 44 47  0  0  0  0  0  0  0  0999 V2000
    0.5316    1.1226    0.0000 C   0  0  0  0  0  0  0  0  0  0  0  0
    0.3524    1.9279    0.0000 C   0  0  0  0  0  0  0  0  0  0  0  0
    0.9602    2.4857    0.0000 C   0  0  0  0  0  0  0  0  0  0  0  0
    1.7472    2.2382    0.0000 C   0  0  0  0  0  0  0  0  0  0  0  0
    1.9264    1.4329    0.0000 C   0  0  0  0  0  0  0  0  0  0  0  0
    1.3186    0.8751    0.0000 C   0  0  0  0  0  0  0  0  0  0  0  0
   -2.7134    1.4583    0.0000 C   0  0  0  0  0  0  0  0  0  0  0  0
   -2.5254    2.2616    0.0000 C   0  0  0  0  0  0  0  0  0  0  0  0
   -1.7357    2.5005    0.0000 C   0  0  0  0  0  0  0  0  0  0  0  0
   -1.1340    1.9360    0.0000 C   0  0  0  0  0  0  0  0  0  0  0  0
   -1.3220    1.1327    0.0000 C   0  0  0  0  0  0  0  0  0  0  0  0
   -2.1117    0.8939    0.0000 C   0  0  0  0  0  0  0  0  0  0  0  0
   -0.3888    2.2899    0.0000 S   0  0  0  0  0  0  0  0  0  0  0  0
   -0.8112    0.4849    0.0000 C   0  0  0  0  0  0  0  0  0  0  0  0
    0.0137    0.4804    0.0000 C   0  0  3  0  0  0  0  0  0  0  0  0
    2.7134    1.1854    0.0000 Cl  0  0  0  0  0  0  0  0  0  0  0  0
    0.3676   -0.2647    0.0000 N   0  0  0  0  0  0  0  0  0  0  0  0
    1.1899   -0.3309    0.0000 C   0  0  0  0  0  0  0  0  0  0  0  0
    1.5438   -1.0762    0.0000 C   0  0  0  0  0  0  0  0  0  0  0  0
    1.0754   -1.7552    0.0000 N   0  0  0  0  0  0  0  0  0  0  0  0
    0.2530   -1.6891    0.0000 C   0  0  0  0  0  0  0  0  0  0  0  0
   -0.1008   -0.9438    0.0000 C   0  0  0  0  0  0  0  0  0  0  0  0
    1.4292   -2.5005    0.0000 C   0  0  0  0  0  0  0  0  0  0  0  0
    0.7361    3.4931    0.0000 H   0  0  0  0  0  0  0  0  0  0  0  0
    2.5075    2.9360    0.0000 H   0  0  0  0  0  0  0  0  0  0  0  0
    1.5427   -0.1323    0.0000 H   0  0  0  0  0  0  0  0  0  0  0  0
   -3.7012    1.1595    0.0000 H   0  0  0  0  0  0  0  0  0  0  0  0
   -3.2781    2.9677    0.0000 H   0  0  0  0  0  0  0  0  0  0  0  0
   -1.5006    3.5054    0.0000 H   0  0  0  0  0  0  0  0  0  0  0  0
   -2.3469   -0.1110    0.0000 H   0  0  0  0  0  0  0  0  0  0  0  0
   -1.2807   -0.4766    0.0000 H   0  0  0  0  0  0  0  0  0  0  0  0
   -0.2469   -0.4242    0.0000 H   0  0  0  0  0  0  0  0  0  0  0  0
   -0.4453    1.4470    0.0000 H   0  0  0  0  0  0  0  0  0  0  0  0
    1.7975    0.5498    0.0000 H   0  0  0  0  0  0  0  0  0  0  0  0
    2.2565   -0.4167    0.0000 H   0  0  0  0  0  0  0  0  0  0  0  0
    2.6104   -1.1620    0.0000 H   0  0  0  0  0  0  0  0  0  0  0  0
    2.0028   -2.0428    0.0000 H   0  0  0  0  0  0  0  0  0  0  0  0
   -0.3546   -2.5698    0.0000 H   0  0  0  0  0  0  0  0  0  0  0  0
   -0.8135   -1.6032    0.0000 H   0  0  0  0  0  0  0  0  0  0  0  0
   -1.1674   -0.8580    0.0000 H   0  0  0  0  0  0  0  0  0  0  0  0
   -0.7084   -1.8245    0.0000 H   0  0  0  0  0  0  0  0  0  0  0  0
    0.8215   -3.3812    0.0000 H   0  0  0  0  0  0  0  0  0  0  0  0
    2.4957   -2.5864    0.0000 H   0  0  0  0  0  0  0  0  0  0  0  0
    1.8881   -3.4671    0.0000 H   0  0  0  0  0  0  0  0  0  0  0  0
  1  2  2  0  0  0  0
  1 15  1  0  0  0  0
  2  3  1  0  0  0  0
  3  4  2  0  0  0  0
  3 24  1  0  0  0  0
  4  5  1  0  0  0  0
  4 25  1  0  0  0  0
  5 16  1  0  0  0  0
  5  6  2  0  0  0  0
  6  1  1  0  0  0  0
  6 26  1  0  0  0  0
  7  8  2  0  0  0  0
  7 27  1  0  0  0  0
  8  9  1  0  0  0  0
  8 28  1  0  0  0  0
  9 10  2  0  0  0  0
  9 29  1  0  0  0  0
 10 13  1  0  0  0  0
 10 11  1  0  0  0  0
 11 12  2  0  0  0  0
 11 14  1  0  0  0  0
 12  7  1  0  0  0  0
 12 30  1  0  0  0  0
 13  2  1  0  0  0  0
 14 15  1  0  0  0  0
 14 31  1  0  0  0  0
 14 32  1  0  0  0  0
 15 17  1  0  0  0  0
 15 33  1  0  0  0  0
 17 18  1  0  0  0  0
 17 22  1  0  0  0  0
 18 19  1  0  0  0  0
 18 34  1  0  0  0  0
 18 35  1  0  0  0  0
 19 20  1  0  0  0  0
 19 36  1  0  0  0  0
 19 37  1  0  0  0  0
 20 21  1  0  0  0  0
 20 23  1  0  0  0  0
 21 22  1  0  0  0  0
 21 38  1  0  0  0  0
 21 39  1  0  0  0  0
 22 40  1  0  0  0  0
 22 41  1  0  0  0  0
 23 42  1  0  0  0  0
 23 43  1  0  0  0  0
 23 44  1  0  0  0  0
M  END
>  <DRUGBANK_ID>
DB15971

>  <COMMON_NAME>
Clorotepine

>  <CAS_NUMBER>
13448-22-1

>  <UNII>
E65W20MU7A

>  <SYNONYMS>
Clorotepina; Clorotepine; Clorotepinum; Clothepin; Octoclothepine

$$$$
