5BN
 OpenBabel10282417072D

 38 41  0  0  0  0  0  0  0  0999 V2000
    1.5443   -2.9894    0.0000 N   0  0  0  0  0  0  0  0  0  0  0  0
    0.8298   -2.5769    0.0000 C   0  0  0  0  0  0  0  0  0  0  0  0
    0.8298   -1.7519    0.0000 C   0  0  0  0  0  0  0  0  0  0  0  0
    0.1154   -1.3394    0.0000 N   0  0  0  0  0  0  0  0  0  0  0  0
    0.1154   -0.5144    0.0000 C   0  0  0  0  0  0  0  0  0  0  0  0
   -0.5971   -0.1019    0.0000 C   0  0  0  0  0  0  0  0  0  0  0  0
   -0.5971    0.7231    0.0000 C   0  0  0  0  0  0  0  0  0  0  0  0
   -1.3119    1.1352    0.0000 C   0  0  0  0  0  0  0  0  0  0  0  0
   -2.0653    0.7992    0.0000 C   0  0  0  0  0  0  0  0  0  0  0  0
   -2.6177    1.4119    0.0000 C   0  0  0  0  0  0  0  0  0  0  0  0
   -2.2057    2.1267    0.0000 C   0  0  0  0  0  0  0  0  0  0  0  0
   -1.3986    1.9556    0.0000 N   0  0  0  0  0  0  0  0  0  0  0  0
    0.1154    1.1356    0.0000 C   0  0  0  0  0  0  0  0  0  0  0  0
    0.4154    1.9928    0.0000 C   0  0  0  0  0  0  0  0  0  0  0  0
   -0.0620    2.6656    0.0000 O   0  0  0  0  0  0  0  0  0  0  0  0
    1.2404    1.9928    0.0000 N   0  0  0  0  0  0  0  0  0  0  0  0
    1.5457    1.1356    0.0000 C   0  0  0  0  0  0  0  0  0  0  0  0
    2.2582    0.7231    0.0000 C   0  0  0  0  0  0  0  0  0  0  0  0
    2.2582   -0.1019    0.0000 C   0  0  0  0  0  0  0  0  0  0  0  0
    1.5457   -0.5144    0.0000 C   0  0  0  0  0  0  0  0  0  0  0  0
    1.5471   -1.3394    0.0000 F   0  0  0  0  0  0  0  0  0  0  0  0
    0.8279   -0.1019    0.0000 C   0  0  0  0  0  0  0  0  0  0  0  0
    0.8279    0.7231    0.0000 C   0  0  0  0  0  0  0  0  0  0  0  0
    1.5443   -4.0094    0.0000 H   0  0  0  0  0  0  0  0  0  0  0  0
    2.4276   -2.4794    0.0000 H   0  0  0  0  0  0  0  0  0  0  0  0
   -0.0968   -3.1119    0.0000 H   0  0  0  0  0  0  0  0  0  0  0  0
   -0.0968   -2.0419    0.0000 H   0  0  0  0  0  0  0  0  0  0  0  0
    1.7565   -1.2169    0.0000 H   0  0  0  0  0  0  0  0  0  0  0  0
    0.8298   -0.6819    0.0000 H   0  0  0  0  0  0  0  0  0  0  0  0
   -0.7372   -1.8316    0.0000 H   0  0  0  0  0  0  0  0  0  0  0  0
   -1.4911   -0.6174    0.0000 H   0  0  0  0  0  0  0  0  0  0  0  0
   -2.2792   -0.2104    0.0000 H   0  0  0  0  0  0  0  0  0  0  0  0
   -3.6440    1.3033    0.0000 H   0  0  0  0  0  0  0  0  0  0  0  0
   -2.6260    3.0692    0.0000 H   0  0  0  0  0  0  0  0  0  0  0  0
   -0.6673    2.6148    0.0000 H   0  0  0  0  0  0  0  0  0  0  0  0
    1.8079    2.7973    0.0000 H   0  0  0  0  0  0  0  0  0  0  0  0
    3.1522    1.2386    0.0000 H   0  0  0  0  0  0  0  0  0  0  0  0
    3.1522   -0.6174    0.0000 H   0  0  0  0  0  0  0  0  0  0  0  0
  1  2  1  0  0  0  0
  1 24  1  0  0  0  0
  1 25  1  0  0  0  0
  2  3  1  0  0  0  0
  2 26  1  0  0  0  0
  2 27  1  0  0  0  0
  3  4  1  0  0  0  0
  3 28  1  0  0  0  0
  3 29  1  0  0  0  0
  4  5  1  0  0  0  0
  4 30  1  0  0  0  0
  5  6  2  0  0  0  0
  5 22  1  0  0  0  0
  6  7  1  0  0  0  0
  6 31  1  0  0  0  0
  7  8  1  0  0  0  0
  7 13  2  0  0  0  0
  8  9  2  0  0  0  0
  8 12  1  0  0  0  0
  9 10  1  0  0  0  0
  9 32  1  0  0  0  0
 10 11  2  0  0  0  0
 10 33  1  0  0  0  0
 11 12  1  0  0  0  0
 11 34  1  0  0  0  0
 12 35  1  0  0  0  0
 13 14  1  0  0  0  0
 13 23  1  0  0  0  0
 14 15  2  0  0  0  0
 14 16  1  0  0  0  0
 16 17  1  0  0  0  0
 16 36  1  0  0  0  0
 17 18  2  0  0  0  0
 17 23  1  0  0  0  0
 18 19  1  0  0  0  0
 18 37  1  0  0  0  0
 19 20  2  0  0  0  0
 19 38  1  0  0  0  0
 20 21  1  0  0  0  0
 20 22  1  0  0  0  0
 22 23  2  0  0  0  0
M  END
>  <DRUGBANK_ID>
DB07163

>  <COMMON_NAME>
5-[(2-AMINOETHYL)AMINO]-6-FLUORO-3-(1H-PYRROL-2-YL)BENZO[CD]INDOL-2(1H)-ONE

$$$$
