
 OpenBabel10282417072D

 68 71  0  0  0  0  0  0  0  0999 V2000
   -0.7494   -1.9837    0.0000 C   0  0  0  0  0  0  0  0  0  0  0  0
   -1.4640   -2.3961    0.0000 C   0  0  0  0  0  0  0  0  0  0  0  0
   -2.1784   -1.9837    0.0000 C   0  0  0  0  0  0  0  0  0  0  0  0
   -2.8929   -2.3961    0.0000 C   0  0  0  0  0  0  0  0  0  0  0  0
   -3.6074   -1.1587    0.0000 C   0  0  0  0  0  0  0  0  0  0  0  0
   -2.8929   -0.7462    0.0000 C   0  0  0  0  0  0  0  0  0  0  0  0
   -2.1784   -1.1587    0.0000 C   0  0  1  0  0  0  0  0  0  0  0  0
   -2.1784   -0.3337    0.0000 C   0  0  0  0  0  0  0  0  0  0  0  0
   -0.7494    0.4912    0.0000 C   0  0  0  0  0  0  0  0  0  0  0  0
    1.2345   -0.3337    0.0000 C   0  0  0  0  0  0  0  0  0  0  0  0
    0.7496   -1.0011    0.0000 C   0  0  0  0  0  0  0  0  0  0  0  0
   -1.4640   -0.7462    0.0000 C   0  0  2  0  0  0  0  0  0  0  0  0
   -1.4640   -1.5712    0.0000 H   0  0  0  0  0  0  0  0  0  0  0  0
   -0.0350   -0.7462    0.0000 C   0  0  1  0  0  0  0  0  0  0  0  0
   -0.0350   -1.5712    0.0000 H   0  0  0  0  0  0  0  0  0  0  0  0
   -0.7494   -1.1587    0.0000 C   0  0  2  0  0  0  0  0  0  0  0  0
   -0.7494   -0.3337    0.0000 H   0  0  0  0  0  0  0  0  0  0  0  0
   -0.0350    0.0787    0.0000 C   0  0  2  0  0  0  0  0  0  0  0  0
   -0.0350    0.9037    0.0000 C   0  0  0  0  0  0  0  0  0  0  0  0
    0.7496    0.3337    0.0000 C   0  0  1  0  0  0  0  0  0  0  0  0
    1.4641    0.7462    0.0000 H   0  0  0  0  0  0  0  0  0  0  0  0
   -3.6074   -1.9837    0.0000 C   0  0  0  0  0  0  0  0  0  0  0  0
   -4.3220   -2.3962    0.0000 O   0  0  0  0  0  0  0  0  0  0  0  0
   -1.4640    0.0787    0.0000 C   0  0  0  0  0  0  0  0  0  0  0  0
    0.7496    1.1587    0.0000 C   0  0  0  0  0  0  0  0  0  0  0  0
    0.0351    1.5712    0.0000 O   0  0  0  0  0  0  0  0  0  0  0  0
    1.4641    1.5712    0.0000 C   0  0  0  0  0  0  0  0  0  0  0  0
    2.1786    1.1587    0.0000 O   0  0  0  0  0  0  0  0  0  0  0  0
    2.8931    1.5712    0.0000 C   0  0  0  0  0  0  0  0  0  0  0  0
    2.8931    2.3962    0.0000 O   0  0  0  0  0  0  0  0  0  0  0  0
    3.6075    1.1587    0.0000 C   0  0  0  0  0  0  0  0  0  0  0  0
    4.3220    1.5712    0.0000 C   0  0  0  0  0  0  0  0  0  0  0  0
    3.6075    0.3337    0.0000 C   0  0  0  0  0  0  0  0  0  0  0  0
    4.3220    0.7462    0.0000 C   0  0  0  0  0  0  0  0  0  0  0  0
    0.1772   -2.5188    0.0000 H   0  0  0  0  0  0  0  0  0  0  0  0
   -0.7495   -3.0537    0.0000 H   0  0  0  0  0  0  0  0  0  0  0  0
   -1.4641   -3.4661    0.0000 H   0  0  0  0  0  0  0  0  0  0  0  0
   -2.3906   -2.9311    0.0000 H   0  0  0  0  0  0  0  0  0  0  0  0
   -2.8929   -3.4281    0.0000 H   0  0  0  0  0  0  0  0  0  0  0  0
   -4.5340   -0.6237    0.0000 H   0  0  0  0  0  0  0  0  0  0  0  0
   -3.6074   -0.0887    0.0000 H   0  0  0  0  0  0  0  0  0  0  0  0
   -2.8929    0.3238    0.0000 H   0  0  0  0  0  0  0  0  0  0  0  0
   -1.9663   -0.2112    0.0000 H   0  0  0  0  0  0  0  0  0  0  0  0
   -1.2518    0.2013    0.0000 H   0  0  0  0  0  0  0  0  0  0  0  0
   -3.1050    0.2013    0.0000 H   0  0  0  0  0  0  0  0  0  0  0  0
   -2.1784    0.7363    0.0000 H   0  0  0  0  0  0  0  0  0  0  0  0
   -0.7493    1.5612    0.0000 H   0  0  0  0  0  0  0  0  0  0  0  0
    0.1773    1.0262    0.0000 H   0  0  0  0  0  0  0  0  0  0  0  0
    2.3045   -0.3337    0.0000 H   0  0  0  0  0  0  0  0  0  0  0  0
    1.7203   -1.2871    0.0000 H   0  0  0  0  0  0  0  0  0  0  0  0
    1.0803   -2.0187    0.0000 H   0  0  0  0  0  0  0  0  0  0  0  0
   -0.0070   -1.7577    0.0000 H   0  0  0  0  0  0  0  0  0  0  0  0
    0.8916    1.4387    0.0000 H   0  0  0  0  0  0  0  0  0  0  0  0
   -0.9616    1.4387    0.0000 H   0  0  0  0  0  0  0  0  0  0  0  0
   -0.0350    1.9737    0.0000 H   0  0  0  0  0  0  0  0  0  0  0  0
   -2.3906    0.6137    0.0000 H   0  0  0  0  0  0  0  0  0  0  0  0
   -1.4639    1.1487    0.0000 H   0  0  0  0  0  0  0  0  0  0  0  0
    1.4641    2.6412    0.0000 H   0  0  0  0  0  0  0  0  0  0  0  0
    2.3907    2.1062    0.0000 H   0  0  0  0  0  0  0  0  0  0  0  0
    5.2486    1.0362    0.0000 H   0  0  0  0  0  0  0  0  0  0  0  0
    4.3220    2.6412    0.0000 H   0  0  0  0  0  0  0  0  0  0  0  0
    5.2487    2.1062    0.0000 H   0  0  0  0  0  0  0  0  0  0  0  0
    2.6809   -0.2013    0.0000 H   0  0  0  0  0  0  0  0  0  0  0  0
    4.5341   -0.2013    0.0000 H   0  0  0  0  0  0  0  0  0  0  0  0
    3.6075   -0.7363    0.0000 H   0  0  0  0  0  0  0  0  0  0  0  0
    4.3220   -0.3238    0.0000 H   0  0  0  0  0  0  0  0  0  0  0  0
    5.2486    1.2812    0.0000 H   0  0  0  0  0  0  0  0  0  0  0  0
    5.2487    0.2112    0.0000 H   0  0  0  0  0  0  0  0  0  0  0  0
  1  2  1  0  0  0  0
  1 35  1  0  0  0  0
  1 36  1  0  0  0  0
  2  3  1  0  0  0  0
  2 37  1  0  0  0  0
  2 38  1  0  0  0  0
  3  4  2  0  0  0  0
  3  7  1  0  0  0  0
  4 22  1  0  0  0  0
  4 39  1  0  0  0  0
  5  6  1  0  0  0  0
  5 40  1  0  0  0  0
  5 41  1  0  0  0  0
  6  7  1  0  0  0  0
  6 42  1  0  0  0  0
  6 43  1  0  0  0  0
  7  8  1  1  0  0  0
  7 12  1  0  0  0  0
  8 44  1  0  0  0  0
  8 45  1  0  0  0  0
  8 46  1  0  0  0  0
  9 18  1  0  0  0  0
  9 47  1  0  0  0  0
  9 48  1  0  0  0  0
 10 11  1  0  0  0  0
 10 49  1  0  0  0  0
 10 50  1  0  0  0  0
 11 14  1  0  0  0  0
 11 51  1  0  0  0  0
 11 52  1  0  0  0  0
 12 24  1  0  0  0  0
 12 13  1  6  0  0  0
 14 15  1  6  0  0  0
 16  1  1  0  0  0  0
 16 12  1  0  0  0  0
 16 14  1  0  0  0  0
 16 17  1  1  0  0  0
 18 20  1  0  0  0  0
 18 14  1  0  0  0  0
 18 19  1  1  0  0  0
 19 53  1  0  0  0  0
 19 54  1  0  0  0  0
 19 55  1  0  0  0  0
 20 10  1  0  0  0  0
 20 21  1  6  0  0  0
 20 25  1  0  0  0  0
 22  5  1  0  0  0  0
 22 23  2  0  0  0  0
 24  9  1  0  0  0  0
 24 56  1  0  0  0  0
 24 57  1  0  0  0  0
 25 27  1  0  0  0  0
 25 26  2  0  0  0  0
 27 28  1  0  0  0  0
 27 58  1  0  0  0  0
 27 59  1  0  0  0  0
 28 29  1  0  0  0  0
 29 30  2  0  0  0  0
 29 31  1  0  0  0  0
 31 32  1  0  0  0  0
 31 33  1  0  0  0  0
 31 34  1  0  0  0  0
 32 60  1  0  0  0  0
 32 61  1  0  0  0  0
 32 62  1  0  0  0  0
 33 63  1  0  0  0  0
 33 64  1  0  0  0  0
 33 65  1  0  0  0  0
 34 66  1  0  0  0  0
 34 67  1  0  0  0  0
 34 68  1  0  0  0  0
M  END
>  <DRUGBANK_ID>
DB01134

>  <SECONDARY_ACCESSION_NUMBERS>
APRD00709

>  <COMMON_NAME>
Desoxycorticosterone pivalate

>  <CAS_NUMBER>
808-48-0

>  <UNII>
16665T4A2X

>  <SYNONYMS>
11-deoxycorticosterone pivalate; Deoxycorticosterone pivalate; Deoxycorticosterone trimethylacetate; Deoxycortone pivalate; Deoxycortone trimethylacetate; Desoxycorticosterone pivalate; Desoxycorticosterone trimethylacetate; Desoxycortone pivalate; DOCP; DTMA

$$$$
