
 OpenBabel10282417072D

 16 15  0  0  0  0  0  0  0  0999 V2000
    1.2375    2.1434    0.0000 C   0  0  0  0  0  0  0  0  0  0  0  0
    0.8250    1.4289    0.0000 C   0  0  0  0  0  0  0  0  0  0  0  0
   -0.0000    1.4289    0.0000 C   0  0  0  0  0  0  0  0  0  0  0  0
    1.2375    0.7145    0.0000 C   0  0  0  0  0  0  0  0  0  0  0  0
    2.0625    0.7145    0.0000 O   0  0  0  0  0  0  0  0  0  0  0  0
    0.8250    0.0000    0.0000 C   0  0  0  0  0  0  0  0  0  0  0  0
    1.2375   -0.7145    0.0000 O   0  0  0  0  0  0  0  0  0  0  0  0
    0.0000    0.0000    0.0000 O   0  0  0  0  0  0  0  0  0  0  0  0
    2.3075    2.1434    0.0000 H   0  0  0  0  0  0  0  0  0  0  0  0
    0.7025    3.0700    0.0000 H   0  0  0  0  0  0  0  0  0  0  0  0
    1.7725    3.0701    0.0000 H   0  0  0  0  0  0  0  0  0  0  0  0
    0.2900    0.5022    0.0000 H   0  0  0  0  0  0  0  0  0  0  0  0
   -0.5350    2.3555    0.0000 H   0  0  0  0  0  0  0  0  0  0  0  0
   -0.5350    0.5023    0.0000 H   0  0  0  0  0  0  0  0  0  0  0  0
   -1.0700    1.4289    0.0000 H   0  0  0  0  0  0  0  0  0  0  0  0
   -0.4685    0.8115    0.0000 H   0  0  0  0  0  0  0  0  0  0  0  0
  1  2  1  0  0  0  0
  1  9  1  0  0  0  0
  1 10  1  0  0  0  0
  1 11  1  0  0  0  0
  2  3  1  0  0  0  0
  2  4  1  0  0  0  0
  2 12  1  0  0  0  0
  3 13  1  0  0  0  0
  3 14  1  0  0  0  0
  3 15  1  0  0  0  0
  4  5  2  0  0  0  0
  4  6  1  0  0  0  0
  6  7  2  0  0  0  0
  6  8  1  0  0  0  0
  8 16  1  0  0  0  0
M  END
>  <DRUGBANK_ID>
DB04074

>  <SECONDARY_ACCESSION_NUMBERS>
EXPT01974

>  <COMMON_NAME>
alpha-Ketoisovalerate

>  <CAS_NUMBER>
759-05-7

>  <UNII>
34P71D50E0

>  <SYNONYMS>
2-Keto-3-methylbutyric acid; 2-Ketoisovaleric acid; 2-Ketovaline; 2-Oxo-3-methylbutanoic acid; 3-Methyl-2-oxobutanoate; 3-Methyl-2-oxobutanoic acid; 3-Methyl-2-oxobutyric acid; alpha-Ketovaline; Dimethylpyruvic acid; Isopropylglyoxylic acid; α-keto-isovaleric acid; α-oxo-β-methylbutyricacid; α-oxoisovaleric acid

$$$$
