L15
 OpenBabel10282417072D

 30 31  0  0  0  0  0  0  0  0999 V2000
    2.8670   -0.2453    0.0000 C   0  0  0  0  0  0  0  0  0  0  0  0
    2.8670   -1.0703    0.0000 C   0  0  0  0  0  0  0  0  0  0  0  0
    3.5345   -1.5552    0.0000 N   0  0  0  0  0  0  0  0  0  0  0  0
    3.2795   -2.3399    0.0000 N   0  0  0  0  0  0  0  0  0  0  0  0
    2.4545   -2.3399    0.0000 C   0  0  0  0  0  0  0  0  0  0  0  0
    2.1996   -1.5552    0.0000 C   0  0  0  0  0  0  0  0  0  0  0  0
    1.4150   -1.3003    0.0000 C   0  0  0  0  0  0  0  0  0  0  0  0
    0.8019   -1.8523    0.0000 C   0  0  0  0  0  0  0  0  0  0  0  0
    0.0173   -1.5974    0.0000 C   0  0  0  0  0  0  0  0  0  0  0  0
   -0.1543   -0.7904    0.0000 C   0  0  0  0  0  0  0  0  0  0  0  0
   -0.9389   -0.5355    0.0000 C   0  0  0  0  0  0  0  0  0  0  0  0
   -1.1104    0.2715    0.0000 C   0  0  0  0  0  0  0  0  0  0  0  0
   -1.8950    0.5264    0.0000 N   0  0  0  0  0  0  0  0  0  0  0  0
    0.4588   -0.2384    0.0000 C   0  0  0  0  0  0  0  0  0  0  0  0
    1.2435   -0.4933    0.0000 C   0  0  0  0  0  0  0  0  0  0  0  0
    3.7936    0.2897    0.0000 H   0  0  0  0  0  0  0  0  0  0  0  0
    1.9404    0.2897    0.0000 H   0  0  0  0  0  0  0  0  0  0  0  0
    2.8670    0.8247    0.0000 H   0  0  0  0  0  0  0  0  0  0  0  0
    3.8582   -3.1364    0.0000 H   0  0  0  0  0  0  0  0  0  0  0  0
    1.8479   -3.1748    0.0000 H   0  0  0  0  0  0  0  0  0  0  0  0
    1.0165   -2.8617    0.0000 H   0  0  0  0  0  0  0  0  0  0  0  0
   -0.7496   -2.2880    0.0000 H   0  0  0  0  0  0  0  0  0  0  0  0
   -1.7341   -1.2515    0.0000 H   0  0  0  0  0  0  0  0  0  0  0  0
   -1.9565   -0.2048    0.0000 H   0  0  0  0  0  0  0  0  0  0  0  0
   -0.3152    0.9875    0.0000 H   0  0  0  0  0  0  0  0  0  0  0  0
   -1.3329    1.3181    0.0000 H   0  0  0  0  0  0  0  0  0  0  0  0
   -2.1071    1.5241    0.0000 H   0  0  0  0  0  0  0  0  0  0  0  0
   -2.6530   -0.1561    0.0000 H   0  0  0  0  0  0  0  0  0  0  0  0
    0.2442    0.7710    0.0000 H   0  0  0  0  0  0  0  0  0  0  0  0
    2.0104    0.1973    0.0000 H   0  0  0  0  0  0  0  0  0  0  0  0
  1  2  1  0  0  0  0
  1 16  1  0  0  0  0
  1 17  1  0  0  0  0
  1 18  1  0  0  0  0
  2  3  2  0  0  0  0
  2  6  1  0  0  0  0
  3  4  1  0  0  0  0
  4  5  1  0  0  0  0
  4 19  1  0  0  0  0
  5  6  2  0  0  0  0
  5 20  1  0  0  0  0
  6  7  1  0  0  0  0
  7  8  1  0  0  0  0
  7 15  2  0  0  0  0
  8  9  2  0  0  0  0
  8 21  1  0  0  0  0
  9 10  1  0  0  0  0
  9 22  1  0  0  0  0
 10 11  1  0  0  0  0
 10 14  2  0  0  0  0
 11 12  1  0  0  0  0
 11 23  1  0  0  0  0
 11 24  1  0  0  0  0
 12 13  1  0  0  0  0
 12 25  1  0  0  0  0
 12 26  1  0  0  0  0
 13 27  1  0  0  0  0
 13 28  1  0  0  0  0
 14 15  1  0  0  0  0
 14 29  1  0  0  0  0
 15 30  1  0  0  0  0
M  END
>  <DRUGBANK_ID>
DB08070

>  <COMMON_NAME>
2-[4-(3-METHYL-1H-PYRAZOL-4-YL)PHENYL]ETHANAMINE

$$$$
