
 OpenBabel10282417072D

 15 14  0  0  0  0  0  0  0  0999 V2000
    2.4750   -1.4289    0.0000 C   0  0  0  0  0  0  0  0  0  0  0  0
    1.6500   -1.4289    0.0000 O   0  0  0  0  0  0  0  0  0  0  0  0
    1.2375   -0.7145    0.0000 P   0  0  3  0  0  0  0  0  0  0  0  0
    1.9520   -0.3020    0.0000 N   0  0  0  0  0  0  0  0  0  0  0  0
    0.5230   -1.1270    0.0000 O   0  0  0  0  0  0  0  0  0  0  0  0
    0.8250    0.0000    0.0000 S   0  0  0  0  0  0  0  0  0  0  0  0
    0.0000    0.0000    0.0000 C   0  0  0  0  0  0  0  0  0  0  0  0
    3.0100   -2.3555    0.0000 H   0  0  0  0  0  0  0  0  0  0  0  0
    3.0100   -0.5023    0.0000 H   0  0  0  0  0  0  0  0  0  0  0  0
    3.5450   -1.4289    0.0000 H   0  0  0  0  0  0  0  0  0  0  0  0
    2.8353   -0.8120    0.0000 H   0  0  0  0  0  0  0  0  0  0  0  0
    1.9520    0.7180    0.0000 H   0  0  0  0  0  0  0  0  0  0  0  0
   -0.5350    0.9266    0.0000 H   0  0  0  0  0  0  0  0  0  0  0  0
   -0.5350   -0.9266    0.0000 H   0  0  0  0  0  0  0  0  0  0  0  0
   -1.0700   -0.0000    0.0000 H   0  0  0  0  0  0  0  0  0  0  0  0
  1  2  1  0  0  0  0
  1  8  1  0  0  0  0
  1  9  1  0  0  0  0
  1 10  1  0  0  0  0
  2  3  1  0  0  0  0
  3  4  1  0  0  0  0
  3  5  2  0  0  0  0
  3  6  1  0  0  0  0
  4 11  1  0  0  0  0
  4 12  1  0  0  0  0
  6  7  1  0  0  0  0
  7 13  1  0  0  0  0
  7 14  1  0  0  0  0
  7 15  1  0  0  0  0
M  END
>  <DRUGBANK_ID>
DB14972

>  <COMMON_NAME>
Methamidophos

>  <CAS_NUMBER>
10265-92-6

>  <UNII>
8Z083FM94W

>  <SYNONYMS>
MONITOR

$$$$
