
 OpenBabel10282417072D

 59 62  0  0  0  0  0  0  0  0999 V2000
    0.0000    0.8250    0.0000 C   0  0  0  0  0  0  0  0  0  0  0  0
    0.7145    0.4125    0.0000 C   0  0  0  0  0  0  0  0  0  0  0  0
    0.7145   -0.4125    0.0000 C   0  0  0  0  0  0  0  0  0  0  0  0
    0.0000   -0.8250    0.0000 C   0  0  0  0  0  0  0  0  0  0  0  0
   -0.7145   -0.4125    0.0000 C   0  0  0  0  0  0  0  0  0  0  0  0
   -0.7145    0.4125    0.0000 N   0  0  0  0  0  0  0  0  0  0  0  0
    0.7145    2.0625    0.0000 C   0  0  0  0  0  0  0  0  0  0  0  0
    0.0000    1.6500    0.0000 C   0  0  0  0  0  0  0  0  0  0  0  0
    1.4289    0.8250    0.0000 C   0  0  0  0  0  0  0  0  0  0  0  0
    1.4289    1.6500    0.0000 C   0  0  0  0  0  0  0  0  0  0  0  0
    0.0000   -1.6500    0.0000 C   0  0  0  0  0  0  0  0  0  0  0  0
    0.7145   -2.0625    0.0000 C   0  0  0  0  0  0  0  0  0  0  0  0
    1.4289   -1.6500    0.0000 C   0  0  0  0  0  0  0  0  0  0  0  0
    1.4289   -0.8250    0.0000 C   0  0  0  0  0  0  0  0  0  0  0  0
   -1.4991    0.6674    0.0000 N   0  0  0  0  0  0  0  0  0  0  0  0
   -1.9840    0.0000    0.0000 N   0  0  0  0  0  0  0  0  0  0  0  0
   -1.4991   -0.6674    0.0000 N   0  0  0  0  0  0  0  0  0  0  0  0
    0.7145    2.8875    0.0000 C   0  0  0  0  0  0  0  0  0  0  0  0
    2.2136    3.0451    0.0000 C   0  0  0  0  0  0  0  0  0  0  0  0
    2.6985    3.7125    0.0000 N   0  0  0  0  0  0  0  0  0  0  0  0
    1.4289    3.3000    0.0000 N   0  0  0  0  0  0  0  0  0  0  0  0
    2.4685    2.2604    0.0000 C   0  0  0  0  0  0  0  0  0  0  0  0
    3.2755    2.0889    0.0000 C   0  0  0  0  0  0  0  0  0  0  0  0
    3.5304    1.3043    0.0000 C   0  0  0  0  0  0  0  0  0  0  0  0
    1.4289    4.1250    0.0000 C   0  0  0  0  0  0  0  0  0  0  0  0
    0.7145    4.5375    0.0000 C   0  0  0  0  0  0  0  0  0  0  0  0
    0.7145    5.3625    0.0000 O   0  0  0  0  0  0  0  0  0  0  0  0
    0.0000    4.1250    0.0000 O   0  0  0  0  0  0  0  0  0  0  0  0
    2.2136    4.3799    0.0000 C   0  0  0  0  0  0  0  0  0  0  0  0
    2.4685    5.1646    0.0000 C   0  0  0  0  0  0  0  0  0  0  0  0
    1.9165    5.7777    0.0000 C   0  0  0  0  0  0  0  0  0  0  0  0
    3.2755    5.3361    0.0000 C   0  0  0  0  0  0  0  0  0  0  0  0
    2.7234    5.9492    0.0000 O   0  0  0  0  0  0  0  0  0  0  0  0
   -0.8937    0.3090    0.0000 H   0  0  0  0  0  0  0  0  0  0  0  0
    0.0820    0.9912    0.0000 H   0  0  0  0  0  0  0  0  0  0  0  0
   -0.8937    2.1660    0.0000 H   0  0  0  0  0  0  0  0  0  0  0  0
    2.3226    0.3090    0.0000 H   0  0  0  0  0  0  0  0  0  0  0  0
    2.3226    2.1660    0.0000 H   0  0  0  0  0  0  0  0  0  0  0  0
   -0.8937   -2.1660    0.0000 H   0  0  0  0  0  0  0  0  0  0  0  0
    0.7145   -3.0945    0.0000 H   0  0  0  0  0  0  0  0  0  0  0  0
    2.3226   -2.1660    0.0000 H   0  0  0  0  0  0  0  0  0  0  0  0
    2.3226   -0.3090    0.0000 H   0  0  0  0  0  0  0  0  0  0  0  0
   -0.2122    3.4225    0.0000 H   0  0  0  0  0  0  0  0  0  0  0  0
    0.7145    3.9575    0.0000 H   0  0  0  0  0  0  0  0  0  0  0  0
    1.7525    1.4652    0.0000 H   0  0  0  0  0  0  0  0  0  0  0  0
    2.7992    1.2428    0.0000 H   0  0  0  0  0  0  0  0  0  0  0  0
    3.9915    2.8841    0.0000 H   0  0  0  0  0  0  0  0  0  0  0  0
    4.3221    1.8664    0.0000 H   0  0  0  0  0  0  0  0  0  0  0  0
    2.8144    0.5092    0.0000 H   0  0  0  0  0  0  0  0  0  0  0  0
    4.5770    1.0818    0.0000 H   0  0  0  0  0  0  0  0  0  0  0  0
    3.8610    0.2867    0.0000 H   0  0  0  0  0  0  0  0  0  0  0  0
   -0.8115    4.5935    0.0000 H   0  0  0  0  0  0  0  0  0  0  0  0
    2.2472    6.7953    0.0000 H   0  0  0  0  0  0  0  0  0  0  0  0
    0.8699    5.5553    0.0000 H   0  0  0  0  0  0  0  0  0  0  0  0
    1.2006    6.5729    0.0000 H   0  0  0  0  0  0  0  0  0  0  0  0
    3.9914    4.5409    0.0000 H   0  0  0  0  0  0  0  0  0  0  0  0
    3.6062    6.3537    0.0000 H   0  0  0  0  0  0  0  0  0  0  0  0
    4.3221    5.5585    0.0000 H   0  0  0  0  0  0  0  0  0  0  0  0
    3.6722    6.1509    0.0000 H   0  0  0  0  0  0  0  0  0  0  0  0
  1  2  1  0  0  0  0
  1 34  1  0  0  0  0
  2  9  2  0  0  0  0
  2  3  1  0  0  0  0
  3 14  1  0  0  0  0
  3  4  2  0  0  0  0
  4 11  1  0  0  0  0
  4  5  1  0  0  0  0
  5 17  2  0  0  0  0
  5  6  1  0  0  0  0
  6 15  1  0  0  0  0
  6 35  1  0  0  0  0
  7  8  1  0  0  0  0
  7 10  2  0  0  0  0
  8  1  2  0  0  0  0
  8 36  1  0  0  0  0
  9 10  1  0  0  0  0
  9 37  1  0  0  0  0
 10 38  1  0  0  0  0
 11 12  2  0  0  0  0
 11 39  1  0  0  0  0
 12 13  1  0  0  0  0
 12 40  1  0  0  0  0
 13 14  2  0  0  0  0
 13 41  1  0  0  0  0
 14 42  1  0  0  0  0
 15 16  2  0  0  0  0
 16 17  1  0  0  0  0
 18  7  1  0  0  0  0
 18 43  1  0  0  0  0
 18 44  1  0  0  0  0
 19 20  2  0  0  0  0
 19 21  1  0  0  0  0
 19 22  1  0  0  0  0
 20 29  1  0  0  0  0
 21 18  1  0  0  0  0
 22 23  1  0  0  0  0
 22 45  1  0  0  0  0
 22 46  1  0  0  0  0
 23 24  1  0  0  0  0
 23 47  1  0  0  0  0
 23 48  1  0  0  0  0
 24 49  1  0  0  0  0
 24 50  1  0  0  0  0
 24 51  1  0  0  0  0
 25 21  1  0  0  0  0
 25 26  1  0  0  0  0
 26 28  1  0  0  0  0
 26 27  2  0  0  0  0
 28 52  1  0  0  0  0
 29 25  2  0  0  0  0
 29 30  1  0  0  0  0
 30 33  1  0  0  0  0
 30 31  1  0  0  0  0
 30 32  1  0  0  0  0
 31 53  1  0  0  0  0
 31 54  1  0  0  0  0
 31 55  1  0  0  0  0
 32 56  1  0  0  0  0
 32 57  1  0  0  0  0
 32 58  1  0  0  0  0
 33 59  1  0  0  0  0
M  END
>  <DRUGBANK_ID>
DB00275

>  <SECONDARY_ACCESSION_NUMBERS>
APRD00223

>  <COMMON_NAME>
Olmesartan

>  <CAS_NUMBER>
144689-24-7

>  <UNII>
8W1IQP3U10

>  <SYNONYMS>
4-(1-hydroxy-1-methylethyl)-2-propyl-1-{[2'-(1H-tetrazol-5-yl)biphenyl-4-yl]methyl}-1H-imidazole-5-carboxylic acid; 4-(hydroxy-1-methylethyl)-2-propyl-1-{[2'-(1H-tetrazol-5-yl)-1,1'-biphenyl-4-yl]methyl}-1H-imidazole-5-carboxylic acid; Olmesartan

$$$$
