
 OpenBabel10282417072D

 32 33  0  0  0  0  0  0  0  0999 V2000
   -0.2523   -0.3215    0.0000 C   0  0  0  0  0  0  0  0  0  0  0  0
   -1.0663   -0.3215    0.0000 N   0  0  0  0  0  0  0  0  0  0  0  0
    0.1682    0.3947    0.0000 C   0  0  0  0  0  0  0  0  0  0  0  0
    0.1682   -1.0378    0.0000 C   0  0  0  0  0  0  0  0  0  0  0  0
   -1.4733    0.3947    0.0000 S   0  0  0  0  0  0  0  0  0  0  0  0
   -1.4733   -1.0378    0.0000 C   0  0  0  0  0  0  0  0  0  0  0  0
    0.9877    0.3947    0.0000 C   0  0  0  0  0  0  0  0  0  0  0  0
    0.9877   -1.0378    0.0000 C   0  0  0  0  0  0  0  0  0  0  0  0
   -2.3010    0.3947    0.0000 C   0  0  0  0  0  0  0  0  0  0  0  0
   -1.8369    1.0623    0.0000 O   0  0  0  0  0  0  0  0  0  0  0  0
   -0.9713    1.0432    0.0000 O   0  0  0  0  0  0  0  0  0  0  0  0
   -2.3010   -1.0378    0.0000 C   0  0  0  0  0  0  0  0  0  0  0  0
    1.3973   -0.3215    0.0000 C   0  0  0  0  0  0  0  0  0  0  0  0
   -2.7106   -0.3215    0.0000 C   0  0  0  0  0  0  0  0  0  0  0  0
    1.9889   -0.3134    0.0000 S   0  0  0  0  0  0  0  0  0  0  0  0
    2.7106   -0.3134    0.0000 N   0  0  0  0  0  0  0  0  0  0  0  0
    1.9889    0.3947    0.0000 O   0  0  0  0  0  0  0  0  0  0  0  0
    1.9889   -1.0623    0.0000 O   0  0  0  0  0  0  0  0  0  0  0  0
   -0.3445    1.2903    0.0000 H   0  0  0  0  0  0  0  0  0  0  0  0
   -0.3446   -1.9334    0.0000 H   0  0  0  0  0  0  0  0  0  0  0  0
   -0.9351   -1.9626    0.0000 H   0  0  0  0  0  0  0  0  0  0  0  0
   -2.0067   -1.9654    0.0000 H   0  0  0  0  0  0  0  0  0  0  0  0
    1.5055    1.2874    0.0000 H   0  0  0  0  0  0  0  0  0  0  0  0
    1.5056   -1.9305    0.0000 H   0  0  0  0  0  0  0  0  0  0  0  0
   -2.8379    1.3203    0.0000 H   0  0  0  0  0  0  0  0  0  0  0  0
   -3.3710    0.3914    0.0000 H   0  0  0  0  0  0  0  0  0  0  0  0
   -2.8379   -1.9633    0.0000 H   0  0  0  0  0  0  0  0  0  0  0  0
   -3.3710   -1.0345    0.0000 H   0  0  0  0  0  0  0  0  0  0  0  0
   -3.7806   -0.3215    0.0000 H   0  0  0  0  0  0  0  0  0  0  0  0
   -3.2475   -1.2470    0.0000 H   0  0  0  0  0  0  0  0  0  0  0  0
    3.2206   -1.1967    0.0000 H   0  0  0  0  0  0  0  0  0  0  0  0
    3.2206    0.5699    0.0000 H   0  0  0  0  0  0  0  0  0  0  0  0
  1  2  1  0  0  0  0
  1  3  2  0  0  0  0
  1  4  1  0  0  0  0
  2  5  1  0  0  0  0
  2  6  1  0  0  0  0
  3  7  1  0  0  0  0
  3 19  1  0  0  0  0
  4  8  2  0  0  0  0
  4 20  1  0  0  0  0
  5  9  1  0  0  0  0
  5 10  2  0  0  0  0
  5 11  2  0  0  0  0
  6 12  1  0  0  0  0
  6 21  1  0  0  0  0
  6 22  1  0  0  0  0
  7 13  2  0  0  0  0
  7 23  1  0  0  0  0
  8 13  1  0  0  0  0
  8 24  1  0  0  0  0
  9 14  1  0  0  0  0
  9 25  1  0  0  0  0
  9 26  1  0  0  0  0
 12 14  1  0  0  0  0
 12 27  1  0  0  0  0
 12 28  1  0  0  0  0
 13 15  1  0  0  0  0
 14 29  1  0  0  0  0
 14 30  1  0  0  0  0
 15 16  1  0  0  0  0
 15 17  2  0  0  0  0
 15 18  2  0  0  0  0
 16 31  1  0  0  0  0
 16 32  1  0  0  0  0
M  END
>  <DRUGBANK_ID>
DB08329

>  <COMMON_NAME>
Sulthiame

>  <CAS_NUMBER>
61-56-3

>  <UNII>
I00Q766CZ2

>  <SYNONYMS>
Sulthiame; Sultiame; Sultiamo; Sultiamum

$$$$
