T10
 OpenBabel10282417072D

 62 64  0  0  0  0  0  0  0  0999 V2000
   -1.4592   -2.0142    0.0000 O   0  0  0  0  0  0  0  0  0  0  0  0
   -1.2610   -1.2134    0.0000 C   0  0  0  0  0  0  0  0  0  0  0  0
   -1.8555   -0.6413    0.0000 C   0  0  0  0  0  0  0  0  0  0  0  0
   -2.6482   -0.8702    0.0000 O   0  0  0  0  0  0  0  0  0  0  0  0
   -1.6574    0.1595    0.0000 C   0  0  2  0  0  0  0  0  0  0  0  0
   -2.2518    0.7315    0.0000 C   0  0  0  0  0  0  0  0  0  0  0  0
   -3.0445    0.5027    0.0000 C   0  0  0  0  0  0  0  0  0  0  0  0
   -3.2426   -0.2981    0.0000 C   0  0  0  0  0  0  0  0  0  0  0  0
   -4.0353   -0.5269    0.0000 C   0  0  0  0  0  0  0  0  0  0  0  0
   -4.6297    0.0451    0.0000 C   0  0  0  0  0  0  0  0  0  0  0  0
   -4.4316    0.8459    0.0000 C   0  0  0  0  0  0  0  0  0  0  0  0
   -3.6390    1.0748    0.0000 C   0  0  0  0  0  0  0  0  0  0  0  0
   -0.8647    0.3883    0.0000 N   0  0  0  0  0  0  0  0  0  0  0  0
   -0.2703   -0.1837    0.0000 C   0  0  0  0  0  0  0  0  0  0  0  0
   -0.4684   -0.9846    0.0000 O   0  0  0  0  0  0  0  0  0  0  0  0
    0.5224    0.0451    0.0000 C   0  0  2  0  0  0  0  0  0  0  0  0
    0.7205    0.8459    0.0000 C   0  0  0  0  0  0  0  0  0  0  0  0
    0.1261    1.4180    0.0000 C   0  0  0  0  0  0  0  0  0  0  0  0
   -0.6666    1.1892    0.0000 C   0  0  0  0  0  0  0  0  0  0  0  0
   -1.2610    1.7612    0.0000 C   0  0  0  0  0  0  0  0  0  0  0  0
   -1.0629    2.5620    0.0000 C   0  0  0  0  0  0  0  0  0  0  0  0
   -0.2703    2.7909    0.0000 C   0  0  0  0  0  0  0  0  0  0  0  0
    0.3242    2.2188    0.0000 C   0  0  0  0  0  0  0  0  0  0  0  0
    1.1169   -0.5269    0.0000 N   0  0  0  0  0  0  0  0  0  0  0  0
    1.9095   -0.2981    0.0000 C   0  0  0  0  0  0  0  0  0  0  0  0
    2.1076    0.5027    0.0000 O   0  0  0  0  0  0  0  0  0  0  0  0
    2.5040   -0.8702    0.0000 O   0  0  0  0  0  0  0  0  0  0  0  0
    3.2966   -0.6413    0.0000 C   0  0  0  0  0  0  0  0  0  0  0  0
    3.8911   -1.2134    0.0000 C   0  0  0  0  0  0  0  0  0  0  0  0
    4.6837   -0.9846    0.0000 C   0  0  0  0  0  0  0  0  0  0  0  0
    5.2782   -1.5566    0.0000 C   0  0  0  0  0  0  0  0  0  0  0  0
    5.0800   -2.3575    0.0000 C   0  0  0  0  0  0  0  0  0  0  0  0
    4.2874   -2.5863    0.0000 C   0  0  0  0  0  0  0  0  0  0  0  0
    3.6929   -2.0142    0.0000 C   0  0  0  0  0  0  0  0  0  0  0  0
   -2.2184   -0.0025    0.0000 H   0  0  0  0  0  0  0  0  0  0  0  0
    0.1016    0.4500    0.0000 H   0  0  0  0  0  0  0  0  0  0  0  0
   -2.3912   -2.2832    0.0000 H   0  0  0  0  0  0  0  0  0  0  0  0
   -0.2330   -0.9167    0.0000 H   0  0  0  0  0  0  0  0  0  0  0  0
   -1.0039   -0.1747    0.0000 H   0  0  0  0  0  0  0  0  0  0  0  0
   -1.9948    1.7702    0.0000 H   0  0  0  0  0  0  0  0  0  0  0  0
   -3.0228    1.4734    0.0000 H   0  0  0  0  0  0  0  0  0  0  0  0
   -2.4990   -1.0137    0.0000 H   0  0  0  0  0  0  0  0  0  0  0  0
   -4.2832   -1.5287    0.0000 H   0  0  0  0  0  0  0  0  0  0  0  0
   -5.6212   -0.2411    0.0000 H   0  0  0  0  0  0  0  0  0  0  0  0
   -5.1753    1.5614    0.0000 H   0  0  0  0  0  0  0  0  0  0  0  0
   -3.3912    2.0766    0.0000 H   0  0  0  0  0  0  0  0  0  0  0  0
   -0.6282    1.3440    0.0000 H   0  0  0  0  0  0  0  0  0  0  0  0
    1.7485    1.1426    0.0000 H   0  0  0  0  0  0  0  0  0  0  0  0
    0.9776    1.8846    0.0000 H   0  0  0  0  0  0  0  0  0  0  0  0
   -0.9145    0.1874    0.0000 H   0  0  0  0  0  0  0  0  0  0  0  0
   -2.2525    1.4750    0.0000 H   0  0  0  0  0  0  0  0  0  0  0  0
   -1.8066    3.2775    0.0000 H   0  0  0  0  0  0  0  0  0  0  0  0
   -0.0225    3.7927    0.0000 H   0  0  0  0  0  0  0  0  0  0  0  0
    1.3157    2.5050    0.0000 H   0  0  0  0  0  0  0  0  0  0  0  0
    0.8805   -1.4826    0.0000 H   0  0  0  0  0  0  0  0  0  0  0  0
    3.5536    0.3974    0.0000 H   0  0  0  0  0  0  0  0  0  0  0  0
    4.3246   -0.3445    0.0000 H   0  0  0  0  0  0  0  0  0  0  0  0
    4.9316    0.0172    0.0000 H   0  0  0  0  0  0  0  0  0  0  0  0
    6.2697   -1.2704    0.0000 H   0  0  0  0  0  0  0  0  0  0  0  0
    5.8236   -3.0731    0.0000 H   0  0  0  0  0  0  0  0  0  0  0  0
    4.0395   -3.5881    0.0000 H   0  0  0  0  0  0  0  0  0  0  0  0
    2.7014   -2.3004    0.0000 H   0  0  0  0  0  0  0  0  0  0  0  0
  1  2  1  0  0  0  0
  1 37  1  0  0  0  0
  2  3  1  0  0  0  0
  2 38  1  0  0  0  0
  2 39  1  0  0  0  0
  3  4  2  0  0  0  0
  3  5  1  0  0  0  0
  5  6  1  0  0  0  0
  5 13  1  0  0  0  0
  5 35  1  1  0  0  0
  6  7  1  0  0  0  0
  6 40  1  0  0  0  0
  6 41  1  0  0  0  0
  7  8  2  0  0  0  0
  7 12  1  0  0  0  0
  8  9  1  0  0  0  0
  8 42  1  0  0  0  0
  9 10  2  0  0  0  0
  9 43  1  0  0  0  0
 10 11  1  0  0  0  0
 10 44  1  0  0  0  0
 11 12  2  0  0  0  0
 11 45  1  0  0  0  0
 12 46  1  0  0  0  0
 13 14  1  0  0  0  0
 13 47  1  0  0  0  0
 14 15  2  0  0  0  0
 14 16  1  0  0  0  0
 16 17  1  0  0  0  0
 16 24  1  0  0  0  0
 16 36  1  1  0  0  0
 17 18  1  0  0  0  0
 17 48  1  0  0  0  0
 17 49  1  0  0  0  0
 18 19  2  0  0  0  0
 18 23  1  0  0  0  0
 19 20  1  0  0  0  0
 19 50  1  0  0  0  0
 20 21  2  0  0  0  0
 20 51  1  0  0  0  0
 21 22  1  0  0  0  0
 21 52  1  0  0  0  0
 22 23  2  0  0  0  0
 22 53  1  0  0  0  0
 23 54  1  0  0  0  0
 24 25  1  0  0  0  0
 24 55  1  0  0  0  0
 25 26  2  0  0  0  0
 25 27  1  0  0  0  0
 27 28  1  0  0  0  0
 28 29  1  0  0  0  0
 28 56  1  0  0  0  0
 28 57  1  0  0  0  0
 29 30  2  0  0  0  0
 29 34  1  0  0  0  0
 30 31  1  0  0  0  0
 30 58  1  0  0  0  0
 31 32  2  0  0  0  0
 31 59  1  0  0  0  0
 32 33  1  0  0  0  0
 32 60  1  0  0  0  0
 33 34  2  0  0  0  0
 33 61  1  0  0  0  0
 34 62  1  0  0  0  0
M  END
>  <DRUGBANK_ID>
DB01871

>  <SECONDARY_ACCESSION_NUMBERS>
EXPT02989

>  <COMMON_NAME>
[1-(1-Benzyl-3-Hydroxy-2-Oxo-Propylcarbamoyl)-2-Phenyl-Ethyl]-Carbamic Acid Benzyl Ester

$$$$
