
 OpenBabel10282417072D

 11 12  0  0  0  0  0  0  0  0999 V2000
   -0.4005    1.2165    0.0000 O   0  0  0  0  0  0  0  0  0  0  0  0
   -1.7822   -0.1101    0.0000 O   0  0  0  0  0  0  0  0  0  0  0  0
    1.5219    0.1551    0.0000 O   0  0  0  0  0  0  0  0  0  0  0  0
   -1.1864   -1.1464    0.0000 O   0  0  0  0  0  0  0  0  0  0  0  0
    1.2115   -1.0013    0.0000 O   0  0  0  0  0  0  0  0  0  0  0  0
   -2.5032   -1.2165    0.0000 O   0  5  0  0  0  0  0  0  0  0  0  0
    2.5032   -0.7258    0.0000 O   0  5  0  0  0  0  0  0  0  0  0  0
    0.1401    0.4855    0.0000 B   0  0  0  0  0  0  0  0  0  0  0  0
   -0.0501   -0.2253    0.0000 B   0  0  0  0  0  0  0  0  0  0  0  0
   -1.8624   -0.8461    0.0000 B   0  0  0  0  0  0  0  0  0  0  0  0
    1.7872   -0.5356    0.0000 B   0  0  0  0  0  0  0  0  0  0  0  0
  1  8  1  0  0  0  0
  1  9  1  0  0  0  0
  2  8  1  0  0  0  0
  2 10  1  0  0  0  0
  3  8  1  0  0  0  0
  3 11  1  0  0  0  0
  4  9  1  0  0  0  0
  4 10  1  0  0  0  0
  5  9  1  0  0  0  0
  5 11  1  0  0  0  0
  6 10  1  0  0  0  0
  7 11  1  0  0  0  0
M  CHG  2   6  -1   7  -1
M  END
>  <DRUGBANK_ID>
DB14553

>  <COMMON_NAME>
Borate ion

>  <CAS_NUMBER>
12258-53-6

>  <UNII>
44OAE30D22

>  <SYNONYMS>
Pyroborate; Tetraborate; Tetraborate ion

$$$$
