357
 OpenBabel10282417072D

 52 53  0  0  0  0  0  0  0  0999 V2000
    0.7546    1.4268    0.0000 C   0  0  0  0  0  0  0  0  0  0  0  0
    0.7546    0.6018    0.0000 C   0  0  0  0  0  0  0  0  0  0  0  0
    0.0401    0.1893    0.0000 C   0  0  0  0  0  0  0  0  0  0  0  0
   -0.6744    0.6018    0.0000 C   0  0  0  0  0  0  0  0  0  0  0  0
    1.4690    1.8393    0.0000 O   0  0  0  0  0  0  0  0  0  0  0  0
   -1.3889    0.1893    0.0000 C   0  0  0  0  0  0  0  0  0  0  0  0
   -2.1033    0.6018    0.0000 C   0  0  0  0  0  0  0  0  0  0  0  0
   -0.6744   -1.0482    0.0000 C   0  0  0  0  0  0  0  0  0  0  0  0
    0.0401   -0.6357    0.0000 C   0  0  0  0  0  0  0  0  0  0  0  0
   -0.6744    1.4268    0.0000 C   0  0  0  0  0  0  0  0  0  0  0  0
   -1.3889    1.8393    0.0000 C   0  0  0  0  0  0  0  0  0  0  0  0
    0.0401    1.8393    0.0000 N   0  0  0  0  0  0  0  0  0  0  0  0
    1.4690    0.1893    0.0000 N   0  0  0  0  0  0  0  0  0  0  0  0
    1.4690   -0.6357    0.0000 C   0  0  0  0  0  0  0  0  0  0  0  0
    2.1835    0.6018    0.0000 C   0  0  0  0  0  0  0  0  0  0  0  0
    2.8980    0.1893    0.0000 C   0  0  0  0  0  0  0  0  0  0  0  0
    3.6124    0.6018    0.0000 O   0  0  0  0  0  0  0  0  0  0  0  0
    4.3269    0.1893    0.0000 C   0  0  0  0  0  0  0  0  0  0  0  0
   -0.6744   -1.8732    0.0000 C   0  0  0  0  0  0  0  0  0  0  0  0
   -1.3889   -2.2857    0.0000 C   0  0  0  0  0  0  0  0  0  0  0  0
   -2.1033   -1.8732    0.0000 C   0  0  0  0  0  0  0  0  0  0  0  0
   -2.1033   -1.0482    0.0000 C   0  0  0  0  0  0  0  0  0  0  0  0
   -2.8178   -0.6357    0.0000 C   0  0  0  0  0  0  0  0  0  0  0  0
   -1.3889   -0.6357    0.0000 C   0  0  0  0  0  0  0  0  0  0  0  0
   -1.3889   -0.8807    0.0000 H   0  0  0  0  0  0  0  0  0  0  0  0
   -2.3156   -0.3457    0.0000 H   0  0  0  0  0  0  0  0  0  0  0  0
   -2.1033    1.6718    0.0000 H   0  0  0  0  0  0  0  0  0  0  0  0
   -3.0300    0.0668    0.0000 H   0  0  0  0  0  0  0  0  0  0  0  0
   -3.0299    1.1368    0.0000 H   0  0  0  0  0  0  0  0  0  0  0  0
    0.9667   -1.1707    0.0000 H   0  0  0  0  0  0  0  0  0  0  0  0
    0.0401   -1.7057    0.0000 H   0  0  0  0  0  0  0  0  0  0  0  0
   -1.3889    2.9093    0.0000 H   0  0  0  0  0  0  0  0  0  0  0  0
   -2.3155    1.3043    0.0000 H   0  0  0  0  0  0  0  0  0  0  0  0
   -2.3156    2.3743    0.0000 H   0  0  0  0  0  0  0  0  0  0  0  0
    0.0401    2.8238    0.0000 H   0  0  0  0  0  0  0  0  0  0  0  0
    0.5424   -1.1707    0.0000 H   0  0  0  0  0  0  0  0  0  0  0  0
    2.3956   -1.1707    0.0000 H   0  0  0  0  0  0  0  0  0  0  0  0
    1.4690   -1.7057    0.0000 H   0  0  0  0  0  0  0  0  0  0  0  0
    2.1835    1.6718    0.0000 H   0  0  0  0  0  0  0  0  0  0  0  0
    3.1101    1.1368    0.0000 H   0  0  0  0  0  0  0  0  0  0  0  0
    2.8980   -0.8807    0.0000 H   0  0  0  0  0  0  0  0  0  0  0  0
    3.8247   -0.3457    0.0000 H   0  0  0  0  0  0  0  0  0  0  0  0
    4.3269   -0.8807    0.0000 H   0  0  0  0  0  0  0  0  0  0  0  0
    5.2535    0.7243    0.0000 H   0  0  0  0  0  0  0  0  0  0  0  0
    5.2536   -0.3457    0.0000 H   0  0  0  0  0  0  0  0  0  0  0  0
    0.2193   -2.3892    0.0000 H   0  0  0  0  0  0  0  0  0  0  0  0
   -1.3889   -3.3177    0.0000 H   0  0  0  0  0  0  0  0  0  0  0  0
   -2.9970   -2.3892    0.0000 H   0  0  0  0  0  0  0  0  0  0  0  0
   -2.8178    0.4343    0.0000 H   0  0  0  0  0  0  0  0  0  0  0  0
   -3.7444   -1.1707    0.0000 H   0  0  0  0  0  0  0  0  0  0  0  0
   -3.7445   -0.1007    0.0000 H   0  0  0  0  0  0  0  0  0  0  0  0
   -1.3889    0.3963    0.0000 H   0  0  0  0  0  0  0  0  0  0  0  0
  1  2  1  0  0  0  0
  1  5  2  0  0  0  0
  1 12  1  0  0  0  0
  2  3  2  0  0  0  0
  2 13  1  0  0  0  0
  3  4  1  0  0  0  0
  3  9  1  0  0  0  0
  4  6  1  0  0  0  0
  4 10  2  0  0  0  0
  6  7  1  0  0  0  0
  6 25  1  0  0  0  0
  6 26  1  0  0  0  0
  7 27  1  0  0  0  0
  7 28  1  0  0  0  0
  7 29  1  0  0  0  0
  8  9  1  0  0  0  0
  8 19  2  0  0  0  0
  8 24  1  0  0  0  0
  9 30  1  0  0  0  0
  9 31  1  0  0  0  0
 10 11  1  0  0  0  0
 10 12  1  0  0  0  0
 11 32  1  0  0  0  0
 11 33  1  0  0  0  0
 11 34  1  0  0  0  0
 12 35  1  0  0  0  0
 13 14  1  0  0  0  0
 13 15  1  0  0  0  0
 14 36  1  0  0  0  0
 14 37  1  0  0  0  0
 14 38  1  0  0  0  0
 15 16  1  0  0  0  0
 15 39  1  0  0  0  0
 15 40  1  0  0  0  0
 16 17  1  0  0  0  0
 16 41  1  0  0  0  0
 16 42  1  0  0  0  0
 17 18  1  0  0  0  0
 18 43  1  0  0  0  0
 18 44  1  0  0  0  0
 18 45  1  0  0  0  0
 19 20  1  0  0  0  0
 19 46  1  0  0  0  0
 20 21  2  0  0  0  0
 20 47  1  0  0  0  0
 21 22  1  0  0  0  0
 21 48  1  0  0  0  0
 22 23  1  0  0  0  0
 22 24  2  0  0  0  0
 23 49  1  0  0  0  0
 23 50  1  0  0  0  0
 23 51  1  0  0  0  0
 24 52  1  0  0  0  0
M  END
>  <DRUGBANK_ID>
DB07018

>  <COMMON_NAME>
5-ETHYL-3-[(2-METHOXYETHYL)METHYLAMINO]-6-METHYL-4-(3-METHYLBENZYL)PYRIDIN-2(1H)-ONE

$$$$
