
 OpenBabel10282417072D

 38 39  0  0  0  0  0  0  0  0999 V2000
    2.1434   -1.2375    0.0000 C   0  0  0  0  0  0  0  0  0  0  0  0
    1.4289   -4.1250    0.0000 C   0  0  0  0  0  0  0  0  0  0  0  0
    2.1434   -3.7125    0.0000 C   0  0  0  0  0  0  0  0  0  0  0  0
    0.7144   -3.7125    0.0000 C   0  0  0  0  0  0  0  0  0  0  0  0
    2.1434   -2.8875    0.0000 C   0  0  0  0  0  0  0  0  0  0  0  0
    0.7144   -2.8875    0.0000 C   0  0  0  0  0  0  0  0  0  0  0  0
    0.0000    0.0000    0.0000 C   0  0  0  0  0  0  0  0  0  0  0  0
    0.7144    1.2375    0.0000 C   0  0  0  0  0  0  0  0  0  0  0  0
    0.7144   -1.2375    0.0000 C   0  0  0  0  0  0  0  0  0  0  0  0
    0.7144   -0.4125    0.0000 C   0  0  0  0  0  0  0  0  0  0  0  0
    0.0000    0.8250    0.0000 C   0  0  0  0  0  0  0  0  0  0  0  0
    1.4289   -2.4750    0.0000 C   0  0  0  0  0  0  0  0  0  0  0  0
    1.4289    0.8250    0.0000 C   0  0  0  0  0  0  0  0  0  0  0  0
    1.4289    0.0000    0.0000 C   0  0  0  0  0  0  0  0  0  0  0  0
   -0.7144    1.2375    0.0000 Br  0  0  0  0  0  0  0  0  0  0  0  0
    2.1434    1.2375    0.0000 Br  0  0  0  0  0  0  0  0  0  0  0  0
    2.1434   -0.4125    0.0000 N   0  0  0  0  0  0  0  0  0  0  0  0
    1.4289   -1.6500    0.0000 N   0  0  0  0  0  0  0  0  0  0  0  0
    3.0700   -1.7725    0.0000 H   0  0  0  0  0  0  0  0  0  0  0  0
    2.1434   -0.1675    0.0000 H   0  0  0  0  0  0  0  0  0  0  0  0
    3.0701   -0.7025    0.0000 H   0  0  0  0  0  0  0  0  0  0  0  0
    1.4289   -5.1950    0.0000 H   0  0  0  0  0  0  0  0  0  0  0  0
    0.5023   -4.6600    0.0000 H   0  0  0  0  0  0  0  0  0  0  0  0
    3.0700   -4.2475    0.0000 H   0  0  0  0  0  0  0  0  0  0  0  0
    3.0700   -3.1775    0.0000 H   0  0  0  0  0  0  0  0  0  0  0  0
   -0.2122   -4.2475    0.0000 H   0  0  0  0  0  0  0  0  0  0  0  0
   -0.2122   -3.1775    0.0000 H   0  0  0  0  0  0  0  0  0  0  0  0
    3.0700   -2.3525    0.0000 H   0  0  0  0  0  0  0  0  0  0  0  0
    2.1434   -1.8175    0.0000 H   0  0  0  0  0  0  0  0  0  0  0  0
   -0.2122   -2.3525    0.0000 H   0  0  0  0  0  0  0  0  0  0  0  0
    0.7144   -1.8175    0.0000 H   0  0  0  0  0  0  0  0  0  0  0  0
   -0.8937   -0.5160    0.0000 H   0  0  0  0  0  0  0  0  0  0  0  0
    0.7144    2.2695    0.0000 H   0  0  0  0  0  0  0  0  0  0  0  0
   -0.2122   -1.7725    0.0000 H   0  0  0  0  0  0  0  0  0  0  0  0
    0.7144   -2.3075    0.0000 H   0  0  0  0  0  0  0  0  0  0  0  0
    0.5023   -1.9400    0.0000 H   0  0  0  0  0  0  0  0  0  0  0  0
    2.1434   -1.3970    0.0000 H   0  0  0  0  0  0  0  0  0  0  0  0
    2.9960    0.0798    0.0000 H   0  0  0  0  0  0  0  0  0  0  0  0
  1 19  1  0  0  0  0
  1 20  1  0  0  0  0
  1 21  1  0  0  0  0
  2 22  1  0  0  0  0
  2 23  1  0  0  0  0
  3  2  1  0  0  0  0
  3 24  1  0  0  0  0
  3 25  1  0  0  0  0
  4  2  1  0  0  0  0
  4 26  1  0  0  0  0
  4 27  1  0  0  0  0
  5  3  1  0  0  0  0
  5 28  1  0  0  0  0
  5 29  1  0  0  0  0
  6  4  1  0  0  0  0
  6 30  1  0  0  0  0
  6 31  1  0  0  0  0
  7 32  1  0  0  0  0
  8 33  1  0  0  0  0
  9 34  1  0  0  0  0
  9 35  1  0  0  0  0
 10  7  2  0  0  0  0
 10  9  1  0  0  0  0
 11  7  1  0  0  0  0
 11  8  2  0  0  0  0
 12  5  1  0  0  0  0
 12  6  1  0  0  0  0
 12 36  1  0  0  0  0
 13  8  1  0  0  0  0
 14 10  1  0  0  0  0
 14 13  2  0  0  0  0
 15 11  1  0  0  0  0
 16 13  1  0  0  0  0
 17 14  1  0  0  0  0
 17 37  1  0  0  0  0
 17 38  1  0  0  0  0
 18  1  1  0  0  0  0
 18  9  1  0  0  0  0
 18 12  1  0  0  0  0
M  END
>  <DRUGBANK_ID>
DB09019

>  <COMMON_NAME>
Bromhexine

>  <CAS_NUMBER>
3572-43-8

>  <UNII>
Q1J152VB1P

>  <SYNONYMS>
3,5-dibromo-N(alpha)-cyclohexyl-N(alpha)-methyltoluene-alpha-2-diamine; Bromexina; Bromhexina; Bromhexine; Bromhexinum; N-cyclohexyl-N-methyl-(2-amino-3,5-dibrombenzyl)amine

$$$$
