
 OpenBabel10282417072D

 75 76  0  0  0  0  0  0  0  0999 V2000
   -0.7682    0.1750    0.0000 C   0  0  0  0  0  0  0  0  0  0  0  0
   -0.5830   -0.6289    0.0000 C   0  0  2  0  0  0  0  0  0  0  0  0
    0.1609   -0.9855    0.0000 O   0  0  0  0  0  0  0  0  0  0  0  0
    1.0856    0.1783    0.0000 C   0  0  0  0  0  0  0  0  0  0  0  0
    0.9036   -0.6263    0.0000 C   0  0  0  0  0  0  0  0  0  0  0  0
   -0.7715    2.0323    0.0000 C   0  0  0  0  0  0  0  0  0  0  0  0
   -0.5878    2.8369    0.0000 C   0  0  0  0  0  0  0  0  0  0  0  0
    0.1554    3.1947    0.0000 C   0  0  1  0  0  0  0  0  0  0  0  0
    1.0824    2.0323    0.0000 C   0  0  2  0  0  0  0  0  0  0  0  0
    0.8989    2.8369    0.0000 C   0  0  1  0  0  0  0  0  0  0  0  0
    1.8897    0.3636    0.0000 C   0  0  1  0  0  0  0  0  0  0  0  0
    2.2464    1.1076    0.0000 C   0  0  0  0  0  0  0  0  0  0  0  0
    1.8871    1.8502    0.0000 C   0  0  0  0  0  0  0  0  0  0  0  0
   -1.5726    0.3589    0.0000 C   0  0  0  0  0  0  0  0  0  0  0  0
   -1.9306    1.1021    0.0000 C   0  0  0  0  0  0  0  0  0  0  0  0
   -1.5726    1.8455    0.0000 C   0  0  0  0  0  0  0  0  0  0  0  0
    1.5495   -1.1393    0.0000 O   0  0  0  0  0  0  0  0  0  0  0  0
    2.4054   -0.2804    0.0000 O   0  0  0  0  0  0  0  0  0  0  0  0
    2.9613    0.6961    0.0000 C   0  0  0  0  0  0  0  0  0  0  0  0
    2.9607    1.5113    0.0000 C   0  0  0  0  0  0  0  0  0  0  0  0
    2.4004    2.4963    0.0000 O   0  0  0  0  0  0  0  0  0  0  0  0
    0.4996    1.4485    0.0000 C   0  0  0  0  0  0  0  0  0  0  0  0
    1.5439    3.3513    0.0000 O   0  0  0  0  0  0  0  0  0  0  0  0
    0.1554    4.0198    0.0000 C   0  0  0  0  0  0  0  0  0  0  0  0
   -2.7546    1.0986    0.0000 C   0  0  0  0  0  0  0  0  0  0  0  0
   -1.0294   -1.3213    0.0000 C   0  0  0  0  0  0  0  0  0  0  0  0
   -0.6529   -2.0553    0.0000 C   0  0  0  0  0  0  0  0  0  0  0  0
   -1.1006   -2.7485    0.0000 C   0  0  0  0  0  0  0  0  0  0  0  0
   -1.9256   -2.7518    0.0000 N   0  0  0  0  0  0  0  0  0  0  0  0
   -2.1777   -3.5373    0.0000 C   0  0  0  0  0  0  0  0  0  0  0  0
   -0.8427   -3.5321    0.0000 C   0  0  0  0  0  0  0  0  0  0  0  0
   -1.5083   -4.0198    0.0000 S   0  0  0  0  0  0  0  0  0  0  0  0
   -2.9613   -3.7953    0.0000 C   0  0  0  0  0  0  0  0  0  0  0  0
   -1.8570   -1.3210    0.0000 C   0  0  0  0  0  0  0  0  0  0  0  0
   -1.3798   -0.8338    0.0000 H   0  0  0  0  0  0  0  0  0  0  0  0
   -0.0122    0.9322    0.0000 H   0  0  0  0  0  0  0  0  0  0  0  0
   -1.0647    1.2031    0.0000 H   0  0  0  0  0  0  0  0  0  0  0  0
    0.3275    0.9334    0.0000 H   0  0  0  0  0  0  0  0  0  0  0  0
    1.3797    1.2071    0.0000 H   0  0  0  0  0  0  0  0  0  0  0  0
   -0.0131    1.2774    0.0000 H   0  0  0  0  0  0  0  0  0  0  0  0
   -1.0641    1.0031    0.0000 H   0  0  0  0  0  0  0  0  0  0  0  0
   -1.4243    3.5041    0.0000 H   0  0  0  0  0  0  0  0  0  0  0  0
   -0.4679    3.9002    0.0000 H   0  0  0  0  0  0  0  0  0  0  0  0
   -0.7506    3.7640    0.0000 H   0  0  0  0  0  0  0  0  0  0  0  0
    0.0541    2.3282    0.0000 H   0  0  0  0  0  0  0  0  0  0  0  0
    0.7789    3.9002    0.0000 H   0  0  0  0  0  0  0  0  0  0  0  0
    1.5384   -0.6471    0.0000 H   0  0  0  0  0  0  0  0  0  0  0  0
   -2.2161   -0.4479    0.0000 H   0  0  0  0  0  0  0  0  0  0  0  0
   -2.2417    2.6805    0.0000 H   0  0  0  0  0  0  0  0  0  0  0  0
   -1.2228    2.8567    0.0000 H   0  0  0  0  0  0  0  0  0  0  0  0
    2.0528   -1.1841    0.0000 H   0  0  0  0  0  0  0  0  0  0  0  0
    2.9627   -0.3739    0.0000 H   0  0  0  0  0  0  0  0  0  0  0  0
    3.8872    1.2323    0.0000 H   0  0  0  0  0  0  0  0  0  0  0  0
    3.8886    0.1623    0.0000 H   0  0  0  0  0  0  0  0  0  0  0  0
    3.8824    0.9678    0.0000 H   0  0  0  0  0  0  0  0  0  0  0  0
    2.9705    2.5813    0.0000 H   0  0  0  0  0  0  0  0  0  0  0  0
    3.8922    2.0378    0.0000 H   0  0  0  0  0  0  0  0  0  0  0  0
   -0.5342    1.7246    0.0000 H   0  0  0  0  0  0  0  0  0  0  0  0
    0.7774    0.4152    0.0000 H   0  0  0  0  0  0  0  0  0  0  0  0
   -0.2564    0.6912    0.0000 H   0  0  0  0  0  0  0  0  0  0  0  0
    2.4469    2.9969    0.0000 H   0  0  0  0  0  0  0  0  0  0  0  0
    1.0820    4.5548    0.0000 H   0  0  0  0  0  0  0  0  0  0  0  0
   -0.7712    4.5548    0.0000 H   0  0  0  0  0  0  0  0  0  0  0  0
    0.1554    5.0898    0.0000 H   0  0  0  0  0  0  0  0  0  0  0  0
   -3.2935    2.0230    0.0000 H   0  0  0  0  0  0  0  0  0  0  0  0
   -3.2857    0.1697    0.0000 H   0  0  0  0  0  0  0  0  0  0  0  0
   -3.8246    1.0941    0.0000 H   0  0  0  0  0  0  0  0  0  0  0  0
    0.3778   -2.1066    0.0000 H   0  0  0  0  0  0  0  0  0  0  0  0
    0.1400   -3.8472    0.0000 H   0  0  0  0  0  0  0  0  0  0  0  0
   -3.7593   -3.0824    0.0000 H   0  0  0  0  0  0  0  0  0  0  0  0
   -3.1797   -4.8428    0.0000 H   0  0  0  0  0  0  0  0  0  0  0  0
   -3.9776   -4.1299    0.0000 H   0  0  0  0  0  0  0  0  0  0  0  0
   -2.3917   -0.3942    0.0000 H   0  0  0  0  0  0  0  0  0  0  0  0
   -2.3923   -2.2475    0.0000 H   0  0  0  0  0  0  0  0  0  0  0  0
   -2.9270   -1.3206    0.0000 H   0  0  0  0  0  0  0  0  0  0  0  0
  1 36  1  0  0  0  0
  1 37  1  0  0  0  0
  2  1  1  0  0  0  0
  2 26  1  0  0  0  0
  2 35  1  1  0  0  0
  3  2  1  0  0  0  0
  4 38  1  0  0  0  0
  4 39  1  0  0  0  0
  5  3  1  0  0  0  0
  5  4  1  0  0  0  0
  5 17  2  0  0  0  0
  6 40  1  0  0  0  0
  6 41  1  0  0  0  0
  7  6  1  0  0  0  0
  7 42  1  0  0  0  0
  7 43  1  0  0  0  0
  8  7  1  0  0  0  0
  8 24  1  0  0  0  0
  8 44  1  1  0  0  0
  9 22  1  0  0  0  0
  9 45  1  1  0  0  0
 10  8  1  0  0  0  0
 10  9  1  0  0  0  0
 10 23  1  0  0  0  0
 10 46  1  1  0  0  0
 11  4  1  0  0  0  0
 11 18  1  0  0  0  0
 11 47  1  6  0  0  0
 12 11  1  0  0  0  0
 12 19  1  0  0  0  0
 12 20  1  0  0  0  0
 13 12  1  0  0  0  0
 13  9  1  0  0  0  0
 13 21  2  0  0  0  0
 14  1  1  0  0  0  0
 14 48  1  0  0  0  0
 15 14  2  0  0  0  0
 15 25  1  0  0  0  0
 16 15  1  0  0  0  0
 16  6  1  0  0  0  0
 16 49  1  0  0  0  0
 16 50  1  0  0  0  0
 18 51  1  0  0  0  0
 19 52  1  0  0  0  0
 19 53  1  0  0  0  0
 19 54  1  0  0  0  0
 20 55  1  0  0  0  0
 20 56  1  0  0  0  0
 20 57  1  0  0  0  0
 22 58  1  0  0  0  0
 22 59  1  0  0  0  0
 22 60  1  0  0  0  0
 23 61  1  0  0  0  0
 24 62  1  0  0  0  0
 24 63  1  0  0  0  0
 24 64  1  0  0  0  0
 25 65  1  0  0  0  0
 25 66  1  0  0  0  0
 25 67  1  0  0  0  0
 26 27  2  0  0  0  0
 26 34  1  0  0  0  0
 27 28  1  0  0  0  0
 27 68  1  0  0  0  0
 28 29  1  0  0  0  0
 30 29  2  0  0  0  0
 30 33  1  0  0  0  0
 31 28  2  0  0  0  0
 31 69  1  0  0  0  0
 32 30  1  0  0  0  0
 32 31  1  0  0  0  0
 33 70  1  0  0  0  0
 33 71  1  0  0  0  0
 33 72  1  0  0  0  0
 34 73  1  0  0  0  0
 34 74  1  0  0  0  0
 34 75  1  0  0  0  0
M  END
>  <DRUGBANK_ID>
DB01873

>  <SECONDARY_ACCESSION_NUMBERS>
EXPT01350

>  <COMMON_NAME>
Epothilone D

>  <CAS_NUMBER>
189453-10-9

>  <UNII>
T0358E0YUF

>  <SYNONYMS>
(-)-desoxyepothilone B; 12,13-desoxyepothilone B; Desoxyepothilone B

$$$$
