CVB
 OpenBabel10282417072D

 23 23  0  0  0  0  0  0  0  0999 V2000
    1.9061    0.9372    0.0000 B   0  0  0  0  0  0  0  0  0  0  0  0
    1.9061    1.7622    0.0000 O   0  0  0  0  0  0  0  0  0  0  0  0
    2.6206    0.5247    0.0000 O   0  0  0  0  0  0  0  0  0  0  0  0
    1.1917    0.5247    0.0000 C   0  0  0  0  0  0  0  0  0  0  0  0
    1.1917   -0.3003    0.0000 C   0  0  0  0  0  0  0  0  0  0  0  0
    0.4772   -0.7128    0.0000 C   0  0  0  0  0  0  0  0  0  0  0  0
   -0.2373   -0.3003    0.0000 C   0  0  0  0  0  0  0  0  0  0  0  0
   -0.9518   -0.7128    0.0000 C   0  0  0  0  0  0  0  0  0  0  0  0
   -1.6662   -0.3003    0.0000 C   0  0  0  0  0  0  0  0  0  0  0  0
   -2.3807   -0.7128    0.0000 C   0  0  0  0  0  0  0  0  0  0  0  0
   -2.3807   -1.5378    0.0000 O   0  0  0  0  0  0  0  0  0  0  0  0
   -3.0952   -0.3003    0.0000 O   0  0  0  0  0  0  0  0  0  0  0  0
   -0.2373    0.5247    0.0000 C   0  0  0  0  0  0  0  0  0  0  0  0
    0.4772    0.9372    0.0000 C   0  0  0  0  0  0  0  0  0  0  0  0
    2.7461    2.2472    0.0000 H   0  0  0  0  0  0  0  0  0  0  0  0
    2.6206   -0.4453    0.0000 H   0  0  0  0  0  0  0  0  0  0  0  0
    2.0854   -0.8163    0.0000 H   0  0  0  0  0  0  0  0  0  0  0  0
    0.4772   -1.7448    0.0000 H   0  0  0  0  0  0  0  0  0  0  0  0
   -0.9518   -1.7448    0.0000 H   0  0  0  0  0  0  0  0  0  0  0  0
   -1.6662    0.7317    0.0000 H   0  0  0  0  0  0  0  0  0  0  0  0
   -3.1922   -2.0063    0.0000 H   0  0  0  0  0  0  0  0  0  0  0  0
   -1.1310    1.0407    0.0000 H   0  0  0  0  0  0  0  0  0  0  0  0
    0.4772    1.9692    0.0000 H   0  0  0  0  0  0  0  0  0  0  0  0
  1  2  1  0  0  0  0
  1  3  1  0  0  0  0
  1  4  1  0  0  0  0
  2 15  1  0  0  0  0
  3 16  1  0  0  0  0
  4  5  2  0  0  0  0
  4 14  1  0  0  0  0
  5  6  1  0  0  0  0
  5 17  1  0  0  0  0
  6  7  2  0  0  0  0
  6 18  1  0  0  0  0
  7  8  1  0  0  0  0
  7 13  1  0  0  0  0
  8  9  2  0  0  0  0
  8 19  1  0  0  0  0
  9 10  1  0  0  0  0
  9 20  1  0  0  0  0
 10 11  1  0  0  0  0
 10 12  2  0  0  0  0
 11 21  1  0  0  0  0
 13 14  2  0  0  0  0
 13 22  1  0  0  0  0
 14 23  1  0  0  0  0
M  END
>  <DRUGBANK_ID>
DB02503

>  <SECONDARY_ACCESSION_NUMBERS>
EXPT01061

>  <COMMON_NAME>
4-(Carboxyvin-2-Yl)Phenylboronic Acid

$$$$
