YE6
 OpenBabel10282417072D

 25 26  0  0  0  0  0  0  0  0999 V2000
   -1.5539    1.1866    0.0000 Cl  0  0  0  0  0  0  0  0  0  0  0  0
   -0.8394    1.5991    0.0000 C   0  0  0  0  0  0  0  0  0  0  0  0
   -0.8394    2.4241    0.0000 C   0  0  0  0  0  0  0  0  0  0  0  0
   -0.1250    2.8366    0.0000 C   0  0  0  0  0  0  0  0  0  0  0  0
    0.5895    2.4241    0.0000 C   0  0  0  0  0  0  0  0  0  0  0  0
    0.5895    1.5991    0.0000 C   0  0  0  0  0  0  0  0  0  0  0  0
   -0.1250    1.1866    0.0000 C   0  0  0  0  0  0  0  0  0  0  0  0
   -0.1250    0.3616    0.0000 C   0  0  0  0  0  0  0  0  0  0  0  0
    0.5425   -0.1233    0.0000 O   0  0  0  0  0  0  0  0  0  0  0  0
   -0.7924   -0.1233    0.0000 C   0  0  0  0  0  0  0  0  0  0  0  0
   -0.5375   -0.9079    0.0000 C   0  0  0  0  0  0  0  0  0  0  0  0
    0.2875   -0.9079    0.0000 C   0  0  0  0  0  0  0  0  0  0  0  0
    0.7725   -1.5754    0.0000 C   0  0  0  0  0  0  0  0  0  0  0  0
    1.5929   -1.4891    0.0000 O   0  0  0  0  0  0  0  0  0  0  0  0
    0.4369   -2.3291    0.0000 N   0  0  0  0  0  0  0  0  0  0  0  0
    0.9218   -2.9965    0.0000 N   0  0  0  0  0  0  0  0  0  0  0  0
   -1.7331    2.9401    0.0000 H   0  0  0  0  0  0  0  0  0  0  0  0
   -0.1250    3.8686    0.0000 H   0  0  0  0  0  0  0  0  0  0  0  0
    1.4832    2.9401    0.0000 H   0  0  0  0  0  0  0  0  0  0  0  0
    1.4832    1.0831    0.0000 H   0  0  0  0  0  0  0  0  0  0  0  0
   -1.7739    0.1956    0.0000 H   0  0  0  0  0  0  0  0  0  0  0  0
   -1.1441   -1.7428    0.0000 H   0  0  0  0  0  0  0  0  0  0  0  0
   -0.5422   -2.4320    0.0000 H   0  0  0  0  0  0  0  0  0  0  0  0
    0.5069   -3.9283    0.0000 H   0  0  0  0  0  0  0  0  0  0  0  0
    1.9362   -2.8899    0.0000 H   0  0  0  0  0  0  0  0  0  0  0  0
  1  2  1  0  0  0  0
  2  3  2  0  0  0  0
  2  7  1  0  0  0  0
  3  4  1  0  0  0  0
  3 17  1  0  0  0  0
  4  5  2  0  0  0  0
  4 18  1  0  0  0  0
  5  6  1  0  0  0  0
  5 19  1  0  0  0  0
  6  7  2  0  0  0  0
  6 20  1  0  0  0  0
  7  8  1  0  0  0  0
  8  9  1  0  0  0  0
  8 10  2  0  0  0  0
  9 12  1  0  0  0  0
 10 11  1  0  0  0  0
 10 21  1  0  0  0  0
 11 12  2  0  0  0  0
 11 22  1  0  0  0  0
 12 13  1  0  0  0  0
 13 14  2  0  0  0  0
 13 15  1  0  0  0  0
 15 16  1  0  0  0  0
 15 23  1  0  0  0  0
 16 24  1  0  0  0  0
 16 25  1  0  0  0  0
M  END
>  <DRUGBANK_ID>
DB08757

>  <COMMON_NAME>
5-(2-chlorophenyl)furan-2-carbohydrazide

$$$$
