
 OpenBabel10282417072D

 28 28  0  0  0  0  0  0  0  0999 V2000
    9.7846   -4.2592    0.0000 C   0  0  0  0  0  0  0  0  0  0  0  0
    9.7846   -5.0842    0.0000 C   0  0  0  0  0  0  0  0  0  0  0  0
   11.2135   -4.2592    0.0000 C   0  0  0  0  0  0  0  0  0  0  0  0
   11.2135   -5.0842    0.0000 C   0  0  0  0  0  0  0  0  0  0  0  0
   10.4991   -3.8468    0.0000 C   0  0  0  0  0  0  0  0  0  0  0  0
   13.3569   -3.8468    0.0000 C   0  0  0  0  0  0  0  0  0  0  0  0
   13.3569   -3.0218    0.0000 O   0  0  0  0  0  0  0  0  0  0  0  0
   12.6424   -4.2592    0.0000 C   0  0  1  0  0  0  0  0  0  0  0  0
   11.9279   -3.8468    0.0000 C   0  0  0  0  0  0  0  0  0  0  0  0
   14.0713   -4.2592    0.0000 O   0  0  0  0  0  0  0  0  0  0  0  0
    9.0701   -5.4967    0.0000 O   0  0  0  0  0  0  0  0  0  0  0  0
   10.4991   -5.4967    0.0000 C   0  0  0  0  0  0  0  0  0  0  0  0
   10.4991   -6.3217    0.0000 O   0  0  0  0  0  0  0  0  0  0  0  0
   12.2299   -4.9737    0.0000 C   0  0  0  0  0  0  0  0  0  0  0  0
   13.0549   -4.9737    0.0000 N   0  0  0  0  0  0  0  0  0  0  0  0
    8.8909   -3.7431    0.0000 H   0  0  0  0  0  0  0  0  0  0  0  0
   12.1072   -5.6002    0.0000 H   0  0  0  0  0  0  0  0  0  0  0  0
   10.4991   -2.8148    0.0000 H   0  0  0  0  0  0  0  0  0  0  0  0
   11.9279   -2.7768    0.0000 H   0  0  0  0  0  0  0  0  0  0  0  0
   12.8545   -3.3117    0.0000 H   0  0  0  0  0  0  0  0  0  0  0  0
   14.0714   -5.1962    0.0000 H   0  0  0  0  0  0  0  0  0  0  0  0
    8.2586   -5.0282    0.0000 H   0  0  0  0  0  0  0  0  0  0  0  0
    9.6876   -6.7902    0.0000 H   0  0  0  0  0  0  0  0  0  0  0  0
   11.1599   -4.9737    0.0000 H   0  0  0  0  0  0  0  0  0  0  0  0
   12.7649   -5.9003    0.0000 H   0  0  0  0  0  0  0  0  0  0  0  0
   11.6949   -5.9004    0.0000 H   0  0  0  0  0  0  0  0  0  0  0  0
   12.5449   -5.8570    0.0000 H   0  0  0  0  0  0  0  0  0  0  0  0
   14.0749   -4.9737    0.0000 H   0  0  0  0  0  0  0  0  0  0  0  0
  1  5  1  0  0  0  0
  1 16  1  0  0  0  0
  2  1  2  0  0  0  0
  2 12  1  0  0  0  0
  4  3  1  0  0  0  0
  4 17  1  0  0  0  0
  5  3  2  0  0  0  0
  5 18  1  0  0  0  0
  6  7  2  0  0  0  0
  8  6  1  6  0  0  0
  8  9  1  0  0  0  0
  8 14  1  0  0  0  0
  8 15  1  0  0  0  0
  9  3  1  0  0  0  0
  9 19  1  0  0  0  0
  9 20  1  0  0  0  0
 10  6  1  0  0  0  0
 10 21  1  0  0  0  0
 11  2  1  0  0  0  0
 11 22  1  0  0  0  0
 12  4  2  0  0  0  0
 12 13  1  0  0  0  0
 13 23  1  0  0  0  0
 14 24  1  0  0  0  0
 14 25  1  0  0  0  0
 14 26  1  0  0  0  0
 15 27  1  0  0  0  0
 15 28  1  0  0  0  0
M  END
>  <DRUGBANK_ID>
DB00968

>  <SECONDARY_ACCESSION_NUMBERS>
APRD01106

>  <COMMON_NAME>
Methyldopa

>  <CAS_NUMBER>
555-30-6

>  <UNII>
M4R0H12F6M

>  <SYNONYMS>
(S)-(-)-alpha-Methyldopa; 3-Hydroxy-alpha-methyl-L-tyrosine; Alpha medopa; alpha-Methyl dopa; alpha-methyl-L-dopa; Alphamethyldopa; AMD; Anhydrous methyldopa; L-alpha-Methyldopa; L-Methyl Dopa; Methyl dopa; Methyldopa; Methyldopa anhydrous; metildopa; α-Methyl dopa; α-methyl-L-dopa

$$$$
