D01
 OpenBabel10282417072D

 48 52  0  0  0  0  0  0  0  0999 V2000
   -1.0334   -2.1603    0.0000 N   0  0  0  0  0  0  0  0  0  0  0  0
   -1.6465   -2.7124    0.0000 C   0  0  0  0  0  0  0  0  0  0  0  0
   -1.6465   -3.5374    0.0000 C   0  0  0  0  0  0  0  0  0  0  0  0
   -2.3609   -3.9499    0.0000 C   0  0  0  0  0  0  0  0  0  0  0  0
   -3.0754   -3.5374    0.0000 C   0  0  0  0  0  0  0  0  0  0  0  0
   -3.7899   -3.9499    0.0000 Cl  0  0  0  0  0  0  0  0  0  0  0  0
   -3.0754   -2.7124    0.0000 C   0  0  0  0  0  0  0  0  0  0  0  0
   -2.3609   -2.2999    0.0000 C   0  0  0  0  0  0  0  0  0  0  0  0
   -2.1894   -1.4929    0.0000 C   0  0  0  0  0  0  0  0  0  0  0  0
   -1.3689   -1.4067    0.0000 C   0  0  0  0  0  0  0  0  0  0  0  0
   -0.9564   -0.6922    0.0000 S   0  0  0  0  0  0  0  0  0  0  0  0
   -0.2420   -1.1047    0.0000 O   0  0  0  0  0  0  0  0  0  0  0  0
   -1.6709   -0.2797    0.0000 O   0  0  0  0  0  0  0  0  0  0  0  0
   -0.5439    0.0223    0.0000 N   0  0  0  0  0  0  0  0  0  0  0  0
   -0.9564    0.7367    0.0000 C   0  0  0  0  0  0  0  0  0  0  0  0
   -0.5439    1.4512    0.0000 C   0  0  0  0  0  0  0  0  0  0  0  0
    0.2811    1.4512    0.0000 N   0  0  0  0  0  0  0  0  0  0  0  0
    0.6936    2.1657    0.0000 C   0  0  0  0  0  0  0  0  0  0  0  0
    0.2811    2.8802    0.0000 O   0  0  0  0  0  0  0  0  0  0  0  0
    1.5186    2.1657    0.0000 C   0  0  0  0  0  0  0  0  0  0  0  0
    2.0035    1.4983    0.0000 C   0  0  0  0  0  0  0  0  0  0  0  0
    2.7881    1.7532    0.0000 C   0  0  0  0  0  0  0  0  0  0  0  0
    2.7881    2.5782    0.0000 C   0  0  0  0  0  0  0  0  0  0  0  0
    2.0035    2.8331    0.0000 S   0  0  0  0  0  0  0  0  0  0  0  0
    3.5026    2.9907    0.0000 C   0  0  0  0  0  0  0  0  0  0  0  0
    4.2171    2.5782    0.0000 C   0  0  0  0  0  0  0  0  0  0  0  0
    4.2171    1.7532    0.0000 C   0  0  0  0  0  0  0  0  0  0  0  0
    3.5026    1.3407    0.0000 N   0  3  0  0  0  0  0  0  0  0  0  0
    3.5026    0.5157    0.0000 O   0  5  0  0  0  0  0  0  0  0  0  0
    0.6936    0.7367    0.0000 C   0  0  0  0  0  0  0  0  0  0  0  0
    0.2811    0.0223    0.0000 C   0  0  0  0  0  0  0  0  0  0  0  0
   -0.0704   -2.3650    0.0000 H   0  0  0  0  0  0  0  0  0  0  0  0
   -0.7528   -4.0534    0.0000 H   0  0  0  0  0  0  0  0  0  0  0  0
   -2.3609   -4.9819    0.0000 H   0  0  0  0  0  0  0  0  0  0  0  0
   -3.9691   -2.1964    0.0000 H   0  0  0  0  0  0  0  0  0  0  0  0
   -2.8799   -0.7260    0.0000 H   0  0  0  0  0  0  0  0  0  0  0  0
   -2.0264    0.7367    0.0000 H   0  0  0  0  0  0  0  0  0  0  0  0
   -1.4914    1.6633    0.0000 H   0  0  0  0  0  0  0  0  0  0  0  0
   -1.0789    2.3778    0.0000 H   0  0  0  0  0  0  0  0  0  0  0  0
   -0.0089    2.3778    0.0000 H   0  0  0  0  0  0  0  0  0  0  0  0
    1.6846    0.5168    0.0000 H   0  0  0  0  0  0  0  0  0  0  0  0
    3.5026    4.0227    0.0000 H   0  0  0  0  0  0  0  0  0  0  0  0
    5.1108    3.0942    0.0000 H   0  0  0  0  0  0  0  0  0  0  0  0
    5.1108    1.2372    0.0000 H   0  0  0  0  0  0  0  0  0  0  0  0
    1.7636    0.7367    0.0000 H   0  0  0  0  0  0  0  0  0  0  0  0
    1.2286   -0.1900    0.0000 H   0  0  0  0  0  0  0  0  0  0  0  0
    0.8161   -0.9044    0.0000 H   0  0  0  0  0  0  0  0  0  0  0  0
    1.3511    0.0223    0.0000 H   0  0  0  0  0  0  0  0  0  0  0  0
  1  2  1  0  0  0  0
  1 10  1  0  0  0  0
  1 32  1  0  0  0  0
  2  3  2  0  0  0  0
  2  8  1  0  0  0  0
  3  4  1  0  0  0  0
  3 33  1  0  0  0  0
  4  5  2  0  0  0  0
  4 34  1  0  0  0  0
  5  6  1  0  0  0  0
  5  7  1  0  0  0  0
  7  8  2  0  0  0  0
  7 35  1  0  0  0  0
  8  9  1  0  0  0  0
  9 10  2  0  0  0  0
  9 36  1  0  0  0  0
 10 11  1  0  0  0  0
 11 12  2  0  0  0  0
 11 13  2  0  0  0  0
 11 14  1  0  0  0  0
 14 15  1  0  0  0  0
 14 31  1  0  0  0  0
 15 16  1  0  0  0  0
 15 37  1  0  0  0  0
 15 38  1  0  0  0  0
 16 17  1  0  0  0  0
 16 39  1  0  0  0  0
 16 40  1  0  0  0  0
 17 18  1  0  0  0  0
 17 30  1  0  0  0  0
 18 19  2  0  0  0  0
 18 20  1  0  0  0  0
 20 21  2  0  0  0  0
 20 24  1  0  0  0  0
 21 22  1  0  0  0  0
 21 41  1  0  0  0  0
 22 23  2  0  0  0  0
 22 28  1  0  0  0  0
 23 24  1  0  0  0  0
 23 25  1  0  0  0  0
 25 26  2  0  0  0  0
 25 42  1  0  0  0  0
 26 27  1  0  0  0  0
 26 43  1  0  0  0  0
 27 28  2  0  0  0  0
 27 44  1  0  0  0  0
 28 29  1  0  0  0  0
 30 31  1  0  0  0  0
 30 45  1  0  0  0  0
 30 46  1  0  0  0  0
 31 47  1  0  0  0  0
 31 48  1  0  0  0  0
M  CHG  2  28   1  29  -1
M  END
>  <DRUGBANK_ID>
DB07605

>  <COMMON_NAME>
2-({4-[(5-CHLORO-1H-INDOL-2-YL)SULFONYL]PIPERAZIN-1-YL}CARBONYL)THIENO[3,2-B]PYRIDINE 4-OXIDE

$$$$
