
 OpenBabel10282417072D

199199  0  0  1  0  0  0  0  0999 V2000
    3.5846    0.5306    0.0000 C   0  0  0  0  0  0  0  0  0  0  0  0
    3.4665   -0.3345    0.0000 C   0  0  0  0  0  0  0  0  0  0  0  0
    2.6648   -0.7825    0.0000 C   0  0  1  0  0  0  0  0  0  0  0  0
    1.9708   -0.3364    0.0000 C   0  0  0  0  0  0  0  0  0  0  0  0
    2.2549    0.4661    0.0000 O   0  0  0  0  0  0  0  0  0  0  0  0
    1.2375   -0.7145    0.0000 N   0  0  0  0  0  0  0  0  0  0  0  0
    0.8250   -0.0000    0.0000 C   0  0  1  0  0  0  0  0  0  0  0  0
    0.0000    0.0000    0.0000 C   0  0  0  0  0  0  0  0  0  0  0  0
   -0.4507    0.8277    0.0000 O   0  0  0  0  0  0  0  0  0  0  0  0
   -0.4125   -0.7145    0.0000 N   0  0  0  0  0  0  0  0  0  0  0  0
   -1.1458   -0.3364    0.0000 C   0  0  2  0  0  0  0  0  0  0  0  0
   -1.8398   -0.7825    0.0000 C   0  0  0  0  0  0  0  0  0  0  0  0
   -2.6858   -0.5866    0.0000 O   0  0  0  0  0  0  0  0  0  0  0  0
   -1.8006   -1.6065    0.0000 N   0  0  0  0  0  0  0  0  0  0  0  0
   -2.6218   -1.6849    0.0000 C   0  0  2  0  0  0  0  0  0  0  0  0
   -2.9646   -2.4354    0.0000 C   0  0  0  0  0  0  0  0  0  0  0  0
   -3.7825   -2.6337    0.0000 O   0  0  0  0  0  0  0  0  0  0  0  0
   -2.4860   -3.1074    0.0000 N   0  0  0  0  0  0  0  0  0  0  0  0
   -3.1345   -3.6174    0.0000 C   0  0  2  0  0  0  0  0  0  0  0  0
   -3.0171   -4.4340    0.0000 C   0  0  0  0  0  0  0  0  0  0  0  0
   -3.8025   -4.7726    0.0000 O   0  0  0  0  0  0  0  0  0  0  0  0
   -2.2512   -4.7406    0.0000 N   0  0  0  0  0  0  0  0  0  0  0  0
   -2.5210   -5.5203    0.0000 C   0  0  2  0  0  0  0  0  0  0  0  0
   -1.9808   -6.1437    0.0000 C   0  0  0  0  0  0  0  0  0  0  0  0
   -2.4838   -6.8384    0.0000 O   0  0  0  0  0  0  0  0  0  0  0  0
   -1.1707   -5.9876    0.0000 N   0  0  0  0  0  0  0  0  0  0  0  0
   -0.9762   -6.7894    0.0000 C   0  0  1  0  0  0  0  0  0  0  0  0
   -0.1846   -7.0218    0.0000 C   0  0  0  0  0  0  0  0  0  0  0  0
    0.0536   -7.8250    0.0000 O   0  0  0  0  0  0  0  0  0  0  0  0
    0.4125   -6.4525    0.0000 N   0  0  0  0  0  0  0  0  0  0  0  0
    1.0096   -7.0218    0.0000 C   0  0  2  0  0  0  0  0  0  0  0  0
    1.8012   -6.7894    0.0000 C   0  0  0  0  0  0  0  0  0  0  0  0
    2.4256   -7.3359    0.0000 O   0  0  0  0  0  0  0  0  0  0  0  0
    1.9957   -5.9876    0.0000 N   0  0  0  0  0  0  0  0  0  0  0  0
    2.8058   -6.1437    0.0000 C   0  0  2  0  0  0  0  0  0  0  0  0
    3.3460   -5.5203    0.0000 C   0  0  0  0  0  0  0  0  0  0  0  0
    4.1781   -5.5791    0.0000 O   0  0  0  0  0  0  0  0  0  0  0  0
    3.0762   -4.7406    0.0000 N   0  0  0  0  0  0  0  0  0  0  0  0
    3.8421   -4.4340    0.0000 C   0  0  2  0  0  0  0  0  0  0  0  0
    3.9595   -3.6174    0.0000 C   0  0  0  0  0  0  0  0  0  0  0  0
    4.8237   -3.3854    0.0000 O   0  0  0  0  0  0  0  0  0  0  0  0
    3.3110   -3.1074    0.0000 N   0  0  0  0  0  0  0  0  0  0  0  0
    3.7896   -2.4354    0.0000 C   0  0  2  0  0  0  0  0  0  0  0  0
    3.4468   -1.6849    0.0000 C   0  0  0  0  0  0  0  0  0  0  0  0
    3.8547   -0.9517    0.0000 O   0  0  0  0  0  0  0  0  0  0  0  0
    2.6256   -1.6065    0.0000 N   0  0  0  0  0  0  0  0  0  0  0  0
    4.6161   -2.1629    0.0000 C   0  0  1  0  0  0  0  0  0  0  0  0
    5.3772   -1.7929    0.0000 C   0  0  2  0  0  0  0  0  0  0  0  0
    6.0606   -2.2551    0.0000 C   0  0  0  0  0  0  0  0  0  0  0  0
    5.4358   -0.9700    0.0000 C   0  0  0  0  0  0  0  0  0  0  0  0
    6.1778   -0.6093    0.0000 C   0  0  0  0  0  0  0  0  0  0  0  0
    6.8611   -1.0715    0.0000 C   0  0  0  0  0  0  0  0  0  0  0  0
    7.6031   -0.7108    0.0000 C   0  0  0  0  0  0  0  0  0  0  0  0
    5.2569   -2.7447    0.0000 O   0  0  0  0  0  0  0  0  0  0  0  0
    2.4511   -3.1239    0.0000 C   0  0  0  0  0  0  0  0  0  0  0  0
    4.6077   -5.0019    0.0000 C   0  0  0  0  0  0  0  0  0  0  0  0
    5.4712   -4.8124    0.0000 C   0  0  0  0  0  0  0  0  0  0  0  0
    4.6745   -5.9826    0.0000 C   0  0  0  0  0  0  0  0  0  0  0  0
    2.3122   -4.3598    0.0000 C   0  0  0  0  0  0  0  0  0  0  0  0
    3.0648   -7.0437    0.0000 C   0  0  0  0  0  0  0  0  0  0  0  0
    3.8815   -7.3779    0.0000 C   0  0  0  0  0  0  0  0  0  0  0  0
    4.5339   -6.8728    0.0000 C   0  0  0  0  0  0  0  0  0  0  0  0
    3.9928   -8.1953    0.0000 C   0  0  0  0  0  0  0  0  0  0  0  0
    1.5079   -5.2885    0.0000 C   0  0  0  0  0  0  0  0  0  0  0  0
    0.7687   -7.9227    0.0000 C   0  0  0  0  0  0  0  0  0  0  0  0
    1.3889   -8.5544    0.0000 C   0  0  0  0  0  0  0  0  0  0  0  0
    2.1877   -8.3481    0.0000 C   0  0  0  0  0  0  0  0  0  0  0  0
    1.1681   -9.3493    0.0000 C   0  0  0  0  0  0  0  0  0  0  0  0
    0.2798   -5.5959    0.0000 C   0  0  0  0  0  0  0  0  0  0  0  0
   -1.3972   -7.5702    0.0000 C   0  0  0  0  0  0  0  0  0  0  0  0
   -3.2944   -5.9530    0.0000 C   0  0  0  0  0  0  0  0  0  0  0  0
   -4.0087   -3.3212    0.0000 C   0  0  0  0  0  0  0  0  0  0  0  0
   -4.7278   -3.8387    0.0000 C   0  0  0  0  0  0  0  0  0  0  0  0
   -4.6453   -4.6596    0.0000 C   0  0  0  0  0  0  0  0  0  0  0  0
   -5.4799   -3.4998    0.0000 C   0  0  0  0  0  0  0  0  0  0  0  0
   -1.6187   -3.1974    0.0000 C   0  0  0  0  0  0  0  0  0  0  0  0
   -3.2986   -1.0450    0.0000 C   0  0  0  0  0  0  0  0  0  0  0  0
   -4.1822   -1.1347    0.0000 C   0  0  0  0  0  0  0  0  0  0  0  0
   -3.2533   -0.0856    0.0000 C   0  0  0  0  0  0  0  0  0  0  0  0
   -1.1318    0.7276    0.0000 C   0  0  0  0  0  0  0  0  0  0  0  0
   -1.8400    1.3306    0.0000 C   0  0  0  0  0  0  0  0  0  0  0  0
   -0.4558    1.4743    0.0000 C   0  0  0  0  0  0  0  0  0  0  0  0
   -0.6625    0.1244    0.0000 C   0  0  0  0  0  0  0  0  0  0  0  0
   -1.5736    0.1974    0.0000 C   0  0  0  0  0  0  0  0  0  0  0  0
    1.1834    0.8189    0.0000 C   0  0  0  0  0  0  0  0  0  0  0  0
    0.8501   -1.4982    0.0000 C   0  0  0  0  0  0  0  0  0  0  0  0
    4.5751    0.9353    0.0000 H   0  0  0  0  0  0  0  0  0  0  0  0
    2.7388    1.1860    0.0000 H   0  0  0  0  0  0  0  0  0  0  0  0
    3.7293    1.5908    0.0000 H   0  0  0  0  0  0  0  0  0  0  0  0
    4.3505   -0.9373    0.0000 H   0  0  0  0  0  0  0  0  0  0  0  0
    3.4190   -1.4034    0.0000 H   0  0  0  0  0  0  0  0  0  0  0  0
    2.6978    0.2870    0.0000 H   0  0  0  0  0  0  0  0  0  0  0  0
    1.8934    0.0594    0.0000 H   0  0  0  0  0  0  0  0  0  0  0  0
   -0.2285    0.2144    0.0000 H   0  0  0  0  0  0  0  0  0  0  0  0
   -1.0566   -2.2512    0.0000 H   0  0  0  0  0  0  0  0  0  0  0  0
   -2.2740   -0.6730    0.0000 H   0  0  0  0  0  0  0  0  0  0  0  0
   -3.3154   -2.5628    0.0000 H   0  0  0  0  0  0  0  0  0  0  0  0
   -1.3557   -4.3316    0.0000 H   0  0  0  0  0  0  0  0  0  0  0  0
   -3.3415   -4.8335    0.0000 H   0  0  0  0  0  0  0  0  0  0  0  0
   -0.6384   -5.1594    0.0000 H   0  0  0  0  0  0  0  0  0  0  0  0
   -2.0374   -6.6525    0.0000 H   0  0  0  0  0  0  0  0  0  0  0  0
   -0.0205   -7.3113    0.0000 H   0  0  0  0  0  0  0  0  0  0  0  0
    2.0839   -6.9335    0.0000 H   0  0  0  0  0  0  0  0  0  0  0  0
    3.7048   -5.4951    0.0000 H   0  0  0  0  0  0  0  0  0  0  0  0
    4.4245   -3.2967    0.0000 H   0  0  0  0  0  0  0  0  0  0  0  0
    1.8816   -2.2512    0.0000 H   0  0  0  0  0  0  0  0  0  0  0  0
    5.6753   -2.3147    0.0000 H   0  0  0  0  0  0  0  0  0  0  0  0
    5.3012   -2.8602    0.0000 H   0  0  0  0  0  0  0  0  0  0  0  0
    5.9846   -3.3224    0.0000 H   0  0  0  0  0  0  0  0  0  0  0  0
    7.0229   -1.7872    0.0000 H   0  0  0  0  0  0  0  0  0  0  0  0
    6.9469   -2.8545    0.0000 H   0  0  0  0  0  0  0  0  0  0  0  0
    4.5495   -0.3705    0.0000 H   0  0  0  0  0  0  0  0  0  0  0  0
    5.5118    0.0973    0.0000 H   0  0  0  0  0  0  0  0  0  0  0  0
    6.2511    0.4201    0.0000 H   0  0  0  0  0  0  0  0  0  0  0  0
    6.7878   -2.1009    0.0000 H   0  0  0  0  0  0  0  0  0  0  0  0
    8.4894   -1.3103    0.0000 H   0  0  0  0  0  0  0  0  0  0  0  0
    7.6791    0.3565    0.0000 H   0  0  0  0  0  0  0  0  0  0  0  0
    8.5654   -0.2430    0.0000 H   0  0  0  0  0  0  0  0  0  0  0  0
    5.0513   -3.6927    0.0000 H   0  0  0  0  0  0  0  0  0  0  0  0
    1.8984   -2.2077    0.0000 H   0  0  0  0  0  0  0  0  0  0  0  0
    1.9340   -4.0606    0.0000 H   0  0  0  0  0  0  0  0  0  0  0  0
    1.3813   -3.1444    0.0000 H   0  0  0  0  0  0  0  0  0  0  0  0
    5.4638   -5.6438    0.0000 H   0  0  0  0  0  0  0  0  0  0  0  0
    6.1924   -5.6028    0.0000 H   0  0  0  0  0  0  0  0  0  0  0  0
    5.7951   -3.7926    0.0000 H   0  0  0  0  0  0  0  0  0  0  0  0
    6.5163   -4.5830    0.0000 H   0  0  0  0  0  0  0  0  0  0  0  0
    3.7864   -6.5793    0.0000 H   0  0  0  0  0  0  0  0  0  0  0  0
    5.6354   -6.4534    0.0000 H   0  0  0  0  0  0  0  0  0  0  0  0
    4.7472   -7.0501    0.0000 H   0  0  0  0  0  0  0  0  0  0  0  0
    2.2467   -3.2918    0.0000 H   0  0  0  0  0  0  0  0  0  0  0  0
    1.4200   -4.9505    0.0000 H   0  0  0  0  0  0  0  0  0  0  0  0
    1.3546   -3.8825    0.0000 H   0  0  0  0  0  0  0  0  0  0  0  0
    2.2684   -7.7583    0.0000 H   0  0  0  0  0  0  0  0  0  0  0  0
    3.2473   -8.0980    0.0000 H   0  0  0  0  0  0  0  0  0  0  0  0
    4.8718   -7.7830    0.0000 H   0  0  0  0  0  0  0  0  0  0  0  0
    5.5242   -7.2780    0.0000 H   0  0  0  0  0  0  0  0  0  0  0  0
    4.3897   -5.8126    0.0000 H   0  0  0  0  0  0  0  0  0  0  0  0
    5.3800   -6.2178    0.0000 H   0  0  0  0  0  0  0  0  0  0  0  0
    3.1468   -8.8504    0.0000 H   0  0  0  0  0  0  0  0  0  0  0  0
    4.9832   -8.6004    0.0000 H   0  0  0  0  0  0  0  0  0  0  0  0
    4.1372   -9.2555    0.0000 H   0  0  0  0  0  0  0  0  0  0  0  0
    1.9617   -4.3195    0.0000 H   0  0  0  0  0  0  0  0  0  0  0  0
    0.4418   -5.3800    0.0000 H   0  0  0  0  0  0  0  0  0  0  0  0
    0.8956   -4.4110    0.0000 H   0  0  0  0  0  0  0  0  0  0  0  0
   -0.2660   -8.1952    0.0000 H   0  0  0  0  0  0  0  0  0  0  0  0
    0.4848   -8.9543    0.0000 H   0  0  0  0  0  0  0  0  0  0  0  0
    2.1386   -9.3179    0.0000 H   0  0  0  0  0  0  0  0  0  0  0  0
    2.9374   -9.1115    0.0000 H   0  0  0  0  0  0  0  0  0  0  0  0
    2.4740   -7.3171    0.0000 H   0  0  0  0  0  0  0  0  0  0  0  0
    3.2237   -8.0805    0.0000 H   0  0  0  0  0  0  0  0  0  0  0  0
    0.1321   -9.6168    0.0000 H   0  0  0  0  0  0  0  0  0  0  0  0
    1.9178  -10.1128    0.0000 H   0  0  0  0  0  0  0  0  0  0  0  0
    0.8817  -10.3803    0.0000 H   0  0  0  0  0  0  0  0  0  0  0  0
    1.1136   -4.9253    0.0000 H   0  0  0  0  0  0  0  0  0  0  0  0
   -0.7178   -5.2091    0.0000 H   0  0  0  0  0  0  0  0  0  0  0  0
    0.1160   -4.5385    0.0000 H   0  0  0  0  0  0  0  0  0  0  0  0
   -2.4667   -7.6013    0.0000 H   0  0  0  0  0  0  0  0  0  0  0  0
   -0.8355   -8.4809    0.0000 H   0  0  0  0  0  0  0  0  0  0  0  0
   -1.9050   -8.5120    0.0000 H   0  0  0  0  0  0  0  0  0  0  0  0
   -4.2137   -5.4055    0.0000 H   0  0  0  0  0  0  0  0  0  0  0  0
   -3.3089   -7.0229    0.0000 H   0  0  0  0  0  0  0  0  0  0  0  0
   -4.2282   -6.4754    0.0000 H   0  0  0  0  0  0  0  0  0  0  0  0
   -4.1671   -2.2630    0.0000 H   0  0  0  0  0  0  0  0  0  0  0  0
   -4.9946   -2.9053    0.0000 H   0  0  0  0  0  0  0  0  0  0  0  0
   -5.5963   -4.4637    0.0000 H   0  0  0  0  0  0  0  0  0  0  0  0
   -5.5138   -5.2846    0.0000 H   0  0  0  0  0  0  0  0  0  0  0  0
   -3.6698   -5.0993    0.0000 H   0  0  0  0  0  0  0  0  0  0  0  0
   -4.5383   -5.7242    0.0000 H   0  0  0  0  0  0  0  0  0  0  0  0
   -5.5870   -2.4352    0.0000 H   0  0  0  0  0  0  0  0  0  0  0  0
   -6.3484   -4.1248    0.0000 H   0  0  0  0  0  0  0  0  0  0  0  0
   -6.4554   -3.0602    0.0000 H   0  0  0  0  0  0  0  0  0  0  0  0
   -1.1822   -4.1743    0.0000 H   0  0  0  0  0  0  0  0  0  0  0  0
   -0.9909   -2.3309    0.0000 H   0  0  0  0  0  0  0  0  0  0  0  0
   -0.5544   -3.3078    0.0000 H   0  0  0  0  0  0  0  0  0  0  0  0
   -4.0753   -0.3091    0.0000 H   0  0  0  0  0  0  0  0  0  0  0  0
   -4.8081   -0.2668    0.0000 H   0  0  0  0  0  0  0  0  0  0  0  0
   -4.6209   -2.1106    0.0000 H   0  0  0  0  0  0  0  0  0  0  0  0
   -5.2467   -1.2428    0.0000 H   0  0  0  0  0  0  0  0  0  0  0  0
   -2.3025    0.4051    0.0000 H   0  0  0  0  0  0  0  0  0  0  0  0
   -4.1537    0.4925    0.0000 H   0  0  0  0  0  0  0  0  0  0  0  0
   -3.2028    0.9832    0.0000 H   0  0  0  0  0  0  0  0  0  0  0  0
   -1.2011    1.7954    0.0000 H   0  0  0  0  0  0  0  0  0  0  0  0
   -1.6466    2.3830    0.0000 H   0  0  0  0  0  0  0  0  0  0  0  0
   -2.8481    0.9719    0.0000 H   0  0  0  0  0  0  0  0  0  0  0  0
   -2.6547    2.0243    0.0000 H   0  0  0  0  0  0  0  0  0  0  0  0
    0.5902    1.2490    0.0000 H   0  0  0  0  0  0  0  0  0  0  0  0
   -0.7837    2.4928    0.0000 H   0  0  0  0  0  0  0  0  0  0  0  0
    0.2623    2.2675    0.0000 H   0  0  0  0  0  0  0  0  0  0  0  0
    0.0108    0.9560    0.0000 H   0  0  0  0  0  0  0  0  0  0  0  0
   -1.0842    1.1078    0.0000 H   0  0  0  0  0  0  0  0  0  0  0  0
   -2.0329    1.1638    0.0000 H   0  0  0  0  0  0  0  0  0  0  0  0
   -2.1809   -0.6836    0.0000 H   0  0  0  0  0  0  0  0  0  0  0  0
   -2.6402    0.2829    0.0000 H   0  0  0  0  0  0  0  0  0  0  0  0
    2.2468    0.9375    0.0000 H   0  0  0  0  0  0  0  0  0  0  0  0
    0.5490    1.6805    0.0000 H   0  0  0  0  0  0  0  0  0  0  0  0
    1.6124    1.7991    0.0000 H   0  0  0  0  0  0  0  0  0  0  0  0
   -0.2177   -1.5672    0.0000 H   0  0  0  0  0  0  0  0  0  0  0  0
    1.4437   -2.3884    0.0000 H   0  0  0  0  0  0  0  0  0  0  0  0
    0.3759   -2.4574    0.0000 H   0  0  0  0  0  0  0  0  0  0  0  0
  1  2  1  0  0  0  0
  1 87  1  0  0  0  0
  1 88  1  0  0  0  0
  1 89  1  0  0  0  0
  2 90  1  0  0  0  0
  2 91  1  0  0  0  0
  3  2  1  0  0  0  0
  3  4  1  0  0  0  0
  3 46  1  0  0  0  0
  3 92  1  1  0  0  0
  4  5  2  0  0  0  0
  4  6  1  0  0  0  0
  6  7  1  0  0  0  0
  6 86  1  0  0  0  0
  7  8  1  0  0  0  0
  7 85  1  0  0  0  0
  7 93  1  6  0  0  0
  8  9  2  0  0  0  0
  8 10  1  0  0  0  0
 10 11  1  0  0  0  0
 10 83  1  0  0  0  0
 11 12  1  0  0  0  0
 11 80  1  0  0  0  0
 11 94  1  1  0  0  0
 12 13  2  0  0  0  0
 12 14  1  0  0  0  0
 14 15  1  0  0  0  0
 14 95  1  0  0  0  0
 15 16  1  0  0  0  0
 15 77  1  0  0  0  0
 15 96  1  1  0  0  0
 16 17  2  0  0  0  0
 16 18  1  0  0  0  0
 18 19  1  0  0  0  0
 18 76  1  0  0  0  0
 19 20  1  0  0  0  0
 19 72  1  0  0  0  0
 19 97  1  1  0  0  0
 20 21  2  0  0  0  0
 20 22  1  0  0  0  0
 22 23  1  0  0  0  0
 22 98  1  0  0  0  0
 23 24  1  0  0  0  0
 23 71  1  0  0  0  0
 23 99  1  1  0  0  0
 24 25  2  0  0  0  0
 24 26  1  0  0  0  0
 26 27  1  0  0  0  0
 26100  1  0  0  0  0
 27 28  1  0  0  0  0
 27 70  1  0  0  0  0
 27101  1  6  0  0  0
 28 29  2  0  0  0  0
 28 30  1  0  0  0  0
 30 31  1  0  0  0  0
 30 69  1  0  0  0  0
 31 32  1  0  0  0  0
 31 65  1  0  0  0  0
 31102  1  1  0  0  0
 32 33  2  0  0  0  0
 32 34  1  0  0  0  0
 34 35  1  0  0  0  0
 34 64  1  0  0  0  0
 35 36  1  0  0  0  0
 35 60  1  0  0  0  0
 35103  1  1  0  0  0
 36 37  2  0  0  0  0
 36 38  1  0  0  0  0
 38 39  1  0  0  0  0
 38 59  1  0  0  0  0
 39 40  1  0  0  0  0
 39 56  1  0  0  0  0
 39104  1  1  0  0  0
 40 41  2  0  0  0  0
 40 42  1  0  0  0  0
 42 43  1  0  0  0  0
 42 55  1  0  0  0  0
 43 44  1  0  0  0  0
 43 47  1  0  0  0  0
 43105  1  1  0  0  0
 44 45  2  0  0  0  0
 44 46  1  0  0  0  0
 46106  1  0  0  0  0
 47 48  1  0  0  0  0
 47 54  1  0  0  0  0
 47107  1  6  0  0  0
 48 49  1  0  0  0  0
 48 50  1  0  0  0  0
 48108  1  6  0  0  0
 49109  1  0  0  0  0
 49110  1  0  0  0  0
 49111  1  0  0  0  0
 50 51  1  0  0  0  0
 50112  1  0  0  0  0
 50113  1  0  0  0  0
 51 52  2  0  0  0  0
 51114  1  0  0  0  0
 52 53  1  0  0  0  0
 52115  1  0  0  0  0
 53116  1  0  0  0  0
 53117  1  0  0  0  0
 53118  1  0  0  0  0
 54119  1  0  0  0  0
 55120  1  0  0  0  0
 55121  1  0  0  0  0
 55122  1  0  0  0  0
 56 57  1  0  0  0  0
 56 58  1  0  0  0  0
 56123  1  0  0  0  0
 57124  1  0  0  0  0
 57125  1  0  0  0  0
 57126  1  0  0  0  0
 58127  1  0  0  0  0
 58128  1  0  0  0  0
 58129  1  0  0  0  0
 59130  1  0  0  0  0
 59131  1  0  0  0  0
 59132  1  0  0  0  0
 60 61  1  0  0  0  0
 60133  1  0  0  0  0
 60134  1  0  0  0  0
 61 62  1  0  0  0  0
 61 63  1  0  0  0  0
 61135  1  0  0  0  0
 62136  1  0  0  0  0
 62137  1  0  0  0  0
 62138  1  0  0  0  0
 63139  1  0  0  0  0
 63140  1  0  0  0  0
 63141  1  0  0  0  0
 64142  1  0  0  0  0
 64143  1  0  0  0  0
 64144  1  0  0  0  0
 65 66  1  0  0  0  0
 65145  1  0  0  0  0
 65146  1  0  0  0  0
 66 67  1  0  0  0  0
 66 68  1  0  0  0  0
 66147  1  0  0  0  0
 67148  1  0  0  0  0
 67149  1  0  0  0  0
 67150  1  0  0  0  0
 68151  1  0  0  0  0
 68152  1  0  0  0  0
 68153  1  0  0  0  0
 69154  1  0  0  0  0
 69155  1  0  0  0  0
 69156  1  0  0  0  0
 70157  1  0  0  0  0
 70158  1  0  0  0  0
 70159  1  0  0  0  0
 71160  1  0  0  0  0
 71161  1  0  0  0  0
 71162  1  0  0  0  0
 72 73  1  0  0  0  0
 72163  1  0  0  0  0
 72164  1  0  0  0  0
 73 74  1  0  0  0  0
 73 75  1  0  0  0  0
 73165  1  0  0  0  0
 74166  1  0  0  0  0
 74167  1  0  0  0  0
 74168  1  0  0  0  0
 75169  1  0  0  0  0
 75170  1  0  0  0  0
 75171  1  0  0  0  0
 76172  1  0  0  0  0
 76173  1  0  0  0  0
 76174  1  0  0  0  0
 77 78  1  0  0  0  0
 77 79  1  0  0  0  0
 77175  1  0  0  0  0
 78176  1  0  0  0  0
 78177  1  0  0  0  0
 78178  1  0  0  0  0
 79179  1  0  0  0  0
 79180  1  0  0  0  0
 79181  1  0  0  0  0
 80 81  1  0  0  0  0
 80 82  1  0  0  0  0
 80182  1  0  0  0  0
 81183  1  0  0  0  0
 81184  1  0  0  0  0
 81185  1  0  0  0  0
 82186  1  0  0  0  0
 82187  1  0  0  0  0
 82188  1  0  0  0  0
 83 84  1  0  0  0  0
 83189  1  0  0  0  0
 83190  1  0  0  0  0
 84191  1  0  0  0  0
 84192  1  0  0  0  0
 84193  1  0  0  0  0
 85194  1  0  0  0  0
 85195  1  0  0  0  0
 85196  1  0  0  0  0
 86197  1  0  0  0  0
 86198  1  0  0  0  0
 86199  1  0  0  0  0
M  END
>  <DRUGBANK_ID>
DB12139

>  <COMMON_NAME>
Alisporivir

>  <CAS_NUMBER>
254435-95-5

>  <UNII>
VBP9099AA6

>  <SYNONYMS>
Alisporivir

$$$$
