PNP
 OpenBabel10282417072D

 22 22  0  0  0  0  0  0  0  0999 V2000
    0.3495   -0.3212    0.0000 C   0  0  0  0  0  0  0  0  0  0  0  0
    0.3495   -1.1462    0.0000 C   0  0  0  0  0  0  0  0  0  0  0  0
   -0.3650   -1.5587    0.0000 C   0  0  0  0  0  0  0  0  0  0  0  0
   -1.0795   -1.1462    0.0000 C   0  0  0  0  0  0  0  0  0  0  0  0
   -1.0795   -0.3212    0.0000 C   0  0  0  0  0  0  0  0  0  0  0  0
   -0.3650    0.0913    0.0000 C   0  0  0  0  0  0  0  0  0  0  0  0
    1.0639    1.7413    0.0000 C   0  0  0  0  0  0  0  0  0  0  0  0
   -1.7939   -1.5587    0.0000 N   0  3  0  0  0  0  0  0  0  0  0  0
   -1.7939   -2.3837    0.0000 O   0  0  0  0  0  0  0  0  0  0  0  0
   -2.5084   -1.1462    0.0000 O   0  5  0  0  0  0  0  0  0  0  0  0
    1.0639    0.9163    0.0000 P   0  0  1  0  0  0  0  0  0  0  0  0
    1.0639    0.0913    0.0000 O   0  0  0  0  0  0  0  0  0  0  0  0
    0.2389    0.9163    0.0000 O   0  0  0  0  0  0  0  0  0  0  0  0
    1.8889    0.9163    0.0000 O   0  0  0  0  0  0  0  0  0  0  0  0
    1.2432   -1.6622    0.0000 H   0  0  0  0  0  0  0  0  0  0  0  0
   -0.3650   -2.5907    0.0000 H   0  0  0  0  0  0  0  0  0  0  0  0
   -1.9732    0.1948    0.0000 H   0  0  0  0  0  0  0  0  0  0  0  0
   -0.3650    1.1233    0.0000 H   0  0  0  0  0  0  0  0  0  0  0  0
    1.9905    2.2763    0.0000 H   0  0  0  0  0  0  0  0  0  0  0  0
    0.1373    2.2763    0.0000 H   0  0  0  0  0  0  0  0  0  0  0  0
    1.0639    2.8113    0.0000 H   0  0  0  0  0  0  0  0  0  0  0  0
    2.3739    0.0763    0.0000 H   0  0  0  0  0  0  0  0  0  0  0  0
  1  2  2  0  0  0  0
  1  6  1  0  0  0  0
  1 12  1  0  0  0  0
  2  3  1  0  0  0  0
  2 15  1  0  0  0  0
  3  4  2  0  0  0  0
  3 16  1  0  0  0  0
  4  5  1  0  0  0  0
  4  8  1  0  0  0  0
  5  6  2  0  0  0  0
  5 17  1  0  0  0  0
  6 18  1  0  0  0  0
  7 19  1  0  0  0  0
  7 20  1  0  0  0  0
  7 21  1  0  0  0  0
  8  9  2  0  0  0  0
  8 10  1  0  0  0  0
 11  7  1  0  0  0  0
 11 12  1  0  0  0  0
 11 13  2  6  0  0  0
 11 14  1  0  0  0  0
 14 22  1  0  0  0  0
M  CHG  2   8   1  10  -1
M  END
>  <DRUGBANK_ID>
DB08413

>  <COMMON_NAME>
METHYL-PHOSPHONIC ACID MONO-(4-NITRO-PHENYL) ESTER

$$$$
