
 OpenBabel10282417072D

 68 72  0  0  1  0  0  0  0  0999 V2000
    0.1073    0.1997    0.0000 C   0  0  0  0  0  0  0  0  0  0  0  0
   -1.4210    2.2303    0.0000 C   0  0  0  0  0  0  0  0  0  0  0  0
   -0.9807   -0.3169    0.0000 C   0  0  0  0  0  0  0  0  0  0  0  0
    3.6869   -0.6596    0.0000 C   0  0  0  0  0  0  0  0  0  0  0  0
    2.5945   -1.5808    0.0000 C   0  0  0  0  0  0  0  0  0  0  0  0
    3.1551   -0.0289    0.0000 C   0  0  0  0  0  0  0  0  0  0  0  0
    2.0626   -0.9500    0.0000 C   0  0  0  0  0  0  0  0  0  0  0  0
    2.6520    2.7844    0.0000 C   0  0  0  0  0  0  0  0  0  0  0  0
    4.2475    0.8922    0.0000 C   0  0  0  0  0  0  0  0  0  0  0  0
    1.8399    2.6391    0.0000 C   0  0  0  0  0  0  0  0  0  0  0  0
    3.4354    0.7470    0.0000 C   0  0  0  0  0  0  0  0  0  0  0  0
    0.0962    2.2244    0.0000 C   0  0  0  0  0  0  0  0  0  0  0  0
   -0.5867    1.7614    0.0000 C   0  0  0  0  0  0  0  0  0  0  0  0
    3.9960    2.2989    0.0000 C   0  0  0  0  0  0  0  0  0  0  0  0
    0.9990    0.3114    0.0000 C   0  0  0  0  0  0  0  0  0  0  0  0
    3.9384   -2.0662    0.0000 C   0  0  0  0  0  0  0  0  0  0  0  0
   -1.1695    0.8237    0.0000 C   0  0  0  0  0  0  0  0  0  0  0  0
    3.4066   -1.4355    0.0000 C   0  0  0  0  0  0  0  0  0  0  0  0
    2.3429   -0.1741    0.0000 C   0  0  0  0  0  0  0  0  0  0  0  0
    3.1838    2.1537    0.0000 C   0  0  0  0  0  0  0  0  0  0  0  0
    4.5278    1.6682    0.0000 C   0  0  0  0  0  0  0  0  0  0  0  0
    2.9035    1.3777    0.0000 C   0  0  0  0  0  0  0  0  0  0  0  0
    1.5596    1.8632    0.0000 C   0  0  1  0  0  0  0  0  0  0  0  0
    1.8111    0.4566    0.0000 C   0  0  2  0  0  0  0  0  0  0  0  0
    0.7475    1.7180    0.0000 C   0  0  1  0  0  0  0  0  0  0  0  0
    2.0914    1.2325    0.0000 C   0  0  0  0  0  0  0  0  0  0  0  0
    0.4672    0.9421    0.0000 C   0  0  2  0  0  0  0  0  0  0  0  0
   -0.3574    0.9689    0.0000 C   0  0  1  0  0  0  0  0  0  0  0  0
    3.6581   -2.8422    0.0000 N   0  0  0  0  0  0  0  0  0  0  0  0
    5.3399    1.8134    0.0000 O   0  0  0  0  0  0  0  0  0  0  0  0
    4.1899   -3.4729    0.0000 O   0  0  0  0  0  0  0  0  0  0  0  0
   -1.7013    1.4544    0.0000 O   0  0  0  0  0  0  0  0  0  0  0  0
   -0.2978    0.1460    0.0000 O   0  0  0  0  0  0  0  0  0  0  0  0
    4.7505   -1.9210    0.0000 H   0  0  0  0  0  0  0  0  0  0  0  0
    0.8441    2.2740    0.0000 H   0  0  0  0  0  0  0  0  0  0  0  0
    1.5308   -0.3193    0.0000 H   0  0  0  0  0  0  0  0  0  0  0  0
    0.6593    2.5383    0.0000 H   0  0  0  0  0  0  0  0  0  0  0  0
   -0.9599    0.1225    0.0000 H   0  0  0  0  0  0  0  0  0  0  0  0
    0.7078   -0.6859    0.0000 H   0  0  0  0  0  0  0  0  0  0  0  0
   -0.3595   -0.7631    0.0000 H   0  0  0  0  0  0  0  0  0  0  0  0
   -0.3677    2.4186    0.0000 H   0  0  0  0  0  0  0  0  0  0  0  0
   -2.1107    3.0483    0.0000 H   0  0  0  0  0  0  0  0  0  0  0  0
   -1.0574    3.2366    0.0000 H   0  0  0  0  0  0  0  0  0  0  0  0
   -1.9435    0.1500    0.0000 H   0  0  0  0  0  0  0  0  0  0  0  0
   -0.9036   -1.3841    0.0000 H   0  0  0  0  0  0  0  0  0  0  0  0
   -1.8664   -0.9173    0.0000 H   0  0  0  0  0  0  0  0  0  0  0  0
    4.7028   -0.4780    0.0000 H   0  0  0  0  0  0  0  0  0  0  0  0
    2.2439   -2.5514    0.0000 H   0  0  0  0  0  0  0  0  0  0  0  0
    3.5058    0.9417    0.0000 H   0  0  0  0  0  0  0  0  0  0  0  0
    1.0467   -1.1316    0.0000 H   0  0  0  0  0  0  0  0  0  0  0  0
    3.0155    3.7908    0.0000 H   0  0  0  0  0  0  0  0  0  0  0  0
    3.7053    2.9728    0.0000 H   0  0  0  0  0  0  0  0  0  0  0  0
    4.9373    0.0742    0.0000 H   0  0  0  0  0  0  0  0  0  0  0  0
    5.3008    1.0806    0.0000 H   0  0  0  0  0  0  0  0  0  0  0  0
    1.1501    3.4571    0.0000 H   0  0  0  0  0  0  0  0  0  0  0  0
    0.7866    2.4507    0.0000 H   0  0  0  0  0  0  0  0  0  0  0  0
    3.0719   -0.2594    0.0000 H   0  0  0  0  0  0  0  0  0  0  0  0
    2.3821    0.5586    0.0000 H   0  0  0  0  0  0  0  0  0  0  0  0
    0.1310    3.2938    0.0000 H   0  0  0  0  0  0  0  0  0  0  0  0
    1.0649    2.6789    0.0000 H   0  0  0  0  0  0  0  0  0  0  0  0
   -1.5930    2.1250    0.0000 H   0  0  0  0  0  0  0  0  0  0  0  0
   -1.3675    1.0298    0.0000 H   0  0  0  0  0  0  0  0  0  0  0  0
    4.3467    3.2695    0.0000 H   0  0  0  0  0  0  0  0  0  0  0  0
    0.6354   -0.6949    0.0000 H   0  0  0  0  0  0  0  0  0  0  0  0
   -0.0543    0.1231    0.0000 H   0  0  0  0  0  0  0  0  0  0  0  0
   -1.5331   -0.1826    0.0000 H   0  0  0  0  0  0  0  0  0  0  0  0
   -2.2228    0.6354    0.0000 H   0  0  0  0  0  0  0  0  0  0  0  0
    3.8715   -4.3542    0.0000 H   0  0  0  0  0  0  0  0  0  0  0  0
  1 38  1  0  0  0  0
  1 39  1  0  0  0  0
  1 40  1  0  0  0  0
  2 41  1  0  0  0  0
  2 42  1  0  0  0  0
  2 43  1  0  0  0  0
  3 44  1  0  0  0  0
  3 45  1  0  0  0  0
  3 46  1  0  0  0  0
  4 47  1  0  0  0  0
  5 48  1  0  0  0  0
  6  4  1  0  0  0  0
  6 49  1  0  0  0  0
  7  5  2  0  0  0  0
  7 50  1  0  0  0  0
  8 51  1  0  0  0  0
  8 52  1  0  0  0  0
  9 53  1  0  0  0  0
  9 54  1  0  0  0  0
 10  8  1  0  0  0  0
 10 55  1  0  0  0  0
 10 56  1  0  0  0  0
 11  9  1  0  0  0  0
 11 57  1  0  0  0  0
 11 58  1  0  0  0  0
 12 59  1  0  0  0  0
 12 60  1  0  0  0  0
 13 12  1  0  0  0  0
 13 61  1  0  0  0  0
 13 62  1  0  0  0  0
 14 63  1  0  0  0  0
 15 64  1  0  0  0  0
 15 65  1  0  0  0  0
 17 66  1  0  0  0  0
 17 67  1  0  0  0  0
 18  4  2  0  0  0  0
 18  5  1  0  0  0  0
 18 16  1  0  0  0  0
 19  6  2  0  0  0  0
 19  7  1  0  0  0  0
 20  8  1  0  0  0  0
 20 14  2  0  0  0  0
 21  9  1  0  0  0  0
 21 14  1  0  0  0  0
 22 11  1  0  0  0  0
 22 20  1  0  0  0  0
 23 10  1  0  0  0  0
 23 35  1  1  0  0  0
 24 15  1  0  0  0  0
 24 19  1  0  0  0  0
 24 36  1  6  0  0  0
 25 12  1  0  0  0  0
 25 23  1  0  0  0  0
 25 37  1  6  0  0  0
 26 22  2  0  0  0  0
 26 23  1  0  0  0  0
 26 24  1  0  0  0  0
 27  1  1  1  0  0  0
 27 15  1  0  0  0  0
 27 25  1  0  0  0  0
 28 13  1  0  0  0  0
 28 17  1  0  0  0  0
 28 27  1  0  0  0  0
 28 33  1  1  0  0  0
 29 16  2  0  0  0  0
 30 21  2  0  0  0  0
 31 29  1  0  0  0  0
 31 68  1  0  0  0  0
 32  2  1  0  0  0  0
 32 17  1  0  0  0  0
 33  3  1  0  0  0  0
 34 16  1  0  0  0  0
M  END
>  <DRUGBANK_ID>
DB06680

>  <COMMON_NAME>
Asoprisnil

>  <CAS_NUMBER>
199396-76-4

>  <UNII>
72W09924WP

>  <SYNONYMS>
Asoprisnil

$$$$
