
 OpenBabel10282417072D

 51 55  0  0  0  0  0  0  0  0999 V2000
    0.5121    4.7149    0.0000 C   0  0  0  0  0  0  0  0  0  0  0  0
   -0.0400    4.1018    0.0000 C   0  0  0  0  0  0  0  0  0  0  0  0
    1.3191    4.5434    0.0000 C   0  0  0  0  0  0  0  0  0  0  0  0
    3.4905    1.2811    0.0000 C   0  0  0  0  0  0  0  0  0  0  0  0
    3.4905    2.1061    0.0000 C   0  0  0  0  0  0  0  0  0  0  0  0
    0.2150    3.3172    0.0000 C   0  0  0  0  0  0  0  0  0  0  0  0
    1.5740    3.7587    0.0000 C   0  0  0  0  0  0  0  0  0  0  0  0
    2.7760    0.8686    0.0000 C   0  0  0  0  0  0  0  0  0  0  0  0
    2.7760    2.5186    0.0000 C   0  0  0  0  0  0  0  0  0  0  0  0
    2.2030   -0.9504    0.0000 C   0  0  0  0  0  0  0  0  0  0  0  0
    2.7842    0.3550    0.0000 C   0  0  0  0  0  0  0  0  0  0  0  0
   -0.5920   -0.1015    0.0000 C   0  0  0  0  0  0  0  0  0  0  0  0
    0.7670   -0.5431    0.0000 C   0  0  0  0  0  0  0  0  0  0  0  0
    2.9567   -1.2859    0.0000 C   0  0  0  0  0  0  0  0  0  0  0  0
    3.5379    0.0195    0.0000 C   0  0  0  0  0  0  0  0  0  0  0  0
   -0.8469   -0.8862    0.0000 C   0  0  0  0  0  0  0  0  0  0  0  0
    0.5121   -1.3277    0.0000 C   0  0  0  0  0  0  0  0  0  0  0  0
    1.3631    0.2057    0.0000 C   0  0  0  0  0  0  0  0  0  0  0  0
    0.4699    0.8546    0.0000 C   0  0  0  0  0  0  0  0  0  0  0  0
    2.1168   -0.1299    0.0000 C   0  0  0  0  0  0  0  0  0  0  0  0
    0.2150    0.0700    0.0000 C   0  0  0  0  0  0  0  0  0  0  0  0
    1.0220    3.1456    0.0000 C   0  0  0  0  0  0  0  0  0  0  0  0
    2.0615    1.2811    0.0000 C   0  0  0  0  0  0  0  0  0  0  0  0
    2.0615    2.1061    0.0000 C   0  0  0  0  0  0  0  0  0  0  0  0
    0.7920    1.6936    0.0000 C   0  0  0  0  0  0  0  0  0  0  0  0
    1.2769    1.0261    0.0000 C   0  0  0  0  0  0  0  0  0  0  0  0
    3.6242   -0.8010    0.0000 N   0  0  0  0  0  0  0  0  0  0  0  0
   -0.2949   -1.4993    0.0000 N   0  0  0  0  0  0  0  0  0  0  0  0
    1.2769    2.3610    0.0000 N   0  0  0  0  0  0  0  0  0  0  0  0
   -0.0330    1.6936    0.0000 O   0  0  0  0  0  0  0  0  0  0  0  0
    0.1932    5.6964    0.0000 H   0  0  0  0  0  0  0  0  0  0  0  0
   -1.0495    4.3164    0.0000 H   0  0  0  0  0  0  0  0  0  0  0  0
    2.0097    5.3103    0.0000 H   0  0  0  0  0  0  0  0  0  0  0  0
    4.3842    0.7651    0.0000 H   0  0  0  0  0  0  0  0  0  0  0  0
    4.3842    2.6221    0.0000 H   0  0  0  0  0  0  0  0  0  0  0  0
   -0.4755    2.5503    0.0000 H   0  0  0  0  0  0  0  0  0  0  0  0
    2.5834    3.5441    0.0000 H   0  0  0  0  0  0  0  0  0  0  0  0
    2.7760   -0.1634    0.0000 H   0  0  0  0  0  0  0  0  0  0  0  0
    2.7760    3.5506    0.0000 H   0  0  0  0  0  0  0  0  0  0  0  0
    1.3681   -1.5570    0.0000 H   0  0  0  0  0  0  0  0  0  0  0  0
    2.6763    1.3813    0.0000 H   0  0  0  0  0  0  0  0  0  0  0  0
   -1.2826    0.6654    0.0000 H   0  0  0  0  0  0  0  0  0  0  0  0
    1.7764   -0.3285    0.0000 H   0  0  0  0  0  0  0  0  0  0  0  0
    3.0646   -2.3122    0.0000 H   0  0  0  0  0  0  0  0  0  0  0  0
    4.3728    0.6262    0.0000 H   0  0  0  0  0  0  0  0  0  0  0  0
   -1.8563   -1.1008    0.0000 H   0  0  0  0  0  0  0  0  0  0  0  0
    1.2027   -2.0946    0.0000 H   0  0  0  0  0  0  0  0  0  0  0  0
    0.4974   -0.4232    0.0000 H   0  0  0  0  0  0  0  0  0  0  0  0
    0.3856    0.6409    0.0000 H   0  0  0  0  0  0  0  0  0  0  0  0
   -0.2461    1.6498    0.0000 H   0  0  0  0  0  0  0  0  0  0  0  0
    0.8006    1.8722    0.0000 H   0  0  0  0  0  0  0  0  0  0  0  0
  1 31  1  0  0  0  0
  2  1  2  0  0  0  0
  2 32  1  0  0  0  0
  3  1  1  0  0  0  0
  3 33  1  0  0  0  0
  4 34  1  0  0  0  0
  5  4  2  0  0  0  0
  5 35  1  0  0  0  0
  6  2  1  0  0  0  0
  6 36  1  0  0  0  0
  7  3  2  0  0  0  0
  7 37  1  0  0  0  0
  8  4  1  0  0  0  0
  8 38  1  0  0  0  0
  9  5  1  0  0  0  0
  9 39  1  0  0  0  0
 10 40  1  0  0  0  0
 11 41  1  0  0  0  0
 12 42  1  0  0  0  0
 13 43  1  0  0  0  0
 14 10  1  0  0  0  0
 14 44  1  0  0  0  0
 15 11  2  0  0  0  0
 15 45  1  0  0  0  0
 16 12  1  0  0  0  0
 16 46  1  0  0  0  0
 17 13  2  0  0  0  0
 17 47  1  0  0  0  0
 18 48  1  0  0  0  0
 18 49  1  0  0  0  0
 19 50  1  0  0  0  0
 19 51  1  0  0  0  0
 20 10  2  0  0  0  0
 20 11  1  0  0  0  0
 20 18  1  0  0  0  0
 21 12  2  0  0  0  0
 21 13  1  0  0  0  0
 21 19  1  0  0  0  0
 22  6  2  0  0  0  0
 22  7  1  0  0  0  0
 23  8  2  0  0  0  0
 24  9  2  0  0  0  0
 24 23  1  0  0  0  0
 26 18  1  0  0  0  0
 26 19  1  0  0  0  0
 26 23  1  0  0  0  0
 26 25  1  0  0  0  0
 27 14  2  0  0  0  0
 27 15  1  0  0  0  0
 28 16  2  0  0  0  0
 28 17  1  0  0  0  0
 29 22  1  0  0  0  0
 29 24  1  0  0  0  0
 29 25  1  0  0  0  0
 30 25  2  0  0  0  0
M  END
>  <DRUGBANK_ID>
DB13806

>  <COMMON_NAME>
Linopirdine

>  <CAS_NUMBER>
105431-72-9

>  <UNII>
I5TB3NZ94T

>  <SYNONYMS>
Linopirdine

$$$$
