
 OpenBabel10282417072D

 76 78  0  0  1  0  0  0  0  0999 V2000
    2.4454    0.7145    0.0000 C   0  0  0  0  0  0  0  0  0  0  0  0
    2.8579    0.0000    0.0000 C   0  0  0  0  0  0  0  0  0  0  0  0
    3.6829    0.0000    0.0000 C   0  0  0  0  0  0  0  0  0  0  0  0
    4.0954   -0.7145    0.0000 C   0  0  1  0  0  0  0  0  0  0  0  0
    4.9204   -0.7145    0.0000 C   0  0  0  0  0  0  0  0  0  0  0  0
    5.3329   -1.4289    0.0000 O   0  0  0  0  0  0  0  0  0  0  0  0
    5.3329    0.0000    0.0000 N   0  0  0  0  0  0  0  0  0  0  0  0
    6.1579    0.0000    0.0000 C   0  0  0  0  0  0  0  0  0  0  0  0
    6.6428    0.6674    0.0000 C   0  0  0  0  0  0  0  0  0  0  0  0
    7.4274    0.4125    0.0000 N   0  0  0  0  0  0  0  0  0  0  0  0
    7.4274   -0.4125    0.0000 C   0  0  0  0  0  0  0  0  0  0  0  0
    6.6428   -0.6674    0.0000 N   0  0  0  0  0  0  0  0  0  0  0  0
    8.0949    0.8974    0.0000 C   0  0  0  0  0  0  0  0  0  0  0  0
    7.6099    1.5649    0.0000 C   0  0  0  0  0  0  0  0  0  0  0  0
    8.5798    0.2300    0.0000 C   0  0  0  0  0  0  0  0  0  0  0  0
    8.7623    1.3823    0.0000 C   0  0  0  0  0  0  0  0  0  0  0  0
    9.5160    1.0468    0.0000 N   0  0  0  0  0  0  0  0  0  0  0  0
   10.1834    1.5317    0.0000 C   0  0  0  0  0  0  0  0  0  0  0  0
   10.9371    1.1962    0.0000 C   0  0  0  0  0  0  0  0  0  0  0  0
   11.6908    0.8606    0.0000 C   0  0  0  0  0  0  0  0  0  0  0  0
   11.2727    1.9498    0.0000 C   0  0  0  0  0  0  0  0  0  0  0  0
   10.6015    0.4425    0.0000 C   0  0  0  0  0  0  0  0  0  0  0  0
    3.6829   -1.4289    0.0000 N   0  0  0  0  0  0  0  0  0  0  0  0
    2.8579   -1.4289    0.0000 C   0  0  1  0  0  0  0  0  0  0  0  0
    2.4454   -2.1434    0.0000 C   0  0  0  0  0  0  0  0  0  0  0  0
    1.6204   -2.1434    0.0000 C   0  0  0  0  0  0  0  0  0  0  0  0
    1.2079   -1.4289    0.0000 C   0  0  0  0  0  0  0  0  0  0  0  0
    0.3829   -1.4289    0.0000 C   0  0  0  0  0  0  0  0  0  0  0  0
   -0.0296   -0.7145    0.0000 C   0  0  0  0  0  0  0  0  0  0  0  0
    0.3829    0.0000    0.0000 C   0  0  0  0  0  0  0  0  0  0  0  0
    1.2079    0.0000    0.0000 C   0  0  0  0  0  0  0  0  0  0  0  0
    1.6204   -0.7145    0.0000 C   0  0  0  0  0  0  0  0  0  0  0  0
    2.4454   -0.7145    0.0000 C   0  0  0  0  0  0  0  0  0  0  0  0
    1.6204    0.7145    0.0000 F   0  0  0  0  0  0  0  0  0  0  0  0
   -0.8546   -0.7145    0.0000 F   0  0  0  0  0  0  0  0  0  0  0  0
    2.9804    1.6411    0.0000 H   0  0  0  0  0  0  0  0  0  0  0  0
    1.3754    0.7145    0.0000 H   0  0  0  0  0  0  0  0  0  0  0  0
    1.9104    1.6412    0.0000 H   0  0  0  0  0  0  0  0  0  0  0  0
    2.3229   -0.9266    0.0000 H   0  0  0  0  0  0  0  0  0  0  0  0
    3.3929   -0.9266    0.0000 H   0  0  0  0  0  0  0  0  0  0  0  0
    4.2179    0.9266    0.0000 H   0  0  0  0  0  0  0  0  0  0  0  0
    4.7529   -0.0000    0.0000 H   0  0  0  0  0  0  0  0  0  0  0  0
    3.0254   -0.7145    0.0000 H   0  0  0  0  0  0  0  0  0  0  0  0
    4.8406    0.8526    0.0000 H   0  0  0  0  0  0  0  0  0  0  0  0
    6.3239    1.6489    0.0000 H   0  0  0  0  0  0  0  0  0  0  0  0
    8.2623   -1.0191    0.0000 H   0  0  0  0  0  0  0  0  0  0  0  0
    8.0451    2.5424    0.0000 H   0  0  0  0  0  0  0  0  0  0  0  0
    6.5458    1.4530    0.0000 H   0  0  0  0  0  0  0  0  0  0  0  0
    6.9809    2.4305    0.0000 H   0  0  0  0  0  0  0  0  0  0  0  0
    8.1446   -0.7475    0.0000 H   0  0  0  0  0  0  0  0  0  0  0  0
    9.6439    0.3419    0.0000 H   0  0  0  0  0  0  0  0  0  0  0  0
    9.2087   -0.6356    0.0000 H   0  0  0  0  0  0  0  0  0  0  0  0
    8.6504    2.4464    0.0000 H   0  0  0  0  0  0  0  0  0  0  0  0
    9.6279    2.0113    0.0000 H   0  0  0  0  0  0  0  0  0  0  0  0
    9.6227    0.0324    0.0000 H   0  0  0  0  0  0  0  0  0  0  0  0
   10.0715    2.5958    0.0000 H   0  0  0  0  0  0  0  0  0  0  0  0
   11.0490    2.1607    0.0000 H   0  0  0  0  0  0  0  0  0  0  0  0
   11.8026   -0.2035    0.0000 H   0  0  0  0  0  0  0  0  0  0  0  0
   12.5565    1.4895    0.0000 H   0  0  0  0  0  0  0  0  0  0  0  0
   12.6683    0.4254    0.0000 H   0  0  0  0  0  0  0  0  0  0  0  0
   12.3368    2.0616    0.0000 H   0  0  0  0  0  0  0  0  0  0  0  0
   10.6438    2.8155    0.0000 H   0  0  0  0  0  0  0  0  0  0  0  0
   11.7080    2.9273    0.0000 H   0  0  0  0  0  0  0  0  0  0  0  0
    9.5374    0.3307    0.0000 H   0  0  0  0  0  0  0  0  0  0  0  0
   11.2304   -0.4232    0.0000 H   0  0  0  0  0  0  0  0  0  0  0  0
   10.1663   -0.5350    0.0000 H   0  0  0  0  0  0  0  0  0  0  0  0
    4.1929   -2.3123    0.0000 H   0  0  0  0  0  0  0  0  0  0  0  0
    3.3929   -2.3555    0.0000 H   0  0  0  0  0  0  0  0  0  0  0  0
    2.9804   -3.0700    0.0000 H   0  0  0  0  0  0  0  0  0  0  0  0
    1.9104   -3.0700    0.0000 H   0  0  0  0  0  0  0  0  0  0  0  0
    1.0854   -3.0700    0.0000 H   0  0  0  0  0  0  0  0  0  0  0  0
    0.5504   -2.1434    0.0000 H   0  0  0  0  0  0  0  0  0  0  0  0
   -0.1331   -2.3226    0.0000 H   0  0  0  0  0  0  0  0  0  0  0  0
   -0.1331    0.8937    0.0000 H   0  0  0  0  0  0  0  0  0  0  0  0
    2.9804    0.2122    0.0000 H   0  0  0  0  0  0  0  0  0  0  0  0
    3.5154   -0.7145    0.0000 H   0  0  0  0  0  0  0  0  0  0  0  0
  1  2  1  0  0  0  0
  1 36  1  0  0  0  0
  1 37  1  0  0  0  0
  1 38  1  0  0  0  0
  2  3  1  0  0  0  0
  2 39  1  0  0  0  0
  2 40  1  0  0  0  0
  3  4  1  0  0  0  0
  3 41  1  0  0  0  0
  3 42  1  0  0  0  0
  4  5  1  0  0  0  0
  4 23  1  0  0  0  0
  4 43  1  6  0  0  0
  5  6  2  0  0  0  0
  5  7  1  0  0  0  0
  7  8  1  0  0  0  0
  7 44  1  0  0  0  0
  8  9  2  0  0  0  0
  8 12  1  0  0  0  0
  9 10  1  0  0  0  0
  9 45  1  0  0  0  0
 10 11  1  0  0  0  0
 10 13  1  0  0  0  0
 11 12  2  0  0  0  0
 11 46  1  0  0  0  0
 13 14  1  0  0  0  0
 13 15  1  0  0  0  0
 13 16  1  0  0  0  0
 14 47  1  0  0  0  0
 14 48  1  0  0  0  0
 14 49  1  0  0  0  0
 15 50  1  0  0  0  0
 15 51  1  0  0  0  0
 15 52  1  0  0  0  0
 16 17  1  0  0  0  0
 16 53  1  0  0  0  0
 16 54  1  0  0  0  0
 17 18  1  0  0  0  0
 17 55  1  0  0  0  0
 18 19  1  0  0  0  0
 18 56  1  0  0  0  0
 18 57  1  0  0  0  0
 19 20  1  0  0  0  0
 19 21  1  0  0  0  0
 19 22  1  0  0  0  0
 20 58  1  0  0  0  0
 20 59  1  0  0  0  0
 20 60  1  0  0  0  0
 21 61  1  0  0  0  0
 21 62  1  0  0  0  0
 21 63  1  0  0  0  0
 22 64  1  0  0  0  0
 22 65  1  0  0  0  0
 22 66  1  0  0  0  0
 23 67  1  0  0  0  0
 24 23  1  0  0  0  0
 24 25  1  0  0  0  0
 24 33  1  0  0  0  0
 24 68  1  6  0  0  0
 25 26  1  0  0  0  0
 25 69  1  0  0  0  0
 25 70  1  0  0  0  0
 26 27  1  0  0  0  0
 26 71  1  0  0  0  0
 26 72  1  0  0  0  0
 27 28  2  0  0  0  0
 27 32  1  0  0  0  0
 28 29  1  0  0  0  0
 28 73  1  0  0  0  0
 29 30  2  0  0  0  0
 29 35  1  0  0  0  0
 30 31  1  0  0  0  0
 30 74  1  0  0  0  0
 31 32  2  0  0  0  0
 31 34  1  0  0  0  0
 32 33  1  0  0  0  0
 33 75  1  0  0  0  0
 33 76  1  0  0  0  0
M  END
>  <DRUGBANK_ID>
DB12005

>  <COMMON_NAME>
Nirogacestat

>  <CAS_NUMBER>
1290543-63-3

>  <UNII>
QZ62892OFJ

>  <SYNONYMS>
Nirogacestat

$$$$
