
 OpenBabel10282417072D

 59 61  0  0  1  0  0  0  0  0999 V2000
    4.5079    0.3630    0.0000 O   0  0  0  0  0  0  0  0  0  0  0  0
    5.2223    1.6005    0.0000 O   0  0  0  0  0  0  0  0  0  0  0  0
    1.6500    0.3630    0.0000 O   0  0  0  0  0  0  0  0  0  0  0  0
    2.3645   -5.8245    0.0000 O   0  5  0  0  0  0  0  0  0  0  0  0
    3.0790    0.3630    0.0000 N   0  0  0  0  0  0  0  0  0  0  0  0
    5.9369    5.3130    0.0000 N   0  0  0  0  0  0  0  0  0  0  0  0
    4.5079    5.3130    0.0000 N   0  0  0  0  0  0  0  0  0  0  0  0
    2.3645   -4.9995    0.0000 N   0  3  0  0  0  0  0  0  0  0  0  0
    3.7934    1.6005    0.0000 C   0  0  1  0  0  0  0  0  0  0  0  0
    3.0790    1.1880    0.0000 C   0  0  1  0  0  0  0  0  0  0  0  0
    3.7934    2.4255    0.0000 C   0  0  0  0  0  0  0  0  0  0  0  0
    2.3645    1.6005    0.0000 C   0  0  0  0  0  0  0  0  0  0  0  0
    4.5079    2.8380    0.0000 C   0  0  0  0  0  0  0  0  0  0  0  0
    4.5079    1.1880    0.0000 C   0  0  0  0  0  0  0  0  0  0  0  0
    4.5079    3.6630    0.0000 C   0  0  0  0  0  0  0  0  0  0  0  0
    2.3645   -0.0495    0.0000 C   0  0  0  0  0  0  0  0  0  0  0  0
    5.2223    2.4255    0.0000 C   0  0  0  0  0  0  0  0  0  0  0  0
    5.2223    4.0755    0.0000 C   0  0  0  0  0  0  0  0  0  0  0  0
    2.3645   -0.8745    0.0000 C   0  0  0  0  0  0  0  0  0  0  0  0
    5.9369    2.8380    0.0000 C   0  0  0  0  0  0  0  0  0  0  0  0
    5.9369    3.6630    0.0000 C   0  0  0  0  0  0  0  0  0  0  0  0
    1.6500   -1.2870    0.0000 C   0  0  0  0  0  0  0  0  0  0  0  0
    3.0790   -1.2870    0.0000 C   0  0  0  0  0  0  0  0  0  0  0  0
    2.3645   -2.5245    0.0000 C   0  0  0  0  0  0  0  0  0  0  0  0
    5.2223    4.9005    0.0000 C   0  0  0  0  0  0  0  0  0  0  0  0
    5.2223   -0.0495    0.0000 C   0  0  0  0  0  0  0  0  0  0  0  0
    1.6500   -2.1120    0.0000 C   0  0  0  0  0  0  0  0  0  0  0  0
    3.0790   -2.1120    0.0000 C   0  0  0  0  0  0  0  0  0  0  0  0
    2.3645   -3.3495    0.0000 C   0  0  0  0  0  0  0  0  0  0  0  0
    3.0790   -3.7620    0.0000 C   0  0  0  0  0  0  0  0  0  0  0  0
    1.6500   -3.7620    0.0000 C   0  0  0  0  0  0  0  0  0  0  0  0
    3.0790   -4.5870    0.0000 C   0  0  0  0  0  0  0  0  0  0  0  0
    1.6500   -4.5870    0.0000 C   0  0  0  0  0  0  0  0  0  0  0  0
    3.9316   -0.1293    0.0000 H   0  0  0  0  0  0  0  0  0  0  0  0
    6.7895    4.8207    0.0000 H   0  0  0  0  0  0  0  0  0  0  0  0
    5.9370    6.2975    0.0000 H   0  0  0  0  0  0  0  0  0  0  0  0
    4.5079    6.2975    0.0000 H   0  0  0  0  0  0  0  0  0  0  0  0
    2.8667    2.1355    0.0000 H   0  0  0  0  0  0  0  0  0  0  0  0
    4.0057    0.6530    0.0000 H   0  0  0  0  0  0  0  0  0  0  0  0
    2.8668    2.9605    0.0000 H   0  0  0  0  0  0  0  0  0  0  0  0
    3.7934    3.4955    0.0000 H   0  0  0  0  0  0  0  0  0  0  0  0
    2.3645    2.6705    0.0000 H   0  0  0  0  0  0  0  0  0  0  0  0
    1.4379    1.0655    0.0000 H   0  0  0  0  0  0  0  0  0  0  0  0
    1.4378    2.1355    0.0000 H   0  0  0  0  0  0  0  0  0  0  0  0
    3.6142    4.1790    0.0000 H   0  0  0  0  0  0  0  0  0  0  0  0
    5.2222    1.3935    0.0000 H   0  0  0  0  0  0  0  0  0  0  0  0
    6.8306    2.3220    0.0000 H   0  0  0  0  0  0  0  0  0  0  0  0
    6.8306    4.1790    0.0000 H   0  0  0  0  0  0  0  0  0  0  0  0
    0.7563   -0.7710    0.0000 H   0  0  0  0  0  0  0  0  0  0  0  0
    3.9727   -0.7710    0.0000 H   0  0  0  0  0  0  0  0  0  0  0  0
    5.2223   -1.1195    0.0000 H   0  0  0  0  0  0  0  0  0  0  0  0
    6.1490    0.4855    0.0000 H   0  0  0  0  0  0  0  0  0  0  0  0
    6.1489   -0.5845    0.0000 H   0  0  0  0  0  0  0  0  0  0  0  0
    0.7563   -2.6280    0.0000 H   0  0  0  0  0  0  0  0  0  0  0  0
    3.9727   -2.6280    0.0000 H   0  0  0  0  0  0  0  0  0  0  0  0
    3.9727   -3.2460    0.0000 H   0  0  0  0  0  0  0  0  0  0  0  0
    0.7563   -3.2460    0.0000 H   0  0  0  0  0  0  0  0  0  0  0  0
    3.9727   -5.1030    0.0000 H   0  0  0  0  0  0  0  0  0  0  0  0
    0.7563   -5.1030    0.0000 H   0  0  0  0  0  0  0  0  0  0  0  0
  1 14  1  0  0  0  0
  1 26  1  0  0  0  0
  2 14  2  0  0  0  0
  3 16  2  0  0  0  0
  4  8  1  0  0  0  0
  5 16  1  0  0  0  0
  5 34  1  0  0  0  0
  6 25  1  0  0  0  0
  6 35  1  0  0  0  0
  6 36  1  0  0  0  0
  7 25  2  0  0  0  0
  7 37  1  0  0  0  0
  8 32  2  0  0  0  0
  8 33  1  0  0  0  0
  9 10  1  0  0  0  0
  9 11  1  0  0  0  0
  9 14  1  0  0  0  0
  9 38  1  6  0  0  0
 10  5  1  0  0  0  0
 10 12  1  0  0  0  0
 10 39  1  1  0  0  0
 11 13  1  0  0  0  0
 11 40  1  0  0  0  0
 11 41  1  0  0  0  0
 12 42  1  0  0  0  0
 12 43  1  0  0  0  0
 12 44  1  0  0  0  0
 13 15  2  0  0  0  0
 13 17  1  0  0  0  0
 15 18  1  0  0  0  0
 15 45  1  0  0  0  0
 16 19  1  0  0  0  0
 17 20  2  0  0  0  0
 17 46  1  0  0  0  0
 18 21  2  0  0  0  0
 18 25  1  0  0  0  0
 19 22  2  0  0  0  0
 19 23  1  0  0  0  0
 20 21  1  0  0  0  0
 20 47  1  0  0  0  0
 21 48  1  0  0  0  0
 22 27  1  0  0  0  0
 22 49  1  0  0  0  0
 23 28  2  0  0  0  0
 23 50  1  0  0  0  0
 24 27  2  0  0  0  0
 24 28  1  0  0  0  0
 24 29  1  0  0  0  0
 26 51  1  0  0  0  0
 26 52  1  0  0  0  0
 26 53  1  0  0  0  0
 27 54  1  0  0  0  0
 28 55  1  0  0  0  0
 29 30  2  0  0  0  0
 29 31  1  0  0  0  0
 30 32  1  0  0  0  0
 30 56  1  0  0  0  0
 31 33  2  0  0  0  0
 31 57  1  0  0  0  0
 32 58  1  0  0  0  0
 33 59  1  0  0  0  0
M  CHG  2   4  -1   8   1
M  END
>  <DRUGBANK_ID>
DB06635

>  <COMMON_NAME>
Otamixaban

>  <CAS_NUMBER>
193153-04-7

>  <UNII>
S173RED00L

>  <SYNONYMS>
Otamixaban

$$$$
