
 OpenBabel10282417072D

 64 68  0  0  0  0  0  0  0  0999 V2000
   -0.7145    0.4125    0.0000 C   0  0  0  0  0  0  0  0  0  0  0  0
    0.0000    0.8250    0.0000 C   0  0  0  0  0  0  0  0  0  0  0  0
    0.7145   -0.4125    0.0000 C   0  0  0  0  0  0  0  0  0  0  0  0
    0.0000   -0.8250    0.0000 C   0  0  0  0  0  0  0  0  0  0  0  0
   -0.7145   -0.4125    0.0000 C   0  0  0  0  0  0  0  0  0  0  0  0
    0.7145    0.4125    0.0000 C   0  0  0  0  0  0  0  0  0  0  0  0
    4.8339    0.1494    0.0000 C   0  0  0  0  0  0  0  0  0  0  0  0
    5.5484   -0.2631    0.0000 C   0  0  0  0  0  0  0  0  0  0  0  0
    4.8339    0.9744    0.0000 C   0  0  0  0  0  0  0  0  0  0  0  0
    5.5483    1.3869    0.0000 C   0  0  0  0  0  0  0  0  0  0  0  0
    6.2628    0.1494    0.0000 C   0  0  0  0  0  0  0  0  0  0  0  0
    6.2628    0.9744    0.0000 C   0  0  0  0  0  0  0  0  0  0  0  0
    7.6917    0.9744    0.0000 C   0  0  0  0  0  0  0  0  0  0  0  0
    6.9772    2.2119    0.0000 C   0  0  0  0  0  0  0  0  0  0  0  0
    7.6916    2.6244    0.0000 C   0  0  0  0  0  0  0  0  0  0  0  0
    8.4061    1.3869    0.0000 C   0  0  0  0  0  0  0  0  0  0  0  0
    6.9772    1.3869    0.0000 N   0  0  0  0  0  0  0  0  0  0  0  0
    8.4061    2.2119    0.0000 N   0  0  0  0  0  0  0  0  0  0  0  0
    9.8350    2.2119    0.0000 C   0  0  0  0  0  0  0  0  0  0  0  0
    9.1206    2.6244    0.0000 C   0  0  0  0  0  0  0  0  0  0  0  0
    9.1206    3.4494    0.0000 O   0  0  0  0  0  0  0  0  0  0  0  0
    4.1195   -0.2631    0.0000 O   0  0  0  0  0  0  0  0  0  0  0  0
    2.6984   -1.2375    0.0000 C   0  0  0  0  0  0  0  0  0  0  0  0
    3.3658    0.0725    0.0000 C   0  0  0  0  0  0  0  0  0  0  0  0
    2.6983   -0.4125    0.0000 C   0  0  3  0  0  0  0  0  0  0  0  0
    1.9138   -1.4924    0.0000 O   0  0  0  0  0  0  0  0  0  0  0  0
    1.9138   -0.1575    0.0000 O   0  0  0  0  0  0  0  0  0  0  0  0
    1.4289   -0.8250    0.0000 C   0  0  3  0  0  0  0  0  0  0  0  0
   -1.4290    0.8250    0.0000 Cl  0  0  0  0  0  0  0  0  0  0  0  0
    1.4289    0.8250    0.0000 Cl  0  0  0  0  0  0  0  0  0  0  0  0
    0.7144   -1.2375    0.0000 C   0  0  0  0  0  0  0  0  0  0  0  0
    0.0471   -2.5474    0.0000 C   0  0  0  0  0  0  0  0  0  0  0  0
    0.3020   -3.3320    0.0000 C   0  0  0  0  0  0  0  0  0  0  0  0
    1.3819   -2.5474    0.0000 C   0  0  0  0  0  0  0  0  0  0  0  0
    0.7144   -2.0625    0.0000 N   0  0  0  0  0  0  0  0  0  0  0  0
    1.1269   -3.3320    0.0000 N   0  0  0  0  0  0  0  0  0  0  0  0
    0.0000    1.8570    0.0000 H   0  0  0  0  0  0  0  0  0  0  0  0
    0.0000   -1.8570    0.0000 H   0  0  0  0  0  0  0  0  0  0  0  0
   -1.6082   -0.9285    0.0000 H   0  0  0  0  0  0  0  0  0  0  0  0
    5.5484   -1.2951    0.0000 H   0  0  0  0  0  0  0  0  0  0  0  0
    3.9402    1.4904    0.0000 H   0  0  0  0  0  0  0  0  0  0  0  0
    5.5483    2.4189    0.0000 H   0  0  0  0  0  0  0  0  0  0  0  0
    7.1565   -0.3666    0.0000 H   0  0  0  0  0  0  0  0  0  0  0  0
    7.6917   -0.0956    0.0000 H   0  0  0  0  0  0  0  0  0  0  0  0
    8.6184    0.4394    0.0000 H   0  0  0  0  0  0  0  0  0  0  0  0
    6.0505    2.7469    0.0000 H   0  0  0  0  0  0  0  0  0  0  0  0
    6.9772    3.2819    0.0000 H   0  0  0  0  0  0  0  0  0  0  0  0
    7.6916    3.6944    0.0000 H   0  0  0  0  0  0  0  0  0  0  0  0
    8.6182    3.1594    0.0000 H   0  0  0  0  0  0  0  0  0  0  0  0
    9.3328    0.8519    0.0000 H   0  0  0  0  0  0  0  0  0  0  0  0
    9.3327    1.9219    0.0000 H   0  0  0  0  0  0  0  0  0  0  0  0
    9.8350    1.1419    0.0000 H   0  0  0  0  0  0  0  0  0  0  0  0
   10.7617    2.7469    0.0000 H   0  0  0  0  0  0  0  0  0  0  0  0
   10.7616    1.6769    0.0000 H   0  0  0  0  0  0  0  0  0  0  0  0
    3.5641   -1.8664    0.0000 H   0  0  0  0  0  0  0  0  0  0  0  0
    3.6517   -0.7517    0.0000 H   0  0  0  0  0  0  0  0  0  0  0  0
    3.2540    1.1366    0.0000 H   0  0  0  0  0  0  0  0  0  0  0  0
    2.3883    0.5077    0.0000 H   0  0  0  0  0  0  0  0  0  0  0  0
    3.6517   -0.8982    0.0000 H   0  0  0  0  0  0  0  0  0  0  0  0
   -0.2122   -0.7025    0.0000 H   0  0  0  0  0  0  0  0  0  0  0  0
   -0.2122   -1.7725    0.0000 H   0  0  0  0  0  0  0  0  0  0  0  0
   -0.9344   -2.2285    0.0000 H   0  0  0  0  0  0  0  0  0  0  0  0
   -0.3046   -4.1669    0.0000 H   0  0  0  0  0  0  0  0  0  0  0  0
    2.3634   -2.2285    0.0000 H   0  0  0  0  0  0  0  0  0  0  0  0
  1 29  1  0  0  0  0
  2  1  1  0  0  0  0
  2  6  2  0  0  0  0
  2 37  1  0  0  0  0
  3  4  2  0  0  0  0
  4  5  1  0  0  0  0
  4 38  1  0  0  0  0
  5  1  2  0  0  0  0
  5 39  1  0  0  0  0
  6  3  1  0  0  0  0
  6 30  1  0  0  0  0
  7 22  1  0  0  0  0
  7  9  2  0  0  0  0
  8  7  1  0  0  0  0
  8 11  2  0  0  0  0
  8 40  1  0  0  0  0
  9 10  1  0  0  0  0
  9 41  1  0  0  0  0
 10 12  2  0  0  0  0
 10 42  1  0  0  0  0
 11 43  1  0  0  0  0
 12 11  1  0  0  0  0
 12 17  1  0  0  0  0
 13 17  1  0  0  0  0
 13 16  1  0  0  0  0
 13 44  1  0  0  0  0
 13 45  1  0  0  0  0
 14 15  1  0  0  0  0
 14 46  1  0  0  0  0
 14 47  1  0  0  0  0
 15 18  1  0  0  0  0
 15 48  1  0  0  0  0
 15 49  1  0  0  0  0
 16 50  1  0  0  0  0
 16 51  1  0  0  0  0
 17 14  1  0  0  0  0
 18 16  1  0  0  0  0
 18 20  1  0  0  0  0
 19 52  1  0  0  0  0
 19 53  1  0  0  0  0
 19 54  1  0  0  0  0
 20 19  1  0  0  0  0
 20 21  2  0  0  0  0
 22 24  1  0  0  0  0
 23 55  1  0  0  0  0
 23 56  1  0  0  0  0
 24 57  1  0  0  0  0
 24 58  1  0  0  0  0
 25 23  1  0  0  0  0
 25 24  1  0  0  0  0
 25 59  1  0  0  0  0
 26 23  1  0  0  0  0
 26 28  1  0  0  0  0
 27 25  1  0  0  0  0
 28  3  1  0  0  0  0
 28 27  1  0  0  0  0
 28 31  1  0  0  0  0
 31 35  1  0  0  0  0
 31 60  1  0  0  0  0
 31 61  1  0  0  0  0
 32 35  1  0  0  0  0
 32 33  2  0  0  0  0
 32 62  1  0  0  0  0
 33 36  1  0  0  0  0
 33 63  1  0  0  0  0
 34 35  1  0  0  0  0
 34 64  1  0  0  0  0
 36 34  2  0  0  0  0
M  END
>  <DRUGBANK_ID>
DB01026

>  <SECONDARY_ACCESSION_NUMBERS>
APRD00401

>  <COMMON_NAME>
Ketoconazole

>  <CAS_NUMBER>
65277-42-1

>  <UNII>
R9400W927I

>  <SYNONYMS>
Ketoconazol; Ketoconazole; Ketoconazolum; Ketozole

$$$$
