
 OpenBabel10282417072D

 93 98  0  0  1  0  0  0  0  0999 V2000
    3.0096   -0.8121    0.0000 C   0  0  0  0  0  0  0  0  0  0  0  0
    3.0096   -1.6371    0.0000 O   0  0  0  0  0  0  0  0  0  0  0  0
    2.2952   -2.0496    0.0000 C   0  0  0  0  0  0  0  0  0  0  0  0
    2.2952   -2.8746    0.0000 C   0  0  1  0  0  0  0  0  0  0  0  0
    2.9626   -3.3595    0.0000 C   0  0  0  0  0  0  0  0  0  0  0  0
    2.7077   -4.1442    0.0000 N   0  0  0  0  0  0  0  0  0  0  0  0
    1.8827   -4.1442    0.0000 C   0  0  0  0  0  0  0  0  0  0  0  0
    1.6277   -3.3595    0.0000 C   0  0  2  0  0  0  0  0  0  0  0  0
    0.8431   -3.1046    0.0000 C   0  0  0  0  0  0  0  0  0  0  0  0
    0.6716   -2.2976    0.0000 C   0  0  0  0  0  0  0  0  0  0  0  0
   -0.1130   -2.0427    0.0000 C   0  0  0  0  0  0  0  0  0  0  0  0
   -0.7261   -2.5947    0.0000 C   0  0  0  0  0  0  0  0  0  0  0  0
   -0.5546   -3.4017    0.0000 C   0  0  0  0  0  0  0  0  0  0  0  0
    0.2300   -3.6566    0.0000 C   0  0  0  0  0  0  0  0  0  0  0  0
    0.4015   -4.4636    0.0000 N   0  0  0  0  0  0  0  0  0  0  0  0
    1.1862   -4.7185    0.0000 C   0  0  0  0  0  0  0  0  0  0  0  0
    1.3577   -5.5255    0.0000 C   0  0  0  0  0  0  0  0  0  0  0  0
    0.7446   -6.0775    0.0000 C   0  0  3  0  0  0  0  0  0  0  0  0
   -0.0400   -5.8226    0.0000 C   0  0  0  0  0  0  0  0  0  0  0  0
   -0.2115   -5.0156    0.0000 C   0  0  0  0  0  0  0  0  0  0  0  0
    0.9161   -6.8845    0.0000 C   0  0  0  0  0  0  0  0  0  0  0  0
    0.3030   -7.4366    0.0000 O   0  0  0  0  0  0  0  0  0  0  0  0
    1.7008   -7.1395    0.0000 O   0  0  0  0  0  0  0  0  0  0  0  0
   -1.5107   -2.3398    0.0000 C   0  0  0  0  0  0  0  0  0  0  0  0
   -2.2954   -2.0848    0.0000 F   0  0  0  0  0  0  0  0  0  0  0  0
   -1.2558   -1.5552    0.0000 F   0  0  0  0  0  0  0  0  0  0  0  0
   -1.7657   -3.1244    0.0000 F   0  0  0  0  0  0  0  0  0  0  0  0
    3.1926   -4.8116    0.0000 C   0  0  0  0  0  0  0  0  0  0  0  0
    2.8570   -5.5653    0.0000 O   0  0  0  0  0  0  0  0  0  0  0  0
    4.0131   -4.7254    0.0000 C   0  0  2  0  0  0  0  0  0  0  0  0
    4.0131   -5.5504    0.0000 F   0  0  0  0  0  0  0  0  0  0  0  0
    3.8416   -3.9184    0.0000 C   0  0  0  0  0  0  0  0  0  0  0  0
    4.5560   -3.5059    0.0000 N   0  0  3  0  0  0  0  0  0  0  0  0
    5.1691   -4.0579    0.0000 C   0  0  0  0  0  0  0  0  0  0  0  0
    4.8336   -4.8116    0.0000 C   0  0  1  0  0  0  0  0  0  0  0  0
    5.2461   -5.5261    0.0000 C   0  0  0  0  0  0  0  0  0  0  0  0
    6.0711   -5.5261    0.0000 C   0  0  0  0  0  0  0  0  0  0  0  0
    6.4836   -6.2405    0.0000 C   0  0  0  0  0  0  0  0  0  0  0  0
    6.0711   -6.9550    0.0000 C   0  0  0  0  0  0  0  0  0  0  0  0
    6.4836   -7.6695    0.0000 O   0  0  0  0  0  0  0  0  0  0  0  0
    7.3086   -7.6695    0.0000 C   0  0  0  0  0  0  0  0  0  0  0  0
    5.2461   -6.9550    0.0000 C   0  0  0  0  0  0  0  0  0  0  0  0
    4.8336   -6.2405    0.0000 C   0  0  0  0  0  0  0  0  0  0  0  0
    4.6423   -2.6854    0.0000 C   0  0  0  0  0  0  0  0  0  0  0  0
    4.0292   -2.1334    0.0000 C   0  0  0  0  0  0  0  0  0  0  0  0
    4.3647   -1.3797    0.0000 C   0  0  0  0  0  0  0  0  0  0  0  0
    5.1852   -1.4659    0.0000 C   0  0  0  0  0  0  0  0  0  0  0  0
    5.3567   -2.2729    0.0000 C   0  0  0  0  0  0  0  0  0  0  0  0
    3.9362   -0.2771    0.0000 H   0  0  0  0  0  0  0  0  0  0  0  0
    2.0830   -0.2771    0.0000 H   0  0  0  0  0  0  0  0  0  0  0  0
    3.0096    0.2579    0.0000 H   0  0  0  0  0  0  0  0  0  0  0  0
    1.3685   -1.5146    0.0000 H   0  0  0  0  0  0  0  0  0  0  0  0
    1.3686   -2.5846    0.0000 H   0  0  0  0  0  0  0  0  0  0  0  0
    3.2486   -2.3888    0.0000 H   0  0  0  0  0  0  0  0  0  0  0  0
    3.9802   -3.0288    0.0000 H   0  0  0  0  0  0  0  0  0  0  0  0
    3.7192   -4.1161    0.0000 H   0  0  0  0  0  0  0  0  0  0  0  0
    1.2538   -5.0099    0.0000 H   0  0  0  0  0  0  0  0  0  0  0  0
    0.8259   -3.9768    0.0000 H   0  0  0  0  0  0  0  0  0  0  0  0
    0.8711   -4.1161    0.0000 H   0  0  0  0  0  0  0  0  0  0  0  0
    1.4385   -1.6071    0.0000 H   0  0  0  0  0  0  0  0  0  0  0  0
   -0.3276   -1.0333    0.0000 H   0  0  0  0  0  0  0  0  0  0  0  0
   -1.3215   -4.0922    0.0000 H   0  0  0  0  0  0  0  0  0  0  0  0
    1.9814   -4.0025    0.0000 H   0  0  0  0  0  0  0  0  0  0  0  0
    2.2038   -5.0492    0.0000 H   0  0  0  0  0  0  0  0  0  0  0  0
    2.3753   -5.8562    0.0000 H   0  0  0  0  0  0  0  0  0  0  0  0
    1.5801   -6.5721    0.0000 H   0  0  0  0  0  0  0  0  0  0  0  0
    0.5221   -5.0309    0.0000 H   0  0  0  0  0  0  0  0  0  0  0  0
   -0.8352   -6.5386    0.0000 H   0  0  0  0  0  0  0  0  0  0  0  0
   -1.0576   -5.4919    0.0000 H   0  0  0  0  0  0  0  0  0  0  0  0
   -1.2291   -4.6850    0.0000 H   0  0  0  0  0  0  0  0  0  0  0  0
   -0.4340   -3.9690    0.0000 H   0  0  0  0  0  0  0  0  0  0  0  0
   -0.5882   -7.1471    0.0000 H   0  0  0  0  0  0  0  0  0  0  0  0
    2.8641   -3.4832    0.0000 H   0  0  0  0  0  0  0  0  0  0  0  0
    3.7856   -2.8499    0.0000 H   0  0  0  0  0  0  0  0  0  0  0  0
    6.2157   -3.8354    0.0000 H   0  0  0  0  0  0  0  0  0  0  0  0
    5.8425   -4.8894    0.0000 H   0  0  0  0  0  0  0  0  0  0  0  0
    5.9021   -4.7556    0.0000 H   0  0  0  0  0  0  0  0  0  0  0  0
    6.5871   -4.6324    0.0000 H   0  0  0  0  0  0  0  0  0  0  0  0
    7.5156   -6.2405    0.0000 H   0  0  0  0  0  0  0  0  0  0  0  0
    7.8436   -8.5961    0.0000 H   0  0  0  0  0  0  0  0  0  0  0  0
    7.8436   -6.7429    0.0000 H   0  0  0  0  0  0  0  0  0  0  0  0
    8.3786   -7.6695    0.0000 H   0  0  0  0  0  0  0  0  0  0  0  0
    4.7301   -7.8487    0.0000 H   0  0  0  0  0  0  0  0  0  0  0  0
    3.8016   -6.2405    0.0000 H   0  0  0  0  0  0  0  0  0  0  0  0
    4.7541   -1.6213    0.0000 H   0  0  0  0  0  0  0  0  0  0  0  0
    2.9826   -2.3559    0.0000 H   0  0  0  0  0  0  0  0  0  0  0  0
    3.3558   -1.3019    0.0000 H   0  0  0  0  0  0  0  0  0  0  0  0
    3.8296   -0.4531    0.0000 H   0  0  0  0  0  0  0  0  0  0  0  0
    4.9474   -0.4823    0.0000 H   0  0  0  0  0  0  0  0  0  0  0  0
    5.9012   -0.6707    0.0000 H   0  0  0  0  0  0  0  0  0  0  0  0
    6.2187   -1.7429    0.0000 H   0  0  0  0  0  0  0  0  0  0  0  0
    6.3342   -2.7081    0.0000 H   0  0  0  0  0  0  0  0  0  0  0  0
    5.4127   -3.3414    0.0000 H   0  0  0  0  0  0  0  0  0  0  0  0
  1  2  1  0  0  0  0
  1 49  1  0  0  0  0
  1 50  1  0  0  0  0
  1 51  1  0  0  0  0
  2  3  1  0  0  0  0
  3 52  1  0  0  0  0
  3 53  1  0  0  0  0
  4  3  1  0  0  0  0
  4  5  1  0  0  0  0
  4  8  1  0  0  0  0
  4 54  1  6  0  0  0
  5  6  1  0  0  0  0
  5 55  1  0  0  0  0
  5 56  1  0  0  0  0
  6  7  1  0  0  0  0
  6 28  1  0  0  0  0
  7 57  1  0  0  0  0
  7 58  1  0  0  0  0
  8  7  1  0  0  0  0
  8  9  1  0  0  0  0
  8 59  1  1  0  0  0
  9 10  2  0  0  0  0
  9 14  1  0  0  0  0
 10 11  1  0  0  0  0
 10 60  1  0  0  0  0
 11 12  2  0  0  0  0
 11 61  1  0  0  0  0
 12 13  1  0  0  0  0
 12 24  1  0  0  0  0
 13 14  2  0  0  0  0
 13 62  1  0  0  0  0
 14 15  1  0  0  0  0
 15 16  1  0  0  0  0
 15 20  1  0  0  0  0
 16 17  1  0  0  0  0
 16 63  1  0  0  0  0
 16 64  1  0  0  0  0
 17 18  1  0  0  0  0
 17 65  1  0  0  0  0
 17 66  1  0  0  0  0
 18 19  1  0  0  0  0
 18 21  1  0  0  0  0
 18 67  1  0  0  0  0
 19 20  1  0  0  0  0
 19 68  1  0  0  0  0
 19 69  1  0  0  0  0
 20 70  1  0  0  0  0
 20 71  1  0  0  0  0
 21 22  1  0  0  0  0
 21 23  2  0  0  0  0
 22 72  1  0  0  0  0
 24 25  1  0  0  0  0
 24 26  1  0  0  0  0
 24 27  1  0  0  0  0
 28 29  2  0  0  0  0
 30 28  1  0  0  0  0
 30 31  1  1  0  0  0
 30 32  1  0  0  0  0
 30 35  1  0  0  0  0
 32 33  1  0  0  0  0
 32 73  1  0  0  0  0
 32 74  1  0  0  0  0
 33 34  1  0  0  0  0
 33 44  1  0  0  0  0
 34 75  1  0  0  0  0
 34 76  1  0  0  0  0
 35 34  1  0  0  0  0
 35 36  1  0  0  0  0
 35 77  1  6  0  0  0
 36 37  2  0  0  0  0
 36 43  1  0  0  0  0
 37 38  1  0  0  0  0
 37 78  1  0  0  0  0
 38 39  2  0  0  0  0
 38 79  1  0  0  0  0
 39 40  1  0  0  0  0
 39 42  1  0  0  0  0
 40 41  1  0  0  0  0
 41 80  1  0  0  0  0
 41 81  1  0  0  0  0
 41 82  1  0  0  0  0
 42 43  2  0  0  0  0
 42 83  1  0  0  0  0
 43 84  1  0  0  0  0
 44 45  1  0  0  0  0
 44 48  1  0  0  0  0
 44 85  1  0  0  0  0
 45 46  1  0  0  0  0
 45 86  1  0  0  0  0
 45 87  1  0  0  0  0
 46 47  1  0  0  0  0
 46 88  1  0  0  0  0
 46 89  1  0  0  0  0
 47 48  1  0  0  0  0
 47 90  1  0  0  0  0
 47 91  1  0  0  0  0
 48 92  1  0  0  0  0
 48 93  1  0  0  0  0
M  END
>  <DRUGBANK_ID>
DB18007

>  <COMMON_NAME>
Dersimelagon

>  <CAS_NUMBER>
1835256-48-8

>  <UNII>
1CWH5SV4G2

>  <SYNONYMS>
1-(2-((3s,4r)-1-((3r,4r)-1-cyclopentyl-3-fluoro-4-(4-methoxyphenyl)pyrrolidine-3-carbonyl)-4-(methoxymethyl)pyrrolidin-3-yl)-5-(trifluoromethyl)phenyl)piperidine-4-carboxylic acid; 4-piperidinecarboxylic acid, 1-(2-((3s,4r)-1-(((3r,4r)-1-cyclopentyl-3-fluoro-4-(4-methoxyphenyl)-3-pyrrolidinyl)carbonyl)-4-(methoxymethyl)-3-pyrrolidinyl)-5- (trifluoromethyl)phenyl)-

$$$$
