NC4
 OpenBabel10282417072D

 36 36  0  0  0  0  0  0  0  0999 V2000
   -1.7601   -0.0925    0.0000 C   0  0  0  0  0  0  0  0  0  0  0  0
   -1.0457   -0.5050    0.0000 N   0  0  0  0  0  0  0  0  0  0  0  0
   -0.3312   -0.0925    0.0000 C   0  0  0  0  0  0  0  0  0  0  0  0
    0.3833   -0.5050    0.0000 N   0  0  0  0  0  0  0  0  0  0  0  0
    1.0977   -0.0925    0.0000 C   0  0  0  0  0  0  0  0  0  0  0  0
    1.8122   -0.5050    0.0000 C   0  0  0  0  0  0  0  0  0  0  0  0
    2.5267   -0.0925    0.0000 C   0  0  0  0  0  0  0  0  0  0  0  0
    3.2412   -0.5050    0.0000 C   0  0  0  0  0  0  0  0  0  0  0  0
    3.9556   -0.0925    0.0000 O   0  0  0  0  0  0  0  0  0  0  0  0
   -0.3312    0.7325    0.0000 O   0  0  0  0  0  0  0  0  0  0  0  0
    3.2412   -1.3300    0.0000 O   0  0  0  0  0  0  0  0  0  0  0  0
   -2.4746   -0.5050    0.0000 C   0  0  0  0  0  0  0  0  0  0  0  0
   -3.1891   -0.0925    0.0000 C   0  0  0  0  0  0  0  0  0  0  0  0
   -3.1891    0.7325    0.0000 C   0  0  0  0  0  0  0  0  0  0  0  0
   -2.4746    1.1450    0.0000 C   0  0  0  0  0  0  0  0  0  0  0  0
   -1.7601    0.7325    0.0000 C   0  0  0  0  0  0  0  0  0  0  0  0
   -2.6867    0.4425    0.0000 H   0  0  0  0  0  0  0  0  0  0  0  0
   -1.0457   -1.4895    0.0000 H   0  0  0  0  0  0  0  0  0  0  0  0
    0.3833   -1.4895    0.0000 H   0  0  0  0  0  0  0  0  0  0  0  0
    1.0977    0.9775    0.0000 H   0  0  0  0  0  0  0  0  0  0  0  0
    2.0243    0.4425    0.0000 H   0  0  0  0  0  0  0  0  0  0  0  0
    1.8122   -1.5750    0.0000 H   0  0  0  0  0  0  0  0  0  0  0  0
    2.7388   -1.0400    0.0000 H   0  0  0  0  0  0  0  0  0  0  0  0
    2.5267    0.9775    0.0000 H   0  0  0  0  0  0  0  0  0  0  0  0
    3.4533    0.4425    0.0000 H   0  0  0  0  0  0  0  0  0  0  0  0
    4.7671   -0.5610    0.0000 H   0  0  0  0  0  0  0  0  0  0  0  0
   -2.4746   -1.5750    0.0000 H   0  0  0  0  0  0  0  0  0  0  0  0
   -3.4012   -1.0400    0.0000 H   0  0  0  0  0  0  0  0  0  0  0  0
   -4.1157   -0.6275    0.0000 H   0  0  0  0  0  0  0  0  0  0  0  0
   -4.1157    0.4425    0.0000 H   0  0  0  0  0  0  0  0  0  0  0  0
   -4.1157    1.2675    0.0000 H   0  0  0  0  0  0  0  0  0  0  0  0
   -3.1891    1.8025    0.0000 H   0  0  0  0  0  0  0  0  0  0  0  0
   -2.4746    2.2150    0.0000 H   0  0  0  0  0  0  0  0  0  0  0  0
   -1.5480    1.6800    0.0000 H   0  0  0  0  0  0  0  0  0  0  0  0
   -0.8335    1.2675    0.0000 H   0  0  0  0  0  0  0  0  0  0  0  0
   -1.7601    1.8025    0.0000 H   0  0  0  0  0  0  0  0  0  0  0  0
  1  2  1  0  0  0  0
  1 12  1  0  0  0  0
  1 16  1  0  0  0  0
  1 17  1  0  0  0  0
  2  3  1  0  0  0  0
  2 18  1  0  0  0  0
  3  4  1  0  0  0  0
  3 10  2  0  0  0  0
  4  5  1  0  0  0  0
  4 19  1  0  0  0  0
  5  6  1  0  0  0  0
  5 20  1  0  0  0  0
  5 21  1  0  0  0  0
  6  7  1  0  0  0  0
  6 22  1  0  0  0  0
  6 23  1  0  0  0  0
  7  8  1  0  0  0  0
  7 24  1  0  0  0  0
  7 25  1  0  0  0  0
  8  9  1  0  0  0  0
  8 11  2  0  0  0  0
  9 26  1  0  0  0  0
 12 13  1  0  0  0  0
 12 27  1  0  0  0  0
 12 28  1  0  0  0  0
 13 14  1  0  0  0  0
 13 29  1  0  0  0  0
 13 30  1  0  0  0  0
 14 15  1  0  0  0  0
 14 31  1  0  0  0  0
 14 32  1  0  0  0  0
 15 16  1  0  0  0  0
 15 33  1  0  0  0  0
 15 34  1  0  0  0  0
 16 35  1  0  0  0  0
 16 36  1  0  0  0  0
M  END
>  <DRUGBANK_ID>
DB08257

>  <COMMON_NAME>
4-{[(CYCLOHEXYLAMINO)CARBONYL]AMINO}BUTANOIC ACID

>  <UNII>
N2N8NLK6Q8

$$$$
