
 OpenBabel10282417072D

 72 77  0  0  0  0  0  0  0  0999 V2000
   -6.5281   -7.3264    0.0000 C   0  0  0  0  0  0  0  0  0  0  0  0
   -5.9260   -6.7624    0.0000 C   0  0  0  0  0  0  0  0  0  0  0  0
   -5.3620   -7.3645    0.0000 C   0  0  0  0  0  0  0  0  0  0  0  0
   -6.4900   -6.1603    0.0000 C   0  0  0  0  0  0  0  0  0  0  0  0
   -5.3239   -6.1984    0.0000 C   0  0  0  0  0  0  0  0  0  0  0  0
   -5.4263   -5.3797    0.0000 C   0  0  0  0  0  0  0  0  0  0  0  0
   -4.6794   -5.0294    0.0000 C   0  0  0  0  0  0  0  0  0  0  0  0
   -4.1154   -5.6315    0.0000 N   0  0  0  0  0  0  0  0  0  0  0  0
   -4.5137   -6.3539    0.0000 O   0  0  0  0  0  0  0  0  0  0  0  0
   -4.5238   -4.2192    0.0000 N   0  0  0  0  0  0  0  0  0  0  0  0
   -3.7443   -3.9488    0.0000 C   0  0  0  0  0  0  0  0  0  0  0  0
   -3.1205   -4.4887    0.0000 O   0  0  0  0  0  0  0  0  0  0  0  0
   -3.5888   -3.1386    0.0000 N   0  0  0  0  0  0  0  0  0  0  0  0
   -2.8093   -2.8683    0.0000 C   0  0  0  0  0  0  0  0  0  0  0  0
   -2.6537   -2.0581    0.0000 C   0  0  0  0  0  0  0  0  0  0  0  0
   -1.8743   -1.7877    0.0000 C   0  0  0  0  0  0  0  0  0  0  0  0
   -1.2504   -2.3276    0.0000 C   0  0  0  0  0  0  0  0  0  0  0  0
   -1.4060   -3.1378    0.0000 C   0  0  0  0  0  0  0  0  0  0  0  0
   -2.1855   -3.4081    0.0000 C   0  0  0  0  0  0  0  0  0  0  0  0
   -0.4710   -2.0572    0.0000 C   0  0  0  0  0  0  0  0  0  0  0  0
    0.2059   -2.5289    0.0000 C   0  0  0  0  0  0  0  0  0  0  0  0
    0.8636   -2.0309    0.0000 N   0  0  0  0  0  0  0  0  0  0  0  0
    1.6885   -2.0146    0.0000 C   0  0  0  0  0  0  0  0  0  0  0  0
    1.9279   -1.2251    0.0000 C   0  0  0  0  0  0  0  0  0  0  0  0
    2.7313   -1.0377    0.0000 C   0  0  0  0  0  0  0  0  0  0  0  0
    3.2953   -1.6398    0.0000 C   0  0  0  0  0  0  0  0  0  0  0  0
    3.0559   -2.4293    0.0000 C   0  0  0  0  0  0  0  0  0  0  0  0
    2.2525   -2.6167    0.0000 C   0  0  0  0  0  0  0  0  0  0  0  0
    4.0988   -1.4524    0.0000 O   0  0  0  0  0  0  0  0  0  0  0  0
    4.6628   -2.0545    0.0000 C   0  0  0  0  0  0  0  0  0  0  0  0
    5.4662   -1.8671    0.0000 C   0  0  0  0  0  0  0  0  0  0  0  0
    5.7056   -1.0776    0.0000 N   0  0  0  0  0  0  0  0  0  0  0  0
    5.1416   -0.4755    0.0000 C   0  0  0  0  0  0  0  0  0  0  0  0
    5.3811    0.3140    0.0000 C   0  0  0  0  0  0  0  0  0  0  0  0
    6.1845    0.5014    0.0000 O   0  0  0  0  0  0  0  0  0  0  0  0
    6.7485   -0.1007    0.0000 C   0  0  0  0  0  0  0  0  0  0  0  0
    6.5091   -0.8902    0.0000 C   0  0  0  0  0  0  0  0  0  0  0  0
    1.2510   -0.7535    0.0000 S   0  0  0  0  0  0  0  0  0  0  0  0
    0.5933   -1.2515    0.0000 C   0  0  0  0  0  0  0  0  0  0  0  0
   -0.2316   -1.2677    0.0000 N   0  0  0  0  0  0  0  0  0  0  0  0
   -7.5520   -7.0159    0.0000 H   0  0  0  0  0  0  0  0  0  0  0  0
   -6.2851   -8.3684    0.0000 H   0  0  0  0  0  0  0  0  0  0  0  0
   -7.3090   -8.0579    0.0000 H   0  0  0  0  0  0  0  0  0  0  0  0
   -5.6725   -8.3884    0.0000 H   0  0  0  0  0  0  0  0  0  0  0  0
   -4.3200   -7.1215    0.0000 H   0  0  0  0  0  0  0  0  0  0  0  0
   -4.6305   -8.1454    0.0000 H   0  0  0  0  0  0  0  0  0  0  0  0
   -6.1795   -5.1364    0.0000 H   0  0  0  0  0  0  0  0  0  0  0  0
   -7.5320   -6.4033    0.0000 H   0  0  0  0  0  0  0  0  0  0  0  0
   -7.2215   -5.3794    0.0000 H   0  0  0  0  0  0  0  0  0  0  0  0
   -6.3300   -4.8814    0.0000 H   0  0  0  0  0  0  0  0  0  0  0  0
   -5.2683   -3.5750    0.0000 H   0  0  0  0  0  0  0  0  0  0  0  0
   -4.3333   -2.4944    0.0000 H   0  0  0  0  0  0  0  0  0  0  0  0
   -3.4341   -1.3828    0.0000 H   0  0  0  0  0  0  0  0  0  0  0  0
   -1.6797   -0.7742    0.0000 H   0  0  0  0  0  0  0  0  0  0  0  0
   -0.6256   -3.8131    0.0000 H   0  0  0  0  0  0  0  0  0  0  0  0
   -2.3802   -4.4216    0.0000 H   0  0  0  0  0  0  0  0  0  0  0  0
    0.2263   -3.5607    0.0000 H   0  0  0  0  0  0  0  0  0  0  0  0
    3.0308   -0.0501    0.0000 H   0  0  0  0  0  0  0  0  0  0  0  0
    3.7614   -3.1825    0.0000 H   0  0  0  0  0  0  0  0  0  0  0  0
    1.9530   -3.6043    0.0000 H   0  0  0  0  0  0  0  0  0  0  0  0
    4.3523   -3.0784    0.0000 H   0  0  0  0  0  0  0  0  0  0  0  0
    5.3943   -2.8354    0.0000 H   0  0  0  0  0  0  0  0  0  0  0  0
    6.1977   -2.6480    0.0000 H   0  0  0  0  0  0  0  0  0  0  0  0
    6.5082   -1.6240    0.0000 H   0  0  0  0  0  0  0  0  0  0  0  0
    4.0996   -0.7185    0.0000 H   0  0  0  0  0  0  0  0  0  0  0  0
    4.4101    0.3054    0.0000 H   0  0  0  0  0  0  0  0  0  0  0  0
    4.6496    1.0949    0.0000 H   0  0  0  0  0  0  0  0  0  0  0  0
    5.6916    1.3379    0.0000 H   0  0  0  0  0  0  0  0  0  0  0  0
    7.7905    0.1424    0.0000 H   0  0  0  0  0  0  0  0  0  0  0  0
    7.4800   -0.8816    0.0000 H   0  0  0  0  0  0  0  0  0  0  0  0
    7.2406   -1.6711    0.0000 H   0  0  0  0  0  0  0  0  0  0  0  0
    6.1986   -1.9141    0.0000 H   0  0  0  0  0  0  0  0  0  0  0  0
  1  2  1  0  0  0  0
  1 41  1  0  0  0  0
  1 42  1  0  0  0  0
  1 43  1  0  0  0  0
  2  3  1  0  0  0  0
  2  4  1  0  0  0  0
  2  5  1  0  0  0  0
  3 44  1  0  0  0  0
  3 45  1  0  0  0  0
  3 46  1  0  0  0  0
  4 47  1  0  0  0  0
  4 48  1  0  0  0  0
  4 49  1  0  0  0  0
  5  6  2  0  0  0  0
  5  9  1  0  0  0  0
  6  7  1  0  0  0  0
  6 50  1  0  0  0  0
  7  8  2  0  0  0  0
  7 10  1  0  0  0  0
  8  9  1  0  0  0  0
 10 11  1  0  0  0  0
 10 51  1  0  0  0  0
 11 12  2  0  0  0  0
 11 13  1  0  0  0  0
 13 14  1  0  0  0  0
 13 52  1  0  0  0  0
 14 15  2  0  0  0  0
 14 19  1  0  0  0  0
 15 16  1  0  0  0  0
 15 53  1  0  0  0  0
 16 17  2  0  0  0  0
 16 54  1  0  0  0  0
 17 18  1  0  0  0  0
 17 20  1  0  0  0  0
 18 19  2  0  0  0  0
 18 55  1  0  0  0  0
 19 56  1  0  0  0  0
 20 21  2  0  0  0  0
 20 40  1  0  0  0  0
 21 22  1  0  0  0  0
 21 57  1  0  0  0  0
 22 23  1  0  0  0  0
 22 39  1  0  0  0  0
 23 24  2  0  0  0  0
 23 28  1  0  0  0  0
 24 25  1  0  0  0  0
 24 38  1  0  0  0  0
 25 26  2  0  0  0  0
 25 58  1  0  0  0  0
 26 27  1  0  0  0  0
 26 29  1  0  0  0  0
 27 28  2  0  0  0  0
 27 59  1  0  0  0  0
 28 60  1  0  0  0  0
 29 30  1  0  0  0  0
 30 31  1  0  0  0  0
 30 61  1  0  0  0  0
 30 62  1  0  0  0  0
 31 32  1  0  0  0  0
 31 63  1  0  0  0  0
 31 64  1  0  0  0  0
 32 33  1  0  0  0  0
 32 37  1  0  0  0  0
 33 34  1  0  0  0  0
 33 65  1  0  0  0  0
 33 66  1  0  0  0  0
 34 35  1  0  0  0  0
 34 67  1  0  0  0  0
 34 68  1  0  0  0  0
 35 36  1  0  0  0  0
 36 37  1  0  0  0  0
 36 69  1  0  0  0  0
 36 70  1  0  0  0  0
 37 71  1  0  0  0  0
 37 72  1  0  0  0  0
 38 39  1  0  0  0  0
 39 40  2  0  0  0  0
M  END
>  <DRUGBANK_ID>
DB12874

>  <SECONDARY_ACCESSION_NUMBERS>
DB05213

>  <COMMON_NAME>
Quizartinib

>  <CAS_NUMBER>
950769-58-1

>  <UNII>
7LA4O6Q0D3

>  <SYNONYMS>
N-(5-(1,1-Dimethylethyl)isoxazol-3-yl)-N'-(4-(7-(2-(morpholin-4-yl)ethoxy)imidazo(2,1-b)benzothiazol-2-yl)phenyl)urea; Quizartinib; Quizartinibum

$$$$
