
 OpenBabel10282417072D

 63 67  0  0  0  0  0  0  0  0999 V2000
   -4.7456    0.4124    0.0000 C   0  0  0  0  0  0  0  0  0  0  0  0
   -4.7456   -0.4126    0.0000 C   0  0  0  0  0  0  0  0  0  0  0  0
   -4.0438   -0.8253    0.0000 C   0  0  0  0  0  0  0  0  0  0  0  0
   -3.2598   -0.4126    0.0000 C   0  0  0  0  0  0  0  0  0  0  0  0
   -3.2598    0.4124    0.0000 C   0  0  0  0  0  0  0  0  0  0  0  0
   -4.0438    0.8252    0.0000 C   0  0  0  0  0  0  0  0  0  0  0  0
   -2.5584   -0.8253    0.0000 C   0  0  0  0  0  0  0  0  0  0  0  0
   -1.8568   -0.4126    0.0000 N   0  0  0  0  0  0  0  0  0  0  0  0
   -1.8568    0.4124    0.0000 C   0  0  0  0  0  0  0  0  0  0  0  0
   -2.5584    0.8252    0.0000 N   0  0  0  0  0  0  0  0  0  0  0  0
   -2.5584   -1.6506    0.0000 C   0  0  0  0  0  0  0  0  0  0  0  0
   -1.1553    0.8252    0.0000 C   0  0  0  0  0  0  0  0  0  0  0  0
   -0.4538    0.4124    0.0000 N   0  0  0  0  0  0  0  0  0  0  0  0
   -0.4538   -0.4126    0.0000 C   0  0  0  0  0  0  0  0  0  0  0  0
    0.2887   -0.8253    0.0000 N   0  0  0  0  0  0  0  0  0  0  0  0
    0.9902   -0.4126    0.0000 C   0  0  0  0  0  0  0  0  0  0  0  0
    0.9902    0.4124    0.0000 C   0  0  0  0  0  0  0  0  0  0  0  0
    0.2887    0.8252    0.0000 C   0  0  0  0  0  0  0  0  0  0  0  0
    0.2887    1.6506    0.0000 O   0  0  0  0  0  0  0  0  0  0  0  0
   -1.1553   -0.8253    0.0000 O   0  0  0  0  0  0  0  0  0  0  0  0
    0.2887   -1.6506    0.0000 C   0  0  0  0  0  0  0  0  0  0  0  0
    1.7745   -0.6601    0.0000 N   0  0  0  0  0  0  0  0  0  0  0  0
    2.2696    0.0000    0.0000 C   0  0  0  0  0  0  0  0  0  0  0  0
    1.7745    0.6600    0.0000 N   0  0  0  0  0  0  0  0  0  0  0  0
    3.0949    0.0000    0.0000 N   0  0  0  0  0  0  0  0  0  0  0  0
    3.5076   -0.7014    0.0000 C   0  0  0  0  0  0  0  0  0  0  0  0
    4.3329   -0.7014    0.0000 C   0  0  1  0  0  0  0  0  0  0  0  0
    4.7456    0.0000    0.0000 C   0  0  0  0  0  0  0  0  0  0  0  0
    4.3329    0.7013    0.0000 C   0  0  0  0  0  0  0  0  0  0  0  0
    3.5076    0.7013    0.0000 C   0  0  0  0  0  0  0  0  0  0  0  0
    4.7456   -1.4442    0.0000 N   0  0  0  0  0  0  0  0  0  0  0  0
    2.1871    1.3616    0.0000 C   0  0  0  0  0  0  0  0  0  0  0  0
    3.0123    1.3616    0.0000 C   0  0  0  0  0  0  0  0  0  0  0  0
    3.8377    1.3616    0.0000 C   0  0  0  0  0  0  0  0  0  0  0  0
    4.6631    1.3616    0.0000 C   0  0  0  0  0  0  0  0  0  0  0  0
   -5.6414    0.9248    0.0000 H   0  0  0  0  0  0  0  0  0  0  0  0
   -5.6414   -0.9250    0.0000 H   0  0  0  0  0  0  0  0  0  0  0  0
   -4.0681   -1.8570    0.0000 H   0  0  0  0  0  0  0  0  0  0  0  0
   -4.0681    1.8569    0.0000 H   0  0  0  0  0  0  0  0  0  0  0  0
   -3.4850   -2.1856    0.0000 H   0  0  0  0  0  0  0  0  0  0  0  0
   -1.6318   -2.1856    0.0000 H   0  0  0  0  0  0  0  0  0  0  0  0
   -2.5584   -2.7206    0.0000 H   0  0  0  0  0  0  0  0  0  0  0  0
   -1.1553    1.8952    0.0000 H   0  0  0  0  0  0  0  0  0  0  0  0
   -0.2264    1.3564    0.0000 H   0  0  0  0  0  0  0  0  0  0  0  0
   -0.6379   -2.1856    0.0000 H   0  0  0  0  0  0  0  0  0  0  0  0
    1.2153   -2.1856    0.0000 H   0  0  0  0  0  0  0  0  0  0  0  0
    0.2887   -2.7206    0.0000 H   0  0  0  0  0  0  0  0  0  0  0  0
    2.9764   -1.6302    0.0000 H   0  0  0  0  0  0  0  0  0  0  0  0
    4.0445   -1.6269    0.0000 H   0  0  0  0  0  0  0  0  0  0  0  0
    3.7903   -1.6236    0.0000 H   0  0  0  0  0  0  0  0  0  0  0  0
    5.8156    0.0000    0.0000 H   0  0  0  0  0  0  0  0  0  0  0  0
    5.2767    0.9289    0.0000 H   0  0  0  0  0  0  0  0  0  0  0  0
    4.8640    1.6302    0.0000 H   0  0  0  0  0  0  0  0  0  0  0  0
    3.7960    1.6268    0.0000 H   0  0  0  0  0  0  0  0  0  0  0  0
    2.9765    1.6302    0.0000 H   0  0  0  0  0  0  0  0  0  0  0  0
    2.4376    0.7080    0.0000 H   0  0  0  0  0  0  0  0  0  0  0  0
    4.2211   -2.3190    0.0000 H   0  0  0  0  0  0  0  0  0  0  0  0
    5.7655   -1.4610    0.0000 H   0  0  0  0  0  0  0  0  0  0  0  0
    1.6558    2.2904    0.0000 H   0  0  0  0  0  0  0  0  0  0  0  0
    1.1171    1.3680    0.0000 H   0  0  0  0  0  0  0  0  0  0  0  0
    5.1981    0.4350    0.0000 H   0  0  0  0  0  0  0  0  0  0  0  0
    5.1981    2.2882    0.0000 H   0  0  0  0  0  0  0  0  0  0  0  0
    5.7331    1.3616    0.0000 H   0  0  0  0  0  0  0  0  0  0  0  0
  1  2  1  0  0  0  0
  1  6  2  0  0  0  0
  1 36  1  0  0  0  0
  2  3  2  0  0  0  0
  2 37  1  0  0  0  0
  3  4  1  0  0  0  0
  3 38  1  0  0  0  0
  4  5  2  0  0  0  0
  4  7  1  0  0  0  0
  5  6  1  0  0  0  0
  5 10  1  0  0  0  0
  6 39  1  0  0  0  0
  7  8  2  0  0  0  0
  7 11  1  0  0  0  0
  8  9  1  0  0  0  0
  9 10  2  0  0  0  0
  9 12  1  0  0  0  0
 11 40  1  0  0  0  0
 11 41  1  0  0  0  0
 11 42  1  0  0  0  0
 12 13  1  0  0  0  0
 12 43  1  0  0  0  0
 12 44  1  0  0  0  0
 13 14  1  0  0  0  0
 13 18  1  0  0  0  0
 14 15  1  0  0  0  0
 14 20  2  0  0  0  0
 15 16  1  0  0  0  0
 15 21  1  0  0  0  0
 16 17  2  0  0  0  0
 16 22  1  0  0  0  0
 17 18  1  0  0  0  0
 17 24  1  0  0  0  0
 18 19  2  0  0  0  0
 21 45  1  0  0  0  0
 21 46  1  0  0  0  0
 21 47  1  0  0  0  0
 22 23  2  0  0  0  0
 23 24  1  0  0  0  0
 23 25  1  0  0  0  0
 25 26  1  0  0  0  0
 25 30  1  0  0  0  0
 26 27  1  0  0  0  0
 26 48  1  0  0  0  0
 26 49  1  0  0  0  0
 27 28  1  0  0  0  0
 27 31  1  0  0  0  0
 27 50  1  6  0  0  0
 28 29  1  0  0  0  0
 28 51  1  0  0  0  0
 28 52  1  0  0  0  0
 29 30  1  0  0  0  0
 29 53  1  0  0  0  0
 29 54  1  0  0  0  0
 30 55  1  0  0  0  0
 30 56  1  0  0  0  0
 31 57  1  0  0  0  0
 31 58  1  0  0  0  0
 32 33  1  0  0  0  0
 32 24  1  0  0  0  0
 32 59  1  0  0  0  0
 32 60  1  0  0  0  0
 33 34  3  0  0  0  0
 34 35  1  0  0  0  0
 35 61  1  0  0  0  0
 35 62  1  0  0  0  0
 35 63  1  0  0  0  0
M  END
>  <DRUGBANK_ID>
DB08882

>  <COMMON_NAME>
Linagliptin

>  <CAS_NUMBER>
668270-12-0

>  <UNII>
3X29ZEJ4R2

>  <SYNONYMS>
(R)-8-(3-aminopiperidin-1-yl)-7-but-2-ynyl-3-methyl-1-(4-methylquinazolin-2-ylmethyl)-3,7-dihydro-purine-2,6-dione; Linagliptin; Linagliptina

$$$$
