
 OpenBabel10282417072D

 69 74  0  0  0  0  0  0  0  0999 V2000
    0.6702    0.7552    0.0000 C   0  0  1  0  0  0  0  0  0  0  0  0
   -0.1143    0.5002    0.0000 C   0  0  2  0  0  0  0  0  0  0  0  0
    1.1551    0.0877    0.0000 C   0  0  1  0  0  0  0  0  0  0  0  0
    1.1551    1.4226    0.0000 O   0  0  0  0  0  0  0  0  0  0  0  0
    0.4330    1.4748    0.0000 C   0  0  0  0  0  0  0  0  0  0  0  0
   -0.1143   -0.3247    0.0000 C   0  0  1  0  0  0  0  0  0  0  0  0
   -0.8288    0.9127    0.0000 C   0  0  0  0  0  0  0  0  0  0  0  0
   -0.1685    1.3072    0.0000 C   0  0  0  0  0  0  0  0  0  0  0  0
    0.6702   -0.5796    0.0000 C   0  0  0  0  0  0  0  0  0  0  0  0
    1.9397    0.3427    0.0000 O   0  0  0  0  0  0  0  0  0  0  0  0
    1.9397    1.1677    0.0000 C   0  0  1  0  0  0  0  0  0  0  0  0
    0.9557    1.9722    0.0000 C   0  0  0  0  0  0  0  0  0  0  0  0
   -0.1439    1.7722    0.0000 O   0  0  0  0  0  0  0  0  0  0  0  0
   -0.8288   -0.7372    0.0000 C   0  0  1  0  0  0  0  0  0  0  0  0
   -1.5433    0.5002    0.0000 C   0  0  0  0  0  0  0  0  0  0  0  0
    2.7602    1.0814    0.0000 C   0  0  0  0  0  0  0  0  0  0  0  0
    2.1113    1.9747    0.0000 C   0  0  0  0  0  0  0  0  0  0  0  0
   -1.5433   -0.3247    0.0000 C   0  0  2  0  0  0  0  0  0  0  0  0
   -0.8288   -1.5622    0.0000 C   0  0  0  0  0  0  0  0  0  0  0  0
    3.2451    1.7489    0.0000 C   0  0  0  0  0  0  0  0  0  0  0  0
    3.0958    0.3278    0.0000 C   0  0  0  0  0  0  0  0  0  0  0  0
   -2.2577   -0.7372    0.0000 C   0  0  2  0  0  0  0  0  0  0  0  0
   -1.5433   -1.9747    0.0000 C   0  0  0  0  0  0  0  0  0  0  0  0
    4.0656    1.6627    0.0000 C   0  0  0  0  0  0  0  0  0  0  0  0
    3.9163    0.2415    0.0000 C   0  0  0  0  0  0  0  0  0  0  0  0
   -2.2577   -1.5622    0.0000 C   0  0  0  0  0  0  0  0  0  0  0  0
   -2.9722   -0.3247    0.0000 C   0  0  0  0  0  0  0  0  0  0  0  0
   -2.2577    0.0877    0.0000 C   0  0  0  0  0  0  0  0  0  0  0  0
    4.4012    0.9090    0.0000 C   0  0  0  0  0  0  0  0  0  0  0  0
   -2.9722   -1.9747    0.0000 C   0  0  0  0  0  0  0  0  0  0  0  0
   -3.6747   -0.7319    0.0000 C   0  0  0  0  0  0  0  0  0  0  0  0
   -3.6747   -1.5569    0.0000 C   0  0  0  0  0  0  0  0  0  0  0  0
   -4.4012   -1.9747    0.0000 O   0  0  0  0  0  0  0  0  0  0  0  0
   -0.0281   -1.1451    0.0000 H   0  0  0  0  0  0  0  0  0  0  0  0
   -1.5067   -1.0463    0.0000 H   0  0  0  0  0  0  0  0  0  0  0  0
   -0.8132    0.0757    0.0000 H   0  0  0  0  0  0  0  0  0  0  0  0
    1.4857    1.1053    0.0000 H   0  0  0  0  0  0  0  0  0  0  0  0
   -0.8288    1.9827    0.0000 H   0  0  0  0  0  0  0  0  0  0  0  0
   -1.7554    1.4477    0.0000 H   0  0  0  0  0  0  0  0  0  0  0  0
    0.7202    1.9031    0.0000 H   0  0  0  0  0  0  0  0  0  0  0  0
   -1.1289    1.7789    0.0000 H   0  0  0  0  0  0  0  0  0  0  0  0
   -0.2402    2.3748    0.0000 H   0  0  0  0  0  0  0  0  0  0  0  0
    1.0008   -1.5972    0.0000 H   0  0  0  0  0  0  0  0  0  0  0  0
   -0.0864   -1.3362    0.0000 H   0  0  0  0  0  0  0  0  0  0  0  0
    1.9821    1.6697    0.0000 H   0  0  0  0  0  0  0  0  0  0  0  0
    0.7045    3.0123    0.0000 H   0  0  0  0  0  0  0  0  0  0  0  0
    1.7308    2.7098    0.0000 H   0  0  0  0  0  0  0  0  0  0  0  0
   -2.4699    1.0352    0.0000 H   0  0  0  0  0  0  0  0  0  0  0  0
   -2.4699   -0.0348    0.0000 H   0  0  0  0  0  0  0  0  0  0  0  0
    3.1290    2.3053    0.0000 H   0  0  0  0  0  0  0  0  0  0  0  0
    1.3162    2.6907    0.0000 H   0  0  0  0  0  0  0  0  0  0  0  0
    2.3338    3.0213    0.0000 H   0  0  0  0  0  0  0  0  0  0  0  0
    0.0978   -2.0972    0.0000 H   0  0  0  0  0  0  0  0  0  0  0  0
   -0.8288   -2.6322    0.0000 H   0  0  0  0  0  0  0  0  0  0  0  0
    2.8253    2.6917    0.0000 H   0  0  0  0  0  0  0  0  0  0  0  0
    2.4892   -0.5071    0.0000 H   0  0  0  0  0  0  0  0  0  0  0  0
   -1.5433   -3.0447    0.0000 H   0  0  0  0  0  0  0  0  0  0  0  0
   -2.4700   -2.5097    0.0000 H   0  0  0  0  0  0  0  0  0  0  0  0
    4.6722    2.4976    0.0000 H   0  0  0  0  0  0  0  0  0  0  0  0
    4.3360   -0.7013    0.0000 H   0  0  0  0  0  0  0  0  0  0  0  0
   -2.9731    0.7453    0.0000 H   0  0  0  0  0  0  0  0  0  0  0  0
   -3.8995    0.2091    0.0000 H   0  0  0  0  0  0  0  0  0  0  0  0
   -1.3311    0.6227    0.0000 H   0  0  0  0  0  0  0  0  0  0  0  0
   -3.1843    0.6227    0.0000 H   0  0  0  0  0  0  0  0  0  0  0  0
   -2.2577    1.1577    0.0000 H   0  0  0  0  0  0  0  0  0  0  0  0
    5.4276    0.8012    0.0000 H   0  0  0  0  0  0  0  0  0  0  0  0
   -2.9789   -3.0067    0.0000 H   0  0  0  0  0  0  0  0  0  0  0  0
   -4.6018   -0.1977    0.0000 H   0  0  0  0  0  0  0  0  0  0  0  0
   -4.6011   -1.2673    0.0000 H   0  0  0  0  0  0  0  0  0  0  0  0
  1  2  1  0  0  0  0
  1  3  1  0  0  0  0
  1  4  1  0  0  0  0
  1  5  1  1  0  0  0
  2  6  1  0  0  0  0
  2  7  1  0  0  0  0
  2  8  1  1  0  0  0
  3  9  1  0  0  0  0
  3 10  1  0  0  0  0
  3 37  1  1  0  0  0
  4 11  1  0  0  0  0
  5 12  1  0  0  0  0
  5 13  2  0  0  0  0
  6 14  1  0  0  0  0
  6  9  1  0  0  0  0
  6 34  1  6  0  0  0
  7 15  1  0  0  0  0
  7 38  1  0  0  0  0
  7 39  1  0  0  0  0
  8 40  1  0  0  0  0
  8 41  1  0  0  0  0
  8 42  1  0  0  0  0
  9 43  1  0  0  0  0
  9 44  1  0  0  0  0
 10 11  1  0  0  0  0
 11 16  1  0  0  0  0
 11 17  1  1  0  0  0
 12 45  1  0  0  0  0
 12 46  1  0  0  0  0
 12 47  1  0  0  0  0
 14 18  1  0  0  0  0
 14 19  1  0  0  0  0
 14 36  1  1  0  0  0
 15 18  1  0  0  0  0
 15 48  1  0  0  0  0
 15 49  1  0  0  0  0
 16 20  2  0  0  0  0
 16 21  1  0  0  0  0
 17 50  1  0  0  0  0
 17 51  1  0  0  0  0
 17 52  1  0  0  0  0
 18 22  1  0  0  0  0
 18 35  1  6  0  0  0
 19 23  1  0  0  0  0
 19 53  1  0  0  0  0
 19 54  1  0  0  0  0
 20 24  1  0  0  0  0
 20 55  1  0  0  0  0
 21 25  2  0  0  0  0
 21 56  1  0  0  0  0
 22 26  1  0  0  0  0
 22 27  1  0  0  0  0
 22 28  1  1  0  0  0
 23 26  1  0  0  0  0
 23 57  1  0  0  0  0
 23 58  1  0  0  0  0
 24 29  2  0  0  0  0
 24 59  1  0  0  0  0
 25 29  1  0  0  0  0
 25 60  1  0  0  0  0
 26 30  2  0  0  0  0
 27 31  1  0  0  0  0
 27 61  1  0  0  0  0
 27 62  1  0  0  0  0
 28 63  1  0  0  0  0
 28 64  1  0  0  0  0
 28 65  1  0  0  0  0
 29 66  1  0  0  0  0
 30 32  1  0  0  0  0
 30 67  1  0  0  0  0
 31 32  1  0  0  0  0
 31 68  1  0  0  0  0
 31 69  1  0  0  0  0
 32 33  2  0  0  0  0
M  END
>  <DRUGBANK_ID>
DB15775

>  <COMMON_NAME>
Algestone acetophenide

>  <CAS_NUMBER>
24356-94-3

>  <UNII>
OL7KC2O3OT

>  <SYNONYMS>
Algeston acetofenid; Algestone acetophenide; Alphasone acetophenide; Dihydroxyprogesterone acetophenide

$$$$
