
 OpenBabel10282417072D

 23 22  0  0  1  0  0  0  0  0999 V2000
    2.6664   -2.3645    0.0000 C   0  0  0  0  0  0  0  0  0  0  0  0
    1.9520   -1.9520    0.0000 C   0  0  0  0  0  0  0  0  0  0  0  0
    1.2375   -2.3645    0.0000 C   0  0  0  0  0  0  0  0  0  0  0  0
    1.9520   -1.1270    0.0000 C   0  0  1  0  0  0  0  0  0  0  0  0
    1.2375   -0.7145    0.0000 N   0  0  0  0  0  0  0  0  0  0  0  0
    1.2375    0.1105    0.0000 C   0  0  0  0  0  0  0  0  0  0  0  0
    0.5230    0.5230    0.0000 N   0  0  0  0  0  0  0  0  0  0  0  0
    1.9520    0.5230    0.0000 O   0  0  0  0  0  0  0  0  0  0  0  0
    2.6664   -0.7145    0.0000 C   0  0  0  0  0  0  0  0  0  0  0  0
    2.6664    0.1105    0.0000 O   0  0  0  0  0  0  0  0  0  0  0  0
    3.3809   -1.1270    0.0000 O   0  0  0  0  0  0  0  0  0  0  0  0
    2.6664   -3.4345    0.0000 H   0  0  0  0  0  0  0  0  0  0  0  0
    3.5931   -1.8295    0.0000 H   0  0  0  0  0  0  0  0  0  0  0  0
    3.5930   -2.8995    0.0000 H   0  0  0  0  0  0  0  0  0  0  0  0
    1.0254   -1.4170    0.0000 H   0  0  0  0  0  0  0  0  0  0  0  0
    0.3109   -1.8295    0.0000 H   0  0  0  0  0  0  0  0  0  0  0  0
    1.2375   -3.4345    0.0000 H   0  0  0  0  0  0  0  0  0  0  0  0
    0.3108   -2.8995    0.0000 H   0  0  0  0  0  0  0  0  0  0  0  0
    1.0254   -1.6620    0.0000 H   0  0  0  0  0  0  0  0  0  0  0  0
    0.3849   -1.2068    0.0000 H   0  0  0  0  0  0  0  0  0  0  0  0
    0.5230    1.5075    0.0000 H   0  0  0  0  0  0  0  0  0  0  0  0
   -0.3296    0.0307    0.0000 H   0  0  0  0  0  0  0  0  0  0  0  0
    3.4779    0.5790    0.0000 H   0  0  0  0  0  0  0  0  0  0  0  0
  1  2  1  0  0  0  0
  1 12  1  0  0  0  0
  1 13  1  0  0  0  0
  1 14  1  0  0  0  0
  2  3  1  0  0  0  0
  2  4  1  0  0  0  0
  2 15  1  0  0  0  0
  3 16  1  0  0  0  0
  3 17  1  0  0  0  0
  3 18  1  0  0  0  0
  4  5  1  0  0  0  0
  4  9  1  0  0  0  0
  4 19  1  6  0  0  0
  5  6  1  0  0  0  0
  5 20  1  0  0  0  0
  6  7  1  0  0  0  0
  6  8  2  0  0  0  0
  7 21  1  0  0  0  0
  7 22  1  0  0  0  0
  9 10  1  0  0  0  0
  9 11  2  0  0  0  0
 10 23  1  0  0  0  0
M  END
>  <DRUGBANK_ID>
DB01847

>  <SECONDARY_ACCESSION_NUMBERS>
EXPT00879

>  <COMMON_NAME>
N-Carbamyl-D-Valine

$$$$
