
 OpenBabel10282417072D

102103  0  0  0  0  0  0  0  0999 V2000
    2.1845    1.1886    0.0000 C   0  0  2  0  0  0  0  0  0  0  0  0
    1.4726    0.7769    0.0000 C   0  0  1  0  0  0  0  0  0  0  0  0
    0.7638    1.2040    0.0000 C   0  0  1  0  0  0  0  0  0  0  0  0
    0.0549    0.7923    0.0000 C   0  0  2  0  0  0  0  0  0  0  0  0
   -0.6570    1.2195    0.0000 C   0  0  2  0  0  0  0  0  0  0  0  0
   -1.3690    0.8078    0.0000 C   0  0  0  0  0  0  0  0  0  0  0  0
   -2.0746    1.2350    0.0000 C   0  0  0  0  0  0  0  0  0  0  0  0
   -2.7897    0.8233    0.0000 C   0  0  0  0  0  0  0  0  0  0  0  0
   -3.4986    1.2535    0.0000 C   0  0  0  0  0  0  0  0  0  0  0  0
   -4.2167    0.8480    0.0000 C   0  0  0  0  0  0  0  0  0  0  0  0
   -4.0680    0.0650    0.0000 C   0  0  1  0  0  0  0  0  0  0  0  0
   -4.1981   -0.8047    0.0000 C   0  0  1  0  0  0  0  0  0  0  0  0
   -3.5108   -1.2041    0.0000 C   0  0  1  0  0  0  0  0  0  0  0  0
   -2.8330   -0.7987    0.0000 C   0  0  0  0  0  0  0  0  0  0  0  0
   -2.1490   -1.1978    0.0000 C   0  0  0  0  0  0  0  0  0  0  0  0
   -1.4711   -0.7924    0.0000 C   0  0  0  0  0  0  0  0  0  0  0  0
   -0.7870   -1.1886    0.0000 C   0  0  0  0  0  0  0  0  0  0  0  0
   -0.1090   -0.7862    0.0000 C   0  0  0  0  0  0  0  0  0  0  0  0
    0.1476    0.0836    0.0000 O   0  0  0  0  0  0  0  0  0  0  0  0
    0.5748   -1.1825    0.0000 O   0  0  0  0  0  0  0  0  0  0  0  0
   -0.7870   -1.9502    0.0000 O   0  0  0  0  0  0  0  0  0  0  0  0
   -0.0132   -2.4607    0.0000 C   0  0  0  0  0  0  0  0  0  0  0  0
   -2.1490   -1.9502    0.0000 C   0  0  0  0  0  0  0  0  0  0  0  0
   -3.4676   -1.9502    0.0000 C   0  0  0  0  0  0  0  0  0  0  0  0
   -4.9007   -1.2072    0.0000 O   0  0  0  0  0  0  0  0  0  0  0  0
   -5.0586    0.0650    0.0000 C   0  0  0  0  0  0  0  0  0  0  0  0
   -3.4986    1.9748    0.0000 C   0  0  0  0  0  0  0  0  0  0  0  0
   -0.6570    2.0367    0.0000 O   0  0  0  0  0  0  0  0  0  0  0  0
    0.1168    2.4607    0.0000 C   0  0  0  0  0  0  0  0  0  0  0  0
    0.7638    2.0799    0.0000 C   0  0  0  0  0  0  0  0  0  0  0  0
    1.4726    0.0836    0.0000 O   0  0  0  0  0  0  0  0  0  0  0  0
    2.1845    1.9748    0.0000 C   0  0  0  0  0  0  0  0  0  0  0  0
    3.6294    1.1678    0.0000 C   0  0  0  0  0  0  0  0  0  0  0  0
    2.9150    0.7552    0.0000 C   0  0  1  0  0  0  0  0  0  0  0  0
    2.9150   -0.0698    0.0000 O   0  0  0  0  0  0  0  0  0  0  0  0
    3.6294   -0.4824    0.0000 C   0  0  1  0  0  0  0  0  0  0  0  0
    4.3441   -0.0698    0.0000 C   0  0  2  0  0  0  0  0  0  0  0  0
    4.3441    0.7552    0.0000 C   0  0  2  0  0  0  0  0  0  0  0  0
    3.6294   -1.3075    0.0000 C   0  0  0  0  0  0  0  0  0  0  0  0
    4.3441   -1.7200    0.0000 C   0  0  0  0  0  0  0  0  0  0  0  0
    2.9150   -1.7200    0.0000 C   0  0  0  0  0  0  0  0  0  0  0  0
    5.0586   -0.4824    0.0000 C   0  0  0  0  0  0  0  0  0  0  0  0
    5.0586    1.1678    0.0000 O   0  0  0  0  0  0  0  0  0  0  0  0
    2.9150    1.5803    0.0000 O   0  0  0  0  0  0  0  0  0  0  0  0
    3.1143    1.7181    0.0000 H   0  0  0  0  0  0  0  0  0  0  0  0
    2.3994    0.2422    0.0000 H   0  0  0  0  0  0  0  0  0  0  0  0
    1.6954    1.7303    0.0000 H   0  0  0  0  0  0  0  0  0  0  0  0
    1.0150    0.3199    0.0000 H   0  0  0  0  0  0  0  0  0  0  0  0
    0.2741    1.7467    0.0000 H   0  0  0  0  0  0  0  0  0  0  0  0
   -1.3794   -0.2241    0.0000 H   0  0  0  0  0  0  0  0  0  0  0  0
   -2.0632    2.2669    0.0000 H   0  0  0  0  0  0  0  0  0  0  0  0
   -2.8016   -0.2086    0.0000 H   0  0  0  0  0  0  0  0  0  0  0  0
   -5.1873    1.2985    0.0000 H   0  0  0  0  0  0  0  0  0  0  0  0
   -5.0607    0.1903    0.0000 H   0  0  0  0  0  0  0  0  0  0  0  0
   -4.8922    0.7474    0.0000 H   0  0  0  0  0  0  0  0  0  0  0  0
   -5.0815   -0.2010    0.0000 H   0  0  0  0  0  0  0  0  0  0  0  0
   -4.4224   -1.7644    0.0000 H   0  0  0  0  0  0  0  0  0  0  0  0
   -2.8386    0.2333    0.0000 H   0  0  0  0  0  0  0  0  0  0  0  0
   -1.4783    0.2396    0.0000 H   0  0  0  0  0  0  0  0  0  0  0  0
   -0.0769   -3.5288    0.0000 H   0  0  0  0  0  0  0  0  0  0  0  0
    0.9437   -1.9818    0.0000 H   0  0  0  0  0  0  0  0  0  0  0  0
    0.8799   -3.0499    0.0000 H   0  0  0  0  0  0  0  0  0  0  0  0
   -3.0756   -2.4852    0.0000 H   0  0  0  0  0  0  0  0  0  0  0  0
   -1.2224   -2.4852    0.0000 H   0  0  0  0  0  0  0  0  0  0  0  0
   -2.1490   -3.0202    0.0000 H   0  0  0  0  0  0  0  0  0  0  0  0
   -4.3618   -2.5379    0.0000 H   0  0  0  0  0  0  0  0  0  0  0  0
   -2.5116   -2.4307    0.0000 H   0  0  0  0  0  0  0  0  0  0  0  0
   -3.4057   -3.0184    0.0000 H   0  0  0  0  0  0  0  0  0  0  0  0
   -5.7391   -0.7194    0.0000 H   0  0  0  0  0  0  0  0  0  0  0  0
   -5.5936    0.9916    0.0000 H   0  0  0  0  0  0  0  0  0  0  0  0
   -5.5936   -0.8616    0.0000 H   0  0  0  0  0  0  0  0  0  0  0  0
   -6.1286    0.0650    0.0000 H   0  0  0  0  0  0  0  0  0  0  0  0
   -2.5720    2.5098    0.0000 H   0  0  0  0  0  0  0  0  0  0  0  0
   -4.4252    2.5098    0.0000 H   0  0  0  0  0  0  0  0  0  0  0  0
   -3.4986    3.0448    0.0000 H   0  0  0  0  0  0  0  0  0  0  0  0
    1.0313    1.9051    0.0000 H   0  0  0  0  0  0  0  0  0  0  0  0
    0.1407    3.5304    0.0000 H   0  0  0  0  0  0  0  0  0  0  0  0
    1.0552    2.9749    0.0000 H   0  0  0  0  0  0  0  0  0  0  0  0
    1.6904    2.6149    0.0000 H   0  0  0  0  0  0  0  0  0  0  0  0
   -0.1628    2.6149    0.0000 H   0  0  0  0  0  0  0  0  0  0  0  0
    0.7638    3.1499    0.0000 H   0  0  0  0  0  0  0  0  0  0  0  0
    0.6326   -0.4014    0.0000 H   0  0  0  0  0  0  0  0  0  0  0  0
    3.1111    2.5098    0.0000 H   0  0  0  0  0  0  0  0  0  0  0  0
    1.2579    2.5098    0.0000 H   0  0  0  0  0  0  0  0  0  0  0  0
    2.1845    3.0448    0.0000 H   0  0  0  0  0  0  0  0  0  0  0  0
    3.6293    2.2378    0.0000 H   0  0  0  0  0  0  0  0  0  0  0  0
    4.5560    1.7029    0.0000 H   0  0  0  0  0  0  0  0  0  0  0  0
    2.7027   -1.0173    0.0000 H   0  0  0  0  0  0  0  0  0  0  0  0
    4.3440   -1.1398    0.0000 H   0  0  0  0  0  0  0  0  0  0  0  0
    5.2708    0.2202    0.0000 H   0  0  0  0  0  0  0  0  0  0  0  0
    3.6295   -2.3775    0.0000 H   0  0  0  0  0  0  0  0  0  0  0  0
    4.3442   -2.7900    0.0000 H   0  0  0  0  0  0  0  0  0  0  0  0
    5.2707   -1.1849    0.0000 H   0  0  0  0  0  0  0  0  0  0  0  0
    5.2708   -2.2549    0.0000 H   0  0  0  0  0  0  0  0  0  0  0  0
    1.9883   -1.1850    0.0000 H   0  0  0  0  0  0  0  0  0  0  0  0
    2.9150   -2.7900    0.0000 H   0  0  0  0  0  0  0  0  0  0  0  0
    1.9884   -2.2550    0.0000 H   0  0  0  0  0  0  0  0  0  0  0  0
    5.0585   -1.5524    0.0000 H   0  0  0  0  0  0  0  0  0  0  0  0
    5.9853    0.0525    0.0000 H   0  0  0  0  0  0  0  0  0  0  0  0
    5.9852   -1.0175    0.0000 H   0  0  0  0  0  0  0  0  0  0  0  0
    5.8987    0.6829    0.0000 H   0  0  0  0  0  0  0  0  0  0  0  0
    3.7550    2.0653    0.0000 H   0  0  0  0  0  0  0  0  0  0  0  0
  1  2  1  0  0  0  0
  1 32  1  0  0  0  0
  1 45  1  1  0  0  0
  2  3  1  0  0  0  0
  2 31  1  0  0  0  0
  2 46  1  1  0  0  0
  3  4  1  0  0  0  0
  3 30  1  0  0  0  0
  3 47  1  6  0  0  0
  4  5  1  0  0  0  0
  4 19  1  0  0  0  0
  4 48  1  6  0  0  0
  5  6  1  0  0  0  0
  5 28  1  0  0  0  0
  5 49  1  1  0  0  0
  6  7  2  0  0  0  0
  6 50  1  0  0  0  0
  7  8  1  0  0  0  0
  7 51  1  0  0  0  0
  8  9  2  0  0  0  0
  8 52  1  0  0  0  0
  9 10  1  0  0  0  0
  9 27  1  0  0  0  0
 10 11  1  0  0  0  0
 10 53  1  0  0  0  0
 10 54  1  0  0  0  0
 11 12  1  0  0  0  0
 11 26  1  0  0  0  0
 11 55  1  6  0  0  0
 12 25  1  0  0  0  0
 12 56  1  6  0  0  0
 13 12  1  0  0  0  0
 13 24  1  0  0  0  0
 13 57  1  6  0  0  0
 14 13  1  0  0  0  0
 14 58  1  0  0  0  0
 15 14  2  0  0  0  0
 15 23  1  0  0  0  0
 16 15  1  0  0  0  0
 16 59  1  0  0  0  0
 17 16  2  0  0  0  0
 17 21  1  0  0  0  0
 18 17  1  0  0  0  0
 18 20  2  0  0  0  0
 19 18  1  0  0  0  0
 21 22  1  0  0  0  0
 22 60  1  0  0  0  0
 22 61  1  0  0  0  0
 22 62  1  0  0  0  0
 23 63  1  0  0  0  0
 23 64  1  0  0  0  0
 23 65  1  0  0  0  0
 24 66  1  0  0  0  0
 24 67  1  0  0  0  0
 24 68  1  0  0  0  0
 25 69  1  0  0  0  0
 26 70  1  0  0  0  0
 26 71  1  0  0  0  0
 26 72  1  0  0  0  0
 27 73  1  0  0  0  0
 27 74  1  0  0  0  0
 27 75  1  0  0  0  0
 28 29  1  0  0  0  0
 29 76  1  0  0  0  0
 29 77  1  0  0  0  0
 29 78  1  0  0  0  0
 30 79  1  0  0  0  0
 30 80  1  0  0  0  0
 30 81  1  0  0  0  0
 31 82  1  0  0  0  0
 32 83  1  0  0  0  0
 32 84  1  0  0  0  0
 32 85  1  0  0  0  0
 33 34  1  0  0  0  0
 33 38  1  0  0  0  0
 33 86  1  0  0  0  0
 33 87  1  0  0  0  0
 34  1  1  0  0  0  0
 34 35  1  0  0  0  0
 34 44  1  6  0  0  0
 35 36  1  0  0  0  0
 36 37  1  0  0  0  0
 36 39  1  0  0  0  0
 36 88  1  6  0  0  0
 37 38  1  0  0  0  0
 37 42  1  0  0  0  0
 37 89  1  1  0  0  0
 38 43  1  0  0  0  0
 38 90  1  6  0  0  0
 39 40  1  0  0  0  0
 39 41  1  0  0  0  0
 39 91  1  0  0  0  0
 40 92  1  0  0  0  0
 40 93  1  0  0  0  0
 40 94  1  0  0  0  0
 41 95  1  0  0  0  0
 41 96  1  0  0  0  0
 41 97  1  0  0  0  0
 42 98  1  0  0  0  0
 42 99  1  0  0  0  0
 42100  1  0  0  0  0
 43101  1  0  0  0  0
 44102  1  0  0  0  0
M  END
>  <DRUGBANK_ID>
DB06733

>  <COMMON_NAME>
Bafilomycin A1

>  <CAS_NUMBER>
88899-55-2

$$$$
