
 OpenBabel10282417072D

 58 61  0  0  0  0  0  0  0  0999 V2000
   -0.2228   -2.7691    0.0000 C   0  0  0  0  0  0  0  0  0  0  0  0
   -0.2228   -1.9441    0.0000 O   0  0  0  0  0  0  0  0  0  0  0  0
    0.4917   -1.5316    0.0000 C   0  0  0  0  0  0  0  0  0  0  0  0
    0.4917   -0.7066    0.0000 C   0  0  0  0  0  0  0  0  0  0  0  0
    1.2062   -0.2941    0.0000 C   0  0  0  0  0  0  0  0  0  0  0  0
    1.9206   -0.7066    0.0000 C   0  0  0  0  0  0  0  0  0  0  0  0
    2.5656   -0.1923    0.0000 C   0  0  0  0  0  0  0  0  0  0  0  0
    3.3700   -0.3758    0.0000 C   0  0  0  0  0  0  0  0  0  0  0  0
    3.7279   -1.1191    0.0000 N   0  0  0  0  0  0  0  0  0  0  0  0
    4.5529   -1.1191    0.0000 C   0  0  0  0  0  0  0  0  0  0  0  0
    3.3700   -1.8624    0.0000 C   0  0  0  0  0  0  0  0  0  0  0  0
    2.5656   -2.0460    0.0000 C   0  0  0  0  0  0  0  0  0  0  0  0
    1.9206   -1.5316    0.0000 C   0  0  0  0  0  0  0  0  0  0  0  0
    1.2062   -1.9441    0.0000 C   0  0  0  0  0  0  0  0  0  0  0  0
   -0.2228   -0.2941    0.0000 S   0  0  0  0  0  0  0  0  0  0  0  0
    0.1897    0.4203    0.0000 O   0  0  0  0  0  0  0  0  0  0  0  0
   -0.6353   -1.0086    0.0000 O   0  0  0  0  0  0  0  0  0  0  0  0
   -0.9373    0.1184    0.0000 C   0  0  0  0  0  0  0  0  0  0  0  0
   -1.6517   -0.2941    0.0000 C   0  0  0  0  0  0  0  0  0  0  0  0
   -2.3662    0.1184    0.0000 C   0  0  0  0  0  0  0  0  0  0  0  0
   -2.3662    0.9434    0.0000 C   0  0  0  0  0  0  0  0  0  0  0  0
   -3.0807    1.3559    0.0000 O   0  0  0  0  0  0  0  0  0  0  0  0
   -3.7951    0.9434    0.0000 C   0  0  0  0  0  0  0  0  0  0  0  0
   -4.5096    1.3559    0.0000 C   0  0  0  0  0  0  0  0  0  0  0  0
   -5.2241    0.9434    0.0000 C   0  0  0  0  0  0  0  0  0  0  0  0
   -5.9386    1.3559    0.0000 C   0  0  0  0  0  0  0  0  0  0  0  0
   -5.9386    2.1809    0.0000 C   0  0  0  0  0  0  0  0  0  0  0  0
   -6.6530    2.5934    0.0000 Cl  0  0  0  0  0  0  0  0  0  0  0  0
   -5.2241    2.5934    0.0000 C   0  0  0  0  0  0  0  0  0  0  0  0
   -4.5096    2.1809    0.0000 C   0  0  0  0  0  0  0  0  0  0  0  0
   -1.6517    1.3559    0.0000 C   0  0  0  0  0  0  0  0  0  0  0  0
   -0.9373    0.9434    0.0000 C   0  0  0  0  0  0  0  0  0  0  0  0
   -1.1494   -3.3041    0.0000 H   0  0  0  0  0  0  0  0  0  0  0  0
    0.7038   -3.3041    0.0000 H   0  0  0  0  0  0  0  0  0  0  0  0
   -0.2228   -3.8391    0.0000 H   0  0  0  0  0  0  0  0  0  0  0  0
    1.2062    0.7379    0.0000 H   0  0  0  0  0  0  0  0  0  0  0  0
    2.3275    0.8509    0.0000 H   0  0  0  0  0  0  0  0  0  0  0  0
    3.3222    0.5644    0.0000 H   0  0  0  0  0  0  0  0  0  0  0  0
    4.0371    0.4608    0.0000 H   0  0  0  0  0  0  0  0  0  0  0  0
    4.4333   -0.4956    0.0000 H   0  0  0  0  0  0  0  0  0  0  0  0
    5.0879   -2.0457    0.0000 H   0  0  0  0  0  0  0  0  0  0  0  0
    5.0879   -0.1925    0.0000 H   0  0  0  0  0  0  0  0  0  0  0  0
    5.6229   -1.1191    0.0000 H   0  0  0  0  0  0  0  0  0  0  0  0
    4.0372   -2.6989    0.0000 H   0  0  0  0  0  0  0  0  0  0  0  0
    3.0166   -2.8724    0.0000 H   0  0  0  0  0  0  0  0  0  0  0  0
    2.3275   -3.0892    0.0000 H   0  0  0  0  0  0  0  0  0  0  0  0
    1.5556   -2.3994    0.0000 H   0  0  0  0  0  0  0  0  0  0  0  0
    1.2062   -2.9761    0.0000 H   0  0  0  0  0  0  0  0  0  0  0  0
   -1.6517   -1.3261    0.0000 H   0  0  0  0  0  0  0  0  0  0  0  0
   -3.2599   -0.3976    0.0000 H   0  0  0  0  0  0  0  0  0  0  0  0
   -3.7951   -0.1266    0.0000 H   0  0  0  0  0  0  0  0  0  0  0  0
   -4.7217    0.4084    0.0000 H   0  0  0  0  0  0  0  0  0  0  0  0
   -5.2241   -0.0886    0.0000 H   0  0  0  0  0  0  0  0  0  0  0  0
   -6.8323    0.8399    0.0000 H   0  0  0  0  0  0  0  0  0  0  0  0
   -5.2241    3.6254    0.0000 H   0  0  0  0  0  0  0  0  0  0  0  0
   -3.6159    2.6969    0.0000 H   0  0  0  0  0  0  0  0  0  0  0  0
   -1.6517    2.3879    0.0000 H   0  0  0  0  0  0  0  0  0  0  0  0
   -0.0436    1.4594    0.0000 H   0  0  0  0  0  0  0  0  0  0  0  0
  1  2  1  0  0  0  0
  1 33  1  0  0  0  0
  1 34  1  0  0  0  0
  1 35  1  0  0  0  0
  2  3  1  0  0  0  0
  3  4  2  0  0  0  0
  3 14  1  0  0  0  0
  4  5  1  0  0  0  0
  4 15  1  0  0  0  0
  5  6  2  0  0  0  0
  5 36  1  0  0  0  0
  6  7  1  0  0  0  0
  6 13  1  0  0  0  0
  7  8  1  0  0  0  0
  7 37  1  0  0  0  0
  7 38  1  0  0  0  0
  8  9  1  0  0  0  0
  8 39  1  0  0  0  0
  8 40  1  0  0  0  0
  9 10  1  0  0  0  0
  9 11  1  0  0  0  0
 10 41  1  0  0  0  0
 10 42  1  0  0  0  0
 10 43  1  0  0  0  0
 11 12  1  0  0  0  0
 11 44  1  0  0  0  0
 11 45  1  0  0  0  0
 12 13  1  0  0  0  0
 12 46  1  0  0  0  0
 12 47  1  0  0  0  0
 13 14  2  0  0  0  0
 14 48  1  0  0  0  0
 15 16  2  0  0  0  0
 15 17  2  0  0  0  0
 15 18  1  0  0  0  0
 18 19  2  0  0  0  0
 18 32  1  0  0  0  0
 19 20  1  0  0  0  0
 19 49  1  0  0  0  0
 20 21  2  0  0  0  0
 20 50  1  0  0  0  0
 21 22  1  0  0  0  0
 21 31  1  0  0  0  0
 22 23  1  0  0  0  0
 23 24  1  0  0  0  0
 23 51  1  0  0  0  0
 23 52  1  0  0  0  0
 24 25  2  0  0  0  0
 24 30  1  0  0  0  0
 25 26  1  0  0  0  0
 25 53  1  0  0  0  0
 26 27  2  0  0  0  0
 26 54  1  0  0  0  0
 27 28  1  0  0  0  0
 27 29  1  0  0  0  0
 29 30  2  0  0  0  0
 29 55  1  0  0  0  0
 30 56  1  0  0  0  0
 31 32  2  0  0  0  0
 31 57  1  0  0  0  0
 32 58  1  0  0  0  0
M  END
>  <DRUGBANK_ID>
DB16042

>  <COMMON_NAME>
SB-773812

>  <CAS_NUMBER>
630407-66-8

>  <UNII>
ZNP5SNF9FY

$$$$
