488
 OpenBabel10282417072D

 33 33  0  0  0  0  0  0  0  0999 V2000
    3.7934    1.4437    0.0000 N   0  0  0  0  0  0  0  0  0  0  0  0
    5.2223   -1.0312    0.0000 N   0  0  0  0  0  0  0  0  0  0  0  0
    2.3644   -1.0312    0.0000 N   0  0  0  0  0  0  0  0  0  0  0  0
    4.5079    0.2063    0.0000 N   0  0  0  0  0  0  0  0  0  0  0  0
    3.0790    0.2063    0.0000 N   0  0  0  0  0  0  0  0  0  0  0  0
    3.7934   -1.0312    0.0000 N   0  0  0  0  0  0  0  0  0  0  0  0
    3.7934    0.6188    0.0000 C   0  0  0  0  0  0  0  0  0  0  0  0
    4.5079   -0.6188    0.0000 C   0  0  0  0  0  0  0  0  0  0  0  0
    3.0790   -0.6188    0.0000 C   0  0  0  0  0  0  0  0  0  0  0  0
    3.0790    1.8563    0.0000 C   0  0  0  0  0  0  0  0  0  0  0  0
    4.5079    1.8563    0.0000 C   0  0  0  0  0  0  0  0  0  0  0  0
    5.2223   -1.8563    0.0000 C   0  0  0  0  0  0  0  0  0  0  0  0
    5.9368   -0.6188    0.0000 C   0  0  0  0  0  0  0  0  0  0  0  0
    2.3644   -1.8563    0.0000 C   0  0  0  0  0  0  0  0  0  0  0  0
    1.6500   -0.6188    0.0000 C   0  0  0  0  0  0  0  0  0  0  0  0
    3.0792    2.9263    0.0000 H   0  0  0  0  0  0  0  0  0  0  0  0
    2.1523    1.3214    0.0000 H   0  0  0  0  0  0  0  0  0  0  0  0
    2.1524    2.3914    0.0000 H   0  0  0  0  0  0  0  0  0  0  0  0
    5.4346    1.3214    0.0000 H   0  0  0  0  0  0  0  0  0  0  0  0
    4.5078    2.9263    0.0000 H   0  0  0  0  0  0  0  0  0  0  0  0
    5.4345    2.3914    0.0000 H   0  0  0  0  0  0  0  0  0  0  0  0
    4.2957   -2.3913    0.0000 H   0  0  0  0  0  0  0  0  0  0  0  0
    6.1489   -2.3913    0.0000 H   0  0  0  0  0  0  0  0  0  0  0  0
    5.2223   -2.9263    0.0000 H   0  0  0  0  0  0  0  0  0  0  0  0
    6.8634   -1.1539    0.0000 H   0  0  0  0  0  0  0  0  0  0  0  0
    5.9369    0.4512    0.0000 H   0  0  0  0  0  0  0  0  0  0  0  0
    6.8635   -0.0839    0.0000 H   0  0  0  0  0  0  0  0  0  0  0  0
    1.4378   -2.3913    0.0000 H   0  0  0  0  0  0  0  0  0  0  0  0
    3.2910   -2.3913    0.0000 H   0  0  0  0  0  0  0  0  0  0  0  0
    2.3644   -2.9263    0.0000 H   0  0  0  0  0  0  0  0  0  0  0  0
    1.6499    0.4512    0.0000 H   0  0  0  0  0  0  0  0  0  0  0  0
    0.7234   -1.1539    0.0000 H   0  0  0  0  0  0  0  0  0  0  0  0
    0.7233   -0.0839    0.0000 H   0  0  0  0  0  0  0  0  0  0  0  0
  1  7  1  0  0  0  0
  1 10  1  0  0  0  0
  1 11  1  0  0  0  0
  2  8  1  0  0  0  0
  2 12  1  0  0  0  0
  2 13  1  0  0  0  0
  3  9  1  0  0  0  0
  3 14  1  0  0  0  0
  3 15  1  0  0  0  0
  4  7  2  0  0  0  0
  4  8  1  0  0  0  0
  5  7  1  0  0  0  0
  5  9  2  0  0  0  0
  6  8  2  0  0  0  0
  6  9  1  0  0  0  0
 10 16  1  0  0  0  0
 10 17  1  0  0  0  0
 10 18  1  0  0  0  0
 11 19  1  0  0  0  0
 11 20  1  0  0  0  0
 11 21  1  0  0  0  0
 12 22  1  0  0  0  0
 12 23  1  0  0  0  0
 12 24  1  0  0  0  0
 13 25  1  0  0  0  0
 13 26  1  0  0  0  0
 13 27  1  0  0  0  0
 14 28  1  0  0  0  0
 14 29  1  0  0  0  0
 14 30  1  0  0  0  0
 15 31  1  0  0  0  0
 15 32  1  0  0  0  0
 15 33  1  0  0  0  0
M  END
>  <DRUGBANK_ID>
DB00488

>  <SECONDARY_ACCESSION_NUMBERS>
APRD00652

>  <COMMON_NAME>
Altretamine

>  <CAS_NUMBER>
645-05-6

>  <UNII>
Q8BIH59O7H

>  <SYNONYMS>
2,4,6-tris(dimethylamino)-1,3,5-triazine; 2,4,6-tris(dimethylamino)-s-triazine; Altretamin; Altretamina; Altretamine; Altr√©tamine; Altretaminum; Hexamethylmelamine; HMM

$$$$
