WR1
 OpenBabel10282417072D

 55 56  0  0  0  0  0  0  0  0999 V2000
   -2.7638   -0.3707    0.0000 O   0  0  0  0  0  0  0  0  0  0  0  0
   -2.7638    0.4543    0.0000 C   0  0  0  0  0  0  0  0  0  0  0  0
   -3.4783    0.8668    0.0000 O   0  0  0  0  0  0  0  0  0  0  0  0
   -4.1928    0.4543    0.0000 C   0  0  0  0  0  0  0  0  0  0  0  0
   -4.9073    0.8668    0.0000 C   0  0  0  0  0  0  0  0  0  0  0  0
   -5.6217    0.4543    0.0000 C   0  0  0  0  0  0  0  0  0  0  0  0
   -6.3362    0.8668    0.0000 C   0  0  0  0  0  0  0  0  0  0  0  0
   -6.3362    1.6918    0.0000 C   0  0  0  0  0  0  0  0  0  0  0  0
   -5.6217    2.1043    0.0000 C   0  0  0  0  0  0  0  0  0  0  0  0
   -4.9073    1.6918    0.0000 C   0  0  0  0  0  0  0  0  0  0  0  0
   -2.0494    0.8668    0.0000 N   0  0  0  0  0  0  0  0  0  0  0  0
   -1.3349    0.4543    0.0000 C   0  0  1  0  0  0  0  0  0  0  0  0
   -1.3349   -0.3707    0.0000 C   0  0  0  0  0  0  0  0  0  0  0  0
   -0.6204   -0.7832    0.0000 C   0  0  0  0  0  0  0  0  0  0  0  0
   -0.6204   -1.6082    0.0000 C   0  0  0  0  0  0  0  0  0  0  0  0
    0.0940   -2.0207    0.0000 C   0  0  0  0  0  0  0  0  0  0  0  0
    0.8085   -1.6082    0.0000 C   0  0  0  0  0  0  0  0  0  0  0  0
    0.8085   -0.7832    0.0000 C   0  0  0  0  0  0  0  0  0  0  0  0
    0.0940   -0.3707    0.0000 C   0  0  0  0  0  0  0  0  0  0  0  0
   -0.6204    0.8668    0.0000 C   0  0  0  0  0  0  0  0  0  0  0  0
   -0.6204    1.6918    0.0000 O   0  0  0  0  0  0  0  0  0  0  0  0
    0.0940    0.4543    0.0000 N   0  0  0  0  0  0  0  0  0  0  0  0
    0.8085    0.8668    0.0000 C   0  0  2  0  0  0  0  0  0  0  0  0
    0.8085    1.6918    0.0000 C   0  0  0  0  0  0  0  0  0  0  0  0
    1.5230    0.4543    0.0000 C   0  0  0  0  0  0  0  0  0  0  0  0
    1.5230   -0.3707    0.0000 O   0  0  0  0  0  0  0  0  0  0  0  0
    2.2375    0.8668    0.0000 C   0  0  0  0  0  0  0  0  0  0  0  0
    2.9519    0.4543    0.0000 C   0  0  0  0  0  0  0  0  0  0  0  0
    3.6664    0.8668    0.0000 O   0  0  0  0  0  0  0  0  0  0  0  0
   -1.3349    1.0383    0.0000 H   0  0  0  0  0  0  0  0  0  0  0  0
    0.8085    0.2829    0.0000 H   0  0  0  0  0  0  0  0  0  0  0  0
   -4.1928   -0.6157    0.0000 H   0  0  0  0  0  0  0  0  0  0  0  0
   -5.1194   -0.0807    0.0000 H   0  0  0  0  0  0  0  0  0  0  0  0
   -5.6217   -0.5777    0.0000 H   0  0  0  0  0  0  0  0  0  0  0  0
   -7.2299    0.3508    0.0000 H   0  0  0  0  0  0  0  0  0  0  0  0
   -7.2299    2.2078    0.0000 H   0  0  0  0  0  0  0  0  0  0  0  0
   -5.6217    3.1363    0.0000 H   0  0  0  0  0  0  0  0  0  0  0  0
   -4.0136    2.2078    0.0000 H   0  0  0  0  0  0  0  0  0  0  0  0
   -2.0494    1.8513    0.0000 H   0  0  0  0  0  0  0  0  0  0  0  0
   -2.2615   -0.9057    0.0000 H   0  0  0  0  0  0  0  0  0  0  0  0
   -1.3349   -1.4407    0.0000 H   0  0  0  0  0  0  0  0  0  0  0  0
   -1.5141   -2.1242    0.0000 H   0  0  0  0  0  0  0  0  0  0  0  0
    0.0940   -3.0527    0.0000 H   0  0  0  0  0  0  0  0  0  0  0  0
    1.7022   -2.1242    0.0000 H   0  0  0  0  0  0  0  0  0  0  0  0
    1.7022   -0.2672    0.0000 H   0  0  0  0  0  0  0  0  0  0  0  0
    0.0940    0.6613    0.0000 H   0  0  0  0  0  0  0  0  0  0  0  0
    0.0940   -0.5302    0.0000 H   0  0  0  0  0  0  0  0  0  0  0  0
    1.7351    2.2268    0.0000 H   0  0  0  0  0  0  0  0  0  0  0  0
   -0.1181    2.2268    0.0000 H   0  0  0  0  0  0  0  0  0  0  0  0
    0.8085    2.7618    0.0000 H   0  0  0  0  0  0  0  0  0  0  0  0
    2.2375    1.9368    0.0000 H   0  0  0  0  0  0  0  0  0  0  0  0
    3.1642    1.4018    0.0000 H   0  0  0  0  0  0  0  0  0  0  0  0
    2.9519   -0.6157    0.0000 H   0  0  0  0  0  0  0  0  0  0  0  0
    3.8785   -0.0807    0.0000 H   0  0  0  0  0  0  0  0  0  0  0  0
    4.5064    0.3818    0.0000 H   0  0  0  0  0  0  0  0  0  0  0  0
  1  2  2  0  0  0  0
  2  3  1  0  0  0  0
  2 11  1  0  0  0  0
  3  4  1  0  0  0  0
  4  5  1  0  0  0  0
  4 32  1  0  0  0  0
  4 33  1  0  0  0  0
  5  6  1  0  0  0  0
  5 10  2  0  0  0  0
  6  7  2  0  0  0  0
  6 34  1  0  0  0  0
  7  8  1  0  0  0  0
  7 35  1  0  0  0  0
  8  9  2  0  0  0  0
  8 36  1  0  0  0  0
  9 10  1  0  0  0  0
  9 37  1  0  0  0  0
 10 38  1  0  0  0  0
 11 39  1  0  0  0  0
 12 11  1  0  0  0  0
 12 20  1  0  0  0  0
 12 13  1  0  0  0  0
 12 30  1  1  0  0  0
 13 14  1  0  0  0  0
 13 40  1  0  0  0  0
 13 41  1  0  0  0  0
 14 19  2  0  0  0  0
 14 15  1  0  0  0  0
 15 16  2  0  0  0  0
 15 42  1  0  0  0  0
 16 17  1  0  0  0  0
 16 43  1  0  0  0  0
 17 18  2  0  0  0  0
 17 44  1  0  0  0  0
 18 19  1  0  0  0  0
 18 45  1  0  0  0  0
 19 46  1  0  0  0  0
 20 21  2  0  0  0  0
 20 22  1  0  0  0  0
 22 23  1  0  0  0  0
 22 47  1  0  0  0  0
 23 25  1  0  0  0  0
 23 24  1  0  0  0  0
 23 31  1  1  0  0  0
 24 48  1  0  0  0  0
 24 49  1  0  0  0  0
 24 50  1  0  0  0  0
 25 27  1  0  0  0  0
 25 26  2  0  0  0  0
 27 28  1  0  0  0  0
 27 51  1  0  0  0  0
 27 52  1  0  0  0  0
 28 29  1  0  0  0  0
 28 53  1  0  0  0  0
 28 54  1  0  0  0  0
 29 55  1  0  0  0  0
M  END
>  <DRUGBANK_ID>
DB08732

>  <COMMON_NAME>
NALPHA-[(BENZYLOXY)CARBONYL]-N-[(1R)-4-HYDROXY-1-METHYL-2-OXOBUTYL]-L-PHENYLALANINAMIDE

$$$$
