G15
 OpenBabel10282417072D

 52 55  0  0  0  0  0  0  0  0999 V2000
   -0.6224   -4.6749    0.0000 O   0  0  0  0  0  0  0  0  0  0  0  0
    0.1981   -4.5886    0.0000 C   0  0  0  0  0  0  0  0  0  0  0  0
    0.6830   -5.2561    0.0000 N   0  0  0  0  0  0  0  0  0  0  0  0
    1.5035   -5.1698    0.0000 C   0  0  0  0  0  0  0  0  0  0  0  0
    1.9884   -5.8373    0.0000 C   0  0  0  0  0  0  0  0  0  0  0  0
    1.6529   -6.5910    0.0000 O   0  0  0  0  0  0  0  0  0  0  0  0
    0.8324   -6.6772    0.0000 C   0  0  0  0  0  0  0  0  0  0  0  0
    0.3475   -6.0098    0.0000 C   0  0  0  0  0  0  0  0  0  0  0  0
    0.5337   -3.8350    0.0000 C   0  0  2  0  0  0  0  0  0  0  0  0
    1.3541   -3.7487    0.0000 C   0  0  0  0  0  0  0  0  0  0  0  0
    0.0487   -3.1675    0.0000 N   0  0  0  0  0  0  0  0  0  0  0  0
   -0.7763   -3.1675    0.0000 C   0  0  0  0  0  0  0  0  0  0  0  0
   -1.0312   -2.3829    0.0000 C   0  0  0  0  0  0  0  0  0  0  0  0
    0.3037   -2.3829    0.0000 C   0  0  0  0  0  0  0  0  0  0  0  0
    1.0883   -2.1280    0.0000 O   0  0  0  0  0  0  0  0  0  0  0  0
   -0.3638   -1.8980    0.0000 C   0  0  1  0  0  0  0  0  0  0  0  0
   -0.3638   -1.0730    0.0000 N   0  0  0  0  0  0  0  0  0  0  0  0
   -1.0782   -0.6605    0.0000 S   0  0  0  0  0  0  0  0  0  0  0  0
   -1.4907   -1.3750    0.0000 O   0  0  0  0  0  0  0  0  0  0  0  0
   -0.6657    0.0540    0.0000 O   0  0  0  0  0  0  0  0  0  0  0  0
   -1.7927   -0.2480    0.0000 C   0  0  0  0  0  0  0  0  0  0  0  0
   -2.5464   -0.5835    0.0000 N   0  0  0  0  0  0  0  0  0  0  0  0
   -3.0984    0.0296    0.0000 N   0  0  0  0  0  0  0  0  0  0  0  0
   -1.8789    0.5725    0.0000 N   0  0  0  0  0  0  0  0  0  0  0  0
   -2.6859    0.7440    0.0000 C   0  0  0  0  0  0  0  0  0  0  0  0
   -3.0215    1.4977    0.0000 C   0  0  0  0  0  0  0  0  0  0  0  0
   -3.8284    1.6692    0.0000 C   0  0  0  0  0  0  0  0  0  0  0  0
   -3.9147    2.4897    0.0000 C   0  0  0  0  0  0  0  0  0  0  0  0
   -3.1610    2.8253    0.0000 C   0  0  0  0  0  0  0  0  0  0  0  0
   -2.6090    2.2122    0.0000 S   0  0  0  0  0  0  0  0  0  0  0  0
   -2.9895    3.6322    0.0000 Cl  0  0  0  0  0  0  0  0  0  0  0  0
    0.8769   -4.3074    0.0000 H   0  0  0  0  0  0  0  0  0  0  0  0
   -0.8840   -1.6329    0.0000 H   0  0  0  0  0  0  0  0  0  0  0  0
    1.9387   -4.1923    0.0000 H   0  0  0  0  0  0  0  0  0  0  0  0
    2.5676   -5.0580    0.0000 H   0  0  0  0  0  0  0  0  0  0  0  0
    3.0525   -5.7254    0.0000 H   0  0  0  0  0  0  0  0  0  0  0  0
    2.6174   -6.7029    0.0000 H   0  0  0  0  0  0  0  0  0  0  0  0
    0.3972   -7.6547    0.0000 H   0  0  0  0  0  0  0  0  0  0  0  0
   -0.2317   -6.7890    0.0000 H   0  0  0  0  0  0  0  0  0  0  0  0
   -0.7166   -6.1217    0.0000 H   0  0  0  0  0  0  0  0  0  0  0  0
   -0.0877   -6.9873    0.0000 H   0  0  0  0  0  0  0  0  0  0  0  0
    1.9831   -4.6143    0.0000 H   0  0  0  0  0  0  0  0  0  0  0  0
    1.7892   -2.7712    0.0000 H   0  0  0  0  0  0  0  0  0  0  0  0
    2.4182   -3.6368    0.0000 H   0  0  0  0  0  0  0  0  0  0  0  0
   -1.4052   -4.0331    0.0000 H   0  0  0  0  0  0  0  0  0  0  0  0
   -1.8331   -3.0001    0.0000 H   0  0  0  0  0  0  0  0  0  0  0  0
   -2.0488   -2.0522    0.0000 H   0  0  0  0  0  0  0  0  0  0  0  0
   -1.1986   -1.3261    0.0000 H   0  0  0  0  0  0  0  0  0  0  0  0
    0.5196   -0.5630    0.0000 H   0  0  0  0  0  0  0  0  0  0  0  0
   -4.0775   -0.0733    0.0000 H   0  0  0  0  0  0  0  0  0  0  0  0
   -4.5953    0.9786    0.0000 H   0  0  0  0  0  0  0  0  0  0  0  0
   -4.8085    3.0057    0.0000 H   0  0  0  0  0  0  0  0  0  0  0  0
  1  2  2  0  0  0  0
  2  3  1  0  0  0  0
  2  9  1  0  0  0  0
  3  4  1  0  0  0  0
  3  8  1  0  0  0  0
  4  5  1  0  0  0  0
  4 34  1  0  0  0  0
  4 35  1  0  0  0  0
  5  6  1  0  0  0  0
  5 36  1  0  0  0  0
  5 37  1  0  0  0  0
  6  7  1  0  0  0  0
  7  8  1  0  0  0  0
  7 38  1  0  0  0  0
  7 39  1  0  0  0  0
  8 40  1  0  0  0  0
  8 41  1  0  0  0  0
  9 32  1  6  0  0  0
  9 10  1  0  0  0  0
  9 11  1  0  0  0  0
 10 42  1  0  0  0  0
 10 43  1  0  0  0  0
 10 44  1  0  0  0  0
 11 12  1  0  0  0  0
 11 14  1  0  0  0  0
 12 13  1  0  0  0  0
 12 45  1  0  0  0  0
 12 46  1  0  0  0  0
 13 16  1  0  0  0  0
 13 47  1  0  0  0  0
 13 48  1  0  0  0  0
 14 15  2  0  0  0  0
 14 16  1  0  0  0  0
 16 17  1  0  0  0  0
 16 33  1  1  0  0  0
 17 18  1  0  0  0  0
 17 49  1  0  0  0  0
 18 20  2  0  0  0  0
 18 21  1  0  0  0  0
 18 19  2  0  0  0  0
 21 22  2  0  0  0  0
 21 24  1  0  0  0  0
 22 23  1  0  0  0  0
 23 25  1  0  0  0  0
 23 50  1  0  0  0  0
 24 25  2  0  0  0  0
 25 26  1  0  0  0  0
 26 27  2  0  0  0  0
 26 30  1  0  0  0  0
 27 28  1  0  0  0  0
 27 51  1  0  0  0  0
 28 29  2  0  0  0  0
 28 52  1  0  0  0  0
 29 30  1  0  0  0  0
 29 31  1  0  0  0  0
M  END
>  <DRUGBANK_ID>
DB07804

>  <COMMON_NAME>
5-(5-CHLORO-2-THIENYL)-N-{(3S)-1-[(1S)-1-METHYL-2-MORPHOLIN-4-YL-2-OXOETHYL]-2-OXOPYRROLIDIN-3-YL}-1H-1,2,4-TRIAZOLE-3-SULFONAMIDE

$$$$
