559
 OpenBabel10282417072D

 68 71  0  0  0  0  0  0  0  0999 V2000
    5.9370    1.4207    0.0000 S   0  0  0  0  0  0  0  0  0  0  0  0
    6.3495    0.7062    0.0000 O   0  0  0  0  0  0  0  0  0  0  0  0
    5.5245    2.1351    0.0000 O   0  0  0  0  0  0  0  0  0  0  0  0
    3.7935    0.1832    0.0000 O   0  0  0  0  0  0  0  0  0  0  0  0
    3.7935   -1.4669    0.0000 O   0  0  0  0  0  0  0  0  0  0  0  0
    2.3645    1.0082    0.0000 O   0  0  0  0  0  0  0  0  0  0  0  0
    3.0791   -3.5294    0.0000 O   0  0  0  0  0  0  0  0  0  0  0  0
    5.2224    1.0082    0.0000 N   0  0  0  0  0  0  0  0  0  0  0  0
    5.9370   -0.2294    0.0000 N   0  0  0  0  0  0  0  0  0  0  0  0
    5.2224   -1.4669    0.0000 N   0  0  0  0  0  0  0  0  0  0  0  0
    7.3659   -1.0544    0.0000 N   0  0  0  0  0  0  0  0  0  0  0  0
    6.6515   -2.2919    0.0000 N   0  0  0  0  0  0  0  0  0  0  0  0
    8.7949    3.0707    0.0000 C   0  0  0  0  0  0  0  0  0  0  0  0
    8.0804    2.6582    0.0000 C   0  0  0  0  0  0  0  0  0  0  0  0
    9.5094    3.4832    0.0000 C   0  0  0  0  0  0  0  0  0  0  0  0
    8.3824    3.7852    0.0000 C   0  0  0  0  0  0  0  0  0  0  0  0
    9.2075    2.3563    0.0000 C   0  0  0  0  0  0  0  0  0  0  0  0
    8.0804    1.8332    0.0000 C   0  0  0  0  0  0  0  0  0  0  0  0
    7.3659    3.0707    0.0000 C   0  0  0  0  0  0  0  0  0  0  0  0
    6.6515    1.8332    0.0000 C   0  0  0  0  0  0  0  0  0  0  0  0
    7.3659    1.4207    0.0000 C   0  0  0  0  0  0  0  0  0  0  0  0
    6.6515    2.6582    0.0000 C   0  0  0  0  0  0  0  0  0  0  0  0
    5.2224    0.1832    0.0000 C   0  0  0  0  0  0  0  0  0  0  0  0
    4.5080   -0.2294    0.0000 C   0  0  0  0  0  0  0  0  0  0  0  0
    4.5080   -1.0544    0.0000 C   0  0  0  0  0  0  0  0  0  0  0  0
    5.9370   -1.0544    0.0000 C   0  0  0  0  0  0  0  0  0  0  0  0
    3.0791   -0.2294    0.0000 C   0  0  0  0  0  0  0  0  0  0  0  0
    6.6515   -1.4669    0.0000 C   0  0  0  0  0  0  0  0  0  0  0  0
    3.7935   -2.2919    0.0000 C   0  0  0  0  0  0  0  0  0  0  0  0
    2.3645    0.1832    0.0000 C   0  0  0  0  0  0  0  0  0  0  0  0
    3.0791   -1.0544    0.0000 C   0  0  0  0  0  0  0  0  0  0  0  0
    1.6500   -0.2294    0.0000 C   0  0  0  0  0  0  0  0  0  0  0  0
    3.0791   -2.7044    0.0000 C   0  0  0  0  0  0  0  0  0  0  0  0
    2.3645   -1.4669    0.0000 C   0  0  0  0  0  0  0  0  0  0  0  0
    1.6500   -1.0544    0.0000 C   0  0  0  0  0  0  0  0  0  0  0  0
    8.0804   -1.4669    0.0000 C   0  0  0  0  0  0  0  0  0  0  0  0
    7.3659   -2.7044    0.0000 C   0  0  0  0  0  0  0  0  0  0  0  0
    8.0804   -2.2919    0.0000 C   0  0  0  0  0  0  0  0  0  0  0  0
    1.6500    1.4207    0.0000 C   0  0  0  0  0  0  0  0  0  0  0  0
    2.2391   -4.0144    0.0000 H   0  0  0  0  0  0  0  0  0  0  0  0
    4.3698    1.5005    0.0000 H   0  0  0  0  0  0  0  0  0  0  0  0
   10.4360    2.9482    0.0000 H   0  0  0  0  0  0  0  0  0  0  0  0
    9.5094    4.5532    0.0000 H   0  0  0  0  0  0  0  0  0  0  0  0
   10.4361    4.0182    0.0000 H   0  0  0  0  0  0  0  0  0  0  0  0
    8.9174    4.7118    0.0000 H   0  0  0  0  0  0  0  0  0  0  0  0
    7.3124    3.7852    0.0000 H   0  0  0  0  0  0  0  0  0  0  0  0
    7.8474    4.7119    0.0000 H   0  0  0  0  0  0  0  0  0  0  0  0
    8.6726    1.4296    0.0000 H   0  0  0  0  0  0  0  0  0  0  0  0
   10.2775    2.3565    0.0000 H   0  0  0  0  0  0  0  0  0  0  0  0
    9.7426    1.4297    0.0000 H   0  0  0  0  0  0  0  0  0  0  0  0
    8.9741    1.3172    0.0000 H   0  0  0  0  0  0  0  0  0  0  0  0
    7.3659    4.1027    0.0000 H   0  0  0  0  0  0  0  0  0  0  0  0
    7.3659    0.3887    0.0000 H   0  0  0  0  0  0  0  0  0  0  0  0
    5.7578    3.1742    0.0000 H   0  0  0  0  0  0  0  0  0  0  0  0
    4.7202   -2.8269    0.0000 H   0  0  0  0  0  0  0  0  0  0  0  0
    3.7935   -3.3619    0.0000 H   0  0  0  0  0  0  0  0  0  0  0  0
    3.9728   -1.5704    0.0000 H   0  0  0  0  0  0  0  0  0  0  0  0
    0.7562    0.2866    0.0000 H   0  0  0  0  0  0  0  0  0  0  0  0
    2.1524   -2.1694    0.0000 H   0  0  0  0  0  0  0  0  0  0  0  0
    3.0791   -1.6344    0.0000 H   0  0  0  0  0  0  0  0  0  0  0  0
    2.3645   -2.4989    0.0000 H   0  0  0  0  0  0  0  0  0  0  0  0
    0.7563   -1.5704    0.0000 H   0  0  0  0  0  0  0  0  0  0  0  0
    8.9741   -0.9509    0.0000 H   0  0  0  0  0  0  0  0  0  0  0  0
    7.3659   -3.7364    0.0000 H   0  0  0  0  0  0  0  0  0  0  0  0
    8.9741   -2.8079    0.0000 H   0  0  0  0  0  0  0  0  0  0  0  0
    1.6500    2.4907    0.0000 H   0  0  0  0  0  0  0  0  0  0  0  0
    0.7234    0.8857    0.0000 H   0  0  0  0  0  0  0  0  0  0  0  0
    0.7233    1.9557    0.0000 H   0  0  0  0  0  0  0  0  0  0  0  0
  1  2  2  0  0  0  0
  1  3  2  0  0  0  0
  1  8  1  0  0  0  0
  1 20  1  0  0  0  0
  4 24  1  0  0  0  0
  4 27  1  0  0  0  0
  5 25  1  0  0  0  0
  5 29  1  0  0  0  0
  6 30  1  0  0  0  0
  6 39  1  0  0  0  0
  7 33  1  0  0  0  0
  7 40  1  0  0  0  0
  8 23  1  0  0  0  0
  8 41  1  0  0  0  0
  9 23  1  0  0  0  0
  9 26  2  0  0  0  0
 10 25  2  0  0  0  0
 10 26  1  0  0  0  0
 11 28  2  0  0  0  0
 11 36  1  0  0  0  0
 12 28  1  0  0  0  0
 12 37  2  0  0  0  0
 13 14  1  0  0  0  0
 13 15  1  0  0  0  0
 13 16  1  0  0  0  0
 13 17  1  0  0  0  0
 14 18  2  0  0  0  0
 14 19  1  0  0  0  0
 15 42  1  0  0  0  0
 15 43  1  0  0  0  0
 15 44  1  0  0  0  0
 16 45  1  0  0  0  0
 16 46  1  0  0  0  0
 16 47  1  0  0  0  0
 17 48  1  0  0  0  0
 17 49  1  0  0  0  0
 17 50  1  0  0  0  0
 18 21  1  0  0  0  0
 18 51  1  0  0  0  0
 19 22  2  0  0  0  0
 19 52  1  0  0  0  0
 20 21  2  0  0  0  0
 20 22  1  0  0  0  0
 21 53  1  0  0  0  0
 22 54  1  0  0  0  0
 23 24  2  0  0  0  0
 24 25  1  0  0  0  0
 26 28  1  0  0  0  0
 27 30  1  0  0  0  0
 27 31  2  0  0  0  0
 29 33  1  0  0  0  0
 29 55  1  0  0  0  0
 29 56  1  0  0  0  0
 30 32  2  0  0  0  0
 31 34  1  0  0  0  0
 31 57  1  0  0  0  0
 32 35  1  0  0  0  0
 32 58  1  0  0  0  0
 33 59  1  0  0  0  0
 33 60  1  0  0  0  0
 34 35  2  0  0  0  0
 34 61  1  0  0  0  0
 35 62  1  0  0  0  0
 36 38  2  0  0  0  0
 36 63  1  0  0  0  0
 37 38  1  0  0  0  0
 37 64  1  0  0  0  0
 38 65  1  0  0  0  0
 39 66  1  0  0  0  0
 39 67  1  0  0  0  0
 39 68  1  0  0  0  0
M  END
>  <DRUGBANK_ID>
DB00559

>  <SECONDARY_ACCESSION_NUMBERS>
APRD00829

>  <COMMON_NAME>
Bosentan

>  <CAS_NUMBER>
147536-97-8

>  <UNII>
XUL93R30K2

>  <SYNONYMS>
4-(1,1-Dimethylethyl)-N-(6-(2-hydroxyethoxy)-5-(2-methoxyphenoxy)-(2,2'-bipyrimidin)-4-yl) benzenesulfornamide; bosent√°n; Bosentan; bosentan anhydrous; bosentanum; p-tert-Butyl-N-(6-(2-hydroxyethoxy)-5-(o-methoxyphenoxy)-2-(2-pyrimidinyl)-4-pyrimidinyl)benzenesulfonamide

$$$$
