
 OpenBabel10282417072D

 16 15  0  0  1  0  0  0  0  0999 V2000
    1.9520    1.9520    0.0000 O   0  0  0  0  0  0  0  0  0  0  0  0
    1.9520    1.1270    0.0000 C   0  0  1  0  0  0  0  0  0  0  0  0
    1.2375    0.7145    0.0000 C   0  0  0  0  0  0  0  0  0  0  0  0
    0.5230    1.1270    0.0000 S   0  0  0  0  0  0  0  0  0  0  0  0
   -0.1914    1.5395    0.0000 O   0  0  0  0  0  0  0  0  0  0  0  0
    0.1105    0.4125    0.0000 O   0  0  0  0  0  0  0  0  0  0  0  0
    0.9355    1.8414    0.0000 O   0  0  0  0  0  0  0  0  0  0  0  0
    2.6664    0.7145    0.0000 C   0  0  0  0  0  0  0  0  0  0  0  0
    3.3809    1.1270    0.0000 O   0  0  0  0  0  0  0  0  0  0  0  0
    2.6664   -0.1105    0.0000 O   0  0  0  0  0  0  0  0  0  0  0  0
    2.7920    2.4370    0.0000 H   0  0  0  0  0  0  0  0  0  0  0  0
    1.0254    1.6620    0.0000 H   0  0  0  0  0  0  0  0  0  0  0  0
    1.2375   -0.3555    0.0000 H   0  0  0  0  0  0  0  0  0  0  0  0
    0.3109    0.1795    0.0000 H   0  0  0  0  0  0  0  0  0  0  0  0
   -0.1914    2.5095    0.0000 H   0  0  0  0  0  0  0  0  0  0  0  0
    4.1924    0.6585    0.0000 H   0  0  0  0  0  0  0  0  0  0  0  0
  1 11  1  0  0  0  0
  2  1  1  0  0  0  0
  2  3  1  0  0  0  0
  2  8  1  0  0  0  0
  2 12  1  1  0  0  0
  3  4  1  0  0  0  0
  3 13  1  0  0  0  0
  3 14  1  0  0  0  0
  4  5  1  0  0  0  0
  4  6  2  0  0  0  0
  4  7  2  0  0  0  0
  5 15  1  0  0  0  0
  8  9  1  0  0  0  0
  8 10  2  0  0  0  0
  9 16  1  0  0  0  0
M  END
>  <DRUGBANK_ID>
DB02334

>  <SECONDARY_ACCESSION_NUMBERS>
EXPT00192

>  <COMMON_NAME>
(R)-2-Hydroxy-3-Sulfopropanoic Acid

$$$$
