GT9
 OpenBabel10282417072D

 41 40  0  0  0  0  0  0  0  0999 V2000
    3.4833    1.0627    0.0000 N   0  0  0  0  0  0  0  0  0  0  0  0
    3.4833    0.2377    0.0000 C   0  0  1  0  0  0  0  0  0  0  0  0
    2.7688   -0.1748    0.0000 C   0  0  0  0  0  0  0  0  0  0  0  0
    2.0544    0.2377    0.0000 S   0  0  0  0  0  0  0  0  0  0  0  0
    4.1978   -0.1748    0.0000 C   0  0  0  0  0  0  0  0  0  0  0  0
    4.9122    0.2377    0.0000 O   0  0  0  0  0  0  0  0  0  0  0  0
    4.1978   -0.9998    0.0000 O   0  0  0  0  0  0  0  0  0  0  0  0
    1.3399   -0.1748    0.0000 C   0  0  0  0  0  0  0  0  0  0  0  0
    0.6254    0.2377    0.0000 C   0  0  0  0  0  0  0  0  0  0  0  0
   -0.0891   -0.1748    0.0000 C   0  0  0  0  0  0  0  0  0  0  0  0
   -0.8035    0.2377    0.0000 C   0  0  0  0  0  0  0  0  0  0  0  0
   -1.5180   -0.1748    0.0000 C   0  0  0  0  0  0  0  0  0  0  0  0
   -2.2325    0.2377    0.0000 C   0  0  0  0  0  0  0  0  0  0  0  0
   -2.9469   -0.1748    0.0000 C   0  0  0  0  0  0  0  0  0  0  0  0
   -3.6614    0.2377    0.0000 C   0  0  0  0  0  0  0  0  0  0  0  0
   -4.3759   -0.1748    0.0000 C   0  0  0  0  0  0  0  0  0  0  0  0
    2.9776    0.5297    0.0000 H   0  0  0  0  0  0  0  0  0  0  0  0
    4.3666    1.5727    0.0000 H   0  0  0  0  0  0  0  0  0  0  0  0
    2.6000    1.5727    0.0000 H   0  0  0  0  0  0  0  0  0  0  0  0
    2.7688   -1.2448    0.0000 H   0  0  0  0  0  0  0  0  0  0  0  0
    1.8421   -0.7098    0.0000 H   0  0  0  0  0  0  0  0  0  0  0  0
    3.3863   -1.4683    0.0000 H   0  0  0  0  0  0  0  0  0  0  0  0
    1.3399   -1.2448    0.0000 H   0  0  0  0  0  0  0  0  0  0  0  0
    0.4133   -0.7098    0.0000 H   0  0  0  0  0  0  0  0  0  0  0  0
    0.6254    1.3077    0.0000 H   0  0  0  0  0  0  0  0  0  0  0  0
   -0.3012    0.7727    0.0000 H   0  0  0  0  0  0  0  0  0  0  0  0
   -0.0891   -1.2448    0.0000 H   0  0  0  0  0  0  0  0  0  0  0  0
   -1.0158   -0.7098    0.0000 H   0  0  0  0  0  0  0  0  0  0  0  0
   -0.8035    1.3077    0.0000 H   0  0  0  0  0  0  0  0  0  0  0  0
   -1.7301    0.7727    0.0000 H   0  0  0  0  0  0  0  0  0  0  0  0
   -1.5180   -1.2448    0.0000 H   0  0  0  0  0  0  0  0  0  0  0  0
   -2.4446   -0.7098    0.0000 H   0  0  0  0  0  0  0  0  0  0  0  0
   -2.2325    1.3077    0.0000 H   0  0  0  0  0  0  0  0  0  0  0  0
   -3.1592    0.7727    0.0000 H   0  0  0  0  0  0  0  0  0  0  0  0
   -2.9469   -1.2448    0.0000 H   0  0  0  0  0  0  0  0  0  0  0  0
   -3.8735   -0.7098    0.0000 H   0  0  0  0  0  0  0  0  0  0  0  0
   -3.6614    1.3077    0.0000 H   0  0  0  0  0  0  0  0  0  0  0  0
   -4.5880    0.7727    0.0000 H   0  0  0  0  0  0  0  0  0  0  0  0
   -5.3025    0.3602    0.0000 H   0  0  0  0  0  0  0  0  0  0  0  0
   -4.3759   -1.2448    0.0000 H   0  0  0  0  0  0  0  0  0  0  0  0
   -5.3026   -0.7098    0.0000 H   0  0  0  0  0  0  0  0  0  0  0  0
  1 18  1  0  0  0  0
  1 19  1  0  0  0  0
  2  1  1  0  0  0  0
  2  3  1  0  0  0  0
  2  5  1  0  0  0  0
  2 17  1  1  0  0  0
  3  4  1  0  0  0  0
  3 20  1  0  0  0  0
  3 21  1  0  0  0  0
  4  8  1  0  0  0  0
  5  6  2  0  0  0  0
  5  7  1  0  0  0  0
  7 22  1  0  0  0  0
  8  9  1  0  0  0  0
  8 23  1  0  0  0  0
  8 24  1  0  0  0  0
  9 10  1  0  0  0  0
  9 25  1  0  0  0  0
  9 26  1  0  0  0  0
 10 11  1  0  0  0  0
 10 27  1  0  0  0  0
 10 28  1  0  0  0  0
 11 12  1  0  0  0  0
 11 29  1  0  0  0  0
 11 30  1  0  0  0  0
 12 13  1  0  0  0  0
 12 31  1  0  0  0  0
 12 32  1  0  0  0  0
 13 14  1  0  0  0  0
 13 33  1  0  0  0  0
 13 34  1  0  0  0  0
 14 15  1  0  0  0  0
 14 35  1  0  0  0  0
 14 36  1  0  0  0  0
 15 16  1  0  0  0  0
 15 37  1  0  0  0  0
 15 38  1  0  0  0  0
 16 39  1  0  0  0  0
 16 40  1  0  0  0  0
 16 41  1  0  0  0  0
M  END
>  <DRUGBANK_ID>
DB07849

>  <COMMON_NAME>
S-NONYL-CYSTEINE

$$$$
