
 OpenBabel10282417072D

151154  0  0  0  0  0  0  0  0999 V2000
   -3.5644    3.0356    0.0000 N   0  0  0  0  0  0  0  0  0  0  0  0
   -2.8630    3.4482    0.0000 C   0  0  2  0  0  0  0  0  0  0  0  0
   -3.5644    2.2106    0.0000 C   0  0  0  0  0  0  0  0  0  0  0  0
   -4.3070    3.4482    0.0000 C   0  0  0  0  0  0  0  0  0  0  0  0
   -2.1617    3.0356    0.0000 C   0  0  0  0  0  0  0  0  0  0  0  0
   -2.8630    4.2732    0.0000 C   0  0  0  0  0  0  0  0  0  0  0  0
   -4.3070    1.7981    0.0000 C   0  0  0  0  0  0  0  0  0  0  0  0
   -2.8630    1.7981    0.0000 O   0  0  0  0  0  0  0  0  0  0  0  0
   -4.3070    4.2732    0.0000 C   0  0  0  0  0  0  0  0  0  0  0  0
   -1.4604    3.4482    0.0000 O   0  0  0  0  0  0  0  0  0  0  0  0
   -2.1617    2.3755    0.0000 O   0  0  0  0  0  0  0  0  0  0  0  0
   -3.5644    4.7270    0.0000 C   0  0  0  0  0  0  0  0  0  0  0  0
   -4.3070    0.9729    0.0000 C   0  0  2  0  0  0  0  0  0  0  0  0
   -5.0083    2.2518    0.0000 O   0  0  0  0  0  0  0  0  0  0  0  0
   -0.7178    3.0356    0.0000 C   0  0  2  0  0  0  0  0  0  0  0  0
   -3.6057    0.5603    0.0000 O   0  0  0  0  0  0  0  0  0  0  0  0
   -5.0496    0.5603    0.0000 C   0  0  1  0  0  0  0  0  0  0  0  0
   -3.6434    1.3755    0.0000 O   0  0  0  0  0  0  0  0  0  0  0  0
   -0.0165    3.4482    0.0000 C   0  0  1  0  0  0  0  0  0  0  0  0
   -0.7178    2.2106    0.0000 C   0  0  0  0  0  0  0  0  0  0  0  0
   -3.5062   -0.0988    0.0000 C   0  0  2  0  0  0  0  0  0  0  0  0
   -5.0496   -0.2234    0.0000 C   0  0  0  0  0  0  0  0  0  0  0  0
   -5.7509    1.0142    0.0000 C   0  0  0  0  0  0  0  0  0  0  0  0
    0.7260    3.0356    0.0000 C   0  0  0  0  0  0  0  0  0  0  0  0
   -0.0165    4.2732    0.0000 C   0  0  0  0  0  0  0  0  0  0  0  0
   -0.0165    1.7981    0.0000 C   0  0  0  0  0  0  0  0  0  0  0  0
   -2.9044   -0.6772    0.0000 C   0  0  0  0  0  0  0  0  0  0  0  0
   -4.3070   -0.6772    0.0000 C   0  0  0  0  0  0  0  0  0  0  0  0
    1.4275    3.4482    0.0000 C   0  0  1  0  0  0  0  0  0  0  0  0
   -0.0165    0.9729    0.0000 C   0  0  1  0  0  0  0  0  0  0  0  0
    0.7260    2.2518    0.0000 O   0  0  0  0  0  0  0  0  0  0  0  0
   -2.9044   -1.5024    0.0000 C   0  0  1  0  0  0  0  0  0  0  0  0
    2.1287    3.0356    0.0000 C   0  0  0  0  0  0  0  0  0  0  0  0
    1.4275    4.2732    0.0000 C   0  0  0  0  0  0  0  0  0  0  0  0
    0.7260    0.5603    0.0000 C   0  0  0  0  0  0  0  0  0  0  0  0
   -0.7178    0.5603    0.0000 C   0  0  0  0  0  0  0  0  0  0  0  0
   -2.2030   -1.9149    0.0000 C   0  0  0  0  0  0  0  0  0  0  0  0
   -3.6057   -1.9149    0.0000 O   0  0  0  0  0  0  0  0  0  0  0  0
    2.8300    3.4482    0.0000 C   0  0  2  0  0  0  0  0  0  0  0  0
    2.1287    4.6858    0.0000 C   0  0  0  0  0  0  0  0  0  0  0  0
    0.7260   -0.2234    0.0000 C   0  0  0  0  0  0  0  0  0  0  0  0
   -2.2030   -2.7400    0.0000 C   0  0  0  0  0  0  0  0  0  0  0  0
   -1.4604   -1.5024    0.0000 C   0  0  0  0  0  0  0  0  0  0  0  0
   -3.6057   -2.7400    0.0000 C   0  0  0  0  0  0  0  0  0  0  0  0
    2.8300    4.2732    0.0000 C   0  0  1  0  0  0  0  0  0  0  0  0
    3.5726    3.0356    0.0000 O   0  0  0  0  0  0  0  0  0  0  0  0
    1.4275   -0.6360    0.0000 C   0  0  2  0  0  0  0  0  0  0  0  0
   -0.0165   -0.6360    0.0000 C   0  0  0  0  0  0  0  0  0  0  0  0
   -1.5016   -3.1526    0.0000 C   0  0  0  0  0  0  0  0  0  0  0  0
    3.5726    4.7270    0.0000 O   0  0  0  0  0  0  0  0  0  0  0  0
    1.4275   -1.4611    0.0000 C   0  0  2  0  0  0  0  0  0  0  0  0
    2.1287   -0.2234    0.0000 O   0  0  0  0  0  0  0  0  0  0  0  0
   -1.5016   -3.9776    0.0000 C   0  0  0  0  0  0  0  0  0  0  0  0
    2.1287   -1.8736    0.0000 C   0  0  0  0  0  0  0  0  0  0  0  0
    0.6848   -1.8736    0.0000 O   0  0  0  0  0  0  0  0  0  0  0  0
   -0.7590   -4.3902    0.0000 C   0  0  0  0  0  0  0  0  0  0  0  0
    2.1287   -2.6988    0.0000 C   0  0  1  0  0  0  0  0  0  0  0  0
    2.8300   -1.4611    0.0000 O   0  0  0  0  0  0  0  0  0  0  0  0
    0.6848   -2.6988    0.0000 C   0  0  0  0  0  0  0  0  0  0  0  0
   -0.0578   -3.9776    0.0000 C   0  0  0  0  0  0  0  0  0  0  0  0
    1.4275   -3.1114    0.0000 C   0  0  0  0  0  0  0  0  0  0  0  0
    2.8300   -3.1114    0.0000 C   0  0  0  0  0  0  0  0  0  0  0  0
    0.7672   -3.9776    0.0000 C   0  0  2  0  0  0  0  0  0  0  0  0
    0.9736   -4.7616    0.0000 C   0  0  0  0  0  0  0  0  0  0  0  0
   -2.8630    2.6643    0.0000 H   0  0  0  0  0  0  0  0  0  0  0  0
   -0.7465    4.0498    0.0000 H   0  0  0  0  0  0  0  0  0  0  0  0
   -2.8093    0.3037    0.0000 H   0  0  0  0  0  0  0  0  0  0  0  0
    1.4275    2.7055    0.0000 H   0  0  0  0  0  0  0  0  0  0  0  0
    4.3082    4.3263    0.0000 C   0  0  0  0  0  0  0  0  0  0  0  0
    5.0199    4.7616    0.0000 C   0  0  0  0  0  0  0  0  0  0  0  0
    5.7509    4.3638    0.0000 O   0  0  0  0  0  0  0  0  0  0  0  0
    4.2803    3.4599    0.0000 C   0  0  0  0  0  0  0  0  0  0  0  0
   -5.2292    2.9056    0.0000 H   0  0  0  0  0  0  0  0  0  0  0  0
   -5.2358    3.9794    0.0000 H   0  0  0  0  0  0  0  0  0  0  0  0
   -1.9231    4.7846    0.0000 H   0  0  0  0  0  0  0  0  0  0  0  0
   -2.8224    5.3424    0.0000 H   0  0  0  0  0  0  0  0  0  0  0  0
   -5.2402    4.7966    0.0000 H   0  0  0  0  0  0  0  0  0  0  0  0
   -4.3270    5.3430    0.0000 H   0  0  0  0  0  0  0  0  0  0  0  0
   -3.5506    5.7969    0.0000 H   0  0  0  0  0  0  0  0  0  0  0  0
   -4.4943    5.2564    0.0000 H   0  0  0  0  0  0  0  0  0  0  0  0
   -5.0136    1.6297    0.0000 H   0  0  0  0  0  0  0  0  0  0  0  0
   -2.7930    0.9089    0.0000 H   0  0  0  0  0  0  0  0  0  0  0  0
   -0.9453    3.9794    0.0000 H   0  0  0  0  0  0  0  0  0  0  0  0
   -1.6466    1.6794    0.0000 H   0  0  0  0  0  0  0  0  0  0  0  0
   -0.7243    1.1406    0.0000 H   0  0  0  0  0  0  0  0  0  0  0  0
   -5.9828   -0.7468    0.0000 H   0  0  0  0  0  0  0  0  0  0  0  0
   -5.0696   -1.2932    0.0000 H   0  0  0  0  0  0  0  0  0  0  0  0
   -5.6965    2.0828    0.0000 H   0  0  0  0  0  0  0  0  0  0  0  0
   -6.7035    0.5270    0.0000 H   0  0  0  0  0  0  0  0  0  0  0  0
   -6.6492    1.5956    0.0000 H   0  0  0  0  0  0  0  0  0  0  0  0
    0.7391    1.9657    0.0000 H   0  0  0  0  0  0  0  0  0  0  0  0
    1.6580    2.5100    0.0000 H   0  0  0  0  0  0  0  0  0  0  0  0
    0.9101    4.8082    0.0000 H   0  0  0  0  0  0  0  0  0  0  0  0
   -0.9431    4.8082    0.0000 H   0  0  0  0  0  0  0  0  0  0  0  0
   -0.0165    5.3432    0.0000 H   0  0  0  0  0  0  0  0  0  0  0  0
   -1.9200   -0.2580    0.0000 H   0  0  0  0  0  0  0  0  0  0  0  0
   -2.0118   -1.2672    0.0000 H   0  0  0  0  0  0  0  0  0  0  0  0
   -4.2658   -1.7464    0.0000 H   0  0  0  0  0  0  0  0  0  0  0  0
   -5.2300   -1.2185    0.0000 H   0  0  0  0  0  0  0  0  0  0  0  0
   -0.9453    1.5041    0.0000 H   0  0  0  0  0  0  0  0  0  0  0  0
   -3.8332   -0.9712    0.0000 H   0  0  0  0  0  0  0  0  0  0  0  0
    2.1287    1.9656    0.0000 H   0  0  0  0  0  0  0  0  0  0  0  0
    3.0575    2.5044    0.0000 H   0  0  0  0  0  0  0  0  0  0  0  0
    0.4987    4.8044    0.0000 H   0  0  0  0  0  0  0  0  0  0  0  0
    1.4209    5.3432    0.0000 H   0  0  0  0  0  0  0  0  0  0  0  0
    1.6155    1.0836    0.0000 H   0  0  0  0  0  0  0  0  0  0  0  0
   -1.6488    1.0877    0.0000 H   0  0  0  0  0  0  0  0  0  0  0  0
   -0.7090   -0.5097    0.0000 H   0  0  0  0  0  0  0  0  0  0  0  0
   -1.6400    0.0177    0.0000 H   0  0  0  0  0  0  0  0  0  0  0  0
    2.8432    2.3783    0.0000 H   0  0  0  0  0  0  0  0  0  0  0  0
    2.1287    5.7558    0.0000 H   0  0  0  0  0  0  0  0  0  0  0  0
    3.0575    5.2170    0.0000 H   0  0  0  0  0  0  0  0  0  0  0  0
   -3.0988   -3.2524    0.0000 H   0  0  0  0  0  0  0  0  0  0  0  0
   -0.5427   -2.0527    0.0000 H   0  0  0  0  0  0  0  0  0  0  0  0
   -1.4427   -0.4325    0.0000 H   0  0  0  0  0  0  0  0  0  0  0  0
   -0.5250   -0.9828    0.0000 H   0  0  0  0  0  0  0  0  0  0  0  0
   -4.5323   -3.2750    0.0000 H   0  0  0  0  0  0  0  0  0  0  0  0
   -2.6791   -3.2750    0.0000 H   0  0  0  0  0  0  0  0  0  0  0  0
   -3.6057   -3.8100    0.0000 H   0  0  0  0  0  0  0  0  0  0  0  0
    3.7632    3.7498    0.0000 H   0  0  0  0  0  0  0  0  0  0  0  0
    1.4274    0.4340    0.0000 H   0  0  0  0  0  0  0  0  0  0  0  0
   -0.9343   -0.0859    0.0000 H   0  0  0  0  0  0  0  0  0  0  0  0
   -0.0340   -1.7059    0.0000 H   0  0  0  0  0  0  0  0  0  0  0  0
   -0.9518   -1.1557    0.0000 H   0  0  0  0  0  0  0  0  0  0  0  0
   -0.6058   -2.6402    0.0000 H   0  0  0  0  0  0  0  0  0  0  0  0
    0.5053   -0.9184    0.0000 H   0  0  0  0  0  0  0  0  0  0  0  0
    2.9727   -0.7014    0.0000 H   0  0  0  0  0  0  0  0  0  0  0  0
   -2.3911   -4.5009    0.0000 H   0  0  0  0  0  0  0  0  0  0  0  0
   -0.7462   -5.4221    0.0000 H   0  0  0  0  0  0  0  0  0  0  0  0
    3.0575   -2.1676    0.0000 H   0  0  0  0  0  0  0  0  0  0  0  0
   -0.2418   -3.2338    0.0000 H   0  0  0  0  0  0  0  0  0  0  0  0
    1.6114   -3.2338    0.0000 H   0  0  0  0  0  0  0  0  0  0  0  0
    0.6848   -3.7688    0.0000 H   0  0  0  0  0  0  0  0  0  0  0  0
   -0.3290   -2.9819    0.0000 H   0  0  0  0  0  0  0  0  0  0  0  0
    0.7174   -2.3110    0.0000 H   0  0  0  0  0  0  0  0  0  0  0  0
    0.3582   -3.1512    0.0000 H   0  0  0  0  0  0  0  0  0  0  0  0
    2.8212   -4.1814    0.0000 H   0  0  0  0  0  0  0  0  0  0  0  0
    3.7610   -2.5840    0.0000 H   0  0  0  0  0  0  0  0  0  0  0  0
    3.7522   -3.6540    0.0000 H   0  0  0  0  0  0  0  0  0  0  0  0
    0.1140   -4.8251    0.0000 H   0  0  0  0  0  0  0  0  0  0  0  0
    0.2137   -5.5149    0.0000 H   0  0  0  0  0  0  0  0  0  0  0  0
    2.0059   -5.0431    0.0000 H   0  0  0  0  0  0  0  0  0  0  0  0
    1.2460   -5.7963    0.0000 H   0  0  0  0  0  0  0  0  0  0  0  0
    4.3350    3.2566    0.0000 H   0  0  0  0  0  0  0  0  0  0  0  0
    5.2480    3.8148    0.0000 H   0  0  0  0  0  0  0  0  0  0  0  0
    4.9929    5.8313    0.0000 H   0  0  0  0  0  0  0  0  0  0  0  0
    5.9327    5.3198    0.0000 H   0  0  0  0  0  0  0  0  0  0  0  0
    5.7754    3.3941    0.0000 H   0  0  0  0  0  0  0  0  0  0  0  0
    5.2156    2.9403    0.0000 H   0  0  0  0  0  0  0  0  0  0  0  0
    4.2627    4.5298    0.0000 H   0  0  0  0  0  0  0  0  0  0  0  0
    5.1980    4.0101    0.0000 H   0  0  0  0  0  0  0  0  0  0  0  0
  1  2  1  0  0  0  0
  1  3  1  0  0  0  0
  1  4  1  0  0  0  0
  2  5  1  0  0  0  0
  2  6  1  0  0  0  0
  2 65  1  6  0  0  0
  3  7  1  0  0  0  0
  3  8  2  0  0  0  0
  4  9  1  0  0  0  0
  4 73  1  0  0  0  0
  4 74  1  0  0  0  0
  5 10  1  0  0  0  0
  5 11  2  0  0  0  0
  6 12  1  0  0  0  0
  6 75  1  0  0  0  0
  6 76  1  0  0  0  0
  7 13  1  0  0  0  0
  7 14  2  0  0  0  0
  9 12  1  0  0  0  0
  9 77  1  0  0  0  0
  9 78  1  0  0  0  0
 10 15  1  0  0  0  0
 12 79  1  0  0  0  0
 12 80  1  0  0  0  0
 13 16  1  0  0  0  0
 13 17  1  0  0  0  0
 13 18  1  1  0  0  0
 15 19  1  0  0  0  0
 15 20  1  0  0  0  0
 15 66  1  1  0  0  0
 17 22  1  0  0  0  0
 17 23  1  0  0  0  0
 17 81  1  6  0  0  0
 18 82  1  0  0  0  0
 19 24  1  0  0  0  0
 19 25  1  0  0  0  0
 19 83  1  1  0  0  0
 20 26  1  0  0  0  0
 20 84  1  0  0  0  0
 20 85  1  0  0  0  0
 21 16  1  0  0  0  0
 21 27  1  0  0  0  0
 21 28  1  0  0  0  0
 21 67  1  1  0  0  0
 22 28  1  0  0  0  0
 22 86  1  0  0  0  0
 22 87  1  0  0  0  0
 23 88  1  0  0  0  0
 23 89  1  0  0  0  0
 23 90  1  0  0  0  0
 24 29  1  0  0  0  0
 24 91  1  0  0  0  0
 24 92  1  0  0  0  0
 25 93  1  0  0  0  0
 25 94  1  0  0  0  0
 25 95  1  0  0  0  0
 26 30  1  0  0  0  0
 26 31  2  0  0  0  0
 27 32  1  0  0  0  0
 27 96  1  0  0  0  0
 27 97  1  0  0  0  0
 28 98  1  0  0  0  0
 28 99  1  0  0  0  0
 29 33  1  0  0  0  0
 29 34  1  0  0  0  0
 29 68  1  1  0  0  0
 30 35  1  0  0  0  0
 30 36  1  0  0  0  0
 30100  1  6  0  0  0
 32 37  1  0  0  0  0
 32 38  1  0  0  0  0
 32101  1  6  0  0  0
 33 39  1  0  0  0  0
 33102  1  0  0  0  0
 33103  1  0  0  0  0
 34 40  1  0  0  0  0
 34104  1  0  0  0  0
 34105  1  0  0  0  0
 35 41  2  0  0  0  0
 35106  1  0  0  0  0
 36107  1  0  0  0  0
 36108  1  0  0  0  0
 36109  1  0  0  0  0
 37 42  2  0  0  0  0
 37 43  1  0  0  0  0
 38 44  1  0  0  0  0
 39 45  1  0  0  0  0
 39 46  1  0  0  0  0
 39110  1  1  0  0  0
 40 45  1  0  0  0  0
 40111  1  0  0  0  0
 40112  1  0  0  0  0
 41 47  1  0  0  0  0
 41 48  1  0  0  0  0
 42 49  1  0  0  0  0
 42113  1  0  0  0  0
 43114  1  0  0  0  0
 43115  1  0  0  0  0
 43116  1  0  0  0  0
 44117  1  0  0  0  0
 44118  1  0  0  0  0
 44119  1  0  0  0  0
 45 50  1  0  0  0  0
 45120  1  6  0  0  0
 46 72  1  0  0  0  0
 47 51  1  0  0  0  0
 47 52  1  0  0  0  0
 47121  1  6  0  0  0
 48122  1  0  0  0  0
 48123  1  0  0  0  0
 48124  1  0  0  0  0
 49 53  2  0  0  0  0
 49125  1  0  0  0  0
 50 69  1  0  0  0  0
 51 54  1  0  0  0  0
 51 55  1  0  0  0  0
 51126  1  1  0  0  0
 52127  1  0  0  0  0
 53 56  1  0  0  0  0
 53128  1  0  0  0  0
 54 57  1  0  0  0  0
 54 58  2  0  0  0  0
 55 59  1  0  0  0  0
 56 60  2  0  0  0  0
 56129  1  0  0  0  0
 57 61  1  0  0  0  0
 57 62  1  0  0  0  0
 57130  1  1  0  0  0
 59131  1  0  0  0  0
 59132  1  0  0  0  0
 59133  1  0  0  0  0
 60 63  1  0  0  0  0
 60134  1  0  0  0  0
 61 63  1  0  0  0  0
 61135  1  0  0  0  0
 61136  1  0  0  0  0
 62137  1  0  0  0  0
 62138  1  0  0  0  0
 62139  1  0  0  0  0
 63 64  1  0  0  0  0
 63140  1  1  0  0  0
 64141  1  0  0  0  0
 64142  1  0  0  0  0
 64143  1  0  0  0  0
 69 70  1  0  0  0  0
 69144  1  0  0  0  0
 69145  1  0  0  0  0
 70 71  1  0  0  0  0
 70146  1  0  0  0  0
 70147  1  0  0  0  0
 71148  1  0  0  0  0
 72149  1  0  0  0  0
 72150  1  0  0  0  0
 72151  1  0  0  0  0
M  END
>  <DRUGBANK_ID>
DB01590

>  <COMMON_NAME>
Everolimus

>  <CAS_NUMBER>
159351-69-6

>  <UNII>
9HW64Q8G6G

>  <SYNONYMS>
40-O-(2-hydroxyethyl)-rapamycin; 42-O-(2-Hydroxyethyl)rapamycin; Everolimus; évérolimus

$$$$
