IPO
 OpenBabel10282417072D

 25 25  0  0  0  0  0  0  0  0999 V2000
   -0.7000    0.1437    0.0000 C   0  0  0  0  0  0  0  0  0  0  0  0
   -0.7000   -0.6813    0.0000 C   0  0  0  0  0  0  0  0  0  0  0  0
   -1.4145   -1.0938    0.0000 C   0  0  0  0  0  0  0  0  0  0  0  0
   -2.1289   -0.6813    0.0000 C   0  0  0  0  0  0  0  0  0  0  0  0
   -2.8434   -1.0938    0.0000 I   0  0  0  0  0  0  0  0  0  0  0  0
   -2.1289    0.1437    0.0000 C   0  0  0  0  0  0  0  0  0  0  0  0
   -1.4145    0.5562    0.0000 C   0  0  0  0  0  0  0  0  0  0  0  0
    0.0145    0.5562    0.0000 C   0  0  0  0  0  0  0  0  0  0  0  0
    0.7289    0.1437    0.0000 C   0  0  1  0  0  0  0  0  0  0  0  0
    0.7289   -0.6813    0.0000 N   0  0  0  0  0  0  0  0  0  0  0  0
    1.4434    0.5562    0.0000 C   0  0  0  0  0  0  0  0  0  0  0  0
    1.4434    1.3812    0.0000 O   0  0  0  0  0  0  0  0  0  0  0  0
    2.1579    0.1437    0.0000 N   0  0  0  0  0  0  0  0  0  0  0  0
    2.8724    0.5562    0.0000 O   0  0  0  0  0  0  0  0  0  0  0  0
    0.2232   -0.1483    0.0000 H   0  0  0  0  0  0  0  0  0  0  0  0
    0.1937   -1.1973    0.0000 H   0  0  0  0  0  0  0  0  0  0  0  0
   -1.4145   -2.1258    0.0000 H   0  0  0  0  0  0  0  0  0  0  0  0
   -3.0226    0.6597    0.0000 H   0  0  0  0  0  0  0  0  0  0  0  0
   -1.4145    1.5882    0.0000 H   0  0  0  0  0  0  0  0  0  0  0  0
    0.0145    1.6262    0.0000 H   0  0  0  0  0  0  0  0  0  0  0  0
    0.9412    1.0912    0.0000 H   0  0  0  0  0  0  0  0  0  0  0  0
   -0.1544   -1.1913    0.0000 H   0  0  0  0  0  0  0  0  0  0  0  0
    1.6122   -1.1913    0.0000 H   0  0  0  0  0  0  0  0  0  0  0  0
    2.1579   -0.8408    0.0000 H   0  0  0  0  0  0  0  0  0  0  0  0
    3.7124    0.0712    0.0000 H   0  0  0  0  0  0  0  0  0  0  0  0
  1  2  2  0  0  0  0
  1  7  1  0  0  0  0
  1  8  1  0  0  0  0
  2  3  1  0  0  0  0
  2 16  1  0  0  0  0
  3  4  2  0  0  0  0
  3 17  1  0  0  0  0
  4  5  1  0  0  0  0
  4  6  1  0  0  0  0
  6  7  2  0  0  0  0
  6 18  1  0  0  0  0
  7 19  1  0  0  0  0
  8  9  1  0  0  0  0
  8 20  1  0  0  0  0
  8 21  1  0  0  0  0
  9 10  1  0  0  0  0
  9 11  1  0  0  0  0
  9 15  1  1  0  0  0
 10 22  1  0  0  0  0
 10 23  1  0  0  0  0
 11 12  2  0  0  0  0
 11 13  1  0  0  0  0
 13 14  1  0  0  0  0
 13 24  1  0  0  0  0
 14 25  1  0  0  0  0
M  END
>  <DRUGBANK_ID>
DB01980

>  <SECONDARY_ACCESSION_NUMBERS>
EXPT01920

>  <COMMON_NAME>
Para-Iodo-D-Phenylalanine Hydroxamic Acid

$$$$
