
 OpenBabel10282417072D

 28 30  0  0  0  0  0  0  0  0999 V2000
   -2.5006   -0.4125    0.0000 C   0  0  0  0  0  0  0  0  0  0  0  0
   -1.0717   -0.4125    0.0000 C   0  0  0  0  0  0  0  0  0  0  0  0
   -1.0717    0.4125    0.0000 C   0  0  0  0  0  0  0  0  0  0  0  0
   -0.3572    0.8250    0.0000 C   0  0  0  0  0  0  0  0  0  0  0  0
   -0.3572    1.6500    0.0000 O   0  0  0  0  0  0  0  0  0  0  0  0
    0.3572    0.4125    0.0000 C   0  0  0  0  0  0  0  0  0  0  0  0
    0.3572   -0.4125    0.0000 C   0  0  0  0  0  0  0  0  0  0  0  0
   -0.3572   -0.8250    0.0000 C   0  0  0  0  0  0  0  0  0  0  0  0
   -0.3572   -1.6500    0.0000 O   0  0  0  0  0  0  0  0  0  0  0  0
    1.7861   -0.4125    0.0000 C   0  0  0  0  0  0  0  0  0  0  0  0
   -2.5006    0.4125    0.0000 C   0  0  0  0  0  0  0  0  0  0  0  0
    1.0716    0.8250    0.0000 C   0  0  0  0  0  0  0  0  0  0  0  0
    1.0716    1.6500    0.0000 O   0  0  0  0  0  0  0  0  0  0  0  0
    1.0716   -0.8250    0.0000 C   0  0  0  0  0  0  0  0  0  0  0  0
   -1.7861   -0.8250    0.0000 C   0  0  0  0  0  0  0  0  0  0  0  0
   -1.7861   -1.6500    0.0000 O   0  0  0  0  0  0  0  0  0  0  0  0
    1.7861    0.4125    0.0000 C   0  0  0  0  0  0  0  0  0  0  0  0
    2.5006    0.8250    0.0000 O   0  0  0  0  0  0  0  0  0  0  0  0
   -1.7861    0.8250    0.0000 C   0  0  0  0  0  0  0  0  0  0  0  0
   -1.7861    1.6500    0.0000 O   0  0  0  0  0  0  0  0  0  0  0  0
   -3.3943   -0.9285    0.0000 H   0  0  0  0  0  0  0  0  0  0  0  0
    2.6798   -0.9285    0.0000 H   0  0  0  0  0  0  0  0  0  0  0  0
   -3.3943    0.9285    0.0000 H   0  0  0  0  0  0  0  0  0  0  0  0
    1.8831    2.1185    0.0000 H   0  0  0  0  0  0  0  0  0  0  0  0
    1.0716   -1.8570    0.0000 H   0  0  0  0  0  0  0  0  0  0  0  0
   -2.5976   -2.1185    0.0000 H   0  0  0  0  0  0  0  0  0  0  0  0
    3.3121    0.3565    0.0000 H   0  0  0  0  0  0  0  0  0  0  0  0
   -0.9746    2.1185    0.0000 H   0  0  0  0  0  0  0  0  0  0  0  0
  1 15  2  0  0  0  0
  1 11  1  0  0  0  0
  1 21  1  0  0  0  0
  2  3  2  0  0  0  0
  2  8  1  0  0  0  0
  3 19  1  0  0  0  0
  3  4  1  0  0  0  0
  4  5  2  0  0  0  0
  4  6  1  0  0  0  0
  6  7  2  0  0  0  0
  6 12  1  0  0  0  0
  7 14  1  0  0  0  0
  7  8  1  0  0  0  0
  8  9  2  0  0  0  0
 10 17  1  0  0  0  0
 10 22  1  0  0  0  0
 11 23  1  0  0  0  0
 12 13  1  0  0  0  0
 13 24  1  0  0  0  0
 14 10  2  0  0  0  0
 14 25  1  0  0  0  0
 15  2  1  0  0  0  0
 15 16  1  0  0  0  0
 16 26  1  0  0  0  0
 17 12  2  0  0  0  0
 17 18  1  0  0  0  0
 18 27  1  0  0  0  0
 19 11  2  0  0  0  0
 19 20  1  0  0  0  0
 20 28  1  0  0  0  0
M  END
>  <DRUGBANK_ID>
DB08660

>  <COMMON_NAME>
Quinalizarin

>  <CAS_NUMBER>
81-61-8

>  <UNII>
6D43C3LYSG

>  <SYNONYMS>
1,2,5,8-tetrahydroxyanthracene-9,10-dione; 1,4,5,6-tetrahydroxyanthraquinone; Alizarinbordeaux; Alizarine Bordeaux B

$$$$
