
 OpenBabel10282417072D

 47 51  0  0  0  0  0  0  0  0999 V2000
    6.1696    1.7541    0.0000 C   0  0  0  0  0  0  0  0  0  0  0  0
    3.8496    5.7724    0.0000 C   0  0  0  0  0  0  0  0  0  0  0  0
    5.3812    1.5109    0.0000 C   0  0  0  0  0  0  0  0  0  0  0  0
    3.2448    5.2113    0.0000 C   0  0  0  0  0  0  0  0  0  0  0  0
    6.3531    2.5584    0.0000 C   0  0  0  0  0  0  0  0  0  0  0  0
    4.6379    5.5292    0.0000 C   0  0  0  0  0  0  0  0  0  0  0  0
    4.7764    2.0720    0.0000 C   0  0  0  0  0  0  0  0  0  0  0  0
    3.4284    4.4070    0.0000 C   0  0  0  0  0  0  0  0  0  0  0  0
    6.0498    3.8875    0.0000 C   0  0  0  0  0  0  0  0  0  0  0  0
    5.6373    4.6020    0.0000 C   0  0  0  0  0  0  0  0  0  0  0  0
    2.1350    2.9286    0.0000 C   0  0  0  0  0  0  0  0  0  0  0  0
    2.9869    2.7911    0.0000 C   0  0  0  0  0  0  0  0  0  0  0  0
    2.1350    2.1036    0.0000 C   0  0  0  0  0  0  0  0  0  0  0  0
    2.9869    2.2411    0.0000 C   0  0  0  0  0  0  0  0  0  0  0  0
    3.5639    2.1036    0.0000 C   0  0  0  0  0  0  0  0  0  0  0  0
    5.7484    3.1195    0.0000 C   0  0  0  0  0  0  0  0  0  0  0  0
    4.8215    4.7249    0.0000 C   0  0  0  0  0  0  0  0  0  0  0  0
    2.8494    3.3411    0.0000 C   0  0  3  0  0  0  0  0  0  0  0  0
    4.9600    2.8763    0.0000 C   0  0  0  0  0  0  0  0  0  0  0  0
    4.2167    4.1638    0.0000 C   0  0  0  0  0  0  0  0  0  0  0  0
    3.5639    2.9286    0.0000 C   0  0  3  0  0  0  0  0  0  0  0  0
    2.8494    1.6911    0.0000 N   0  0  3  0  0  0  0  0  0  0  0  0
    4.2784    3.3411    0.0000 N   0  0  0  0  0  0  0  0  0  0  0  0
    6.9261    1.0522    0.0000 H   0  0  0  0  0  0  0  0  0  0  0  0
    3.6200    6.7785    0.0000 H   0  0  0  0  0  0  0  0  0  0  0  0
    5.1516    0.5048    0.0000 H   0  0  0  0  0  0  0  0  0  0  0  0
    2.2587    5.5155    0.0000 H   0  0  0  0  0  0  0  0  0  0  0  0
    7.3392    2.8626    0.0000 H   0  0  0  0  0  0  0  0  0  0  0  0
    5.3944    6.2311    0.0000 H   0  0  0  0  0  0  0  0  0  0  0  0
    3.7903    1.7678    0.0000 H   0  0  0  0  0  0  0  0  0  0  0  0
    2.6719    3.7051    0.0000 H   0  0  0  0  0  0  0  0  0  0  0  0
    7.1168    3.9675    0.0000 H   0  0  0  0  0  0  0  0  0  0  0  0
    6.6852    3.0266    0.0000 H   0  0  0  0  0  0  0  0  0  0  0  0
    6.2400    5.4861    0.0000 H   0  0  0  0  0  0  0  0  0  0  0  0
    5.2094    5.5827    0.0000 H   0  0  0  0  0  0  0  0  0  0  0  0
    1.2083    3.4636    0.0000 H   0  0  0  0  0  0  0  0  0  0  0  0
    2.1350    3.9986    0.0000 H   0  0  0  0  0  0  0  0  0  0  0  0
    4.0489    2.9218    0.0000 H   0  0  0  0  0  0  0  0  0  0  0  0
    3.5925    3.6732    0.0000 H   0  0  0  0  0  0  0  0  0  0  0  0
    1.2083    1.5686    0.0000 H   0  0  0  0  0  0  0  0  0  0  0  0
    2.1350    1.0336    0.0000 H   0  0  0  0  0  0  0  0  0  0  0  0
    4.0489    2.1104    0.0000 H   0  0  0  0  0  0  0  0  0  0  0  0
    3.5925    1.3590    0.0000 H   0  0  0  0  0  0  0  0  0  0  0  0
    4.4905    1.5686    0.0000 H   0  0  0  0  0  0  0  0  0  0  0  0
    3.5639    1.0336    0.0000 H   0  0  0  0  0  0  0  0  0  0  0  0
    2.4317    2.3560    0.0000 H   0  0  0  0  0  0  0  0  0  0  0  0
    2.6373    2.3936    0.0000 H   0  0  0  0  0  0  0  0  0  0  0  0
  1 24  1  0  0  0  0
  2 25  1  0  0  0  0
  3  1  2  0  0  0  0
  3 26  1  0  0  0  0
  4  2  2  0  0  0  0
  4 27  1  0  0  0  0
  5  1  1  0  0  0  0
  5 28  1  0  0  0  0
  6  2  1  0  0  0  0
  6 29  1  0  0  0  0
  7  3  1  0  0  0  0
  7 30  1  0  0  0  0
  8  4  1  0  0  0  0
  8 31  1  0  0  0  0
  9 32  1  0  0  0  0
  9 33  1  0  0  0  0
 10  9  1  0  0  0  0
 10 34  1  0  0  0  0
 10 35  1  0  0  0  0
 11 36  1  0  0  0  0
 11 37  1  0  0  0  0
 12 38  1  0  0  0  0
 12 39  1  0  0  0  0
 13 11  1  0  0  0  0
 13 40  1  0  0  0  0
 13 41  1  0  0  0  0
 14 12  1  0  0  0  0
 14 42  1  0  0  0  0
 14 43  1  0  0  0  0
 15 44  1  0  0  0  0
 15 45  1  0  0  0  0
 16  5  2  0  0  0  0
 16  9  1  0  0  0  0
 17  6  2  0  0  0  0
 17 10  1  0  0  0  0
 18 11  1  0  0  0  0
 18 12  1  0  0  0  0
 18 46  1  0  0  0  0
 19  7  2  0  0  0  0
 19 16  1  0  0  0  0
 20  8  2  0  0  0  0
 20 17  1  0  0  0  0
 21 15  1  0  0  0  0
 21 18  1  0  0  0  0
 21 47  1  0  0  0  0
 22 13  1  0  0  0  0
 22 14  1  0  0  0  0
 22 15  1  0  0  0  0
 23 19  1  0  0  0  0
 23 20  1  0  0  0  0
 23 21  1  0  0  0  0
M  END
>  <DRUGBANK_ID>
DB13246

>  <COMMON_NAME>
Quinupramine

>  <CAS_NUMBER>
31721-17-2

>  <UNII>
29O61HFF4L

>  <SYNONYMS>
Quinupramine

$$$$
