
 OpenBabel10282417072D

 64 69  0  0  1  0  0  0  0  0999 V2000
   -2.1434   -1.2375    0.0000 C   0  0  0  0  0  0  0  0  0  0  0  0
   -1.4289   -1.6500    0.0000 C   0  0  2  0  0  0  0  0  0  0  0  0
   -1.4289   -2.4750    0.0000 N   0  0  0  0  0  0  0  0  0  0  0  0
   -0.7145   -2.8875    0.0000 C   0  0  0  0  0  0  0  0  0  0  0  0
   -0.0000   -2.4750    0.0000 O   0  0  0  0  0  0  0  0  0  0  0  0
   -0.7145   -3.7125    0.0000 C   0  0  0  0  0  0  0  0  0  0  0  0
   -0.0470   -4.1974    0.0000 C   0  0  0  0  0  0  0  0  0  0  0  0
    0.7599   -4.0259    0.0000 N   0  0  0  0  0  0  0  0  0  0  0  0
    1.3120   -4.6390    0.0000 C   0  0  0  0  0  0  0  0  0  0  0  0
    1.0570   -5.4236    0.0000 C   0  0  0  0  0  0  0  0  0  0  0  0
    0.2501   -5.5951    0.0000 C   0  0  0  0  0  0  0  0  0  0  0  0
   -0.3020   -4.9820    0.0000 N   0  0  0  0  0  0  0  0  0  0  0  0
   -1.1270   -4.9820    0.0000 N   0  0  0  0  0  0  0  0  0  0  0  0
   -1.3819   -4.1974    0.0000 C   0  0  0  0  0  0  0  0  0  0  0  0
   -2.1665   -3.9425    0.0000 N   0  0  0  0  0  0  0  0  0  0  0  0
   -0.7145   -1.2375    0.0000 C   0  0  0  0  0  0  0  0  0  0  0  0
    0.0000   -1.6500    0.0000 C   0  0  0  0  0  0  0  0  0  0  0  0
    0.7145   -1.2375    0.0000 C   0  0  0  0  0  0  0  0  0  0  0  0
    0.7145   -0.4125    0.0000 C   0  0  0  0  0  0  0  0  0  0  0  0
    0.0000   -0.0000    0.0000 C   0  0  0  0  0  0  0  0  0  0  0  0
    0.0000    0.8250    0.0000 O   0  0  0  0  0  0  0  0  0  0  0  0
   -0.7145   -0.4125    0.0000 N   0  0  0  0  0  0  0  0  0  0  0  0
   -1.4289    0.0000    0.0000 C   0  0  0  0  0  0  0  0  0  0  0  0
   -2.1434   -0.4125    0.0000 C   0  0  0  0  0  0  0  0  0  0  0  0
   -2.8579    0.0000    0.0000 C   0  0  0  0  0  0  0  0  0  0  0  0
   -2.8579    0.8250    0.0000 C   0  0  0  0  0  0  0  0  0  0  0  0
   -2.1434    1.2375    0.0000 C   0  0  0  0  0  0  0  0  0  0  0  0
   -1.4289    0.8250    0.0000 C   0  0  0  0  0  0  0  0  0  0  0  0
    1.4289   -0.0000    0.0000 C   0  0  0  0  0  0  0  0  0  0  0  0
    2.1434   -0.4125    0.0000 C   0  0  0  0  0  0  0  0  0  0  0  0
    2.1434   -1.2375    0.0000 C   0  0  0  0  0  0  0  0  0  0  0  0
    1.4289   -1.6500    0.0000 C   0  0  0  0  0  0  0  0  0  0  0  0
    1.4289    0.8250    0.0000 C   0  0  0  0  0  0  0  0  0  0  0  0
    1.4289    1.6500    0.0000 C   0  0  0  0  0  0  0  0  0  0  0  0
    1.4289    2.4750    0.0000 C   0  0  0  0  0  0  0  0  0  0  0  0
    2.0964    2.9599    0.0000 C   0  0  0  0  0  0  0  0  0  0  0  0
    1.8414    3.7445    0.0000 N   0  0  0  0  0  0  0  0  0  0  0  0
    2.3264    4.4120    0.0000 C   0  0  0  0  0  0  0  0  0  0  0  0
    1.0164    3.7445    0.0000 N   0  0  0  0  0  0  0  0  0  0  0  0
    0.7615    2.9599    0.0000 C   0  0  0  0  0  0  0  0  0  0  0  0
   -2.1434   -0.1675    0.0000 H   0  0  0  0  0  0  0  0  0  0  0  0
   -3.0700   -1.7725    0.0000 H   0  0  0  0  0  0  0  0  0  0  0  0
   -3.0701   -0.7025    0.0000 H   0  0  0  0  0  0  0  0  0  0  0  0
   -2.3555   -2.1850    0.0000 H   0  0  0  0  0  0  0  0  0  0  0  0
   -2.2815   -2.9672    0.0000 H   0  0  0  0  0  0  0  0  0  0  0  0
    2.3215   -4.4244    0.0000 H   0  0  0  0  0  0  0  0  0  0  0  0
    1.7475   -6.1906    0.0000 H   0  0  0  0  0  0  0  0  0  0  0  0
   -0.0688   -6.5766    0.0000 H   0  0  0  0  0  0  0  0  0  0  0  0
   -2.3712   -2.9795    0.0000 H   0  0  0  0  0  0  0  0  0  0  0  0
   -2.8981   -4.6013    0.0000 H   0  0  0  0  0  0  0  0  0  0  0  0
    0.0000   -2.6820    0.0000 H   0  0  0  0  0  0  0  0  0  0  0  0
   -2.1434   -1.4445    0.0000 H   0  0  0  0  0  0  0  0  0  0  0  0
   -3.7516   -0.5160    0.0000 H   0  0  0  0  0  0  0  0  0  0  0  0
   -3.7516    1.3410    0.0000 H   0  0  0  0  0  0  0  0  0  0  0  0
   -2.1434    2.2695    0.0000 H   0  0  0  0  0  0  0  0  0  0  0  0
   -0.5352    1.3410    0.0000 H   0  0  0  0  0  0  0  0  0  0  0  0
    3.0371    0.1035    0.0000 H   0  0  0  0  0  0  0  0  0  0  0  0
    3.0371   -1.7535    0.0000 H   0  0  0  0  0  0  0  0  0  0  0  0
    1.4289   -2.6820    0.0000 H   0  0  0  0  0  0  0  0  0  0  0  0
    3.0779    2.6410    0.0000 H   0  0  0  0  0  0  0  0  0  0  0  0
    3.3905    4.3001    0.0000 H   0  0  0  0  0  0  0  0  0  0  0  0
    1.8912    5.3895    0.0000 H   0  0  0  0  0  0  0  0  0  0  0  0
    2.9554    5.2776    0.0000 H   0  0  0  0  0  0  0  0  0  0  0  0
   -0.2200    2.6410    0.0000 H   0  0  0  0  0  0  0  0  0  0  0  0
  1 41  1  0  0  0  0
  1 42  1  0  0  0  0
  1 43  1  0  0  0  0
  2  1  1  0  0  0  0
  2  3  1  0  0  0  0
  2 16  1  0  0  0  0
  2 44  1  6  0  0  0
  3  4  1  0  0  0  0
  3 45  1  0  0  0  0
  4  5  2  0  0  0  0
  4  6  1  0  0  0  0
  6  7  2  0  0  0  0
  6 14  1  0  0  0  0
  7  8  1  0  0  0  0
  7 12  1  0  0  0  0
  8  9  2  0  0  0  0
  9 10  1  0  0  0  0
  9 46  1  0  0  0  0
 10 11  2  0  0  0  0
 10 47  1  0  0  0  0
 11 12  1  0  0  0  0
 11 48  1  0  0  0  0
 12 13  1  0  0  0  0
 13 14  2  0  0  0  0
 14 15  1  0  0  0  0
 15 49  1  0  0  0  0
 15 50  1  0  0  0  0
 16 17  2  0  0  0  0
 16 22  1  0  0  0  0
 17 18  1  0  0  0  0
 17 51  1  0  0  0  0
 18 19  2  0  0  0  0
 18 32  1  0  0  0  0
 19 20  1  0  0  0  0
 19 29  1  0  0  0  0
 20 21  2  0  0  0  0
 20 22  1  0  0  0  0
 22 23  1  0  0  0  0
 23 24  2  0  0  0  0
 23 28  1  0  0  0  0
 24 25  1  0  0  0  0
 24 52  1  0  0  0  0
 25 26  2  0  0  0  0
 25 53  1  0  0  0  0
 26 27  1  0  0  0  0
 26 54  1  0  0  0  0
 27 28  2  0  0  0  0
 27 55  1  0  0  0  0
 28 56  1  0  0  0  0
 29 30  2  0  0  0  0
 29 33  1  0  0  0  0
 30 31  1  0  0  0  0
 30 57  1  0  0  0  0
 31 32  2  0  0  0  0
 31 58  1  0  0  0  0
 32 59  1  0  0  0  0
 33 34  3  0  0  0  0
 34 35  1  0  0  0  0
 35 36  2  0  0  0  0
 35 40  1  0  0  0  0
 36 37  1  0  0  0  0
 36 60  1  0  0  0  0
 37 38  1  0  0  0  0
 37 39  1  0  0  0  0
 38 61  1  0  0  0  0
 38 62  1  0  0  0  0
 38 63  1  0  0  0  0
 39 40  2  0  0  0  0
 40 64  1  0  0  0  0
M  END
>  <DRUGBANK_ID>
DB16296

>  <COMMON_NAME>
IPI-549

>  <CAS_NUMBER>
1693758-51-8

>  <UNII>
FOF5155FMZ

>  <SYNONYMS>
Pi3k-gamma inhibitor ipi-549

$$$$
