
 OpenBabel10282417072D

 46 50  0  0  1  0  0  0  0  0999 V2000
   -1.0016   -0.8867    0.0000 C   0  0  0  0  0  0  0  0  0  0  0  0
   -1.5056   -0.2336    0.0000 C   0  0  0  0  0  0  0  0  0  0  0  0
   -2.2825   -0.5111    0.0000 N   0  0  0  0  0  0  0  0  0  0  0  0
   -2.2587   -1.3358    0.0000 C   0  0  0  0  0  0  0  0  0  0  0  0
   -1.4670   -1.5679    0.0000 C   0  0  0  0  0  0  0  0  0  0  0  0
   -1.2722   -2.3696    0.0000 C   0  0  0  0  0  0  0  0  0  0  0  0
   -1.8691   -2.9391    0.0000 C   0  0  0  0  0  0  0  0  0  0  0  0
   -2.6608   -2.7070    0.0000 C   0  0  0  0  0  0  0  0  0  0  0  0
   -2.8556   -1.9053    0.0000 N   0  0  0  0  0  0  0  0  0  0  0  0
   -1.6743   -3.7408    0.0000 C   0  0  0  0  0  0  0  0  0  0  0  0
   -2.2712   -4.3103    0.0000 O   0  0  0  0  0  0  0  0  0  0  0  0
   -0.8827   -3.9729    0.0000 N   0  0  0  0  0  0  0  0  0  0  0  0
   -0.4806   -2.6017    0.0000 N   0  0  0  0  0  0  0  0  0  0  0  0
    0.1163   -2.0322    0.0000 C   0  0  2  0  0  0  0  0  0  0  0  0
    0.8517   -1.6585    0.0000 C   0  0  2  0  0  0  0  0  0  0  0  0
    0.8517   -0.9111    0.0000 C   0  0  0  0  0  0  0  0  0  0  0  0
    1.3012   -0.1208    0.0000 C   0  0  3  0  0  0  0  0  0  0  0  0
    0.5657   -0.4945    0.0000 C   0  0  0  0  0  0  0  0  0  0  0  0
    0.5657   -1.2419    0.0000 C   0  0  1  0  0  0  0  0  0  0  0  0
    1.3012   -1.6156    0.0000 C   0  0  0  0  0  0  0  0  0  0  0  0
    2.0368   -1.2419    0.0000 C   0  0  1  0  0  0  0  0  0  0  0  0
    1.5873   -2.0322    0.0000 C   0  0  0  0  0  0  0  0  0  0  0  0
    2.0368   -0.4945    0.0000 C   0  0  0  0  0  0  0  0  0  0  0  0
    2.8344   -1.4529    0.0000 O   0  0  0  0  0  0  0  0  0  0  0  0
    0.0300   -0.8568    0.0000 H   0  0  0  0  0  0  0  0  0  0  0  0
   -1.2152    0.7567    0.0000 H   0  0  0  0  0  0  0  0  0  0  0  0
   -3.0954    0.0443    0.0000 H   0  0  0  0  0  0  0  0  0  0  0  0
   -3.4074   -3.4195    0.0000 H   0  0  0  0  0  0  0  0  0  0  0  0
   -0.6502   -4.9296    0.0000 H   0  0  0  0  0  0  0  0  0  0  0  0
   -0.1704   -3.2932    0.0000 H   0  0  0  0  0  0  0  0  0  0  0  0
   -0.2482   -3.5584    0.0000 H   0  0  0  0  0  0  0  0  0  0  0  0
    0.7345   -2.9055    0.0000 H   0  0  0  0  0  0  0  0  0  0  0  0
    0.8518   -2.7285    0.0000 H   0  0  0  0  0  0  0  0  0  0  0  0
   -0.1827   -0.6375    0.0000 H   0  0  0  0  0  0  0  0  0  0  0  0
    0.0039   -1.5638    0.0000 H   0  0  0  0  0  0  0  0  0  0  0  0
    1.6090   -1.1456    0.0000 H   0  0  0  0  0  0  0  0  0  0  0  0
   -0.3463    0.0651    0.0000 H   0  0  0  0  0  0  0  0  0  0  0  0
   -0.3680   -1.0171    0.0000 H   0  0  0  0  0  0  0  0  0  0  0  0
    0.8735   -2.2667    0.0000 H   0  0  0  0  0  0  0  0  0  0  0  0
    1.3012   -2.6856    0.0000 H   0  0  0  0  0  0  0  0  0  0  0  0
    2.2132   -2.1752    0.0000 H   0  0  0  0  0  0  0  0  0  0  0  0
    1.8951   -3.0570    0.0000 H   0  0  0  0  0  0  0  0  0  0  0  0
    2.6505   -2.1525    0.0000 H   0  0  0  0  0  0  0  0  0  0  0  0
    2.9488    0.0651    0.0000 H   0  0  0  0  0  0  0  0  0  0  0  0
    2.9705   -1.0170    0.0000 H   0  0  0  0  0  0  0  0  0  0  0  0
    3.0884   -2.3890    0.0000 H   0  0  0  0  0  0  0  0  0  0  0  0
  1  2  2  0  0  0  0
  1  5  1  0  0  0  0
  1 25  1  0  0  0  0
  2  3  1  0  0  0  0
  2 26  1  0  0  0  0
  3  4  1  0  0  0  0
  3 27  1  0  0  0  0
  4  5  1  0  0  0  0
  4  9  2  0  0  0  0
  5  6  2  0  0  0  0
  6  7  1  0  0  0  0
  6 13  1  0  0  0  0
  7  8  2  0  0  0  0
  7 10  1  0  0  0  0
  8  9  1  0  0  0  0
  8 28  1  0  0  0  0
 10 11  2  0  0  0  0
 10 12  1  0  0  0  0
 12 29  1  0  0  0  0
 12 30  1  0  0  0  0
 13 31  1  0  0  0  0
 14 13  1  0  0  0  0
 14 15  1  0  0  0  0
 14 19  1  0  0  0  0
 14 32  1  6  0  0  0
 15 22  1  0  0  0  0
 15 16  1  0  0  0  0
 15 33  1  1  0  0  0
 16 17  1  0  0  0  0
 16 34  1  0  0  0  0
 16 35  1  0  0  0  0
 17 23  1  0  0  0  0
 17 18  1  0  0  0  0
 17 36  1  0  0  0  0
 18 19  1  0  0  0  0
 18 37  1  0  0  0  0
 18 38  1  0  0  0  0
 19 20  1  0  0  0  0
 19 39  1  6  0  0  0
 20 21  1  0  0  0  0
 20 40  1  0  0  0  0
 20 41  1  0  0  0  0
 21 22  1  0  0  0  0
 21 23  1  0  0  0  0
 21 24  1  1  0  0  0
 22 42  1  0  0  0  0
 22 43  1  0  0  0  0
 23 44  1  0  0  0  0
 23 45  1  0  0  0  0
 24 46  1  0  0  0  0
M  END
>  <DRUGBANK_ID>
DB11708

>  <COMMON_NAME>
Peficitinib

>  <CAS_NUMBER>
944118-01-8

>  <UNII>
HPH1166CKX

>  <SYNONYMS>
Peficitinib

$$$$
