
 OpenBabel10282417072D

 74 78  0  0  0  0  0  0  0  0999 V2000
    0.4651   -2.2629    0.0000 C   0  0  0  0  0  0  0  0  0  0  0  0
    1.1796   -2.6754    0.0000 C   0  0  0  0  0  0  0  0  0  0  0  0
    0.4651   -1.4379    0.0000 C   0  0  0  0  0  0  0  0  0  0  0  0
    1.1796   -1.0254    0.0000 C   0  0  0  0  0  0  0  0  0  0  0  0
    1.8940   -2.2629    0.0000 C   0  0  0  0  0  0  0  0  0  0  0  0
    1.8940   -1.4379    0.0000 C   0  0  0  0  0  0  0  0  0  0  0  0
   -1.9925    2.9371    0.0000 C   0  0  0  0  0  0  0  0  0  0  0  0
   -1.4405    2.3240    0.0000 C   0  0  0  0  0  0  0  0  0  0  0  0
   -2.7996    2.7655    0.0000 C   0  0  0  0  0  0  0  0  0  0  0  0
   -3.0545    1.9809    0.0000 C   0  0  0  0  0  0  0  0  0  0  0  0
   -2.5024    1.3678    0.0000 C   0  0  0  0  0  0  0  0  0  0  0  0
    0.7254    2.0540    0.0000 C   0  0  0  0  0  0  0  0  0  0  0  0
    1.2775    1.4408    0.0000 C   0  0  0  0  0  0  0  0  0  0  0  0
    2.3816    0.2146    0.0000 C   0  0  0  0  0  0  0  0  0  0  0  0
    1.5746    0.0431    0.0000 C   0  0  0  0  0  0  0  0  0  0  0  0
    2.6365    0.9993    0.0000 C   0  0  0  0  0  0  0  0  0  0  0  0
    1.0226    0.6562    0.0000 C   0  0  0  0  0  0  0  0  0  0  0  0
    3.6985    1.9554    0.0000 C   0  0  0  0  0  0  0  0  0  0  0  0
    0.9804    2.8385    0.0000 O   0  0  0  0  0  0  0  0  0  0  0  0
   -0.0815    1.8824    0.0000 N   0  0  0  0  0  0  0  0  0  0  0  0
    2.0844    1.6123    0.0000 C   0  0  0  0  0  0  0  0  0  0  0  0
    3.4435    1.1708    0.0000 O   0  0  0  0  0  0  0  0  0  0  0  0
    2.6787   -1.1830    0.0000 C   0  0  0  0  0  0  0  0  0  0  0  0
    2.9336   -0.3984    0.0000 C   0  0  0  0  0  0  0  0  0  0  0  0
    2.6787   -2.5179    0.0000 N   0  0  0  0  0  0  0  0  0  0  0  0
    2.9336   -3.3025    0.0000 C   0  0  0  0  0  0  0  0  0  0  0  0
   -0.2493   -1.0254    0.0000 N   0  0  0  0  0  0  0  0  0  0  0  0
   -0.9638   -1.4379    0.0000 C   0  0  0  0  0  0  0  0  0  0  0  0
   -1.6783   -1.0254    0.0000 O   0  0  0  0  0  0  0  0  0  0  0  0
   -2.3928   -1.4379    0.0000 C   0  0  0  0  0  0  0  0  0  0  0  0
   -3.1465   -1.1025    0.0000 C   0  0  0  0  0  0  0  0  0  0  0  0
   -3.6985   -1.7155    0.0000 C   0  0  0  0  0  0  0  0  0  0  0  0
   -3.2860   -2.4300    0.0000 C   0  0  0  0  0  0  0  0  0  0  0  0
    3.1636   -1.8504    0.0000 C   0  0  0  0  0  0  0  0  0  0  0  0
   -0.9638   -2.2629    0.0000 O   0  0  0  0  0  0  0  0  0  0  0  0
   -2.4790   -2.2585    0.0000 C   0  0  0  0  0  0  0  0  0  0  0  0
   -1.6954    1.5393    0.0000 C   0  0  0  0  0  0  0  0  0  0  0  0
   -1.1433    0.9262    0.0000 C   0  0  0  0  0  0  0  0  0  0  0  0
   -0.6335    2.4955    0.0000 S   0  0  0  0  0  0  0  0  0  0  0  0
   -0.8050    3.3025    0.0000 O   0  0  0  0  0  0  0  0  0  0  0  0
   -0.0204    3.0475    0.0000 O   0  0  0  0  0  0  0  0  0  0  0  0
   -0.4286   -2.7789    0.0000 H   0  0  0  0  0  0  0  0  0  0  0  0
    1.1796   -3.7074    0.0000 H   0  0  0  0  0  0  0  0  0  0  0  0
    1.1796    0.0066    0.0000 H   0  0  0  0  0  0  0  0  0  0  0  0
   -1.6736    3.9186    0.0000 H   0  0  0  0  0  0  0  0  0  0  0  0
   -3.4902    3.5324    0.0000 H   0  0  0  0  0  0  0  0  0  0  0  0
   -4.0639    1.7663    0.0000 H   0  0  0  0  0  0  0  0  0  0  0  0
   -2.8213    0.3863    0.0000 H   0  0  0  0  0  0  0  0  0  0  0  0
    1.2557   -0.9384    0.0000 H   0  0  0  0  0  0  0  0  0  0  0  0
    0.0132    0.4416    0.0000 H   0  0  0  0  0  0  0  0  0  0  0  0
    4.7451    2.1778    0.0000 H   0  0  0  0  0  0  0  0  0  0  0  0
    2.9826    2.7506    0.0000 H   0  0  0  0  0  0  0  0  0  0  0  0
    4.0292    2.9730    0.0000 H   0  0  0  0  0  0  0  0  0  0  0  0
   -0.3857    0.9461    0.0000 H   0  0  0  0  0  0  0  0  0  0  0  0
    2.4032    2.5938    0.0000 H   0  0  0  0  0  0  0  0  0  0  0  0
    3.9802   -0.1759    0.0000 H   0  0  0  0  0  0  0  0  0  0  0  0
    3.6496   -1.1935    0.0000 H   0  0  0  0  0  0  0  0  0  0  0  0
    2.2176   -4.0976    0.0000 H   0  0  0  0  0  0  0  0  0  0  0  0
    3.9802   -3.5250    0.0000 H   0  0  0  0  0  0  0  0  0  0  0  0
    3.2642   -4.3201    0.0000 H   0  0  0  0  0  0  0  0  0  0  0  0
   -0.2493   -0.0409    0.0000 H   0  0  0  0  0  0  0  0  0  0  0  0
   -3.3194   -1.9730    0.0000 H   0  0  0  0  0  0  0  0  0  0  0  0
   -3.3690   -0.0559    0.0000 H   0  0  0  0  0  0  0  0  0  0  0  0
   -4.1800   -0.8256    0.0000 H   0  0  0  0  0  0  0  0  0  0  0  0
   -4.7626   -1.6036    0.0000 H   0  0  0  0  0  0  0  0  0  0  0  0
   -4.2813   -2.6129    0.0000 H   0  0  0  0  0  0  0  0  0  0  0  0
   -3.7212   -3.4075    0.0000 H   0  0  0  0  0  0  0  0  0  0  0  0
   -2.6127   -3.2616    0.0000 H   0  0  0  0  0  0  0  0  0  0  0  0
    4.1956   -1.8504    0.0000 H   0  0  0  0  0  0  0  0  0  0  0  0
   -1.6838   -2.9745    0.0000 H   0  0  0  0  0  0  0  0  0  0  0  0
   -2.7560   -3.2920    0.0000 H   0  0  0  0  0  0  0  0  0  0  0  0
   -1.4739   -0.0914    0.0000 H   0  0  0  0  0  0  0  0  0  0  0  0
   -0.0967    1.1487    0.0000 H   0  0  0  0  0  0  0  0  0  0  0  0
   -0.4273    0.1311    0.0000 H   0  0  0  0  0  0  0  0  0  0  0  0
  1 42  1  0  0  0  0
  2  1  2  0  0  0  0
  2 43  1  0  0  0  0
  3  1  1  0  0  0  0
  4  3  2  0  0  0  0
  4 44  1  0  0  0  0
  5  2  1  0  0  0  0
  6  5  2  0  0  0  0
  6  4  1  0  0  0  0
  6 23  1  0  0  0  0
  7 45  1  0  0  0  0
  8  7  2  0  0  0  0
  9  7  1  0  0  0  0
  9 46  1  0  0  0  0
 10  9  2  0  0  0  0
 10 47  1  0  0  0  0
 11 10  1  0  0  0  0
 11 37  2  0  0  0  0
 11 48  1  0  0  0  0
 12 20  1  0  0  0  0
 13 12  1  0  0  0  0
 13 21  1  0  0  0  0
 15 14  2  0  0  0  0
 15 49  1  0  0  0  0
 16 14  1  0  0  0  0
 16 21  2  0  0  0  0
 17 13  2  0  0  0  0
 17 15  1  0  0  0  0
 17 50  1  0  0  0  0
 18 22  1  0  0  0  0
 18 51  1  0  0  0  0
 18 52  1  0  0  0  0
 18 53  1  0  0  0  0
 19 12  2  0  0  0  0
 20 39  1  0  0  0  0
 20 54  1  0  0  0  0
 21 55  1  0  0  0  0
 22 16  1  0  0  0  0
 24 14  1  0  0  0  0
 24 23  1  0  0  0  0
 24 56  1  0  0  0  0
 24 57  1  0  0  0  0
 25  5  1  0  0  0  0
 26 25  1  0  0  0  0
 26 58  1  0  0  0  0
 26 59  1  0  0  0  0
 26 60  1  0  0  0  0
 27  3  1  0  0  0  0
 27 61  1  0  0  0  0
 28 27  1  0  0  0  0
 29 28  1  0  0  0  0
 30 29  1  0  0  0  0
 30 62  1  0  0  0  0
 31 30  1  0  0  0  0
 31 63  1  0  0  0  0
 31 64  1  0  0  0  0
 32 31  1  0  0  0  0
 32 65  1  0  0  0  0
 32 66  1  0  0  0  0
 33 32  1  0  0  0  0
 33 36  1  0  0  0  0
 33 67  1  0  0  0  0
 33 68  1  0  0  0  0
 34 23  2  0  0  0  0
 34 25  1  0  0  0  0
 34 69  1  0  0  0  0
 35 28  2  0  0  0  0
 36 30  1  0  0  0  0
 36 70  1  0  0  0  0
 36 71  1  0  0  0  0
 37  8  1  0  0  0  0
 37 38  1  0  0  0  0
 38 72  1  0  0  0  0
 38 73  1  0  0  0  0
 38 74  1  0  0  0  0
 39  8  1  0  0  0  0
 40 39  2  0  0  0  0
 41 39  2  0  0  0  0
M  END
>  <DRUGBANK_ID>
DB00549

>  <SECONDARY_ACCESSION_NUMBERS>
APRD00377

>  <COMMON_NAME>
Zafirlukast

>  <CAS_NUMBER>
107753-78-6

>  <UNII>
XZ629S5L50

>  <SYNONYMS>
4-(5-cyclopentyloxycarbonylamino-1-methyl-1H-indol-3-ylmethyl)-3-methoxy-N-o-tolylsulfonylbenzamide; cyclopentyl 3-(2-methoxy-4-((o-tolylsulfonyl)carbamoyl)benzyl)-1-methylindole-5-carbamate; Zafirlukast

$$$$
