PFZ
 OpenBabel10282417072D

 44 45  0  0  0  0  0  0  0  0999 V2000
    0.7479    0.2489    0.0000 C   0  0  1  0  0  0  0  0  0  0  0  0
    1.5594    0.1004    0.0000 O   0  0  0  0  0  0  0  0  0  0  0  0
    0.8964    1.0604    0.0000 C   0  0  0  0  0  0  0  0  0  0  0  0
   -0.0636    0.3974    0.0000 C   0  0  0  0  0  0  0  0  0  0  0  0
    0.5994   -0.5626    0.0000 C   0  0  0  0  0  0  0  0  0  0  0  0
   -0.5980   -0.2311    0.0000 C   0  0  0  0  0  0  0  0  0  0  0  0
   -1.4095   -0.0826    0.0000 C   0  0  0  0  0  0  0  0  0  0  0  0
   -1.9439   -0.7111    0.0000 C   0  0  0  0  0  0  0  0  0  0  0  0
   -2.7554   -0.5626    0.0000 C   0  0  0  0  0  0  0  0  0  0  0  0
   -3.0326    0.2144    0.0000 C   0  0  0  0  0  0  0  0  0  0  0  0
    1.2279   -1.0970    0.0000 N   0  0  0  0  0  0  0  0  0  0  0  0
    0.2679    1.5948    0.0000 C   0  0  0  0  0  0  0  0  0  0  0  0
    0.4164    2.4063    0.0000 C   0  0  0  0  0  0  0  0  0  0  0  0
    1.1934    2.6835    0.0000 C   0  0  0  0  0  0  0  0  0  0  0  0
    1.8220    2.1491    0.0000 C   0  0  0  0  0  0  0  0  0  0  0  0
    1.6735    1.3376    0.0000 C   0  0  0  0  0  0  0  0  0  0  0  0
    1.1650   -1.9196    0.0000 C   0  0  0  0  0  0  0  0  0  0  0  0
    1.9279   -2.2336    0.0000 C   0  0  0  0  0  0  0  0  0  0  0  0
    2.4623   -1.6051    0.0000 N   0  0  0  0  0  0  0  0  0  0  0  0
    2.0297   -0.9026    0.0000 C   0  0  0  0  0  0  0  0  0  0  0  0
    2.3020    0.8032    0.0000 Cl  0  0  0  0  0  0  0  0  0  0  0  0
    1.3420    3.4950    0.0000 Cl  0  0  0  0  0  0  0  0  0  0  0  0
    1.8853   -0.8132    0.0000 H   0  0  0  0  0  0  0  0  0  0  0  0
   -0.4230    1.4052    0.0000 H   0  0  0  0  0  0  0  0  0  0  0  0
   -1.1161    0.5901    0.0000 H   0  0  0  0  0  0  0  0  0  0  0  0
   -0.4084   -0.9220    0.0000 H   0  0  0  0  0  0  0  0  0  0  0  0
    0.4067   -1.6151    0.0000 H   0  0  0  0  0  0  0  0  0  0  0  0
   -0.2386   -1.2389    0.0000 H   0  0  0  0  0  0  0  0  0  0  0  0
   -1.2911   -1.0463    0.0000 H   0  0  0  0  0  0  0  0  0  0  0  0
   -1.7689    0.9252    0.0000 H   0  0  0  0  0  0  0  0  0  0  0  0
   -2.4620    0.1101    0.0000 H   0  0  0  0  0  0  0  0  0  0  0  0
   -1.5845   -1.7189    0.0000 H   0  0  0  0  0  0  0  0  0  0  0  0
   -2.6370   -1.5263    0.0000 H   0  0  0  0  0  0  0  0  0  0  0  0
   -3.4484   -1.3778    0.0000 H   0  0  0  0  0  0  0  0  0  0  0  0
   -3.8079   -0.3701    0.0000 H   0  0  0  0  0  0  0  0  0  0  0  0
   -2.3396    1.0297    0.0000 H   0  0  0  0  0  0  0  0  0  0  0  0
   -4.0851    0.4069    0.0000 H   0  0  0  0  0  0  0  0  0  0  0  0
   -3.3921    1.2222    0.0000 H   0  0  0  0  0  0  0  0  0  0  0  0
   -0.7041    1.2481    0.0000 H   0  0  0  0  0  0  0  0  0  0  0  0
   -0.3699    3.0747    0.0000 H   0  0  0  0  0  0  0  0  0  0  0  0
    2.7940    2.4958    0.0000 H   0  0  0  0  0  0  0  0  0  0  0  0
    0.2863   -2.4608    0.0000 H   0  0  0  0  0  0  0  0  0  0  0  0
    2.1710   -3.2365    0.0000 H   0  0  0  0  0  0  0  0  0  0  0  0
    2.4225    0.0517    0.0000 H   0  0  0  0  0  0  0  0  0  0  0  0
  1  2  1  6  0  0  0
  1  3  1  0  0  0  0
  1  4  1  0  0  0  0
  1  5  1  0  0  0  0
  2 23  1  0  0  0  0
  3 12  2  0  0  0  0
  3 16  1  0  0  0  0
  4  6  1  0  0  0  0
  4 24  1  0  0  0  0
  4 25  1  0  0  0  0
  5 11  1  0  0  0  0
  5 26  1  0  0  0  0
  5 27  1  0  0  0  0
  6  7  1  0  0  0  0
  6 28  1  0  0  0  0
  6 29  1  0  0  0  0
  7  8  1  0  0  0  0
  7 30  1  0  0  0  0
  7 31  1  0  0  0  0
  8  9  1  0  0  0  0
  8 32  1  0  0  0  0
  8 33  1  0  0  0  0
  9 10  1  0  0  0  0
  9 34  1  0  0  0  0
  9 35  1  0  0  0  0
 10 36  1  0  0  0  0
 10 37  1  0  0  0  0
 10 38  1  0  0  0  0
 11 17  1  0  0  0  0
 11 20  1  0  0  0  0
 12 13  1  0  0  0  0
 12 39  1  0  0  0  0
 13 14  2  0  0  0  0
 13 40  1  0  0  0  0
 14 15  1  0  0  0  0
 14 22  1  0  0  0  0
 15 16  2  0  0  0  0
 15 41  1  0  0  0  0
 16 21  1  0  0  0  0
 17 18  2  0  0  0  0
 17 42  1  0  0  0  0
 18 19  1  0  0  0  0
 18 43  1  0  0  0  0
 19 20  2  0  0  0  0
 20 44  1  0  0  0  0
M  END
>  <DRUGBANK_ID>
DB02617

>  <SECONDARY_ACCESSION_NUMBERS>
EXPT02560

>  <COMMON_NAME>
1-(N-Imidazolyl)-2-Hydroxy-2-(2,3-Dichlorophenyl)Octane

$$$$
