
 OpenBabel10282417072D

 65 68  0  0  0  0  0  0  0  0999 V2000
    2.8456    0.7538    0.0000 C   0  0  1  0  0  0  0  0  0  0  0  0
    4.3338    2.2566    0.0000 P   0  0  0  0  0  0  0  0  0  0  0  0
    2.8456   -0.0654    0.0000 C   0  0  2  0  0  0  0  0  0  0  0  0
    2.1135   -0.4823    0.0000 C   0  0  1  0  0  0  0  0  0  0  0  0
   -2.2154   -1.3403    0.0000 C   0  0  0  0  0  0  0  0  0  0  0  0
    1.4058   -0.0654    0.0000 C   0  0  1  0  0  0  0  0  0  0  0  0
    0.6641   -0.4823    0.0000 C   0  0  0  0  0  0  0  0  0  0  0  0
    3.6309    1.0156    0.0000 C   0  0  1  0  0  0  0  0  0  0  0  0
    0.6641   -1.3063    0.0000 C   0  0  0  0  0  0  0  0  0  0  0  0
    3.6261    1.8396    0.0000 O   0  0  0  0  0  0  0  0  0  0  0  0
    2.1135    1.1756    0.0000 C   0  0  0  0  0  0  0  0  0  0  0  0
    1.4058    0.7538    0.0000 C   0  0  0  0  0  0  0  0  0  0  0  0
   -1.4736   -1.7233    0.0000 O   0  0  0  0  0  0  0  0  0  0  0  0
    3.6309   -0.3126    0.0000 C   0  0  0  0  0  0  0  0  0  0  0  0
    2.1135   -1.3257    0.0000 C   0  0  0  0  0  0  0  0  0  0  0  0
   -0.0484   -0.0654    0.0000 C   0  0  0  0  0  0  0  0  0  0  0  0
   -2.9135   -1.7233    0.0000 N   0  0  0  0  0  0  0  0  0  0  0  0
    5.0513    1.8495    0.0000 O   0  0  0  0  0  0  0  0  0  0  0  0
    4.7362    2.9740    0.0000 O   0  0  0  0  0  0  0  0  0  0  0  0
    3.9169    2.9740    0.0000 O   0  0  0  0  0  0  0  0  0  0  0  0
   -2.2299   -0.4435    0.0000 O   0  0  0  0  0  0  0  0  0  0  0  0
   -0.0484   -1.7233    0.0000 C   0  0  0  0  0  0  0  0  0  0  0  0
   -0.7659   -1.3063    0.0000 C   0  0  0  0  0  0  0  0  0  0  0  0
    1.4058   -1.7233    0.0000 C   0  0  0  0  0  0  0  0  0  0  0  0
    4.0963    0.3563    0.0000 C   0  0  0  0  0  0  0  0  0  0  0  0
   -0.7659   -0.4726    0.0000 C   0  0  0  0  0  0  0  0  0  0  0  0
    2.8456    1.5827    0.0000 C   0  0  0  0  0  0  0  0  0  0  0  0
   -4.2854   -2.5523    0.0000 Cl  0  0  0  0  0  0  0  0  0  0  0  0
   -5.0513   -1.3742    0.0000 Cl  0  0  0  0  0  0  0  0  0  0  0  0
   -2.8989   -2.5669    0.0000 C   0  0  0  0  0  0  0  0  0  0  0  0
   -3.6406   -1.3403    0.0000 C   0  0  0  0  0  0  0  0  0  0  0  0
   -3.5728   -2.9740    0.0000 C   0  0  0  0  0  0  0  0  0  0  0  0
   -4.3387   -1.7475    0.0000 C   0  0  0  0  0  0  0  0  0  0  0  0
    1.4203   -0.8943    0.0000 H   0  0  0  0  0  0  0  0  0  0  0  0
    2.8456   -0.8604    0.0000 H   0  0  0  0  0  0  0  0  0  0  0  0
    2.1039    0.3563    0.0000 H   0  0  0  0  0  0  0  0  0  0  0  0
    2.7610    1.6387    0.0000 H   0  0  0  0  0  0  0  0  0  0  0  0
    2.1056    2.2456    0.0000 H   0  0  0  0  0  0  0  0  0  0  0  0
    1.1812    1.7007    0.0000 H   0  0  0  0  0  0  0  0  0  0  0  0
    0.4755    1.2824    0.0000 H   0  0  0  0  0  0  0  0  0  0  0  0
    0.4810    0.2156    0.0000 H   0  0  0  0  0  0  0  0  0  0  0  0
    3.9766   -1.3252    0.0000 H   0  0  0  0  0  0  0  0  0  0  0  0
    4.6905   -0.4613    0.0000 H   0  0  0  0  0  0  0  0  0  0  0  0
    3.0370   -1.8661    0.0000 H   0  0  0  0  0  0  0  0  0  0  0  0
    2.1041   -2.3957    0.0000 H   0  0  0  0  0  0  0  0  0  0  0  0
   -0.0416    0.9666    0.0000 H   0  0  0  0  0  0  0  0  0  0  0  0
    5.0586    0.8795    0.0000 H   0  0  0  0  0  0  0  0  0  0  0  0
    5.7061    2.9860    0.0000 H   0  0  0  0  0  0  0  0  0  0  0  0
   -0.0468   -2.7553    0.0000 H   0  0  0  0  0  0  0  0  0  0  0  0
    1.4056   -2.7933    0.0000 H   0  0  0  0  0  0  0  0  0  0  0  0
    0.4822   -2.2635    0.0000 H   0  0  0  0  0  0  0  0  0  0  0  0
    5.1663    0.3599    0.0000 H   0  0  0  0  0  0  0  0  0  0  0  0
    4.5934   -0.5912    0.0000 H   0  0  0  0  0  0  0  0  0  0  0  0
   -1.6577    0.0467    0.0000 H   0  0  0  0  0  0  0  0  0  0  0  0
    3.7722    2.1177    0.0000 H   0  0  0  0  0  0  0  0  0  0  0  0
    1.9190    2.1177    0.0000 H   0  0  0  0  0  0  0  0  0  0  0  0
    2.8456    2.6527    0.0000 H   0  0  0  0  0  0  0  0  0  0  0  0
   -1.9625   -3.0846    0.0000 H   0  0  0  0  0  0  0  0  0  0  0  0
   -2.8784   -3.6367    0.0000 H   0  0  0  0  0  0  0  0  0  0  0  0
   -3.6637   -0.2705    0.0000 H   0  0  0  0  0  0  0  0  0  0  0  0
   -4.5741   -0.8174    0.0000 H   0  0  0  0  0  0  0  0  0  0  0  0
   -3.5679   -4.0440    0.0000 H   0  0  0  0  0  0  0  0  0  0  0  0
   -2.6397   -3.4977    0.0000 H   0  0  0  0  0  0  0  0  0  0  0  0
   -4.3144   -2.8172    0.0000 H   0  0  0  0  0  0  0  0  0  0  0  0
   -3.4049   -2.2698    0.0000 H   0  0  0  0  0  0  0  0  0  0  0  0
  1 27  1  1  0  0  0
  2 10  1  0  0  0  0
  3  1  1  0  0  0  0
  3 35  1  6  0  0  0
  4  3  1  0  0  0  0
  4 36  1  1  0  0  0
  5 13  1  0  0  0  0
  6  4  1  0  0  0  0
  6 34  1  6  0  0  0
  7  6  1  0  0  0  0
  8  1  1  0  0  0  0
  8 10  1  0  0  0  0
  8 37  1  6  0  0  0
  9  7  2  0  0  0  0
 11  1  1  0  0  0  0
 11 38  1  0  0  0  0
 11 39  1  0  0  0  0
 12 11  1  0  0  0  0
 12  6  1  0  0  0  0
 12 40  1  0  0  0  0
 12 41  1  0  0  0  0
 13 23  1  0  0  0  0
 14  3  1  0  0  0  0
 14 25  1  0  0  0  0
 14 42  1  0  0  0  0
 14 43  1  0  0  0  0
 15  4  1  0  0  0  0
 15 44  1  0  0  0  0
 15 45  1  0  0  0  0
 16  7  1  0  0  0  0
 16 46  1  0  0  0  0
 17  5  1  0  0  0  0
 18  2  1  0  0  0  0
 18 47  1  0  0  0  0
 19  2  1  0  0  0  0
 19 48  1  0  0  0  0
 20  2  2  0  0  0  0
 21  5  2  0  0  0  0
 22  9  1  0  0  0  0
 22 23  2  0  0  0  0
 22 49  1  0  0  0  0
 23 26  1  0  0  0  0
 24 15  1  0  0  0  0
 24  9  1  0  0  0  0
 24 50  1  0  0  0  0
 24 51  1  0  0  0  0
 25  8  1  0  0  0  0
 25 52  1  0  0  0  0
 25 53  1  0  0  0  0
 26 16  2  0  0  0  0
 26 54  1  0  0  0  0
 27 55  1  0  0  0  0
 27 56  1  0  0  0  0
 27 57  1  0  0  0  0
 28 32  1  0  0  0  0
 29 33  1  0  0  0  0
 30 17  1  0  0  0  0
 30 58  1  0  0  0  0
 30 59  1  0  0  0  0
 31 17  1  0  0  0  0
 31 60  1  0  0  0  0
 31 61  1  0  0  0  0
 32 30  1  0  0  0  0
 32 62  1  0  0  0  0
 32 63  1  0  0  0  0
 33 31  1  0  0  0  0
 33 64  1  0  0  0  0
 33 65  1  0  0  0  0
M  END
>  <DRUGBANK_ID>
DB14674

>  <SECONDARY_ACCESSION_NUMBERS>
DBSALT002563

>  <COMMON_NAME>
Estramustine phosphate

>  <CAS_NUMBER>
4891-15-0

>  <UNII>
MUZ9585Y7B

>  <SYNONYMS>
Estramustine 17-(dihydrogen phosphate)

$$$$
