
 OpenBabel10282417072D

 83 82  0  0  0  0  0  0  0  0999 V2000
    0.0026   -0.2046    0.0000 C   0  0  0  0  0  0  0  0  0  0  0  0
   -1.4299    1.4506    0.0000 C   0  0  0  0  0  0  0  0  0  0  0  0
    2.8675    1.4506    0.0000 C   0  0  0  0  0  0  0  0  0  0  0  0
    0.7149    0.2071    0.0000 O   0  0  0  0  0  0  0  0  0  0  0  0
   -0.7200    1.0310    0.0000 O   0  0  0  0  0  0  0  0  0  0  0  0
    2.1475    1.0310    0.0000 O   0  0  0  0  0  0  0  0  0  0  0  0
   -0.7200    0.2071    0.0000 O   0  0  0  0  0  0  0  0  0  0  0  0
    2.8675    2.2743    0.0000 O   0  0  0  0  0  0  0  0  0  0  0  0
   -1.4299    2.2743    0.0000 O   0  0  0  0  0  0  0  0  0  0  0  0
    0.7149    1.0310    0.0000 C   0  0  3  0  0  0  0  0  0  0  0  0
    0.0026   -1.0362    0.0000 C   0  0  3  0  0  0  0  0  0  0  0  0
    3.5774    1.0310    0.0000 C   0  0  3  0  0  0  0  0  0  0  0  0
   -2.1500    1.0310    0.0000 C   0  0  3  0  0  0  0  0  0  0  0  0
    0.0026    1.4506    0.0000 C   0  0  0  0  0  0  0  0  0  0  0  0
    1.4325    1.4506    0.0000 C   0  0  0  0  0  0  0  0  0  0  0  0
    0.7149   -1.4480    0.0000 C   0  0  0  0  0  0  0  0  0  0  0  0
   -0.7200   -1.4480    0.0000 C   0  0  0  0  0  0  0  0  0  0  0  0
    3.5774    0.2071    0.0000 C   0  0  0  0  0  0  0  0  0  0  0  0
   -2.1500    0.2071    0.0000 C   0  0  0  0  0  0  0  0  0  0  0  0
    4.3002    1.4506    0.0000 C   0  0  0  0  0  0  0  0  0  0  0  0
   -2.8649    1.4506    0.0000 C   0  0  0  0  0  0  0  0  0  0  0  0
   -0.7200   -2.2718    0.0000 C   0  0  0  0  0  0  0  0  0  0  0  0
    4.3002    2.2743    0.0000 C   0  0  0  0  0  0  0  0  0  0  0  0
   -3.5826    1.0310    0.0000 C   0  0  0  0  0  0  0  0  0  0  0  0
   -1.4299   -2.6915    0.0000 C   0  0  0  0  0  0  0  0  0  0  0  0
   -4.2949    1.4506    0.0000 C   0  0  0  0  0  0  0  0  0  0  0  0
    5.0125    2.6862    0.0000 C   0  0  0  0  0  0  0  0  0  0  0  0
    0.7149   -2.2718    0.0000 C   0  0  0  0  0  0  0  0  0  0  0  0
    2.8675   -0.2046    0.0000 C   0  0  0  0  0  0  0  0  0  0  0  0
   -2.8649   -0.2046    0.0000 C   0  0  0  0  0  0  0  0  0  0  0  0
   -1.4299   -3.5126    0.0000 C   0  0  0  0  0  0  0  0  0  0  0  0
   -5.0125    1.0310    0.0000 C   0  0  0  0  0  0  0  0  0  0  0  0
    5.0125    3.5126    0.0000 C   0  0  0  0  0  0  0  0  0  0  0  0
   -0.2141    0.5001    0.0000 H   0  0  0  0  0  0  0  0  0  0  0  0
    0.9294   -0.5015    0.0000 H   0  0  0  0  0  0  0  0  0  0  0  0
    2.6480    0.5007    0.0000 H   0  0  0  0  0  0  0  0  0  0  0  0
   -1.2223    0.4979    0.0000 H   0  0  0  0  0  0  0  0  0  0  0  0
    0.0059    2.5206    0.0000 H   0  0  0  0  0  0  0  0  0  0  0  0
    0.9324    1.9801    0.0000 H   0  0  0  0  0  0  0  0  0  0  0  0
    1.4333    2.5206    0.0000 H   0  0  0  0  0  0  0  0  0  0  0  0
    0.5046    1.9834    0.0000 H   0  0  0  0  0  0  0  0  0  0  0  0
    1.6417   -0.9133    0.0000 H   0  0  0  0  0  0  0  0  0  0  0  0
    1.6415   -1.9831    0.0000 H   0  0  0  0  0  0  0  0  0  0  0  0
   -1.6451   -0.9104    0.0000 H   0  0  0  0  0  0  0  0  0  0  0  0
   -1.6474   -1.9817    0.0000 H   0  0  0  0  0  0  0  0  0  0  0  0
    4.5046   -0.3270    0.0000 H   0  0  0  0  0  0  0  0  0  0  0  0
    3.5790   -0.8629    0.0000 H   0  0  0  0  0  0  0  0  0  0  0  0
   -1.2236   -0.3284    0.0000 H   0  0  0  0  0  0  0  0  0  0  0  0
   -2.1509   -0.8629    0.0000 H   0  0  0  0  0  0  0  0  0  0  0  0
    5.2275    0.9167    0.0000 H   0  0  0  0  0  0  0  0  0  0  0  0
    5.2265    1.9861    0.0000 H   0  0  0  0  0  0  0  0  0  0  0  0
   -2.8640    2.5206    0.0000 H   0  0  0  0  0  0  0  0  0  0  0  0
   -3.7928    1.9835    0.0000 H   0  0  0  0  0  0  0  0  0  0  0  0
    0.2094   -2.8020    0.0000 H   0  0  0  0  0  0  0  0  0  0  0  0
   -0.7117   -3.3418    0.0000 H   0  0  0  0  0  0  0  0  0  0  0  0
    3.3734    2.8090    0.0000 H   0  0  0  0  0  0  0  0  0  0  0  0
    4.2996    3.3443    0.0000 H   0  0  0  0  0  0  0  0  0  0  0  0
   -3.5844   -0.0390    0.0000 H   0  0  0  0  0  0  0  0  0  0  0  0
   -4.5120    0.5008    0.0000 H   0  0  0  0  0  0  0  0  0  0  0  0
   -2.3593   -2.1613    0.0000 H   0  0  0  0  0  0  0  0  0  0  0  0
   -2.3552   -3.2289    0.0000 H   0  0  0  0  0  0  0  0  0  0  0  0
   -4.2932    2.5206    0.0000 H   0  0  0  0  0  0  0  0  0  0  0  0
   -5.2226    1.9838    0.0000 H   0  0  0  0  0  0  0  0  0  0  0  0
    5.9393    2.1515    0.0000 H   0  0  0  0  0  0  0  0  0  0  0  0
    5.9391    3.2214    0.0000 H   0  0  0  0  0  0  0  0  0  0  0  0
   -0.2117   -2.8068    0.0000 H   0  0  0  0  0  0  0  0  0  0  0  0
    1.6415   -2.8068    0.0000 H   0  0  0  0  0  0  0  0  0  0  0  0
    0.7149   -3.3418    0.0000 H   0  0  0  0  0  0  0  0  0  0  0  0
    1.9398    0.3286    0.0000 H   0  0  0  0  0  0  0  0  0  0  0  0
    2.8696   -1.2746    0.0000 H   0  0  0  0  0  0  0  0  0  0  0  0
    1.9419   -0.7414    0.0000 H   0  0  0  0  0  0  0  0  0  0  0  0
   -3.7910    0.3314    0.0000 H   0  0  0  0  0  0  0  0  0  0  0  0
   -2.8661   -1.2746    0.0000 H   0  0  0  0  0  0  0  0  0  0  0  0
   -3.7921   -0.7386    0.0000 H   0  0  0  0  0  0  0  0  0  0  0  0
   -2.3565   -4.0476    0.0000 H   0  0  0  0  0  0  0  0  0  0  0  0
   -0.5033   -4.0476    0.0000 H   0  0  0  0  0  0  0  0  0  0  0  0
   -1.4299   -4.5826    0.0000 H   0  0  0  0  0  0  0  0  0  0  0  0
   -5.9421    1.5609    0.0000 H   0  0  0  0  0  0  0  0  0  0  0  0
   -5.0066   -0.0390    0.0000 H   0  0  0  0  0  0  0  0  0  0  0  0
   -5.9362    0.4909    0.0000 H   0  0  0  0  0  0  0  0  0  0  0  0
    5.9391    4.0476    0.0000 H   0  0  0  0  0  0  0  0  0  0  0  0
    4.0859    4.0476    0.0000 H   0  0  0  0  0  0  0  0  0  0  0  0
    5.0125    4.5826    0.0000 H   0  0  0  0  0  0  0  0  0  0  0  0
  2  5  1  0  0  0  0
  3  6  1  0  0  0  0
  4  1  1  0  0  0  0
  5 14  1  0  0  0  0
  6 15  1  0  0  0  0
  7  1  2  0  0  0  0
  8  3  2  0  0  0  0
  9  2  2  0  0  0  0
 10  4  1  0  0  0  0
 10 34  1  0  0  0  0
 11  1  1  0  0  0  0
 11 35  1  0  0  0  0
 12  3  1  0  0  0  0
 12 36  1  0  0  0  0
 13  2  1  0  0  0  0
 13 37  1  0  0  0  0
 14 10  1  0  0  0  0
 14 38  1  0  0  0  0
 14 39  1  0  0  0  0
 15 10  1  0  0  0  0
 15 40  1  0  0  0  0
 15 41  1  0  0  0  0
 16 11  1  0  0  0  0
 16 42  1  0  0  0  0
 16 43  1  0  0  0  0
 17 11  1  0  0  0  0
 17 44  1  0  0  0  0
 17 45  1  0  0  0  0
 18 12  1  0  0  0  0
 18 46  1  0  0  0  0
 18 47  1  0  0  0  0
 19 13  1  0  0  0  0
 19 48  1  0  0  0  0
 19 49  1  0  0  0  0
 20 12  1  0  0  0  0
 20 50  1  0  0  0  0
 20 51  1  0  0  0  0
 21 13  1  0  0  0  0
 21 52  1  0  0  0  0
 21 53  1  0  0  0  0
 22 17  1  0  0  0  0
 22 54  1  0  0  0  0
 22 55  1  0  0  0  0
 23 20  1  0  0  0  0
 23 56  1  0  0  0  0
 23 57  1  0  0  0  0
 24 21  1  0  0  0  0
 24 58  1  0  0  0  0
 24 59  1  0  0  0  0
 25 22  1  0  0  0  0
 25 60  1  0  0  0  0
 25 61  1  0  0  0  0
 26 24  1  0  0  0  0
 26 62  1  0  0  0  0
 26 63  1  0  0  0  0
 27 23  1  0  0  0  0
 27 64  1  0  0  0  0
 27 65  1  0  0  0  0
 28 16  1  0  0  0  0
 28 66  1  0  0  0  0
 28 67  1  0  0  0  0
 28 68  1  0  0  0  0
 29 18  1  0  0  0  0
 29 69  1  0  0  0  0
 29 70  1  0  0  0  0
 29 71  1  0  0  0  0
 30 19  1  0  0  0  0
 30 72  1  0  0  0  0
 30 73  1  0  0  0  0
 30 74  1  0  0  0  0
 31 25  1  0  0  0  0
 31 75  1  0  0  0  0
 31 76  1  0  0  0  0
 31 77  1  0  0  0  0
 32 26  1  0  0  0  0
 32 78  1  0  0  0  0
 32 79  1  0  0  0  0
 32 80  1  0  0  0  0
 33 27  1  0  0  0  0
 33 81  1  0  0  0  0
 33 82  1  0  0  0  0
 33 83  1  0  0  0  0
M  END
>  <DRUGBANK_ID>
DB14102

>  <COMMON_NAME>
Triethylhexanoin

>  <CAS_NUMBER>
7360-38-5

>  <UNII>
7K3W1BIU6K

$$$$
