
 OpenBabel10282417072D

 28 29  0  0  0  0  0  0  0  0999 V2000
    1.1484   -0.6093    0.0000 C   0  0  0  0  0  0  0  0  0  0  0  0
    1.1484   -1.4417    0.0000 C   0  0  0  0  0  0  0  0  0  0  0  0
    0.4295   -0.1968    0.0000 C   0  0  0  0  0  0  0  0  0  0  0  0
    1.9429   -0.3520    0.0000 N   0  0  0  0  0  0  0  0  0  0  0  0
    1.9392   -1.6914    0.0000 N   0  0  0  0  0  0  0  0  0  0  0  0
    0.4295   -1.8617    0.0000 N   0  0  0  0  0  0  0  0  0  0  0  0
   -0.2857   -0.6093    0.0000 N   0  0  0  0  0  0  0  0  0  0  0  0
    0.4256    0.6280    0.0000 N   0  0  0  0  0  0  0  0  0  0  0  0
    2.4235   -1.0292    0.0000 C   0  0  0  0  0  0  0  0  0  0  0  0
   -0.2857   -1.4417    0.0000 C   0  0  0  0  0  0  0  0  0  0  0  0
   -0.2857    1.0367    0.0000 C   0  0  0  0  0  0  0  0  0  0  0  0
   -1.0007    0.6280    0.0000 C   0  0  0  0  0  0  0  0  0  0  0  0
   -1.7122    1.0367    0.0000 C   0  0  0  0  0  0  0  0  0  0  0  0
   -2.4235    0.6280    0.0000 C   0  0  0  0  0  0  0  0  0  0  0  0
   -1.7122    1.8617    0.0000 C   0  0  0  0  0  0  0  0  0  0  0  0
    2.2458   -2.6269    0.0000 H   0  0  0  0  0  0  0  0  0  0  0  0
    1.2765    1.1231    0.0000 H   0  0  0  0  0  0  0  0  0  0  0  0
    3.4555   -1.0366    0.0000 H   0  0  0  0  0  0  0  0  0  0  0  0
   -1.1813   -1.9544    0.0000 H   0  0  0  0  0  0  0  0  0  0  0  0
   -0.2845    2.1067    0.0000 H   0  0  0  0  0  0  0  0  0  0  0  0
   -1.2109    1.5742    0.0000 H   0  0  0  0  0  0  0  0  0  0  0  0
   -1.0018   -0.4040    0.0000 H   0  0  0  0  0  0  0  0  0  0  0  0
   -3.3490    1.1649    0.0000 H   0  0  0  0  0  0  0  0  0  0  0  0
   -2.4257   -0.4420    0.0000 H   0  0  0  0  0  0  0  0  0  0  0  0
   -3.3513    0.0949    0.0000 H   0  0  0  0  0  0  0  0  0  0  0  0
   -0.7856    2.3967    0.0000 H   0  0  0  0  0  0  0  0  0  0  0  0
   -2.6388    2.3967    0.0000 H   0  0  0  0  0  0  0  0  0  0  0  0
   -1.7122    2.9317    0.0000 H   0  0  0  0  0  0  0  0  0  0  0  0
  1  2  2  0  0  0  0
  1  3  1  0  0  0  0
  1  4  1  0  0  0  0
  2  5  1  0  0  0  0
  2  6  1  0  0  0  0
  3  7  2  0  0  0  0
  3  8  1  0  0  0  0
  4  9  2  0  0  0  0
  5  9  1  0  0  0  0
  5 16  1  0  0  0  0
  6 10  2  0  0  0  0
  7 10  1  0  0  0  0
  8 11  1  0  0  0  0
  8 17  1  0  0  0  0
  9 18  1  0  0  0  0
 10 19  1  0  0  0  0
 11 12  1  0  0  0  0
 11 20  1  0  0  0  0
 11 21  1  0  0  0  0
 12 13  2  0  0  0  0
 12 22  1  0  0  0  0
 13 14  1  0  0  0  0
 13 15  1  0  0  0  0
 14 23  1  0  0  0  0
 14 24  1  0  0  0  0
 14 25  1  0  0  0  0
 15 26  1  0  0  0  0
 15 27  1  0  0  0  0
 15 28  1  0  0  0  0
M  END
>  <DRUGBANK_ID>
DB08768

>  <COMMON_NAME>
N(6)-dimethylallyladenine

>  <CAS_NUMBER>
2365-40-4

>  <UNII>
V500BB256Z

>  <SYNONYMS>
IPADE; Isopentenyl adenine; Isopentenyladenine; N(6)-(delta(2)-Isopentenyl)adenine; N6-(3-methylbut-2-enyl)adenine; N6-(delta2-Isopentenyl)-adenine; N6-dimethylallyladenine; N6-isopentenyladenine

$$$$
