
 OpenBabel10282417072D

 35 36  0  0  0  0  0  0  0  0999 V2000
    0.7589    2.0266    0.0000 C   0  0  0  0  0  0  0  0  0  0  0  0
    1.4733    1.6141    0.0000 N   0  0  0  0  0  0  0  0  0  0  0  0
    1.4733    0.7891    0.0000 C   0  0  0  0  0  0  0  0  0  0  0  0
    0.7589    0.3766    0.0000 N   0  0  0  0  0  0  0  0  0  0  0  0
    0.0444    0.7891    0.0000 C   0  0  0  0  0  0  0  0  0  0  0  0
   -0.6701    0.3766    0.0000 N   0  0  0  0  0  0  0  0  0  0  0  0
   -0.6701   -0.4484    0.0000 S   0  0  0  0  0  0  0  0  0  0  0  0
   -1.4951   -0.4484    0.0000 O   0  0  0  0  0  0  0  0  0  0  0  0
    0.1549   -0.4484    0.0000 O   0  0  0  0  0  0  0  0  0  0  0  0
   -0.6701   -1.2734    0.0000 C   0  0  0  0  0  0  0  0  0  0  0  0
    0.0444   -1.6859    0.0000 C   0  0  0  0  0  0  0  0  0  0  0  0
    0.0444   -2.5109    0.0000 C   0  0  0  0  0  0  0  0  0  0  0  0
   -0.6701   -2.9234    0.0000 C   0  0  0  0  0  0  0  0  0  0  0  0
   -0.6701   -3.7484    0.0000 N   0  0  0  0  0  0  0  0  0  0  0  0
   -1.3846   -2.5109    0.0000 C   0  0  0  0  0  0  0  0  0  0  0  0
   -1.3846   -1.6859    0.0000 C   0  0  0  0  0  0  0  0  0  0  0  0
    0.0444    1.6141    0.0000 C   0  0  0  0  0  0  0  0  0  0  0  0
    0.7589    2.8516    0.0000 O   0  0  0  0  0  0  0  0  0  0  0  0
    1.4734    3.2641    0.0000 C   0  0  0  0  0  0  0  0  0  0  0  0
    2.1878    0.3766    0.0000 O   0  0  0  0  0  0  0  0  0  0  0  0
    2.1878   -0.4484    0.0000 C   0  0  0  0  0  0  0  0  0  0  0  0
   -1.5227    0.8689    0.0000 H   0  0  0  0  0  0  0  0  0  0  0  0
    0.9381   -1.1699    0.0000 H   0  0  0  0  0  0  0  0  0  0  0  0
    0.9381   -3.0269    0.0000 H   0  0  0  0  0  0  0  0  0  0  0  0
   -1.5227   -4.2407    0.0000 H   0  0  0  0  0  0  0  0  0  0  0  0
    0.1825   -4.2407    0.0000 H   0  0  0  0  0  0  0  0  0  0  0  0
   -2.2783   -3.0269    0.0000 H   0  0  0  0  0  0  0  0  0  0  0  0
   -2.2783   -1.1699    0.0000 H   0  0  0  0  0  0  0  0  0  0  0  0
   -0.8493    2.1301    0.0000 H   0  0  0  0  0  0  0  0  0  0  0  0
    2.4000    2.7291    0.0000 H   0  0  0  0  0  0  0  0  0  0  0  0
    1.4734    4.3341    0.0000 H   0  0  0  0  0  0  0  0  0  0  0  0
    2.4001    3.7991    0.0000 H   0  0  0  0  0  0  0  0  0  0  0  0
    1.2612   -0.9834    0.0000 H   0  0  0  0  0  0  0  0  0  0  0  0
    3.1144   -0.9834    0.0000 H   0  0  0  0  0  0  0  0  0  0  0  0
    2.1878   -1.5184    0.0000 H   0  0  0  0  0  0  0  0  0  0  0  0
  1  2  2  0  0  0  0
  1 17  1  0  0  0  0
  2  3  1  0  0  0  0
  3 20  1  0  0  0  0
  3  4  2  0  0  0  0
  4  5  1  0  0  0  0
  5  6  1  0  0  0  0
  5 17  2  0  0  0  0
  6  7  1  0  0  0  0
  6 22  1  0  0  0  0
  7  8  2  0  0  0  0
  7  9  2  0  0  0  0
  7 10  1  0  0  0  0
 10 11  2  0  0  0  0
 10 16  1  0  0  0  0
 11 12  1  0  0  0  0
 11 23  1  0  0  0  0
 12 13  2  0  0  0  0
 12 24  1  0  0  0  0
 13 14  1  0  0  0  0
 13 15  1  0  0  0  0
 14 25  1  0  0  0  0
 14 26  1  0  0  0  0
 15 16  2  0  0  0  0
 15 27  1  0  0  0  0
 16 28  1  0  0  0  0
 17 29  1  0  0  0  0
 18  1  1  0  0  0  0
 18 19  1  0  0  0  0
 19 30  1  0  0  0  0
 19 31  1  0  0  0  0
 19 32  1  0  0  0  0
 20 21  1  0  0  0  0
 21 33  1  0  0  0  0
 21 34  1  0  0  0  0
 21 35  1  0  0  0  0
M  END
>  <DRUGBANK_ID>
DB06150

>  <COMMON_NAME>
Sulfadimethoxine

>  <CAS_NUMBER>
122-11-2

>  <UNII>
30CPC5LDEX

>  <SYNONYMS>
2,4-dimethoxy-6-sulfanilamido-1,3-diazine; 2,6-dimethoxy-4-(p-aminobenzenesulfonamido)pyrimidine; 2,6-dimethoxy-4-sulfanilamidopyrimidine; 4-amino-N-(2,6-dimethoxy-4-pyrimidinyl)benzenesulfonamide; 6-sulfanilamido-2,4-dimethoxypyrimidine; N(1)-(2,6-Dimethoxy-4-pyrimidinyl)sulfanilamide; Sulfadimethoxine; Sulfadimethoxinum; Sulfadimethoxydiazine; Sulfadimetoxina; Sulphadimethoxine

$$$$
