
 OpenBabel10282417072D

 69 74  0  0  1  0  0  0  0  0999 V2000
    7.6221    1.9904    0.0000 C   0  0  0  0  0  0  0  0  0  0  0  0
    7.3671    2.7750    0.0000 C   0  0  2  0  0  0  0  0  0  0  0  0
    7.9192    3.3881    0.0000 C   0  0  0  0  0  0  0  0  0  0  0  0
    8.7262    3.2166    0.0000 N   0  0  0  0  0  0  0  0  0  0  0  0
    9.2782    3.8296    0.0000 C   0  0  0  0  0  0  0  0  0  0  0  0
   10.0852    3.6581    0.0000 C   0  0  0  0  0  0  0  0  0  0  0  0
   10.3401    2.8735    0.0000 O   0  0  0  0  0  0  0  0  0  0  0  0
    9.7881    2.2604    0.0000 C   0  0  0  0  0  0  0  0  0  0  0  0
    8.9811    2.4319    0.0000 C   0  0  0  0  0  0  0  0  0  0  0  0
    6.5602    2.9465    0.0000 N   0  0  0  0  0  0  0  0  0  0  0  0
    6.2246    3.7002    0.0000 C   0  0  0  0  0  0  0  0  0  0  0  0
    6.6371    4.4147    0.0000 N   0  0  0  0  0  0  0  0  0  0  0  0
    6.2246    5.1291    0.0000 C   0  0  0  0  0  0  0  0  0  0  0  0
    5.3996    5.1291    0.0000 N   0  0  0  0  0  0  0  0  0  0  0  0
    6.6371    5.8436    0.0000 O   0  0  0  0  0  0  0  0  0  0  0  0
    5.4041    3.6140    0.0000 N   0  0  0  0  0  0  0  0  0  0  0  0
    5.2326    2.8070    0.0000 C   0  0  0  0  0  0  0  0  0  0  0  0
    5.9471    2.3945    0.0000 C   0  0  0  0  0  0  0  0  0  0  0  0
    5.9471    1.5695    0.0000 C   0  0  0  0  0  0  0  0  0  0  0  0
    5.2326    1.1570    0.0000 C   0  0  0  0  0  0  0  0  0  0  0  0
    4.5181    1.5695    0.0000 C   0  0  0  0  0  0  0  0  0  0  0  0
    3.8037    1.1570    0.0000 C   0  0  0  0  0  0  0  0  0  0  0  0
    3.8037    0.3320    0.0000 C   0  0  0  0  0  0  0  0  0  0  0  0
    4.5470   -0.0260    0.0000 C   0  0  0  0  0  0  0  0  0  0  0  0
    5.1517    0.5352    0.0000 C   0  0  0  0  0  0  0  0  0  0  0  0
    5.9401    0.2920    0.0000 C   0  0  0  0  0  0  0  0  0  0  0  0
    6.1237   -0.5123    0.0000 C   0  0  0  0  0  0  0  0  0  0  0  0
    5.5189   -1.0735    0.0000 C   0  0  0  0  0  0  0  0  0  0  0  0
    4.7305   -0.8303    0.0000 C   0  0  0  0  0  0  0  0  0  0  0  0
    4.2162   -1.4753    0.0000 C   0  0  0  0  0  0  0  0  0  0  0  0
    3.3912   -1.4753    0.0000 O   0  0  0  0  0  0  0  0  0  0  0  0
    2.8768   -0.8303    0.0000 C   0  0  0  0  0  0  0  0  0  0  0  0
    2.0884   -1.0735    0.0000 C   0  0  0  0  0  0  0  0  0  0  0  0
    1.4837   -0.5123    0.0000 C   0  0  0  0  0  0  0  0  0  0  0  0
    0.6953   -0.7555    0.0000 F   0  0  0  0  0  0  0  0  0  0  0  0
    1.6673    0.2920    0.0000 C   0  0  0  0  0  0  0  0  0  0  0  0
    2.4556    0.5352    0.0000 C   0  0  0  0  0  0  0  0  0  0  0  0
    3.0604   -0.0260    0.0000 C   0  0  0  0  0  0  0  0  0  0  0  0
    4.5181    2.3945    0.0000 C   0  0  0  0  0  0  0  0  0  0  0  0
    6.9062    1.1952    0.0000 H   0  0  0  0  0  0  0  0  0  0  0  0
    8.6687    1.7680    0.0000 H   0  0  0  0  0  0  0  0  0  0  0  0
    7.9528    0.9728    0.0000 H   0  0  0  0  0  0  0  0  0  0  0  0
    8.4137    2.5525    0.0000 H   0  0  0  0  0  0  0  0  0  0  0  0
    7.5886    4.4057    0.0000 H   0  0  0  0  0  0  0  0  0  0  0  0
    8.6352    4.1833    0.0000 H   0  0  0  0  0  0  0  0  0  0  0  0
    8.9476    4.8472    0.0000 H   0  0  0  0  0  0  0  0  0  0  0  0
    9.9942    4.6248    0.0000 H   0  0  0  0  0  0  0  0  0  0  0  0
   10.8012    4.4533    0.0000 H   0  0  0  0  0  0  0  0  0  0  0  0
   11.1318    3.4356    0.0000 H   0  0  0  0  0  0  0  0  0  0  0  0
   10.1188    1.2428    0.0000 H   0  0  0  0  0  0  0  0  0  0  0  0
    9.0722    1.4652    0.0000 H   0  0  0  0  0  0  0  0  0  0  0  0
    8.2651    1.6367    0.0000 H   0  0  0  0  0  0  0  0  0  0  0  0
    7.9345    2.6544    0.0000 H   0  0  0  0  0  0  0  0  0  0  0  0
    7.6216    4.4147    0.0000 H   0  0  0  0  0  0  0  0  0  0  0  0
    4.9074    5.9817    0.0000 H   0  0  0  0  0  0  0  0  0  0  0  0
    4.9074    4.2765    0.0000 H   0  0  0  0  0  0  0  0  0  0  0  0
    6.8408    1.0535    0.0000 H   0  0  0  0  0  0  0  0  0  0  0  0
    5.2326    0.1250    0.0000 H   0  0  0  0  0  0  0  0  0  0  0  0
    2.9100    1.6730    0.0000 H   0  0  0  0  0  0  0  0  0  0  0  0
    4.9220    1.5413    0.0000 H   0  0  0  0  0  0  0  0  0  0  0  0
    6.6966    0.9939    0.0000 H   0  0  0  0  0  0  0  0  0  0  0  0
    7.1099   -0.8165    0.0000 H   0  0  0  0  0  0  0  0  0  0  0  0
    5.7485   -2.0796    0.0000 H   0  0  0  0  0  0  0  0  0  0  0  0
    4.6805   -2.4393    0.0000 H   0  0  0  0  0  0  0  0  0  0  0  0
    3.6469   -2.3813    0.0000 H   0  0  0  0  0  0  0  0  0  0  0  0
    1.8587   -2.0796    0.0000 H   0  0  0  0  0  0  0  0  0  0  0  0
    0.9108    0.9939    0.0000 H   0  0  0  0  0  0  0  0  0  0  0  0
    2.6852    1.5413    0.0000 H   0  0  0  0  0  0  0  0  0  0  0  0
    3.6244    2.9105    0.0000 H   0  0  0  0  0  0  0  0  0  0  0  0
  1 40  1  0  0  0  0
  1 41  1  0  0  0  0
  1 42  1  0  0  0  0
  2  1  1  0  0  0  0
  2  3  1  0  0  0  0
  2 10  1  0  0  0  0
  2 43  1  6  0  0  0
  3  4  1  0  0  0  0
  3 44  1  0  0  0  0
  3 45  1  0  0  0  0
  4  5  1  0  0  0  0
  4  9  1  0  0  0  0
  5  6  1  0  0  0  0
  5 46  1  0  0  0  0
  5 47  1  0  0  0  0
  6  7  1  0  0  0  0
  6 48  1  0  0  0  0
  6 49  1  0  0  0  0
  7  8  1  0  0  0  0
  8  9  1  0  0  0  0
  8 50  1  0  0  0  0
  8 51  1  0  0  0  0
  9 52  1  0  0  0  0
  9 53  1  0  0  0  0
 10 11  1  0  0  0  0
 10 18  1  0  0  0  0
 11 12  1  0  0  0  0
 11 16  2  0  0  0  0
 12 13  1  0  0  0  0
 12 54  1  0  0  0  0
 13 14  1  0  0  0  0
 13 15  2  0  0  0  0
 14 55  1  0  0  0  0
 14 56  1  0  0  0  0
 16 17  1  0  0  0  0
 17 18  2  0  0  0  0
 17 39  1  0  0  0  0
 18 19  1  0  0  0  0
 19 20  2  0  0  0  0
 19 57  1  0  0  0  0
 20 21  1  0  0  0  0
 20 58  1  0  0  0  0
 21 22  1  0  0  0  0
 21 39  2  0  0  0  0
 22 23  2  0  0  0  0
 22 59  1  0  0  0  0
 23 24  1  0  0  0  0
 23 38  1  0  0  0  0
 24 25  2  0  0  0  0
 24 29  1  0  0  0  0
 25 26  1  0  0  0  0
 25 60  1  0  0  0  0
 26 27  2  0  0  0  0
 26 61  1  0  0  0  0
 27 28  1  0  0  0  0
 27 62  1  0  0  0  0
 28 29  2  0  0  0  0
 28 63  1  0  0  0  0
 29 30  1  0  0  0  0
 30 31  1  0  0  0  0
 30 64  1  0  0  0  0
 30 65  1  0  0  0  0
 31 32  1  0  0  0  0
 32 33  2  0  0  0  0
 32 38  1  0  0  0  0
 33 34  1  0  0  0  0
 33 66  1  0  0  0  0
 34 35  1  0  0  0  0
 34 36  2  0  0  0  0
 36 37  1  0  0  0  0
 36 67  1  0  0  0  0
 37 38  2  0  0  0  0
 37 68  1  0  0  0  0
 39 69  1  0  0  0  0
M  END
>  <DRUGBANK_ID>
DB15367

>  <COMMON_NAME>
LY-2623091

>  <CAS_NUMBER>
1162264-07-4

>  <UNII>
6FHZ595FNM

$$$$
