TL1
 OpenBabel10282417072D

 50 53  0  0  0  0  0  0  0  0999 V2000
   -3.0688   -3.8349    0.0000 N   0  0  0  0  0  0  0  0  0  0  0  0
   -2.2619   -3.6634    0.0000 C   0  0  0  0  0  0  0  0  0  0  0  0
   -1.7098   -4.2765    0.0000 N   0  0  0  0  0  0  0  0  0  0  0  0
   -2.0069   -2.8788    0.0000 C   0  0  0  0  0  0  0  0  0  0  0  0
   -2.5589   -2.2657    0.0000 C   0  0  0  0  0  0  0  0  0  0  0  0
   -2.3040   -1.4811    0.0000 C   0  0  0  0  0  0  0  0  0  0  0  0
   -1.4970   -1.3096    0.0000 C   0  0  0  0  0  0  0  0  0  0  0  0
   -0.9450   -1.9227    0.0000 C   0  0  0  0  0  0  0  0  0  0  0  0
   -0.1380   -1.7511    0.0000 O   0  0  0  0  0  0  0  0  0  0  0  0
    0.1169   -0.9665    0.0000 C   0  0  2  0  0  0  0  0  0  0  0  0
   -0.3680   -0.2991    0.0000 C   0  0  0  0  0  0  0  0  0  0  0  0
    0.1169    0.3684    0.0000 O   0  0  0  0  0  0  0  0  0  0  0  0
    0.9015    0.1134    0.0000 C   0  0  2  0  0  0  0  0  0  0  0  0
    1.6862    0.3684    0.0000 C   0  0  1  0  0  0  0  0  0  0  0  0
    1.9411    1.1530    0.0000 O   0  0  0  0  0  0  0  0  0  0  0  0
    1.3891    1.7661    0.0000 C   0  0  0  0  0  0  0  0  0  0  0  0
    0.5821    1.5946    0.0000 C   0  0  0  0  0  0  0  0  0  0  0  0
    0.0301    2.2077    0.0000 C   0  0  0  0  0  0  0  0  0  0  0  0
    0.2850    2.9923    0.0000 C   0  0  0  0  0  0  0  0  0  0  0  0
    1.0920    3.1638    0.0000 C   0  0  0  0  0  0  0  0  0  0  0  0
    1.3469    3.9484    0.0000 C   0  0  0  0  0  0  0  0  0  0  0  0
    0.7949    4.5615    0.0000 N   0  0  0  0  0  0  0  0  0  0  0  0
    2.1539    4.1200    0.0000 N   0  0  0  0  0  0  0  0  0  0  0  0
    1.6440    2.5507    0.0000 C   0  0  0  0  0  0  0  0  0  0  0  0
    2.1711   -0.2991    0.0000 C   0  0  0  0  0  0  0  0  0  0  0  0
    1.6862   -0.9665    0.0000 O   0  0  0  0  0  0  0  0  0  0  0  0
    0.9015   -0.7116    0.0000 C   0  0  2  0  0  0  0  0  0  0  0  0
   -1.1999   -2.7073    0.0000 C   0  0  0  0  0  0  0  0  0  0  0  0
   -0.4598   -1.0578    0.0000 H   0  0  0  0  0  0  0  0  0  0  0  0
    0.9015    0.6974    0.0000 H   0  0  0  0  0  0  0  0  0  0  0  0
    1.2733    0.7813    0.0000 H   0  0  0  0  0  0  0  0  0  0  0  0
    0.9015   -1.2955    0.0000 H   0  0  0  0  0  0  0  0  0  0  0  0
   -3.7275   -3.1033    0.0000 H   0  0  0  0  0  0  0  0  0  0  0  0
   -2.0140   -5.2128    0.0000 H   0  0  0  0  0  0  0  0  0  0  0  0
   -0.7468   -4.0718    0.0000 H   0  0  0  0  0  0  0  0  0  0  0  0
   -3.5683   -2.4803    0.0000 H   0  0  0  0  0  0  0  0  0  0  0  0
   -2.9945   -0.7142    0.0000 H   0  0  0  0  0  0  0  0  0  0  0  0
   -1.1781   -0.3281    0.0000 H   0  0  0  0  0  0  0  0  0  0  0  0
   -1.4380   -0.2991    0.0000 H   0  0  0  0  0  0  0  0  0  0  0  0
   -0.8538    0.6543    0.0000 H   0  0  0  0  0  0  0  0  0  0  0  0
    0.2632    0.6131    0.0000 H   0  0  0  0  0  0  0  0  0  0  0  0
   -0.9793    1.9931    0.0000 H   0  0  0  0  0  0  0  0  0  0  0  0
   -0.4055    3.7592    0.0000 H   0  0  0  0  0  0  0  0  0  0  0  0
    1.0992    5.4978    0.0000 H   0  0  0  0  0  0  0  0  0  0  0  0
    2.8127    3.3884    0.0000 H   0  0  0  0  0  0  0  0  0  0  0  0
    2.4581    5.0563    0.0000 H   0  0  0  0  0  0  0  0  0  0  0  0
    2.6534    2.7653    0.0000 H   0  0  0  0  0  0  0  0  0  0  0  0
    3.2411   -0.2991    0.0000 H   0  0  0  0  0  0  0  0  0  0  0  0
    2.6569   -1.2525    0.0000 H   0  0  0  0  0  0  0  0  0  0  0  0
   -0.5094   -3.4742    0.0000 H   0  0  0  0  0  0  0  0  0  0  0  0
  1  2  2  0  0  0  0
  1 33  1  0  0  0  0
  2  3  1  0  0  0  0
  2  4  1  0  0  0  0
  3 34  1  0  0  0  0
  3 35  1  0  0  0  0
  4  5  2  0  0  0  0
  4 28  1  0  0  0  0
  5  6  1  0  0  0  0
  5 36  1  0  0  0  0
  6  7  2  0  0  0  0
  6 37  1  0  0  0  0
  7  8  1  0  0  0  0
  7 38  1  0  0  0  0
  8  9  1  0  0  0  0
  8 28  2  0  0  0  0
 10  9  1  0  0  0  0
 10 11  1  0  0  0  0
 10 27  1  0  0  0  0
 10 29  1  1  0  0  0
 11 12  1  0  0  0  0
 11 39  1  0  0  0  0
 11 40  1  0  0  0  0
 12 13  1  0  0  0  0
 13 14  1  0  0  0  0
 13 27  1  0  0  0  0
 13 30  1  1  0  0  0
 14 15  1  0  0  0  0
 14 25  1  0  0  0  0
 14 31  1  6  0  0  0
 15 16  1  0  0  0  0
 16 17  2  0  0  0  0
 16 24  1  0  0  0  0
 17 18  1  0  0  0  0
 17 41  1  0  0  0  0
 18 19  2  0  0  0  0
 18 42  1  0  0  0  0
 19 20  1  0  0  0  0
 19 43  1  0  0  0  0
 20 21  1  0  0  0  0
 20 24  2  0  0  0  0
 21 22  2  0  0  0  0
 21 23  1  0  0  0  0
 22 44  1  0  0  0  0
 23 45  1  0  0  0  0
 23 46  1  0  0  0  0
 24 47  1  0  0  0  0
 25 26  1  0  0  0  0
 25 48  1  0  0  0  0
 25 49  1  0  0  0  0
 26 27  1  0  0  0  0
 27 32  1  1  0  0  0
 28 50  1  0  0  0  0
M  END
>  <DRUGBANK_ID>
DB04790

>  <COMMON_NAME>
2,5-bis-O-{3-[amino(imino)methyl]phenyl}-1,4:3,6-dianhydro-D-glucitol

>  <SYNONYMS>
1,4:3,6-Dianhydro-2,5-bis-O-(3-carbamimidoylphenyl)-D-glucitol

$$$$
