
 OpenBabel10282417072D

 15 12  0  0  0  0  0  0  0  0999 V2000
   -1.1197    0.0000    0.0000 C   0  0  0  0  0  0  0  0  0  0  0  0
   -0.7072   -0.7145    0.0000 C   0  0  0  0  0  0  0  0  0  0  0  0
   -0.7072    0.7145    0.0000 O   0  0  0  0  0  0  0  0  0  0  0  0
   -1.9447    0.0000    0.0000 O   0  5  0  0  0  0  0  0  0  0  0  0
    2.3573    0.0000    0.0000 C   0  0  0  0  0  0  0  0  0  0  0  0
    2.7698    0.7145    0.0000 C   0  0  0  0  0  0  0  0  0  0  0  0
    2.7698   -0.7145    0.0000 O   0  0  0  0  0  0  0  0  0  0  0  0
    1.5322    0.0000    0.0000 O   0  5  0  0  0  0  0  0  0  0  0  0
   -2.7698    0.0000    0.0000 Mg  0  2  0  0  0  0  0  0  0  0  0  0
   -1.2422   -1.6411    0.0000 H   0  0  0  0  0  0  0  0  0  0  0  0
    0.3628   -0.7145    0.0000 H   0  0  0  0  0  0  0  0  0  0  0  0
   -0.1722   -1.6412    0.0000 H   0  0  0  0  0  0  0  0  0  0  0  0
    3.8398    0.7145    0.0000 H   0  0  0  0  0  0  0  0  0  0  0  0
    2.2348    1.6411    0.0000 H   0  0  0  0  0  0  0  0  0  0  0  0
    3.3048    1.6412    0.0000 H   0  0  0  0  0  0  0  0  0  0  0  0
  1  2  1  0  0  0  0
  1  3  2  0  0  0  0
  1  4  1  0  0  0  0
  2 10  1  0  0  0  0
  2 11  1  0  0  0  0
  2 12  1  0  0  0  0
  5  6  1  0  0  0  0
  5  7  2  0  0  0  0
  5  8  1  0  0  0  0
  6 13  1  0  0  0  0
  6 14  1  0  0  0  0
  6 15  1  0  0  0  0
M  CHG  3   4  -1   8  -1   9   2
M  END
>  <DRUGBANK_ID>
DB13996

>  <SECONDARY_ACCESSION_NUMBERS>
DBSALT001426

>  <COMMON_NAME>
Magnesium acetate

>  <CAS_NUMBER>
142-72-3

>  <UNII>
0E95JZY48K

>  <SYNONYMS>
acetato de magnesio; acetic acid magnesium salt; Acetic acid, magnesium salt (2:1); Magnesium di(acetate); magnesium diacetate; Mg(II) acetate

$$$$
