DEE
 OpenBabel10282417072D

 24 24  0  0  0  0  0  0  0  0999 V2000
    0.9929   -0.8699    0.0000 O   0  0  0  0  0  0  0  0  0  0  0  0
    0.3798   -0.3179    0.0000 C   0  0  0  0  0  0  0  0  0  0  0  0
    0.5513    0.4891    0.0000 O   0  0  0  0  0  0  0  0  0  0  0  0
    1.3360    0.7440    0.0000 C   0  0  0  0  0  0  0  0  0  0  0  0
    1.5075    1.5510    0.0000 C   0  0  0  0  0  0  0  0  0  0  0  0
   -0.4048   -0.5728    0.0000 C   0  0  0  0  0  0  0  0  0  0  0  0
   -0.6598   -1.3575    0.0000 C   0  0  0  0  0  0  0  0  0  0  0  0
   -0.1748   -2.0249    0.0000 C   0  0  0  0  0  0  0  0  0  0  0  0
   -1.0723   -0.0879    0.0000 C   0  0  0  0  0  0  0  0  0  0  0  0
   -1.0723    0.7371    0.0000 C   0  0  0  0  0  0  0  0  0  0  0  0
   -1.7397   -0.5728    0.0000 N   0  0  0  0  0  0  0  0  0  0  0  0
   -1.4848   -1.3575    0.0000 N   0  0  0  0  0  0  0  0  0  0  0  0
    2.1312    0.0280    0.0000 H   0  0  0  0  0  0  0  0  0  0  0  0
    2.3536    1.0747    0.0000 H   0  0  0  0  0  0  0  0  0  0  0  0
    2.5251    1.8817    0.0000 H   0  0  0  0  0  0  0  0  0  0  0  0
    0.7123    2.2669    0.0000 H   0  0  0  0  0  0  0  0  0  0  0  0
    1.7299    2.5976    0.0000 H   0  0  0  0  0  0  0  0  0  0  0  0
   -0.6099   -3.0024    0.0000 H   0  0  0  0  0  0  0  0  0  0  0  0
    0.8893   -1.9129    0.0000 H   0  0  0  0  0  0  0  0  0  0  0  0
    0.4542   -2.8905    0.0000 H   0  0  0  0  0  0  0  0  0  0  0  0
   -0.1457    1.2721    0.0000 H   0  0  0  0  0  0  0  0  0  0  0  0
   -1.9989    1.2721    0.0000 H   0  0  0  0  0  0  0  0  0  0  0  0
   -1.0723    1.8071    0.0000 H   0  0  0  0  0  0  0  0  0  0  0  0
   -2.6760   -0.2685    0.0000 H   0  0  0  0  0  0  0  0  0  0  0  0
  1  2  2  0  0  0  0
  2  3  1  0  0  0  0
  2  6  1  0  0  0  0
  3  4  1  0  0  0  0
  4  5  1  0  0  0  0
  4 13  1  0  0  0  0
  4 14  1  0  0  0  0
  5 15  1  0  0  0  0
  5 16  1  0  0  0  0
  5 17  1  0  0  0  0
  6  7  1  0  0  0  0
  6  9  2  0  0  0  0
  7  8  1  0  0  0  0
  7 12  2  0  0  0  0
  8 18  1  0  0  0  0
  8 19  1  0  0  0  0
  8 20  1  0  0  0  0
  9 10  1  0  0  0  0
  9 11  1  0  0  0  0
 10 21  1  0  0  0  0
 10 22  1  0  0  0  0
 10 23  1  0  0  0  0
 11 12  1  0  0  0  0
 11 24  1  0  0  0  0
M  END
>  <DRUGBANK_ID>
DB04271

>  <SECONDARY_ACCESSION_NUMBERS>
EXPT01155

>  <COMMON_NAME>
3,5-Dimethyl-1h-Pyrazole-4-Carboxylic Acid Ethyl Ester

>  <UNII>
SS3UNU86DP

$$$$
