
 OpenBabel10282417072D

 27 27  0  0  0  0  0  0  0  0999 V2000
    5.6873   -5.4105    0.0000 Cl  0  0  0  0  0  0  0  0  0  0  0  0
    7.8280   -3.3125    0.0000 O   0  0  0  0  0  0  0  0  0  0  0  0
    3.5536   -3.3125    0.0000 O   0  0  0  0  0  0  0  0  0  0  0  0
    8.5250   -5.4105    0.0000 O   0  0  0  0  0  0  0  0  0  0  0  0
    9.2647   -4.1801    0.0000 O   0  0  0  0  0  0  0  0  0  0  0  0
    2.8495   -5.4105    0.0000 O   0  0  0  0  0  0  0  0  0  0  0  0
    2.1525   -4.1801    0.0000 O   0  0  0  0  0  0  0  0  0  0  0  0
    7.1239   -4.5855    0.0000 N   0  0  0  0  0  0  0  0  0  0  0  0
    4.2506   -4.5855    0.0000 N   0  0  0  0  0  0  0  0  0  0  0  0
    5.6873   -1.2571    0.0000 N   0  0  0  0  0  0  0  0  0  0  0  0
    5.6873   -4.5855    0.0000 C   0  0  0  0  0  0  0  0  0  0  0  0
    6.3843   -4.1375    0.0000 C   0  0  0  0  0  0  0  0  0  0  0  0
    4.9903   -4.1375    0.0000 C   0  0  0  0  0  0  0  0  0  0  0  0
    5.6873   -2.9000    0.0000 C   0  0  0  0  0  0  0  0  0  0  0  0
    6.3843   -3.3125    0.0000 C   0  0  0  0  0  0  0  0  0  0  0  0
    4.9903   -3.3125    0.0000 C   0  0  0  0  0  0  0  0  0  0  0  0
    7.8280   -4.1801    0.0000 C   0  0  0  0  0  0  0  0  0  0  0  0
    3.5536   -4.1801    0.0000 C   0  0  0  0  0  0  0  0  0  0  0  0
    5.6873   -2.0821    0.0000 C   0  0  0  0  0  0  0  0  0  0  0  0
    8.5250   -4.5855    0.0000 C   0  0  0  0  0  0  0  0  0  0  0  0
    2.8495   -4.5500    0.0000 C   0  0  0  0  0  0  0  0  0  0  0  0
   10.0655   -4.6665    0.0000 H   0  0  0  0  0  0  0  0  0  0  0  0
    2.1191   -3.2437    0.0000 H   0  0  0  0  0  0  0  0  0  0  0  0
    7.1130   -5.5699    0.0000 H   0  0  0  0  0  0  0  0  0  0  0  0
    4.2593   -5.5700    0.0000 H   0  0  0  0  0  0  0  0  0  0  0  0
    7.2808   -2.8013    0.0000 H   0  0  0  0  0  0  0  0  0  0  0  0
    4.0938   -2.8013    0.0000 H   0  0  0  0  0  0  0  0  0  0  0  0
  1 11  1  0  0  0  0
  2 17  2  0  0  0  0
  3 18  2  0  0  0  0
  4 20  2  0  0  0  0
  5 20  1  0  0  0  0
  5 22  1  0  0  0  0
  6 21  2  0  0  0  0
  7 21  1  0  0  0  0
  7 23  1  0  0  0  0
  8 12  1  0  0  0  0
  8 17  1  0  0  0  0
  8 24  1  0  0  0  0
  9 13  1  0  0  0  0
  9 18  1  0  0  0  0
  9 25  1  0  0  0  0
 10 19  3  0  0  0  0
 11 12  2  0  0  0  0
 11 13  1  0  0  0  0
 12 15  1  0  0  0  0
 13 16  2  0  0  0  0
 14 15  2  0  0  0  0
 14 16  1  0  0  0  0
 14 19  1  0  0  0  0
 15 26  1  0  0  0  0
 16 27  1  0  0  0  0
 17 20  1  0  0  0  0
 18 21  1  0  0  0  0
M  END
>  <DRUGBANK_ID>
DB06794

>  <COMMON_NAME>
Lodoxamide

>  <CAS_NUMBER>
53882-12-5

>  <UNII>
SPU695OD73

>  <SYNONYMS>
Lodoxamida; Lodoxamide; N,N'-(2-chloro-5-cyano-m-phenylene)dioxamate

$$$$
