
 OpenBabel10282417072D

 41 43  0  0  0  0  0  0  0  0999 V2000
   -3.4040    1.0816    0.0000 C   0  0  0  0  0  0  0  0  0  0  0  0
   -4.1184    0.6692    0.0000 C   0  0  0  0  0  0  0  0  0  0  0  0
   -4.1184   -0.1558    0.0000 C   0  0  0  0  0  0  0  0  0  0  0  0
   -3.4040   -0.5683    0.0000 C   0  0  0  0  0  0  0  0  0  0  0  0
   -2.6894   -0.1558    0.0000 C   0  0  0  0  0  0  0  0  0  0  0  0
   -2.6894    0.6692    0.0000 C   0  0  0  0  0  0  0  0  0  0  0  0
   -4.8329    1.0816    0.0000 Cl  0  0  0  0  0  0  0  0  0  0  0  0
   -1.9751   -0.5683    0.0000 C   0  0  0  0  0  0  0  0  0  0  0  0
   -1.2606   -0.1558    0.0000 N   0  0  0  0  0  0  0  0  0  0  0  0
   -1.9751   -1.3932    0.0000 O   0  0  0  0  0  0  0  0  0  0  0  0
   -0.5069   -0.4913    0.0000 C   0  0  0  0  0  0  0  0  0  0  0  0
    0.0451    0.1216    0.0000 C   0  0  0  0  0  0  0  0  0  0  0  0
   -0.3673    0.8361    0.0000 C   0  0  0  0  0  0  0  0  0  0  0  0
   -1.1742    0.6646    0.0000 C   0  0  0  0  0  0  0  0  0  0  0  0
   -1.7873    1.2165    0.0000 C   0  0  0  0  0  0  0  0  0  0  0  0
   -0.0318    1.5898    0.0000 C   0  0  0  0  0  0  0  0  0  0  0  0
   -0.5167    2.2572    0.0000 C   0  0  0  0  0  0  0  0  0  0  0  0
   -1.3372    2.1710    0.0000 O   0  0  0  0  0  0  0  0  0  0  0  0
   -0.1812    3.0109    0.0000 O   0  0  0  0  0  0  0  0  0  0  0  0
   -0.2519   -1.2760    0.0000 C   0  0  0  0  0  0  0  0  0  0  0  0
    0.5548   -1.4476    0.0000 C   0  0  0  0  0  0  0  0  0  0  0  0
    1.1070   -0.8346    0.0000 C   0  0  0  0  0  0  0  0  0  0  0  0
    0.8521   -0.0497    0.0000 C   0  0  0  0  0  0  0  0  0  0  0  0
    1.9139   -1.0062    0.0000 O   0  0  0  0  0  0  0  0  0  0  0  0
    2.4660   -0.3931    0.0000 C   0  0  0  0  0  0  0  0  0  0  0  0
   -3.4041    2.1136    0.0000 H   0  0  0  0  0  0  0  0  0  0  0  0
   -5.0121   -0.6718    0.0000 H   0  0  0  0  0  0  0  0  0  0  0  0
   -3.4041   -1.6003    0.0000 H   0  0  0  0  0  0  0  0  0  0  0  0
   -1.7957    1.1853    0.0000 H   0  0  0  0  0  0  0  0  0  0  0  0
   -1.5650    2.2631    0.0000 H   0  0  0  0  0  0  0  0  0  0  0  0
   -2.8049    0.8857    0.0000 H   0  0  0  0  0  0  0  0  0  0  0  0
   -2.5826    1.9324    0.0000 H   0  0  0  0  0  0  0  0  0  0  0  0
    1.0323    1.7017    0.0000 H   0  0  0  0  0  0  0  0  0  0  0  0
    0.4034    2.5673    0.0000 H   0  0  0  0  0  0  0  0  0  0  0  0
    0.7507    3.1089    0.0000 H   0  0  0  0  0  0  0  0  0  0  0  0
   -0.9425   -2.0429    0.0000 H   0  0  0  0  0  0  0  0  0  0  0  0
    0.8735   -2.4292    0.0000 H   0  0  0  0  0  0  0  0  0  0  0  0
    1.5426    0.7173    0.0000 H   0  0  0  0  0  0  0  0  0  0  0  0
    3.5126   -0.6156    0.0000 H   0  0  0  0  0  0  0  0  0  0  0  0
    2.1354    0.6245    0.0000 H   0  0  0  0  0  0  0  0  0  0  0  0
    3.1820    0.4020    0.0000 H   0  0  0  0  0  0  0  0  0  0  0  0
  1  2  2  0  0  0  0
  1 26  1  0  0  0  0
  2  3  1  0  0  0  0
  2  7  1  0  0  0  0
  3  4  2  0  0  0  0
  3 27  1  0  0  0  0
  4  5  1  0  0  0  0
  4 28  1  0  0  0  0
  5  6  2  0  0  0  0
  5  8  1  0  0  0  0
  6  1  1  0  0  0  0
  6 29  1  0  0  0  0
  8 10  2  0  0  0  0
  8  9  1  0  0  0  0
  9 11  1  0  0  0  0
  9 14  1  0  0  0  0
 11 12  2  0  0  0  0
 11 20  1  0  0  0  0
 12 13  1  0  0  0  0
 13 14  2  0  0  0  0
 13 16  1  0  0  0  0
 14 15  1  0  0  0  0
 15 30  1  0  0  0  0
 15 31  1  0  0  0  0
 15 32  1  0  0  0  0
 16 17  1  0  0  0  0
 16 33  1  0  0  0  0
 16 34  1  0  0  0  0
 17 18  2  0  0  0  0
 17 19  1  0  0  0  0
 19 35  1  0  0  0  0
 20 21  2  0  0  0  0
 20 36  1  0  0  0  0
 21 22  1  0  0  0  0
 21 37  1  0  0  0  0
 22 23  2  0  0  0  0
 22 24  1  0  0  0  0
 23 12  1  0  0  0  0
 23 38  1  0  0  0  0
 24 25  1  0  0  0  0
 25 39  1  0  0  0  0
 25 40  1  0  0  0  0
 25 41  1  0  0  0  0
M  END
>  <DRUGBANK_ID>
DB00328

>  <SECONDARY_ACCESSION_NUMBERS>
APRD00109

>  <COMMON_NAME>
Indomethacin

>  <CAS_NUMBER>
53-86-1

>  <UNII>
XXE1CET956

>  <SYNONYMS>
{1-[(4-chlorophenyl)carbonyl]-5-methoxy-2-methyl-1H-indol-3-yl}acetic acid; 1-(p-chlorobenzoyl)-5-methoxy-2-methylindole-3-acetic acid; Indometacin; Indometacina; Indometacine; Indometacinum; Indomethacin

$$$$
