
 OpenBabel10282417072D

 57 60  0  0  1  0  0  0  0  0999 V2000
   -2.7171    2.0100    0.0000 C   0  0  0  0  0  0  0  0  0  0  0  0
   -1.8966    2.0962    0.0000 C   0  0  0  0  0  0  0  0  0  0  0  0
   -1.4117    1.4288    0.0000 C   0  0  0  0  0  0  0  0  0  0  0  0
   -1.7473    0.6751    0.0000 O   0  0  0  0  0  0  0  0  0  0  0  0
   -0.5912    1.5150    0.0000 N   0  0  0  0  0  0  0  0  0  0  0  0
   -0.1787    2.2295    0.0000 C   0  0  0  0  0  0  0  0  0  0  0  0
    0.6282    2.0580    0.0000 C   0  0  0  0  0  0  0  0  0  0  0  0
    0.7145    1.2375    0.0000 C   0  0  1  0  0  0  0  0  0  0  0  0
   -0.0392    0.9019    0.0000 C   0  0  0  0  0  0  0  0  0  0  0  0
    1.4289    0.8250    0.0000 N   0  0  0  0  0  0  0  0  0  0  0  0
    1.4289    0.0000    0.0000 C   0  0  0  0  0  0  0  0  0  0  0  0
    2.1434   -0.4125    0.0000 C   0  0  0  0  0  0  0  0  0  0  0  0
    2.8579    0.0000    0.0000 C   0  0  0  0  0  0  0  0  0  0  0  0
    3.5724   -0.4125    0.0000 N   0  0  0  0  0  0  0  0  0  0  0  0
    3.5724   -1.2375    0.0000 C   0  0  0  0  0  0  0  0  0  0  0  0
    2.8579   -1.6500    0.0000 C   0  0  0  0  0  0  0  0  0  0  0  0
    2.1434   -1.2375    0.0000 C   0  0  0  0  0  0  0  0  0  0  0  0
    1.4289   -1.6500    0.0000 N   0  0  0  0  0  0  0  0  0  0  0  0
    0.7145   -1.2375    0.0000 C   0  0  0  0  0  0  0  0  0  0  0  0
    0.7145   -0.4125    0.0000 N   0  0  0  0  0  0  0  0  0  0  0  0
    4.2868    0.0000    0.0000 C   0  0  0  0  0  0  0  0  0  0  0  0
    4.2868    0.8250    0.0000 C   0  0  0  0  0  0  0  0  0  0  0  0
    5.0013    1.2375    0.0000 N   0  0  0  0  0  0  0  0  0  0  0  0
    5.7158    0.8250    0.0000 C   0  0  0  0  0  0  0  0  0  0  0  0
    6.4302    1.2375    0.0000 O   0  0  0  0  0  0  0  0  0  0  0  0
    6.4302    2.0625    0.0000 C   0  0  0  0  0  0  0  0  0  0  0  0
    5.7158    0.0000    0.0000 C   0  0  0  0  0  0  0  0  0  0  0  0
    5.0013   -0.4125    0.0000 C   0  0  0  0  0  0  0  0  0  0  0  0
    6.4302   -0.4125    0.0000 C   0  0  0  0  0  0  0  0  0  0  0  0
    7.1447   -0.8250    0.0000 F   0  0  0  0  0  0  0  0  0  0  0  0
    6.0177   -1.1270    0.0000 F   0  0  0  0  0  0  0  0  0  0  0  0
    6.8427    0.3020    0.0000 F   0  0  0  0  0  0  0  0  0  0  0  0
   -3.3460    2.8757    0.0000 H   0  0  0  0  0  0  0  0  0  0  0  0
   -3.1524    1.0325    0.0000 H   0  0  0  0  0  0  0  0  0  0  0  0
   -3.7812    1.8982    0.0000 H   0  0  0  0  0  0  0  0  0  0  0  0
   -1.4614    3.0737    0.0000 H   0  0  0  0  0  0  0  0  0  0  0  0
   -0.8325    2.2080    0.0000 H   0  0  0  0  0  0  0  0  0  0  0  0
   -0.6139    3.2070    0.0000 H   0  0  0  0  0  0  0  0  0  0  0  0
    0.4947    3.0611    0.0000 H   0  0  0  0  0  0  0  0  0  0  0  0
    1.4233    2.7740    0.0000 H   0  0  0  0  0  0  0  0  0  0  0  0
    1.6272    1.6746    0.0000 H   0  0  0  0  0  0  0  0  0  0  0  0
    1.6119    1.8203    0.0000 H   0  0  0  0  0  0  0  0  0  0  0  0
   -0.2617   -0.1447    0.0000 H   0  0  0  0  0  0  0  0  0  0  0  0
   -1.0727    0.6250    0.0000 H   0  0  0  0  0  0  0  0  0  0  0  0
    2.2815    1.3172    0.0000 H   0  0  0  0  0  0  0  0  0  0  0  0
    2.8579    1.0700    0.0000 H   0  0  0  0  0  0  0  0  0  0  0  0
    3.7845    0.5350    0.0000 H   0  0  0  0  0  0  0  0  0  0  0  0
    4.4990   -1.7725    0.0000 H   0  0  0  0  0  0  0  0  0  0  0  0
    3.5724   -2.3075    0.0000 H   0  0  0  0  0  0  0  0  0  0  0  0
    2.8579   -2.7200    0.0000 H   0  0  0  0  0  0  0  0  0  0  0  0
    1.9313   -2.1850    0.0000 H   0  0  0  0  0  0  0  0  0  0  0  0
   -0.1792   -1.7535    0.0000 H   0  0  0  0  0  0  0  0  0  0  0  0
    3.3931    1.3410    0.0000 H   0  0  0  0  0  0  0  0  0  0  0  0
    7.3568    2.5975    0.0000 H   0  0  0  0  0  0  0  0  0  0  0  0
    5.5036    2.5975    0.0000 H   0  0  0  0  0  0  0  0  0  0  0  0
    6.4302    3.1325    0.0000 H   0  0  0  0  0  0  0  0  0  0  0  0
    5.0013   -1.4445    0.0000 H   0  0  0  0  0  0  0  0  0  0  0  0
  1  2  1  0  0  0  0
  1 33  1  0  0  0  0
  1 34  1  0  0  0  0
  1 35  1  0  0  0  0
  2  3  1  0  0  0  0
  2 36  1  0  0  0  0
  2 37  1  0  0  0  0
  3  4  2  0  0  0  0
  3  5  1  0  0  0  0
  5  6  1  0  0  0  0
  5  9  1  0  0  0  0
  6  7  1  0  0  0  0
  6 38  1  0  0  0  0
  6 39  1  0  0  0  0
  7 40  1  0  0  0  0
  7 41  1  0  0  0  0
  8  7  1  0  0  0  0
  8  9  1  0  0  0  0
  8 10  1  0  0  0  0
  8 42  1  1  0  0  0
  9 43  1  0  0  0  0
  9 44  1  0  0  0  0
 10 11  1  0  0  0  0
 10 45  1  0  0  0  0
 11 12  2  0  0  0  0
 11 20  1  0  0  0  0
 12 13  1  0  0  0  0
 12 17  1  0  0  0  0
 13 14  1  0  0  0  0
 13 46  1  0  0  0  0
 13 47  1  0  0  0  0
 14 15  1  0  0  0  0
 14 21  1  0  0  0  0
 15 16  1  0  0  0  0
 15 48  1  0  0  0  0
 15 49  1  0  0  0  0
 16 17  1  0  0  0  0
 16 50  1  0  0  0  0
 16 51  1  0  0  0  0
 17 18  2  0  0  0  0
 18 19  1  0  0  0  0
 19 20  2  0  0  0  0
 19 52  1  0  0  0  0
 21 22  2  0  0  0  0
 21 28  1  0  0  0  0
 22 23  1  0  0  0  0
 22 53  1  0  0  0  0
 23 24  2  0  0  0  0
 24 25  1  0  0  0  0
 24 27  1  0  0  0  0
 25 26  1  0  0  0  0
 26 54  1  0  0  0  0
 26 55  1  0  0  0  0
 26 56  1  0  0  0  0
 27 28  2  0  0  0  0
 27 29  1  0  0  0  0
 28 57  1  0  0  0  0
 29 30  1  0  0  0  0
 29 31  1  0  0  0  0
 29 32  1  0  0  0  0
M  END
>  <DRUGBANK_ID>
DB16217

>  <COMMON_NAME>
Leniolisib

>  <CAS_NUMBER>
1354690-24-6

>  <UNII>
L22772Z9CP

>  <SYNONYMS>
Cdz-173 free base; Cdz173 free base; Leniolisib

$$$$
