NP5
 OpenBabel10282417072D

 39 40  0  0  0  0  0  0  0  0999 V2000
   -1.1006    1.1210    0.0000 C   0  0  0  0  0  0  0  0  0  0  0  0
   -0.3118    0.8794    0.0000 O   0  0  0  0  0  0  0  0  0  0  0  0
   -1.7043    0.5587    0.0000 C   0  0  0  0  0  0  0  0  0  0  0  0
   -2.4931    0.8003    0.0000 C   0  0  0  0  0  0  0  0  0  0  0  0
   -3.0968    0.2380    0.0000 C   0  0  0  0  0  0  0  0  0  0  0  0
   -2.9116   -0.5660    0.0000 C   0  0  0  0  0  0  0  0  0  0  0  0
   -2.1228   -0.8076    0.0000 C   0  0  0  0  0  0  0  0  0  0  0  0
   -1.5191   -0.2453    0.0000 C   0  0  0  0  0  0  0  0  0  0  0  0
   -0.7303   -0.4869    0.0000 C   0  0  0  0  0  0  0  0  0  0  0  0
   -0.5451   -1.2909    0.0000 C   0  0  0  0  0  0  0  0  0  0  0  0
    0.2437   -1.5325    0.0000 C   0  0  0  0  0  0  0  0  0  0  0  0
    0.9304   -0.9464    0.0000 C   0  0  0  0  0  0  0  0  0  0  0  0
    1.7553   -0.9325    0.0000 C   0  0  0  0  0  0  0  0  0  0  0  0
    1.9969   -0.1436    0.0000 C   0  0  0  0  0  0  0  0  0  0  0  0
    1.3213    0.3299    0.0000 C   0  0  0  0  0  0  0  0  0  0  0  0
    1.0807    1.2001    0.0000 C   0  0  0  0  0  0  0  0  0  0  0  0
    0.2919    1.4417    0.0000 C   0  0  0  0  0  0  0  0  0  0  0  0
   -1.2857    1.9250    0.0000 O   0  0  0  0  0  0  0  0  0  0  0  0
   -2.6782    1.6043    0.0000 O   0  0  0  0  0  0  0  0  0  0  0  0
   -3.5153   -1.1283    0.0000 O   0  0  0  0  0  0  0  0  0  0  0  0
   -1.9376   -1.6115    0.0000 Cl  0  0  0  0  0  0  0  0  0  0  0  0
   -1.1488   -1.8532    0.0000 O   0  0  0  0  0  0  0  0  0  0  0  0
   -4.0835    0.5403    0.0000 H   0  0  0  0  0  0  0  0  0  0  0  0
    0.0526    0.2424    0.0000 H   0  0  0  0  0  0  0  0  0  0  0  0
    0.2928   -0.8002    0.0000 H   0  0  0  0  0  0  0  0  0  0  0  0
    0.4612   -2.5802    0.0000 H   0  0  0  0  0  0  0  0  0  0  0  0
    1.2560   -1.8790    0.0000 H   0  0  0  0  0  0  0  0  0  0  0  0
    0.5518    0.0544    0.0000 H   0  0  0  0  0  0  0  0  0  0  0  0
    1.5311   -0.0610    0.0000 H   0  0  0  0  0  0  0  0  0  0  0  0
    2.3988   -1.7874    0.0000 H   0  0  0  0  0  0  0  0  0  0  0  0
    2.8091   -0.7472    0.0000 H   0  0  0  0  0  0  0  0  0  0  0  0
    2.9728    0.1919    0.0000 H   0  0  0  0  0  0  0  0  0  0  0  0
    0.4782   -0.2652    0.0000 H   0  0  0  0  0  0  0  0  0  0  0  0
    1.8476    1.9462    0.0000 H   0  0  0  0  0  0  0  0  0  0  0  0
    0.8292    2.2401    0.0000 H   0  0  0  0  0  0  0  0  0  0  0  0
    0.0518    2.4844    0.0000 H   0  0  0  0  0  0  0  0  0  0  0  0
    1.0748    2.1710    0.0000 H   0  0  0  0  0  0  0  0  0  0  0  0
   -1.9925    2.2429    0.0000 H   0  0  0  0  0  0  0  0  0  0  0  0
   -4.4112   -0.8538    0.0000 H   0  0  0  0  0  0  0  0  0  0  0  0
  1  2  1  0  0  0  0
  1  3  1  0  0  0  0
  1 18  2  0  0  0  0
  2 17  1  0  0  0  0
  3  4  2  0  0  0  0
  3  8  1  0  0  0  0
  4  5  1  0  0  0  0
  4 19  1  0  0  0  0
  5  6  2  0  0  0  0
  5 23  1  0  0  0  0
  6  7  1  0  0  0  0
  6 20  1  0  0  0  0
  7  8  2  0  0  0  0
  7 21  1  0  0  0  0
  8  9  1  0  0  0  0
  9 10  1  0  0  0  0
  9 24  1  0  0  0  0
  9 25  1  0  0  0  0
 10 11  1  0  0  0  0
 10 22  2  0  0  0  0
 11 12  1  0  0  0  0
 11 26  1  0  0  0  0
 11 27  1  0  0  0  0
 12 13  1  0  0  0  0
 12 28  1  0  0  0  0
 12 29  1  0  0  0  0
 13 14  1  0  0  0  0
 13 30  1  0  0  0  0
 13 31  1  0  0  0  0
 14 15  2  0  0  0  0
 14 32  1  0  0  0  0
 15 16  1  0  0  0  0
 15 33  1  0  0  0  0
 16 17  1  0  0  0  0
 16 34  1  0  0  0  0
 16 35  1  0  0  0  0
 17 36  1  0  0  0  0
 17 37  1  0  0  0  0
 19 38  1  0  0  0  0
 20 39  1  0  0  0  0
M  END
>  <DRUGBANK_ID>
DB08293

>  <COMMON_NAME>
(5E)-12-CHLORO-13,15-DIHYDROXY-4,7,8,9-TETRAHYDRO-2-BENZOXACYCLOTRIDECINE-1,10(3H,11H)-DIONE

$$$$
