
 OpenBabel10282417072D

 44 47  0  0  1  0  0  0  0  0999 V2000
    1.6500   -1.7462    0.0000 O   0  0  0  0  0  0  0  0  0  0  0  0
    2.7999   -2.4101    0.0000 O   0  0  0  0  0  0  0  0  0  0  0  0
    4.2169    2.8010    0.0000 O   0  0  0  0  0  0  0  0  0  0  0  0
    4.2169    1.3720    0.0000 N   0  0  0  0  0  0  0  0  0  0  0  0
    4.6736    0.7041    0.0000 N   0  0  0  0  0  0  0  0  0  0  0  0
    6.8694   -2.3017    0.0000 N   0  0  0  0  0  0  0  0  0  0  0  0
    3.4101    1.4336    0.0000 C   0  0  1  0  0  0  0  0  0  0  0  0
    2.8574    0.8426    0.0000 C   0  0  0  0  0  0  0  0  0  0  0  0
    2.9725    0.0417    0.0000 C   0  0  0  0  0  0  0  0  0  0  0  0
    3.6871   -0.3708    0.0000 C   0  0  0  0  0  0  0  0  0  0  0  0
    4.4383   -0.0701    0.0000 C   0  0  0  0  0  0  0  0  0  0  0  0
    3.1108    2.2024    0.0000 C   0  0  0  0  0  0  0  0  0  0  0  0
    2.2581   -0.3708    0.0000 C   0  0  0  0  0  0  0  0  0  0  0  0
    3.6871   -1.1959    0.0000 C   0  0  0  0  0  0  0  0  0  0  0  0
    2.2581   -1.1959    0.0000 C   0  0  0  0  0  0  0  0  0  0  0  0
    2.9725   -1.6084    0.0000 C   0  0  0  0  0  0  0  0  0  0  0  0
    5.0461   -0.6280    0.0000 C   0  0  0  0  0  0  0  0  0  0  0  0
    4.6294    2.0865    0.0000 C   0  0  0  0  0  0  0  0  0  0  0  0
    1.9843   -2.4951    0.0000 C   0  0  0  0  0  0  0  0  0  0  0  0
    5.8331   -0.3806    0.0000 C   0  0  0  0  0  0  0  0  0  0  0  0
    4.8669   -1.4333    0.0000 C   0  0  0  0  0  0  0  0  0  0  0  0
    5.4544    2.0865    0.0000 C   0  0  0  0  0  0  0  0  0  0  0  0
    6.4409   -0.9385    0.0000 C   0  0  0  0  0  0  0  0  0  0  0  0
    5.4747   -1.9912    0.0000 C   0  0  0  0  0  0  0  0  0  0  0  0
    6.2616   -1.7438    0.0000 C   0  0  0  0  0  0  0  0  0  0  0  0
    6.6555   -3.2627    0.0000 H   0  0  0  0  0  0  0  0  0  0  0  0
    7.8086   -2.0065    0.0000 H   0  0  0  0  0  0  0  0  0  0  0  0
    4.0473    2.2932    0.0000 H   0  0  0  0  0  0  0  0  0  0  0  0
    1.8367    1.1635    0.0000 H   0  0  0  0  0  0  0  0  0  0  0  0
    2.0421    0.1496    0.0000 H   0  0  0  0  0  0  0  0  0  0  0  0
    3.7802    3.0371    0.0000 H   0  0  0  0  0  0  0  0  0  0  0  0
    2.0532    2.3648    0.0000 H   0  0  0  0  0  0  0  0  0  0  0  0
    2.7226    3.1995    0.0000 H   0  0  0  0  0  0  0  0  0  0  0  0
    1.3644    0.1452    0.0000 H   0  0  0  0  0  0  0  0  0  0  0  0
    4.5808   -1.7119    0.0000 H   0  0  0  0  0  0  0  0  0  0  0  0
    1.4493   -3.4218    0.0000 H   0  0  0  0  0  0  0  0  0  0  0  0
    2.5667   -3.3927    0.0000 H   0  0  0  0  0  0  0  0  0  0  0  0
    6.0573    0.6267    0.0000 H   0  0  0  0  0  0  0  0  0  0  0  0
    3.8824   -1.7428    0.0000 H   0  0  0  0  0  0  0  0  0  0  0  0
    5.9894    1.1599    0.0000 H   0  0  0  0  0  0  0  0  0  0  0  0
    5.9894    3.0131    0.0000 H   0  0  0  0  0  0  0  0  0  0  0  0
    6.5244    2.0865    0.0000 H   0  0  0  0  0  0  0  0  0  0  0  0
    7.4254   -0.6290    0.0000 H   0  0  0  0  0  0  0  0  0  0  0  0
    5.2505   -2.9986    0.0000 H   0  0  0  0  0  0  0  0  0  0  0  0
  1 15  1  0  0  0  0
  1 19  1  0  0  0  0
  2 16  1  0  0  0  0
  2 19  1  0  0  0  0
  3 18  2  0  0  0  0
  4  5  1  0  0  0  0
  4  7  1  0  0  0  0
  4 18  1  0  0  0  0
  5 11  2  0  0  0  0
  6 25  1  0  0  0  0
  6 26  1  0  0  0  0
  6 27  1  0  0  0  0
  7  8  1  0  0  0  0
  7 12  1  0  0  0  0
  7 28  1  6  0  0  0
  8  9  1  0  0  0  0
  8 29  1  0  0  0  0
  8 30  1  0  0  0  0
  9 10  1  0  0  0  0
  9 13  2  0  0  0  0
 10 11  1  0  0  0  0
 10 14  2  0  0  0  0
 11 17  1  0  0  0  0
 12 31  1  0  0  0  0
 12 32  1  0  0  0  0
 12 33  1  0  0  0  0
 13 15  1  0  0  0  0
 13 34  1  0  0  0  0
 14 16  1  0  0  0  0
 14 35  1  0  0  0  0
 15 16  2  0  0  0  0
 17 20  2  0  0  0  0
 17 21  1  0  0  0  0
 18 22  1  0  0  0  0
 19 36  1  0  0  0  0
 19 37  1  0  0  0  0
 20 23  1  0  0  0  0
 20 38  1  0  0  0  0
 21 24  2  0  0  0  0
 21 39  1  0  0  0  0
 22 40  1  0  0  0  0
 22 41  1  0  0  0  0
 22 42  1  0  0  0  0
 23 25  2  0  0  0  0
 23 43  1  0  0  0  0
 24 25  1  0  0  0  0
 24 44  1  0  0  0  0
M  END
>  <DRUGBANK_ID>
DB04982

>  <COMMON_NAME>
Talampanel

>  <CAS_NUMBER>
161832-65-1

>  <UNII>
CVS43XG1L5

>  <SYNONYMS>
Talampanel

$$$$
