R18
 OpenBabel10282417072D

 45 48  0  0  0  0  0  0  0  0999 V2000
    1.9235   -0.6389    0.0000 C   0  0  0  0  0  0  0  0  0  0  0  0
    2.7356   -0.4937    0.0000 C   0  0  0  0  0  0  0  0  0  0  0  0
    3.0159    0.2822    0.0000 C   0  0  0  0  0  0  0  0  0  0  0  0
    2.4841    0.9129    0.0000 C   0  0  0  0  0  0  0  0  0  0  0  0
    1.6720    0.7677    0.0000 C   0  0  0  0  0  0  0  0  0  0  0  0
    1.1402    1.3984    0.0000 C   0  0  0  0  0  0  0  0  0  0  0  0
    0.3280    1.2532    0.0000 C   0  0  0  0  0  0  0  0  0  0  0  0
    0.0477    0.4773    0.0000 C   0  0  2  0  0  0  0  0  0  0  0  0
    0.5796   -0.1534    0.0000 C   0  0  0  0  0  0  0  0  0  0  0  0
    1.3917   -0.0082    0.0000 C   0  0  0  0  0  0  0  0  0  0  0  0
    0.2993   -0.9293    0.0000 C   0  0  0  0  0  0  0  0  0  0  0  0
   -0.5129   -1.0746    0.0000 C   0  0  0  0  0  0  0  0  0  0  0  0
   -1.0447   -0.4438    0.0000 C   0  0  1  0  0  0  0  0  0  0  0  0
   -0.7644    0.3321    0.0000 C   0  0  1  0  0  0  0  0  0  0  0  0
   -1.4157    0.8384    0.0000 C   0  0  0  0  0  0  0  0  0  0  0  0
   -2.0986    0.3755    0.0000 C   0  0  0  0  0  0  0  0  0  0  0  0
   -1.8692   -0.4170    0.0000 C   0  0  1  0  0  0  0  0  0  0  0  0
   -1.4045   -1.1862    0.0000 C   0  0  0  0  0  0  0  0  0  0  0  0
   -1.9906   -1.2331    0.0000 C   0  0  0  0  0  0  0  0  0  0  0  0
    3.8280    0.4274    0.0000 O   0  0  0  0  0  0  0  0  0  0  0  0
   -2.6301   -0.7359    0.0000 O   0  0  0  0  0  0  0  0  0  0  0  0
   -0.3287    0.9237    0.0000 H   0  0  0  0  0  0  0  0  0  0  0  0
   -0.6245    0.8990    0.0000 H   0  0  0  0  0  0  0  0  0  0  0  0
    1.5599   -1.6452    0.0000 H   0  0  0  0  0  0  0  0  0  0  0  0
    0.8702   -0.8272    0.0000 H   0  0  0  0  0  0  0  0  0  0  0  0
    3.4253   -1.3117    0.0000 H   0  0  0  0  0  0  0  0  0  0  0  0
    3.7889   -0.3054    0.0000 H   0  0  0  0  0  0  0  0  0  0  0  0
    2.8347    1.8835    0.0000 H   0  0  0  0  0  0  0  0  0  0  0  0
    1.5038    2.4047    0.0000 H   0  0  0  0  0  0  0  0  0  0  0  0
    0.4505    2.2164    0.0000 H   0  0  0  0  0  0  0  0  0  0  0  0
   -0.3617    2.0712    0.0000 H   0  0  0  0  0  0  0  0  0  0  0  0
   -0.7253    1.0649    0.0000 H   0  0  0  0  0  0  0  0  0  0  0  0
    0.9646   -1.7182    0.0000 H   0  0  0  0  0  0  0  0  0  0  0  0
   -0.8635   -2.0452    0.0000 H   0  0  0  0  0  0  0  0  0  0  0  0
   -1.3809    1.9078    0.0000 H   0  0  0  0  0  0  0  0  0  0  0  0
   -2.3527    1.3550    0.0000 H   0  0  0  0  0  0  0  0  0  0  0  0
   -3.1049    0.7390    0.0000 H   0  0  0  0  0  0  0  0  0  0  0  0
   -2.8794   -0.3562    0.0000 H   0  0  0  0  0  0  0  0  0  0  0  0
   -2.4717   -1.2635    0.0000 H   0  0  0  0  0  0  0  0  0  0  0  0
   -0.8039   -2.0718    0.0000 H   0  0  0  0  0  0  0  0  0  0  0  0
   -1.8712   -2.1491    0.0000 H   0  0  0  0  0  0  0  0  0  0  0  0
   -2.9859   -1.6259    0.0000 H   0  0  0  0  0  0  0  0  0  0  0  0
   -1.1528   -1.8986    0.0000 H   0  0  0  0  0  0  0  0  0  0  0  0
   -2.1480   -2.2915    0.0000 H   0  0  0  0  0  0  0  0  0  0  0  0
   -3.4021   -0.1486    0.0000 H   0  0  0  0  0  0  0  0  0  0  0  0
  1  2  1  0  0  0  0
  1 10  1  0  0  0  0
  1 24  1  0  0  0  0
  1 25  1  0  0  0  0
  2  3  1  0  0  0  0
  2 26  1  0  0  0  0
  2 27  1  0  0  0  0
  3  4  1  0  0  0  0
  3 20  2  0  0  0  0
  4  5  2  0  0  0  0
  4 28  1  0  0  0  0
  5  6  1  0  0  0  0
  5 10  1  0  0  0  0
  6  7  1  0  0  0  0
  6 29  1  0  0  0  0
  6 30  1  0  0  0  0
  7  8  1  0  0  0  0
  7 31  1  0  0  0  0
  7 32  1  0  0  0  0
  8  9  1  0  0  0  0
  8 14  1  0  0  0  0
  8 22  1  1  0  0  0
  9 10  2  0  0  0  0
  9 11  1  0  0  0  0
 11 12  2  0  0  0  0
 11 33  1  0  0  0  0
 12 13  1  0  0  0  0
 12 34  1  0  0  0  0
 13 14  1  0  0  0  0
 13 17  1  0  0  0  0
 13 18  1  1  0  0  0
 14 15  1  0  0  0  0
 14 23  1  6  0  0  0
 15 16  1  0  0  0  0
 15 35  1  0  0  0  0
 15 36  1  0  0  0  0
 16 17  1  0  0  0  0
 16 37  1  0  0  0  0
 16 38  1  0  0  0  0
 17 19  1  0  0  0  0
 17 21  1  1  0  0  0
 18 39  1  0  0  0  0
 18 40  1  0  0  0  0
 18 41  1  0  0  0  0
 19 42  1  0  0  0  0
 19 43  1  0  0  0  0
 19 44  1  0  0  0  0
 21 45  1  0  0  0  0
M  END
>  <DRUGBANK_ID>
DB02998

>  <SECONDARY_ACCESSION_NUMBERS>
EXPT02741

>  <COMMON_NAME>
Metribolone

>  <CAS_NUMBER>
965-93-5

>  <UNII>
2C323EGI97

>  <SYNONYMS>
17-beta-Hydroxy-17-methylestra-4,9,11-trien-3-one; 17alpha-Methyltrienolone; Methyltrienolone; Metribolona; Metribolone; Metribolonum

$$$$
