GMG
 OpenBabel10282417072D

 47 51  0  0  0  0  0  0  0  0999 V2000
    3.6582    1.2257    0.0000 C   0  0  0  0  0  0  0  0  0  0  0  0
   -2.7301   -0.7700    0.0000 C   0  0  0  0  0  0  0  0  0  0  0  0
   -1.3711   -1.2116    0.0000 C   0  0  0  0  0  0  0  0  0  0  0  0
    2.2293   -0.4243    0.0000 C   0  0  0  0  0  0  0  0  0  0  0  0
   -2.4751    0.0146    0.0000 C   0  0  0  0  0  0  0  0  0  0  0  0
    1.5148   -0.0118    0.0000 C   0  0  0  0  0  0  0  0  0  0  0  0
   -1.8981    1.6382    0.0000 C   0  0  0  0  0  0  0  0  0  0  0  0
   -2.4330   -2.1678    0.0000 C   0  0  0  0  0  0  0  0  0  0  0  0
    2.9438   -0.0118    0.0000 C   0  0  0  0  0  0  0  0  0  0  0  0
    1.5148    0.8132    0.0000 C   0  0  0  0  0  0  0  0  0  0  0  0
    0.8003    1.2257    0.0000 C   0  0  0  0  0  0  0  0  0  0  0  0
   -0.6286    1.2257    0.0000 C   0  0  0  0  0  0  0  0  0  0  0  0
   -0.6286    2.0507    0.0000 C   0  0  0  0  0  0  0  0  0  0  0  0
    4.3727   -0.0118    0.0000 C   0  0  0  0  0  0  0  0  0  0  0  0
    4.3727    0.8132    0.0000 C   0  0  0  0  0  0  0  0  0  0  0  0
    3.6582   -0.4243    0.0000 C   0  0  0  0  0  0  0  0  0  0  0  0
   -1.1161   -0.4270    0.0000 C   0  0  0  0  0  0  0  0  0  0  0  0
    2.2293    1.2257    0.0000 C   0  0  0  0  0  0  0  0  0  0  0  0
    0.0859    0.8132    0.0000 C   0  0  0  0  0  0  0  0  0  0  0  0
    0.8003    2.0507    0.0000 C   0  0  0  0  0  0  0  0  0  0  0  0
   -2.1780   -1.3831    0.0000 C   0  0  0  0  0  0  0  0  0  0  0  0
   -1.6682    0.1861    0.0000 C   0  0  0  0  0  0  0  0  0  0  0  0
    2.9438    0.8132    0.0000 C   0  0  0  0  0  0  0  0  0  0  0  0
   -1.4132    0.9707    0.0000 C   0  0  0  0  0  0  0  0  0  0  0  0
   -3.2399   -2.3393    0.0000 C   0  0  0  0  0  0  0  0  0  0  0  0
   -1.4132    2.3056    0.0000 N   0  0  0  0  0  0  0  0  0  0  0  0
    0.0859    2.4632    0.0000 N   0  0  0  0  0  0  0  0  0  0  0  0
   -3.4949   -3.1239    0.0000 O   0  0  0  0  0  0  0  0  0  0  0  0
   -3.7920   -1.7262    0.0000 O   0  0  0  0  0  0  0  0  0  0  0  0
    3.6582    2.2577    0.0000 H   0  0  0  0  0  0  0  0  0  0  0  0
   -3.7396   -0.9846    0.0000 H   0  0  0  0  0  0  0  0  0  0  0  0
   -0.6806   -1.9786    0.0000 H   0  0  0  0  0  0  0  0  0  0  0  0
    2.2293   -1.4563    0.0000 H   0  0  0  0  0  0  0  0  0  0  0  0
   -3.1656    0.7816    0.0000 H   0  0  0  0  0  0  0  0  0  0  0  0
    0.6211   -0.5278    0.0000 H   0  0  0  0  0  0  0  0  0  0  0  0
   -2.9301    1.6382    0.0000 H   0  0  0  0  0  0  0  0  0  0  0  0
   -1.7171   -2.9630    0.0000 H   0  0  0  0  0  0  0  0  0  0  0  0
   -2.7637   -3.1854    0.0000 H   0  0  0  0  0  0  0  0  0  0  0  0
    5.2664   -0.5278    0.0000 H   0  0  0  0  0  0  0  0  0  0  0  0
    5.2664    1.3292    0.0000 H   0  0  0  0  0  0  0  0  0  0  0  0
    3.6582   -1.4563    0.0000 H   0  0  0  0  0  0  0  0  0  0  0  0
   -0.1066   -0.2124    0.0000 H   0  0  0  0  0  0  0  0  0  0  0  0
    2.2293    2.2577    0.0000 H   0  0  0  0  0  0  0  0  0  0  0  0
    0.0859   -0.2188    0.0000 H   0  0  0  0  0  0  0  0  0  0  0  0
    1.6940    2.5667    0.0000 H   0  0  0  0  0  0  0  0  0  0  0  0
   -1.7174    3.2419    0.0000 H   0  0  0  0  0  0  0  0  0  0  0  0
   -4.4114   -3.3186    0.0000 H   0  0  0  0  0  0  0  0  0  0  0  0
  1 30  1  0  0  0  0
  2  5  2  0  0  0  0
  2 21  1  0  0  0  0
  2 31  1  0  0  0  0
  3 17  1  0  0  0  0
  3 32  1  0  0  0  0
  4  9  2  0  0  0  0
  4  6  1  0  0  0  0
  4 33  1  0  0  0  0
  5 22  1  0  0  0  0
  5 34  1  0  0  0  0
  6 10  2  0  0  0  0
  6 35  1  0  0  0  0
  7 26  1  0  0  0  0
  7 36  1  0  0  0  0
  8 21  1  0  0  0  0
  8 37  1  0  0  0  0
  8 38  1  0  0  0  0
  9 23  1  0  0  0  0
 10 18  1  0  0  0  0
 10 11  1  0  0  0  0
 11 19  1  0  0  0  0
 11 20  2  0  0  0  0
 12 24  1  0  0  0  0
 12 13  1  0  0  0  0
 13 27  2  0  0  0  0
 13 26  1  0  0  0  0
 14 15  1  0  0  0  0
 14 39  1  0  0  0  0
 15  1  2  0  0  0  0
 15 40  1  0  0  0  0
 16  9  1  0  0  0  0
 16 14  2  0  0  0  0
 16 41  1  0  0  0  0
 17 42  1  0  0  0  0
 18 43  1  0  0  0  0
 19 12  2  0  0  0  0
 19 44  1  0  0  0  0
 20 27  1  0  0  0  0
 20 45  1  0  0  0  0
 21  3  2  0  0  0  0
 22 17  2  0  0  0  0
 22 24  1  0  0  0  0
 23  1  1  0  0  0  0
 23 18  2  0  0  0  0
 24  7  2  0  0  0  0
 25  8  1  0  0  0  0
 25 28  1  0  0  0  0
 26 46  1  0  0  0  0
 28 47  1  0  0  0  0
 29 25  2  0  0  0  0
M  END
>  <DRUGBANK_ID>
DB07837

>  <COMMON_NAME>
[4-(5-naphthalen-2-yl-1H-pyrrolo[2,3-b]pyridin-3-yl)phenyl]acetic acid

$$$$
