Glycyrrhetinic acid ChEBI
 OpenBabel10282417072D

 80 84  0  0  1  0  0  0  0  0999 V2000
    3.8375   -4.0768    0.0000 C   0  0  0  0  0  0  0  0  0  0  0  0
    3.1193   -4.5140    0.0000 C   0  0  0  0  0  0  0  0  0  0  0  0
    3.1193   -5.3259    0.0000 C   0  0  1  0  0  0  0  0  0  0  0  0
    3.8375   -5.7318    0.0000 C   0  0  0  0  0  0  0  0  0  0  0  0
    4.5558   -5.3259    0.0000 C   0  0  2  0  0  0  0  0  0  0  0  0
    5.2740   -5.7318    0.0000 C   0  0  0  0  0  0  0  0  0  0  0  0
    6.0234   -5.3259    0.0000 C   0  0  0  0  0  0  0  0  0  0  0  0
    6.0234   -4.5140    0.0000 C   0  0  2  0  0  0  0  0  0  0  0  0
    5.2740   -4.0768    0.0000 C   0  0  1  0  0  0  0  0  0  0  0  0
    4.5558   -4.5140    0.0000 C   0  0  1  0  0  0  0  0  0  0  0  0
    5.2740   -3.2649    0.0000 C   0  0  0  0  0  0  0  0  0  0  0  0
    6.0234   -2.8590    0.0000 C   0  0  0  0  0  0  0  0  0  0  0  0
    6.7416   -3.2649    0.0000 C   0  0  0  0  0  0  0  0  0  0  0  0
    6.7416   -4.0768    0.0000 C   0  0  1  0  0  0  0  0  0  0  0  0
    7.4598   -4.5140    0.0000 C   0  0  0  0  0  0  0  0  0  0  0  0
    8.1780   -4.0768    0.0000 C   0  0  0  0  0  0  0  0  0  0  0  0
    8.1780   -3.2649    0.0000 C   0  0  2  0  0  0  0  0  0  0  0  0
    7.4598   -2.8590    0.0000 C   0  0  1  0  0  0  0  0  0  0  0  0
    7.4598   -2.0471    0.0000 C   0  0  0  0  0  0  0  0  0  0  0  0
    8.1780   -1.6099    0.0000 C   0  0  1  0  0  0  0  0  0  0  0  0
    8.8650   -2.0471    0.0000 C   0  0  0  0  0  0  0  0  0  0  0  0
    8.8962   -2.8590    0.0000 C   0  0  0  0  0  0  0  0  0  0  0  0
    3.5253   -6.4500    0.0000 C   0  0  0  0  0  0  0  0  0  0  0  0
    4.1498   -6.4188    0.0000 C   0  0  0  0  0  0  0  0  0  0  0  0
    4.5558   -3.6709    0.0000 C   0  0  0  0  0  0  0  0  0  0  0  0
    5.9921   -3.7334    0.0000 C   0  0  0  0  0  0  0  0  0  0  0  0
    6.7416   -4.9512    0.0000 C   0  0  0  0  0  0  0  0  0  0  0  0
    8.1468   -2.4531    0.0000 C   0  0  0  0  0  0  0  0  0  0  0  0
    7.6784   -0.9542    0.0000 C   0  0  0  0  0  0  0  0  0  0  0  0
    8.6152   -0.9230    0.0000 C   0  0  0  0  0  0  0  0  0  0  0  0
    4.5558   -6.1066    0.0000 H   0  0  0  0  0  0  0  0  0  0  0  0
    5.2740   -4.8887    0.0000 H   0  0  0  0  0  0  0  0  0  0  0  0
    7.4598   -3.6709    0.0000 H   0  0  0  0  0  0  0  0  0  0  0  0
    9.4270   -0.9542    0.0000 O   0  0  0  0  0  0  0  0  0  0  0  0
    8.2405   -0.2047    0.0000 O   0  0  0  0  0  0  0  0  0  0  0  0
    2.4323   -5.7318    0.0000 O   0  0  0  0  0  0  0  0  0  0  0  0
    4.5870   -2.8278    0.0000 O   0  0  0  0  0  0  0  0  0  0  0  0
    3.8375   -3.0068    0.0000 H   0  0  0  0  0  0  0  0  0  0  0  0
    2.9047   -3.5526    0.0000 H   0  0  0  0  0  0  0  0  0  0  0  0
    2.1865   -3.9898    0.0000 H   0  0  0  0  0  0  0  0  0  0  0  0
    2.1958   -5.0544    0.0000 H   0  0  0  0  0  0  0  0  0  0  0  0
    3.1296   -6.3959    0.0000 H   0  0  0  0  0  0  0  0  0  0  0  0
    5.2644   -6.8018    0.0000 H   0  0  0  0  0  0  0  0  0  0  0  0
    6.1908   -6.2835    0.0000 H   0  0  0  0  0  0  0  0  0  0  0  0
    6.9427   -5.8735    0.0000 H   0  0  0  0  0  0  0  0  0  0  0  0
    6.0016   -6.3957    0.0000 H   0  0  0  0  0  0  0  0  0  0  0  0
    6.0327   -1.8270    0.0000 H   0  0  0  0  0  0  0  0  0  0  0  0
    7.4598   -5.5840    0.0000 H   0  0  0  0  0  0  0  0  0  0  0  0
    8.3926   -5.0382    0.0000 H   0  0  0  0  0  0  0  0  0  0  0  0
    9.1108   -4.6010    0.0000 H   0  0  0  0  0  0  0  0  0  0  0  0
    8.1966   -5.1466    0.0000 H   0  0  0  0  0  0  0  0  0  0  0  0
    6.5270   -1.5229    0.0000 H   0  0  0  0  0  0  0  0  0  0  0  0
    7.4412   -0.9773    0.0000 H   0  0  0  0  0  0  0  0  0  0  0  0
    9.7929   -1.5143    0.0000 H   0  0  0  0  0  0  0  0  0  0  0  0
    9.8011   -2.5653    0.0000 H   0  0  0  0  0  0  0  0  0  0  0  0
    9.8306   -3.3804    0.0000 H   0  0  0  0  0  0  0  0  0  0  0  0
    9.8083   -2.2996    0.0000 H   0  0  0  0  0  0  0  0  0  0  0  0
    2.4622   -6.5712    0.0000 H   0  0  0  0  0  0  0  0  0  0  0  0
    4.1618   -7.3101    0.0000 H   0  0  0  0  0  0  0  0  0  0  0  0
    3.0987   -7.4313    0.0000 H   0  0  0  0  0  0  0  0  0  0  0  0
    3.5276   -7.2893    0.0000 H   0  0  0  0  0  0  0  0  0  0  0  0
    5.2148   -6.5224    0.0000 H   0  0  0  0  0  0  0  0  0  0  0  0
    4.5926   -7.3929    0.0000 H   0  0  0  0  0  0  0  0  0  0  0  0
    5.4824   -3.1359    0.0000 H   0  0  0  0  0  0  0  0  0  0  0  0
    3.6292   -3.1359    0.0000 H   0  0  0  0  0  0  0  0  0  0  0  0
    4.5558   -2.6009    0.0000 H   0  0  0  0  0  0  0  0  0  0  0  0
    6.8966   -3.1617    0.0000 H   0  0  0  0  0  0  0  0  0  0  0  0
    5.0448   -3.2360    0.0000 H   0  0  0  0  0  0  0  0  0  0  0  0
    5.9492   -2.6643    0.0000 H   0  0  0  0  0  0  0  0  0  0  0  0
    5.8150   -5.4862    0.0000 H   0  0  0  0  0  0  0  0  0  0  0  0
    7.6682   -5.4862    0.0000 H   0  0  0  0  0  0  0  0  0  0  0  0
    6.7416   -6.0212    0.0000 H   0  0  0  0  0  0  0  0  0  0  0  0
    9.0522   -1.8829    0.0000 H   0  0  0  0  0  0  0  0  0  0  0  0
    7.2003   -1.9541    0.0000 H   0  0  0  0  0  0  0  0  0  0  0  0
    8.1057   -1.3839    0.0000 H   0  0  0  0  0  0  0  0  0  0  0  0
    8.0912    0.0330    0.0000 H   0  0  0  0  0  0  0  0  0  0  0  0
    6.6171   -1.0903    0.0000 H   0  0  0  0  0  0  0  0  0  0  0  0
    7.0299   -0.1031    0.0000 H   0  0  0  0  0  0  0  0  0  0  0  0
    8.7433    0.5860    0.0000 H   0  0  0  0  0  0  0  0  0  0  0  0
    1.5874   -5.2553    0.0000 H   0  0  0  0  0  0  0  0  0  0  0  0
  1 10  1  0  0  0  0
  1 38  1  0  0  0  0
  1 39  1  0  0  0  0
  2  1  1  0  0  0  0
  2  3  1  0  0  0  0
  2 40  1  0  0  0  0
  2 41  1  0  0  0  0
  3  4  1  0  0  0  0
  3 36  1  0  0  0  0
  3 42  1  6  0  0  0
  4  5  1  0  0  0  0
  4 23  1  0  0  0  0
  4 24  1  0  0  0  0
  5 10  1  0  0  0  0
  5 31  1  6  0  0  0
  6  5  1  0  0  0  0
  6  7  1  0  0  0  0
  6 43  1  0  0  0  0
  6 44  1  0  0  0  0
  7  8  1  0  0  0  0
  7 45  1  0  0  0  0
  7 46  1  0  0  0  0
  8 26  1  1  0  0  0
  9  8  1  0  0  0  0
  9 10  1  0  0  0  0
  9 32  1  6  0  0  0
 10 25  1  1  0  0  0
 11  9  1  0  0  0  0
 12 13  2  0  0  0  0
 12 11  1  0  0  0  0
 12 47  1  0  0  0  0
 13 14  1  0  0  0  0
 14  8  1  0  0  0  0
 14 27  1  6  0  0  0
 15 14  1  0  0  0  0
 15 48  1  0  0  0  0
 15 49  1  0  0  0  0
 16 17  1  0  0  0  0
 16 15  1  0  0  0  0
 16 50  1  0  0  0  0
 16 51  1  0  0  0  0
 17 18  1  0  0  0  0
 17 28  1  1  0  0  0
 18 13  1  0  0  0  0
 18 33  1  1  0  0  0
 19 18  1  0  0  0  0
 19 52  1  0  0  0  0
 19 53  1  0  0  0  0
 20 19  1  0  0  0  0
 20 30  1  1  0  0  0
 20 29  1  0  0  0  0
 21 20  1  0  0  0  0
 21 22  1  0  0  0  0
 21 54  1  0  0  0  0
 21 55  1  0  0  0  0
 22 17  1  0  0  0  0
 22 56  1  0  0  0  0
 22 57  1  0  0  0  0
 23 58  1  0  0  0  0
 23 59  1  0  0  0  0
 23 60  1  0  0  0  0
 24 61  1  0  0  0  0
 24 62  1  0  0  0  0
 24 63  1  0  0  0  0
 25 64  1  0  0  0  0
 25 65  1  0  0  0  0
 25 66  1  0  0  0  0
 26 67  1  0  0  0  0
 26 68  1  0  0  0  0
 26 69  1  0  0  0  0
 27 70  1  0  0  0  0
 27 71  1  0  0  0  0
 27 72  1  0  0  0  0
 28 73  1  0  0  0  0
 28 74  1  0  0  0  0
 28 75  1  0  0  0  0
 29 76  1  0  0  0  0
 29 77  1  0  0  0  0
 29 78  1  0  0  0  0
 34 30  2  0  0  0  0
 35 30  1  0  0  0  0
 35 79  1  0  0  0  0
 36 80  1  0  0  0  0
 37 11  2  0  0  0  0
M  END
>  <DRUGBANK_ID>
DB13089

>  <COMMON_NAME>
Enoxolone

>  <CAS_NUMBER>
471-53-4

>  <UNII>
P540XA09DR

>  <SYNONYMS>
Enoxolona; Enoxolone; Glycyrrhetic Acid

$$$$
