H24
 OpenBabel10282417072D

 45 47  0  0  0  0  0  0  0  0999 V2000
   40.5612   28.1505    0.0000 C   0  0  0  0  0  0  0  0  0  0  0  0
   39.8467   27.7380    0.0000 O   0  0  0  0  0  0  0  0  0  0  0  0
   39.8467   26.9130    0.0000 C   0  0  0  0  0  0  0  0  0  0  0  0
   40.5612   26.5005    0.0000 C   0  0  0  0  0  0  0  0  0  0  0  0
   40.5612   25.6755    0.0000 C   0  0  0  0  0  0  0  0  0  0  0  0
   39.8467   25.2630    0.0000 C   0  0  0  0  0  0  0  0  0  0  0  0
   39.1322   25.6755    0.0000 C   0  0  0  0  0  0  0  0  0  0  0  0
   39.1322   26.5005    0.0000 C   0  0  0  0  0  0  0  0  0  0  0  0
   38.4178   25.2630    0.0000 C   0  0  0  0  0  0  0  0  0  0  0  0
   38.4178   24.4380    0.0000 C   0  0  0  0  0  0  0  0  0  0  0  0
   37.7033   24.0255    0.0000 C   0  0  0  0  0  0  0  0  0  0  0  0
   36.9888   24.4380    0.0000 C   0  0  0  0  0  0  0  0  0  0  0  0
   36.9888   25.2630    0.0000 C   0  0  0  0  0  0  0  0  0  0  0  0
   36.2743   25.6755    0.0000 C   0  0  2  0  0  0  0  0  0  0  0  0
   36.8046   26.3074    0.0000 C   0  0  0  0  0  0  0  0  0  0  0  0
   35.9922   24.9002    0.0000 C   0  0  0  0  0  0  0  0  0  0  0  0
   35.1797   24.7570    0.0000 C   0  0  0  0  0  0  0  0  0  0  0  0
   34.8975   23.9817    0.0000 O   0  0  0  0  0  0  0  0  0  0  0  0
   34.6494   25.3889    0.0000 N   0  0  0  0  0  0  0  0  0  0  0  0
   33.8369   25.2457    0.0000 C   0  0  0  0  0  0  0  0  0  0  0  0
   34.9316   26.1642    0.0000 C   0  0  0  0  0  0  0  0  0  0  0  0
   34.4013   26.7962    0.0000 N   0  0  0  0  0  0  0  0  0  0  0  0
   35.7440   26.3074    0.0000 N   0  0  0  0  0  0  0  0  0  0  0  0
   37.7033   25.6755    0.0000 C   0  0  0  0  0  0  0  0  0  0  0  0
   41.4878   27.6155    0.0000 H   0  0  0  0  0  0  0  0  0  0  0  0
   40.5612   29.2205    0.0000 H   0  0  0  0  0  0  0  0  0  0  0  0
   41.4879   28.6855    0.0000 H   0  0  0  0  0  0  0  0  0  0  0  0
   41.4549   27.0165    0.0000 H   0  0  0  0  0  0  0  0  0  0  0  0
   41.4549   25.1595    0.0000 H   0  0  0  0  0  0  0  0  0  0  0  0
   39.8467   24.2310    0.0000 H   0  0  0  0  0  0  0  0  0  0  0  0
   38.2385   27.0165    0.0000 H   0  0  0  0  0  0  0  0  0  0  0  0
   39.3115   23.9220    0.0000 H   0  0  0  0  0  0  0  0  0  0  0  0
   37.7033   22.9935    0.0000 H   0  0  0  0  0  0  0  0  0  0  0  0
   36.0951   23.9220    0.0000 H   0  0  0  0  0  0  0  0  0  0  0  0
   37.8583   26.1215    0.0000 H   0  0  0  0  0  0  0  0  0  0  0  0
   36.4387   27.3129    0.0000 H   0  0  0  0  0  0  0  0  0  0  0  0
   37.4924   27.1270    0.0000 H   0  0  0  0  0  0  0  0  0  0  0  0
   36.6800   24.0805    0.0000 H   0  0  0  0  0  0  0  0  0  0  0  0
   35.6262   23.8947    0.0000 H   0  0  0  0  0  0  0  0  0  0  0  0
   33.1492   26.0654    0.0000 H   0  0  0  0  0  0  0  0  0  0  0  0
   33.4709   24.2403    0.0000 H   0  0  0  0  0  0  0  0  0  0  0  0
   32.7831   25.0600    0.0000 H   0  0  0  0  0  0  0  0  0  0  0  0
   34.7380   27.7213    0.0000 H   0  0  0  0  0  0  0  0  0  0  0  0
   33.4318   26.6253    0.0000 H   0  0  0  0  0  0  0  0  0  0  0  0
   37.7033   26.7075    0.0000 H   0  0  0  0  0  0  0  0  0  0  0  0
  1  2  1  0  0  0  0
  1 25  1  0  0  0  0
  1 26  1  0  0  0  0
  1 27  1  0  0  0  0
  2  3  1  0  0  0  0
  3  4  1  0  0  0  0
  3  8  2  0  0  0  0
  4  5  2  0  0  0  0
  4 28  1  0  0  0  0
  5  6  1  0  0  0  0
  5 29  1  0  0  0  0
  6  7  2  0  0  0  0
  6 30  1  0  0  0  0
  7  8  1  0  0  0  0
  7  9  1  0  0  0  0
  8 31  1  0  0  0  0
  9 10  1  0  0  0  0
  9 24  2  0  0  0  0
 10 11  2  0  0  0  0
 10 32  1  0  0  0  0
 11 12  1  0  0  0  0
 11 33  1  0  0  0  0
 12 13  2  0  0  0  0
 12 34  1  0  0  0  0
 13 24  1  0  0  0  0
 14 13  1  0  0  0  0
 14 15  1  1  0  0  0
 14 16  1  0  0  0  0
 14 23  1  0  0  0  0
 15 35  1  0  0  0  0
 15 36  1  0  0  0  0
 15 37  1  0  0  0  0
 16 17  1  0  0  0  0
 16 38  1  0  0  0  0
 16 39  1  0  0  0  0
 17 18  2  0  0  0  0
 17 19  1  0  0  0  0
 19 20  1  0  0  0  0
 19 21  1  0  0  0  0
 20 40  1  0  0  0  0
 20 41  1  0  0  0  0
 20 42  1  0  0  0  0
 21 23  2  0  0  0  0
 21 22  1  0  0  0  0
 22 43  1  0  0  0  0
 22 44  1  0  0  0  0
 24 45  1  0  0  0  0
M  END
>  <DRUGBANK_ID>
DB07874

>  <COMMON_NAME>
(6S)-2-amino-6-(3'-methoxybiphenyl-3-yl)-3,6-dimethyl-5,6-dihydropyrimidin-4(3H)-one

$$$$
