
 OpenBabel10282417072D

 90 41  0  0  0  0  0  0  0  0999 V2000
   -7.8375    5.7750    0.0000 Al  0  1  0  0  0  0  0  0  0  0  0  0
   -7.8375    2.4750    0.0000 Al  0  1  0  0  0  0  0  0  0  0  0  0
   -4.4196    5.7750    0.0000 Al  0  1  0  0  0  0  0  0  0  0  0  0
   -4.4196    2.4750    0.0000 Al  0  1  0  0  0  0  0  0  0  0  0  0
   -0.5303    4.1250    0.0000 Al  0  1  0  0  0  0  0  0  0  0  0  0
    2.5339    4.1250    0.0000 Mg  0  2  0  0  0  0  0  0  0  0  0  0
    5.5982    4.1250    0.0000 Mg  0  2  0  0  0  0  0  0  0  0  0  0
    8.6625    4.1250    0.0000 Mg  0  2  0  0  0  0  0  0  0  0  0  0
   -7.4250    0.8250    0.0000 Mg  0  2  0  0  0  0  0  0  0  0  0  0
   -4.3607    0.8250    0.0000 Mg  0  2  0  0  0  0  0  0  0  0  0  0
   -1.2964    0.8250    0.0000 Mg  0  2  0  0  0  0  0  0  0  0  0  0
    1.7678    0.8250    0.0000 Mg  0  2  0  0  0  0  0  0  0  0  0  0
    4.8321    0.8250    0.0000 Mg  0  2  0  0  0  0  0  0  0  0  0  0
    7.8964    0.8250    0.0000 Mg  0  2  0  0  0  0  0  0  0  0  0  0
   -7.4250   -0.8250    0.0000 Mg  0  2  0  0  0  0  0  0  0  0  0  0
   -7.8375    4.9500    0.0000 O   0  5  0  0  0  0  0  0  0  0  0  0
   -7.8375    3.3000    0.0000 O   0  5  0  0  0  0  0  0  0  0  0  0
   -8.6625    4.1250    0.0000 O   0  0  0  0  0  0  0  0  0  0  0  0
   -7.0125    4.1250    0.0000 O   0  0  0  0  0  0  0  0  0  0  0  0
   -7.8375    4.1250    0.0000 S   0  0  0  0  0  0  0  0  0  0  0  0
   -4.4196    4.9500    0.0000 O   0  5  0  0  0  0  0  0  0  0  0  0
   -4.4196    3.3000    0.0000 O   0  5  0  0  0  0  0  0  0  0  0  0
   -5.2446    4.1250    0.0000 O   0  0  0  0  0  0  0  0  0  0  0  0
   -3.5946    4.1250    0.0000 O   0  0  0  0  0  0  0  0  0  0  0  0
   -4.4196    4.1250    0.0000 S   0  0  0  0  0  0  0  0  0  0  0  0
   -1.3553    4.1250    0.0000 O   0  5  0  0  0  0  0  0  0  0  0  0
    1.7089    4.1250    0.0000 O   0  5  0  0  0  0  0  0  0  0  0  0
    4.7732    4.1250    0.0000 O   0  5  0  0  0  0  0  0  0  0  0  0
    7.8375    4.1250    0.0000 O   0  5  0  0  0  0  0  0  0  0  0  0
   -8.2500    0.8250    0.0000 O   0  5  0  0  0  0  0  0  0  0  0  0
   -5.1857    0.8250    0.0000 O   0  5  0  0  0  0  0  0  0  0  0  0
   -2.1214    0.8250    0.0000 O   0  5  0  0  0  0  0  0  0  0  0  0
    0.9428    0.8250    0.0000 O   0  5  0  0  0  0  0  0  0  0  0  0
    4.0071    0.8250    0.0000 O   0  5  0  0  0  0  0  0  0  0  0  0
    7.0714    0.8250    0.0000 O   0  5  0  0  0  0  0  0  0  0  0  0
   -8.2500   -0.8250    0.0000 O   0  5  0  0  0  0  0  0  0  0  0  0
   -5.0678   -0.8250    0.0000 O   0  5  0  0  0  0  0  0  0  0  0  0
   -3.9482   -0.8250    0.0000 O   0  5  0  0  0  0  0  0  0  0  0  0
   -2.8285   -0.8250    0.0000 O   0  5  0  0  0  0  0  0  0  0  0  0
   -1.7089   -0.8250    0.0000 O   0  5  0  0  0  0  0  0  0  0  0  0
   -0.5892   -0.8250    0.0000 O   0  5  0  0  0  0  0  0  0  0  0  0
   -7.8375   -2.4750    0.0000 O   0  5  0  0  0  0  0  0  0  0  0  0
   -6.7178   -2.4750    0.0000 O   0  5  0  0  0  0  0  0  0  0  0  0
   -5.5982   -2.4750    0.0000 O   0  5  0  0  0  0  0  0  0  0  0  0
   -4.4785   -2.4750    0.0000 O   0  5  0  0  0  0  0  0  0  0  0  0
   -3.3589   -2.4750    0.0000 O   0  5  0  0  0  0  0  0  0  0  0  0
   -2.2392   -2.4750    0.0000 O   0  5  0  0  0  0  0  0  0  0  0  0
   -7.8375   -4.1250    0.0000 O   0  5  0  0  0  0  0  0  0  0  0  0
   -6.7178   -4.1250    0.0000 O   0  5  0  0  0  0  0  0  0  0  0  0
   -5.5982   -4.1250    0.0000 O   0  5  0  0  0  0  0  0  0  0  0  0
   -4.4785   -4.1250    0.0000 O   0  5  0  0  0  0  0  0  0  0  0  0
   -3.3589   -4.1250    0.0000 O   0  5  0  0  0  0  0  0  0  0  0  0
   -2.2392   -4.1250    0.0000 O   0  5  0  0  0  0  0  0  0  0  0  0
   -7.8375   -5.7750    0.0000 O   0  5  0  0  0  0  0  0  0  0  0  0
   -6.7178   -5.7750    0.0000 O   0  5  0  0  0  0  0  0  0  0  0  0
   -5.5982   -5.7750    0.0000 O   0  5  0  0  0  0  0  0  0  0  0  0
   -3.2410   -5.7750    0.0000 O   0  0  0  0  0  0  0  0  0  0  0  0
   -0.3853    4.1250    0.0000 H   0  0  0  0  0  0  0  0  0  0  0  0
    2.6789    4.1250    0.0000 H   0  0  0  0  0  0  0  0  0  0  0  0
    5.7432    4.1250    0.0000 H   0  0  0  0  0  0  0  0  0  0  0  0
    8.8075    4.1250    0.0000 H   0  0  0  0  0  0  0  0  0  0  0  0
   -7.2800    0.8250    0.0000 H   0  0  0  0  0  0  0  0  0  0  0  0
   -4.2157    0.8250    0.0000 H   0  0  0  0  0  0  0  0  0  0  0  0
   -1.1514    0.8250    0.0000 H   0  0  0  0  0  0  0  0  0  0  0  0
    1.9128    0.8250    0.0000 H   0  0  0  0  0  0  0  0  0  0  0  0
    4.9771    0.8250    0.0000 H   0  0  0  0  0  0  0  0  0  0  0  0
    8.0414    0.8250    0.0000 H   0  0  0  0  0  0  0  0  0  0  0  0
   -7.2800   -0.8250    0.0000 H   0  0  0  0  0  0  0  0  0  0  0  0
   -4.0978   -0.8250    0.0000 H   0  0  0  0  0  0  0  0  0  0  0  0
   -2.9782   -0.8250    0.0000 H   0  0  0  0  0  0  0  0  0  0  0  0
   -1.8585   -0.8250    0.0000 H   0  0  0  0  0  0  0  0  0  0  0  0
   -0.7389   -0.8250    0.0000 H   0  0  0  0  0  0  0  0  0  0  0  0
    0.3808   -0.8250    0.0000 H   0  0  0  0  0  0  0  0  0  0  0  0
   -6.8675   -2.4750    0.0000 H   0  0  0  0  0  0  0  0  0  0  0  0
   -5.7478   -2.4750    0.0000 H   0  0  0  0  0  0  0  0  0  0  0  0
   -4.6282   -2.4750    0.0000 H   0  0  0  0  0  0  0  0  0  0  0  0
   -3.5085   -2.4750    0.0000 H   0  0  0  0  0  0  0  0  0  0  0  0
   -2.3889   -2.4750    0.0000 H   0  0  0  0  0  0  0  0  0  0  0  0
   -1.2692   -2.4750    0.0000 H   0  0  0  0  0  0  0  0  0  0  0  0
   -6.8675   -4.1250    0.0000 H   0  0  0  0  0  0  0  0  0  0  0  0
   -5.7478   -4.1250    0.0000 H   0  0  0  0  0  0  0  0  0  0  0  0
   -4.6282   -4.1250    0.0000 H   0  0  0  0  0  0  0  0  0  0  0  0
   -3.5085   -4.1250    0.0000 H   0  0  0  0  0  0  0  0  0  0  0  0
   -2.3889   -4.1250    0.0000 H   0  0  0  0  0  0  0  0  0  0  0  0
   -1.2692   -4.1250    0.0000 H   0  0  0  0  0  0  0  0  0  0  0  0
   -6.8675   -5.7750    0.0000 H   0  0  0  0  0  0  0  0  0  0  0  0
   -5.7478   -5.7750    0.0000 H   0  0  0  0  0  0  0  0  0  0  0  0
   -4.6282   -5.7750    0.0000 H   0  0  0  0  0  0  0  0  0  0  0  0
   -2.2710   -5.7750    0.0000 H   0  0  0  0  0  0  0  0  0  0  0  0
   -3.7260   -4.9350    0.0000 H   0  0  0  0  0  0  0  0  0  0  0  0
 20 16  1  0  0  0  0
 20 17  1  0  0  0  0
 20 18  2  0  0  0  0
 20 19  2  0  0  0  0
 25 21  1  0  0  0  0
 25 22  1  0  0  0  0
 25 23  2  0  0  0  0
 25 24  2  0  0  0  0
 26 58  1  0  0  0  0
 27 59  1  0  0  0  0
 28 60  1  0  0  0  0
 29 61  1  0  0  0  0
 30 62  1  0  0  0  0
 31 63  1  0  0  0  0
 32 64  1  0  0  0  0
 33 65  1  0  0  0  0
 34 66  1  0  0  0  0
 35 67  1  0  0  0  0
 36 68  1  0  0  0  0
 37 69  1  0  0  0  0
 38 70  1  0  0  0  0
 39 71  1  0  0  0  0
 40 72  1  0  0  0  0
 41 73  1  0  0  0  0
 42 74  1  0  0  0  0
 43 75  1  0  0  0  0
 44 76  1  0  0  0  0
 45 77  1  0  0  0  0
 46 78  1  0  0  0  0
 47 79  1  0  0  0  0
 48 80  1  0  0  0  0
 49 81  1  0  0  0  0
 50 82  1  0  0  0  0
 51 83  1  0  0  0  0
 52 84  1  0  0  0  0
 53 85  1  0  0  0  0
 54 86  1  0  0  0  0
 55 87  1  0  0  0  0
 56 88  1  0  0  0  0
 57 89  1  0  0  0  0
 57 90  1  0  0  0  0
M  CHG  8   1   3   2   3   3   3   4   3   5   3   6   2   7   2   8   2
M  CHG  8   9   2  10   2  11   2  12   2  13   2  14   2  15   2  16  -1
M  CHG  8  17  -1  21  -1  22  -1  26  -1  27  -1  28  -1  29  -1  30  -1
M  CHG  8  31  -1  32  -1  33  -1  34  -1  35  -1  36  -1  37  -1  38  -1
M  CHG  8  39  -1  40  -1  41  -1  42  -1  43  -1  44  -1  45  -1  46  -1
M  CHG  8  47  -1  48  -1  49  -1  50  -1  51  -1  52  -1  53  -1  54  -1
M  CHG  2  55  -1  56  -1
M  END
>  <DRUGBANK_ID>
DB08938

>  <COMMON_NAME>
Magaldrate

>  <CAS_NUMBER>
74978-16-8

>  <UNII>
6V88E24N5T

>  <SYNONYMS>
Aluminium magnesium hydroxide sulfate hydrate; Aluminum magnesium hydroxide sulfate hydrate; Aluminum magnesium hydroxide sulphate hydrate; Hydrate magnesium aluminate activated sulfate; Magaldrate; Magaldrato; Magaldratum; Magnesium aluminate hydrate; Monalium hydrate

$$$$
