
 OpenBabel10282417072D

 83 88  0  0  1  0  0  0  0  0999 V2000
   -3.8731   -0.4956    0.0000 C   0  0  0  0  0  0  0  0  0  0  0  0
   -3.4637    0.2208    0.0000 C   0  0  0  0  0  0  0  0  0  0  0  0
   -2.6393    0.2208    0.0000 C   0  0  0  0  0  0  0  0  0  0  0  0
   -2.2273   -0.4937    0.0000 C   0  0  0  0  0  0  0  0  0  0  0  0
   -2.6382   -1.2086    0.0000 C   0  0  0  0  0  0  0  0  0  0  0  0
   -3.4612   -1.2086    0.0000 C   0  0  0  0  0  0  0  0  0  0  0  0
   -3.8704   -1.9256    0.0000 C   0  0  0  0  0  0  0  0  0  0  0  0
   -3.4612   -2.6381    0.0000 C   0  0  0  0  0  0  0  0  0  0  0  0
   -2.6383   -2.6381    0.0000 C   0  0  0  0  0  0  0  0  0  0  0  0
   -2.2245   -1.9256    0.0000 C   0  0  1  0  0  0  0  0  0  0  0  0
   -1.9194   -1.1584    0.0000 C   0  0  0  0  0  0  0  0  0  0  0  0
   -1.1225   -0.9447    0.0000 N   0  0  0  0  0  0  0  0  0  0  0  0
   -0.4475   -1.3766    0.0000 C   0  0  0  0  0  0  0  0  0  0  0  0
   -0.3865   -2.2056    0.0000 C   0  0  0  0  0  0  0  0  0  0  0  0
   -0.9907   -2.7641    0.0000 O   0  0  0  0  0  0  0  0  0  0  0  0
   -1.8090   -2.6444    0.0000 C   0  0  0  0  0  0  0  0  0  0  0  0
    0.3690   -2.5635    0.0000 C   0  0  0  0  0  0  0  0  0  0  0  0
    1.0487   -2.0888    0.0000 C   0  0  0  0  0  0  0  0  0  0  0  0
    0.9808   -1.2666    0.0000 C   0  0  0  0  0  0  0  0  0  0  0  0
    0.2345   -0.9108    0.0000 C   0  0  0  0  0  0  0  0  0  0  0  0
    1.6937   -0.8522    0.0000 C   0  0  0  0  0  0  0  0  0  0  0  0
    2.4068   -1.2666    0.0000 N   0  0  0  0  0  0  0  0  0  0  0  0
    3.1244   -0.8522    0.0000 S   0  0  0  0  0  0  0  0  0  0  0  0
    3.1244   -0.1210    0.0000 C   0  0  1  0  0  0  0  0  0  0  0  0
    2.4471    0.2885    0.0000 C   0  0  2  0  0  0  0  0  0  0  0  0
    2.4471    1.1167    0.0000 C   0  0  0  0  0  0  0  0  0  0  0  0
    1.7340    1.5263    0.0000 C   0  0  0  0  0  0  0  0  0  0  0  0
    1.0165    1.1167    0.0000 C   0  0  0  0  0  0  0  0  0  0  0  0
    0.3034    1.5263    0.0000 C   0  0  1  0  0  0  0  0  0  0  0  0
   -0.4095    1.1167    0.0000 C   0  0  1  0  0  0  0  0  0  0  0  0
   -0.4095    0.2885    0.0000 C   0  0  2  0  0  0  0  0  0  0  0  0
   -1.1225   -0.1210    0.0000 C   0  0  0  0  0  0  0  0  0  0  0  0
   -1.2889    0.6404    0.0000 C   0  0  0  0  0  0  0  0  0  0  0  0
   -1.1849    1.6026    0.0000 C   0  0  0  0  0  0  0  0  0  0  0  0
    0.3034    2.3500    0.0000 O   0  0  0  0  0  0  0  0  0  0  0  0
   -0.4095    2.7641    0.0000 C   0  0  0  0  0  0  0  0  0  0  0  0
    1.7891    0.0989    0.0000 C   0  0  0  0  0  0  0  0  0  0  0  0
    3.8731    0.2885    0.0000 C   0  0  0  0  0  0  0  0  0  0  0  0
    3.8375   -1.2666    0.0000 O   0  0  0  0  0  0  0  0  0  0  0  0
    2.4190   -0.4237    0.0000 O   0  0  0  0  0  0  0  0  0  0  0  0
    1.4370   -0.2395    0.0000 O   0  0  0  0  0  0  0  0  0  0  0  0
   -3.8731    0.9338    0.0000 Cl  0  0  0  0  0  0  0  0  0  0  0  0
   -4.9051   -0.4980    0.0000 H   0  0  0  0  0  0  0  0  0  0  0  0
   -2.1231    1.1144    0.0000 H   0  0  0  0  0  0  0  0  0  0  0  0
   -1.1953   -0.4930    0.0000 H   0  0  0  0  0  0  0  0  0  0  0  0
   -4.9404   -1.9271    0.0000 H   0  0  0  0  0  0  0  0  0  0  0  0
   -4.4058   -2.8520    0.0000 H   0  0  0  0  0  0  0  0  0  0  0  0
   -3.9973   -3.5641    0.0000 H   0  0  0  0  0  0  0  0  0  0  0  0
   -2.9267   -3.5651    0.0000 H   0  0  0  0  0  0  0  0  0  0  0  0
   -2.1045   -3.5654    0.0000 H   0  0  0  0  0  0  0  0  0  0  0  0
   -1.5683   -2.6402    0.0000 H   0  0  0  0  0  0  0  0  0  0  0  0
   -2.6307   -0.3590    0.0000 H   0  0  0  0  0  0  0  0  0  0  0  0
   -1.6126   -0.1333    0.0000 H   0  0  0  0  0  0  0  0  0  0  0  0
   -2.4096   -3.5299    0.0000 H   0  0  0  0  0  0  0  0  0  0  0  0
   -2.8783   -2.6060    0.0000 H   0  0  0  0  0  0  0  0  0  0  0  0
    0.4552   -3.5919    0.0000 H   0  0  0  0  0  0  0  0  0  0  0  0
    1.9827   -2.5278    0.0000 H   0  0  0  0  0  0  0  0  0  0  0  0
    0.1549    0.1181    0.0000 H   0  0  0  0  0  0  0  0  0  0  0  0
    2.4055   -2.2511    0.0000 H   0  0  0  0  0  0  0  0  0  0  0  0
    4.0448   -0.6667    0.0000 H   0  0  0  0  0  0  0  0  0  0  0  0
    2.3067   -0.7722    0.0000 H   0  0  0  0  0  0  0  0  0  0  0  0
    3.3732    1.6527    0.0000 H   0  0  0  0  0  0  0  0  0  0  0  0
    2.4453    2.1867    0.0000 H   0  0  0  0  0  0  0  0  0  0  0  0
    1.7354    2.5583    0.0000 H   0  0  0  0  0  0  0  0  0  0  0  0
    1.0151    0.0847    0.0000 H   0  0  0  0  0  0  0  0  0  0  0  0
    1.2295    2.0623    0.0000 H   0  0  0  0  0  0  0  0  0  0  0  0
   -0.3890    2.1865    0.0000 H   0  0  0  0  0  0  0  0  0  0  0  0
   -1.0093    1.1746    0.0000 H   0  0  0  0  0  0  0  0  0  0  0  0
   -2.0485    0.4150    0.0000 H   0  0  0  0  0  0  0  0  0  0  0  0
   -2.0495   -0.6555    0.0000 H   0  0  0  0  0  0  0  0  0  0  0  0
   -2.2060    0.0891    0.0000 H   0  0  0  0  0  0  0  0  0  0  0  0
   -2.1905    1.2166    0.0000 H   0  0  0  0  0  0  0  0  0  0  0  0
   -1.6519    2.5653    0.0000 H   0  0  0  0  0  0  0  0  0  0  0  0
   -0.3885    2.3172    0.0000 H   0  0  0  0  0  0  0  0  0  0  0  0
   -0.4067    3.8341    0.0000 H   0  0  0  0  0  0  0  0  0  0  0  0
   -1.3376    2.2315    0.0000 H   0  0  0  0  0  0  0  0  0  0  0  0
   -1.3347    3.3015    0.0000 H   0  0  0  0  0  0  0  0  0  0  0  0
    1.0184    0.8412    0.0000 H   0  0  0  0  0  0  0  0  0  0  0  0
    1.5316   -0.9397    0.0000 H   0  0  0  0  0  0  0  0  0  0  0  0
    0.7609   -0.1974    0.0000 H   0  0  0  0  0  0  0  0  0  0  0  0
    4.7871   -0.2678    0.0000 H   0  0  0  0  0  0  0  0  0  0  0  0
    3.8978    1.3582    0.0000 H   0  0  0  0  0  0  0  0  0  0  0  0
    4.8119    0.8020    0.0000 H   0  0  0  0  0  0  0  0  0  0  0  0
  1  6  1  0  0  0  0
  1 43  1  0  0  0  0
  2  1  2  0  0  0  0
  2 42  1  0  0  0  0
  3  2  1  0  0  0  0
  3 44  1  0  0  0  0
  4  3  2  0  0  0  0
  4 45  1  0  0  0  0
  5  4  1  0  0  0  0
  6  5  2  0  0  0  0
  6  7  1  0  0  0  0
  7  8  1  0  0  0  0
  7 46  1  0  0  0  0
  7 47  1  0  0  0  0
  8  9  1  0  0  0  0
  8 48  1  0  0  0  0
  8 49  1  0  0  0  0
  9 50  1  0  0  0  0
  9 51  1  0  0  0  0
 10  9  1  0  0  0  0
 10  5  1  1  0  0  0
 10 11  1  0  0  0  0
 10 16  1  0  0  0  0
 11 12  1  0  0  0  0
 11 52  1  0  0  0  0
 11 53  1  0  0  0  0
 12 13  1  0  0  0  0
 12 32  1  0  0  0  0
 13 14  2  0  0  0  0
 13 20  1  0  0  0  0
 14 15  1  0  0  0  0
 14 17  1  0  0  0  0
 16 15  1  0  0  0  0
 16 54  1  0  0  0  0
 16 55  1  0  0  0  0
 17 18  2  0  0  0  0
 17 56  1  0  0  0  0
 18 19  1  0  0  0  0
 18 57  1  0  0  0  0
 19 20  2  0  0  0  0
 19 21  1  0  0  0  0
 20 58  1  0  0  0  0
 21 22  1  0  0  0  0
 21 41  2  0  0  0  0
 22 23  1  0  0  0  0
 22 59  1  0  0  0  0
 23 39  2  0  0  0  0
 23 40  2  0  0  0  0
 24 23  1  0  0  0  0
 24 38  1  0  0  0  0
 24 60  1  6  0  0  0
 25 24  1  0  0  0  0
 25 37  1  0  0  0  0
 25 61  1  6  0  0  0
 26 25  1  0  0  0  0
 26 62  1  0  0  0  0
 26 63  1  0  0  0  0
 27 26  1  0  0  0  0
 27 64  1  0  0  0  0
 28 27  2  0  0  0  0
 28 65  1  0  0  0  0
 29 28  1  0  0  0  0
 29 35  1  0  0  0  0
 29 66  1  6  0  0  0
 30 29  1  0  0  0  0
 30 34  1  0  0  0  0
 30 67  1  6  0  0  0
 31 30  1  0  0  0  0
 31 33  1  0  0  0  0
 31 68  1  1  0  0  0
 32 31  1  0  0  0  0
 32 69  1  0  0  0  0
 32 70  1  0  0  0  0
 33 71  1  0  0  0  0
 33 72  1  0  0  0  0
 34 33  1  0  0  0  0
 34 73  1  0  0  0  0
 34 74  1  0  0  0  0
 35 36  1  0  0  0  0
 36 75  1  0  0  0  0
 36 76  1  0  0  0  0
 36 77  1  0  0  0  0
 37 78  1  0  0  0  0
 37 79  1  0  0  0  0
 37 80  1  0  0  0  0
 38 81  1  0  0  0  0
 38 82  1  0  0  0  0
 38 83  1  0  0  0  0
M  END
>  <DRUGBANK_ID>
DB17166

>  <COMMON_NAME>
Tapotoclax

>  <CAS_NUMBER>
1883727-34-1

>  <UNII>
97W7N9T08G

>  <SYNONYMS>
MCL-1 inhibitor AMG 176; MCL-1 inhibitor AMG-176

$$$$
