
 OpenBabel10282417072D

 42 44  0  0  1  0  0  0  0  0999 V2000
    0.0000   -0.8250    0.0000 C   0  0  0  0  0  0  0  0  0  0  0  0
    0.7145   -0.4125    0.0000 C   0  0  0  0  0  0  0  0  0  0  0  0
    0.0000    0.8250    0.0000 C   0  0  0  0  0  0  0  0  0  0  0  0
   -0.7145   -0.4125    0.0000 C   0  0  0  0  0  0  0  0  0  0  0  0
   -0.7145    0.4125    0.0000 C   0  0  0  0  0  0  0  0  0  0  0  0
    0.7145    0.4125    0.0000 C   0  0  0  0  0  0  0  0  0  0  0  0
   -1.4289   -0.8250    0.0000 C   0  0  0  0  0  0  0  0  0  0  0  0
    1.9840    0.0000    0.0000 C   0  0  0  0  0  0  0  0  0  0  0  0
    1.4991   -0.6674    0.0000 C   0  0  0  0  0  0  0  0  0  0  0  0
    1.7540   -1.4521    0.0000 C   0  0  0  0  0  0  0  0  0  0  0  0
    2.8159   -2.4081    0.0000 N   0  0  0  0  0  0  0  0  0  0  0  0
    2.2639   -3.0212    0.0000 C   0  0  0  0  0  0  0  0  0  0  0  0
    3.6229   -2.5796    0.0000 C   0  0  0  0  0  0  0  0  0  0  0  0
    2.5610   -1.6235    0.0000 C   0  0  0  0  0  0  0  0  0  0  0  0
    1.4991    0.6674    0.0000 N   0  0  0  0  0  0  0  0  0  0  0  0
   -2.1434   -0.4125    0.0000 C   0  0  2  0  0  0  0  0  0  0  0  0
   -2.8108   -0.8974    0.0000 N   0  0  0  0  0  0  0  0  0  0  0  0
   -3.4783   -0.4126    0.0000 C   0  0  0  0  0  0  0  0  0  0  0  0
   -3.2233    0.3720    0.0000 O   0  0  0  0  0  0  0  0  0  0  0  0
   -4.2629   -0.6675    0.0000 O   0  0  0  0  0  0  0  0  0  0  0  0
   -2.3983    0.3720    0.0000 C   0  0  0  0  0  0  0  0  0  0  0  0
    0.0000   -1.8570    0.0000 H   0  0  0  0  0  0  0  0  0  0  0  0
    0.0000    1.8570    0.0000 H   0  0  0  0  0  0  0  0  0  0  0  0
   -1.6082    0.9285    0.0000 H   0  0  0  0  0  0  0  0  0  0  0  0
   -1.4289   -1.8950    0.0000 H   0  0  0  0  0  0  0  0  0  0  0  0
   -2.3555   -1.3600    0.0000 H   0  0  0  0  0  0  0  0  0  0  0  0
    3.0160    0.0000    0.0000 H   0  0  0  0  0  0  0  0  0  0  0  0
    1.0381   -2.2473    0.0000 H   0  0  0  0  0  0  0  0  0  0  0  0
    2.0847   -2.4697    0.0000 H   0  0  0  0  0  0  0  0  0  0  0  0
    1.2173   -2.7988    0.0000 H   0  0  0  0  0  0  0  0  0  0  0  0
    2.5946   -4.0388    0.0000 H   0  0  0  0  0  0  0  0  0  0  0  0
    1.5480   -3.8164    0.0000 H   0  0  0  0  0  0  0  0  0  0  0  0
    3.9536   -3.5972    0.0000 H   0  0  0  0  0  0  0  0  0  0  0  0
    4.3388   -1.7844    0.0000 H   0  0  0  0  0  0  0  0  0  0  0  0
    4.6695   -2.8020    0.0000 H   0  0  0  0  0  0  0  0  0  0  0  0
    3.2769   -0.8283    0.0000 H   0  0  0  0  0  0  0  0  0  0  0  0
    3.6076   -1.8460    0.0000 H   0  0  0  0  0  0  0  0  0  0  0  0
    1.8033    1.6037    0.0000 H   0  0  0  0  0  0  0  0  0  0  0  0
   -2.0874   -1.4810    0.0000 H   0  0  0  0  0  0  0  0  0  0  0  0
   -2.8107   -1.8819    0.0000 H   0  0  0  0  0  0  0  0  0  0  0  0
   -1.7694    1.2376    0.0000 H   0  0  0  0  0  0  0  0  0  0  0  0
   -2.8841    1.3254    0.0000 H   0  0  0  0  0  0  0  0  0  0  0  0
  1  4  1  0  0  0  0
  1 22  1  0  0  0  0
  2  1  2  0  0  0  0
  2  9  1  0  0  0  0
  2  6  1  0  0  0  0
  3  5  1  0  0  0  0
  3 23  1  0  0  0  0
  4  7  1  0  0  0  0
  4  5  2  0  0  0  0
  5 24  1  0  0  0  0
  6  3  2  0  0  0  0
  6 15  1  0  0  0  0
  7 25  1  0  0  0  0
  7 26  1  0  0  0  0
  8 27  1  0  0  0  0
  9  8  2  0  0  0  0
  9 10  1  0  0  0  0
 10 14  1  0  0  0  0
 10 28  1  0  0  0  0
 10 29  1  0  0  0  0
 11 12  1  0  0  0  0
 11 13  1  0  0  0  0
 12 30  1  0  0  0  0
 12 31  1  0  0  0  0
 12 32  1  0  0  0  0
 13 33  1  0  0  0  0
 13 34  1  0  0  0  0
 13 35  1  0  0  0  0
 14 11  1  0  0  0  0
 14 36  1  0  0  0  0
 14 37  1  0  0  0  0
 15  8  1  0  0  0  0
 15 38  1  0  0  0  0
 16  7  1  0  0  0  0
 16 17  1  0  0  0  0
 16 21  1  0  0  0  0
 16 39  1  1  0  0  0
 17 18  1  0  0  0  0
 17 40  1  0  0  0  0
 18 20  2  0  0  0  0
 18 19  1  0  0  0  0
 21 19  1  0  0  0  0
 21 41  1  0  0  0  0
 21 42  1  0  0  0  0
M  END
>  <DRUGBANK_ID>
DB00315

>  <SECONDARY_ACCESSION_NUMBERS>
APRD00376

>  <COMMON_NAME>
Zolmitriptan

>  <CAS_NUMBER>
139264-17-8

>  <UNII>
2FS66TH3YW

>  <SYNONYMS>
(S)-4-({3-[2-(dimethylamino)ethyl]-1H-indol-5-yl}methyl)-1,3-oxazolidin-2-one; 4-[[3-(2-dimethylaminoethyl)-1H-indol-5-yl]methyl]oxazolidin-2-one; Zolmitriptan; Zolmitript√°n; Zolmitriptanum

$$$$
