IGP
 OpenBabel10282417072D

 33 34  0  0  0  0  0  0  0  0999 V2000
   -1.4809   -0.1139    0.0000 C   0  0  0  0  0  0  0  0  0  0  0  0
   -2.9098   -0.1139    0.0000 P   0  0  0  0  0  0  0  0  0  0  0  0
   -3.6243   -0.5264    0.0000 O   0  0  0  0  0  0  0  0  0  0  0  0
   -2.4973   -0.8284    0.0000 O   0  0  0  0  0  0  0  0  0  0  0  0
   -3.3223    0.6006    0.0000 O   0  0  0  0  0  0  0  0  0  0  0  0
   -2.1953    0.2986    0.0000 O   0  0  0  0  0  0  0  0  0  0  0  0
   -0.7664    0.2986    0.0000 C   0  0  1  0  0  0  0  0  0  0  0  0
   -0.7664    1.1236    0.0000 O   0  0  0  0  0  0  0  0  0  0  0  0
   -0.0519   -0.1139    0.0000 C   0  0  1  0  0  0  0  0  0  0  0  0
   -0.0519   -0.9389    0.0000 O   0  0  0  0  0  0  0  0  0  0  0  0
    0.6625    0.2986    0.0000 C   0  0  0  0  0  0  0  0  0  0  0  0
    1.4162   -0.0370    0.0000 C   0  0  0  0  0  0  0  0  0  0  0  0
    1.9682    0.5761    0.0000 C   0  0  0  0  0  0  0  0  0  0  0  0
    1.6712   -0.8216    0.0000 C   0  0  0  0  0  0  0  0  0  0  0  0
    0.7488    1.1191    0.0000 C   0  0  0  0  0  0  0  0  0  0  0  0
    1.5557    1.2906    0.0000 N   0  0  0  0  0  0  0  0  0  0  0  0
    2.7752    0.4046    0.0000 C   0  0  0  0  0  0  0  0  0  0  0  0
    2.4781   -0.9931    0.0000 C   0  0  0  0  0  0  0  0  0  0  0  0
    3.0302   -0.3800    0.0000 C   0  0  0  0  0  0  0  0  0  0  0  0
   -1.2721    0.5906    0.0000 H   0  0  0  0  0  0  0  0  0  0  0  0
   -0.5576   -0.4059    0.0000 H   0  0  0  0  0  0  0  0  0  0  0  0
   -1.4809   -1.1839    0.0000 H   0  0  0  0  0  0  0  0  0  0  0  0
   -0.5543   -0.6489    0.0000 H   0  0  0  0  0  0  0  0  0  0  0  0
   -4.4643   -0.0414    0.0000 H   0  0  0  0  0  0  0  0  0  0  0  0
   -2.9823   -1.6684    0.0000 H   0  0  0  0  0  0  0  0  0  0  0  0
    0.0736    1.6086    0.0000 H   0  0  0  0  0  0  0  0  0  0  0  0
   -0.8919   -1.4239    0.0000 H   0  0  0  0  0  0  0  0  0  0  0  0
    0.9807   -1.5886    0.0000 H   0  0  0  0  0  0  0  0  0  0  0  0
   -0.0181    1.8097    0.0000 H   0  0  0  0  0  0  0  0  0  0  0  0
    1.9561    2.1900    0.0000 H   0  0  0  0  0  0  0  0  0  0  0  0
    3.4657    1.1716    0.0000 H   0  0  0  0  0  0  0  0  0  0  0  0
    2.7970   -1.9746    0.0000 H   0  0  0  0  0  0  0  0  0  0  0  0
    4.0397   -0.5946    0.0000 H   0  0  0  0  0  0  0  0  0  0  0  0
  1  6  1  0  0  0  0
  1  7  1  0  0  0  0
  1 22  1  0  0  0  0
  1 23  1  0  0  0  0
  2  3  1  0  0  0  0
  2  4  1  0  0  0  0
  2  5  2  0  0  0  0
  2  6  1  0  0  0  0
  3 24  1  0  0  0  0
  4 25  1  0  0  0  0
  7  8  1  0  0  0  0
  7  9  1  0  0  0  0
  7 20  1  6  0  0  0
  8 26  1  0  0  0  0
  9 10  1  0  0  0  0
  9 11  1  0  0  0  0
  9 21  1  1  0  0  0
 10 27  1  0  0  0  0
 11 12  1  0  0  0  0
 11 15  2  0  0  0  0
 12 13  2  0  0  0  0
 12 14  1  0  0  0  0
 13 16  1  0  0  0  0
 13 17  1  0  0  0  0
 14 18  2  0  0  0  0
 14 28  1  0  0  0  0
 15 16  1  0  0  0  0
 15 29  1  0  0  0  0
 16 30  1  0  0  0  0
 17 19  2  0  0  0  0
 17 31  1  0  0  0  0
 18 19  1  0  0  0  0
 18 32  1  0  0  0  0
 19 33  1  0  0  0  0
M  END
>  <DRUGBANK_ID>
DB04143

>  <SECONDARY_ACCESSION_NUMBERS>
EXPT01850

>  <COMMON_NAME>
Indole-3-Glycerol Phosphate

$$$$
