545
 OpenBabel10282417072D

 26 26  0  0  0  0  0  0  0  0999 V2000
    3.0791    0.2063    0.0000 O   0  0  0  0  0  0  0  0  0  0  0  0
    3.7935    1.4438    0.0000 O   0  0  0  0  0  0  0  0  0  0  0  0
    4.5080   -1.4438    0.0000 N   0  3  0  0  0  0  0  0  0  0  0  0
    2.3645    1.4438    0.0000 N   0  0  0  0  0  0  0  0  0  0  0  0
    3.7935   -0.2063    0.0000 C   0  0  0  0  0  0  0  0  0  0  0  0
    3.7935   -1.0313    0.0000 C   0  0  0  0  0  0  0  0  0  0  0  0
    5.2224   -1.0313    0.0000 C   0  0  0  0  0  0  0  0  0  0  0  0
    4.5080    0.2063    0.0000 C   0  0  0  0  0  0  0  0  0  0  0  0
    5.2224   -0.2063    0.0000 C   0  0  0  0  0  0  0  0  0  0  0  0
    4.5080   -2.2688    0.0000 C   0  0  0  0  0  0  0  0  0  0  0  0
    3.0791    1.0313    0.0000 C   0  0  0  0  0  0  0  0  0  0  0  0
    2.3645    2.2688    0.0000 C   0  0  0  0  0  0  0  0  0  0  0  0
    1.6500    1.0313    0.0000 C   0  0  0  0  0  0  0  0  0  0  0  0
    2.8998   -1.5473    0.0000 H   0  0  0  0  0  0  0  0  0  0  0  0
    6.1161   -1.5473    0.0000 H   0  0  0  0  0  0  0  0  0  0  0  0
    4.5080    1.2383    0.0000 H   0  0  0  0  0  0  0  0  0  0  0  0
    6.1162    0.3096    0.0000 H   0  0  0  0  0  0  0  0  0  0  0  0
    3.5814   -2.8038    0.0000 H   0  0  0  0  0  0  0  0  0  0  0  0
    5.4346   -2.8038    0.0000 H   0  0  0  0  0  0  0  0  0  0  0  0
    4.5080   -3.3388    0.0000 H   0  0  0  0  0  0  0  0  0  0  0  0
    3.2911    2.8038    0.0000 H   0  0  0  0  0  0  0  0  0  0  0  0
    1.4379    2.8038    0.0000 H   0  0  0  0  0  0  0  0  0  0  0  0
    2.3645    3.3388    0.0000 H   0  0  0  0  0  0  0  0  0  0  0  0
    0.7234    1.5663    0.0000 H   0  0  0  0  0  0  0  0  0  0  0  0
    1.6500   -0.0387    0.0000 H   0  0  0  0  0  0  0  0  0  0  0  0
    0.7233    0.4963    0.0000 H   0  0  0  0  0  0  0  0  0  0  0  0
  1  5  1  0  0  0  0
  1 11  1  0  0  0  0
  2 11  2  0  0  0  0
  3  6  1  0  0  0  0
  3  7  2  0  0  0  0
  3 10  1  0  0  0  0
  4 11  1  0  0  0  0
  4 12  1  0  0  0  0
  4 13  1  0  0  0  0
  5  6  2  0  0  0  0
  5  8  1  0  0  0  0
  6 14  1  0  0  0  0
  7  9  1  0  0  0  0
  7 15  1  0  0  0  0
  8  9  2  0  0  0  0
  8 16  1  0  0  0  0
  9 17  1  0  0  0  0
 10 18  1  0  0  0  0
 10 19  1  0  0  0  0
 10 20  1  0  0  0  0
 12 21  1  0  0  0  0
 12 22  1  0  0  0  0
 12 23  1  0  0  0  0
 13 24  1  0  0  0  0
 13 25  1  0  0  0  0
 13 26  1  0  0  0  0
M  CHG  1   3   1
M  END
>  <DRUGBANK_ID>
DB00545

>  <SECONDARY_ACCESSION_NUMBERS>
APRD00380

>  <COMMON_NAME>
Pyridostigmine

>  <CAS_NUMBER>
155-97-5

>  <UNII>
19QM69HH21

>  <SYNONYMS>
Piridostigmina; Pyridostigmine cation

$$$$
