
 OpenBabel10282417072D

 17 17  0  0  0  0  0  0  0  0999 V2000
   26.5035  -17.9954    0.0000 C   0  0  0  0  0  0  0  0  0  0  0  0
   26.5035  -18.8204    0.0000 C   0  0  0  0  0  0  0  0  0  0  0  0
   27.2180  -19.2329    0.0000 N   0  3  0  0  0  0  0  0  0  0  0  0
   27.9325  -18.8204    0.0000 C   0  0  0  0  0  0  0  0  0  0  0  0
   27.9325  -17.9954    0.0000 C   0  0  0  0  0  0  0  0  0  0  0  0
   27.2180  -17.5829    0.0000 N   0  0  0  0  0  0  0  0  0  0  0  0
   28.6580  -19.2394    0.0000 C   0  0  0  0  0  0  0  0  0  0  0  0
   25.7890  -17.5829    0.0000 C   0  0  0  0  0  0  0  0  0  0  0  0
   25.0845  -17.9897    0.0000 O   0  0  0  0  0  0  0  0  0  0  0  0
   25.7890  -16.7580    0.0000 O   0  0  0  0  0  0  0  0  0  0  0  0
   27.2180  -20.0578    0.0000 O   0  5  0  0  0  0  0  0  0  0  0  0
   25.6098  -19.3364    0.0000 H   0  0  0  0  0  0  0  0  0  0  0  0
   28.8262  -17.4794    0.0000 H   0  0  0  0  0  0  0  0  0  0  0  0
   28.6579  -20.3094    0.0000 H   0  0  0  0  0  0  0  0  0  0  0  0
   29.5847  -18.7045    0.0000 H   0  0  0  0  0  0  0  0  0  0  0  0
   29.5846  -19.7745    0.0000 H   0  0  0  0  0  0  0  0  0  0  0  0
   24.2730  -17.5212    0.0000 H   0  0  0  0  0  0  0  0  0  0  0  0
  1  2  2  0  0  0  0
  1  6  1  0  0  0  0
  1  8  1  0  0  0  0
  2  3  1  0  0  0  0
  2 12  1  0  0  0  0
  3  4  2  0  0  0  0
  3 11  1  0  0  0  0
  4  5  1  0  0  0  0
  4  7  1  0  0  0  0
  5  6  2  0  0  0  0
  5 13  1  0  0  0  0
  7 14  1  0  0  0  0
  7 15  1  0  0  0  0
  7 16  1  0  0  0  0
  8  9  1  0  0  0  0
  8 10  2  0  0  0  0
  9 17  1  0  0  0  0
M  CHG  2   3   1  11  -1
M  END
>  <DRUGBANK_ID>
DB09055

>  <COMMON_NAME>
Acipimox

>  <CAS_NUMBER>
51037-30-0

>  <UNII>
K9AY9IR2SD

>  <SYNONYMS>
Acipimox

$$$$
