
 OpenBabel10282417072D

 15 14  0  0  0  0  0  0  0  0999 V2000
    1.0447    0.6679    0.0000 O   0  0  0  0  0  0  0  0  0  0  0  0
    1.7529   -0.6679    0.0000 O   0  0  0  0  0  0  0  0  0  0  0  0
   -1.7529   -0.2506    0.0000 O   0  0  0  0  0  0  0  0  0  0  0  0
    1.0447   -0.2506    0.0000 C   0  0  0  0  0  0  0  0  0  0  0  0
    0.3330   -0.6679    0.0000 C   0  0  0  0  0  0  0  0  0  0  0  0
   -0.3751   -0.2506    0.0000 C   0  0  0  0  0  0  0  0  0  0  0  0
   -1.0868   -0.6679    0.0000 C   0  0  0  0  0  0  0  0  0  0  0  0
    1.7446   -1.6049    0.0000 H   0  0  0  0  0  0  0  0  0  0  0  0
   -1.7179    0.7188    0.0000 H   0  0  0  0  0  0  0  0  0  0  0  0
    0.3318   -1.7379    0.0000 H   0  0  0  0  0  0  0  0  0  0  0  0
   -0.5963   -1.1982    0.0000 H   0  0  0  0  0  0  0  0  0  0  0  0
   -0.3739    0.8194    0.0000 H   0  0  0  0  0  0  0  0  0  0  0  0
   -1.3032    0.2818    0.0000 H   0  0  0  0  0  0  0  0  0  0  0  0
   -1.1025   -1.7378    0.0000 H   0  0  0  0  0  0  0  0  0  0  0  0
   -0.1623   -1.2066    0.0000 H   0  0  0  0  0  0  0  0  0  0  0  0
  1  4  2  0  0  0  0
  2  4  1  0  0  0  0
  2  8  1  0  0  0  0
  3  7  1  0  0  0  0
  3  9  1  0  0  0  0
  4  5  1  0  0  0  0
  5  6  1  0  0  0  0
  5 10  1  0  0  0  0
  5 11  1  0  0  0  0
  6  7  1  0  0  0  0
  6 12  1  0  0  0  0
  6 13  1  0  0  0  0
  7 14  1  0  0  0  0
  7 15  1  0  0  0  0
M  END
>  <DRUGBANK_ID>
DB01440

>  <COMMON_NAME>
gamma-Hydroxybutyric acid

>  <CAS_NUMBER>
591-81-1

>  <UNII>
30IW36W5B2

>  <SYNONYMS>
3-carboxypropoxy acid; 4-hydroxy-butyric acid; 4-hydroxybutanoate; 4-hydroxybutanoic acid; 4-Hydroxybutyric acid; gamma-Hydroxybutyrate; GHB; oxy-n-butyric acid; Oxybate; Î³-Hydroxybutyric acid

$$$$
