
 OpenBabel10282417072D

 25 26  0  0  0  0  0  0  0  0999 V2000
   -1.1411   -1.4290    0.0000 O   0  0  0  0  0  0  0  0  0  0  0  0
   -0.7286   -0.7145    0.0000 C   0  0  0  0  0  0  0  0  0  0  0  0
   -1.1411    0.0000    0.0000 C   0  0  0  0  0  0  0  0  0  0  0  0
   -0.7286    0.7145    0.0000 C   0  0  0  0  0  0  0  0  0  0  0  0
   -1.1411    1.4290    0.0000 C   0  0  0  0  0  0  0  0  0  0  0  0
    0.0965    0.7145    0.0000 C   0  0  1  0  0  0  0  0  0  0  0  0
   -0.3159    0.0000    0.0000 C   0  0  0  0  0  0  0  0  0  0  0  0
    0.0965   -0.7145    0.0000 C   0  0  2  0  0  0  0  0  0  0  0  0
    0.5090    0.0000    0.0000 C   0  0  0  0  0  0  0  0  0  0  0  0
    1.1411   -0.5302    0.0000 C   0  0  0  0  0  0  0  0  0  0  0  0
    1.1411    0.5302    0.0000 C   0  0  0  0  0  0  0  0  0  0  0  0
   -2.1731    0.0000    0.0000 H   0  0  0  0  0  0  0  0  0  0  0  0
   -0.6061    2.3556    0.0000 H   0  0  0  0  0  0  0  0  0  0  0  0
   -2.2111    1.4290    0.0000 H   0  0  0  0  0  0  0  0  0  0  0  0
   -1.6761    2.3557    0.0000 H   0  0  0  0  0  0  0  0  0  0  0  0
   -0.8301    0.1794    0.0000 H   0  0  0  0  0  0  0  0  0  0  0  0
   -1.3859    0.0000    0.0000 H   0  0  0  0  0  0  0  0  0  0  0  0
   -0.8510   -0.9266    0.0000 H   0  0  0  0  0  0  0  0  0  0  0  0
   -0.8301   -0.1794    0.0000 H   0  0  0  0  0  0  0  0  0  0  0  0
    0.9555   -1.5840    0.0000 H   0  0  0  0  0  0  0  0  0  0  0  0
    2.1465   -0.1641    0.0000 H   0  0  0  0  0  0  0  0  0  0  0  0
    1.9609   -1.2178    0.0000 H   0  0  0  0  0  0  0  0  0  0  0  0
    2.1465    0.1641    0.0000 H   0  0  0  0  0  0  0  0  0  0  0  0
    0.9555    1.5840    0.0000 H   0  0  0  0  0  0  0  0  0  0  0  0
    1.9609    1.2178    0.0000 H   0  0  0  0  0  0  0  0  0  0  0  0
  2  1  2  0  0  0  0
  3  2  1  0  0  0  0
  3  4  2  0  0  0  0
  3 12  1  0  0  0  0
  4  6  1  0  0  0  0
  5  4  1  0  0  0  0
  5 13  1  0  0  0  0
  5 14  1  0  0  0  0
  5 15  1  0  0  0  0
  6  7  1  0  0  0  0
  6  9  1  0  0  0  0
  6 16  1  1  0  0  0
  7 17  1  0  0  0  0
  7 18  1  0  0  0  0
  8  7  1  0  0  0  0
  8  2  1  0  0  0  0
  8  9  1  0  0  0  0
  8 19  1  1  0  0  0
 10  9  1  0  0  0  0
 10 20  1  0  0  0  0
 10 21  1  0  0  0  0
 10 22  1  0  0  0  0
 11  9  1  0  0  0  0
 11 23  1  0  0  0  0
 11 24  1  0  0  0  0
 11 25  1  0  0  0  0
M  END
>  <DRUGBANK_ID>
DB15977

>  <COMMON_NAME>
Verbenone

>  <CAS_NUMBER>
80-57-9

>  <UNII>
IFV46DXC6U

$$$$
