STC
 OpenBabel10282417072D

 27 28  0  0  0  0  0  0  0  0999 V2000
    0.4600    0.5956    0.0000 N   0  0  0  0  0  0  0  0  0  0  0  0
   -0.2545    1.0081    0.0000 C   0  0  0  0  0  0  0  0  0  0  0  0
   -0.9690    0.5956    0.0000 C   0  0  0  0  0  0  0  0  0  0  0  0
   -0.2545    1.8331    0.0000 C   0  0  0  0  0  0  0  0  0  0  0  0
   -1.6835    1.0081    0.0000 C   0  0  0  0  0  0  0  0  0  0  0  0
   -0.9690    2.2456    0.0000 C   0  0  0  0  0  0  0  0  0  0  0  0
   -1.6835    1.8331    0.0000 C   0  0  0  0  0  0  0  0  0  0  0  0
   -2.3979    2.2456    0.0000 Cl  0  0  0  0  0  0  0  0  0  0  0  0
    0.4600   -0.2294    0.0000 S   0  0  0  0  0  0  0  0  0  0  0  0
    0.4600   -1.0544    0.0000 C   0  0  0  0  0  0  0  0  0  0  0  0
   -0.3650   -0.2294    0.0000 O   0  0  0  0  0  0  0  0  0  0  0  0
    1.2850   -0.2294    0.0000 O   0  0  0  0  0  0  0  0  0  0  0  0
    1.1274   -1.5393    0.0000 C   0  0  0  0  0  0  0  0  0  0  0  0
   -0.2075   -1.5393    0.0000 C   0  0  0  0  0  0  0  0  0  0  0  0
    0.8725   -2.3240    0.0000 S   0  0  0  0  0  0  0  0  0  0  0  0
    1.9120   -1.2844    0.0000 C   0  0  0  0  0  0  0  0  0  0  0  0
    0.0475   -2.3240    0.0000 C   0  0  0  0  0  0  0  0  0  0  0  0
    2.0835   -0.4774    0.0000 O   0  0  0  0  0  0  0  0  0  0  0  0
    2.5251   -1.8364    0.0000 O   0  0  0  0  0  0  0  0  0  0  0  0
    1.3126    1.0879    0.0000 H   0  0  0  0  0  0  0  0  0  0  0  0
   -0.9690   -0.4364    0.0000 H   0  0  0  0  0  0  0  0  0  0  0  0
    0.6392    2.3491    0.0000 H   0  0  0  0  0  0  0  0  0  0  0  0
   -2.5772    0.4921    0.0000 H   0  0  0  0  0  0  0  0  0  0  0  0
   -0.9690    3.2776    0.0000 H   0  0  0  0  0  0  0  0  0  0  0  0
   -1.1890   -1.2204    0.0000 H   0  0  0  0  0  0  0  0  0  0  0  0
   -0.5591   -3.1589    0.0000 H   0  0  0  0  0  0  0  0  0  0  0  0
    2.9746   -0.1878    0.0000 H   0  0  0  0  0  0  0  0  0  0  0  0
  1  2  1  0  0  0  0
  1  9  1  0  0  0  0
  1 20  1  0  0  0  0
  2  3  2  0  0  0  0
  2  4  1  0  0  0  0
  3  5  1  0  0  0  0
  3 21  1  0  0  0  0
  4  6  2  0  0  0  0
  4 22  1  0  0  0  0
  5  7  2  0  0  0  0
  5 23  1  0  0  0  0
  6  7  1  0  0  0  0
  6 24  1  0  0  0  0
  7  8  1  0  0  0  0
  9 10  1  0  0  0  0
  9 11  2  0  0  0  0
  9 12  2  0  0  0  0
 10 13  2  0  0  0  0
 10 14  1  0  0  0  0
 13 15  1  0  0  0  0
 13 16  1  0  0  0  0
 14 17  2  0  0  0  0
 14 25  1  0  0  0  0
 15 17  1  0  0  0  0
 16 18  1  0  0  0  0
 16 19  2  0  0  0  0
 17 26  1  0  0  0  0
 18 27  1  0  0  0  0
M  END
>  <DRUGBANK_ID>
DB08573

>  <COMMON_NAME>
3-[(4-CHLOROANILINO)SULFONYL]THIOPHENE-2-CARBOXYLIC ACID

>  <UNII>
YPG9JNK4RX

$$$$
