322
 OpenBabel10282417072D

 37 38  0  0  0  0  0  0  0  0999 V2000
   -3.1138   -2.7792    0.0000 C   0  0  0  0  0  0  0  0  0  0  0  0
   -0.9834   -2.1980    0.0000 C   0  0  0  0  0  0  0  0  0  0  0  0
   -2.2934   -2.8654    0.0000 C   0  0  0  0  0  0  0  0  0  0  0  0
    0.0330   -0.1034    0.0000 C   0  0  0  0  0  0  0  0  0  0  0  0
   -0.6815    0.3091    0.0000 C   0  0  0  0  0  0  0  0  0  0  0  0
   -1.3959   -0.1034    0.0000 C   0  0  0  0  0  0  0  0  0  0  0  0
    0.7475    0.3091    0.0000 C   0  0  0  0  0  0  0  0  0  0  0  0
    2.1764    0.3091    0.0000 C   0  0  0  0  0  0  0  0  0  0  0  0
    2.8909   -0.1034    0.0000 C   0  0  0  0  0  0  0  0  0  0  0  0
   -1.3959   -0.9284    0.0000 C   0  0  1  0  0  0  0  0  0  0  0  0
   -1.3959    1.5466    0.0000 Br  0  0  0  0  0  0  0  0  0  0  0  0
    0.0330    2.3716    0.0000 Br  0  0  0  0  0  0  0  0  0  0  0  0
   -1.8084   -2.1980    0.0000 N   0  0  0  0  0  0  0  0  0  0  0  0
   -0.7285   -1.4133    0.0000 S   0  0  0  0  0  0  0  0  0  0  0  0
    1.4619   -0.1034    0.0000 O   0  0  0  0  0  0  0  0  0  0  0  0
   -2.0634   -1.4133    0.0000 C   0  0  0  0  0  0  0  0  0  0  0  0
   -0.6815    1.1341    0.0000 C   0  0  0  0  0  0  0  0  0  0  0  0
    0.0330    1.5466    0.0000 C   0  0  0  0  0  0  0  0  0  0  0  0
    0.7475    1.1341    0.0000 C   0  0  0  0  0  0  0  0  0  0  0  0
   -3.5988   -3.4466    0.0000 O   0  0  0  0  0  0  0  0  0  0  0  0
   -0.4985   -2.8654    0.0000 S   0  0  0  0  0  0  0  0  0  0  0  0
   -3.4494   -2.0255    0.0000 O   0  0  0  0  0  0  0  0  0  0  0  0
   -2.8480   -1.1584    0.0000 O   0  0  0  0  0  0  0  0  0  0  0  0
    1.4619    1.5466    0.0000 O   0  0  0  0  0  0  0  0  0  0  0  0
   -1.9162   -0.6633    0.0000 H   0  0  0  0  0  0  0  0  0  0  0  0
   -1.8582   -3.8429    0.0000 H   0  0  0  0  0  0  0  0  0  0  0  0
   -1.2293   -2.9773    0.0000 H   0  0  0  0  0  0  0  0  0  0  0  0
    0.0330   -1.1354    0.0000 H   0  0  0  0  0  0  0  0  0  0  0  0
   -2.3226    0.4316    0.0000 H   0  0  0  0  0  0  0  0  0  0  0  0
   -2.3225   -0.6384    0.0000 H   0  0  0  0  0  0  0  0  0  0  0  0
    2.1764    1.3791    0.0000 H   0  0  0  0  0  0  0  0  0  0  0  0
    3.1030    0.8441    0.0000 H   0  0  0  0  0  0  0  0  0  0  0  0
    2.8909   -1.1734    0.0000 H   0  0  0  0  0  0  0  0  0  0  0  0
    3.8175    0.4316    0.0000 H   0  0  0  0  0  0  0  0  0  0  0  0
    3.8176   -0.6384    0.0000 H   0  0  0  0  0  0  0  0  0  0  0  0
   -2.8987   -1.2674    0.0000 H   0  0  0  0  0  0  0  0  0  0  0  0
    2.2734    1.0781    0.0000 H   0  0  0  0  0  0  0  0  0  0  0  0
  1 22  1  0  0  0  0
  2 13  1  0  0  0  0
  3  1  1  0  0  0  0
  3 26  1  0  0  0  0
  3 27  1  0  0  0  0
  4  5  1  0  0  0  0
  4 28  1  0  0  0  0
  5  6  1  0  0  0  0
  5 17  2  0  0  0  0
  6 29  1  0  0  0  0
  6 30  1  0  0  0  0
  7  4  2  0  0  0  0
  7 19  1  0  0  0  0
  8 15  1  0  0  0  0
  8 31  1  0  0  0  0
  8 32  1  0  0  0  0
  9  8  1  0  0  0  0
  9 33  1  0  0  0  0
  9 34  1  0  0  0  0
  9 35  1  0  0  0  0
 10  6  1  0  0  0  0
 10 16  1  0  0  0  0
 10 25  1  6  0  0  0
 13  3  1  0  0  0  0
 13 16  1  0  0  0  0
 14  2  1  0  0  0  0
 14 10  1  0  0  0  0
 15  7  1  0  0  0  0
 16 23  2  0  0  0  0
 17 11  1  0  0  0  0
 18 12  1  0  0  0  0
 18 17  1  0  0  0  0
 19 18  2  0  0  0  0
 20  1  2  0  0  0  0
 21  2  2  0  0  0  0
 22 36  1  0  0  0  0
 24 19  1  0  0  0  0
 24 37  1  0  0  0  0
M  END
>  <DRUGBANK_ID>
DB06998

>  <COMMON_NAME>
[(5R)-5-(2,3-dibromo-5-ethoxy-4-hydroxybenzyl)-4-oxo-2-thioxo-1,3-thiazolidin-3-yl]acetic acid

$$$$
