4PN
 OpenBabel10282417072D

 32 33  0  0  0  0  0  0  0  0999 V2000
    1.0134    0.2130    0.0000 C   0  0  0  0  0  0  0  0  0  0  0  0
    1.7277   -0.1995    0.0000 C   0  0  0  0  0  0  0  0  0  0  0  0
    1.7277   -1.0245    0.0000 C   0  0  0  0  0  0  0  0  0  0  0  0
    1.0134   -1.4369    0.0000 C   0  0  0  0  0  0  0  0  0  0  0  0
    0.2989   -1.0245    0.0000 C   0  0  0  0  0  0  0  0  0  0  0  0
    0.2989   -0.1995    0.0000 N   0  0  0  0  0  0  0  0  0  0  0  0
   -0.4155    0.2130    0.0000 C   0  0  0  0  0  0  0  0  0  0  0  0
   -1.1301   -0.1995    0.0000 C   0  0  0  0  0  0  0  0  0  0  0  0
   -1.8444    0.2130    0.0000 C   0  0  0  0  0  0  0  0  0  0  0  0
   -1.8444    1.0380    0.0000 N   0  0  0  0  0  0  0  0  0  0  0  0
   -1.1301    1.4504    0.0000 C   0  0  0  0  0  0  0  0  0  0  0  0
   -0.4155    1.0380    0.0000 C   0  0  0  0  0  0  0  0  0  0  0  0
    1.0135    1.2830    0.0000 H   0  0  0  0  0  0  0  0  0  0  0  0
    0.0868    0.7480    0.0000 H   0  0  0  0  0  0  0  0  0  0  0  0
    2.6544    0.3355    0.0000 H   0  0  0  0  0  0  0  0  0  0  0  0
    2.6543   -0.7345    0.0000 H   0  0  0  0  0  0  0  0  0  0  0  0
    2.6543   -1.5595    0.0000 H   0  0  0  0  0  0  0  0  0  0  0  0
    1.7277   -2.0945    0.0000 H   0  0  0  0  0  0  0  0  0  0  0  0
    1.0135   -2.5069    0.0000 H   0  0  0  0  0  0  0  0  0  0  0  0
    0.0868   -1.9720    0.0000 H   0  0  0  0  0  0  0  0  0  0  0  0
   -0.6277   -1.5596    0.0000 H   0  0  0  0  0  0  0  0  0  0  0  0
   -0.6278   -0.4895    0.0000 H   0  0  0  0  0  0  0  0  0  0  0  0
   -1.3421    0.7480    0.0000 H   0  0  0  0  0  0  0  0  0  0  0  0
   -1.1302   -1.2695    0.0000 H   0  0  0  0  0  0  0  0  0  0  0  0
   -2.0568   -0.7344    0.0000 H   0  0  0  0  0  0  0  0  0  0  0  0
   -2.7711   -0.3220    0.0000 H   0  0  0  0  0  0  0  0  0  0  0  0
   -2.7710    0.7480    0.0000 H   0  0  0  0  0  0  0  0  0  0  0  0
   -2.7277    1.5480    0.0000 H   0  0  0  0  0  0  0  0  0  0  0  0
   -1.1302    2.5204    0.0000 H   0  0  0  0  0  0  0  0  0  0  0  0
   -0.2035    1.9855    0.0000 H   0  0  0  0  0  0  0  0  0  0  0  0
    0.5111    1.5731    0.0000 H   0  0  0  0  0  0  0  0  0  0  0  0
   -0.4156    2.1080    0.0000 H   0  0  0  0  0  0  0  0  0  0  0  0
  1  2  1  0  0  0  0
  1  6  1  0  0  0  0
  1 13  1  0  0  0  0
  1 14  1  0  0  0  0
  2  3  1  0  0  0  0
  2 15  1  0  0  0  0
  2 16  1  0  0  0  0
  3  4  1  0  0  0  0
  3 17  1  0  0  0  0
  3 18  1  0  0  0  0
  4  5  1  0  0  0  0
  4 19  1  0  0  0  0
  4 20  1  0  0  0  0
  5  6  1  0  0  0  0
  5 21  1  0  0  0  0
  5 22  1  0  0  0  0
  6  7  1  0  0  0  0
  7  8  1  0  0  0  0
  7 12  1  0  0  0  0
  7 23  1  0  0  0  0
  8  9  1  0  0  0  0
  8 24  1  0  0  0  0
  8 25  1  0  0  0  0
  9 10  1  0  0  0  0
  9 26  1  0  0  0  0
  9 27  1  0  0  0  0
 10 11  1  0  0  0  0
 10 28  1  0  0  0  0
 11 12  1  0  0  0  0
 11 29  1  0  0  0  0
 11 30  1  0  0  0  0
 12 31  1  0  0  0  0
 12 32  1  0  0  0  0
M  END
>  <DRUGBANK_ID>
DB03056

>  <SECONDARY_ACCESSION_NUMBERS>
EXPT00227

>  <COMMON_NAME>
4-Piperidino-Piperidine

>  <UNII>
WBP6BM27HP

$$$$
