800
 OpenBabel10282417072D

 37 39  0  0  1  0  0  0  0  0999 V2000
    1.6500    0.3114    0.0000 Cl  0  0  0  0  0  0  0  0  0  0  0  0
    3.2859   -2.1079    0.0000 O   0  0  0  0  0  0  0  0  0  0  0  0
    1.7633   -1.3747    0.0000 O   0  0  0  0  0  0  0  0  0  0  0  0
    7.1733   -1.6396    0.0000 O   0  0  0  0  0  0  0  0  0  0  0  0
    4.2624    1.8673    0.0000 N   0  0  0  0  0  0  0  0  0  0  0  0
    4.5932    0.4179    0.0000 C   0  0  3  0  0  0  0  0  0  0  0  0
    3.8499    0.0600    0.0000 C   0  0  0  0  0  0  0  0  0  0  0  0
    4.7768    1.2223    0.0000 C   0  0  0  0  0  0  0  0  0  0  0  0
    3.1066    0.4179    0.0000 C   0  0  0  0  0  0  0  0  0  0  0  0
    2.9230    1.2223    0.0000 C   0  0  0  0  0  0  0  0  0  0  0  0
    3.4373    1.8673    0.0000 C   0  0  0  0  0  0  0  0  0  0  0  0
    5.2382   -0.0965    0.0000 C   0  0  0  0  0  0  0  0  0  0  0  0
    3.9273   -0.7959    0.0000 C   0  0  0  0  0  0  0  0  0  0  0  0
    2.3892   -0.0552    0.0000 C   0  0  0  0  0  0  0  0  0  0  0  0
    3.2210   -1.2855    0.0000 C   0  0  0  0  0  0  0  0  0  0  0  0
    6.0062    0.2049    0.0000 C   0  0  0  0  0  0  0  0  0  0  0  0
    5.1153   -0.9123    0.0000 C   0  0  0  0  0  0  0  0  0  0  0  0
    2.4467   -0.9126    0.0000 C   0  0  0  0  0  0  0  0  0  0  0  0
    6.6512   -0.3095    0.0000 C   0  0  0  0  0  0  0  0  0  0  0  0
    5.7603   -1.4267    0.0000 C   0  0  0  0  0  0  0  0  0  0  0  0
    6.5283   -1.1252    0.0000 C   0  0  0  0  0  0  0  0  0  0  0  0
    2.5138   -2.6388    0.0000 H   0  0  0  0  0  0  0  0  0  0  0  0
    0.9207   -0.9649    0.0000 H   0  0  0  0  0  0  0  0  0  0  0  0
    7.0336   -2.5661    0.0000 H   0  0  0  0  0  0  0  0  0  0  0  0
    4.7049    2.7863    0.0000 H   0  0  0  0  0  0  0  0  0  0  0  0
    3.7567    1.0851    0.0000 H   0  0  0  0  0  0  0  0  0  0  0  0
    5.8200    1.4604    0.0000 H   0  0  0  0  0  0  0  0  0  0  0  0
    5.5334    0.4657    0.0000 H   0  0  0  0  0  0  0  0  0  0  0  0
    1.8798    1.4604    0.0000 H   0  0  0  0  0  0  0  0  0  0  0  0
    2.5696    2.2322    0.0000 H   0  0  0  0  0  0  0  0  0  0  0  0
    2.9730    2.8313    0.0000 H   0  0  0  0  0  0  0  0  0  0  0  0
    2.3740    1.9870    0.0000 H   0  0  0  0  0  0  0  0  0  0  0  0
    4.8622   -1.2329    0.0000 H   0  0  0  0  0  0  0  0  0  0  0  0
    6.1600    1.2254    0.0000 H   0  0  0  0  0  0  0  0  0  0  0  0
    4.1546   -1.2894    0.0000 H   0  0  0  0  0  0  0  0  0  0  0  0
    7.6119    0.0675    0.0000 H   0  0  0  0  0  0  0  0  0  0  0  0
    5.6065   -2.4472    0.0000 H   0  0  0  0  0  0  0  0  0  0  0  0
  1 14  1  0  0  0  0
  2 15  1  0  0  0  0
  2 22  1  0  0  0  0
  3 18  1  0  0  0  0
  3 23  1  0  0  0  0
  4 21  1  0  0  0  0
  4 24  1  0  0  0  0
  5  8  1  0  0  0  0
  5 11  1  0  0  0  0
  5 25  1  0  0  0  0
  6  7  1  0  0  0  0
  6  8  1  0  0  0  0
  6 12  1  0  0  0  0
  6 26  1  0  0  0  0
  7  9  1  0  0  0  0
  7 13  2  0  0  0  0
  8 27  1  0  0  0  0
  8 28  1  0  0  0  0
  9 10  1  0  0  0  0
  9 14  2  0  0  0  0
 10 11  1  0  0  0  0
 10 29  1  0  0  0  0
 10 30  1  0  0  0  0
 11 31  1  0  0  0  0
 11 32  1  0  0  0  0
 12 16  2  0  0  0  0
 12 17  1  0  0  0  0
 13 15  1  0  0  0  0
 13 33  1  0  0  0  0
 14 18  1  0  0  0  0
 15 18  2  0  0  0  0
 16 19  1  0  0  0  0
 16 34  1  0  0  0  0
 17 20  2  0  0  0  0
 17 35  1  0  0  0  0
 19 21  2  0  0  0  0
 19 36  1  0  0  0  0
 20 21  1  0  0  0  0
 20 37  1  0  0  0  0
M  END
>  <DRUGBANK_ID>
DB00800

>  <SECONDARY_ACCESSION_NUMBERS>
APRD00969

>  <COMMON_NAME>
Fenoldopam

>  <CAS_NUMBER>
67227-56-9

>  <UNII>
INU8H2KAWG

>  <SYNONYMS>
FÃ©noldopam; Fenoldopam; Fenoldopamum

$$$$
