679
 OpenBabel10282417072D

 51 54  0  0  1  0  0  0  0  0999 V2000
    3.8495   -2.6670    0.0000 S   0  0  0  0  0  0  0  0  0  0  0  0
    6.7619   -0.9970    0.0000 S   0  0  0  0  0  0  0  0  0  0  0  0
    2.4206    1.4580    0.0000 N   0  0  0  0  0  0  0  0  0  0  0  0
    3.8495   -1.0170    0.0000 N   0  0  0  0  0  0  0  0  0  0  0  0
    3.1350    1.0455    0.0000 C   0  0  3  0  0  0  0  0  0  0  0  0
    3.8495    1.4580    0.0000 C   0  0  0  0  0  0  0  0  0  0  0  0
    3.1350    0.2205    0.0000 C   0  0  0  0  0  0  0  0  0  0  0  0
    3.8495    2.2830    0.0000 C   0  0  0  0  0  0  0  0  0  0  0  0
    2.4206    2.2830    0.0000 C   0  0  0  0  0  0  0  0  0  0  0  0
    3.1350    2.6955    0.0000 C   0  0  0  0  0  0  0  0  0  0  0  0
    3.8495   -0.1920    0.0000 C   0  0  0  0  0  0  0  0  0  0  0  0
    1.7061    1.0455    0.0000 C   0  0  0  0  0  0  0  0  0  0  0  0
    4.5640   -1.4295    0.0000 C   0  0  0  0  0  0  0  0  0  0  0  0
    3.1350   -1.4295    0.0000 C   0  0  0  0  0  0  0  0  0  0  0  0
    4.5640   -2.2545    0.0000 C   0  0  0  0  0  0  0  0  0  0  0  0
    3.1350   -2.2545    0.0000 C   0  0  0  0  0  0  0  0  0  0  0  0
    5.3015   -0.9884    0.0000 C   0  0  0  0  0  0  0  0  0  0  0  0
    2.3975   -0.9884    0.0000 C   0  0  0  0  0  0  0  0  0  0  0  0
    5.3015   -2.6955    0.0000 C   0  0  0  0  0  0  0  0  0  0  0  0
    2.3975   -2.6955    0.0000 C   0  0  0  0  0  0  0  0  0  0  0  0
    6.0490   -1.4123    0.0000 C   0  0  0  0  0  0  0  0  0  0  0  0
    1.6500   -1.4123    0.0000 C   0  0  0  0  0  0  0  0  0  0  0  0
    6.0490   -2.2716    0.0000 C   0  0  0  0  0  0  0  0  0  0  0  0
    1.6500   -2.2716    0.0000 C   0  0  0  0  0  0  0  0  0  0  0  0
    7.4779   -1.4068    0.0000 C   0  0  0  0  0  0  0  0  0  0  0  0
    3.1350    2.1155    0.0000 H   0  0  0  0  0  0  0  0  0  0  0  0
    4.7761    0.9230    0.0000 H   0  0  0  0  0  0  0  0  0  0  0  0
    4.7761    1.9930    0.0000 H   0  0  0  0  0  0  0  0  0  0  0  0
    2.2084   -0.3145    0.0000 H   0  0  0  0  0  0  0  0  0  0  0  0
    3.1350   -0.8495    0.0000 H   0  0  0  0  0  0  0  0  0  0  0  0
    4.7761    2.8180    0.0000 H   0  0  0  0  0  0  0  0  0  0  0  0
    3.8495    3.3530    0.0000 H   0  0  0  0  0  0  0  0  0  0  0  0
    1.4939    2.8180    0.0000 H   0  0  0  0  0  0  0  0  0  0  0  0
    2.4206    3.3530    0.0000 H   0  0  0  0  0  0  0  0  0  0  0  0
    3.1350    3.7655    0.0000 H   0  0  0  0  0  0  0  0  0  0  0  0
    2.2083    3.2305    0.0000 H   0  0  0  0  0  0  0  0  0  0  0  0
    4.7761    0.3430    0.0000 H   0  0  0  0  0  0  0  0  0  0  0  0
    3.8495    0.8780    0.0000 H   0  0  0  0  0  0  0  0  0  0  0  0
    0.7795    1.5805    0.0000 H   0  0  0  0  0  0  0  0  0  0  0  0
    1.7061   -0.0245    0.0000 H   0  0  0  0  0  0  0  0  0  0  0  0
    0.7794    0.5105    0.0000 H   0  0  0  0  0  0  0  0  0  0  0  0
    5.2896    0.0435    0.0000 H   0  0  0  0  0  0  0  0  0  0  0  0
    2.4094    0.0435    0.0000 H   0  0  0  0  0  0  0  0  0  0  0  0
    5.2896   -3.7274    0.0000 H   0  0  0  0  0  0  0  0  0  0  0  0
    2.4094   -3.7274    0.0000 H   0  0  0  0  0  0  0  0  0  0  0  0
    0.7583   -0.8928    0.0000 H   0  0  0  0  0  0  0  0  0  0  0  0
    6.9407   -2.7911    0.0000 H   0  0  0  0  0  0  0  0  0  0  0  0
    0.7583   -2.7911    0.0000 H   0  0  0  0  0  0  0  0  0  0  0  0
    7.4819   -2.4768    0.0000 H   0  0  0  0  0  0  0  0  0  0  0  0
    8.4025   -0.8683    0.0000 H   0  0  0  0  0  0  0  0  0  0  0  0
    8.4066   -1.9383    0.0000 H   0  0  0  0  0  0  0  0  0  0  0  0
  1 15  1  0  0  0  0
  1 16  1  0  0  0  0
  2 21  1  0  0  0  0
  2 25  1  0  0  0  0
  3  5  1  0  0  0  0
  3  9  1  0  0  0  0
  3 12  1  0  0  0  0
  4 11  1  0  0  0  0
  4 13  1  0  0  0  0
  4 14  1  0  0  0  0
  5  6  1  0  0  0  0
  5  7  1  0  0  0  0
  5 26  1  0  0  0  0
  6  8  1  0  0  0  0
  6 27  1  0  0  0  0
  6 28  1  0  0  0  0
  7 11  1  0  0  0  0
  7 29  1  0  0  0  0
  7 30  1  0  0  0  0
  8 10  1  0  0  0  0
  8 31  1  0  0  0  0
  8 32  1  0  0  0  0
  9 10  1  0  0  0  0
  9 33  1  0  0  0  0
  9 34  1  0  0  0  0
 10 35  1  0  0  0  0
 10 36  1  0  0  0  0
 11 37  1  0  0  0  0
 11 38  1  0  0  0  0
 12 39  1  0  0  0  0
 12 40  1  0  0  0  0
 12 41  1  0  0  0  0
 13 15  2  0  0  0  0
 13 17  1  0  0  0  0
 14 16  1  0  0  0  0
 14 18  2  0  0  0  0
 15 19  1  0  0  0  0
 16 20  2  0  0  0  0
 17 21  2  0  0  0  0
 17 42  1  0  0  0  0
 18 22  1  0  0  0  0
 18 43  1  0  0  0  0
 19 23  2  0  0  0  0
 19 44  1  0  0  0  0
 20 24  1  0  0  0  0
 20 45  1  0  0  0  0
 21 23  1  0  0  0  0
 22 24  2  0  0  0  0
 22 46  1  0  0  0  0
 23 47  1  0  0  0  0
 24 48  1  0  0  0  0
 25 49  1  0  0  0  0
 25 50  1  0  0  0  0
 25 51  1  0  0  0  0
M  END
>  <DRUGBANK_ID>
DB00679

>  <SECONDARY_ACCESSION_NUMBERS>
APRD00596

>  <COMMON_NAME>
Thioridazine

>  <CAS_NUMBER>
50-52-2

>  <UNII>
N3D6TG58NI

>  <SYNONYMS>
10-[2-(1-methyl-2-piperidyl)ethyl]-2-methylsulfanyl-phenothiazine; 2-Methylmercapto-10-(2-(N-methyl-2-piperidyl)ethyl)phenothiazine; 3-Methylmercapto-N-(2'-(N-methyl-2-piperidyl)ethyl)phenothiazine; Thioridazin; Thioridazine; Thioridazinum; Tioridazina

$$$$
