PB4
 OpenBabel10282417072D

 50 52  0  0  0  0  0  0  0  0999 V2000
   -0.5473    0.7414    0.0000 C   0  0  0  0  0  0  0  0  0  0  0  0
    0.1672    0.3289    0.0000 C   0  0  0  0  0  0  0  0  0  0  0  0
    0.1672   -0.4961    0.0000 C   0  0  0  0  0  0  0  0  0  0  0  0
    0.1672   -4.6211    0.0000 C   0  0  0  0  0  0  0  0  0  0  0  0
   -2.6907    2.8039    0.0000 C   0  0  0  0  0  0  0  0  0  0  0  0
    0.8817   -0.9086    0.0000 C   0  0  0  0  0  0  0  0  0  0  0  0
    1.5961   -2.1461    0.0000 C   0  0  0  0  0  0  0  0  0  0  0  0
    1.5961   -2.9711    0.0000 C   0  0  0  0  0  0  0  0  0  0  0  0
   -0.5473    1.5664    0.0000 C   0  0  0  0  0  0  0  0  0  0  0  0
    0.1672    2.8039    0.0000 C   0  0  0  0  0  0  0  0  0  0  0  0
   -0.5473    3.2164    0.0000 C   0  0  0  0  0  0  0  0  0  0  0  0
   -1.2617    2.8039    0.0000 C   0  0  0  0  0  0  0  0  0  0  0  0
   -1.9762    4.0414    0.0000 C   0  0  0  0  0  0  0  0  0  0  0  0
    2.3106   -3.3836    0.0000 C   0  0  0  0  0  0  0  0  0  0  0  0
    2.3106   -4.2086    0.0000 C   0  0  0  0  0  0  0  0  0  0  0  0
    1.5961   -4.6211    0.0000 C   0  0  0  0  0  0  0  0  0  0  0  0
    0.8817   -3.3836    0.0000 C   0  0  0  0  0  0  0  0  0  0  0  0
   -0.5473   -0.9086    0.0000 N   0  0  0  0  0  0  0  0  0  0  0  0
   -1.2617   -0.4961    0.0000 C   0  0  0  0  0  0  0  0  0  0  0  0
   -1.2617    0.3289    0.0000 N   0  0  0  0  0  0  0  0  0  0  0  0
    0.8817   -1.7336    0.0000 N   0  0  0  0  0  0  0  0  0  0  0  0
    0.1672    1.9789    0.0000 N   0  0  0  0  0  0  0  0  0  0  0  0
   -1.9762    3.2164    0.0000 C   0  0  0  0  0  0  0  0  0  0  0  0
   -1.2617    4.4539    0.0000 C   0  0  0  0  0  0  0  0  0  0  0  0
   -0.5473    4.0414    0.0000 C   0  0  0  0  0  0  0  0  0  0  0  0
    0.8817   -4.2086    0.0000 C   0  0  0  0  0  0  0  0  0  0  0  0
   -1.2617    1.9789    0.0000 O   0  0  0  0  0  0  0  0  0  0  0  0
    1.5961   -0.4961    0.0000 O   0  0  0  0  0  0  0  0  0  0  0  0
    1.5961   -5.4461    0.0000 F   0  0  0  0  0  0  0  0  0  0  0  0
   -2.6907    4.4539    0.0000 F   0  0  0  0  0  0  0  0  0  0  0  0
    1.0609    0.8449    0.0000 H   0  0  0  0  0  0  0  0  0  0  0  0
   -0.7594   -4.0861    0.0000 H   0  0  0  0  0  0  0  0  0  0  0  0
    0.1672   -5.6911    0.0000 H   0  0  0  0  0  0  0  0  0  0  0  0
   -0.7595   -5.1561    0.0000 H   0  0  0  0  0  0  0  0  0  0  0  0
   -3.6173    3.3389    0.0000 H   0  0  0  0  0  0  0  0  0  0  0  0
   -2.6907    1.7339    0.0000 H   0  0  0  0  0  0  0  0  0  0  0  0
   -3.6174    2.2689    0.0000 H   0  0  0  0  0  0  0  0  0  0  0  0
    2.5228   -1.6111    0.0000 H   0  0  0  0  0  0  0  0  0  0  0  0
    1.5961   -1.0761    0.0000 H   0  0  0  0  0  0  0  0  0  0  0  0
    1.0938    3.3389    0.0000 H   0  0  0  0  0  0  0  0  0  0  0  0
    1.0938    2.2689    0.0000 H   0  0  0  0  0  0  0  0  0  0  0  0
   -1.2617    1.7719    0.0000 H   0  0  0  0  0  0  0  0  0  0  0  0
    3.2043   -2.8676    0.0000 H   0  0  0  0  0  0  0  0  0  0  0  0
    3.2043   -4.7246    0.0000 H   0  0  0  0  0  0  0  0  0  0  0  0
   -0.0120   -2.8676    0.0000 H   0  0  0  0  0  0  0  0  0  0  0  0
   -2.1554   -1.0121    0.0000 H   0  0  0  0  0  0  0  0  0  0  0  0
    0.0291   -2.2258    0.0000 H   0  0  0  0  0  0  0  0  0  0  0  0
    1.0198    1.4866    0.0000 H   0  0  0  0  0  0  0  0  0  0  0  0
   -1.2617    5.4859    0.0000 H   0  0  0  0  0  0  0  0  0  0  0  0
    0.3464    4.5574    0.0000 H   0  0  0  0  0  0  0  0  0  0  0  0
  1  2  1  0  0  0  0
  1  9  1  0  0  0  0
  1 20  2  0  0  0  0
  2  3  2  0  0  0  0
  2 31  1  0  0  0  0
  3  6  1  0  0  0  0
  3 18  1  0  0  0  0
  4 26  1  0  0  0  0
  4 32  1  0  0  0  0
  4 33  1  0  0  0  0
  4 34  1  0  0  0  0
  5 23  1  0  0  0  0
  5 35  1  0  0  0  0
  5 36  1  0  0  0  0
  5 37  1  0  0  0  0
  6 21  1  0  0  0  0
  6 28  2  0  0  0  0
  7  8  1  0  0  0  0
  7 21  1  0  0  0  0
  7 38  1  0  0  0  0
  7 39  1  0  0  0  0
  8 14  1  0  0  0  0
  8 17  2  0  0  0  0
  9 22  1  0  0  0  0
  9 27  2  0  0  0  0
 10 11  1  0  0  0  0
 10 22  1  0  0  0  0
 10 40  1  0  0  0  0
 10 41  1  0  0  0  0
 11 12  2  0  0  0  0
 11 25  1  0  0  0  0
 12 23  1  0  0  0  0
 12 42  1  0  0  0  0
 13 23  2  0  0  0  0
 13 24  1  0  0  0  0
 13 30  1  0  0  0  0
 14 15  2  0  0  0  0
 14 43  1  0  0  0  0
 15 16  1  0  0  0  0
 15 44  1  0  0  0  0
 16 26  2  0  0  0  0
 16 29  1  0  0  0  0
 17 26  1  0  0  0  0
 17 45  1  0  0  0  0
 18 19  2  0  0  0  0
 19 20  1  0  0  0  0
 19 46  1  0  0  0  0
 21 47  1  0  0  0  0
 22 48  1  0  0  0  0
 24 25  2  0  0  0  0
 24 49  1  0  0  0  0
 25 50  1  0  0  0  0
M  END
>  <DRUGBANK_ID>
DB04760

>  <COMMON_NAME>
PYRIMIDINE-4,6-DICARBOXYLIC ACID BIS-(4-FLUORO-3-METHYL-BENZYLAMIDE)

$$$$
