
 OpenBabel10282417072D

 14 15  0  0  0  0  0  0  0  0999 V2000
   -0.6654    1.4935    0.0000 O   0  0  0  0  0  0  0  0  0  0  0  0
    0.8298    0.5072    0.0000 N   0  0  0  0  0  0  0  0  0  0  0  0
   -0.6654   -0.9819    0.0000 N   0  0  0  0  0  0  0  0  0  0  0  0
    0.8298   -0.8207    0.0000 N   0  0  0  0  0  0  0  0  0  0  0  0
   -1.3800    0.2557    0.0000 N   0  0  0  0  0  0  0  0  0  0  0  0
    0.0490    0.2557    0.0000 C   0  0  0  0  0  0  0  0  0  0  0  0
    0.0490   -0.5693    0.0000 C   0  0  0  0  0  0  0  0  0  0  0  0
   -0.6654    0.6683    0.0000 C   0  0  0  0  0  0  0  0  0  0  0  0
    1.3114   -0.1567    0.0000 C   0  0  0  0  0  0  0  0  0  0  0  0
   -1.3800   -0.5693    0.0000 C   0  0  0  0  0  0  0  0  0  0  0  0
    1.1356    1.4430    0.0000 H   0  0  0  0  0  0  0  0  0  0  0  0
   -0.6653   -1.9664    0.0000 H   0  0  0  0  0  0  0  0  0  0  0  0
    2.3434   -0.1567    0.0000 H   0  0  0  0  0  0  0  0  0  0  0  0
   -2.2737   -1.0853    0.0000 H   0  0  0  0  0  0  0  0  0  0  0  0
  1  8  2  0  0  0  0
  2  6  1  0  0  0  0
  2  9  1  0  0  0  0
  2 11  1  0  0  0  0
  3  7  1  0  0  0  0
  3 10  1  0  0  0  0
  3 12  1  0  0  0  0
  4  7  1  0  0  0  0
  4  9  2  0  0  0  0
  5  8  1  0  0  0  0
  5 10  2  0  0  0  0
  6  7  2  0  0  0  0
  6  8  1  0  0  0  0
  9 13  1  0  0  0  0
 10 14  1  0  0  0  0
M  END
>  <DRUGBANK_ID>
DB04076

>  <SECONDARY_ACCESSION_NUMBERS>
EXPT01767

>  <COMMON_NAME>
Hypoxanthine

>  <CAS_NUMBER>
68-94-0

>  <UNII>
2TN51YD919

$$$$
