
 OpenBabel10282417072D

 19 20  0  0  0  0  0  0  0  0999 V2000
   -1.7829    0.4144    0.0000 C   0  0  0  0  0  0  0  0  0  0  0  0
   -1.7829   -0.4130    0.0000 C   0  0  0  0  0  0  0  0  0  0  0  0
   -1.0705   -0.8244    0.0000 C   0  0  0  0  0  0  0  0  0  0  0  0
   -1.0705    0.8304    0.0000 C   0  0  0  0  0  0  0  0  0  0  0  0
   -0.3533    0.4144    0.0000 C   0  0  0  0  0  0  0  0  0  0  0  0
   -0.3568   -0.4130    0.0000 C   0  0  0  0  0  0  0  0  0  0  0  0
    0.3538   -0.8273    0.0000 N   0  3  0  0  0  0  0  0  0  0  0  0
    1.0727   -0.4190    0.0000 C   0  0  0  0  0  0  0  0  0  0  0  0
    1.0762    0.4084    0.0000 N   0  0  0  0  0  0  0  0  0  0  0  0
    0.3608    0.8273    0.0000 N   0  3  0  0  0  0  0  0  0  0  0  0
    1.7829   -0.8343    0.0000 N   0  0  0  0  0  0  0  0  0  0  0  0
    0.3632    1.6500    0.0000 O   0  5  0  0  0  0  0  0  0  0  0  0
    0.3492   -1.6500    0.0000 O   0  5  0  0  0  0  0  0  0  0  0  0
   -2.6779    0.9282    0.0000 H   0  0  0  0  0  0  0  0  0  0  0  0
   -2.6767   -0.9290    0.0000 H   0  0  0  0  0  0  0  0  0  0  0  0
   -1.0709   -1.8564    0.0000 H   0  0  0  0  0  0  0  0  0  0  0  0
   -1.0720    1.8624    0.0000 H   0  0  0  0  0  0  0  0  0  0  0  0
    1.7774   -1.8188    0.0000 H   0  0  0  0  0  0  0  0  0  0  0  0
    2.6382   -0.3468    0.0000 H   0  0  0  0  0  0  0  0  0  0  0  0
  1  4  2  0  0  0  0
  1  2  1  0  0  0  0
  1 14  1  0  0  0  0
  2  3  2  0  0  0  0
  2 15  1  0  0  0  0
  3  6  1  0  0  0  0
  3 16  1  0  0  0  0
  4 17  1  0  0  0  0
  5  4  1  0  0  0  0
  5 10  1  0  0  0  0
  5  6  2  0  0  0  0
  6  7  1  0  0  0  0
  7  8  2  0  0  0  0
  7 13  1  0  0  0  0
  8  9  1  0  0  0  0
  8 11  1  0  0  0  0
  9 10  2  0  0  0  0
 10 12  1  0  0  0  0
 11 18  1  0  0  0  0
 11 19  1  0  0  0  0
M  CHG  4   7   1  10   1  12  -1  13  -1
M  END
>  <DRUGBANK_ID>
DB04858

>  <COMMON_NAME>
Tirapazamine

>  <CAS_NUMBER>
27314-97-2

>  <UNII>
1UD32YR59G

>  <SYNONYMS>
1,2,4-benzotriazin-3-amine, 1,4-dioxide; 3-Amino-1,2,4-benzotriazine 1,4-dioxide; Tirapazamine

$$$$
