KU8
 OpenBabel10282417072D

 49 52  0  0  0  0  0  0  0  0999 V2000
   -1.8729    1.2496    0.0000 C   0  0  0  0  0  0  0  0  0  0  0  0
   -2.6612    1.4927    0.0000 C   0  0  0  0  0  0  0  0  0  0  0  0
   -2.9626    2.2607    0.0000 C   0  0  0  0  0  0  0  0  0  0  0  0
   -2.5501    2.9752    0.0000 N   0  0  0  0  0  0  0  0  0  0  0  0
   -1.7343    3.0981    0.0000 C   0  0  0  0  0  0  0  0  0  0  0  0
   -1.1296    2.5370    0.0000 C   0  0  0  0  0  0  0  0  0  0  0  0
   -1.1912    1.7143    0.0000 N   0  0  0  0  0  0  0  0  0  0  0  0
   -0.4768    1.3018    0.0000 C   0  0  0  0  0  0  0  0  0  0  0  0
    0.2377    1.7143    0.0000 O   0  0  0  0  0  0  0  0  0  0  0  0
   -0.4768    0.4768    0.0000 C   0  0  0  0  0  0  0  0  0  0  0  0
    0.2377    0.0643    0.0000 C   0  0  0  0  0  0  0  0  0  0  0  0
   -1.1912    0.0643    0.0000 C   0  0  0  0  0  0  0  0  0  0  0  0
   -1.9057    0.4768    0.0000 F   0  0  0  0  0  0  0  0  0  0  0  0
   -1.1912   -0.7607    0.0000 C   0  0  0  0  0  0  0  0  0  0  0  0
   -0.4768   -1.1732    0.0000 C   0  0  0  0  0  0  0  0  0  0  0  0
    0.2377   -0.7607    0.0000 C   0  0  0  0  0  0  0  0  0  0  0  0
    0.9522   -1.1732    0.0000 C   0  0  0  0  0  0  0  0  0  0  0  0
    0.9522   -1.9982    0.0000 C   0  0  0  0  0  0  0  0  0  0  0  0
    1.6666   -2.4107    0.0000 C   0  0  0  0  0  0  0  0  0  0  0  0
    2.3811   -1.9982    0.0000 C   0  0  0  0  0  0  0  0  0  0  0  0
    3.0956   -2.4107    0.0000 C   0  0  0  0  0  0  0  0  0  0  0  0
    3.0956   -3.2357    0.0000 C   0  0  0  0  0  0  0  0  0  0  0  0
    2.3811   -3.6482    0.0000 C   0  0  0  0  0  0  0  0  0  0  0  0
    1.6666   -3.2357    0.0000 C   0  0  0  0  0  0  0  0  0  0  0  0
    0.9522   -3.6482    0.0000 C   0  0  0  0  0  0  0  0  0  0  0  0
    0.9522   -4.4732    0.0000 O   0  0  0  0  0  0  0  0  0  0  0  0
    0.2377   -3.2357    0.0000 N   0  0  0  0  0  0  0  0  0  0  0  0
    0.2377   -2.4107    0.0000 N   0  0  0  0  0  0  0  0  0  0  0  0
   -1.7134    0.1916    0.0000 H   0  0  0  0  0  0  0  0  0  0  0  0
   -0.8922    0.8217    0.0000 H   0  0  0  0  0  0  0  0  0  0  0  0
   -3.3890    0.7083    0.0000 H   0  0  0  0  0  0  0  0  0  0  0  0
   -3.7125    1.6916    0.0000 H   0  0  0  0  0  0  0  0  0  0  0  0
   -4.0296    2.3407    0.0000 H   0  0  0  0  0  0  0  0  0  0  0  0
   -3.4626    3.2067    0.0000 H   0  0  0  0  0  0  0  0  0  0  0  0
   -3.1247    3.8180    0.0000 H   0  0  0  0  0  0  0  0  0  0  0  0
   -1.4189    4.1205    0.0000 H   0  0  0  0  0  0  0  0  0  0  0  0
   -0.7008    3.3750    0.0000 H   0  0  0  0  0  0  0  0  0  0  0  0
   -0.1336    2.9279    0.0000 H   0  0  0  0  0  0  0  0  0  0  0  0
   -0.2687    1.9016    0.0000 H   0  0  0  0  0  0  0  0  0  0  0  0
    1.1314    0.5803    0.0000 H   0  0  0  0  0  0  0  0  0  0  0  0
   -2.0849   -1.2767    0.0000 H   0  0  0  0  0  0  0  0  0  0  0  0
   -0.4768   -2.2052    0.0000 H   0  0  0  0  0  0  0  0  0  0  0  0
    1.8788   -0.6382    0.0000 H   0  0  0  0  0  0  0  0  0  0  0  0
    1.8788   -1.7082    0.0000 H   0  0  0  0  0  0  0  0  0  0  0  0
    2.3811   -0.9662    0.0000 H   0  0  0  0  0  0  0  0  0  0  0  0
    3.9893   -1.8947    0.0000 H   0  0  0  0  0  0  0  0  0  0  0  0
    3.9893   -3.7517    0.0000 H   0  0  0  0  0  0  0  0  0  0  0  0
    2.3811   -4.6802    0.0000 H   0  0  0  0  0  0  0  0  0  0  0  0
   -0.6149   -3.7280    0.0000 H   0  0  0  0  0  0  0  0  0  0  0  0
  1  2  1  0  0  0  0
  1  7  1  0  0  0  0
  1 29  1  0  0  0  0
  1 30  1  0  0  0  0
  2  3  1  0  0  0  0
  2 31  1  0  0  0  0
  2 32  1  0  0  0  0
  3  4  1  0  0  0  0
  3 33  1  0  0  0  0
  3 34  1  0  0  0  0
  4  5  1  0  0  0  0
  4 35  1  0  0  0  0
  5  6  1  0  0  0  0
  5 36  1  0  0  0  0
  5 37  1  0  0  0  0
  6  7  1  0  0  0  0
  6 38  1  0  0  0  0
  6 39  1  0  0  0  0
  7  8  1  0  0  0  0
  8  9  2  0  0  0  0
  8 10  1  0  0  0  0
 10 11  2  0  0  0  0
 10 12  1  0  0  0  0
 11 16  1  0  0  0  0
 11 40  1  0  0  0  0
 12 13  1  0  0  0  0
 12 14  2  0  0  0  0
 14 15  1  0  0  0  0
 14 41  1  0  0  0  0
 15 16  2  0  0  0  0
 15 42  1  0  0  0  0
 16 17  1  0  0  0  0
 17 18  1  0  0  0  0
 17 43  1  0  0  0  0
 17 44  1  0  0  0  0
 18 19  1  0  0  0  0
 18 28  2  0  0  0  0
 19 20  2  0  0  0  0
 19 24  1  0  0  0  0
 20 21  1  0  0  0  0
 20 45  1  0  0  0  0
 21 22  2  0  0  0  0
 21 46  1  0  0  0  0
 22 23  1  0  0  0  0
 22 47  1  0  0  0  0
 23 24  2  0  0  0  0
 23 48  1  0  0  0  0
 24 25  1  0  0  0  0
 25 26  2  0  0  0  0
 25 27  1  0  0  0  0
 27 28  1  0  0  0  0
 27 49  1  0  0  0  0
M  END
>  <DRUGBANK_ID>
DB08058

>  <COMMON_NAME>
4-[3-(1,4-diazepan-1-ylcarbonyl)-4-fluorobenzyl]phthalazin-1(2H)-one

$$$$
