
 OpenBabel10282417072D

 38 39  0  0  1  0  0  0  0  0999 V2000
    1.3222    5.5902    0.0000 N   0  0  0  0  0  0  0  0  0  0  0  0
    1.3222    4.7652    0.0000 C   0  0  0  0  0  0  0  0  0  0  0  0
    0.6078    4.3527    0.0000 O   0  0  0  0  0  0  0  0  0  0  0  0
    2.0367    4.3527    0.0000 C   0  0  0  0  0  0  0  0  0  0  0  0
    2.7512    4.7652    0.0000 C   0  0  0  0  0  0  0  0  0  0  0  0
    3.4656    4.3527    0.0000 C   0  0  0  0  0  0  0  0  0  0  0  0
    3.4656    3.5277    0.0000 C   0  0  0  0  0  0  0  0  0  0  0  0
    2.7512    3.1152    0.0000 N   0  3  0  0  0  0  0  0  0  0  0  0
    2.0367    3.5277    0.0000 C   0  0  0  0  0  0  0  0  0  0  0  0
    2.7512    2.2902    0.0000 C   0  0  2  0  0  0  0  0  0  0  0  0
    3.4186    1.8053    0.0000 O   0  0  0  0  0  0  0  0  0  0  0  0
    3.1637    1.0206    0.0000 C   0  0  1  0  0  0  0  0  0  0  0  0
    3.6486    0.3532    0.0000 C   0  0  0  0  0  0  0  0  0  0  0  0
    3.3130   -0.4005    0.0000 O   0  0  0  0  0  0  0  0  0  0  0  0
    3.7980   -1.0679    0.0000 P   0  0  0  0  0  0  0  0  0  0  0  0
    4.2829   -1.7354    0.0000 O   0  0  0  0  0  0  0  0  0  0  0  0
    3.1305   -1.5528    0.0000 O   0  0  0  0  0  0  0  0  0  0  0  0
    4.4654   -0.5830    0.0000 O   0  0  0  0  0  0  0  0  0  0  0  0
    2.3387    1.0206    0.0000 C   0  0  2  0  0  0  0  0  0  0  0  0
    1.8538    0.3532    0.0000 O   0  0  0  0  0  0  0  0  0  0  0  0
    2.0837    1.8053    0.0000 C   0  0  1  0  0  0  0  0  0  0  0  0
    1.2991    2.0602    0.0000 O   0  0  0  0  0  0  0  0  0  0  0  0
    2.1748    6.0825    0.0000 H   0  0  0  0  0  0  0  0  0  0  0  0
    0.4696    6.0824    0.0000 H   0  0  0  0  0  0  0  0  0  0  0  0
    2.7512    5.7972    0.0000 H   0  0  0  0  0  0  0  0  0  0  0  0
    4.3593    4.8687    0.0000 H   0  0  0  0  0  0  0  0  0  0  0  0
    4.3593    3.0117    0.0000 H   0  0  0  0  0  0  0  0  0  0  0  0
    1.1430    3.0117    0.0000 H   0  0  0  0  0  0  0  0  0  0  0  0
    3.7046    2.7760    0.0000 H   0  0  0  0  0  0  0  0  0  0  0  0
    4.2205    1.1880    0.0000 H   0  0  0  0  0  0  0  0  0  0  0  0
    4.7127    0.4650    0.0000 H   0  0  0  0  0  0  0  0  0  0  0  0
    4.2775   -0.5125    0.0000 H   0  0  0  0  0  0  0  0  0  0  0  0
    3.8883   -2.6215    0.0000 H   0  0  0  0  0  0  0  0  0  0  0  0
    2.2444   -1.1582    0.0000 H   0  0  0  0  0  0  0  0  0  0  0  0
    2.8245    0.0672    0.0000 H   0  0  0  0  0  0  0  0  0  0  0  0
    0.8891    0.4546    0.0000 H   0  0  0  0  0  0  0  0  0  0  0  0
    1.3271    1.0487    0.0000 H   0  0  0  0  0  0  0  0  0  0  0  0
    1.0974    3.0090    0.0000 H   0  0  0  0  0  0  0  0  0  0  0  0
  1  2  1  0  0  0  0
  1 23  1  0  0  0  0
  1 24  1  0  0  0  0
  2  3  2  0  0  0  0
  2  4  1  0  0  0  0
  4  5  2  0  0  0  0
  4  9  1  0  0  0  0
  5  6  1  0  0  0  0
  5 25  1  0  0  0  0
  6  7  2  0  0  0  0
  6 26  1  0  0  0  0
  7  8  1  0  0  0  0
  7 27  1  0  0  0  0
  8  9  2  0  0  0  0
  9 28  1  0  0  0  0
 10  8  1  0  0  0  0
 10 11  1  0  0  0  0
 10 21  1  0  0  0  0
 10 29  1  1  0  0  0
 11 12  1  0  0  0  0
 12 13  1  0  0  0  0
 12 19  1  0  0  0  0
 12 30  1  6  0  0  0
 13 14  1  0  0  0  0
 13 31  1  0  0  0  0
 13 32  1  0  0  0  0
 14 15  1  0  0  0  0
 15 16  1  0  0  0  0
 15 17  1  0  0  0  0
 15 18  2  0  0  0  0
 16 33  1  0  0  0  0
 17 34  1  0  0  0  0
 19 20  1  0  0  0  0
 19 21  1  0  0  0  0
 19 35  1  1  0  0  0
 20 36  1  0  0  0  0
 21 22  1  0  0  0  0
 21 37  1  6  0  0  0
 22 38  1  0  0  0  0
M  CHG  1   8   1
M  END
>  <DRUGBANK_ID>
DB03227

>  <SECONDARY_ACCESSION_NUMBERS>
EXPT02366

>  <COMMON_NAME>
Nicotinamide Mononucleotide

>  <UNII>
2KG6QX4W0V

$$$$
