SNX
 OpenBabel10282417072D

 51 54  0  0  0  0  0  0  0  0999 V2000
   -0.4730    2.5634    0.0000 O   0  0  0  0  0  0  0  0  0  0  0  0
    0.2415    2.1509    0.0000 C   0  0  0  0  0  0  0  0  0  0  0  0
    0.9560    2.5634    0.0000 N   0  0  0  0  0  0  0  0  0  0  0  0
    0.2415    1.3259    0.0000 C   0  0  0  0  0  0  0  0  0  0  0  0
    0.9560    0.9134    0.0000 C   0  0  0  0  0  0  0  0  0  0  0  0
    0.9560    0.0884    0.0000 C   0  0  0  0  0  0  0  0  0  0  0  0
   -0.4730    0.9134    0.0000 C   0  0  0  0  0  0  0  0  0  0  0  0
   -1.1875    1.3259    0.0000 N   0  0  0  0  0  0  0  0  0  0  0  0
   -1.1875    2.1509    0.0000 C   0  0  0  0  0  0  0  0  0  0  0  0
   -1.9019    2.5634    0.0000 C   0  0  0  0  0  0  0  0  0  0  0  0
   -1.9019    3.3884    0.0000 O   0  0  0  0  0  0  0  0  0  0  0  0
   -2.6164    3.8009    0.0000 C   0  0  0  0  0  0  0  0  0  0  0  0
   -0.4730    0.0884    0.0000 C   0  0  0  0  0  0  0  0  0  0  0  0
    0.2415   -0.3241    0.0000 C   0  0  0  0  0  0  0  0  0  0  0  0
    0.2415   -1.1491    0.0000 N   0  0  0  0  0  0  0  0  0  0  0  0
   -0.4259   -1.6340    0.0000 C   0  0  0  0  0  0  0  0  0  0  0  0
   -1.2329   -1.4624    0.0000 C   0  0  0  0  0  0  0  0  0  0  0  0
   -1.7850   -2.0755    0.0000 C   0  0  0  0  0  0  0  0  0  0  0  0
   -1.5300   -2.8602    0.0000 C   0  0  0  0  0  0  0  0  0  0  0  0
   -0.7230   -3.0317    0.0000 C   0  0  0  0  0  0  0  0  0  0  0  0
    0.9089   -1.6340    0.0000 C   0  0  0  0  0  0  0  0  0  0  0  0
    1.7159   -1.4624    0.0000 C   0  0  0  0  0  0  0  0  0  0  0  0
    2.2679   -2.0755    0.0000 C   0  0  0  0  0  0  0  0  0  0  0  0
    2.0130   -2.8602    0.0000 C   0  0  0  0  0  0  0  0  0  0  0  0
    1.2060   -3.0317    0.0000 C   0  0  0  0  0  0  0  0  0  0  0  0
    0.9511   -3.8163    0.0000 O   0  0  0  0  0  0  0  0  0  0  0  0
    0.6540   -2.4186    0.0000 C   0  0  0  0  0  0  0  0  0  0  0  0
   -0.1710   -2.4186    0.0000 C   0  0  0  0  0  0  0  0  0  0  0  0
    1.8086    2.0711    0.0000 H   0  0  0  0  0  0  0  0  0  0  0  0
    0.9560    3.5479    0.0000 H   0  0  0  0  0  0  0  0  0  0  0  0
    1.8497    1.4294    0.0000 H   0  0  0  0  0  0  0  0  0  0  0  0
    1.8497   -0.4276    0.0000 H   0  0  0  0  0  0  0  0  0  0  0  0
   -2.0401    0.8336    0.0000 H   0  0  0  0  0  0  0  0  0  0  0  0
   -0.2608    2.6859    0.0000 H   0  0  0  0  0  0  0  0  0  0  0  0
   -1.1875    3.2209    0.0000 H   0  0  0  0  0  0  0  0  0  0  0  0
   -2.8286    2.0284    0.0000 H   0  0  0  0  0  0  0  0  0  0  0  0
   -2.8285    3.0984    0.0000 H   0  0  0  0  0  0  0  0  0  0  0  0
   -2.6164    4.8709    0.0000 H   0  0  0  0  0  0  0  0  0  0  0  0
   -3.5430    3.2659    0.0000 H   0  0  0  0  0  0  0  0  0  0  0  0
   -3.5431    4.3359    0.0000 H   0  0  0  0  0  0  0  0  0  0  0  0
   -1.3667   -0.4276    0.0000 H   0  0  0  0  0  0  0  0  0  0  0  0
   -1.5517   -0.4809    0.0000 H   0  0  0  0  0  0  0  0  0  0  0  0
   -2.7944   -1.8609    0.0000 H   0  0  0  0  0  0  0  0  0  0  0  0
   -2.2205   -3.6272    0.0000 H   0  0  0  0  0  0  0  0  0  0  0  0
   -0.4041   -4.0132    0.0000 H   0  0  0  0  0  0  0  0  0  0  0  0
    2.0465   -0.4448    0.0000 H   0  0  0  0  0  0  0  0  0  0  0  0
    2.7625   -1.2399    0.0000 H   0  0  0  0  0  0  0  0  0  0  0  0
    3.3145   -1.8530    0.0000 H   0  0  0  0  0  0  0  0  0  0  0  0
    2.9839   -2.8706    0.0000 H   0  0  0  0  0  0  0  0  0  0  0  0
    2.7290   -3.6554    0.0000 H   0  0  0  0  0  0  0  0  0  0  0  0
    1.6823   -3.8778    0.0000 H   0  0  0  0  0  0  0  0  0  0  0  0
  1  2  2  0  0  0  0
  2  3  1  0  0  0  0
  2  4  1  0  0  0  0
  3 29  1  0  0  0  0
  3 30  1  0  0  0  0
  4  5  2  0  0  0  0
  4  7  1  0  0  0  0
  5  6  1  0  0  0  0
  5 31  1  0  0  0  0
  6 14  2  0  0  0  0
  6 32  1  0  0  0  0
  7  8  1  0  0  0  0
  7 13  2  0  0  0  0
  8  9  1  0  0  0  0
  8 33  1  0  0  0  0
  9 10  1  0  0  0  0
  9 34  1  0  0  0  0
  9 35  1  0  0  0  0
 10 11  1  0  0  0  0
 10 36  1  0  0  0  0
 10 37  1  0  0  0  0
 11 12  1  0  0  0  0
 12 38  1  0  0  0  0
 12 39  1  0  0  0  0
 12 40  1  0  0  0  0
 13 14  1  0  0  0  0
 13 41  1  0  0  0  0
 14 15  1  0  0  0  0
 15 16  1  0  0  0  0
 15 21  1  0  0  0  0
 16 17  2  0  0  0  0
 16 28  1  0  0  0  0
 17 18  1  0  0  0  0
 17 42  1  0  0  0  0
 18 19  2  0  0  0  0
 18 43  1  0  0  0  0
 19 20  1  0  0  0  0
 19 44  1  0  0  0  0
 20 28  2  0  0  0  0
 20 45  1  0  0  0  0
 21 22  1  0  0  0  0
 21 27  2  0  0  0  0
 22 23  1  0  0  0  0
 22 46  1  0  0  0  0
 22 47  1  0  0  0  0
 23 24  1  0  0  0  0
 23 48  1  0  0  0  0
 23 49  1  0  0  0  0
 24 25  1  0  0  0  0
 24 50  1  0  0  0  0
 24 51  1  0  0  0  0
 25 26  2  0  0  0  0
 25 27  1  0  0  0  0
 27 28  1  0  0  0  0
M  END
>  <DRUGBANK_ID>
DB08557

>  <COMMON_NAME>
2-[(2-methoxyethyl)amino]-4-(4-oxo-1,2,3,4-tetrahydro-9H-carbazol-9-yl)benzamide

$$$$
