894
 OpenBabel10282417072D

 46 49  0  0  1  0  0  0  0  0999 V2000
    2.3513   -2.2614    0.0000 O   0  0  0  0  0  0  0  0  0  0  0  0
    3.0595   -3.4715    0.0000 O   0  0  0  0  0  0  0  0  0  0  0  0
    2.3219    3.4715    0.0000 O   0  0  0  0  0  0  0  0  0  0  0  0
    3.0499   -0.2485    0.0000 C   0  0  2  0  0  0  0  0  0  0  0  0
    2.3640    0.1476    0.0000 C   0  0  1  0  0  0  0  0  0  0  0  0
    3.0499   -1.0405    0.0000 C   0  0  1  0  0  0  0  0  0  0  0  0
    2.3640   -1.4365    0.0000 C   0  0  2  0  0  0  0  0  0  0  0  0
    2.3513    0.9725    0.0000 C   0  0  1  0  0  0  0  0  0  0  0  0
    1.6781   -0.2485    0.0000 C   0  0  0  0  0  0  0  0  0  0  0  0
    1.6781   -1.0405    0.0000 C   0  0  0  0  0  0  0  0  0  0  0  0
    3.7706    0.1529    0.0000 C   0  0  0  0  0  0  0  0  0  0  0  0
    3.7706   -1.4420    0.0000 C   0  0  0  0  0  0  0  0  0  0  0  0
    3.0626    1.3904    0.0000 C   0  0  0  0  0  0  0  0  0  0  0  0
    3.7771    0.9780    0.0000 C   0  0  0  0  0  0  0  0  0  0  0  0
    1.6781   -1.8326    0.0000 C   0  0  0  0  0  0  0  0  0  0  0  0
    1.6684    0.5712    0.0000 C   0  0  0  0  0  0  0  0  0  0  0  0
    1.5973    1.3848    0.0000 C   0  0  0  0  0  0  0  0  0  0  0  0
    3.7771   -2.2670    0.0000 C   0  0  0  0  0  0  0  0  0  0  0  0
    3.0626   -2.6795    0.0000 C   0  0  0  0  0  0  0  0  0  0  0  0
    3.0692    2.2498    0.0000 C   0  0  0  0  0  0  0  0  0  0  0  0
    1.5841    2.2441    0.0000 C   0  0  0  0  0  0  0  0  0  0  0  0
    2.3249    2.6795    0.0000 C   0  0  0  0  0  0  0  0  0  0  0  0
    3.5963   -0.5695    0.0000 H   0  0  0  0  0  0  0  0  0  0  0  0
    1.8128    0.4601    0.0000 H   0  0  0  0  0  0  0  0  0  0  0  0
    3.5963   -0.7195    0.0000 H   0  0  0  0  0  0  0  0  0  0  0  0
    0.7514    0.2865    0.0000 H   0  0  0  0  0  0  0  0  0  0  0  0
    0.7515   -0.7835    0.0000 H   0  0  0  0  0  0  0  0  0  0  0  0
    0.7515   -1.5755    0.0000 H   0  0  0  0  0  0  0  0  0  0  0  0
    0.7515   -0.5055    0.0000 H   0  0  0  0  0  0  0  0  0  0  0  0
    4.6909   -0.3929    0.0000 H   0  0  0  0  0  0  0  0  0  0  0  0
    4.7024    0.6788    0.0000 H   0  0  0  0  0  0  0  0  0  0  0  0
    4.6910   -0.8963    0.0000 H   0  0  0  0  0  0  0  0  0  0  0  0
    4.7024   -1.9679    0.0000 H   0  0  0  0  0  0  0  0  0  0  0  0
    4.7058    1.5094    0.0000 H   0  0  0  0  0  0  0  0  0  0  0  0
    3.7791    2.0480    0.0000 H   0  0  0  0  0  0  0  0  0  0  0  0
    0.7514   -1.2977    0.0000 H   0  0  0  0  0  0  0  0  0  0  0  0
    1.6782   -2.9026    0.0000 H   0  0  0  0  0  0  0  0  0  0  0  0
    0.7515   -2.3677    0.0000 H   0  0  0  0  0  0  0  0  0  0  0  0
    0.7377    1.0991    0.0000 H   0  0  0  0  0  0  0  0  0  0  0  0
    1.6766   -0.4988    0.0000 H   0  0  0  0  0  0  0  0  0  0  0  0
    0.7459    0.0291    0.0000 H   0  0  0  0  0  0  0  0  0  0  0  0
    0.7137    0.8517    0.0000 H   0  0  0  0  0  0  0  0  0  0  0  0
    4.7058   -2.7984    0.0000 H   0  0  0  0  0  0  0  0  0  0  0  0
    3.7792   -3.3370    0.0000 H   0  0  0  0  0  0  0  0  0  0  0  0
    3.9649    2.7624    0.0000 H   0  0  0  0  0  0  0  0  0  0  0  0
    0.6845    2.7497    0.0000 H   0  0  0  0  0  0  0  0  0  0  0  0
  1  7  1  0  0  0  0
  1 19  1  0  0  0  0
  2 19  2  0  0  0  0
  3 22  2  0  0  0  0
  4  5  1  0  0  0  0
  4  6  1  0  0  0  0
  4 11  1  0  0  0  0
  4 23  1  6  0  0  0
  5  8  1  0  0  0  0
  5  9  1  0  0  0  0
  5 24  1  1  0  0  0
  6  7  1  0  0  0  0
  6 12  1  0  0  0  0
  6 25  1  1  0  0  0
  7 10  1  0  0  0  0
  7 15  1  6  0  0  0
  8 13  1  0  0  0  0
  8 16  1  6  0  0  0
  8 17  1  0  0  0  0
  9 10  1  0  0  0  0
  9 26  1  0  0  0  0
  9 27  1  0  0  0  0
 10 28  1  0  0  0  0
 10 29  1  0  0  0  0
 11 14  1  0  0  0  0
 11 30  1  0  0  0  0
 11 31  1  0  0  0  0
 12 18  1  0  0  0  0
 12 32  1  0  0  0  0
 12 33  1  0  0  0  0
 13 14  1  0  0  0  0
 13 20  2  0  0  0  0
 14 34  1  0  0  0  0
 14 35  1  0  0  0  0
 15 36  1  0  0  0  0
 15 37  1  0  0  0  0
 15 38  1  0  0  0  0
 16 39  1  0  0  0  0
 16 40  1  0  0  0  0
 16 41  1  0  0  0  0
 17 21  2  0  0  0  0
 17 42  1  0  0  0  0
 18 19  1  0  0  0  0
 18 43  1  0  0  0  0
 18 44  1  0  0  0  0
 20 22  1  0  0  0  0
 20 45  1  0  0  0  0
 21 22  1  0  0  0  0
 21 46  1  0  0  0  0
M  END
>  <DRUGBANK_ID>
DB00894

>  <SECONDARY_ACCESSION_NUMBERS>
APRD00640

>  <COMMON_NAME>
Testolactone

>  <CAS_NUMBER>
968-93-4

>  <UNII>
6J9BLA949Q

>  <SYNONYMS>
(4aS,4bR,10aR,10bS,12aS)-10a,12a-dimethyl-3,4,4a,5,6,10a,10b,11,12,12a-decahydro-2H-naphtho[2,1-f]chromene-2,8(4bH)-dione; 1-dehydrotestololactone; 1,2-didehydrotestololactone; 13-hydroxy-3-oxo-13,17-secoandrosta-1,4-dien-17-oic acid δ-lactone; D-homo-17a-oxaandrosta-1,4-diene-3,17-dione; delta(1)-testololactone; Testolactona; Testolactone; Testolactonum; Testolattone; Δ1-testololactone

$$$$
