
 OpenBabel10282417072D

 33 36  0  0  0  0  0  0  0  0999 V2000
   -2.4141   -0.2078    0.0000 C   0  0  0  0  0  0  0  0  0  0  0  0
   -2.4153   -1.0342    0.0000 C   0  0  0  0  0  0  0  0  0  0  0  0
   -1.7011   -1.4467    0.0000 C   0  0  0  0  0  0  0  0  0  0  0  0
   -1.7029    0.2042    0.0000 C   0  0  0  0  0  0  0  0  0  0  0  0
   -0.9886   -0.2041    0.0000 C   0  0  0  0  0  0  0  0  0  0  0  0
   -0.9878   -1.0301    0.0000 C   0  0  0  0  0  0  0  0  0  0  0  0
   -0.2732   -1.4406    0.0000 C   0  0  0  0  0  0  0  0  0  0  0  0
    0.4408   -1.0263    0.0000 C   0  0  0  0  0  0  0  0  0  0  0  0
   -0.2789    0.2093    0.0000 C   0  0  0  0  0  0  0  0  0  0  0  0
    0.4371   -0.2006    0.0000 C   0  0  0  0  0  0  0  0  0  0  0  0
    0.4294    1.4467    0.0000 C   0  0  0  0  0  0  0  0  0  0  0  0
   -0.2858    1.0321    0.0000 C   0  0  0  0  0  0  0  0  0  0  0  0
    1.1456    1.0366    0.0000 C   0  0  0  0  0  0  0  0  0  0  0  0
    1.1456    0.2115    0.0000 C   0  0  0  0  0  0  0  0  0  0  0  0
    1.9303   -0.0433    0.0000 O   0  0  0  0  0  0  0  0  0  0  0  0
    2.4153    0.6240    0.0000 C   0  0  0  0  0  0  0  0  0  0  0  0
    1.9303    1.2916    0.0000 C   0  0  0  0  0  0  0  0  0  0  0  0
    0.4273    2.2707    0.0000 O   0  0  0  0  0  0  0  0  0  0  0  0
   -1.0014    1.4407    0.0000 O   0  0  0  0  0  0  0  0  0  0  0  0
   -1.6993   -2.2707    0.0000 C   0  0  0  0  0  0  0  0  0  0  0  0
    2.1850    2.0753    0.0000 C   0  0  0  0  0  0  0  0  0  0  0  0
   -3.3078    0.3082    0.0000 H   0  0  0  0  0  0  0  0  0  0  0  0
   -3.3095   -1.5495    0.0000 H   0  0  0  0  0  0  0  0  0  0  0  0
   -1.7059    1.2362    0.0000 H   0  0  0  0  0  0  0  0  0  0  0  0
   -0.2710   -2.4726    0.0000 H   0  0  0  0  0  0  0  0  0  0  0  0
    1.3363   -1.5393    0.0000 H   0  0  0  0  0  0  0  0  0  0  0  0
    3.4473    0.6239    0.0000 H   0  0  0  0  0  0  0  0  0  0  0  0
   -2.6248   -2.8077    0.0000 H   0  0  0  0  0  0  0  0  0  0  0  0
   -0.7715   -2.8037    0.0000 H   0  0  0  0  0  0  0  0  0  0  0  0
   -1.6970   -3.3407    0.0000 H   0  0  0  0  0  0  0  0  0  0  0  0
    3.2316    2.2977    0.0000 H   0  0  0  0  0  0  0  0  0  0  0  0
    1.4691    2.8705    0.0000 H   0  0  0  0  0  0  0  0  0  0  0  0
    2.5157    3.0929    0.0000 H   0  0  0  0  0  0  0  0  0  0  0  0
  1  2  2  0  0  0  0
  1 22  1  0  0  0  0
  2  3  1  0  0  0  0
  2 23  1  0  0  0  0
  3  6  2  0  0  0  0
  3 20  1  0  0  0  0
  4  1  1  0  0  0  0
  4 24  1  0  0  0  0
  5  6  1  0  0  0  0
  5  4  2  0  0  0  0
  6  7  1  0  0  0  0
  7  8  2  0  0  0  0
  7 25  1  0  0  0  0
  8 10  1  0  0  0  0
  8 26  1  0  0  0  0
  9 12  1  0  0  0  0
  9  5  1  0  0  0  0
  9 10  2  0  0  0  0
 10 14  1  0  0  0  0
 11 12  1  0  0  0  0
 11 18  2  0  0  0  0
 12 19  2  0  0  0  0
 13 11  1  0  0  0  0
 13 14  2  0  0  0  0
 14 15  1  0  0  0  0
 15 16  1  0  0  0  0
 16 17  2  0  0  0  0
 16 27  1  0  0  0  0
 17 13  1  0  0  0  0
 17 21  1  0  0  0  0
 20 28  1  0  0  0  0
 20 29  1  0  0  0  0
 20 30  1  0  0  0  0
 21 31  1  0  0  0  0
 21 32  1  0  0  0  0
 21 33  1  0  0  0  0
M  END
>  <DRUGBANK_ID>
DB16886

>  <COMMON_NAME>
Tanshinone I

>  <CAS_NUMBER>
568-73-0

>  <UNII>
03UUH3J385

>  <SYNONYMS>
Tanshinon I; Tanshinone A

$$$$
