
 OpenBabel10282417072D

110115  0  0  1  0  0  0  0  0999 V2000
   -2.1434   -3.7125    0.0000 C   0  0  0  0  0  0  0  0  0  0  0  0
   -1.4289   -4.1250    0.0000 C   0  0  0  0  0  0  0  0  0  0  0  0
   -0.7145   -3.7125    0.0000 O   0  0  0  0  0  0  0  0  0  0  0  0
   -1.4289   -4.9500    0.0000 N   0  0  0  0  0  0  0  0  0  0  0  0
   -0.7145   -5.3625    0.0000 C   0  0  0  0  0  0  0  0  0  0  0  0
   -0.7145   -6.1875    0.0000 C   0  0  0  0  0  0  0  0  0  0  0  0
   -1.4289   -6.6000    0.0000 N   0  0  0  0  0  0  0  0  0  0  0  0
   -2.1434   -6.1875    0.0000 C   0  0  0  0  0  0  0  0  0  0  0  0
   -2.1434   -5.3625    0.0000 C   0  0  0  0  0  0  0  0  0  0  0  0
   -1.4289   -7.4250    0.0000 C   0  0  0  0  0  0  0  0  0  0  0  0
   -0.7145   -7.8375    0.0000 C   0  0  0  0  0  0  0  0  0  0  0  0
   -0.7145   -8.6625    0.0000 C   0  0  0  0  0  0  0  0  0  0  0  0
   -1.4289   -9.0750    0.0000 C   0  0  0  0  0  0  0  0  0  0  0  0
   -2.1434   -8.6625    0.0000 C   0  0  0  0  0  0  0  0  0  0  0  0
   -2.1434   -7.8375    0.0000 C   0  0  0  0  0  0  0  0  0  0  0  0
   -1.4289   -9.9000    0.0000 C   0  0  0  0  0  0  0  0  0  0  0  0
   -0.7145  -10.3125    0.0000 N   0  0  0  0  0  0  0  0  0  0  0  0
   -0.7145  -11.1375    0.0000 C   0  0  1  0  0  0  0  0  0  0  0  0
   -1.4289  -11.5500    0.0000 C   0  0  0  0  0  0  0  0  0  0  0  0
   -2.1434  -11.1375    0.0000 C   0  0  0  0  0  0  0  0  0  0  0  0
   -2.8579  -11.5500    0.0000 C   0  0  0  0  0  0  0  0  0  0  0  0
   -3.5724  -11.1375    0.0000 C   0  0  0  0  0  0  0  0  0  0  0  0
   -3.5724  -10.3125    0.0000 C   0  0  0  0  0  0  0  0  0  0  0  0
   -2.8579   -9.9000    0.0000 C   0  0  0  0  0  0  0  0  0  0  0  0
   -2.1434  -10.3125    0.0000 C   0  0  0  0  0  0  0  0  0  0  0  0
   -0.0000  -11.5500    0.0000 C   0  0  0  0  0  0  0  0  0  0  0  0
    0.7145  -11.1375    0.0000 O   0  0  0  0  0  0  0  0  0  0  0  0
   -0.0000  -12.3750    0.0000 N   0  0  0  0  0  0  0  0  0  0  0  0
    0.7145  -12.7875    0.0000 C   0  0  0  0  0  0  0  0  0  0  0  0
    0.7145  -13.6125    0.0000 C   0  0  0  0  0  0  0  0  0  0  0  0
   -0.0000  -14.0250    0.0000 N   0  0  0  0  0  0  0  0  0  0  0  0
   -0.7145  -13.6125    0.0000 C   0  0  0  0  0  0  0  0  0  0  0  0
   -0.7145  -12.7875    0.0000 C   0  0  0  0  0  0  0  0  0  0  0  0
   -0.0000  -14.8500    0.0000 C   0  0  0  0  0  0  0  0  0  0  0  0
   -0.7145  -15.2625    0.0000 C   0  0  0  0  0  0  0  0  0  0  0  0
   -0.7145  -16.0875    0.0000 C   0  0  0  0  0  0  0  0  0  0  0  0
   -1.4289  -16.5000    0.0000 C   0  0  0  0  0  0  0  0  0  0  0  0
   -2.1434  -16.0875    0.0000 C   0  0  0  0  0  0  0  0  0  0  0  0
   -2.1434  -15.2625    0.0000 C   0  0  0  0  0  0  0  0  0  0  0  0
   -1.4289  -14.8500    0.0000 C   0  0  0  0  0  0  0  0  0  0  0  0
   -2.8579  -16.5000    0.0000 C   0  0  0  0  0  0  0  0  0  0  0  0
   -3.5724  -16.9125    0.0000 N   0  0  0  0  0  0  0  0  0  0  0  0
   -0.0000   -9.9000    0.0000 C   0  0  0  0  0  0  0  0  0  0  0  0
   -0.0000   -9.0750    0.0000 O   0  0  0  0  0  0  0  0  0  0  0  0
    0.7145  -10.3125    0.0000 C   0  0  0  0  0  0  0  0  0  0  0  0
    1.4289   -9.9000    0.0000 C   0  0  0  0  0  0  0  0  0  0  0  0
    2.1434  -10.3125    0.0000 C   0  0  0  0  0  0  0  0  0  0  0  0
    2.8579   -9.9000    0.0000 C   0  0  0  0  0  0  0  0  0  0  0  0
    3.5724  -10.3125    0.0000 C   0  0  0  0  0  0  0  0  0  0  0  0
    3.5724  -11.1375    0.0000 C   0  0  0  0  0  0  0  0  0  0  0  0
    2.8579  -11.5500    0.0000 C   0  0  0  0  0  0  0  0  0  0  0  0
    2.1434  -11.1375    0.0000 C   0  0  0  0  0  0  0  0  0  0  0  0
    4.2868  -11.5500    0.0000 C   0  0  0  0  0  0  0  0  0  0  0  0
    5.0013  -11.9625    0.0000 C   0  0  0  0  0  0  0  0  0  0  0  0
    3.8743  -12.2645    0.0000 C   0  0  0  0  0  0  0  0  0  0  0  0
    4.6993  -10.8355    0.0000 C   0  0  0  0  0  0  0  0  0  0  0  0
   -2.1434   -2.6425    0.0000 H   0  0  0  0  0  0  0  0  0  0  0  0
   -3.0700   -4.2475    0.0000 H   0  0  0  0  0  0  0  0  0  0  0  0
   -3.0701   -3.1775    0.0000 H   0  0  0  0  0  0  0  0  0  0  0  0
    0.2122   -4.8275    0.0000 H   0  0  0  0  0  0  0  0  0  0  0  0
    0.2121   -5.8975    0.0000 H   0  0  0  0  0  0  0  0  0  0  0  0
    0.2122   -6.7225    0.0000 H   0  0  0  0  0  0  0  0  0  0  0  0
   -0.7145   -7.2575    0.0000 H   0  0  0  0  0  0  0  0  0  0  0  0
   -3.0700   -6.7225    0.0000 H   0  0  0  0  0  0  0  0  0  0  0  0
   -3.0700   -5.6525    0.0000 H   0  0  0  0  0  0  0  0  0  0  0  0
   -3.0700   -4.8275    0.0000 H   0  0  0  0  0  0  0  0  0  0  0  0
   -2.1434   -4.2925    0.0000 H   0  0  0  0  0  0  0  0  0  0  0  0
    0.1792   -7.3215    0.0000 H   0  0  0  0  0  0  0  0  0  0  0  0
    0.1792   -9.1785    0.0000 H   0  0  0  0  0  0  0  0  0  0  0  0
   -3.0371   -9.1785    0.0000 H   0  0  0  0  0  0  0  0  0  0  0  0
   -3.0371   -7.3215    0.0000 H   0  0  0  0  0  0  0  0  0  0  0  0
   -2.3556  -10.4350    0.0000 H   0  0  0  0  0  0  0  0  0  0  0  0
   -1.4289  -10.9700    0.0000 H   0  0  0  0  0  0  0  0  0  0  0  0
   -1.6412  -10.6025    0.0000 H   0  0  0  0  0  0  0  0  0  0  0  0
   -1.4289  -12.6200    0.0000 H   0  0  0  0  0  0  0  0  0  0  0  0
   -2.3555  -12.0850    0.0000 H   0  0  0  0  0  0  0  0  0  0  0  0
   -2.8579  -12.5820    0.0000 H   0  0  0  0  0  0  0  0  0  0  0  0
   -4.4661  -11.6535    0.0000 H   0  0  0  0  0  0  0  0  0  0  0  0
   -4.4661   -9.7965    0.0000 H   0  0  0  0  0  0  0  0  0  0  0  0
   -2.8579   -8.8680    0.0000 H   0  0  0  0  0  0  0  0  0  0  0  0
   -1.2497   -9.7965    0.0000 H   0  0  0  0  0  0  0  0  0  0  0  0
    1.6411  -12.2525    0.0000 H   0  0  0  0  0  0  0  0  0  0  0  0
    1.6411  -13.3225    0.0000 H   0  0  0  0  0  0  0  0  0  0  0  0
    1.6411  -14.1475    0.0000 H   0  0  0  0  0  0  0  0  0  0  0  0
    0.7145  -14.6825    0.0000 H   0  0  0  0  0  0  0  0  0  0  0  0
   -1.6411  -14.1475    0.0000 H   0  0  0  0  0  0  0  0  0  0  0  0
   -1.6411  -13.0775    0.0000 H   0  0  0  0  0  0  0  0  0  0  0  0
   -1.6411  -12.2525    0.0000 H   0  0  0  0  0  0  0  0  0  0  0  0
   -0.7145  -11.7175    0.0000 H   0  0  0  0  0  0  0  0  0  0  0  0
    0.9266  -15.3850    0.0000 H   0  0  0  0  0  0  0  0  0  0  0  0
   -0.0000  -15.9200    0.0000 H   0  0  0  0  0  0  0  0  0  0  0  0
    0.1792  -16.6035    0.0000 H   0  0  0  0  0  0  0  0  0  0  0  0
   -1.4289  -17.5320    0.0000 H   0  0  0  0  0  0  0  0  0  0  0  0
   -3.0371  -14.7465    0.0000 H   0  0  0  0  0  0  0  0  0  0  0  0
   -1.4289  -13.8180    0.0000 H   0  0  0  0  0  0  0  0  0  0  0  0
    0.7145  -11.3445    0.0000 H   0  0  0  0  0  0  0  0  0  0  0  0
    1.4289   -8.8680    0.0000 H   0  0  0  0  0  0  0  0  0  0  0  0
    2.8579   -8.8680    0.0000 H   0  0  0  0  0  0  0  0  0  0  0  0
    4.4661   -9.7965    0.0000 H   0  0  0  0  0  0  0  0  0  0  0  0
    2.8579  -12.5820    0.0000 H   0  0  0  0  0  0  0  0  0  0  0  0
    1.2497  -11.6535    0.0000 H   0  0  0  0  0  0  0  0  0  0  0  0
    5.0013  -13.0325    0.0000 H   0  0  0  0  0  0  0  0  0  0  0  0
    5.9279  -11.4275    0.0000 H   0  0  0  0  0  0  0  0  0  0  0  0
    5.9280  -12.4975    0.0000 H   0  0  0  0  0  0  0  0  0  0  0  0
    2.8043  -12.2645    0.0000 H   0  0  0  0  0  0  0  0  0  0  0  0
    4.4093  -13.1911    0.0000 H   0  0  0  0  0  0  0  0  0  0  0  0
    3.3393  -13.1912    0.0000 H   0  0  0  0  0  0  0  0  0  0  0  0
    5.7693  -10.8355    0.0000 H   0  0  0  0  0  0  0  0  0  0  0  0
    4.1643   -9.9089    0.0000 H   0  0  0  0  0  0  0  0  0  0  0  0
    5.2343   -9.9088    0.0000 H   0  0  0  0  0  0  0  0  0  0  0  0
  1  2  1  0  0  0  0
  1 57  1  0  0  0  0
  1 58  1  0  0  0  0
  1 59  1  0  0  0  0
  2  3  2  0  0  0  0
  2  4  1  0  0  0  0
  4  5  1  0  0  0  0
  4  9  1  0  0  0  0
  5  6  1  0  0  0  0
  5 60  1  0  0  0  0
  5 61  1  0  0  0  0
  6  7  1  0  0  0  0
  6 62  1  0  0  0  0
  6 63  1  0  0  0  0
  7  8  1  0  0  0  0
  7 10  1  0  0  0  0
  8  9  1  0  0  0  0
  8 64  1  0  0  0  0
  8 65  1  0  0  0  0
  9 66  1  0  0  0  0
  9 67  1  0  0  0  0
 10 11  2  0  0  0  0
 10 15  1  0  0  0  0
 11 12  1  0  0  0  0
 11 68  1  0  0  0  0
 12 13  2  0  0  0  0
 12 69  1  0  0  0  0
 13 14  1  0  0  0  0
 13 16  1  0  0  0  0
 14 15  2  0  0  0  0
 14 70  1  0  0  0  0
 15 71  1  0  0  0  0
 16 17  1  0  0  0  0
 16 72  1  0  0  0  0
 16 73  1  0  0  0  0
 17 43  1  0  0  0  0
 18 17  1  0  0  0  0
 18 19  1  0  0  0  0
 18 26  1  0  0  0  0
 18 74  1  1  0  0  0
 19 20  1  0  0  0  0
 19 75  1  0  0  0  0
 19 76  1  0  0  0  0
 20 21  2  0  0  0  0
 20 25  1  0  0  0  0
 21 22  1  0  0  0  0
 21 77  1  0  0  0  0
 22 23  2  0  0  0  0
 22 78  1  0  0  0  0
 23 24  1  0  0  0  0
 23 79  1  0  0  0  0
 24 25  2  0  0  0  0
 24 80  1  0  0  0  0
 25 81  1  0  0  0  0
 26 27  2  0  0  0  0
 26 28  1  0  0  0  0
 28 29  1  0  0  0  0
 28 33  1  0  0  0  0
 29 30  1  0  0  0  0
 29 82  1  0  0  0  0
 29 83  1  0  0  0  0
 30 31  1  0  0  0  0
 30 84  1  0  0  0  0
 30 85  1  0  0  0  0
 31 32  1  0  0  0  0
 31 34  1  0  0  0  0
 32 33  1  0  0  0  0
 32 86  1  0  0  0  0
 32 87  1  0  0  0  0
 33 88  1  0  0  0  0
 33 89  1  0  0  0  0
 34 35  1  0  0  0  0
 34 90  1  0  0  0  0
 34 91  1  0  0  0  0
 35 36  2  0  0  0  0
 35 40  1  0  0  0  0
 36 37  1  0  0  0  0
 36 92  1  0  0  0  0
 37 38  2  0  0  0  0
 37 93  1  0  0  0  0
 38 39  1  0  0  0  0
 38 41  1  0  0  0  0
 39 40  2  0  0  0  0
 39 94  1  0  0  0  0
 40 95  1  0  0  0  0
 41 42  3  0  0  0  0
 43 44  2  0  0  0  0
 43 45  1  0  0  0  0
 45 46  2  0  0  0  0
 45 96  1  0  0  0  0
 46 47  1  0  0  0  0
 46 97  1  0  0  0  0
 47 48  2  0  0  0  0
 47 52  1  0  0  0  0
 48 49  1  0  0  0  0
 48 98  1  0  0  0  0
 49 50  2  0  0  0  0
 49 99  1  0  0  0  0
 50 51  1  0  0  0  0
 50 53  1  0  0  0  0
 51 52  2  0  0  0  0
 51100  1  0  0  0  0
 52101  1  0  0  0  0
 53 54  1  0  0  0  0
 53 55  1  0  0  0  0
 53 56  1  0  0  0  0
 54102  1  0  0  0  0
 54103  1  0  0  0  0
 54104  1  0  0  0  0
 55105  1  0  0  0  0
 55106  1  0  0  0  0
 55107  1  0  0  0  0
 56108  1  0  0  0  0
 56109  1  0  0  0  0
 56110  1  0  0  0  0
M  END
>  <DRUGBANK_ID>
DB13054

>  <COMMON_NAME>
ACT-451840

>  <CAS_NUMBER>
1839508-99-4

>  <UNII>
FO890BDO84

$$$$
