
 OpenBabel10282417072D

 74 76  0  0  1  0  0  0  0  0999 V2000
   -2.5006   -0.2062    0.0000 O   0  0  0  0  0  0  0  0  0  0  0  0
   -1.7862    0.2063    0.0000 C   0  0  0  0  0  0  0  0  0  0  0  0
   -1.7862    1.0313    0.0000 O   0  0  0  0  0  0  0  0  0  0  0  0
   -1.0717   -0.2063    0.0000 C   0  0  0  0  0  0  0  0  0  0  0  0
   -0.3572    0.2062    0.0000 C   0  0  0  0  0  0  0  0  0  0  0  0
    0.3572   -0.2063    0.0000 C   0  0  0  0  0  0  0  0  0  0  0  0
    1.0717    0.2062    0.0000 C   0  0  0  0  0  0  0  0  0  0  0  0
    1.7862   -0.2063    0.0000 C   0  0  0  0  0  0  0  0  0  0  0  0
    2.5006    0.2062    0.0000 O   0  0  0  0  0  0  0  0  0  0  0  0
    1.7862   -1.0313    0.0000 O   0  0  0  0  0  0  0  0  0  0  0  0
    6.2168   -4.7962    0.0000 C   0  0  0  0  0  0  0  0  0  0  0  0
    5.6648   -4.1831    0.0000 C   0  0  1  0  0  0  0  0  0  0  0  0
    4.8578   -4.3546    0.0000 N   0  0  0  0  0  0  0  0  0  0  0  0
    5.9197   -3.3985    0.0000 C   0  0  0  0  0  0  0  0  0  0  0  0
    5.3677   -2.7854    0.0000 O   0  0  0  0  0  0  0  0  0  0  0  0
    5.6226   -2.0008    0.0000 C   0  0  0  0  0  0  0  0  0  0  0  0
    5.0706   -1.3877    0.0000 C   0  0  0  0  0  0  0  0  0  0  0  0
    5.3255   -0.6031    0.0000 C   0  0  0  0  0  0  0  0  0  0  0  0
    6.1325   -0.4315    0.0000 C   0  0  0  0  0  0  0  0  0  0  0  0
    6.6845   -1.0446    0.0000 C   0  0  0  0  0  0  0  0  0  0  0  0
    6.4296   -1.8293    0.0000 C   0  0  0  0  0  0  0  0  0  0  0  0
    6.3874    0.3531    0.0000 C   0  0  0  0  0  0  0  0  0  0  0  0
    5.9025    1.0205    0.0000 C   0  0  0  0  0  0  0  0  0  0  0  0
    6.3874    1.6880    0.0000 N   0  0  0  0  0  0  0  0  0  0  0  0
    7.1720    1.4330    0.0000 C   0  0  0  0  0  0  0  0  0  0  0  0
    7.8865    1.8455    0.0000 C   0  0  0  0  0  0  0  0  0  0  0  0
    8.6010    1.4330    0.0000 C   0  0  0  0  0  0  0  0  0  0  0  0
    8.6010    0.6080    0.0000 C   0  0  0  0  0  0  0  0  0  0  0  0
    9.3155    0.1955    0.0000 N   0  0  0  0  0  0  0  0  0  0  0  0
   10.0299    0.6080    0.0000 C   0  0  2  0  0  0  0  0  0  0  0  0
   10.7444    0.1955    0.0000 C   0  0  0  0  0  0  0  0  0  0  0  0
   10.0299    1.4330    0.0000 C   0  0  0  0  0  0  0  0  0  0  0  0
    9.3155    1.8455    0.0000 C   0  0  0  0  0  0  0  0  0  0  0  0
    9.3155    2.6705    0.0000 C   0  0  0  0  0  0  0  0  0  0  0  0
   10.0299    3.0830    0.0000 C   0  0  0  0  0  0  0  0  0  0  0  0
   10.7444    2.6705    0.0000 C   0  0  0  0  0  0  0  0  0  0  0  0
   11.4589    3.0830    0.0000 F   0  0  0  0  0  0  0  0  0  0  0  0
   10.7444    1.8455    0.0000 C   0  0  0  0  0  0  0  0  0  0  0  0
    7.8865    0.1955    0.0000 N   0  0  0  0  0  0  0  0  0  0  0  0
    7.1720    0.6080    0.0000 N   0  0  0  0  0  0  0  0  0  0  0  0
   -3.3121    0.2623    0.0000 H   0  0  0  0  0  0  0  0  0  0  0  0
   -1.0718   -1.2763    0.0000 H   0  0  0  0  0  0  0  0  0  0  0  0
   -0.1451   -0.7413    0.0000 H   0  0  0  0  0  0  0  0  0  0  0  0
   -0.3572    1.2762    0.0000 H   0  0  0  0  0  0  0  0  0  0  0  0
    0.5695    0.7412    0.0000 H   0  0  0  0  0  0  0  0  0  0  0  0
    0.3572   -1.2763    0.0000 H   0  0  0  0  0  0  0  0  0  0  0  0
    1.2838   -0.7413    0.0000 H   0  0  0  0  0  0  0  0  0  0  0  0
    1.0717    1.2762    0.0000 H   0  0  0  0  0  0  0  0  0  0  0  0
    1.9983    0.7412    0.0000 H   0  0  0  0  0  0  0  0  0  0  0  0
    3.3121   -0.2623    0.0000 H   0  0  0  0  0  0  0  0  0  0  0  0
    5.8861   -5.8138    0.0000 H   0  0  0  0  0  0  0  0  0  0  0  0
    7.2634   -4.5738    0.0000 H   0  0  0  0  0  0  0  0  0  0  0  0
    6.9327   -5.5914    0.0000 H   0  0  0  0  0  0  0  0  0  0  0  0
    5.3341   -5.2007    0.0000 H   0  0  0  0  0  0  0  0  0  0  0  0
    4.1753   -3.5966    0.0000 H   0  0  0  0  0  0  0  0  0  0  0  0
    4.5426   -5.3247    0.0000 H   0  0  0  0  0  0  0  0  0  0  0  0
    6.9663   -3.1760    0.0000 H   0  0  0  0  0  0  0  0  0  0  0  0
    6.2504   -2.3809    0.0000 H   0  0  0  0  0  0  0  0  0  0  0  0
    4.0612   -1.6023    0.0000 H   0  0  0  0  0  0  0  0  0  0  0  0
    4.6349    0.1638    0.0000 H   0  0  0  0  0  0  0  0  0  0  0  0
    7.6939   -0.8300    0.0000 H   0  0  0  0  0  0  0  0  0  0  0  0
    7.1202   -2.5962    0.0000 H   0  0  0  0  0  0  0  0  0  0  0  0
    4.8705    1.0205    0.0000 H   0  0  0  0  0  0  0  0  0  0  0  0
    7.8865    2.8775    0.0000 H   0  0  0  0  0  0  0  0  0  0  0  0
    9.4947    1.9490    0.0000 H   0  0  0  0  0  0  0  0  0  0  0  0
    9.3155   -0.7890    0.0000 H   0  0  0  0  0  0  0  0  0  0  0  0
   10.0299   -0.4620    0.0000 H   0  0  0  0  0  0  0  0  0  0  0  0
   10.7444   -0.8745    0.0000 H   0  0  0  0  0  0  0  0  0  0  0  0
   11.6710    0.7305    0.0000 H   0  0  0  0  0  0  0  0  0  0  0  0
   11.6711   -0.3395    0.0000 H   0  0  0  0  0  0  0  0  0  0  0  0
    8.4218    1.3295    0.0000 H   0  0  0  0  0  0  0  0  0  0  0  0
    8.4218    3.1865    0.0000 H   0  0  0  0  0  0  0  0  0  0  0  0
   10.0299    4.1150    0.0000 H   0  0  0  0  0  0  0  0  0  0  0  0
   11.6381    1.3295    0.0000 H   0  0  0  0  0  0  0  0  0  0  0  0
  1  2  1  0  0  0  0
  1 41  1  0  0  0  0
  2  3  2  0  0  0  0
  2  4  1  0  0  0  0
  4  5  1  0  0  0  0
  4 42  1  0  0  0  0
  4 43  1  0  0  0  0
  5  6  1  0  0  0  0
  5 44  1  0  0  0  0
  5 45  1  0  0  0  0
  6  7  1  0  0  0  0
  6 46  1  0  0  0  0
  6 47  1  0  0  0  0
  7  8  1  0  0  0  0
  7 48  1  0  0  0  0
  7 49  1  0  0  0  0
  8  9  1  0  0  0  0
  8 10  2  0  0  0  0
  9 50  1  0  0  0  0
 11 51  1  0  0  0  0
 11 52  1  0  0  0  0
 11 53  1  0  0  0  0
 12 11  1  0  0  0  0
 12 13  1  0  0  0  0
 12 14  1  0  0  0  0
 12 54  1  6  0  0  0
 13 55  1  0  0  0  0
 13 56  1  0  0  0  0
 14 15  1  0  0  0  0
 14 57  1  0  0  0  0
 14 58  1  0  0  0  0
 15 16  1  0  0  0  0
 16 17  2  0  0  0  0
 16 21  1  0  0  0  0
 17 18  1  0  0  0  0
 17 59  1  0  0  0  0
 18 19  2  0  0  0  0
 18 60  1  0  0  0  0
 19 20  1  0  0  0  0
 19 22  1  0  0  0  0
 20 21  2  0  0  0  0
 20 61  1  0  0  0  0
 21 62  1  0  0  0  0
 22 23  2  0  0  0  0
 22 40  1  0  0  0  0
 23 24  1  0  0  0  0
 23 63  1  0  0  0  0
 24 25  2  0  0  0  0
 25 26  1  0  0  0  0
 25 40  1  0  0  0  0
 26 27  2  0  0  0  0
 26 64  1  0  0  0  0
 27 28  1  0  0  0  0
 27 65  1  0  0  0  0
 28 29  1  0  0  0  0
 28 39  2  0  0  0  0
 29 66  1  0  0  0  0
 30 29  1  0  0  0  0
 30 31  1  0  0  0  0
 30 32  1  0  0  0  0
 30 67  1  6  0  0  0
 31 68  1  0  0  0  0
 31 69  1  0  0  0  0
 31 70  1  0  0  0  0
 32 33  2  0  0  0  0
 32 38  1  0  0  0  0
 33 34  1  0  0  0  0
 33 71  1  0  0  0  0
 34 35  2  0  0  0  0
 34 72  1  0  0  0  0
 35 36  1  0  0  0  0
 35 73  1  0  0  0  0
 36 37  1  0  0  0  0
 36 38  2  0  0  0  0
 38 74  1  0  0  0  0
 39 40  1  0  0  0  0
M  END
>  <DRUGBANK_ID>
DB18711

>  <COMMON_NAME>
taletrectinib

>  <CAS_NUMBER>
1505515-69-4

>  <UNII>
6KLL51GNBG

>  <SYNONYMS>
Taletrectinib adipate

$$$$
