OSB
 OpenBabel10282417072D

 26 26  0  0  0  0  0  0  0  0999 V2000
   -1.7771    1.6116    0.0000 O   0  0  0  0  0  0  0  0  0  0  0  0
   -0.3481    1.6116    0.0000 O   0  0  0  0  0  0  0  0  0  0  0  0
   -1.0626    1.1991    0.0000 C   0  0  0  0  0  0  0  0  0  0  0  0
   -0.3481   -0.8634    0.0000 C   0  0  0  0  0  0  0  0  0  0  0  0
   -1.0626   -1.2759    0.0000 C   0  0  0  0  0  0  0  0  0  0  0  0
   -1.7771   -0.8634    0.0000 C   0  0  0  0  0  0  0  0  0  0  0  0
   -1.7771   -0.0384    0.0000 C   0  0  0  0  0  0  0  0  0  0  0  0
   -1.0626    0.3741    0.0000 C   0  0  0  0  0  0  0  0  0  0  0  0
   -0.3481   -0.0384    0.0000 C   0  0  0  0  0  0  0  0  0  0  0  0
    0.3663    0.3741    0.0000 C   0  0  0  0  0  0  0  0  0  0  0  0
    1.0808   -0.0384    0.0000 C   0  0  0  0  0  0  0  0  0  0  0  0
    0.3663    1.1991    0.0000 O   0  0  0  0  0  0  0  0  0  0  0  0
    1.7953    0.3741    0.0000 C   0  0  0  0  0  0  0  0  0  0  0  0
    2.5098   -0.0384    0.0000 C   0  0  0  0  0  0  0  0  0  0  0  0
    3.2242    0.3741    0.0000 O   0  0  0  0  0  0  0  0  0  0  0  0
    2.5098   -0.8634    0.0000 O   0  0  0  0  0  0  0  0  0  0  0  0
   -1.7771    2.5486    0.0000 H   0  0  0  0  0  0  0  0  0  0  0  0
    0.5456   -1.3794    0.0000 H   0  0  0  0  0  0  0  0  0  0  0  0
   -1.0626   -2.3079    0.0000 H   0  0  0  0  0  0  0  0  0  0  0  0
   -2.6708   -1.3794    0.0000 H   0  0  0  0  0  0  0  0  0  0  0  0
   -2.6708    0.4776    0.0000 H   0  0  0  0  0  0  0  0  0  0  0  0
    1.0808   -1.1084    0.0000 H   0  0  0  0  0  0  0  0  0  0  0  0
    2.0074   -0.5734    0.0000 H   0  0  0  0  0  0  0  0  0  0  0  0
    1.7953    1.4441    0.0000 H   0  0  0  0  0  0  0  0  0  0  0  0
    2.7219    0.9091    0.0000 H   0  0  0  0  0  0  0  0  0  0  0  0
    1.6983   -1.3319    0.0000 H   0  0  0  0  0  0  0  0  0  0  0  0
  1  3  1  0  0  0  0
  1 17  1  0  0  0  0
  2  3  2  0  0  0  0
  3  8  1  0  0  0  0
  4  5  2  0  0  0  0
  4  9  1  0  0  0  0
  4 18  1  0  0  0  0
  5  6  1  0  0  0  0
  5 19  1  0  0  0  0
  6  7  2  0  0  0  0
  6 20  1  0  0  0  0
  7  8  1  0  0  0  0
  7 21  1  0  0  0  0
  8  9  2  0  0  0  0
  9 10  1  0  0  0  0
 10 11  1  0  0  0  0
 10 12  2  0  0  0  0
 11 13  1  0  0  0  0
 11 22  1  0  0  0  0
 11 23  1  0  0  0  0
 13 14  1  0  0  0  0
 13 24  1  0  0  0  0
 13 25  1  0  0  0  0
 14 15  2  0  0  0  0
 14 16  1  0  0  0  0
 16 26  1  0  0  0  0
M  END
>  <DRUGBANK_ID>
DB02251

>  <SECONDARY_ACCESSION_NUMBERS>
EXPT02448

>  <COMMON_NAME>
O-Succinylbenzoate

>  <CAS_NUMBER>
27415-09-4

>  <UNII>
XX4Y7I0FTT

$$$$
