
 OpenBabel10282417072D

 51 54  0  0  0  0  0  0  0  0999 V2000
    3.7293   -1.1447    0.0000 Cl  0  0  0  0  0  0  0  0  0  0  0  0
    8.9643   -0.8545    0.0000 Cl  0  0  0  0  0  0  0  0  0  0  0  0
    5.1583   -3.6198    0.0000 Cl  0  0  0  0  0  0  0  0  0  0  0  0
    4.5965    2.3710    0.0000 O   0  0  0  0  0  0  0  0  0  0  0  0
    2.9555    2.1986    0.0000 N   0  0  0  0  0  0  0  0  0  0  0  0
    3.4404    1.5312    0.0000 N   0  0  0  0  0  0  0  0  0  0  0  0
    5.1583   -0.3197    0.0000 N   0  0  0  0  0  0  0  0  0  0  0  0
    4.4909    0.1653    0.0000 N   0  0  0  0  0  0  0  0  0  0  0  0
    1.9856    3.5335    0.0000 C   0  0  0  0  0  0  0  0  0  0  0  0
    1.6500    2.7798    0.0000 C   0  0  0  0  0  0  0  0  0  0  0  0
    2.8061    3.6198    0.0000 C   0  0  0  0  0  0  0  0  0  0  0  0
    2.1350    2.1124    0.0000 C   0  0  0  0  0  0  0  0  0  0  0  0
    3.2910    2.9522    0.0000 C   0  0  0  0  0  0  0  0  0  0  0  0
    4.2609    1.6174    0.0000 C   0  0  0  0  0  0  0  0  0  0  0  0
    4.7458    0.9499    0.0000 C   0  0  0  0  0  0  0  0  0  0  0  0
    5.5709    0.9499    0.0000 C   0  0  0  0  0  0  0  0  0  0  0  0
    5.8258    0.1653    0.0000 C   0  0  0  0  0  0  0  0  0  0  0  0
    6.6105   -0.0897    0.0000 C   0  0  0  0  0  0  0  0  0  0  0  0
    6.0558    1.6174    0.0000 C   0  0  0  0  0  0  0  0  0  0  0  0
    5.1583   -1.1447    0.0000 C   0  0  0  0  0  0  0  0  0  0  0  0
    7.2235    0.4623    0.0000 C   0  0  0  0  0  0  0  0  0  0  0  0
    6.7820   -0.8966    0.0000 C   0  0  0  0  0  0  0  0  0  0  0  0
    4.4439   -1.5572    0.0000 C   0  0  0  0  0  0  0  0  0  0  0  0
    5.8728   -1.5572    0.0000 C   0  0  0  0  0  0  0  0  0  0  0  0
    8.0082    0.2074    0.0000 C   0  0  0  0  0  0  0  0  0  0  0  0
    7.5666   -1.1516    0.0000 C   0  0  0  0  0  0  0  0  0  0  0  0
    4.4439   -2.3822    0.0000 C   0  0  0  0  0  0  0  0  0  0  0  0
    5.8728   -2.3822    0.0000 C   0  0  0  0  0  0  0  0  0  0  0  0
    8.1797   -0.5995    0.0000 C   0  0  0  0  0  0  0  0  0  0  0  0
    5.1583   -2.7947    0.0000 C   0  0  0  0  0  0  0  0  0  0  0  0
    3.0399    0.6318    0.0000 H   0  0  0  0  0  0  0  0  0  0  0  0
    1.3567    4.3991    0.0000 H   0  0  0  0  0  0  0  0  0  0  0  0
    2.4208    4.5110    0.0000 H   0  0  0  0  0  0  0  0  0  0  0  0
    0.5859    2.6679    0.0000 H   0  0  0  0  0  0  0  0  0  0  0  0
    1.2149    1.8023    0.0000 H   0  0  0  0  0  0  0  0  0  0  0  0
    3.2413    4.5973    0.0000 H   0  0  0  0  0  0  0  0  0  0  0  0
    3.8702    3.7316    0.0000 H   0  0  0  0  0  0  0  0  0  0  0  0
    1.6998    1.1349    0.0000 H   0  0  0  0  0  0  0  0  0  0  0  0
    1.0709    2.0005    0.0000 H   0  0  0  0  0  0  0  0  0  0  0  0
    4.3551    3.0640    0.0000 H   0  0  0  0  0  0  0  0  0  0  0  0
    3.7263    3.9297    0.0000 H   0  0  0  0  0  0  0  0  0  0  0  0
    7.1199    1.5056    0.0000 H   0  0  0  0  0  0  0  0  0  0  0  0
    5.6205    2.5949    0.0000 H   0  0  0  0  0  0  0  0  0  0  0  0
    6.6847    2.4831    0.0000 H   0  0  0  0  0  0  0  0  0  0  0  0
    7.0089    1.4717    0.0000 H   0  0  0  0  0  0  0  0  0  0  0  0
    6.0150   -1.5871    0.0000 H   0  0  0  0  0  0  0  0  0  0  0  0
    6.7665   -1.0412    0.0000 H   0  0  0  0  0  0  0  0  0  0  0  0
    8.7751    0.8980    0.0000 H   0  0  0  0  0  0  0  0  0  0  0  0
    7.7812   -2.1611    0.0000 H   0  0  0  0  0  0  0  0  0  0  0  0
    3.5502   -2.8982    0.0000 H   0  0  0  0  0  0  0  0  0  0  0  0
    6.7665   -2.8982    0.0000 H   0  0  0  0  0  0  0  0  0  0  0  0
  1 23  1  0  0  0  0
  2 29  1  0  0  0  0
  3 30  1  0  0  0  0
  4 14  2  0  0  0  0
  5  6  1  0  0  0  0
  5 12  1  0  0  0  0
  5 13  1  0  0  0  0
  6 14  1  0  0  0  0
  6 31  1  0  0  0  0
  7  8  1  0  0  0  0
  7 17  1  0  0  0  0
  7 20  1  0  0  0  0
  8 15  2  0  0  0  0
  9 10  1  0  0  0  0
  9 11  1  0  0  0  0
  9 32  1  0  0  0  0
  9 33  1  0  0  0  0
 10 12  1  0  0  0  0
 10 34  1  0  0  0  0
 10 35  1  0  0  0  0
 11 13  1  0  0  0  0
 11 36  1  0  0  0  0
 11 37  1  0  0  0  0
 12 38  1  0  0  0  0
 12 39  1  0  0  0  0
 13 40  1  0  0  0  0
 13 41  1  0  0  0  0
 14 15  1  0  0  0  0
 15 16  1  0  0  0  0
 16 17  2  0  0  0  0
 16 19  1  0  0  0  0
 17 18  1  0  0  0  0
 18 21  2  0  0  0  0
 18 22  1  0  0  0  0
 19 42  1  0  0  0  0
 19 43  1  0  0  0  0
 19 44  1  0  0  0  0
 20 23  2  0  0  0  0
 20 24  1  0  0  0  0
 21 25  1  0  0  0  0
 21 45  1  0  0  0  0
 22 26  2  0  0  0  0
 22 46  1  0  0  0  0
 23 27  1  0  0  0  0
 24 28  2  0  0  0  0
 24 47  1  0  0  0  0
 25 29  2  0  0  0  0
 25 48  1  0  0  0  0
 26 29  1  0  0  0  0
 26 49  1  0  0  0  0
 27 30  2  0  0  0  0
 27 50  1  0  0  0  0
 28 30  1  0  0  0  0
 28 51  1  0  0  0  0
M  END
>  <DRUGBANK_ID>
DB06155

>  <COMMON_NAME>
Rimonabant

>  <CAS_NUMBER>
168273-06-1

>  <UNII>
RML78EN3XE

>  <SYNONYMS>
Rimonabant

$$$$
