
 OpenBabel10282417072D

138140  0  0  1  0  0  0  0  0999 V2000
   17.5303   -9.2087    0.0000 C   0  0  1  0  0  0  0  0  0  0  0  0
   18.2484   -8.7918    0.0000 C   0  0  1  0  0  0  0  0  0  0  0  0
   16.8096   -8.7952    0.0000 O   0  0  0  0  0  0  0  0  0  0  0  0
   17.5303  -10.0323    0.0000 C   0  0  0  0  0  0  0  0  0  0  0  0
   18.2484   -7.9682    0.0000 C   0  0  2  0  0  0  0  0  0  0  0  0
   18.9655   -9.2053    0.0000 C   0  0  0  0  0  0  0  0  0  0  0  0
   16.8096   -7.9682    0.0000 C   0  0  1  0  0  0  0  0  0  0  0  0
   16.8165  -10.4458    0.0000 C   0  0  1  0  0  0  0  0  0  0  0  0
   17.5303   -7.5547    0.0000 C   0  0  0  0  0  0  0  0  0  0  0  0
   18.9620   -7.5513    0.0000 O   0  0  0  0  0  0  0  0  0  0  0  0
   18.9655  -10.0323    0.0000 O   0  0  0  0  0  0  0  0  0  0  0  0
   19.6793   -8.7918    0.0000 O   0  0  0  0  0  0  0  0  0  0  0  0
   16.0992   -7.5582    0.0000 C   0  0  0  0  0  0  0  0  0  0  0  0
   16.8061   -7.1411    0.0000 O   0  0  0  0  0  0  0  0  0  0  0  0
   16.8199  -11.2728    0.0000 O   0  0  0  0  0  0  0  0  0  0  0  0
   16.1061  -10.0392    0.0000 C   0  0  0  0  0  0  0  0  0  0  0  0
   15.3853   -7.9716    0.0000 C   0  0  2  0  0  0  0  0  0  0  0  0
   16.1061  -11.6898    0.0000 C   0  0  1  0  0  0  0  0  0  0  0  0
   15.3922  -10.4493    0.0000 C   0  0  0  0  0  0  0  0  0  0  0  0
   14.6675   -7.5616    0.0000 C   0  0  0  0  0  0  0  0  0  0  0  0
   15.3853   -8.7987    0.0000 O   0  0  0  0  0  0  0  0  0  0  0  0
   16.1096  -12.5210    0.0000 C   0  0  2  0  0  0  0  0  0  0  0  0
   15.3922  -11.2764    0.0000 O   0  0  0  0  0  0  0  0  0  0  0  0
   14.6784  -10.0468    0.0000 C   0  0  0  0  0  0  0  0  0  0  0  0
   13.9537   -7.9751    0.0000 C   0  0  2  0  0  0  0  0  0  0  0  0
   15.3958  -12.9346    0.0000 C   0  0  2  0  0  0  0  0  0  0  0  0
   16.8276  -12.9269    0.0000 O   0  0  0  0  0  0  0  0  0  0  0  0
   14.6784  -11.6898    0.0000 C   0  0  1  0  0  0  0  0  0  0  0  0
   13.9606  -10.4603    0.0000 C   0  0  0  0  0  0  0  0  0  0  0  0
   13.2399   -7.5651    0.0000 C   0  0  1  0  0  0  0  0  0  0  0  0
   13.9571   -8.8021    0.0000 O   0  0  0  0  0  0  0  0  0  0  0  0
   14.6784  -12.5210    0.0000 C   0  0  1  0  0  0  0  0  0  0  0  0
   15.3958  -13.7615    0.0000 N   0  0  0  0  0  0  0  0  0  0  0  0
   13.9571  -11.2839    0.0000 C   0  0  0  0  0  0  0  0  0  0  0  0
   13.2467  -10.0502    0.0000 C   0  0  0  0  0  0  0  0  0  0  0  0
   12.5295   -7.9827    0.0000 C   0  0  0  0  0  0  0  0  0  0  0  0
   13.2399   -6.7379    0.0000 O   0  0  0  0  0  0  0  0  0  0  0  0
   13.9606  -12.9380    0.0000 O   0  0  0  0  0  0  0  0  0  0  0  0
   12.5364  -10.4638    0.0000 C   0  0  0  0  0  0  0  0  0  0  0  0
   11.8115   -7.5726    0.0000 C   0  0  0  0  0  0  0  0  0  0  0  0
   11.8226  -10.0537    0.0000 C   0  0  0  0  0  0  0  0  0  0  0  0
   11.0976   -7.9862    0.0000 C   0  0  2  0  0  0  0  0  0  0  0  0
   11.1046  -10.4672    0.0000 C   0  0  0  0  0  0  0  0  0  0  0  0
   10.3838   -7.5761    0.0000 C   0  0  0  0  0  0  0  0  0  0  0  0
   11.0976   -8.8131    0.0000 O   0  0  0  0  0  0  0  0  0  0  0  0
   10.3907  -10.0571    0.0000 C   0  0  0  0  0  0  0  0  0  0  0  0
    9.6700   -7.9896    0.0000 C   0  0  2  0  0  0  0  0  0  0  0  0
    9.6769  -10.4707    0.0000 C   0  0  0  0  0  0  0  0  0  0  0  0
    8.9555   -7.5795    0.0000 C   0  0  0  0  0  0  0  0  0  0  0  0
    9.6735   -8.8166    0.0000 O   0  0  0  0  0  0  0  0  0  0  0  0
    8.9666  -10.0606    0.0000 C   0  0  0  0  0  0  0  0  0  0  0  0
    8.2417   -7.9931    0.0000 C   0  0  0  0  0  0  0  0  0  0  0  0
    8.2451  -10.4741    0.0000 C   0  0  0  0  0  0  0  0  0  0  0  0
    7.5279   -7.5830    0.0000 O   0  0  0  0  0  0  0  0  0  0  0  0
    8.2417   -8.8200    0.0000 O   0  0  0  0  0  0  0  0  0  0  0  0
    7.5314  -10.0640    0.0000 C   0  0  0  0  0  0  0  0  0  0  0  0
    6.8141   -7.9965    0.0000 C   0  0  2  0  0  0  0  0  0  0  0  0
    6.8176  -10.4776    0.0000 C   0  0  0  0  0  0  0  0  0  0  0  0
    6.8141   -8.8235    0.0000 C   0  0  1  0  0  0  0  0  0  0  0  0
    6.0962   -7.5830    0.0000 C   0  0  0  0  0  0  0  0  0  0  0  0
    6.0962  -10.0640    0.0000 C   0  0  1  0  0  0  0  0  0  0  0  0
    6.0962   -9.2371    0.0000 C   0  0  1  0  0  0  0  0  0  0  0  0
    7.5314   -9.2371    0.0000 C   0  0  0  0  0  0  0  0  0  0  0  0
    5.3872  -10.4776    0.0000 C   0  0  0  0  0  0  0  0  0  0  0  0
    5.3872   -8.8235    0.0000 O   0  0  0  0  0  0  0  0  0  0  0  0
   18.2392   -9.6196    0.0000 H   0  0  0  0  0  0  0  0  0  0  0  0
   18.2500   -9.8618    0.0000 H   0  0  0  0  0  0  0  0  0  0  0  0
   18.4573  -10.5666    0.0000 H   0  0  0  0  0  0  0  0  0  0  0  0
   17.5315  -11.1023    0.0000 H   0  0  0  0  0  0  0  0  0  0  0  0
   19.1764   -8.5008    0.0000 H   0  0  0  0  0  0  0  0  0  0  0  0
   17.7446  -10.9782    0.0000 H   0  0  0  0  0  0  0  0  0  0  0  0
   17.5311   -6.4847    0.0000 H   0  0  0  0  0  0  0  0  0  0  0  0
   16.6046   -7.0181    0.0000 H   0  0  0  0  0  0  0  0  0  0  0  0
   19.8045   -8.0320    0.0000 H   0  0  0  0  0  0  0  0  0  0  0  0
   18.1540  -10.5008    0.0000 H   0  0  0  0  0  0  0  0  0  0  0  0
   16.0984   -6.4882    0.0000 H   0  0  0  0  0  0  0  0  0  0  0  0
   15.1720   -7.0241    0.0000 H   0  0  0  0  0  0  0  0  0  0  0  0
   17.6441   -6.6525    0.0000 H   0  0  0  0  0  0  0  0  0  0  0  0
   16.1053   -9.0072    0.0000 H   0  0  0  0  0  0  0  0  0  0  0  0
   16.3123   -8.5060    0.0000 H   0  0  0  0  0  0  0  0  0  0  0  0
   16.1041  -10.6198    0.0000 H   0  0  0  0  0  0  0  0  0  0  0  0
   15.3963  -11.4813    0.0000 H   0  0  0  0  0  0  0  0  0  0  0  0
   14.6642   -6.4916    0.0000 H   0  0  0  0  0  0  0  0  0  0  0  0
   13.7397   -7.0287    0.0000 H   0  0  0  0  0  0  0  0  0  0  0  0
   14.5453   -9.2837    0.0000 H   0  0  0  0  0  0  0  0  0  0  0  0
   17.0327  -11.9799    0.0000 H   0  0  0  0  0  0  0  0  0  0  0  0
   14.6737   -9.0148    0.0000 H   0  0  0  0  0  0  0  0  0  0  0  0
   14.8818   -8.5075    0.0000 H   0  0  0  0  0  0  0  0  0  0  0  0
   16.3229  -13.4689    0.0000 H   0  0  0  0  0  0  0  0  0  0  0  0
   16.8364  -13.8969    0.0000 H   0  0  0  0  0  0  0  0  0  0  0  0
   14.6718  -10.6198    0.0000 H   0  0  0  0  0  0  0  0  0  0  0  0
   13.9612  -11.4923    0.0000 H   0  0  0  0  0  0  0  0  0  0  0  0
   14.1660   -7.0291    0.0000 H   0  0  0  0  0  0  0  0  0  0  0  0
   13.1191   -9.2905    0.0000 H   0  0  0  0  0  0  0  0  0  0  0  0
   14.6802  -13.5910    0.0000 H   0  0  0  0  0  0  0  0  0  0  0  0
   14.5125  -14.2715    0.0000 H   0  0  0  0  0  0  0  0  0  0  0  0
   16.2791  -14.2715    0.0000 H   0  0  0  0  0  0  0  0  0  0  0  0
   13.9453  -10.2140    0.0000 H   0  0  0  0  0  0  0  0  0  0  0  0
   13.0364  -11.8291    0.0000 H   0  0  0  0  0  0  0  0  0  0  0  0
   13.0246  -10.7592    0.0000 H   0  0  0  0  0  0  0  0  0  0  0  0
   13.2437   -9.0182    0.0000 H   0  0  0  0  0  0  0  0  0  0  0  0
   12.5362   -9.0527    0.0000 H   0  0  0  0  0  0  0  0  0  0  0  0
   11.6058   -8.5227    0.0000 H   0  0  0  0  0  0  0  0  0  0  0  0
   14.0799   -6.2529    0.0000 H   0  0  0  0  0  0  0  0  0  0  0  0
   13.1193  -12.4553    0.0000 H   0  0  0  0  0  0  0  0  0  0  0  0
   12.5394  -11.4958    0.0000 H   0  0  0  0  0  0  0  0  0  0  0  0
   11.8082   -6.5026    0.0000 H   0  0  0  0  0  0  0  0  0  0  0  0
   10.8836   -7.0397    0.0000 H   0  0  0  0  0  0  0  0  0  0  0  0
   11.8221   -9.0217    0.0000 H   0  0  0  0  0  0  0  0  0  0  0  0
   12.0246   -8.5205    0.0000 H   0  0  0  0  0  0  0  0  0  0  0  0
   11.1052  -11.4992    0.0000 H   0  0  0  0  0  0  0  0  0  0  0  0
   10.3819   -6.5061    0.0000 H   0  0  0  0  0  0  0  0  0  0  0  0
    9.4563   -7.0426    0.0000 H   0  0  0  0  0  0  0  0  0  0  0  0
   10.2576   -9.2981    0.0000 H   0  0  0  0  0  0  0  0  0  0  0  0
   10.3888   -9.0251    0.0000 H   0  0  0  0  0  0  0  0  0  0  0  0
   10.5982   -8.5220    0.0000 H   0  0  0  0  0  0  0  0  0  0  0  0
    9.6777  -11.5027    0.0000 H   0  0  0  0  0  0  0  0  0  0  0  0
    8.9533   -6.5095    0.0000 H   0  0  0  0  0  0  0  0  0  0  0  0
    8.0279   -7.0462    0.0000 H   0  0  0  0  0  0  0  0  0  0  0  0
    8.8355   -9.3052    0.0000 H   0  0  0  0  0  0  0  0  0  0  0  0
    8.9682   -9.0286    0.0000 H   0  0  0  0  0  0  0  0  0  0  0  0
    8.2445  -11.5061    0.0000 H   0  0  0  0  0  0  0  0  0  0  0  0
    7.5295   -9.0320    0.0000 H   0  0  0  0  0  0  0  0  0  0  0  0
    6.8128   -6.9265    0.0000 H   0  0  0  0  0  0  0  0  0  0  0  0
    6.8200  -11.5096    0.0000 H   0  0  0  0  0  0  0  0  0  0  0  0
    7.7406   -8.2882    0.0000 H   0  0  0  0  0  0  0  0  0  0  0  0
    6.0951   -6.5130    0.0000 H   0  0  0  0  0  0  0  0  0  0  0  0
    5.1701   -8.1189    0.0000 H   0  0  0  0  0  0  0  0  0  0  0  0
    5.1690   -7.0489    0.0000 H   0  0  0  0  0  0  0  0  0  0  0  0
    6.1002  -11.1340    0.0000 H   0  0  0  0  0  0  0  0  0  0  0  0
    6.0991   -8.1671    0.0000 H   0  0  0  0  0  0  0  0  0  0  0  0
    7.5320  -10.3071    0.0000 H   0  0  0  0  0  0  0  0  0  0  0  0
    8.4577   -8.7016    0.0000 H   0  0  0  0  0  0  0  0  0  0  0  0
    8.4583   -9.7716    0.0000 H   0  0  0  0  0  0  0  0  0  0  0  0
    4.4582   -9.9468    0.0000 H   0  0  0  0  0  0  0  0  0  0  0  0
    5.3920  -11.5476    0.0000 H   0  0  0  0  0  0  0  0  0  0  0  0
    4.4630  -11.0168    0.0000 H   0  0  0  0  0  0  0  0  0  0  0  0
    5.3916   -7.8535    0.0000 H   0  0  0  0  0  0  0  0  0  0  0  0
  1  2  1  0  0  0  0
  1  3  1  0  0  0  0
  1  4  1  0  0  0  0
  1 66  1  1  0  0  0
  2  5  1  0  0  0  0
  2  6  1  0  0  0  0
  2 67  1  6  0  0  0
  3  7  1  0  0  0  0
  4  8  1  0  0  0  0
  4 68  1  0  0  0  0
  4 69  1  0  0  0  0
  5  9  1  0  0  0  0
  5 10  1  0  0  0  0
  5 70  1  1  0  0  0
  6 11  1  0  0  0  0
  6 12  2  0  0  0  0
  7 13  1  0  0  0  0
  7 14  1  1  0  0  0
  7  9  1  0  0  0  0
  8 15  1  0  0  0  0
  8 16  1  0  0  0  0
  8 71  1  6  0  0  0
  9 72  1  0  0  0  0
  9 73  1  0  0  0  0
 10 74  1  0  0  0  0
 11 75  1  0  0  0  0
 13 17  1  0  0  0  0
 13 76  1  0  0  0  0
 13 77  1  0  0  0  0
 14 78  1  0  0  0  0
 15 18  1  0  0  0  0
 16 19  2  0  0  0  0
 16 79  1  0  0  0  0
 17 20  1  0  0  0  0
 17 21  1  0  0  0  0
 17 80  1  6  0  0  0
 18 22  1  0  0  0  0
 18 23  1  0  0  0  0
 18 81  1  6  0  0  0
 19 24  1  0  0  0  0
 19 82  1  0  0  0  0
 20 25  1  0  0  0  0
 20 83  1  0  0  0  0
 20 84  1  0  0  0  0
 21 85  1  0  0  0  0
 22 26  1  0  0  0  0
 22 27  1  0  0  0  0
 22 86  1  6  0  0  0
 23 28  1  0  0  0  0
 24 29  2  0  0  0  0
 24 87  1  0  0  0  0
 25 30  1  0  0  0  0
 25 31  1  0  0  0  0
 25 88  1  6  0  0  0
 26 32  1  0  0  0  0
 26 33  1  0  0  0  0
 26 89  1  6  0  0  0
 27 90  1  0  0  0  0
 28 34  1  0  0  0  0
 28 32  1  0  0  0  0
 28 91  1  6  0  0  0
 29 35  1  0  0  0  0
 29 92  1  0  0  0  0
 30 36  1  0  0  0  0
 30 37  1  0  0  0  0
 30 93  1  6  0  0  0
 31 94  1  0  0  0  0
 32 38  1  0  0  0  0
 32 95  1  1  0  0  0
 33 96  1  0  0  0  0
 33 97  1  0  0  0  0
 34 98  1  0  0  0  0
 34 99  1  0  0  0  0
 34100  1  0  0  0  0
 35 39  2  0  0  0  0
 35101  1  0  0  0  0
 36 40  1  0  0  0  0
 36102  1  0  0  0  0
 36103  1  0  0  0  0
 37104  1  0  0  0  0
 38105  1  0  0  0  0
 39 41  1  0  0  0  0
 39106  1  0  0  0  0
 40 42  1  0  0  0  0
 40107  1  0  0  0  0
 40108  1  0  0  0  0
 41 43  2  0  0  0  0
 41109  1  0  0  0  0
 42 44  1  0  0  0  0
 42 45  1  0  0  0  0
 42110  1  6  0  0  0
 43 46  1  0  0  0  0
 43111  1  0  0  0  0
 44 47  1  0  0  0  0
 44112  1  0  0  0  0
 44113  1  0  0  0  0
 45114  1  0  0  0  0
 46 48  2  0  0  0  0
 46115  1  0  0  0  0
 47 49  1  0  0  0  0
 47 50  1  0  0  0  0
 47116  1  6  0  0  0
 48 51  1  0  0  0  0
 48117  1  0  0  0  0
 49 52  1  0  0  0  0
 49118  1  0  0  0  0
 49119  1  0  0  0  0
 50120  1  0  0  0  0
 51 53  2  0  0  0  0
 51121  1  0  0  0  0
 52 54  1  0  0  0  0
 52 55  2  0  0  0  0
 53 56  1  0  0  0  0
 53122  1  0  0  0  0
 54 57  1  0  0  0  0
 56 58  2  0  0  0  0
 56123  1  0  0  0  0
 57 59  1  0  0  0  0
 57 60  1  0  0  0  0
 57124  1  1  0  0  0
 58 61  1  0  0  0  0
 58125  1  0  0  0  0
 59 62  1  0  0  0  0
 59 63  1  0  0  0  0
 59126  1  1  0  0  0
 60127  1  0  0  0  0
 60128  1  0  0  0  0
 60129  1  0  0  0  0
 61 64  1  0  0  0  0
 61 62  1  0  0  0  0
 61130  1  1  0  0  0
 62 65  1  0  0  0  0
 62131  1  6  0  0  0
 63132  1  0  0  0  0
 63133  1  0  0  0  0
 63134  1  0  0  0  0
 64135  1  0  0  0  0
 64136  1  0  0  0  0
 64137  1  0  0  0  0
 65138  1  0  0  0  0
M  END
>  <DRUGBANK_ID>
DB00681

>  <SECONDARY_ACCESSION_NUMBERS>
APRD00797

>  <COMMON_NAME>
Amphotericin B

>  <CAS_NUMBER>
1397-89-3

>  <UNII>
7XU7A7DROE

>  <SYNONYMS>
Amfotericina B; AMPH-b; Amphotericin B; Amphot√©ricine B; Amphotericinum B; Liposomal amphotericin B

$$$$
