791
 OpenBabel10282417072D

 21 21  0  0  0  0  0  0  0  0999 V2000
    1.3935    0.8384    0.0000 C   0  0  0  0  0  0  0  0  0  0  0  0
    1.3935    0.0134    0.0000 C   0  0  0  0  0  0  0  0  0  0  0  0
    0.6790   -0.3991    0.0000 C   0  0  0  0  0  0  0  0  0  0  0  0
   -0.0355    0.0134    0.0000 C   0  0  0  0  0  0  0  0  0  0  0  0
   -0.0355    0.8384    0.0000 C   0  0  0  0  0  0  0  0  0  0  0  0
    0.6790    1.2509    0.0000 C   0  0  0  0  0  0  0  0  0  0  0  0
   -0.7499   -0.3991    0.0000 C   0  0  0  0  0  0  0  0  0  0  0  0
   -1.4644    0.0134    0.0000 C   0  0  0  0  0  0  0  0  0  0  0  0
   -0.7499   -1.2241    0.0000 C   0  0  0  0  0  0  0  0  0  0  0  0
   -2.1789   -0.3991    0.0000 O   0  0  0  0  0  0  0  0  0  0  0  0
   -1.4644    0.8384    0.0000 O   0  0  0  0  0  0  0  0  0  0  0  0
   -1.4644   -1.6366    0.0000 O   0  0  0  0  0  0  0  0  0  0  0  0
   -0.0355   -1.6366    0.0000 O   0  0  0  0  0  0  0  0  0  0  0  0
    2.2872    1.3544    0.0000 H   0  0  0  0  0  0  0  0  0  0  0  0
    2.2872   -0.5026    0.0000 H   0  0  0  0  0  0  0  0  0  0  0  0
    0.6790   -1.4311    0.0000 H   0  0  0  0  0  0  0  0  0  0  0  0
   -0.9292    1.3544    0.0000 H   0  0  0  0  0  0  0  0  0  0  0  0
    0.6790    2.2829    0.0000 H   0  0  0  0  0  0  0  0  0  0  0  0
   -1.6765   -0.9341    0.0000 H   0  0  0  0  0  0  0  0  0  0  0  0
   -2.9904    0.0694    0.0000 H   0  0  0  0  0  0  0  0  0  0  0  0
   -2.2759   -1.1681    0.0000 H   0  0  0  0  0  0  0  0  0  0  0  0
  1  2  2  0  0  0  0
  1  6  1  0  0  0  0
  1 14  1  0  0  0  0
  2  3  1  0  0  0  0
  2 15  1  0  0  0  0
  3  4  2  0  0  0  0
  3 16  1  0  0  0  0
  4  5  1  0  0  0  0
  4  7  1  0  0  0  0
  5  6  2  0  0  0  0
  5 17  1  0  0  0  0
  6 18  1  0  0  0  0
  7  8  1  0  0  0  0
  7  9  1  0  0  0  0
  7 19  1  0  0  0  0
  8 10  1  0  0  0  0
  8 11  2  0  0  0  0
  9 12  1  0  0  0  0
  9 13  2  0  0  0  0
 10 20  1  0  0  0  0
 12 21  1  0  0  0  0
M  END
>  <DRUGBANK_ID>
DB04080

>  <SECONDARY_ACCESSION_NUMBERS>
EXPT00305

>  <COMMON_NAME>
RU78191

>  <UNII>
92EX195E1G

$$$$
