
 OpenBabel10282417072D

 26 26  0  0  0  0  0  0  0  0999 V2000
   -0.5787   -0.1278    0.0000 O   0  0  0  0  0  0  0  0  0  0  0  0
    0.8502    1.5221    0.0000 N   0  0  0  0  0  0  0  0  0  0  0  0
    0.8502    2.3471    0.0000 N   0  0  0  0  0  0  0  0  0  0  0  0
    0.1357    1.1096    0.0000 C   0  0  3  0  0  0  0  0  0  0  0  0
    0.1357    0.2846    0.0000 C   0  0  0  0  0  0  0  0  0  0  0  0
   -0.5787    1.5221    0.0000 C   0  0  0  0  0  0  0  0  0  0  0  0
   -0.5787   -0.9529    0.0000 C   0  0  0  0  0  0  0  0  0  0  0  0
    0.1357   -1.3653    0.0000 C   0  0  0  0  0  0  0  0  0  0  0  0
   -1.2932   -1.3653    0.0000 C   0  0  0  0  0  0  0  0  0  0  0  0
    0.1357   -2.1904    0.0000 C   0  0  0  0  0  0  0  0  0  0  0  0
   -1.2932   -2.1904    0.0000 C   0  0  0  0  0  0  0  0  0  0  0  0
   -0.5787   -2.6029    0.0000 C   0  0  0  0  0  0  0  0  0  0  0  0
    1.2932    1.2663    0.0000 H   0  0  0  0  0  0  0  0  0  0  0  0
    1.2932    2.6029    0.0000 H   0  0  0  0  0  0  0  0  0  0  0  0
    0.4071    2.6029    0.0000 H   0  0  0  0  0  0  0  0  0  0  0  0
    1.0623    0.5746    0.0000 H   0  0  0  0  0  0  0  0  0  0  0  0
    1.0623   -0.2504    0.0000 H   0  0  0  0  0  0  0  0  0  0  0  0
    1.0624    0.8196    0.0000 H   0  0  0  0  0  0  0  0  0  0  0  0
   -0.5787    2.5921    0.0000 H   0  0  0  0  0  0  0  0  0  0  0  0
   -1.5054    0.9871    0.0000 H   0  0  0  0  0  0  0  0  0  0  0  0
   -1.5053    2.0571    0.0000 H   0  0  0  0  0  0  0  0  0  0  0  0
    1.0294   -0.8493    0.0000 H   0  0  0  0  0  0  0  0  0  0  0  0
   -2.1869   -0.8492    0.0000 H   0  0  0  0  0  0  0  0  0  0  0  0
    1.0294   -2.7064    0.0000 H   0  0  0  0  0  0  0  0  0  0  0  0
   -2.1869   -2.7064    0.0000 H   0  0  0  0  0  0  0  0  0  0  0  0
   -0.5787   -3.6349    0.0000 H   0  0  0  0  0  0  0  0  0  0  0  0
  1  5  1  0  0  0  0
  1  7  1  0  0  0  0
  2  3  1  0  0  0  0
  2  4  1  0  0  0  0
  2 13  1  0  0  0  0
  3 14  1  0  0  0  0
  3 15  1  0  0  0  0
  4  5  1  0  0  0  0
  4  6  1  0  0  0  0
  4 16  1  0  0  0  0
  5 17  1  0  0  0  0
  5 18  1  0  0  0  0
  6 19  1  0  0  0  0
  6 20  1  0  0  0  0
  6 21  1  0  0  0  0
  7  8  2  0  0  0  0
  7  9  1  0  0  0  0
  8 10  1  0  0  0  0
  8 22  1  0  0  0  0
  9 11  2  0  0  0  0
  9 23  1  0  0  0  0
 10 12  2  0  0  0  0
 10 24  1  0  0  0  0
 11 12  1  0  0  0  0
 11 25  1  0  0  0  0
 12 26  1  0  0  0  0
M  END
>  <DRUGBANK_ID>
DB09251

>  <COMMON_NAME>
Phenoxypropazine

>  <CAS_NUMBER>
3818-37-9

>  <UNII>
8E92V52324

$$$$
