401
 OpenBabel10282417072D

 52 53  0  0  1  0  0  0  0  0999 V2000
    3.7935   -0.5693    0.0000 O   0  0  0  0  0  0  0  0  0  0  0  0
    8.0804   -0.5693    0.0000 O   0  0  0  0  0  0  0  0  0  0  0  0
    4.5080    0.6683    0.0000 O   0  0  0  0  0  0  0  0  0  0  0  0
    7.3659    0.6683    0.0000 O   0  0  0  0  0  0  0  0  0  0  0  0
    7.3659    2.3183    0.0000 O   0  5  0  0  0  0  0  0  0  0  0  0
    8.0804    1.0808    0.0000 O   0  0  0  0  0  0  0  0  0  0  0  0
    5.9370   -1.8068    0.0000 N   0  0  0  0  0  0  0  0  0  0  0  0
    7.3659    1.4933    0.0000 N   0  3  0  0  0  0  0  0  0  0  0  0
    5.9370   -0.1568    0.0000 C   0  0  3  0  0  0  0  0  0  0  0  0
    5.2224   -0.5693    0.0000 C   0  0  0  0  0  0  0  0  0  0  0  0
    6.6515   -0.5693    0.0000 C   0  0  0  0  0  0  0  0  0  0  0  0
    5.9370    0.6683    0.0000 C   0  0  0  0  0  0  0  0  0  0  0  0
    5.2224   -1.3943    0.0000 C   0  0  0  0  0  0  0  0  0  0  0  0
    6.6515   -1.3943    0.0000 C   0  0  0  0  0  0  0  0  0  0  0  0
    4.5080   -0.1568    0.0000 C   0  0  0  0  0  0  0  0  0  0  0  0
    6.6515    1.0808    0.0000 C   0  0  0  0  0  0  0  0  0  0  0  0
    5.2224    1.0808    0.0000 C   0  0  0  0  0  0  0  0  0  0  0  0
    4.5080   -1.8068    0.0000 C   0  0  0  0  0  0  0  0  0  0  0  0
    7.3659   -0.1568    0.0000 C   0  0  0  0  0  0  0  0  0  0  0  0
    7.3659   -1.8068    0.0000 C   0  0  0  0  0  0  0  0  0  0  0  0
    2.3645   -0.5693    0.0000 C   0  0  0  0  0  0  0  0  0  0  0  0
    3.0791   -0.1568    0.0000 C   0  0  0  0  0  0  0  0  0  0  0  0
    6.6515    1.9058    0.0000 C   0  0  0  0  0  0  0  0  0  0  0  0
    5.2224    1.9058    0.0000 C   0  0  0  0  0  0  0  0  0  0  0  0
    5.9370    2.3183    0.0000 C   0  0  0  0  0  0  0  0  0  0  0  0
    1.6500   -0.1568    0.0000 C   0  0  0  0  0  0  0  0  0  0  0  0
    2.3645   -1.3943    0.0000 C   0  0  0  0  0  0  0  0  0  0  0  0
    8.7949   -0.1568    0.0000 C   0  0  0  0  0  0  0  0  0  0  0  0
    5.9370   -2.7913    0.0000 H   0  0  0  0  0  0  0  0  0  0  0  0
    5.9370   -1.2268    0.0000 H   0  0  0  0  0  0  0  0  0  0  0  0
    4.3287    0.5648    0.0000 H   0  0  0  0  0  0  0  0  0  0  0  0
    3.5813   -1.2718    0.0000 H   0  0  0  0  0  0  0  0  0  0  0  0
    4.5080   -2.8768    0.0000 H   0  0  0  0  0  0  0  0  0  0  0  0
    3.5814   -2.3418    0.0000 H   0  0  0  0  0  0  0  0  0  0  0  0
    7.3659   -2.8768    0.0000 H   0  0  0  0  0  0  0  0  0  0  0  0
    8.2926   -1.2718    0.0000 H   0  0  0  0  0  0  0  0  0  0  0  0
    8.2925   -2.3418    0.0000 H   0  0  0  0  0  0  0  0  0  0  0  0
    1.4379   -1.1043    0.0000 H   0  0  0  0  0  0  0  0  0  0  0  0
    3.0792    0.9132    0.0000 H   0  0  0  0  0  0  0  0  0  0  0  0
    2.1525    0.3783    0.0000 H   0  0  0  0  0  0  0  0  0  0  0  0
    7.5452    2.4218    0.0000 H   0  0  0  0  0  0  0  0  0  0  0  0
    4.3287    2.4218    0.0000 H   0  0  0  0  0  0  0  0  0  0  0  0
    5.9370    3.3503    0.0000 H   0  0  0  0  0  0  0  0  0  0  0  0
    1.6500    0.9132    0.0000 H   0  0  0  0  0  0  0  0  0  0  0  0
    0.7234   -0.6918    0.0000 H   0  0  0  0  0  0  0  0  0  0  0  0
    0.7233    0.3782    0.0000 H   0  0  0  0  0  0  0  0  0  0  0  0
    1.4379   -1.9293    0.0000 H   0  0  0  0  0  0  0  0  0  0  0  0
    3.2911   -1.9293    0.0000 H   0  0  0  0  0  0  0  0  0  0  0  0
    2.3645   -2.4643    0.0000 H   0  0  0  0  0  0  0  0  0  0  0  0
    9.7215   -0.6918    0.0000 H   0  0  0  0  0  0  0  0  0  0  0  0
    8.7949    0.9132    0.0000 H   0  0  0  0  0  0  0  0  0  0  0  0
    9.7216    0.3782    0.0000 H   0  0  0  0  0  0  0  0  0  0  0  0
  1 15  1  0  0  0  0
  1 22  1  0  0  0  0
  2 19  1  0  0  0  0
  2 28  1  0  0  0  0
  3 15  2  0  0  0  0
  4 19  2  0  0  0  0
  5  8  1  0  0  0  0
  6  8  2  0  0  0  0
  7 13  1  0  0  0  0
  7 14  1  0  0  0  0
  7 29  1  0  0  0  0
  8 16  1  0  0  0  0
  9 10  1  0  0  0  0
  9 11  1  0  0  0  0
  9 12  1  0  0  0  0
  9 30  1  0  0  0  0
 10 13  2  0  0  0  0
 10 15  1  0  0  0  0
 11 14  2  0  0  0  0
 11 19  1  0  0  0  0
 12 16  1  0  0  0  0
 12 17  2  0  0  0  0
 13 18  1  0  0  0  0
 14 20  1  0  0  0  0
 16 23  2  0  0  0  0
 17 24  1  0  0  0  0
 17 31  1  0  0  0  0
 18 32  1  0  0  0  0
 18 33  1  0  0  0  0
 18 34  1  0  0  0  0
 20 35  1  0  0  0  0
 20 36  1  0  0  0  0
 20 37  1  0  0  0  0
 21 22  1  0  0  0  0
 21 26  1  0  0  0  0
 21 27  1  0  0  0  0
 21 38  1  0  0  0  0
 22 39  1  0  0  0  0
 22 40  1  0  0  0  0
 23 25  1  0  0  0  0
 23 41  1  0  0  0  0
 24 25  2  0  0  0  0
 24 42  1  0  0  0  0
 25 43  1  0  0  0  0
 26 44  1  0  0  0  0
 26 45  1  0  0  0  0
 26 46  1  0  0  0  0
 27 47  1  0  0  0  0
 27 48  1  0  0  0  0
 27 49  1  0  0  0  0
 28 50  1  0  0  0  0
 28 51  1  0  0  0  0
 28 52  1  0  0  0  0
M  CHG  2   5  -1   8   1
M  END
>  <DRUGBANK_ID>
DB00401

>  <SECONDARY_ACCESSION_NUMBERS>
APRD00635

>  <COMMON_NAME>
Nisoldipine

>  <CAS_NUMBER>
63675-72-9

>  <UNII>
4I8HAB65SZ

>  <SYNONYMS>
isobutyl methyl 2,6-dimethyl-4-(2-nitrophenyl)-1,4-dihydropyridine-3,5-dicarboxylate; Nisoldipin; Nisoldipina; Nisoldipine; Nisoldipino; Nisoldipinum

$$$$
