
 OpenBabel10282417072D

118117  0  0  0  0  0  0  0  0999 V2000
   -0.7144    0.5608    0.0000 P   0  0  3  0  0  0  0  0  0  0  0  0
   -0.7144   -0.2641    0.0000 O   0  0  0  0  0  0  0  0  0  0  0  0
    1.4289   -1.5016    0.0000 C   0  0  0  0  0  0  0  0  0  0  0  0
   -1.4289    0.9733    0.0000 O   0  0  0  0  0  0  0  0  0  0  0  0
   -1.4289   -3.1516    0.0000 C   0  0  0  0  0  0  0  0  0  0  0  0
    0.7144    3.0358    0.0000 N   0  3  0  0  0  0  0  0  0  0  0  0
    0.7144   -1.9141    0.0000 O   0  0  0  0  0  0  0  0  0  0  0  0
    0.0000    0.9733    0.0000 O   0  0  0  0  0  0  0  0  0  0  0  0
    0.0000   -0.6766    0.0000 C   0  0  0  0  0  0  0  0  0  0  0  0
    1.4289   -0.6766    0.0000 O   0  0  0  0  0  0  0  0  0  0  0  0
   -1.4289   -3.9766    0.0000 O   0  0  0  0  0  0  0  0  0  0  0  0
   -0.7144   -2.7391    0.0000 O   0  0  0  0  0  0  0  0  0  0  0  0
    0.0000   -1.5016    0.0000 C   0  0  3  0  0  0  0  0  0  0  0  0
    0.0000    1.7983    0.0000 C   0  0  0  0  0  0  0  0  0  0  0  0
   -0.7144   -1.9141    0.0000 C   0  0  0  0  0  0  0  0  0  0  0  0
    0.7144    2.2108    0.0000 C   0  0  0  0  0  0  0  0  0  0  0  0
    1.4289    3.4483    0.0000 C   0  0  0  0  0  0  0  0  0  0  0  0
    0.0000    3.4483    0.0000 C   0  0  0  0  0  0  0  0  0  0  0  0
    3.5723   -1.9141    0.0000 C   0  0  0  0  0  0  0  0  0  0  0  0
    3.5723   -2.7391    0.0000 C   0  0  0  0  0  0  0  0  0  0  0  0
    2.8578   -1.5016    0.0000 C   0  0  0  0  0  0  0  0  0  0  0  0
    2.8578   -3.1516    0.0000 C   0  0  0  0  0  0  0  0  0  0  0  0
    2.1434   -1.9141    0.0000 C   0  0  0  0  0  0  0  0  0  0  0  0
    5.0013   -1.9141    0.0000 C   0  0  0  0  0  0  0  0  0  0  0  0
    5.0013   -2.7391    0.0000 C   0  0  0  0  0  0  0  0  0  0  0  0
    4.2868   -1.5016    0.0000 C   0  0  0  0  0  0  0  0  0  0  0  0
    4.2868   -3.1516    0.0000 C   0  0  0  0  0  0  0  0  0  0  0  0
    6.4303   -1.9141    0.0000 C   0  0  0  0  0  0  0  0  0  0  0  0
    6.4303   -2.7391    0.0000 C   0  0  0  0  0  0  0  0  0  0  0  0
    5.7157   -1.5016    0.0000 C   0  0  0  0  0  0  0  0  0  0  0  0
    5.7157   -3.1516    0.0000 C   0  0  0  0  0  0  0  0  0  0  0  0
   -3.5724   -2.7391    0.0000 C   0  0  0  0  0  0  0  0  0  0  0  0
   -3.5724   -1.9141    0.0000 C   0  0  0  0  0  0  0  0  0  0  0  0
   -2.8578   -3.1516    0.0000 C   0  0  0  0  0  0  0  0  0  0  0  0
   -2.8578   -1.5016    0.0000 C   0  0  0  0  0  0  0  0  0  0  0  0
   -2.1434   -2.7391    0.0000 C   0  0  0  0  0  0  0  0  0  0  0  0
   -5.0013   -2.7391    0.0000 C   0  0  0  0  0  0  0  0  0  0  0  0
   -5.0013   -1.9141    0.0000 C   0  0  0  0  0  0  0  0  0  0  0  0
   -4.2868   -3.1516    0.0000 C   0  0  0  0  0  0  0  0  0  0  0  0
   -4.2868   -1.5016    0.0000 C   0  0  0  0  0  0  0  0  0  0  0  0
   -6.4303   -2.7391    0.0000 C   0  0  0  0  0  0  0  0  0  0  0  0
   -6.4303   -1.9141    0.0000 C   0  0  0  0  0  0  0  0  0  0  0  0
   -5.7158   -3.1516    0.0000 C   0  0  0  0  0  0  0  0  0  0  0  0
   -5.7158   -1.5016    0.0000 C   0  0  0  0  0  0  0  0  0  0  0  0
    0.7089    3.9766    0.0000 C   0  0  0  0  0  0  0  0  0  0  0  0
    0.0031    0.1398    0.0000 O   0  5  0  0  0  0  0  0  0  0  0  0
    0.9267   -0.1416    0.0000 H   0  0  0  0  0  0  0  0  0  0  0  0
    0.9266   -1.2116    0.0000 H   0  0  0  0  0  0  0  0  0  0  0  0
    0.9267   -0.9666    0.0000 H   0  0  0  0  0  0  0  0  0  0  0  0
   -0.9267    2.3333    0.0000 H   0  0  0  0  0  0  0  0  0  0  0  0
   -0.0000    2.8683    0.0000 H   0  0  0  0  0  0  0  0  0  0  0  0
   -1.6411   -1.3791    0.0000 H   0  0  0  0  0  0  0  0  0  0  0  0
   -0.7144   -0.8441    0.0000 H   0  0  0  0  0  0  0  0  0  0  0  0
    1.6411    1.6758    0.0000 H   0  0  0  0  0  0  0  0  0  0  0  0
    0.7144    1.1408    0.0000 H   0  0  0  0  0  0  0  0  0  0  0  0
    2.3555    2.9133    0.0000 H   0  0  0  0  0  0  0  0  0  0  0  0
    1.4289    4.5183    0.0000 H   0  0  0  0  0  0  0  0  0  0  0  0
    2.3556    3.9833    0.0000 H   0  0  0  0  0  0  0  0  0  0  0  0
    0.0000    4.5183    0.0000 H   0  0  0  0  0  0  0  0  0  0  0  0
   -0.9267    2.9133    0.0000 H   0  0  0  0  0  0  0  0  0  0  0  0
   -0.9266    3.9833    0.0000 H   0  0  0  0  0  0  0  0  0  0  0  0
    3.5723   -2.9841    0.0000 H   0  0  0  0  0  0  0  0  0  0  0  0
    4.4989   -2.4491    0.0000 H   0  0  0  0  0  0  0  0  0  0  0  0
    3.5723   -1.6691    0.0000 H   0  0  0  0  0  0  0  0  0  0  0  0
    4.4989   -2.2041    0.0000 H   0  0  0  0  0  0  0  0  0  0  0  0
    2.8578   -0.4316    0.0000 H   0  0  0  0  0  0  0  0  0  0  0  0
    1.9311   -0.9666    0.0000 H   0  0  0  0  0  0  0  0  0  0  0  0
    1.9312   -2.6166    0.0000 H   0  0  0  0  0  0  0  0  0  0  0  0
    2.8578   -4.2216    0.0000 H   0  0  0  0  0  0  0  0  0  0  0  0
    1.9311   -3.6866    0.0000 H   0  0  0  0  0  0  0  0  0  0  0  0
    2.1434   -2.9841    0.0000 H   0  0  0  0  0  0  0  0  0  0  0  0
    1.2168   -2.4491    0.0000 H   0  0  0  0  0  0  0  0  0  0  0  0
    5.0013   -2.9841    0.0000 H   0  0  0  0  0  0  0  0  0  0  0  0
    5.9280   -2.4491    0.0000 H   0  0  0  0  0  0  0  0  0  0  0  0
    5.0013   -1.6691    0.0000 H   0  0  0  0  0  0  0  0  0  0  0  0
    5.9280   -2.2041    0.0000 H   0  0  0  0  0  0  0  0  0  0  0  0
    4.2868   -0.4316    0.0000 H   0  0  0  0  0  0  0  0  0  0  0  0
    3.3602   -0.9666    0.0000 H   0  0  0  0  0  0  0  0  0  0  0  0
    4.2868   -4.2216    0.0000 H   0  0  0  0  0  0  0  0  0  0  0  0
    3.3602   -3.6866    0.0000 H   0  0  0  0  0  0  0  0  0  0  0  0
    7.3569   -1.3791    0.0000 H   0  0  0  0  0  0  0  0  0  0  0  0
    6.4302   -0.8441    0.0000 H   0  0  0  0  0  0  0  0  0  0  0  0
    7.3569   -3.2741    0.0000 H   0  0  0  0  0  0  0  0  0  0  0  0
    6.4302   -3.8091    0.0000 H   0  0  0  0  0  0  0  0  0  0  0  0
    5.7156   -0.4316    0.0000 H   0  0  0  0  0  0  0  0  0  0  0  0
    4.7890   -0.9666    0.0000 H   0  0  0  0  0  0  0  0  0  0  0  0
    5.7156   -4.2216    0.0000 H   0  0  0  0  0  0  0  0  0  0  0  0
    4.7890   -3.6866    0.0000 H   0  0  0  0  0  0  0  0  0  0  0  0
   -3.5725   -1.6691    0.0000 H   0  0  0  0  0  0  0  0  0  0  0  0
   -4.4991   -2.2041    0.0000 H   0  0  0  0  0  0  0  0  0  0  0  0
   -3.5725   -2.9841    0.0000 H   0  0  0  0  0  0  0  0  0  0  0  0
   -4.4991   -2.4491    0.0000 H   0  0  0  0  0  0  0  0  0  0  0  0
   -2.8577   -4.2216    0.0000 H   0  0  0  0  0  0  0  0  0  0  0  0
   -1.9311   -3.6866    0.0000 H   0  0  0  0  0  0  0  0  0  0  0  0
   -1.9312   -2.0367    0.0000 H   0  0  0  0  0  0  0  0  0  0  0  0
   -2.8577   -0.4316    0.0000 H   0  0  0  0  0  0  0  0  0  0  0  0
   -1.9311   -0.9667    0.0000 H   0  0  0  0  0  0  0  0  0  0  0  0
   -2.1434   -1.6691    0.0000 H   0  0  0  0  0  0  0  0  0  0  0  0
   -1.2168   -2.2041    0.0000 H   0  0  0  0  0  0  0  0  0  0  0  0
   -5.0013   -1.6691    0.0000 H   0  0  0  0  0  0  0  0  0  0  0  0
   -5.9279   -2.2041    0.0000 H   0  0  0  0  0  0  0  0  0  0  0  0
   -5.0013   -2.9841    0.0000 H   0  0  0  0  0  0  0  0  0  0  0  0
   -5.9279   -2.4491    0.0000 H   0  0  0  0  0  0  0  0  0  0  0  0
   -4.2868   -4.2216    0.0000 H   0  0  0  0  0  0  0  0  0  0  0  0
   -3.3601   -3.6866    0.0000 H   0  0  0  0  0  0  0  0  0  0  0  0
   -4.2868   -0.4316    0.0000 H   0  0  0  0  0  0  0  0  0  0  0  0
   -3.3601   -0.9666    0.0000 H   0  0  0  0  0  0  0  0  0  0  0  0
   -7.3569   -3.2741    0.0000 H   0  0  0  0  0  0  0  0  0  0  0  0
   -6.4303   -3.8091    0.0000 H   0  0  0  0  0  0  0  0  0  0  0  0
   -7.3569   -1.3791    0.0000 H   0  0  0  0  0  0  0  0  0  0  0  0
   -6.4303   -0.8441    0.0000 H   0  0  0  0  0  0  0  0  0  0  0  0
   -5.7158   -4.2216    0.0000 H   0  0  0  0  0  0  0  0  0  0  0  0
   -4.7892   -3.6866    0.0000 H   0  0  0  0  0  0  0  0  0  0  0  0
   -5.7158   -0.4316    0.0000 H   0  0  0  0  0  0  0  0  0  0  0  0
   -4.7892   -0.9666    0.0000 H   0  0  0  0  0  0  0  0  0  0  0  0
    1.6324    4.5170    0.0000 H   0  0  0  0  0  0  0  0  0  0  0  0
   -0.2209    4.5062    0.0000 H   0  0  0  0  0  0  0  0  0  0  0  0
    0.7026    5.0466    0.0000 H   0  0  0  0  0  0  0  0  0  0  0  0
  1 46  1  0  0  0  0
  2  1  1  0  0  0  0
  3  7  1  0  0  0  0
  4  1  2  0  0  0  0
  5 12  1  0  0  0  0
  6 16  1  0  0  0  0
  6 45  1  0  0  0  0
  7 13  1  0  0  0  0
  8  1  1  0  0  0  0
  9  2  1  0  0  0  0
  9 47  1  0  0  0  0
  9 48  1  0  0  0  0
 10  3  2  0  0  0  0
 11  5  2  0  0  0  0
 12 15  1  0  0  0  0
 13  9  1  0  0  0  0
 13 49  1  0  0  0  0
 14  8  1  0  0  0  0
 14 50  1  0  0  0  0
 14 51  1  0  0  0  0
 15 13  1  0  0  0  0
 15 52  1  0  0  0  0
 15 53  1  0  0  0  0
 16 14  1  0  0  0  0
 16 54  1  0  0  0  0
 16 55  1  0  0  0  0
 17  6  1  0  0  0  0
 17 56  1  0  0  0  0
 17 57  1  0  0  0  0
 17 58  1  0  0  0  0
 18  6  1  0  0  0  0
 18 59  1  0  0  0  0
 18 60  1  0  0  0  0
 18 61  1  0  0  0  0
 19 26  1  0  0  0  0
 19 62  1  0  0  0  0
 19 63  1  0  0  0  0
 20 27  1  0  0  0  0
 20 64  1  0  0  0  0
 20 65  1  0  0  0  0
 21 19  1  0  0  0  0
 21 66  1  0  0  0  0
 21 67  1  0  0  0  0
 22 20  1  0  0  0  0
 22 68  1  0  0  0  0
 22 69  1  0  0  0  0
 22 70  1  0  0  0  0
 23 21  1  0  0  0  0
 23  3  1  0  0  0  0
 23 71  1  0  0  0  0
 23 72  1  0  0  0  0
 24 30  1  0  0  0  0
 24 73  1  0  0  0  0
 24 74  1  0  0  0  0
 25 31  1  0  0  0  0
 25 75  1  0  0  0  0
 25 76  1  0  0  0  0
 26 24  1  0  0  0  0
 26 77  1  0  0  0  0
 26 78  1  0  0  0  0
 27 25  1  0  0  0  0
 27 79  1  0  0  0  0
 27 80  1  0  0  0  0
 28 81  1  0  0  0  0
 28 82  1  0  0  0  0
 29 28  1  0  0  0  0
 29 83  1  0  0  0  0
 29 84  1  0  0  0  0
 30 28  1  0  0  0  0
 30 85  1  0  0  0  0
 30 86  1  0  0  0  0
 31 29  1  0  0  0  0
 31 87  1  0  0  0  0
 31 88  1  0  0  0  0
 32 39  1  0  0  0  0
 32 89  1  0  0  0  0
 32 90  1  0  0  0  0
 33 40  1  0  0  0  0
 33 91  1  0  0  0  0
 33 92  1  0  0  0  0
 34 32  1  0  0  0  0
 34 93  1  0  0  0  0
 34 94  1  0  0  0  0
 35 33  1  0  0  0  0
 35 95  1  0  0  0  0
 35 96  1  0  0  0  0
 35 97  1  0  0  0  0
 36 34  1  0  0  0  0
 36  5  1  0  0  0  0
 36 98  1  0  0  0  0
 36 99  1  0  0  0  0
 37 43  1  0  0  0  0
 37100  1  0  0  0  0
 37101  1  0  0  0  0
 38 44  1  0  0  0  0
 38102  1  0  0  0  0
 38103  1  0  0  0  0
 39 37  1  0  0  0  0
 39104  1  0  0  0  0
 39105  1  0  0  0  0
 40 38  1  0  0  0  0
 40106  1  0  0  0  0
 40107  1  0  0  0  0
 41108  1  0  0  0  0
 41109  1  0  0  0  0
 42 41  1  0  0  0  0
 42110  1  0  0  0  0
 42111  1  0  0  0  0
 43 41  1  0  0  0  0
 43112  1  0  0  0  0
 43113  1  0  0  0  0
 44 42  1  0  0  0  0
 44114  1  0  0  0  0
 44115  1  0  0  0  0
 45116  1  0  0  0  0
 45117  1  0  0  0  0
 45118  1  0  0  0  0
M  CHG  2   6   1  46  -1
M  END
>  <DRUGBANK_ID>
DB11283

>  <SECONDARY_ACCESSION_NUMBERS>
DBSALT001574

>  <COMMON_NAME>
DL-dimyristoylphosphatidylcholine

>  <CAS_NUMBER>
18656-38-7

>  <UNII>
U86ZGC74V5

>  <SYNONYMS>
dimyristoyl phosphatidylcholine; dimyristoyl-phosphatidylcholine; Dimyristoylphosphatidylcholine; Dimyristoylphosphatidylcholine, DL-; DMPC; l-Î±-dimyristoylphosphatidylcholine

$$$$
