
 OpenBabel10282417072D

 23 23  0  0  1  0  0  0  0  0999 V2000
    1.4289    0.8250    0.0000 C   0  0  0  0  0  0  0  0  0  0  0  0
    0.7145    2.0625    0.0000 C   0  0  0  0  0  0  0  0  0  0  0  0
    0.7145    1.2375    0.0000 C   0  0  1  0  0  0  0  0  0  0  0  0
    1.4289   -0.0000    0.0000 C   0  0  1  0  0  0  0  0  0  0  0  0
    0.7145   -0.4125    0.0000 C   0  0  2  0  0  0  0  0  0  0  0  0
    0.0000    0.0000    0.0000 C   0  0  1  0  0  0  0  0  0  0  0  0
    0.0000    2.4750    0.0000 O   0  0  0  0  0  0  0  0  0  0  0  0
    2.1434   -0.4125    0.0000 O   0  0  0  0  0  0  0  0  0  0  0  0
    0.7145   -1.2375    0.0000 O   0  0  0  0  0  0  0  0  0  0  0  0
   -0.7145   -0.4125    0.0000 O   0  0  0  0  0  0  0  0  0  0  0  0
    0.0000    0.8250    0.0000 O   0  0  0  0  0  0  0  0  0  0  0  0
    1.4289    1.6500    0.0000 H   0  0  0  0  0  0  0  0  0  0  0  0
    2.1434    0.4125    0.0000 H   0  0  0  0  0  0  0  0  0  0  0  0
    1.4289   -0.8250    0.0000 H   0  0  0  0  0  0  0  0  0  0  0  0
   -0.0000   -0.8250    0.0000 H   0  0  0  0  0  0  0  0  0  0  0  0
    2.3556    1.3600    0.0000 H   0  0  0  0  0  0  0  0  0  0  0  0
    2.3555    0.2900    0.0000 H   0  0  0  0  0  0  0  0  0  0  0  0
    1.6411    2.5975    0.0000 H   0  0  0  0  0  0  0  0  0  0  0  0
    0.7145    3.1325    0.0000 H   0  0  0  0  0  0  0  0  0  0  0  0
   -0.0000    3.4450    0.0000 H   0  0  0  0  0  0  0  0  0  0  0  0
    2.1434   -1.3825    0.0000 H   0  0  0  0  0  0  0  0  0  0  0  0
   -0.1255   -1.7225    0.0000 H   0  0  0  0  0  0  0  0  0  0  0  0
   -1.5545    0.0725    0.0000 H   0  0  0  0  0  0  0  0  0  0  0  0
  1 16  1  0  0  0  0
  1 17  1  0  0  0  0
  2 18  1  0  0  0  0
  2 19  1  0  0  0  0
  3  1  1  0  0  0  0
  3  2  1  0  0  0  0
  3 12  1  1  0  0  0
  4  1  1  0  0  0  0
  4  8  1  0  0  0  0
  4 13  1  1  0  0  0
  5  4  1  0  0  0  0
  5  9  1  0  0  0  0
  5 14  1  6  0  0  0
  6  5  1  0  0  0  0
  6 10  1  0  0  0  0
  6 15  1  6  0  0  0
  7  2  1  0  0  0  0
  7 20  1  0  0  0  0
  8 21  1  0  0  0  0
  9 22  1  0  0  0  0
 10 23  1  0  0  0  0
 11  3  1  0  0  0  0
 11  6  1  0  0  0  0
M  END
>  <DRUGBANK_ID>
DB02670

>  <SECONDARY_ACCESSION_NUMBERS>
EXPT01533

>  <COMMON_NAME>
4-Deoxy-Alpha-D-Glucose

$$$$
