
 OpenBabel10282417072D

 49 52  0  0  0  0  0  0  0  0999 V2000
    1.2362    1.3151    0.0000 S   0  0  0  0  0  0  0  0  0  0  0  0
    0.6675    1.6500    0.0000 C   0  0  0  0  0  0  0  0  0  0  0  0
   -0.0506    1.2432    0.0000 N   0  0  0  0  0  0  0  0  0  0  0  0
   -0.0580    0.4178    0.0000 C   0  0  0  0  0  0  0  0  0  0  0  0
   -0.7753    0.0103    0.0000 C   0  0  0  0  0  0  0  0  0  0  0  0
   -0.7810   -0.8146    0.0000 C   0  0  0  0  0  0  0  0  0  0  0  0
   -1.5946   -0.9540    0.0000 C   0  0  0  0  0  0  0  0  0  0  0  0
   -2.1226   -0.3195    0.0000 O   0  0  0  0  0  0  0  0  0  0  0  0
   -1.8231   -1.5732    0.0000 O   0  0  0  0  0  0  0  0  0  0  0  0
    0.6535    0.0004    0.0000 C   0  0  0  0  0  0  0  0  0  0  0  0
    0.6477   -0.8245    0.0000 C   0  0  0  0  0  0  0  0  0  0  0  0
   -0.0695   -1.2320    0.0000 C   0  0  0  0  0  0  0  0  0  0  0  0
   -0.0720   -2.0575    0.0000 C   0  0  0  0  0  0  0  0  0  0  0  0
   -0.7864   -2.4700    0.0000 C   0  0  0  0  0  0  0  0  0  0  0  0
   -0.7864   -3.2951    0.0000 C   0  0  0  0  0  0  0  0  0  0  0  0
   -0.0720   -3.7077    0.0000 O   0  0  0  0  0  0  0  0  0  0  0  0
   -1.5009   -3.7077    0.0000 C   0  0  0  0  0  0  0  0  0  0  0  0
   -1.5009   -2.0575    0.0000 C   0  0  0  0  0  0  0  0  0  0  0  0
   -2.2152   -2.4700    0.0000 C   0  0  0  0  0  0  0  0  0  0  0  0
   -2.2152   -3.2951    0.0000 C   0  0  0  0  0  0  0  0  0  0  0  0
   -2.7868   -3.6251    0.0000 O   0  0  0  0  0  0  0  0  0  0  0  0
    0.6322   -2.4700    0.0000 C   0  0  0  0  0  0  0  0  0  0  0  0
    0.6322   -3.2951    0.0000 C   0  0  0  0  0  0  0  0  0  0  0  0
    1.3567   -3.7077    0.0000 C   0  0  0  0  0  0  0  0  0  0  0  0
    1.3567   -2.0575    0.0000 C   0  0  0  0  0  0  0  0  0  0  0  0
    2.0712   -2.4700    0.0000 C   0  0  0  0  0  0  0  0  0  0  0  0
    2.0712   -3.2951    0.0000 C   0  0  0  0  0  0  0  0  0  0  0  0
    2.7868   -3.7063    0.0000 O   0  0  0  0  0  0  0  0  0  0  0  0
    0.6749    2.4755    0.0000 N   0  0  0  0  0  0  0  0  0  0  0  0
    1.3932    2.8822    0.0000 C   0  0  0  0  0  0  0  0  0  0  0  0
    1.4006    3.7077    0.0000 C   0  0  0  0  0  0  0  0  0  0  0  0
    0.2010    2.7545    0.0000 H   0  0  0  0  0  0  0  0  0  0  0  0
   -0.5246    1.5224    0.0000 H   0  0  0  0  0  0  0  0  0  0  0  0
   -1.6654    0.5325    0.0000 H   0  0  0  0  0  0  0  0  0  0  0  0
   -1.7985    0.5597    0.0000 H   0  0  0  0  0  0  0  0  0  0  0  0
    1.5508    0.5101    0.0000 H   0  0  0  0  0  0  0  0  0  0  0  0
    1.5378   -1.3467    0.0000 H   0  0  0  0  0  0  0  0  0  0  0  0
   -1.5010   -4.7397    0.0000 H   0  0  0  0  0  0  0  0  0  0  0  0
   -1.5010   -1.0255    0.0000 H   0  0  0  0  0  0  0  0  0  0  0  0
   -3.1090   -1.9540    0.0000 H   0  0  0  0  0  0  0  0  0  0  0  0
    1.3598   -4.7397    0.0000 H   0  0  0  0  0  0  0  0  0  0  0  0
    1.3598   -1.0255    0.0000 H   0  0  0  0  0  0  0  0  0  0  0  0
    2.9649   -1.9540    0.0000 H   0  0  0  0  0  0  0  0  0  0  0  0
    2.7887   -4.6433    0.0000 H   0  0  0  0  0  0  0  0  0  0  0  0
    2.3152    2.3392    0.0000 H   0  0  0  0  0  0  0  0  0  0  0  0
    2.3245    3.4090    0.0000 H   0  0  0  0  0  0  0  0  0  0  0  0
    2.3320    4.2344    0.0000 H   0  0  0  0  0  0  0  0  0  0  0  0
    0.4788    4.2510    0.0000 H   0  0  0  0  0  0  0  0  0  0  0  0
    1.4102    4.7777    0.0000 H   0  0  0  0  0  0  0  0  0  0  0  0
  2  1  2  0  0  0  0
  2 29  1  0  0  0  0
  2  3  1  0  0  0  0
  4  3  1  0  0  0  0
  4  5  1  0  0  0  0
  5  6  2  0  0  0  0
  5 34  1  0  0  0  0
  6  7  1  0  0  0  0
  7  8  1  0  0  0  0
  7  9  2  0  0  0  0
  8 35  1  0  0  0  0
 10  4  2  0  0  0  0
 10 36  1  0  0  0  0
 11 10  1  0  0  0  0
 11 37  1  0  0  0  0
 12  6  1  0  0  0  0
 12 11  2  0  0  0  0
 13 12  1  0  0  0  0
 13 14  2  0  0  0  0
 13 22  1  0  0  0  0
 15 14  1  0  0  0  0
 15 16  1  0  0  0  0
 15 17  2  0  0  0  0
 17 20  1  0  0  0  0
 17 38  1  0  0  0  0
 18 14  1  0  0  0  0
 18 39  1  0  0  0  0
 19 18  2  0  0  0  0
 19 40  1  0  0  0  0
 20 19  1  0  0  0  0
 20 21  2  0  0  0  0
 22 23  2  0  0  0  0
 22 25  1  0  0  0  0
 23 16  1  0  0  0  0
 24 23  1  0  0  0  0
 24 41  1  0  0  0  0
 25 26  2  0  0  0  0
 25 42  1  0  0  0  0
 26 43  1  0  0  0  0
 27 24  2  0  0  0  0
 27 26  1  0  0  0  0
 27 28  1  0  0  0  0
 28 44  1  0  0  0  0
 30 29  1  0  0  0  0
 30 31  1  0  0  0  0
 30 45  1  0  0  0  0
 30 46  1  0  0  0  0
 31 47  1  0  0  0  0
 31 48  1  0  0  0  0
 31 49  1  0  0  0  0
 32 29  1  0  0  0  0
 33  3  1  0  0  0  0
M  END
>  <DRUGBANK_ID>
DB02455

>  <SECONDARY_ACCESSION_NUMBERS>
EXPT01443

>  <COMMON_NAME>
Fluoresceinylthioureido

$$$$
