
 OpenBabel10282417072D

 71 53  0  0  0  0  0  0  0  0999 V2000
   -1.7257   -4.5880    0.0000 Fe  0  1  0  0  0  0  0  0  0  0  0  0
   -0.2967   -4.5880    0.0000 Fe  0  1  0  0  0  0  0  0  0  0  0  0
    1.1322   -4.5880    0.0000 Fe  0  1  0  0  0  0  0  0  0  0  0  0
    2.5612   -4.5880    0.0000 Fe  0  1  0  0  0  0  0  0  0  0  0  0
    3.9901   -4.5880    0.0000 Fe  0  1  0  0  0  0  0  0  0  0  0  0
    5.4191   -4.5880    0.0000 Na  0  3  0  0  0  0  0  0  0  0  0  0
    4.7047   -5.8255    0.0000 Na  0  3  0  0  0  0  0  0  0  0  0  0
    1.9856    1.6143    0.0000 O   0  0  0  0  0  0  0  0  0  0  0  0
    0.4641    1.0304    0.0000 O   0  0  0  0  0  0  0  0  0  0  0  0
    1.1786   -0.2071    0.0000 O   0  0  0  0  0  0  0  0  0  0  0  0
   -0.0544    2.2436    0.0000 O   0  0  0  0  0  0  0  0  0  0  0  0
    1.1466    3.5774    0.0000 O   0  0  0  0  0  0  0  0  0  0  0  0
   -0.9648    0.2053    0.0000 O   0  0  0  0  0  0  0  0  0  0  0  0
   -0.9648   -1.4446    0.0000 O   0  0  0  0  0  0  0  0  0  0  0  0
    0.4641   -2.2696    0.0000 O   0  0  0  0  0  0  0  0  0  0  0  0
    2.1347    0.3809    0.0000 O   0  0  0  0  0  0  0  0  0  0  0  0
    3.5008    2.4348    0.0000 O   0  0  0  0  0  0  0  0  0  0  0  0
    1.8931   -2.2696    0.0000 O   0  0  0  0  0  0  0  0  0  0  0  0
   -4.9762   -1.1591    0.0000 O   0  0  0  0  0  0  0  0  0  0  0  0
   -4.9762    0.9034    0.0000 O   0  0  0  0  0  0  0  0  0  0  0  0
    1.2679    5.5697    0.0000 O   0  0  0  0  0  0  0  0  0  0  0  0
   -2.4402   -4.1755    0.0000 O   0  5  0  0  0  0  0  0  0  0  0  0
   -1.0111   -4.1755    0.0000 O   0  6  0  0  0  0  0  0  0  0  0  0
   -0.2967   -5.4130    0.0000 O   0  6  0  0  0  0  0  0  0  0  0  0
    0.4177   -4.1755    0.0000 O   0  6  0  0  0  0  0  0  0  0  0  0
    1.8467   -4.1755    0.0000 O   0  6  0  0  0  0  0  0  0  0  0  0
    1.1322   -5.4130    0.0000 O   0  6  0  0  0  0  0  0  0  0  0  0
    3.2756   -4.1755    0.0000 O   0  6  0  0  0  0  0  0  0  0  0  0
    4.7047   -4.1755    0.0000 O   0  6  0  0  0  0  0  0  0  0  0  0
    3.9901   -5.4130    0.0000 O   0  6  0  0  0  0  0  0  0  0  0  0
    1.1786    1.4429    0.0000 C   0  0  1  0  0  0  0  0  0  0  0  0
    0.7661    2.1573    0.0000 C   0  0  2  0  0  0  0  0  0  0  0  0
    1.3182    2.7704    0.0000 C   0  0  1  0  0  0  0  0  0  0  0  0
    2.0718    2.4348    0.0000 C   0  0  1  0  0  0  0  0  0  0  0  0
    0.4641    0.2053    0.0000 C   0  0  1  0  0  0  0  0  0  0  0  0
   -0.2503   -0.2071    0.0000 C   0  0  1  0  0  0  0  0  0  0  0  0
   -0.2503   -1.0321    0.0000 C   0  0  2  0  0  0  0  0  0  0  0  0
    0.4641   -1.4446    0.0000 C   0  0  1  0  0  0  0  0  0  0  0  0
    1.1786   -1.0321    0.0000 C   0  0  1  0  0  0  0  0  0  0  0  0
    1.3502    0.6358    0.0000 C   0  0  0  0  0  0  0  0  0  0  0  0
    2.7863    2.8473    0.0000 C   0  0  0  0  0  0  0  0  0  0  0  0
    1.8931   -1.4446    0.0000 C   0  0  0  0  0  0  0  0  0  0  0  0
   -0.4489    3.1298    0.0000 H   0  0  0  0  0  0  0  0  0  0  0  0
    1.8674    4.2265    0.0000 H   0  0  0  0  0  0  0  0  0  0  0  0
   -0.9649    1.1753    0.0000 H   0  0  0  0  0  0  0  0  0  0  0  0
   -1.8048   -0.9596    0.0000 H   0  0  0  0  0  0  0  0  0  0  0  0
   -0.3759   -2.7546    0.0000 H   0  0  0  0  0  0  0  0  0  0  0  0
    2.3364   -0.5679    0.0000 H   0  0  0  0  0  0  0  0  0  0  0  0
    3.5008    1.4648    0.0000 H   0  0  0  0  0  0  0  0  0  0  0  0
    1.0531   -2.7546    0.0000 H   0  0  0  0  0  0  0  0  0  0  0  0
   -4.0062   -1.1591    0.0000 H   0  0  0  0  0  0  0  0  0  0  0  0
   -5.4612   -0.3191    0.0000 H   0  0  0  0  0  0  0  0  0  0  0  0
   -4.0062    0.9034    0.0000 H   0  0  0  0  0  0  0  0  0  0  0  0
   -5.4612    1.7434    0.0000 H   0  0  0  0  0  0  0  0  0  0  0  0
    2.2379    5.5697    0.0000 H   0  0  0  0  0  0  0  0  0  0  0  0
    0.7829    6.4097    0.0000 H   0  0  0  0  0  0  0  0  0  0  0  0
   -1.4702   -4.1755    0.0000 H   0  0  0  0  0  0  0  0  0  0  0  0
    0.1833    1.2599    0.0000 H   0  0  0  0  0  0  0  0  0  0  0  0
    0.2847    3.0473    0.0000 H   0  0  0  0  0  0  0  0  0  0  0  0
    2.9692    1.8520    0.0000 H   0  0  0  0  0  0  0  0  0  0  0  0
    1.3907    0.7404    0.0000 H   0  0  0  0  0  0  0  0  0  0  0  0
   -0.2503    0.8629    0.0000 H   0  0  0  0  0  0  0  0  0  0  0  0
   -1.1769   -0.4971    0.0000 H   0  0  0  0  0  0  0  0  0  0  0  0
   -0.4626   -1.9796    0.0000 H   0  0  0  0  0  0  0  0  0  0  0  0
    2.1052   -0.4971    0.0000 H   0  0  0  0  0  0  0  0  0  0  0  0
    0.5551   -0.0802    0.0000 H   0  0  0  0  0  0  0  0  0  0  0  0
    0.3326    0.9664    0.0000 H   0  0  0  0  0  0  0  0  0  0  0  0
    2.7863    3.9173    0.0000 H   0  0  0  0  0  0  0  0  0  0  0  0
    1.8597    3.3823    0.0000 H   0  0  0  0  0  0  0  0  0  0  0  0
    2.8197   -0.9096    0.0000 H   0  0  0  0  0  0  0  0  0  0  0  0
    1.8931   -0.3746    0.0000 H   0  0  0  0  0  0  0  0  0  0  0  0
  8 31  1  0  0  0  0
  8 34  1  0  0  0  0
 10 35  1  0  0  0  0
 10 39  1  0  0  0  0
 11 43  1  0  0  0  0
 12 44  1  0  0  0  0
 13 45  1  0  0  0  0
 14 46  1  0  0  0  0
 15 47  1  0  0  0  0
 16 40  1  0  0  0  0
 16 48  1  0  0  0  0
 17 41  1  0  0  0  0
 17 49  1  0  0  0  0
 18 42  1  0  0  0  0
 18 50  1  0  0  0  0
 19 51  1  0  0  0  0
 19 52  1  0  0  0  0
 20 53  1  0  0  0  0
 20 54  1  0  0  0  0
 21 55  1  0  0  0  0
 21 56  1  0  0  0  0
 22 57  1  0  0  0  0
 31  9  1  1  0  0  0
 31 32  1  0  0  0  0
 31 40  1  0  0  0  0
 32 11  1  0  0  0  0
 32 33  1  0  0  0  0
 32 58  1  6  0  0  0
 33 12  1  0  0  0  0
 33 34  1  0  0  0  0
 33 59  1  1  0  0  0
 34 41  1  0  0  0  0
 34 60  1  6  0  0  0
 35  9  1  0  0  0  0
 35 36  1  0  0  0  0
 35 61  1  6  0  0  0
 36 13  1  0  0  0  0
 36 37  1  0  0  0  0
 36 62  1  6  0  0  0
 37 14  1  0  0  0  0
 37 38  1  0  0  0  0
 37 63  1  1  0  0  0
 38 15  1  0  0  0  0
 38 39  1  0  0  0  0
 38 64  1  6  0  0  0
 39 42  1  0  0  0  0
 39 65  1  1  0  0  0
 40 66  1  0  0  0  0
 40 67  1  0  0  0  0
 41 68  1  0  0  0  0
 41 69  1  0  0  0  0
 42 70  1  0  0  0  0
 42 71  1  0  0  0  0
M  CHG  8   1   3   2   3   3   3   4   3   5   3   6   1   7   1  22  -1
M  CHG  8  23  -2  24  -2  25  -2  26  -2  27  -2  28  -2  29  -2  30  -2
M  END
>  <DRUGBANK_ID>
DB09146

>  <SECONDARY_ACCESSION_NUMBERS>
DB06790

>  <COMMON_NAME>
Iron sucrose

>  <CAS_NUMBER>
8047-67-4

>  <UNII>
FZ7NYF5N8L

>  <SYNONYMS>
Ferric hydroxide sucrose complex; Iron oxide saccharated; Iron saccharate; Iron sucrose; Iron sucrose complex; Iron sugar; Iron(III) hydroxide sucrose complex; Saccharated ferric oxide; Saccharated iron; Saccharated iron oxide; Sucroferric oxyhydroxide

$$$$
