
 OpenBabel10282417072D

 17 16  0  0  1  0  0  0  0  0999 V2000
    1.9520    1.9520    0.0000 N   0  0  0  0  0  0  0  0  0  0  0  0
    1.9520    1.1270    0.0000 C   0  0  1  0  0  0  0  0  0  0  0  0
    1.2375    0.7145    0.0000 C   0  0  0  0  0  0  0  0  0  0  0  0
    0.5230    1.1270    0.0000 C   0  0  0  0  0  0  0  0  0  0  0  0
   -0.1914    0.7145    0.0000 O   0  0  0  0  0  0  0  0  0  0  0  0
    2.6664    0.7145    0.0000 C   0  0  0  0  0  0  0  0  0  0  0  0
    3.3809    1.1270    0.0000 O   0  0  0  0  0  0  0  0  0  0  0  0
    2.6664   -0.1105    0.0000 O   0  0  0  0  0  0  0  0  0  0  0  0
    2.8353    2.4620    0.0000 H   0  0  0  0  0  0  0  0  0  0  0  0
    1.0687    2.4620    0.0000 H   0  0  0  0  0  0  0  0  0  0  0  0
    1.0254    1.6620    0.0000 H   0  0  0  0  0  0  0  0  0  0  0  0
    1.2375   -0.3555    0.0000 H   0  0  0  0  0  0  0  0  0  0  0  0
    0.3109    0.1795    0.0000 H   0  0  0  0  0  0  0  0  0  0  0  0
    0.5230    2.1970    0.0000 H   0  0  0  0  0  0  0  0  0  0  0  0
   -0.4037    1.6620    0.0000 H   0  0  0  0  0  0  0  0  0  0  0  0
   -1.0315    1.1995    0.0000 H   0  0  0  0  0  0  0  0  0  0  0  0
    4.1924    0.6585    0.0000 H   0  0  0  0  0  0  0  0  0  0  0  0
  1  9  1  0  0  0  0
  1 10  1  0  0  0  0
  2  1  1  0  0  0  0
  2  3  1  0  0  0  0
  2  6  1  0  0  0  0
  2 11  1  1  0  0  0
  3  4  1  0  0  0  0
  3 12  1  0  0  0  0
  3 13  1  0  0  0  0
  4  5  1  0  0  0  0
  4 14  1  0  0  0  0
  4 15  1  0  0  0  0
  5 16  1  0  0  0  0
  6  7  1  0  0  0  0
  6  8  2  0  0  0  0
  7 17  1  0  0  0  0
M  END
>  <DRUGBANK_ID>
DB04193

>  <SECONDARY_ACCESSION_NUMBERS>
EXPT01782

>  <COMMON_NAME>
L-Homoserine

>  <CAS_NUMBER>
672-15-1

>  <UNII>
6KA95X0IVO

$$$$
