
 OpenBabel10282417072D

 72 73  0  0  0  0  0  0  0  0999 V2000
   -0.7145   -7.8375    0.0000 C   0  0  0  0  0  0  0  0  0  0  0  0
   -0.7145   -7.0125    0.0000 C   0  0  0  0  0  0  0  0  0  0  0  0
    0.1105   -7.0125    0.0000 C   0  0  0  0  0  0  0  0  0  0  0  0
   -1.5395   -7.0125    0.0000 C   0  0  0  0  0  0  0  0  0  0  0  0
   -0.7145   -6.1875    0.0000 C   0  0  0  0  0  0  0  0  0  0  0  0
    0.0000   -5.7750    0.0000 C   0  0  0  0  0  0  0  0  0  0  0  0
    0.4125   -6.4895    0.0000 C   0  0  0  0  0  0  0  0  0  0  0  0
   -0.4125   -5.0605    0.0000 C   0  0  0  0  0  0  0  0  0  0  0  0
    0.7145   -5.3625    0.0000 C   0  0  0  0  0  0  0  0  0  0  0  0
    0.7145   -4.5375    0.0000 C   0  0  0  0  0  0  0  0  0  0  0  0
    1.4289   -4.1250    0.0000 C   0  0  0  0  0  0  0  0  0  0  0  0
    2.1434   -4.5375    0.0000 C   0  0  0  0  0  0  0  0  0  0  0  0
    2.8579   -4.1250    0.0000 O   0  0  0  0  0  0  0  0  0  0  0  0
    3.5724   -4.5375    0.0000 C   0  0  0  0  0  0  0  0  0  0  0  0
    4.2868   -4.1250    0.0000 C   0  0  0  0  0  0  0  0  0  0  0  0
    5.0013   -4.5375    0.0000 O   0  0  0  0  0  0  0  0  0  0  0  0
    5.7158   -4.1250    0.0000 C   0  0  0  0  0  0  0  0  0  0  0  0
    6.4302   -4.5375    0.0000 C   0  0  0  0  0  0  0  0  0  0  0  0
    7.1447   -4.1250    0.0000 N   0  3  0  0  0  0  0  0  0  0  0  0
    7.5572   -4.8395    0.0000 C   0  0  0  0  0  0  0  0  0  0  0  0
    6.7322   -3.4105    0.0000 C   0  0  0  0  0  0  0  0  0  0  0  0
    7.8592   -3.7125    0.0000 C   0  0  0  0  0  0  0  0  0  0  0  0
    8.5737   -4.1250    0.0000 C   0  0  0  0  0  0  0  0  0  0  0  0
    9.2881   -3.7125    0.0000 C   0  0  0  0  0  0  0  0  0  0  0  0
   10.0026   -4.1250    0.0000 C   0  0  0  0  0  0  0  0  0  0  0  0
   10.0026   -4.9500    0.0000 C   0  0  0  0  0  0  0  0  0  0  0  0
    9.2881   -5.3625    0.0000 C   0  0  0  0  0  0  0  0  0  0  0  0
    8.5737   -4.9500    0.0000 C   0  0  0  0  0  0  0  0  0  0  0  0
    2.1434   -5.3625    0.0000 C   0  0  0  0  0  0  0  0  0  0  0  0
    1.4289   -5.7750    0.0000 C   0  0  0  0  0  0  0  0  0  0  0  0
   -1.6411   -8.3725    0.0000 H   0  0  0  0  0  0  0  0  0  0  0  0
    0.2121   -8.3725    0.0000 H   0  0  0  0  0  0  0  0  0  0  0  0
   -0.7145   -8.9075    0.0000 H   0  0  0  0  0  0  0  0  0  0  0  0
    0.6455   -7.9391    0.0000 H   0  0  0  0  0  0  0  0  0  0  0  0
    0.6455   -6.0859    0.0000 H   0  0  0  0  0  0  0  0  0  0  0  0
    1.1805   -7.0125    0.0000 H   0  0  0  0  0  0  0  0  0  0  0  0
   -2.0745   -6.0859    0.0000 H   0  0  0  0  0  0  0  0  0  0  0  0
   -2.0745   -7.9391    0.0000 H   0  0  0  0  0  0  0  0  0  0  0  0
   -2.6095   -7.0125    0.0000 H   0  0  0  0  0  0  0  0  0  0  0  0
   -1.6411   -5.6525    0.0000 H   0  0  0  0  0  0  0  0  0  0  0  0
   -0.7145   -5.1175    0.0000 H   0  0  0  0  0  0  0  0  0  0  0  0
   -0.1225   -7.4161    0.0000 H   0  0  0  0  0  0  0  0  0  0  0  0
    1.4825   -6.4895    0.0000 H   0  0  0  0  0  0  0  0  0  0  0  0
    0.9475   -7.4162    0.0000 H   0  0  0  0  0  0  0  0  0  0  0  0
    0.1225   -4.1339    0.0000 H   0  0  0  0  0  0  0  0  0  0  0  0
   -1.4825   -5.0605    0.0000 H   0  0  0  0  0  0  0  0  0  0  0  0
   -0.9475   -4.1338    0.0000 H   0  0  0  0  0  0  0  0  0  0  0  0
   -0.1792   -4.0215    0.0000 H   0  0  0  0  0  0  0  0  0  0  0  0
    1.4289   -3.0930    0.0000 H   0  0  0  0  0  0  0  0  0  0  0  0
    3.5724   -5.6075    0.0000 H   0  0  0  0  0  0  0  0  0  0  0  0
    4.4991   -5.0725    0.0000 H   0  0  0  0  0  0  0  0  0  0  0  0
    4.2868   -3.0550    0.0000 H   0  0  0  0  0  0  0  0  0  0  0  0
    5.2134   -3.5900    0.0000 H   0  0  0  0  0  0  0  0  0  0  0  0
    5.7158   -3.0550    0.0000 H   0  0  0  0  0  0  0  0  0  0  0  0
    6.6425   -3.5900    0.0000 H   0  0  0  0  0  0  0  0  0  0  0  0
    6.4302   -5.6075    0.0000 H   0  0  0  0  0  0  0  0  0  0  0  0
    7.3568   -5.0725    0.0000 H   0  0  0  0  0  0  0  0  0  0  0  0
    7.0222   -5.7661    0.0000 H   0  0  0  0  0  0  0  0  0  0  0  0
    8.6272   -4.8395    0.0000 H   0  0  0  0  0  0  0  0  0  0  0  0
    8.0922   -5.7662    0.0000 H   0  0  0  0  0  0  0  0  0  0  0  0
    7.2672   -2.4839    0.0000 H   0  0  0  0  0  0  0  0  0  0  0  0
    5.6622   -3.4105    0.0000 H   0  0  0  0  0  0  0  0  0  0  0  0
    6.1972   -2.4838    0.0000 H   0  0  0  0  0  0  0  0  0  0  0  0
    7.8592   -2.6425    0.0000 H   0  0  0  0  0  0  0  0  0  0  0  0
    8.7858   -3.1775    0.0000 H   0  0  0  0  0  0  0  0  0  0  0  0
    9.2881   -2.6805    0.0000 H   0  0  0  0  0  0  0  0  0  0  0  0
   10.8963   -3.6090    0.0000 H   0  0  0  0  0  0  0  0  0  0  0  0
   10.8963   -5.4660    0.0000 H   0  0  0  0  0  0  0  0  0  0  0  0
    9.2881   -6.3945    0.0000 H   0  0  0  0  0  0  0  0  0  0  0  0
    7.6800   -5.4660    0.0000 H   0  0  0  0  0  0  0  0  0  0  0  0
    3.0371   -5.8785    0.0000 H   0  0  0  0  0  0  0  0  0  0  0  0
    1.4289   -6.8070    0.0000 H   0  0  0  0  0  0  0  0  0  0  0  0
  1  2  1  0  0  0  0
  1 31  1  0  0  0  0
  1 32  1  0  0  0  0
  1 33  1  0  0  0  0
  2  3  1  0  0  0  0
  2  4  1  0  0  0  0
  2  5  1  0  0  0  0
  3 34  1  0  0  0  0
  3 35  1  0  0  0  0
  3 36  1  0  0  0  0
  4 37  1  0  0  0  0
  4 38  1  0  0  0  0
  4 39  1  0  0  0  0
  5  6  1  0  0  0  0
  5 40  1  0  0  0  0
  5 41  1  0  0  0  0
  6  7  1  0  0  0  0
  6  8  1  0  0  0  0
  6  9  1  0  0  0  0
  7 42  1  0  0  0  0
  7 43  1  0  0  0  0
  7 44  1  0  0  0  0
  8 45  1  0  0  0  0
  8 46  1  0  0  0  0
  8 47  1  0  0  0  0
  9 10  2  0  0  0  0
  9 30  1  0  0  0  0
 10 11  1  0  0  0  0
 10 48  1  0  0  0  0
 11 12  2  0  0  0  0
 11 49  1  0  0  0  0
 12 13  1  0  0  0  0
 12 29  1  0  0  0  0
 13 14  1  0  0  0  0
 14 15  1  0  0  0  0
 14 50  1  0  0  0  0
 14 51  1  0  0  0  0
 15 16  1  0  0  0  0
 15 52  1  0  0  0  0
 15 53  1  0  0  0  0
 16 17  1  0  0  0  0
 17 18  1  0  0  0  0
 17 54  1  0  0  0  0
 17 55  1  0  0  0  0
 18 19  1  0  0  0  0
 18 56  1  0  0  0  0
 18 57  1  0  0  0  0
 19 20  1  0  0  0  0
 19 21  1  0  0  0  0
 19 22  1  0  0  0  0
 20 58  1  0  0  0  0
 20 59  1  0  0  0  0
 20 60  1  0  0  0  0
 21 61  1  0  0  0  0
 21 62  1  0  0  0  0
 21 63  1  0  0  0  0
 22 23  1  0  0  0  0
 22 64  1  0  0  0  0
 22 65  1  0  0  0  0
 23 24  2  0  0  0  0
 23 28  1  0  0  0  0
 24 25  1  0  0  0  0
 24 66  1  0  0  0  0
 25 26  2  0  0  0  0
 25 67  1  0  0  0  0
 26 27  1  0  0  0  0
 26 68  1  0  0  0  0
 27 28  2  0  0  0  0
 27 69  1  0  0  0  0
 28 70  1  0  0  0  0
 29 30  2  0  0  0  0
 29 71  1  0  0  0  0
 30 72  1  0  0  0  0
M  CHG  1  19   1
M  END
>  <DRUGBANK_ID>
DB11125

>  <COMMON_NAME>
Benzethonium

>  <CAS_NUMBER>
10172-60-8

>  <UNII>
1VU15B70BP

$$$$
