
 OpenBabel10282417072D

 52 55  0  0  0  0  0  0  0  0999 V2000
    2.1784   -0.3823    0.0000 C   0  0  0  0  0  0  0  0  0  0  0  0
    0.6793   -1.3649    0.0000 C   0  0  1  0  0  0  0  0  0  0  0  0
    0.6793    1.1099    0.0000 C   0  0  0  0  0  0  0  0  0  0  0  0
    2.6634    0.2850    0.0000 C   0  0  0  0  0  0  0  0  0  0  0  0
   -0.0350    0.6975    0.0000 C   0  0  0  0  0  0  0  0  0  0  0  0
   -1.4640   -0.1274    0.0000 C   0  0  0  0  0  0  0  0  0  0  0  0
   -1.4640   -1.7774    0.0000 C   0  0  0  0  0  0  0  0  0  0  0  0
    0.6793   -0.5399    0.0000 C   0  0  2  0  0  0  0  0  0  0  0  0
    0.6793    0.2850    0.0000 H   0  0  0  0  0  0  0  0  0  0  0  0
   -0.0350   -0.1274    0.0000 C   0  0  1  0  0  0  0  0  0  0  0  0
   -0.0350   -0.9524    0.0000 H   0  0  0  0  0  0  0  0  0  0  0  0
    1.3937    0.6975    0.0000 C   0  0  1  0  0  0  0  0  0  0  0  0
    1.3937    1.5224    0.0000 C   0  0  0  0  0  0  0  0  0  0  0  0
    1.3937   -0.1274    0.0000 C   0  0  1  0  0  0  0  0  0  0  0  0
    1.3937   -0.9524    0.0000 H   0  0  0  0  0  0  0  0  0  0  0  0
   -0.7495   -0.5399    0.0000 C   0  0  2  0  0  0  0  0  0  0  0  0
   -0.7495    0.2850    0.0000 H   0  0  0  0  0  0  0  0  0  0  0  0
   -2.1785   -0.5399    0.0000 C   0  0  0  0  0  0  0  0  0  0  0  0
   -2.1785   -1.3649    0.0000 C   0  0  0  0  0  0  0  0  0  0  0  0
   -2.8929   -1.7774    0.0000 O   0  0  0  0  0  0  0  0  0  0  0  0
   -0.7495   -1.3649    0.0000 C   0  0  0  0  0  0  0  0  0  0  0  0
   -0.0350   -1.7774    0.0000 C   0  0  0  0  0  0  0  0  0  0  0  0
    2.1784    0.9524    0.0000 C   0  0  1  0  0  0  0  0  0  0  0  0
    2.1784    1.7774    0.0000 O   0  0  0  0  0  0  0  0  0  0  0  0
    1.3938   -1.7774    0.0000 C   0  0  0  0  0  0  0  0  0  0  0  0
    2.8929    1.3649    0.0000 C   0  0  0  0  0  0  0  0  0  0  0  0
    2.5090   -1.3999    0.0000 H   0  0  0  0  0  0  0  0  0  0  0  0
    3.2352   -0.5498    0.0000 H   0  0  0  0  0  0  0  0  0  0  0  0
    1.6059   -0.8299    0.0000 H   0  0  0  0  0  0  0  0  0  0  0  0
    0.6793    2.1799    0.0000 H   0  0  0  0  0  0  0  0  0  0  0  0
   -0.2474    1.6449    0.0000 H   0  0  0  0  0  0  0  0  0  0  0  0
    3.7334    0.2850    0.0000 H   0  0  0  0  0  0  0  0  0  0  0  0
    3.1491    1.2384    0.0000 H   0  0  0  0  0  0  0  0  0  0  0  0
   -0.9616    1.2325    0.0000 H   0  0  0  0  0  0  0  0  0  0  0  0
   -0.0350    1.7675    0.0000 H   0  0  0  0  0  0  0  0  0  0  0  0
   -1.4640    0.9426    0.0000 H   0  0  0  0  0  0  0  0  0  0  0  0
   -2.3906    0.4076    0.0000 H   0  0  0  0  0  0  0  0  0  0  0  0
   -1.4640   -2.8094    0.0000 H   0  0  0  0  0  0  0  0  0  0  0  0
    2.3203    2.0574    0.0000 H   0  0  0  0  0  0  0  0  0  0  0  0
    0.4671    2.0574    0.0000 H   0  0  0  0  0  0  0  0  0  0  0  0
    1.3937    2.5924    0.0000 H   0  0  0  0  0  0  0  0  0  0  0  0
   -3.1051   -0.0049    0.0000 H   0  0  0  0  0  0  0  0  0  0  0  0
   -3.1051   -1.0749    0.0000 H   0  0  0  0  0  0  0  0  0  0  0  0
   -0.0349   -2.8474    0.0000 H   0  0  0  0  0  0  0  0  0  0  0  0
   -0.9616   -2.3124    0.0000 H   0  0  0  0  0  0  0  0  0  0  0  0
    3.0184    2.2624    0.0000 H   0  0  0  0  0  0  0  0  0  0  0  0
    1.3938   -2.8474    0.0000 H   0  0  0  0  0  0  0  0  0  0  0  0
    2.3204   -1.2424    0.0000 H   0  0  0  0  0  0  0  0  0  0  0  0
    2.3205   -2.3124    0.0000 H   0  0  0  0  0  0  0  0  0  0  0  0
    3.8195    0.8299    0.0000 H   0  0  0  0  0  0  0  0  0  0  0  0
    2.8929    2.4349    0.0000 H   0  0  0  0  0  0  0  0  0  0  0  0
    3.8196    1.8999    0.0000 H   0  0  0  0  0  0  0  0  0  0  0  0
  1 27  1  0  0  0  0
  1 28  1  0  0  0  0
  2 22  1  0  0  0  0
  2 25  1  0  0  0  0
  2 29  1  1  0  0  0
  3  5  1  0  0  0  0
  3 30  1  0  0  0  0
  3 31  1  0  0  0  0
  4  1  1  0  0  0  0
  4 32  1  0  0  0  0
  4 33  1  0  0  0  0
  5 34  1  0  0  0  0
  5 35  1  0  0  0  0
  6 18  1  0  0  0  0
  6 36  1  0  0  0  0
  6 37  1  0  0  0  0
  7 19  1  0  0  0  0
  7 38  1  0  0  0  0
  8 10  1  0  0  0  0
  8  2  1  0  0  0  0
  8  9  1  1  0  0  0
 10 16  1  0  0  0  0
 10  5  1  0  0  0  0
 10 11  1  6  0  0  0
 12 23  1  0  0  0  0
 12  3  1  0  0  0  0
 12 13  1  1  0  0  0
 13 39  1  0  0  0  0
 13 40  1  0  0  0  0
 13 41  1  0  0  0  0
 14  8  1  0  0  0  0
 14 12  1  0  0  0  0
 14  1  1  0  0  0  0
 14 15  1  6  0  0  0
 16 21  1  0  0  0  0
 16  6  1  0  0  0  0
 16 17  1  1  0  0  0
 18 19  1  0  0  0  0
 18 42  1  0  0  0  0
 18 43  1  0  0  0  0
 19 20  2  0  0  0  0
 21  7  2  0  0  0  0
 22 21  1  0  0  0  0
 22 44  1  0  0  0  0
 22 45  1  0  0  0  0
 23  4  1  0  0  0  0
 23 24  1  1  0  0  0
 23 26  1  0  0  0  0
 24 46  1  0  0  0  0
 25 47  1  0  0  0  0
 25 48  1  0  0  0  0
 25 49  1  0  0  0  0
 26 50  1  0  0  0  0
 26 51  1  0  0  0  0
 26 52  1  0  0  0  0
M  END
>  <DRUGBANK_ID>
DB11429

>  <COMMON_NAME>
Mibolerone

>  <CAS_NUMBER>
3704-09-4

>  <UNII>
9OGY4BOR8D

>  <SYNONYMS>
(7α,17β)-17-hydroxy-7,17-dimethylestr-4-en-3-one; 17-beta-Hydroxy-7-alpha,17-dimethylestr-4-en-3-one; 7α-17α-dimethyl-19-nortestosterone; Mibolerona; Mibolerone; Miboleronum

$$$$
