B21
 OpenBabel10282417072D

 26 27  0  0  0  0  0  0  0  0999 V2000
    1.4288    0.8937    0.0000 C   0  0  0  0  0  0  0  0  0  0  0  0
    0.7144    0.4812    0.0000 O   0  0  0  0  0  0  0  0  0  0  0  0
   -0.0001    0.8937    0.0000 C   0  0  0  0  0  0  0  0  0  0  0  0
   -0.0001    1.7187    0.0000 C   0  0  0  0  0  0  0  0  0  0  0  0
   -0.7146    2.1312    0.0000 C   0  0  0  0  0  0  0  0  0  0  0  0
   -1.4290    1.7187    0.0000 C   0  0  0  0  0  0  0  0  0  0  0  0
   -1.4290    0.8937    0.0000 C   0  0  0  0  0  0  0  0  0  0  0  0
   -0.7146    0.4812    0.0000 C   0  0  0  0  0  0  0  0  0  0  0  0
   -0.7146   -0.3438    0.0000 C   0  0  0  0  0  0  0  0  0  0  0  0
   -0.0471   -0.8287    0.0000 O   0  0  0  0  0  0  0  0  0  0  0  0
   -1.3820   -0.8287    0.0000 C   0  0  0  0  0  0  0  0  0  0  0  0
   -1.1271   -1.6133    0.0000 C   0  0  0  0  0  0  0  0  0  0  0  0
   -0.3021   -1.6133    0.0000 C   0  0  0  0  0  0  0  0  0  0  0  0
    0.1829   -2.2808    0.0000 C   0  0  0  0  0  0  0  0  0  0  0  0
    1.0033   -2.1945    0.0000 O   0  0  0  0  0  0  0  0  0  0  0  0
   -0.1527   -3.0344    0.0000 O   0  0  0  0  0  0  0  0  0  0  0  0
    2.3555    0.3587    0.0000 H   0  0  0  0  0  0  0  0  0  0  0  0
    1.4288    1.9637    0.0000 H   0  0  0  0  0  0  0  0  0  0  0  0
    2.3554    1.4287    0.0000 H   0  0  0  0  0  0  0  0  0  0  0  0
    0.8936    2.2347    0.0000 H   0  0  0  0  0  0  0  0  0  0  0  0
   -0.7146    3.1632    0.0000 H   0  0  0  0  0  0  0  0  0  0  0  0
   -2.3227    2.2347    0.0000 H   0  0  0  0  0  0  0  0  0  0  0  0
   -2.3227    0.3777    0.0000 H   0  0  0  0  0  0  0  0  0  0  0  0
   -2.3635   -0.5098    0.0000 H   0  0  0  0  0  0  0  0  0  0  0  0
   -1.7337   -2.4482    0.0000 H   0  0  0  0  0  0  0  0  0  0  0  0
   -1.0846   -3.1323    0.0000 H   0  0  0  0  0  0  0  0  0  0  0  0
  1  2  1  0  0  0  0
  1 17  1  0  0  0  0
  1 18  1  0  0  0  0
  1 19  1  0  0  0  0
  2  3  1  0  0  0  0
  3  8  2  0  0  0  0
  3  4  1  0  0  0  0
  4  5  2  0  0  0  0
  4 20  1  0  0  0  0
  5  6  1  0  0  0  0
  5 21  1  0  0  0  0
  6  7  2  0  0  0  0
  6 22  1  0  0  0  0
  7  8  1  0  0  0  0
  7 23  1  0  0  0  0
  8  9  1  0  0  0  0
  9 10  1  0  0  0  0
  9 11  2  0  0  0  0
 10 13  1  0  0  0  0
 11 12  1  0  0  0  0
 11 24  1  0  0  0  0
 12 13  2  0  0  0  0
 12 25  1  0  0  0  0
 13 14  1  0  0  0  0
 14 15  2  0  0  0  0
 14 16  1  0  0  0  0
 16 26  1  0  0  0  0
M  END
>  <DRUGBANK_ID>
DB07407

>  <COMMON_NAME>
5-(2-METHOXYPHENYL)-2-FUROIC ACID

$$$$
