
 OpenBabel10282417072D

104107  0  0  1  0  0  0  0  0999 V2000
    4.0309    7.5037    0.0000 C   0  0  0  0  0  0  0  0  0  0  0  0
   -0.8260    3.4568    0.0000 C   0  0  0  0  0  0  0  0  0  0  0  0
    2.6804    3.4621    0.0000 C   0  0  0  0  0  0  0  0  0  0  0  0
   -3.5349    2.2281    0.0000 C   0  0  0  0  0  0  0  0  0  0  0  0
   -2.1307    6.5924    0.0000 C   0  0  0  0  0  0  0  0  0  0  0  0
    2.8070    7.2902    0.0000 C   0  0  0  0  0  0  0  0  0  0  0  0
    3.2340    5.6964    0.0000 C   0  0  0  0  0  0  0  0  0  0  0  0
    0.7017    0.5395    0.0000 C   0  0  0  0  0  0  0  0  0  0  0  0
    4.0842   -0.1160    0.0000 C   0  0  0  0  0  0  0  0  0  0  0  0
    3.8174    6.7069    0.0000 C   0  0  0  0  0  0  0  0  0  0  0  0
    3.4278    1.2496    0.0000 C   0  0  0  0  0  0  0  0  0  0  0  0
    3.2352    2.0518    0.0000 C   0  0  0  0  0  0  0  0  0  0  0  0
   -0.7582    1.2496    0.0000 C   0  0  0  0  0  0  0  0  0  0  0  0
    1.3348    1.0386    0.0000 C   0  0  0  0  0  0  0  0  0  0  0  0
   -1.9125    2.5288    0.0000 C   0  0  0  0  0  0  0  0  0  0  0  0
    2.6596   -0.0039    0.0000 C   0  0  0  0  0  0  0  0  0  0  0  0
    2.0101    5.4829    0.0000 C   0  0  0  0  0  0  0  0  0  0  0  0
   -1.1014    2.6791    0.0000 C   0  0  2  0  0  0  0  0  0  0  0  0
    2.0970    2.8787    0.0000 C   0  0  2  0  0  0  0  0  0  0  0  0
   -3.2595    3.0058    0.0000 C   0  0  0  0  0  0  0  0  0  0  0  0
   -1.5473    6.0091    0.0000 C   0  0  0  0  0  0  0  0  0  0  0  0
    2.7243    0.8185    0.0000 C   0  0  2  0  0  0  0  0  0  0  0  0
    2.4127    2.1165    0.0000 C   0  0  1  0  0  0  0  0  0  0  0  0
   -0.5656    2.0518    0.0000 C   0  0  0  0  0  0  0  0  0  0  0  0
    2.0970    1.3543    0.0000 C   0  0  0  0  0  0  0  0  0  0  0  0
    1.2132    5.2694    0.0000 C   0  0  2  0  0  0  0  0  0  0  0  0
   -0.0547    0.8185    0.0000 C   0  0  1  0  0  0  0  0  0  0  0  0
    0.2569    2.1165    0.0000 C   0  0  0  0  0  0  0  0  0  0  0  0
    1.3348    3.1944    0.0000 C   0  0  2  0  0  0  0  0  0  0  0  0
    0.6298    5.8527    0.0000 C   0  0  2  0  0  0  0  0  0  0  0  0
   -0.3806    4.8423    0.0000 C   0  0  2  0  0  0  0  0  0  0  0  0
    0.5726    2.8787    0.0000 C   0  0  2  0  0  0  0  0  0  0  0  0
   -0.1671    5.6392    0.0000 C   0  0  1  0  0  0  0  0  0  0  0  0
    0.2028    4.2590    0.0000 C   0  0  2  0  0  0  0  0  0  0  0  0
    3.0205    6.4933    0.0000 C   0  0  0  0  0  0  0  0  0  0  0  0
    0.5726    1.3543    0.0000 C   0  0  2  0  0  0  0  0  0  0  0  0
   -3.7953    3.6331    0.0000 O   0  0  0  0  0  0  0  0  0  0  0  0
   -1.7608    5.2122    0.0000 O   0  0  0  0  0  0  0  0  0  0  0  0
    0.0100   -0.0039    0.0000 O   0  0  0  0  0  0  0  0  0  0  0  0
    1.3348    4.0194    0.0000 O   0  0  0  0  0  0  0  0  0  0  0  0
    0.8434    6.6496    0.0000 O   0  0  0  0  0  0  0  0  0  0  0  0
   -1.1775    4.6288    0.0000 O   0  0  0  0  0  0  0  0  0  0  0  0
    3.3395   -0.4712    0.0000 O   0  0  0  0  0  0  0  0  0  0  0  0
   -2.4483    3.1561    0.0000 O   0  0  0  0  0  0  0  0  0  0  0  0
    2.2236    6.2798    0.0000 O   0  0  0  0  0  0  0  0  0  0  0  0
   -0.7504    6.2226    0.0000 O   0  0  0  0  0  0  0  0  0  0  0  0
    0.9997    4.4725    0.0000 O   0  0  0  0  0  0  0  0  0  0  0  0
   -0.0108    3.4621    0.0000 O   0  0  0  0  0  0  0  0  0  0  0  0
    1.3348    0.2136    0.0000 H   0  0  0  0  0  0  0  0  0  0  0  0
   -1.6371    3.3065    0.0000 H   0  0  0  0  0  0  0  0  0  0  0  0
    2.9124    3.0042    0.0000 H   0  0  0  0  0  0  0  0  0  0  0  0
    3.4278    0.3875    0.0000 H   0  0  0  0  0  0  0  0  0  0  0  0
    3.0967    2.5779    0.0000 H   0  0  0  0  0  0  0  0  0  0  0  0
    1.1413    6.0912    0.0000 H   0  0  0  0  0  0  0  0  0  0  0  0
   -0.7582    0.3875    0.0000 H   0  0  0  0  0  0  0  0  0  0  0  0
    2.0208    3.6528    0.0000 H   0  0  0  0  0  0  0  0  0  0  0  0
    1.3056    6.3259    0.0000 H   0  0  0  0  0  0  0  0  0  0  0  0
   -0.9640    5.4257    0.0000 H   0  0  0  0  0  0  0  0  0  0  0  0
   -0.2365    2.7178    0.0000 H   0  0  0  0  0  0  0  0  0  0  0  0
    0.0465    6.4361    0.0000 H   0  0  0  0  0  0  0  0  0  0  0  0
   -0.5941    4.0454    0.0000 H   0  0  0  0  0  0  0  0  0  0  0  0
    5.0277    7.7708    0.0000 H   0  0  0  0  0  0  0  0  0  0  0  0
    3.3012    8.2334    0.0000 H   0  0  0  0  0  0  0  0  0  0  0  0
    0.2261    3.6518    0.0000 H   0  0  0  0  0  0  0  0  0  0  0  0
   -1.5209    4.2704    0.0000 H   0  0  0  0  0  0  0  0  0  0  0  0
   -0.4688    4.4654    0.0000 H   0  0  0  0  0  0  0  0  0  0  0  0
    3.7139    3.1852    0.0000 H   0  0  0  0  0  0  0  0  0  0  0  0
    2.4035    4.4956    0.0000 H   0  0  0  0  0  0  0  0  0  0  0  0
    3.4370    4.2187    0.0000 H   0  0  0  0  0  0  0  0  0  0  0  0
   -4.5870    2.0331    0.0000 H   0  0  0  0  0  0  0  0  0  0  0  0
   -2.8400    1.4145    0.0000 H   0  0  0  0  0  0  0  0  0  0  0  0
   -3.8921    1.2195    0.0000 H   0  0  0  0  0  0  0  0  0  0  0  0
   -1.8539    7.6260    0.0000 H   0  0  0  0  0  0  0  0  0  0  0  0
   -3.1642    6.3154    0.0000 H   0  0  0  0  0  0  0  0  0  0  0  0
   -2.8874    7.3489    0.0000 H   0  0  0  0  0  0  0  0  0  0  0  0
    3.5636    8.0468    0.0000 H   0  0  0  0  0  0  0  0  0  0  0  0
    1.7735    7.5672    0.0000 H   0  0  0  0  0  0  0  0  0  0  0  0
    2.5301    8.3237    0.0000 H   0  0  0  0  0  0  0  0  0  0  0  0
    2.4774    4.9398    0.0000 H   0  0  0  0  0  0  0  0  0  0  0  0
    4.2675    5.4194    0.0000 H   0  0  0  0  0  0  0  0  0  0  0  0
    3.5109    4.6629    0.0000 H   0  0  0  0  0  0  0  0  0  0  0  0
   -0.1298   -0.1339    0.0000 H   0  0  0  0  0  0  0  0  0  0  0  0
    1.7007    0.1561    0.0000 H   0  0  0  0  0  0  0  0  0  0  0  0
    0.8691   -0.5173    0.0000 H   0  0  0  0  0  0  0  0  0  0  0  0
    4.9660   -0.7221    0.0000 H   0  0  0  0  0  0  0  0  0  0  0  0
    4.1682    0.9507    0.0000 H   0  0  0  0  0  0  0  0  0  0  0  0
    5.0500    0.3446    0.0000 H   0  0  0  0  0  0  0  0  0  0  0  0
    4.5472    5.9772    0.0000 H   0  0  0  0  0  0  0  0  0  0  0  0
    4.4164    0.8401    0.0000 H   0  0  0  0  0  0  0  0  0  0  0  0
    3.5117    0.1829    0.0000 H   0  0  0  0  0  0  0  0  0  0  0  0
    3.9301    2.8655    0.0000 H   0  0  0  0  0  0  0  0  0  0  0  0
    2.8257    3.0403    0.0000 H   0  0  0  0  0  0  0  0  0  0  0  0
   -1.7468    0.8401    0.0000 H   0  0  0  0  0  0  0  0  0  0  0  0
   -0.8421    0.1829    0.0000 H   0  0  0  0  0  0  0  0  0  0  0  0
   -2.2697    1.5202    0.0000 H   0  0  0  0  0  0  0  0  0  0  0  0
   -2.9646    2.3338    0.0000 H   0  0  0  0  0  0  0  0  0  0  0  0
    1.6938   -0.4646    0.0000 H   0  0  0  0  0  0  0  0  0  0  0  0
    2.5756   -1.0706    0.0000 H   0  0  0  0  0  0  0  0  0  0  0  0
    2.7667    4.7263    0.0000 H   0  0  0  0  0  0  0  0  0  0  0  0
    3.0436    5.7599    0.0000 H   0  0  0  0  0  0  0  0  0  0  0  0
   -0.7894   -0.5533    0.0000 H   0  0  0  0  0  0  0  0  0  0  0  0
    2.1748    4.5044    0.0000 H   0  0  0  0  0  0  0  0  0  0  0  0
    1.7804    6.9006    0.0000 H   0  0  0  0  0  0  0  0  0  0  0  0
   -1.8634    5.3147    0.0000 H   0  0  0  0  0  0  0  0  0  0  0  0
  1 62  1  0  0  0  0
  1 63  1  0  0  0  0
  2 64  1  0  0  0  0
  2 65  1  0  0  0  0
  2 66  1  0  0  0  0
  3 67  1  0  0  0  0
  3 68  1  0  0  0  0
  3 69  1  0  0  0  0
  4 70  1  0  0  0  0
  4 71  1  0  0  0  0
  4 72  1  0  0  0  0
  5 73  1  0  0  0  0
  5 74  1  0  0  0  0
  5 75  1  0  0  0  0
  6 76  1  0  0  0  0
  6 77  1  0  0  0  0
  6 78  1  0  0  0  0
  7 79  1  0  0  0  0
  7 80  1  0  0  0  0
  7 81  1  0  0  0  0
  8 82  1  0  0  0  0
  8 83  1  0  0  0  0
  8 84  1  0  0  0  0
  9 85  1  0  0  0  0
  9 86  1  0  0  0  0
  9 87  1  0  0  0  0
 10  1  2  0  0  0  0
 10 88  1  0  0  0  0
 11 89  1  0  0  0  0
 11 90  1  0  0  0  0
 12 11  1  0  0  0  0
 12 91  1  0  0  0  0
 12 92  1  0  0  0  0
 13 93  1  0  0  0  0
 13 94  1  0  0  0  0
 15 95  1  0  0  0  0
 15 96  1  0  0  0  0
 16 97  1  0  0  0  0
 16 98  1  0  0  0  0
 17 99  1  0  0  0  0
 17100  1  0  0  0  0
 18  2  1  0  0  0  0
 18 15  1  0  0  0  0
 18 50  1  6  0  0  0
 19  3  1  0  0  0  0
 19 51  1  1  0  0  0
 20  4  1  0  0  0  0
 21  5  1  0  0  0  0
 22 11  1  0  0  0  0
 22 16  1  0  0  0  0
 22 52  1  1  0  0  0
 23 12  1  0  0  0  0
 23 19  1  0  0  0  0
 23 53  1  1  0  0  0
 24 13  1  0  0  0  0
 24 18  1  0  0  0  0
 25 14  2  0  0  0  0
 25 22  1  0  0  0  0
 25 23  1  0  0  0  0
 26 17  1  0  0  0  0
 26 54  1  6  0  0  0
 27 13  1  0  0  0  0
 27 39  1  0  0  0  0
 27 55  1  6  0  0  0
 28 24  2  0  0  0  0
 29 19  1  0  0  0  0
 29 40  1  0  0  0  0
 29 56  1  1  0  0  0
 30 26  1  0  0  0  0
 30 41  1  0  0  0  0
 30 57  1  1  0  0  0
 31 42  1  0  0  0  0
 31 58  1  1  0  0  0
 32 28  1  0  0  0  0
 32 29  1  0  0  0  0
 32 48  1  0  0  0  0
 32 59  1  6  0  0  0
 33 30  1  0  0  0  0
 33 31  1  0  0  0  0
 33 46  1  0  0  0  0
 33 60  1  6  0  0  0
 34 31  1  0  0  0  0
 34 48  1  0  0  0  0
 34 61  1  1  0  0  0
 35  6  1  0  0  0  0
 35  7  1  0  0  0  0
 35 10  1  0  0  0  0
 36  8  1  6  0  0  0
 36 14  1  0  0  0  0
 36 27  1  0  0  0  0
 36 28  1  0  0  0  0
 37 20  2  0  0  0  0
 38 21  2  0  0  0  0
 39101  1  0  0  0  0
 40102  1  0  0  0  0
 41103  1  0  0  0  0
 42104  1  0  0  0  0
 43  9  1  0  0  0  0
 43 16  1  0  0  0  0
 44 15  1  0  0  0  0
 44 20  1  0  0  0  0
 45 17  1  0  0  0  0
 45 35  1  0  0  0  0
 46 21  1  0  0  0  0
 47 26  1  0  0  0  0
 47 34  1  0  0  0  0
 49 14  1  0  0  0  0
M  END
>  <DRUGBANK_ID>
DB01780

>  <SECONDARY_ACCESSION_NUMBERS>
EXPT01498

>  <COMMON_NAME>
Fusicoccin

>  <CAS_NUMBER>
20108-30-9

$$$$
