
 OpenBabel10282417072D

 31 32  0  0  0  0  0  0  0  0999 V2000
    2.1434    4.5375    0.0000 C   0  0  0  0  0  0  0  0  0  0  0  0
    0.7145    2.0625    0.0000 C   0  0  0  0  0  0  0  0  0  0  0  0
    2.8579    2.4750    0.0000 C   0  0  0  0  0  0  0  0  0  0  0  0
    0.7145    6.1875    0.0000 C   0  0  0  0  0  0  0  0  0  0  0  0
    2.8579    3.3000    0.0000 C   0  0  0  0  0  0  0  0  0  0  0  0
    2.1434    2.0625    0.0000 C   0  0  0  0  0  0  0  0  0  0  0  0
   -0.0000    5.7750    0.0000 C   0  0  0  0  0  0  0  0  0  0  0  0
    1.4289    5.7750    0.0000 C   0  0  0  0  0  0  0  0  0  0  0  0
    2.1434    3.7125    0.0000 C   0  0  0  0  0  0  0  0  0  0  0  0
    1.4289    2.4750    0.0000 C   0  0  0  0  0  0  0  0  0  0  0  0
    1.4289    3.3000    0.0000 C   0  0  0  0  0  0  0  0  0  0  0  0
    0.7145    4.5375    0.0000 C   0  0  0  0  0  0  0  0  0  0  0  0
   -0.0000    4.9500    0.0000 N   0  0  0  0  0  0  0  0  0  0  0  0
    0.7145    3.7125    0.0000 N   0  0  0  0  0  0  0  0  0  0  0  0
    1.4289    4.9500    0.0000 S   0  0  0  0  0  0  0  0  0  0  0  0
    3.0700    5.0725    0.0000 H   0  0  0  0  0  0  0  0  0  0  0  0
    1.2168    5.0725    0.0000 H   0  0  0  0  0  0  0  0  0  0  0  0
    2.1434    5.6075    0.0000 H   0  0  0  0  0  0  0  0  0  0  0  0
   -0.2122    2.5975    0.0000 H   0  0  0  0  0  0  0  0  0  0  0  0
    0.7145    0.9925    0.0000 H   0  0  0  0  0  0  0  0  0  0  0  0
   -0.2121    1.5275    0.0000 H   0  0  0  0  0  0  0  0  0  0  0  0
    3.7516    1.9590    0.0000 H   0  0  0  0  0  0  0  0  0  0  0  0
    0.7145    7.2575    0.0000 H   0  0  0  0  0  0  0  0  0  0  0  0
    1.6412    6.7225    0.0000 H   0  0  0  0  0  0  0  0  0  0  0  0
    3.7516    3.8160    0.0000 H   0  0  0  0  0  0  0  0  0  0  0  0
    2.1434    1.0305    0.0000 H   0  0  0  0  0  0  0  0  0  0  0  0
   -0.9266    6.3100    0.0000 H   0  0  0  0  0  0  0  0  0  0  0  0
   -0.9266    5.2400    0.0000 H   0  0  0  0  0  0  0  0  0  0  0  0
    2.3556    6.3100    0.0000 H   0  0  0  0  0  0  0  0  0  0  0  0
    2.3555    5.2400    0.0000 H   0  0  0  0  0  0  0  0  0  0  0  0
   -0.1381    3.2203    0.0000 H   0  0  0  0  0  0  0  0  0  0  0  0
  1 16  1  0  0  0  0
  1 17  1  0  0  0  0
  1 18  1  0  0  0  0
  2 19  1  0  0  0  0
  2 20  1  0  0  0  0
  2 21  1  0  0  0  0
  3 22  1  0  0  0  0
  4 23  1  0  0  0  0
  4 24  1  0  0  0  0
  5  3  2  0  0  0  0
  5 25  1  0  0  0  0
  6  3  1  0  0  0  0
  6 26  1  0  0  0  0
  7  4  1  0  0  0  0
  7 27  1  0  0  0  0
  7 28  1  0  0  0  0
  8  4  1  0  0  0  0
  8 29  1  0  0  0  0
  8 30  1  0  0  0  0
  9  1  1  0  0  0  0
  9  5  1  0  0  0  0
 10  2  1  0  0  0  0
 10  6  2  0  0  0  0
 11  9  2  0  0  0  0
 11 10  1  0  0  0  0
 13  7  1  0  0  0  0
 13 12  2  0  0  0  0
 14 11  1  0  0  0  0
 14 12  1  0  0  0  0
 14 31  1  0  0  0  0
 15  8  1  0  0  0  0
 15 12  1  0  0  0  0
M  END
>  <DRUGBANK_ID>
DB11477

>  <COMMON_NAME>
Xylazine

>  <CAS_NUMBER>
7361-61-7

>  <UNII>
2KFG9TP5V8

>  <SYNONYMS>
Xilazina; Xylazine; Xylazinum

$$$$
