
 OpenBabel10282417072D

 23 23  0  0  1  0  0  0  0  0999 V2000
    0.0059   -1.5764    0.0000 C   0  0  0  0  0  0  0  0  0  0  0  0
    1.2352    0.6294    0.0000 C   0  0  0  0  0  0  0  0  0  0  0  0
   -0.0997    0.6294    0.0000 C   0  0  0  0  0  0  0  0  0  0  0  0
   -0.3297   -0.8227    0.0000 C   0  0  0  0  0  0  0  0  0  0  0  0
    0.5678    1.1143    0.0000 C   0  0  2  0  0  0  0  0  0  0  0  0
    0.9803   -0.1553    0.0000 C   0  0  1  0  0  0  0  0  0  0  0  0
    1.4652   -0.8227    0.0000 C   0  0  0  0  0  0  0  0  0  0  0  0
    0.1553   -0.1553    0.0000 N   0  0  0  0  0  0  0  0  0  0  0  0
   -1.1501   -0.7365    0.0000 O   0  0  0  0  0  0  0  0  0  0  0  0
    0.5678    1.9393    0.0000 O   0  0  0  0  0  0  0  0  0  0  0  0
    1.1296   -1.5764    0.0000 O   0  0  0  0  0  0  0  0  0  0  0  0
    2.2857   -0.7365    0.0000 O   0  0  0  0  0  0  0  0  0  0  0  0
   -0.1673    1.4888    0.0000 H   0  0  0  0  0  0  0  0  0  0  0  0
    0.6057   -0.8903    0.0000 H   0  0  0  0  0  0  0  0  0  0  0  0
   -0.6230   -2.4421    0.0000 H   0  0  0  0  0  0  0  0  0  0  0  0
    1.0700   -1.6882    0.0000 H   0  0  0  0  0  0  0  0  0  0  0  0
    0.4411   -2.5539    0.0000 H   0  0  0  0  0  0  0  0  0  0  0  0
    2.2528    0.9601    0.0000 H   0  0  0  0  0  0  0  0  0  0  0  0
    1.9918   -0.1272    0.0000 H   0  0  0  0  0  0  0  0  0  0  0  0
   -1.1173    0.9601    0.0000 H   0  0  0  0  0  0  0  0  0  0  0  0
   -0.8563   -0.1272    0.0000 H   0  0  0  0  0  0  0  0  0  0  0  0
    1.4078    2.4243    0.0000 H   0  0  0  0  0  0  0  0  0  0  0  0
    2.8364   -1.4946    0.0000 H   0  0  0  0  0  0  0  0  0  0  0  0
  1 15  1  0  0  0  0
  1 16  1  0  0  0  0
  1 17  1  0  0  0  0
  2 18  1  0  0  0  0
  2 19  1  0  0  0  0
  3 20  1  0  0  0  0
  3 21  1  0  0  0  0
  4  1  1  0  0  0  0
  5  2  1  0  0  0  0
  5  3  1  0  0  0  0
  5 10  1  0  0  0  0
  5 13  1  1  0  0  0
  6  2  1  0  0  0  0
  6  7  1  0  0  0  0
  6 14  1  6  0  0  0
  8  3  1  0  0  0  0
  8  4  1  0  0  0  0
  8  6  1  0  0  0  0
  9  4  2  0  0  0  0
 10 22  1  0  0  0  0
 11  7  2  0  0  0  0
 12  7  1  0  0  0  0
 12 23  1  0  0  0  0
M  END
>  <DRUGBANK_ID>
DB13363

>  <COMMON_NAME>
Oxaceprol

>  <CAS_NUMBER>
33996-33-7

>  <UNII>
Q0XV76B96L

>  <SYNONYMS>
Oxaceprol

$$$$
