
 OpenBabel10282417072D

 62 65  0  0  0  0  0  0  0  0999 V2000
    0.3811    0.1616    0.0000 C   0  0  2  0  0  0  0  0  0  0  0  0
    1.1627    0.4173    0.0000 C   0  0  1  0  0  0  0  0  0  0  0  0
   -1.7611   -1.0735    0.0000 C   0  0  2  0  0  0  0  0  0  0  0  0
   -0.3281   -1.0735    0.0000 C   0  0  1  0  0  0  0  0  0  0  0  0
    0.3811   -0.6634    0.0000 C   0  0  2  0  0  0  0  0  0  0  0  0
   -1.0470   -0.6634    0.0000 C   0  0  2  0  0  0  0  0  0  0  0  0
   -1.7611   -1.8986    0.0000 C   0  0  0  0  0  0  0  0  0  0  0  0
    1.9493    0.6344    0.0000 O   0  0  0  0  0  0  0  0  0  0  0  0
   -0.3281    0.5765    0.0000 C   0  0  0  0  0  0  0  0  0  0  0  0
   -1.0470    0.1616    0.0000 C   0  0  2  0  0  0  0  0  0  0  0  0
   -2.4704   -0.6634    0.0000 C   0  0  0  0  0  0  0  0  0  0  0  0
    2.5282    0.0554    0.0000 C   0  0  0  0  0  0  0  0  0  0  0  0
    1.4233    1.1989    0.0000 C   0  0  0  0  0  0  0  0  0  0  0  0
   -2.4704   -2.3135    0.0000 C   0  0  0  0  0  0  0  0  0  0  0  0
    1.6453   -0.2484    0.0000 C   0  0  0  0  0  0  0  0  0  0  0  0
    1.1627   -0.9143    0.0000 C   0  0  0  0  0  0  0  0  0  0  0  0
   -0.3281   -1.8986    0.0000 C   0  0  0  0  0  0  0  0  0  0  0  0
   -3.1892   -1.0735    0.0000 C   0  0  0  0  0  0  0  0  0  0  0  0
    3.3244    0.2630    0.0000 C   0  0  0  0  0  0  0  0  0  0  0  0
   -3.1892   -1.8986    0.0000 C   0  0  0  0  0  0  0  0  0  0  0  0
   -1.0470   -2.3135    0.0000 C   0  0  0  0  0  0  0  0  0  0  0  0
    2.3208   -0.7406    0.0000 O   0  0  0  0  0  0  0  0  0  0  0  0
    0.8781    1.8214    0.0000 O   0  0  0  0  0  0  0  0  0  0  0  0
   -3.9034   -2.3135    0.0000 O   0  0  0  0  0  0  0  0  0  0  0  0
    0.3811    0.9867    0.0000 C   0  0  0  0  0  0  0  0  0  0  0  0
   -1.7563    0.5765    0.0000 O   0  0  0  0  0  0  0  0  0  0  0  0
    3.5367    1.0591    0.0000 Cl  0  0  0  0  0  0  0  0  0  0  0  0
    3.9034   -0.3160    0.0000 Cl  0  0  0  0  0  0  0  0  0  0  0  0
    2.2243    1.3727    0.0000 O   0  0  0  0  0  0  0  0  0  0  0  0
   -1.7707   -0.2484    0.0000 C   0  0  0  0  0  0  0  0  0  0  0  0
    2.4849    2.1446    0.0000 C   0  0  0  0  0  0  0  0  0  0  0  0
    3.2810    2.3135    0.0000 C   0  0  0  0  0  0  0  0  0  0  0  0
   -1.0470   -1.4884    0.0000 H   0  0  0  0  0  0  0  0  0  0  0  0
   -0.3281   -0.2484    0.0000 H   0  0  0  0  0  0  0  0  0  0  0  0
    0.3811   -1.4884    0.0000 H   0  0  0  0  0  0  0  0  0  0  0  0
   -0.3249    1.6465    0.0000 H   0  0  0  0  0  0  0  0  0  0  0  0
   -1.2539    1.1129    0.0000 H   0  0  0  0  0  0  0  0  0  0  0  0
   -1.9752   -0.3708    0.0000 H   0  0  0  0  0  0  0  0  0  0  0  0
   -2.4674    0.3686    0.0000 H   0  0  0  0  0  0  0  0  0  0  0  0
   -2.4674   -3.3455    0.0000 H   0  0  0  0  0  0  0  0  0  0  0  0
    2.7153   -0.2483    0.0000 H   0  0  0  0  0  0  0  0  0  0  0  0
    2.1317   -1.2015    0.0000 H   0  0  0  0  0  0  0  0  0  0  0  0
    1.4958   -1.9311    0.0000 H   0  0  0  0  0  0  0  0  0  0  0  0
    2.2198   -1.0798    0.0000 H   0  0  0  0  0  0  0  0  0  0  0  0
    0.5985   -2.4337    0.0000 H   0  0  0  0  0  0  0  0  0  0  0  0
   -0.3282   -2.9686    0.0000 H   0  0  0  0  0  0  0  0  0  0  0  0
   -4.0816   -0.5552    0.0000 H   0  0  0  0  0  0  0  0  0  0  0  0
    4.3578    0.5406    0.0000 H   0  0  0  0  0  0  0  0  0  0  0  0
   -1.0486   -3.3835    0.0000 H   0  0  0  0  0  0  0  0  0  0  0  0
   -1.9748   -2.8466    0.0000 H   0  0  0  0  0  0  0  0  0  0  0  0
    1.3077    1.5217    0.0000 H   0  0  0  0  0  0  0  0  0  0  0  0
   -0.5455    1.5217    0.0000 H   0  0  0  0  0  0  0  0  0  0  0  0
    0.3811    2.0567    0.0000 H   0  0  0  0  0  0  0  0  0  0  0  0
   -1.7508    1.5465    0.0000 H   0  0  0  0  0  0  0  0  0  0  0  0
   -0.8503    0.2973    0.0000 H   0  0  0  0  0  0  0  0  0  0  0  0
   -2.7035    0.2758    0.0000 H   0  0  0  0  0  0  0  0  0  0  0  0
   -1.7831    0.8215    0.0000 H   0  0  0  0  0  0  0  0  0  0  0  0
    1.7736    2.9440    0.0000 H   0  0  0  0  0  0  0  0  0  0  0  0
    2.8187    3.1612    0.0000 H   0  0  0  0  0  0  0  0  0  0  0  0
    3.9967    1.5181    0.0000 H   0  0  0  0  0  0  0  0  0  0  0  0
    3.6120    3.3310    0.0000 H   0  0  0  0  0  0  0  0  0  0  0  0
    4.3277    2.5356    0.0000 H   0  0  0  0  0  0  0  0  0  0  0  0
  1 25  1  1  0  0  0
  2  1  1  0  0  0  0
  2  8  1  6  0  0  0
  2 13  1  0  0  0  0
  3  6  1  0  0  0  0
  3 30  1  1  0  0  0
  4  5  1  0  0  0  0
  4 34  1  1  0  0  0
  5  1  1  0  0  0  0
  5 35  1  6  0  0  0
  6 10  1  0  0  0  0
  6 33  1  6  0  0  0
  6  4  1  0  0  0  0
  7  3  1  0  0  0  0
  9  1  1  0  0  0  0
  9 36  1  0  0  0  0
  9 37  1  0  0  0  0
 10  9  1  0  0  0  0
 10 26  1  0  0  0  0
 10 38  1  6  0  0  0
 11  3  1  0  0  0  0
 11 39  1  0  0  0  0
 12  8  1  0  0  0  0
 14  7  2  0  0  0  0
 14 40  1  0  0  0  0
 15  2  1  0  0  0  0
 15 16  1  0  0  0  0
 15 41  1  0  0  0  0
 15 42  1  0  0  0  0
 16  5  1  0  0  0  0
 16 43  1  0  0  0  0
 16 44  1  0  0  0  0
 17  4  1  0  0  0  0
 17 45  1  0  0  0  0
 17 46  1  0  0  0  0
 18 11  2  0  0  0  0
 18 47  1  0  0  0  0
 19 12  1  0  0  0  0
 19 48  1  0  0  0  0
 20 18  1  0  0  0  0
 20 14  1  0  0  0  0
 21 17  1  0  0  0  0
 21  7  1  0  0  0  0
 21 49  1  0  0  0  0
 21 50  1  0  0  0  0
 22 12  2  0  0  0  0
 23 13  2  0  0  0  0
 24 20  2  0  0  0  0
 25 51  1  0  0  0  0
 25 52  1  0  0  0  0
 25 53  1  0  0  0  0
 26 54  1  0  0  0  0
 27 19  1  0  0  0  0
 28 19  1  0  0  0  0
 29 13  1  0  0  0  0
 30 55  1  0  0  0  0
 30 56  1  0  0  0  0
 30 57  1  0  0  0  0
 31 29  1  0  0  0  0
 31 58  1  0  0  0  0
 31 59  1  0  0  0  0
 32 31  1  0  0  0  0
 32 60  1  0  0  0  0
 32 61  1  0  0  0  0
 32 62  1  0  0  0  0
M  END
>  <DRUGBANK_ID>
DB05442

>  <COMMON_NAME>
Etiprednol dicloacetate

>  <CAS_NUMBER>
199331-40-3

>  <UNII>
332VLD554F

>  <SYNONYMS>
Etiprednol dicloacetate

$$$$
