
 OpenBabel10282417072D

 49 52  0  0  0  0  0  0  0  0999 V2000
   -1.6537    0.3032    0.0000 C   0  0  0  0  0  0  0  0  0  0  0  0
   -1.6549   -0.5169    0.0000 C   0  0  0  0  0  0  0  0  0  0  0  0
   -0.9462   -0.9261    0.0000 C   0  0  0  0  0  0  0  0  0  0  0  0
   -0.9479    0.7123    0.0000 C   0  0  0  0  0  0  0  0  0  0  0  0
   -0.2389    0.3067    0.0000 C   0  0  0  0  0  0  0  0  0  0  0  0
   -0.2401   -0.5189    0.0000 C   0  0  0  0  0  0  0  0  0  0  0  0
    0.4703   -0.9306    0.0000 C   0  0  0  0  0  0  0  0  0  0  0  0
    1.1867   -0.5210    0.0000 C   0  0  0  0  0  0  0  0  0  0  0  0
    0.4728    0.7209    0.0000 C   0  0  2  0  0  0  0  0  0  0  0  0
    1.1879    0.3010    0.0000 C   0  0  2  0  0  0  0  0  0  0  0  0
    1.1982    1.9565    0.0000 C   0  0  0  0  0  0  0  0  0  0  0  0
    0.4748    1.5478    0.0000 C   0  0  0  0  0  0  0  0  0  0  0  0
    1.9133    1.5367    0.0000 C   0  0  1  0  0  0  0  0  0  0  0  0
    1.9046    0.7097    0.0000 C   0  0  1  0  0  0  0  0  0  0  0  0
    2.6885    0.4457    0.0000 C   0  0  0  0  0  0  0  0  0  0  0  0
    3.1818    1.1098    0.0000 C   0  0  0  0  0  0  0  0  0  0  0  0
    2.7026    1.7839    0.0000 C   0  0  2  0  0  0  0  0  0  0  0  0
    2.9636    2.5590    0.0000 O   0  0  0  0  0  0  0  0  0  0  0  0
    1.9079    2.3558    0.0000 C   0  0  0  0  0  0  0  0  0  0  0  0
    1.1810    1.1209    0.0000 H   0  0  0  0  0  0  0  0  0  0  0  0
    0.4664   -0.0933    0.0000 H   0  0  0  0  0  0  0  0  0  0  0  0
    1.8996   -0.1057    0.0000 H   0  0  0  0  0  0  0  0  0  0  0  0
   -2.3634   -0.9252    0.0000 O   0  0  0  0  0  0  0  0  0  0  0  0
   -2.3640   -1.7429    0.0000 S   0  0  0  0  0  0  0  0  0  0  0  0
   -2.3710   -2.5590    0.0000 N   0  0  0  0  0  0  0  0  0  0  0  0
   -1.5462   -1.7467    0.0000 O   0  0  0  0  0  0  0  0  0  0  0  0
   -3.1818   -1.7410    0.0000 O   0  0  0  0  0  0  0  0  0  0  0  0
   -2.5475    0.8191    0.0000 H   0  0  0  0  0  0  0  0  0  0  0  0
   -0.9465   -1.9581    0.0000 H   0  0  0  0  0  0  0  0  0  0  0  0
   -0.9508    1.7443    0.0000 H   0  0  0  0  0  0  0  0  0  0  0  0
    0.4672   -2.0006    0.0000 H   0  0  0  0  0  0  0  0  0  0  0  0
    1.3950   -1.4689    0.0000 H   0  0  0  0  0  0  0  0  0  0  0  0
    2.1118   -1.0586    0.0000 H   0  0  0  0  0  0  0  0  0  0  0  0
    2.1145    0.0120    0.0000 H   0  0  0  0  0  0  0  0  0  0  0  0
    1.2071    3.0265    0.0000 H   0  0  0  0  0  0  0  0  0  0  0  0
    2.1290    2.4843    0.0000 H   0  0  0  0  0  0  0  0  0  0  0  0
   -0.4487    2.0882    0.0000 H   0  0  0  0  0  0  0  0  0  0  0  0
   -0.4541    1.0166    0.0000 H   0  0  0  0  0  0  0  0  0  0  0  0
    3.0083   -0.5754    0.0000 H   0  0  0  0  0  0  0  0  0  0  0  0
    3.7435    0.2671    0.0000 H   0  0  0  0  0  0  0  0  0  0  0  0
    4.2517    1.0986    0.0000 H   0  0  0  0  0  0  0  0  0  0  0  0
    3.6774    2.0581    0.0000 H   0  0  0  0  0  0  0  0  0  0  0  0
    3.7611    1.9402    0.0000 H   0  0  0  0  0  0  0  0  0  0  0  0
    3.9145    2.7506    0.0000 H   0  0  0  0  0  0  0  0  0  0  0  0
    2.8310    2.8969    0.0000 H   0  0  0  0  0  0  0  0  0  0  0  0
    0.9777    2.8847    0.0000 H   0  0  0  0  0  0  0  0  0  0  0  0
    1.9008    3.4258    0.0000 H   0  0  0  0  0  0  0  0  0  0  0  0
   -3.2587   -3.0614    0.0000 H   0  0  0  0  0  0  0  0  0  0  0  0
   -1.4921   -3.0766    0.0000 H   0  0  0  0  0  0  0  0  0  0  0  0
  1  2  2  0  0  0  0
  1 28  1  0  0  0  0
  2  3  1  0  0  0  0
  2 23  1  0  0  0  0
  3  6  2  0  0  0  0
  3 29  1  0  0  0  0
  4  1  1  0  0  0  0
  4 30  1  0  0  0  0
  5  9  1  0  0  0  0
  5  4  2  0  0  0  0
  5  6  1  0  0  0  0
  6  7  1  0  0  0  0
  7  8  1  0  0  0  0
  7 31  1  0  0  0  0
  7 32  1  0  0  0  0
  8 10  1  0  0  0  0
  8 33  1  0  0  0  0
  8 34  1  0  0  0  0
  9 10  1  0  0  0  0
  9 21  1  6  0  0  0
  9 12  1  0  0  0  0
 10 20  1  1  0  0  0
 10 14  1  0  0  0  0
 11 12  1  0  0  0  0
 11 35  1  0  0  0  0
 11 36  1  0  0  0  0
 12 37  1  0  0  0  0
 12 38  1  0  0  0  0
 13 14  1  0  0  0  0
 13 19  1  1  0  0  0
 13 11  1  0  0  0  0
 14 15  1  0  0  0  0
 14 22  1  6  0  0  0
 15 16  1  0  0  0  0
 15 39  1  0  0  0  0
 15 40  1  0  0  0  0
 16 17  1  0  0  0  0
 16 41  1  0  0  0  0
 16 42  1  0  0  0  0
 17 13  1  0  0  0  0
 17 18  1  0  0  0  0
 17 43  1  6  0  0  0
 18 44  1  0  0  0  0
 19 45  1  0  0  0  0
 19 46  1  0  0  0  0
 19 47  1  0  0  0  0
 23 24  1  0  0  0  0
 24 25  1  0  0  0  0
 24 26  2  0  0  0  0
 24 27  2  0  0  0  0
 25 48  1  0  0  0  0
 25 49  1  0  0  0  0
M  END
>  <DRUGBANK_ID>
DB06597

>  <COMMON_NAME>
Estradiol sulfamate

>  <CAS_NUMBER>
172377-52-5

>  <UNII>
WO55ODW08Z

>  <SYNONYMS>
Estradiol 3-sulfamate; Estradiol-3-O-Sulfamate

$$$$
