
 OpenBabel10282417072D

105111  0  0  0  0  0  0  0  0999 V2000
   -3.4401   -3.9147    0.0000 C   0  0  0  0  0  0  0  0  0  0  0  0
   -2.7255   -3.5022    0.0000 C   0  0  0  0  0  0  0  0  0  0  0  0
   -2.0110   -3.9147    0.0000 C   0  0  0  0  0  0  0  0  0  0  0  0
   -2.7255   -2.6771    0.0000 C   0  0  0  0  0  0  0  0  0  0  0  0
   -2.0110   -2.2647    0.0000 N   0  0  0  0  0  0  0  0  0  0  0  0
   -2.0110   -1.4396    0.0000 C   0  0  0  0  0  0  0  0  0  0  0  0
   -2.7255   -1.0271    0.0000 C   0  0  1  0  0  0  0  0  0  0  0  0
   -3.4401   -1.4396    0.0000 O   0  0  0  0  0  0  0  0  0  0  0  0
   -2.7255   -0.2020    0.0000 C   0  0  2  0  0  0  0  0  0  0  0  0
   -3.4401    0.2103    0.0000 C   0  0  0  0  0  0  0  0  0  0  0  0
   -4.1545   -0.2020    0.0000 C   0  0  0  0  0  0  0  0  0  0  0  0
   -4.8691    0.2103    0.0000 C   0  0  0  0  0  0  0  0  0  0  0  0
   -5.5835   -0.2020    0.0000 C   0  0  0  0  0  0  0  0  0  0  0  0
   -5.5835   -1.0271    0.0000 C   0  0  0  0  0  0  0  0  0  0  0  0
   -4.8691   -1.4396    0.0000 C   0  0  0  0  0  0  0  0  0  0  0  0
   -4.1545   -1.0271    0.0000 C   0  0  0  0  0  0  0  0  0  0  0  0
   -2.0110    0.2104    0.0000 N   0  0  0  0  0  0  0  0  0  0  0  0
   -2.0110    1.0355    0.0000 C   0  0  0  0  0  0  0  0  0  0  0  0
   -2.7255    1.4479    0.0000 O   0  0  0  0  0  0  0  0  0  0  0  0
   -1.2966    1.4479    0.0000 O   0  0  0  0  0  0  0  0  0  0  0  0
   -1.2966    2.2730    0.0000 C   0  0  2  0  0  0  0  0  0  0  0  0
   -0.6291    2.7578    0.0000 C   0  0  1  0  0  0  0  0  0  0  0  0
   -0.8841    3.5425    0.0000 C   0  0  1  0  0  0  0  0  0  0  0  0
   -1.7090    3.5425    0.0000 O   0  0  0  0  0  0  0  0  0  0  0  0
   -1.9640    2.7578    0.0000 C   0  0  0  0  0  0  0  0  0  0  0  0
   -0.2166    4.0275    0.0000 O   0  0  0  0  0  0  0  0  0  0  0  0
    0.4507    3.5425    0.0000 C   0  0  0  0  0  0  0  0  0  0  0  0
    0.1958    2.7578    0.0000 C   0  0  0  0  0  0  0  0  0  0  0  0
   -1.1390    4.3271    0.0000 H   0  0  0  0  0  0  0  0  0  0  0  0
   -0.3742    1.9732    0.0000 H   0  0  0  0  0  0  0  0  0  0  0  0
   -1.2966   -2.6771    0.0000 S   0  0  0  0  0  0  0  0  0  0  0  0
   -0.8841   -1.9625    0.0000 O   0  0  0  0  0  0  0  0  0  0  0  0
   -1.7090   -3.3917    0.0000 O   0  0  0  0  0  0  0  0  0  0  0  0
   -0.5820   -3.0896    0.0000 C   0  0  0  0  0  0  0  0  0  0  0  0
    0.1323   -2.6771    0.0000 C   0  0  0  0  0  0  0  0  0  0  0  0
    0.8468   -3.0896    0.0000 C   0  0  0  0  0  0  0  0  0  0  0  0
    0.8468   -3.9147    0.0000 C   0  0  0  0  0  0  0  0  0  0  0  0
    0.1323   -4.3271    0.0000 C   0  0  0  0  0  0  0  0  0  0  0  0
   -0.5820   -3.9147    0.0000 C   0  0  0  0  0  0  0  0  0  0  0  0
    1.6314   -4.1695    0.0000 N   0  0  0  0  0  0  0  0  0  0  0  0
    2.1164   -3.5022    0.0000 C   0  0  0  0  0  0  0  0  0  0  0  0
    2.9414   -3.5022    0.0000 N   0  0  0  0  0  0  0  0  0  0  0  0
    3.3539   -2.7876    0.0000 C   0  0  3  0  0  0  0  0  0  0  0  0
    4.1789   -2.7876    0.0000 C   0  0  0  0  0  0  0  0  0  0  0  0
    4.5915   -2.0732    0.0000 C   0  0  0  0  0  0  0  0  0  0  0  0
    4.1789   -1.3586    0.0000 N   0  0  3  0  0  0  0  0  0  0  0  0
    3.3539   -1.3586    0.0000 C   0  0  0  0  0  0  0  0  0  0  0  0
    2.9414   -2.0732    0.0000 C   0  0  0  0  0  0  0  0  0  0  0  0
    4.5915   -0.6441    0.0000 C   0  0  0  0  0  0  0  0  0  0  0  0
    5.4120   -0.5579    0.0000 C   0  0  0  0  0  0  0  0  0  0  0  0
    5.5835    0.2490    0.0000 C   0  0  0  0  0  0  0  0  0  0  0  0
    4.8691    0.6614    0.0000 C   0  0  0  0  0  0  0  0  0  0  0  0
    4.2559    0.1094    0.0000 C   0  0  0  0  0  0  0  0  0  0  0  0
    1.6314   -2.8347    0.0000 S   0  0  0  0  0  0  0  0  0  0  0  0
   -4.3667   -3.3796    0.0000 H   0  0  0  0  0  0  0  0  0  0  0  0
   -3.4402   -4.9847    0.0000 H   0  0  0  0  0  0  0  0  0  0  0  0
   -4.3668   -4.4496    0.0000 H   0  0  0  0  0  0  0  0  0  0  0  0
   -1.7989   -2.9672    0.0000 H   0  0  0  0  0  0  0  0  0  0  0  0
   -2.0110   -4.9847    0.0000 H   0  0  0  0  0  0  0  0  0  0  0  0
   -1.0844   -3.3797    0.0000 H   0  0  0  0  0  0  0  0  0  0  0  0
   -1.0843   -4.4497    0.0000 H   0  0  0  0  0  0  0  0  0  0  0  0
   -3.6521   -2.1420    0.0000 H   0  0  0  0  0  0  0  0  0  0  0  0
   -2.7254   -1.6071    0.0000 H   0  0  0  0  0  0  0  0  0  0  0  0
   -1.0844   -0.9046    0.0000 H   0  0  0  0  0  0  0  0  0  0  0  0
   -2.0110   -0.3696    0.0000 H   0  0  0  0  0  0  0  0  0  0  0  0
   -2.7255   -2.0971    0.0000 H   0  0  0  0  0  0  0  0  0  0  0  0
   -4.2801   -0.9545    0.0000 H   0  0  0  0  0  0  0  0  0  0  0  0
   -3.6521   -0.7371    0.0000 H   0  0  0  0  0  0  0  0  0  0  0  0
   -3.4402    1.2803    0.0000 H   0  0  0  0  0  0  0  0  0  0  0  0
   -4.3667    0.7453    0.0000 H   0  0  0  0  0  0  0  0  0  0  0  0
   -4.8692    1.2423    0.0000 H   0  0  0  0  0  0  0  0  0  0  0  0
   -6.4772    0.3141    0.0000 H   0  0  0  0  0  0  0  0  0  0  0  0
   -6.4772   -1.5431    0.0000 H   0  0  0  0  0  0  0  0  0  0  0  0
   -4.8692   -2.4716    0.0000 H   0  0  0  0  0  0  0  0  0  0  0  0
   -3.2608   -1.5431    0.0000 H   0  0  0  0  0  0  0  0  0  0  0  0
   -1.1584   -0.2819    0.0000 H   0  0  0  0  0  0  0  0  0  0  0  0
   -0.3433    1.7872    0.0000 H   0  0  0  0  0  0  0  0  0  0  0  0
   -2.9816    2.4271    0.0000 H   0  0  0  0  0  0  0  0  0  0  0  0
   -2.1313    1.7010    0.0000 H   0  0  0  0  0  0  0  0  0  0  0  0
    1.4683    3.8731    0.0000 H   0  0  0  0  0  0  0  0  0  0  0  0
    1.2073    2.7859    0.0000 H   0  0  0  0  0  0  0  0  0  0  0  0
    0.8248    1.8922    0.0000 H   0  0  0  0  0  0  0  0  0  0  0  0
   -0.2900    1.8044    0.0000 H   0  0  0  0  0  0  0  0  0  0  0  0
    0.1322   -1.6451    0.0000 H   0  0  0  0  0  0  0  0  0  0  0  0
    0.1322   -5.3591    0.0000 H   0  0  0  0  0  0  0  0  0  0  0  0
   -1.4757   -4.4307    0.0000 H   0  0  0  0  0  0  0  0  0  0  0  0
    3.4337   -4.3548    0.0000 H   0  0  0  0  0  0  0  0  0  0  0  0
    3.8889   -3.7142    0.0000 H   0  0  0  0  0  0  0  0  0  0  0  0
    4.7138   -3.7143    0.0000 H   0  0  0  0  0  0  0  0  0  0  0  0
    5.2489   -2.7877    0.0000 H   0  0  0  0  0  0  0  0  0  0  0  0
    5.6615   -2.0733    0.0000 H   0  0  0  0  0  0  0  0  0  0  0  0
    5.1265   -1.1466    0.0000 H   0  0  0  0  0  0  0  0  0  0  0  0
    2.8189   -0.4320    0.0000 H   0  0  0  0  0  0  0  0  0  0  0  0
    2.2839   -1.3587    0.0000 H   0  0  0  0  0  0  0  0  0  0  0  0
    1.8714   -2.0733    0.0000 H   0  0  0  0  0  0  0  0  0  0  0  0
    2.4064   -2.9999    0.0000 H   0  0  0  0  0  0  0  0  0  0  0  0
    5.1265    0.2826    0.0000 H   0  0  0  0  0  0  0  0  0  0  0  0
    6.1280   -1.3531    0.0000 H   0  0  0  0  0  0  0  0  0  0  0  0
    6.4455   -0.2810    0.0000 H   0  0  0  0  0  0  0  0  0  0  0  0
    6.5610    0.6842    0.0000 H   0  0  0  0  0  0  0  0  0  0  0  0
    5.6394    1.3175    0.0000 H   0  0  0  0  0  0  0  0  0  0  0  0
    4.7573    1.7255    0.0000 H   0  0  0  0  0  0  0  0  0  0  0  0
    3.8702    1.0449    0.0000 H   0  0  0  0  0  0  0  0  0  0  0  0
    3.2093    0.3319    0.0000 H   0  0  0  0  0  0  0  0  0  0  0  0
    3.5826   -0.7222    0.0000 H   0  0  0  0  0  0  0  0  0  0  0  0
  1  2  1  0  0  0  0
  1 55  1  0  0  0  0
  1 56  1  0  0  0  0
  1 57  1  0  0  0  0
  2  3  1  0  0  0  0
  2  4  1  0  0  0  0
  2 58  1  0  0  0  0
  3 59  1  0  0  0  0
  3 60  1  0  0  0  0
  3 61  1  0  0  0  0
  4  5  1  0  0  0  0
  4 62  1  0  0  0  0
  4 63  1  0  0  0  0
  5  6  1  0  0  0  0
  5 31  1  0  0  0  0
  6  7  1  0  0  0  0
  6 64  1  0  0  0  0
  6 65  1  0  0  0  0
  7  8  1  0  0  0  0
  7  9  1  0  0  0  0
  7 66  1  6  0  0  0
  8 67  1  0  0  0  0
  9 10  1  0  0  0  0
  9 17  1  0  0  0  0
  9 68  1  1  0  0  0
 10 11  1  0  0  0  0
 10 69  1  0  0  0  0
 10 70  1  0  0  0  0
 11 12  1  0  0  0  0
 11 16  2  0  0  0  0
 12 71  1  0  0  0  0
 13 12  2  0  0  0  0
 13 72  1  0  0  0  0
 14 13  1  0  0  0  0
 14 73  1  0  0  0  0
 15 14  2  0  0  0  0
 15 74  1  0  0  0  0
 16 15  1  0  0  0  0
 16 75  1  0  0  0  0
 17 18  1  0  0  0  0
 17 76  1  0  0  0  0
 18 19  2  0  0  0  0
 18 20  1  0  0  0  0
 21 20  1  0  0  0  0
 21 22  1  0  0  0  0
 21 25  1  0  0  0  0
 21 77  1  6  0  0  0
 22 30  1  6  0  0  0
 23 22  1  0  0  0  0
 23 26  1  0  0  0  0
 23 29  1  6  0  0  0
 24 23  1  0  0  0  0
 25 24  1  0  0  0  0
 25 78  1  0  0  0  0
 25 79  1  0  0  0  0
 26 27  1  0  0  0  0
 27 28  1  0  0  0  0
 27 80  1  0  0  0  0
 27 81  1  0  0  0  0
 28 22  1  0  0  0  0
 28 82  1  0  0  0  0
 28 83  1  0  0  0  0
 31 32  2  0  0  0  0
 31 33  2  0  0  0  0
 31 34  1  0  0  0  0
 34 35  1  0  0  0  0
 34 39  2  0  0  0  0
 35 84  1  0  0  0  0
 36 35  2  0  0  0  0
 37 36  1  0  0  0  0
 37 40  1  0  0  0  0
 38 37  2  0  0  0  0
 38 85  1  0  0  0  0
 39 38  1  0  0  0  0
 39 86  1  0  0  0  0
 40 41  2  0  0  0  0
 41 42  1  0  0  0  0
 41 54  1  0  0  0  0
 42 43  1  0  0  0  0
 42 87  1  0  0  0  0
 43 44  1  0  0  0  0
 43 48  1  0  0  0  0
 43 88  1  0  0  0  0
 44 89  1  0  0  0  0
 44 90  1  0  0  0  0
 45 44  1  0  0  0  0
 45 91  1  0  0  0  0
 45 92  1  0  0  0  0
 46 45  1  0  0  0  0
 46 49  1  0  0  0  0
 47 46  1  0  0  0  0
 47 93  1  0  0  0  0
 47 94  1  0  0  0  0
 48 47  1  0  0  0  0
 48 95  1  0  0  0  0
 48 96  1  0  0  0  0
 49 50  1  0  0  0  0
 49 53  1  0  0  0  0
 49 97  1  0  0  0  0
 50 98  1  0  0  0  0
 50 99  1  0  0  0  0
 51 50  1  0  0  0  0
 51100  1  0  0  0  0
 51101  1  0  0  0  0
 52 51  1  0  0  0  0
 52102  1  0  0  0  0
 52103  1  0  0  0  0
 53 52  1  0  0  0  0
 53104  1  0  0  0  0
 53105  1  0  0  0  0
 54 36  1  0  0  0  0
M  END
>  <DRUGBANK_ID>
DB15623

>  <COMMON_NAME>
TMC-310911

>  <CAS_NUMBER>
1000287-05-7

>  <UNII>
0151W500HP

$$$$
