
 OpenBabel10282417072D

 42 41  0  0  0  0  0  0  0  0999 V2000
   -1.2932    2.2687    0.0000 O   0  0  0  0  0  0  0  0  0  0  0  0
   -0.5787   -1.4437    0.0000 O   0  0  0  0  0  0  0  0  0  0  0  0
   -0.5787    3.5063    0.0000 O   0  0  0  0  0  0  0  0  0  0  0  0
    1.5647    1.4437    0.0000 O   0  0  0  0  0  0  0  0  0  0  0  0
   -2.7222   -3.5063    0.0000 O   0  0  0  0  0  0  0  0  0  0  0  0
   -3.4366   -2.2687    0.0000 O   0  0  0  0  0  0  0  0  0  0  0  0
    0.8502    2.6813    0.0000 N   0  0  0  0  0  0  0  0  0  0  0  0
   -2.0076   -1.4437    0.0000 N   0  0  0  0  0  0  0  0  0  0  0  0
    2.9936    2.2687    0.0000 N   0  0  0  0  0  0  0  0  0  0  0  0
   -0.5787    1.0312    0.0000 C   0  0  0  0  0  0  0  0  0  0  0  0
    0.1357    1.4437    0.0000 C   0  0  0  0  0  0  0  0  0  0  0  0
   -0.5787    0.2062    0.0000 C   0  0  0  0  0  0  0  0  0  0  0  0
    0.1357    2.2687    0.0000 C   0  0  1  0  0  0  0  0  0  0  0  0
   -1.2932   -0.2062    0.0000 C   0  0  0  0  0  0  0  0  0  0  0  0
   -1.2932   -1.0312    0.0000 C   0  0  0  0  0  0  0  0  0  0  0  0
   -0.5787    2.6813    0.0000 C   0  0  0  0  0  0  0  0  0  0  0  0
   -2.0076   -2.2687    0.0000 C   0  0  2  0  0  0  0  0  0  0  0  0
    1.5647    2.2687    0.0000 C   0  0  0  0  0  0  0  0  0  0  0  0
   -1.2932   -2.6813    0.0000 C   0  0  0  0  0  0  0  0  0  0  0  0
    2.2791    2.6813    0.0000 C   0  0  0  0  0  0  0  0  0  0  0  0
   -2.7222   -2.6813    0.0000 C   0  0  0  0  0  0  0  0  0  0  0  0
    0.8502    3.1928    0.0000 H   0  0  0  0  0  0  0  0  0  0  0  0
   -2.4507   -1.1880    0.0000 H   0  0  0  0  0  0  0  0  0  0  0  0
    2.9936    1.7572    0.0000 H   0  0  0  0  0  0  0  0  0  0  0  0
    3.4366    2.5245    0.0000 H   0  0  0  0  0  0  0  0  0  0  0  0
   -2.1047    2.7371    0.0000 H   0  0  0  0  0  0  0  0  0  0  0  0
   -3.5337   -3.9748    0.0000 H   0  0  0  0  0  0  0  0  0  0  0  0
   -1.5054    1.5662    0.0000 H   0  0  0  0  0  0  0  0  0  0  0  0
   -1.5053    0.4962    0.0000 H   0  0  0  0  0  0  0  0  0  0  0  0
    1.0624    0.9087    0.0000 H   0  0  0  0  0  0  0  0  0  0  0  0
    1.0623    1.9787    0.0000 H   0  0  0  0  0  0  0  0  0  0  0  0
    0.3479   -0.3289    0.0000 H   0  0  0  0  0  0  0  0  0  0  0  0
   -0.5788   -0.8638    0.0000 H   0  0  0  0  0  0  0  0  0  0  0  0
    1.0624    1.7337    0.0000 H   0  0  0  0  0  0  0  0  0  0  0  0
   -2.2198    0.3289    0.0000 H   0  0  0  0  0  0  0  0  0  0  0  0
   -2.2199   -0.7412    0.0000 H   0  0  0  0  0  0  0  0  0  0  0  0
   -1.0809   -1.7338    0.0000 H   0  0  0  0  0  0  0  0  0  0  0  0
   -1.2934   -3.7513    0.0000 H   0  0  0  0  0  0  0  0  0  0  0  0
   -0.3665   -2.1464    0.0000 H   0  0  0  0  0  0  0  0  0  0  0  0
   -0.3666   -3.2164    0.0000 H   0  0  0  0  0  0  0  0  0  0  0  0
    2.2791    3.7513    0.0000 H   0  0  0  0  0  0  0  0  0  0  0  0
    1.3524    3.2162    0.0000 H   0  0  0  0  0  0  0  0  0  0  0  0
  1 16  1  0  0  0  0
  1 26  1  0  0  0  0
  2 15  2  0  0  0  0
  3 16  2  0  0  0  0
  4 18  2  0  0  0  0
  5 21  1  0  0  0  0
  5 27  1  0  0  0  0
  6 21  2  0  0  0  0
  7 18  1  0  0  0  0
  7 22  1  0  0  0  0
  8 15  1  0  0  0  0
  8 23  1  0  0  0  0
  9 20  1  0  0  0  0
  9 24  1  0  0  0  0
  9 25  1  0  0  0  0
 10 11  1  0  0  0  0
 10 12  1  0  0  0  0
 10 28  1  0  0  0  0
 10 29  1  0  0  0  0
 11 13  1  0  0  0  0
 11 30  1  0  0  0  0
 11 31  1  0  0  0  0
 12 14  1  0  0  0  0
 12 32  1  0  0  0  0
 12 33  1  0  0  0  0
 13  7  1  0  0  0  0
 13 16  1  0  0  0  0
 13 34  1  6  0  0  0
 14 15  1  0  0  0  0
 14 35  1  0  0  0  0
 14 36  1  0  0  0  0
 17  8  1  0  0  0  0
 17 19  1  0  0  0  0
 17 21  1  0  0  0  0
 17 37  1  1  0  0  0
 18 20  1  0  0  0  0
 19 38  1  0  0  0  0
 19 39  1  0  0  0  0
 19 40  1  0  0  0  0
 20 41  1  0  0  0  0
 20 42  1  0  0  0  0
M  END
>  <DRUGBANK_ID>
DB03927

>  <SECONDARY_ACCESSION_NUMBERS>
EXPT02774

>  <COMMON_NAME>
Glycyl-L-alpha-amino-epsilon-pimelyl-D-alanine

$$$$
