
 OpenBabel10282417072D

119124  0  0  0  0  0  0  0  0999 V2000
   -1.8446    1.2144    0.0000 C   0  0  2  0  0  0  0  0  0  0  0  0
    3.6202    0.8919    0.0000 C   0  0  0  0  0  0  0  0  0  0  0  0
   -0.5801    4.7699    0.0000 C   0  0  0  0  0  0  0  0  0  0  0  0
    0.2197    1.9054    0.0000 O   0  0  0  0  0  0  0  0  0  0  0  0
   -3.4947    1.2144    0.0000 C   0  0  2  0  0  0  0  0  0  0  0  0
   -4.3197    1.2270    0.0000 C   0  0  0  0  0  0  0  0  0  0  0  0
    0.2323    3.3293    0.0000 C   0  0  2  0  0  0  0  0  0  0  0  0
    1.3924   -3.3334    0.0000 C   0  0  2  0  0  0  0  0  0  0  0  0
    3.2433    1.6164    0.0000 C   0  0  0  0  0  0  0  0  0  0  0  0
    3.7835   -1.7086    0.0000 C   0  0  0  0  0  0  0  0  0  0  0  0
    3.9051   -0.8836    0.0000 C   0  0  1  0  0  0  0  0  0  0  0  0
    3.8673   -3.2077    0.0000 C   0  0  0  0  0  0  0  0  0  0  0  0
   -0.1947    1.2019    0.0000 H   0  0  0  0  0  0  0  0  0  0  0  0
    2.4309    1.4908    0.0000 C   0  0  2  0  0  0  0  0  0  0  0  0
    3.1805   -0.5108    0.0000 C   0  0  1  0  0  0  0  0  0  0  0  0
    0.8061   -3.9197    0.0000 C   0  0  0  0  0  0  0  0  0  0  0  0
   -2.6697    2.6424    0.0000 H   0  0  0  0  0  0  0  0  0  0  0  0
    2.5942   -1.0971    0.0000 O   0  0  0  0  0  0  0  0  0  0  0  0
   -2.2593    0.5024    0.0000 C   0  0  0  0  0  0  0  0  0  0  0  0
    1.8446   -4.0328    0.0000 C   0  0  2  0  0  0  0  0  0  0  0  0
   -1.0197    1.2019    0.0000 C   0  0  0  0  0  0  0  0  0  0  0  0
    2.3555   -0.5108    0.0000 H   0  0  0  0  0  0  0  0  0  0  0  0
    1.9326    2.8896    0.0000 C   0  0  0  0  0  0  0  0  0  0  0  0
   -2.2551    1.9263    0.0000 O   0  0  0  0  0  0  0  0  0  0  0  0
   -1.4342    1.9263    0.0000 H   0  0  0  0  0  0  0  0  0  0  0  0
   -3.4822    2.6424    0.0000 C   0  0  2  0  0  0  0  0  0  0  0  0
    4.7301   -0.8836    0.0000 C   0  0  0  0  0  0  0  0  0  0  0  0
    1.0447    1.9054    0.0000 O   0  0  0  0  0  0  0  0  0  0  0  0
    3.0423   -3.2581    0.0000 C   0  0  2  0  0  0  0  0  0  0  0  0
   -4.7301    1.9389    0.0000 O   0  0  0  0  0  0  0  0  0  0  0  0
    2.6444    2.2907    0.0000 C   0  0  0  0  0  0  0  0  0  0  0  0
    0.6804   -2.9230    0.0000 O   0  0  0  0  0  0  0  0  0  0  0  0
    3.8422    0.0921    0.0000 C   0  0  0  0  0  0  0  0  0  0  0  0
    3.4192   -2.5713    0.0000 H   0  0  0  0  0  0  0  0  0  0  0  0
   -3.0675    3.3544    0.0000 C   0  0  0  0  0  0  0  0  0  0  0  0
    1.7693   -2.6089    0.0000 O   0  0  0  0  0  0  0  0  0  0  0  0
   -3.0717    1.9263    0.0000 C   0  0  1  0  0  0  0  0  0  0  0  0
    1.1914    3.2288    0.0000 C   0  0  1  0  0  0  0  0  0  0  0  0
    1.6311    1.2772    0.0000 H   0  0  0  0  0  0  0  0  0  0  0  0
    0.6553    4.0454    0.0000 C   0  0  0  0  0  0  0  0  0  0  0  0
   -3.0843    0.5024    0.0000 C   0  0  0  0  0  0  0  0  0  0  0  0
   -0.9946    4.0662    0.0000 O   0  0  0  0  0  0  0  0  0  0  0  0
    2.9711   -1.8343    0.0000 C   0  0  1  0  0  0  0  0  0  0  0  0
    0.0146   -3.6977    0.0000 O   0  0  0  0  0  0  0  0  0  0  0  0
   -4.7301    3.3670    0.0000 O   0  0  0  0  0  0  0  0  0  0  0  0
    1.4677   -4.7699    0.0000 C   0  0  0  0  0  0  0  0  0  0  0  0
    2.1462   -1.8343    0.0000 H   0  0  0  0  0  0  0  0  0  0  0  0
    3.0423    0.3014    0.0000 C   0  0  2  0  0  0  0  0  0  0  0  0
   -4.3072    2.6550    0.0000 C   0  0  0  0  0  0  0  0  0  0  0  0
   -0.5926    3.3419    0.0000 C   0  0  2  0  0  0  0  0  0  0  0  0
    1.8446    2.0687    0.0000 C   0  0  2  0  0  0  0  0  0  0  0  0
   -1.0072    2.6299    0.0000 C   0  0  0  0  0  0  0  0  0  0  0  0
    1.5934    3.9407    0.0000 C   0  0  0  0  0  0  0  0  0  0  0  0
    2.3053    0.6783    0.0000 O   0  0  0  0  0  0  0  0  0  0  0  0
    2.5942   -2.5713    0.0000 C   0  0  2  0  0  0  0  0  0  0  0  0
    0.6427    2.6173    0.0000 C   0  0  1  0  0  0  0  0  0  0  0  0
    2.6696   -3.9951    0.0000 C   0  0  0  0  0  0  0  0  0  0  0  0
   -0.6052    1.9138    0.0000 C   0  0  2  0  0  0  0  0  0  0  0  0
    4.6786    0.7347    0.0000 H   0  0  0  0  0  0  0  0  0  0  0  0
    3.9612   -0.1223    0.0000 H   0  0  0  0  0  0  0  0  0  0  0  0
    0.4899    4.7606    0.0000 H   0  0  0  0  0  0  0  0  0  0  0  0
   -1.1070    5.7012    0.0000 H   0  0  0  0  0  0  0  0  0  0  0  0
   -0.0370    5.6918    0.0000 H   0  0  0  0  0  0  0  0  0  0  0  0
   -4.0168    2.1484    0.0000 H   0  0  0  0  0  0  0  0  0  0  0  0
   -4.8405    2.1617    0.0000 H   0  0  0  0  0  0  0  0  0  0  0  0
   -4.8688    0.3086    0.0000 H   0  0  0  0  0  0  0  0  0  0  0  0
   -5.3896    1.2433    0.0000 H   0  0  0  0  0  0  0  0  0  0  0  0
   -0.2910    4.2626    0.0000 H   0  0  0  0  0  0  0  0  0  0  0  0
    3.7268    2.5709    0.0000 H   0  0  0  0  0  0  0  0  0  0  0  0
    4.3133    1.6222    0.0000 H   0  0  0  0  0  0  0  0  0  0  0  0
    4.5428   -2.4625    0.0000 H   0  0  0  0  0  0  0  0  0  0  0  0
    3.4529   -2.7262    0.0000 H   0  0  0  0  0  0  0  0  0  0  0  0
    4.1569    0.1563    0.0000 H   0  0  0  0  0  0  0  0  0  0  0  0
    4.4578   -4.1000    0.0000 H   0  0  0  0  0  0  0  0  0  0  0  0
    4.3448   -2.2502    0.0000 H   0  0  0  0  0  0  0  0  0  0  0  0
    4.9353   -3.1425    0.0000 H   0  0  0  0  0  0  0  0  0  0  0  0
    1.0770   -4.9548    0.0000 H   0  0  0  0  0  0  0  0  0  0  0  0
    0.0429   -4.6697    0.0000 H   0  0  0  0  0  0  0  0  0  0  0  0
   -1.7261   -0.4253    0.0000 H   0  0  0  0  0  0  0  0  0  0  0  0
   -1.1893    0.4993    0.0000 H   0  0  0  0  0  0  0  0  0  0  0  0
    2.4237   -4.9325    0.0000 H   0  0  0  0  0  0  0  0  0  0  0  0
   -0.4934    0.2703    0.0000 H   0  0  0  0  0  0  0  0  0  0  0  0
    0.0503    1.1949    0.0000 H   0  0  0  0  0  0  0  0  0  0  0  0
    2.8625    3.4189    0.0000 H   0  0  0  0  0  0  0  0  0  0  0  0
    2.8276    2.3031    0.0000 H   0  0  0  0  0  0  0  0  0  0  0  0
   -2.4122    2.6387    0.0000 H   0  0  0  0  0  0  0  0  0  0  0  0
    5.2651   -1.8102    0.0000 H   0  0  0  0  0  0  0  0  0  0  0  0
    5.2651    0.0430    0.0000 H   0  0  0  0  0  0  0  0  0  0  0  0
    5.8001   -0.8836    0.0000 H   0  0  0  0  0  0  0  0  0  0  0  0
    3.5229   -2.3021    0.0000 H   0  0  0  0  0  0  0  0  0  0  0  0
    3.4077    1.5409    0.0000 H   0  0  0  0  0  0  0  0  0  0  0  0
    2.9121    3.3267    0.0000 H   0  0  0  0  0  0  0  0  0  0  0  0
    3.6754    2.5769    0.0000 H   0  0  0  0  0  0  0  0  0  0  0  0
    0.6797   -1.9530    0.0000 H   0  0  0  0  0  0  0  0  0  0  0  0
    4.1252   -0.9398    0.0000 H   0  0  0  0  0  0  0  0  0  0  0  0
    4.5943    0.8531    0.0000 H   0  0  0  0  0  0  0  0  0  0  0  0
    4.8774   -0.1788    0.0000 H   0  0  0  0  0  0  0  0  0  0  0  0
   -1.9975    3.3503    0.0000 H   0  0  0  0  0  0  0  0  0  0  0  0
   -3.5990    4.2831    0.0000 H   0  0  0  0  0  0  0  0  0  0  0  0
   -2.5290    4.2790    0.0000 H   0  0  0  0  0  0  0  0  0  0  0  0
    2.2092    3.5591    0.0000 H   0  0  0  0  0  0  0  0  0  0  0  0
    1.7252    4.0347    0.0000 H   0  0  0  0  0  0  0  0  0  0  0  0
    0.1296    4.9773    0.0000 H   0  0  0  0  0  0  0  0  0  0  0  0
    1.1995    4.9667    0.0000 H   0  0  0  0  0  0  0  0  0  0  0  0
   -3.6196   -0.4241    0.0000 H   0  0  0  0  0  0  0  0  0  0  0  0
   -4.1543    0.5030    0.0000 H   0  0  0  0  0  0  0  0  0  0  0  0
   -0.2255   -2.7579    0.0000 H   0  0  0  0  0  0  0  0  0  0  0  0
   -4.2717    4.1842    0.0000 H   0  0  0  0  0  0  0  0  0  0  0  0
    0.3991   -4.8244    0.0000 H   0  0  0  0  0  0  0  0  0  0  0  0
    2.0492   -5.6681    0.0000 H   0  0  0  0  0  0  0  0  0  0  0  0
    0.9806   -5.7226    0.0000 H   0  0  0  0  0  0  0  0  0  0  0  0
   -1.6625    3.3529    0.0000 H   0  0  0  0  0  0  0  0  0  0  0  0
   -2.0772    2.6383    0.0000 H   0  0  0  0  0  0  0  0  0  0  0  0
   -1.5514    1.7086    0.0000 H   0  0  0  0  0  0  0  0  0  0  0  0
    2.6634    3.9509    0.0000 H   0  0  0  0  0  0  0  0  0  0  0  0
    1.0496    4.8622    0.0000 H   0  0  0  0  0  0  0  0  0  0  0  0
    2.1195    4.8724    0.0000 H   0  0  0  0  0  0  0  0  0  0  0  0
    3.2507   -4.8935    0.0000 H   0  0  0  0  0  0  0  0  0  0  0  0
    3.7381   -3.9385    0.0000 H   0  0  0  0  0  0  0  0  0  0  0  0
  1 21  1  0  0  0  0
  1 25  1  6  0  0  0
  2  9  1  0  0  0  0
  2 48  1  0  0  0  0
  2 59  1  0  0  0  0
  2 60  1  0  0  0  0
  3 42  1  0  0  0  0
  3 61  1  0  0  0  0
  3 62  1  0  0  0  0
  3 63  1  0  0  0  0
  5 37  1  0  0  0  0
  5  6  1  0  0  0  0
  5 41  1  0  0  0  0
  5 64  1  1  0  0  0
  6 65  1  0  0  0  0
  6 66  1  0  0  0  0
  6 67  1  0  0  0  0
  7 40  1  0  0  0  0
  7 56  1  0  0  0  0
  7 68  1  6  0  0  0
  8 32  1  1  0  0  0
  8 36  1  0  0  0  0
  9 14  1  0  0  0  0
  9 69  1  0  0  0  0
  9 70  1  0  0  0  0
 10 11  1  0  0  0  0
 10 43  1  0  0  0  0
 10 71  1  0  0  0  0
 10 72  1  0  0  0  0
 11 27  1  0  0  0  0
 11 15  1  0  0  0  0
 11 73  1  6  0  0  0
 12 74  1  0  0  0  0
 12 75  1  0  0  0  0
 12 76  1  0  0  0  0
 14 51  1  0  0  0  0
 14 39  1  6  0  0  0
 15 22  1  6  0  0  0
 15 48  1  0  0  0  0
 16  8  1  0  0  0  0
 16 77  1  0  0  0  0
 16 78  1  0  0  0  0
 18 15  1  0  0  0  0
 19  1  1  0  0  0  0
 19 79  1  0  0  0  0
 19 80  1  0  0  0  0
 20 57  1  0  0  0  0
 20  8  1  0  0  0  0
 20 46  1  0  0  0  0
 20 81  1  6  0  0  0
 21 58  1  0  0  0  0
 21 82  1  0  0  0  0
 21 83  1  0  0  0  0
 23 38  1  0  0  0  0
 23 51  1  0  0  0  0
 23 84  1  0  0  0  0
 23 85  1  0  0  0  0
 24  1  1  0  0  0  0
 26 37  1  0  0  0  0
 26 35  1  0  0  0  0
 26 86  1  1  0  0  0
 27 87  1  0  0  0  0
 27 88  1  0  0  0  0
 27 89  1  0  0  0  0
 29 55  1  0  0  0  0
 29 12  1  0  0  0  0
 29 90  1  6  0  0  0
 30 49  2  0  0  0  0
 31 91  1  0  0  0  0
 31 92  1  0  0  0  0
 31 93  1  0  0  0  0
 32 94  1  0  0  0  0
 33 95  1  0  0  0  0
 33 96  1  0  0  0  0
 33 97  1  0  0  0  0
 35 98  1  0  0  0  0
 35 99  1  0  0  0  0
 35100  1  0  0  0  0
 36 55  1  0  0  0  0
 37 17  1  1  0  0  0
 37 24  1  0  0  0  0
 38 56  1  0  0  0  0
 38 53  1  0  0  0  0
 38101  1  1  0  0  0
 40102  1  0  0  0  0
 40103  1  0  0  0  0
 40104  1  0  0  0  0
 41 19  1  0  0  0  0
 41105  1  0  0  0  0
 41106  1  0  0  0  0
 43 18  1  0  0  0  0
 43 47  1  1  0  0  0
 44 16  1  0  0  0  0
 44107  1  0  0  0  0
 45 49  1  0  0  0  0
 45108  1  0  0  0  0
 46109  1  0  0  0  0
 46110  1  0  0  0  0
 46111  1  0  0  0  0
 48 54  1  0  0  0  0
 48 33  1  6  0  0  0
 49 26  1  0  0  0  0
 50  7  1  0  0  0  0
 50 42  1  0  0  0  0
 50112  1  6  0  0  0
 51 31  1  6  0  0  0
 51 28  1  0  0  0  0
 52 50  1  0  0  0  0
 52 58  1  0  0  0  0
 52113  1  0  0  0  0
 52114  1  0  0  0  0
 53115  1  0  0  0  0
 53116  1  0  0  0  0
 53117  1  0  0  0  0
 54 14  1  0  0  0  0
 55 34  1  1  0  0  0
 55 43  1  0  0  0  0
 56  4  1  6  0  0  0
 56 28  1  0  0  0  0
 57 29  1  0  0  0  0
 57118  1  0  0  0  0
 57119  1  0  0  0  0
 58  4  1  0  0  0  0
 58 13  1  1  0  0  0
M  END
>  <DRUGBANK_ID>
DB14056

>  <COMMON_NAME>
Nigericin

>  <CAS_NUMBER>
28380-24-7

>  <UNII>
RRU6GY95IS

>  <SYNONYMS>
Azalomycin M; Helixin C; Polyetherin A

$$$$
