
 OpenBabel10282417072D

 32 33  0  0  0  0  0  0  0  0999 V2000
    2.1434   -0.4125    0.0000 C   0  0  0  0  0  0  0  0  0  0  0  0
    2.1434   -1.2375    0.0000 C   0  0  0  0  0  0  0  0  0  0  0  0
    1.4289   -1.6500    0.0000 C   0  0  0  0  0  0  0  0  0  0  0  0
    1.4289   -2.4750    0.0000 C   0  0  0  0  0  0  0  0  0  0  0  0
    2.0964   -2.9599    0.0000 N   0  0  0  0  0  0  0  0  0  0  0  0
    1.8414   -3.7445    0.0000 O   0  0  0  0  0  0  0  0  0  0  0  0
    1.0164   -3.7445    0.0000 C   0  0  0  0  0  0  0  0  0  0  0  0
    0.5315   -4.4120    0.0000 C   0  0  0  0  0  0  0  0  0  0  0  0
    0.8671   -5.1657    0.0000 C   0  0  0  0  0  0  0  0  0  0  0  0
    0.3822   -5.8331    0.0000 C   0  0  0  0  0  0  0  0  0  0  0  0
    0.7177   -6.5868    0.0000 C   0  0  0  0  0  0  0  0  0  0  0  0
    0.2328   -7.2542    0.0000 C   0  0  0  0  0  0  0  0  0  0  0  0
    0.5683   -8.0079    0.0000 O   0  0  0  0  0  0  0  0  0  0  0  0
   -0.5877   -7.1680    0.0000 C   0  0  0  0  0  0  0  0  0  0  0  0
   -1.0726   -7.8354    0.0000 O   0  0  0  0  0  0  0  0  0  0  0  0
   -0.9232   -6.4143    0.0000 C   0  0  0  0  0  0  0  0  0  0  0  0
   -0.4383   -5.7469    0.0000 C   0  0  0  0  0  0  0  0  0  0  0  0
    0.7615   -2.9599    0.0000 N   0  0  0  0  0  0  0  0  0  0  0  0
    3.0700    0.1225    0.0000 H   0  0  0  0  0  0  0  0  0  0  0  0
    1.2168    0.1225    0.0000 H   0  0  0  0  0  0  0  0  0  0  0  0
    2.1434    0.6575    0.0000 H   0  0  0  0  0  0  0  0  0  0  0  0
    3.0700   -1.7725    0.0000 H   0  0  0  0  0  0  0  0  0  0  0  0
    2.1434   -2.3075    0.0000 H   0  0  0  0  0  0  0  0  0  0  0  0
    0.5023   -1.1150    0.0000 H   0  0  0  0  0  0  0  0  0  0  0  0
    0.5023   -2.1850    0.0000 H   0  0  0  0  0  0  0  0  0  0  0  0
   -0.4949   -4.3042    0.0000 H   0  0  0  0  0  0  0  0  0  0  0  0
    1.8934   -5.2736    0.0000 H   0  0  0  0  0  0  0  0  0  0  0  0
    1.7440   -6.6947    0.0000 H   0  0  0  0  0  0  0  0  0  0  0  0
    0.0175   -8.7659    0.0000 H   0  0  0  0  0  0  0  0  0  0  0  0
   -2.0045   -7.7375    0.0000 H   0  0  0  0  0  0  0  0  0  0  0  0
   -1.9495   -6.3064    0.0000 H   0  0  0  0  0  0  0  0  0  0  0  0
   -0.8581   -4.8041    0.0000 H   0  0  0  0  0  0  0  0  0  0  0  0
  1  2  1  0  0  0  0
  1 19  1  0  0  0  0
  1 20  1  0  0  0  0
  1 21  1  0  0  0  0
  2  3  1  0  0  0  0
  2 22  1  0  0  0  0
  2 23  1  0  0  0  0
  3  4  1  0  0  0  0
  3 24  1  0  0  0  0
  3 25  1  0  0  0  0
  4  5  2  0  0  0  0
  4 18  1  0  0  0  0
  5  6  1  0  0  0  0
  6  7  1  0  0  0  0
  7  8  1  0  0  0  0
  7 18  2  0  0  0  0
  8  9  2  0  0  0  0
  8 26  1  0  0  0  0
  9 10  1  0  0  0  0
  9 27  1  0  0  0  0
 10 11  2  0  0  0  0
 10 17  1  0  0  0  0
 11 12  1  0  0  0  0
 11 28  1  0  0  0  0
 12 13  1  0  0  0  0
 12 14  2  0  0  0  0
 13 29  1  0  0  0  0
 14 15  1  0  0  0  0
 14 16  1  0  0  0  0
 15 30  1  0  0  0  0
 16 17  2  0  0  0  0
 16 31  1  0  0  0  0
 17 32  1  0  0  0  0
M  END
>  <DRUGBANK_ID>
DB17138

>  <COMMON_NAME>
4-(2-(3-Propyl-(1,2,4)oxadiazol-5-yl)-vinyl)-benzene-1,2-diol

>  <CAS_NUMBER>
1332498-21-1

>  <UNII>
ZGL5E40F57

$$$$
