
 OpenBabel10282417072D

 46 48  0  0  0  0  0  0  0  0999 V2000
    6.8513   -4.9500    0.0000 C   0  0  0  0  0  0  0  0  0  0  0  0
    2.5645   -1.6500    0.0000 C   0  0  0  0  0  0  0  0  0  0  0  0
    5.4223   -1.6500    0.0000 C   0  0  0  0  0  0  0  0  0  0  0  0
    4.7079   -2.8875    0.0000 C   0  0  0  0  0  0  0  0  0  0  0  0
    4.7079   -1.2375    0.0000 C   0  0  0  0  0  0  0  0  0  0  0  0
    3.9934   -2.4750    0.0000 C   0  0  0  0  0  0  0  0  0  0  0  0
    1.7798   -0.2549    0.0000 C   0  0  0  0  0  0  0  0  0  0  0  0
    1.2949    0.4125    0.0000 C   0  0  0  0  0  0  0  0  0  0  0  0
    6.1368   -2.8875    0.0000 C   0  0  0  0  0  0  0  0  0  0  0  0
    3.9934    0.8250    0.0000 C   0  0  0  0  0  0  0  0  0  0  0  0
    5.4223   -2.4750    0.0000 C   0  0  3  0  0  0  0  0  0  0  0  0
    3.9934   -1.6500    0.0000 C   0  0  3  0  0  0  0  0  0  0  0  0
    2.5645    0.0000    0.0000 C   0  0  0  0  0  0  0  0  0  0  0  0
    2.5645    0.8250    0.0000 C   0  0  0  0  0  0  0  0  0  0  0  0
    3.2789   -0.4125    0.0000 C   0  0  0  0  0  0  0  0  0  0  0  0
    6.1368   -4.5375    0.0000 N   0  0  0  0  0  0  0  0  0  0  0  0
    1.7798    1.0799    0.0000 N   0  0  0  0  0  0  0  0  0  0  0  0
    3.2789    1.2375    0.0000 N   0  0  0  0  0  0  0  0  0  0  0  0
    3.9934    0.0000    0.0000 N   0  0  0  0  0  0  0  0  0  0  0  0
    3.2789   -1.2375    0.0000 N   0  0  0  0  0  0  0  0  0  0  0  0
    6.9618   -3.7125    0.0000 O   0  0  0  0  0  0  0  0  0  0  0  0
    5.3118   -3.7125    0.0000 O   0  0  0  0  0  0  0  0  0  0  0  0
    6.1368   -3.7125    0.0000 S   0  0  0  0  0  0  0  0  0  0  0  0
    6.8513   -6.0200    0.0000 H   0  0  0  0  0  0  0  0  0  0  0  0
    7.7779   -4.4150    0.0000 H   0  0  0  0  0  0  0  0  0  0  0  0
    7.7780   -5.4850    0.0000 H   0  0  0  0  0  0  0  0  0  0  0  0
    1.6378   -1.1150    0.0000 H   0  0  0  0  0  0  0  0  0  0  0  0
    2.5645   -2.7200    0.0000 H   0  0  0  0  0  0  0  0  0  0  0  0
    1.6379   -2.1850    0.0000 H   0  0  0  0  0  0  0  0  0  0  0  0
    6.3490   -1.1150    0.0000 H   0  0  0  0  0  0  0  0  0  0  0  0
    6.3489   -2.1850    0.0000 H   0  0  0  0  0  0  0  0  0  0  0  0
    4.7079   -3.9575    0.0000 H   0  0  0  0  0  0  0  0  0  0  0  0
    5.6346   -3.4225    0.0000 H   0  0  0  0  0  0  0  0  0  0  0  0
    4.7079   -0.1675    0.0000 H   0  0  0  0  0  0  0  0  0  0  0  0
    3.7813   -0.7025    0.0000 H   0  0  0  0  0  0  0  0  0  0  0  0
    3.0668   -3.0100    0.0000 H   0  0  0  0  0  0  0  0  0  0  0  0
    3.0668   -1.9400    0.0000 H   0  0  0  0  0  0  0  0  0  0  0  0
    1.4609   -1.2364    0.0000 H   0  0  0  0  0  0  0  0  0  0  0  0
    0.2629    0.4125    0.0000 H   0  0  0  0  0  0  0  0  0  0  0  0
    7.0634   -2.3525    0.0000 H   0  0  0  0  0  0  0  0  0  0  0  0
    7.0634   -3.4225    0.0000 H   0  0  0  0  0  0  0  0  0  0  0  0
    4.8871    1.3410    0.0000 H   0  0  0  0  0  0  0  0  0  0  0  0
    4.4956   -1.9400    0.0000 H   0  0  0  0  0  0  0  0  0  0  0  0
    4.9200   -2.1850    0.0000 H   0  0  0  0  0  0  0  0  0  0  0  0
    5.2535   -5.0475    0.0000 H   0  0  0  0  0  0  0  0  0  0  0  0
    1.4755    2.0162    0.0000 H   0  0  0  0  0  0  0  0  0  0  0  0
  1 24  1  0  0  0  0
  1 25  1  0  0  0  0
  1 26  1  0  0  0  0
  2 27  1  0  0  0  0
  2 28  1  0  0  0  0
  2 29  1  0  0  0  0
  3 30  1  0  0  0  0
  3 31  1  0  0  0  0
  4 32  1  0  0  0  0
  4 33  1  0  0  0  0
  5  3  1  0  0  0  0
  5 34  1  0  0  0  0
  5 35  1  0  0  0  0
  6  4  1  0  0  0  0
  6 36  1  0  0  0  0
  6 37  1  0  0  0  0
  7 38  1  0  0  0  0
  8  7  2  0  0  0  0
  8 39  1  0  0  0  0
  9 40  1  0  0  0  0
  9 41  1  0  0  0  0
 10 42  1  0  0  0  0
 11  3  1  0  0  0  0
 11  4  1  0  0  0  0
 11  9  1  0  0  0  0
 11 43  1  0  0  0  0
 12  5  1  0  0  0  0
 12  6  1  0  0  0  0
 12 44  1  0  0  0  0
 13  7  1  0  0  0  0
 14 13  2  0  0  0  0
 15 13  1  0  0  0  0
 16  1  1  0  0  0  0
 16 45  1  0  0  0  0
 17  8  1  0  0  0  0
 17 14  1  0  0  0  0
 17 46  1  0  0  0  0
 18 10  2  0  0  0  0
 18 14  1  0  0  0  0
 19 10  1  0  0  0  0
 19 15  2  0  0  0  0
 20  2  1  0  0  0  0
 20 12  1  0  0  0  0
 20 15  1  0  0  0  0
 23  9  1  0  0  0  0
 23 16  1  0  0  0  0
 23 21  2  0  0  0  0
 23 22  2  0  0  0  0
M  END
>  <DRUGBANK_ID>
DB11441

>  <COMMON_NAME>
Oclacitinib

>  <UNII>
99GS5XTB51

>  <SYNONYMS>
Oclacitinib

$$$$
