
 OpenBabel10282417072D

 86 89  0  0  0  0  0  0  0  0999 V2000
    3.5840    0.7274    0.0000 C   0  0  0  0  0  0  0  0  0  0  0  0
    3.5840   -0.0975    0.0000 C   0  0  0  0  0  0  0  0  0  0  0  0
    2.8695   -0.5100    0.0000 C   0  0  0  0  0  0  0  0  0  0  0  0
    2.1550   -0.0975    0.0000 C   0  0  0  0  0  0  0  0  0  0  0  0
    2.1550    0.7274    0.0000 C   0  0  0  0  0  0  0  0  0  0  0  0
    2.8695    1.1399    0.0000 C   0  0  0  0  0  0  0  0  0  0  0  0
    1.4407   -0.5100    0.0000 C   0  0  0  0  0  0  0  0  0  0  0  0
    1.4407   -1.3350    0.0000 C   0  0  1  0  0  0  0  0  0  0  0  0
    0.7261   -1.7475    0.0000 C   0  0  0  0  0  0  0  0  0  0  0  0
    0.7261   -2.5725    0.0000 O   0  0  0  0  0  0  0  0  0  0  0  0
    0.0116   -1.3350    0.0000 N   0  0  0  0  0  0  0  0  0  0  0  0
   -1.3844   -1.2829    0.0000 C   0  0  0  0  0  0  0  0  0  0  0  0
   -2.1728   -1.5261    0.0000 C   0  0  0  0  0  0  0  0  0  0  0  0
   -2.4742   -2.2939    0.0000 C   0  0  0  0  0  0  0  0  0  0  0  0
   -2.0617   -3.0085    0.0000 C   0  0  0  0  0  0  0  0  0  0  0  0
   -1.2459   -3.1314    0.0000 C   0  0  0  0  0  0  0  0  0  0  0  0
   -0.6411   -2.5702    0.0000 C   0  0  0  0  0  0  0  0  0  0  0  0
   -0.7028   -1.7475    0.0000 C   0  0  2  0  0  0  0  0  0  0  0  0
   -2.7775   -0.9648    0.0000 C   0  0  0  0  0  0  0  0  0  0  0  0
   -2.5939   -0.1605    0.0000 C   0  0  0  0  0  0  0  0  0  0  0  0
   -1.8056    0.0826    0.0000 C   0  0  0  0  0  0  0  0  0  0  0  0
   -1.2008   -0.4785    0.0000 C   0  0  0  0  0  0  0  0  0  0  0  0
   -3.1986    0.4005    0.0000 O   0  0  0  0  0  0  0  0  0  0  0  0
   -3.0151    1.2049    0.0000 C   0  0  0  0  0  0  0  0  0  0  0  0
   -3.6199    1.7660    0.0000 C   0  0  0  0  0  0  0  0  0  0  0  0
   -4.4082    1.5228    0.0000 C   0  0  0  0  0  0  0  0  0  0  0  0
   -5.0130    2.0840    0.0000 C   0  0  0  0  0  0  0  0  0  0  0  0
   -4.8294    2.8883    0.0000 C   0  0  0  0  0  0  0  0  0  0  0  0
   -4.0411    3.1315    0.0000 C   0  0  0  0  0  0  0  0  0  0  0  0
   -3.4363    2.5703    0.0000 C   0  0  0  0  0  0  0  0  0  0  0  0
   -1.6220    0.8869    0.0000 C   0  0  0  0  0  0  0  0  0  0  0  0
   -2.2268    1.4480    0.0000 O   0  0  0  0  0  0  0  0  0  0  0  0
   -0.8251    1.1004    0.0000 N   0  0  0  0  0  0  0  0  0  0  0  0
    2.1550   -1.7475    0.0000 N   0  0  0  0  0  0  0  0  0  0  0  0
    2.1550   -2.5725    0.0000 C   0  0  0  0  0  0  0  0  0  0  0  0
    1.4407   -2.9851    0.0000 O   0  0  0  0  0  0  0  0  0  0  0  0
    2.8695   -2.9851    0.0000 C   0  0  0  0  0  0  0  0  0  0  0  0
    4.2985    1.1399    0.0000 P   0  0  0  0  0  0  0  0  0  0  0  0
    4.2985    0.3149    0.0000 O   0  0  0  0  0  0  0  0  0  0  0  0
    5.0129    0.7274    0.0000 O   0  0  0  0  0  0  0  0  0  0  0  0
    4.2985    1.9649    0.0000 O   0  0  0  0  0  0  0  0  0  0  0  0
    4.2985   -0.5100    0.0000 P   0  0  0  0  0  0  0  0  0  0  0  0
    3.5840   -0.9225    0.0000 O   0  0  0  0  0  0  0  0  0  0  0  0
    4.2985   -1.3350    0.0000 O   0  0  0  0  0  0  0  0  0  0  0  0
    5.0129   -0.0975    0.0000 O   0  0  0  0  0  0  0  0  0  0  0  0
    2.8695   -1.5420    0.0000 H   0  0  0  0  0  0  0  0  0  0  0  0
    1.2613    1.2434    0.0000 H   0  0  0  0  0  0  0  0  0  0  0  0
    2.8695    2.1719    0.0000 H   0  0  0  0  0  0  0  0  0  0  0  0
    0.5140    0.0250    0.0000 H   0  0  0  0  0  0  0  0  0  0  0  0
    1.4406    0.5600    0.0000 H   0  0  0  0  0  0  0  0  0  0  0  0
    0.5141   -0.8000    0.0000 H   0  0  0  0  0  0  0  0  0  0  0  0
    0.0116   -0.3505    0.0000 H   0  0  0  0  0  0  0  0  0  0  0  0
   -3.5412   -2.3738    0.0000 H   0  0  0  0  0  0  0  0  0  0  0  0
   -2.9742   -3.2399    0.0000 H   0  0  0  0  0  0  0  0  0  0  0  0
   -2.6645   -3.8926    0.0000 H   0  0  0  0  0  0  0  0  0  0  0  0
   -1.6338   -3.9892    0.0000 H   0  0  0  0  0  0  0  0  0  0  0  0
   -0.9305   -4.1538    0.0000 H   0  0  0  0  0  0  0  0  0  0  0  0
   -0.2123   -3.4083    0.0000 H   0  0  0  0  0  0  0  0  0  0  0  0
    0.3550   -2.9611    0.0000 H   0  0  0  0  0  0  0  0  0  0  0  0
    0.2198   -1.9348    0.0000 H   0  0  0  0  0  0  0  0  0  0  0  0
    0.2432   -2.2474    0.0000 H   0  0  0  0  0  0  0  0  0  0  0  0
   -3.7637   -1.2689    0.0000 H   0  0  0  0  0  0  0  0  0  0  0  0
   -0.2147   -0.1743    0.0000 H   0  0  0  0  0  0  0  0  0  0  0  0
   -1.9927    1.5204    0.0000 H   0  0  0  0  0  0  0  0  0  0  0  0
   -2.7771    2.2481    0.0000 H   0  0  0  0  0  0  0  0  0  0  0  0
   -2.5974    2.0814    0.0000 H   0  0  0  0  0  0  0  0  0  0  0  0
   -4.6463    0.4796    0.0000 H   0  0  0  0  0  0  0  0  0  0  0  0
   -5.4307    1.2074    0.0000 H   0  0  0  0  0  0  0  0  0  0  0  0
   -6.0355    1.7686    0.0000 H   0  0  0  0  0  0  0  0  0  0  0  0
   -5.7973    2.8118    0.0000 H   0  0  0  0  0  0  0  0  0  0  0  0
   -5.6138    3.6161    0.0000 H   0  0  0  0  0  0  0  0  0  0  0  0
   -4.5913    3.9315    0.0000 H   0  0  0  0  0  0  0  0  0  0  0  0
   -3.8030    4.1747    0.0000 H   0  0  0  0  0  0  0  0  0  0  0  0
   -3.0186    3.4469    0.0000 H   0  0  0  0  0  0  0  0  0  0  0  0
   -2.4138    2.8857    0.0000 H   0  0  0  0  0  0  0  0  0  0  0  0
   -2.6520    1.8425    0.0000 H   0  0  0  0  0  0  0  0  0  0  0  0
   -0.1290    0.4042    0.0000 H   0  0  0  0  0  0  0  0  0  0  0  0
   -0.5703    2.0513    0.0000 H   0  0  0  0  0  0  0  0  0  0  0  0
    3.0076   -1.2553    0.0000 H   0  0  0  0  0  0  0  0  0  0  0  0
    2.8694   -4.0551    0.0000 H   0  0  0  0  0  0  0  0  0  0  0  0
    3.7962   -2.4502    0.0000 H   0  0  0  0  0  0  0  0  0  0  0  0
    3.7961   -3.5202    0.0000 H   0  0  0  0  0  0  0  0  0  0  0  0
    3.4585   -0.1701    0.0000 H   0  0  0  0  0  0  0  0  0  0  0  0
    5.0129   -0.2426    0.0000 H   0  0  0  0  0  0  0  0  0  0  0  0
    2.7440   -0.4375    0.0000 H   0  0  0  0  0  0  0  0  0  0  0  0
    3.4585   -1.8200    0.0000 H   0  0  0  0  0  0  0  0  0  0  0  0
  1  2  1  0  0  0  0
  1  6  2  0  0  0  0
  1 38  1  0  0  0  0
  2  3  2  0  0  0  0
  2 42  1  0  0  0  0
  3  4  1  0  0  0  0
  3 46  1  0  0  0  0
  4  5  2  0  0  0  0
  4  7  1  0  0  0  0
  5  6  1  0  0  0  0
  5 47  1  0  0  0  0
  6 48  1  0  0  0  0
  7 49  1  0  0  0  0
  7 50  1  0  0  0  0
  8  7  1  0  0  0  0
  8  9  1  0  0  0  0
  8 34  1  0  0  0  0
  8 51  1  1  0  0  0
  9 10  2  0  0  0  0
  9 11  1  0  0  0  0
 11 52  1  0  0  0  0
 12 13  1  0  0  0  0
 12 18  1  0  0  0  0
 13 14  1  0  0  0  0
 14 15  1  0  0  0  0
 14 53  1  0  0  0  0
 14 54  1  0  0  0  0
 15 16  1  0  0  0  0
 15 55  1  0  0  0  0
 15 56  1  0  0  0  0
 16 17  1  0  0  0  0
 16 57  1  0  0  0  0
 16 58  1  0  0  0  0
 17 18  1  0  0  0  0
 17 59  1  0  0  0  0
 17 60  1  0  0  0  0
 18 11  1  0  0  0  0
 18 61  1  6  0  0  0
 19 20  1  0  0  0  0
 19 13  2  0  0  0  0
 19 62  1  0  0  0  0
 20 21  2  0  0  0  0
 20 23  1  0  0  0  0
 21 22  1  0  0  0  0
 21 31  1  0  0  0  0
 22 12  2  0  0  0  0
 22 63  1  0  0  0  0
 23 24  1  0  0  0  0
 24 25  1  0  0  0  0
 24 64  1  0  0  0  0
 24 65  1  0  0  0  0
 25 26  1  0  0  0  0
 25 30  1  0  0  0  0
 25 66  1  0  0  0  0
 26 27  1  0  0  0  0
 26 67  1  0  0  0  0
 26 68  1  0  0  0  0
 27 28  1  0  0  0  0
 27 69  1  0  0  0  0
 27 70  1  0  0  0  0
 28 29  1  0  0  0  0
 28 71  1  0  0  0  0
 28 72  1  0  0  0  0
 29 30  1  0  0  0  0
 29 73  1  0  0  0  0
 29 74  1  0  0  0  0
 30 75  1  0  0  0  0
 30 76  1  0  0  0  0
 31 32  2  0  0  0  0
 31 33  1  0  0  0  0
 33 77  1  0  0  0  0
 33 78  1  0  0  0  0
 34 35  1  0  0  0  0
 34 79  1  0  0  0  0
 35 36  2  0  0  0  0
 35 37  1  0  0  0  0
 37 80  1  0  0  0  0
 37 81  1  0  0  0  0
 37 82  1  0  0  0  0
 38 39  1  0  0  0  0
 38 40  1  0  0  0  0
 38 41  2  0  0  0  0
 39 83  1  0  0  0  0
 40 84  1  0  0  0  0
 42 43  1  0  0  0  0
 42 44  1  0  0  0  0
 42 45  2  0  0  0  0
 43 85  1  0  0  0  0
 44 86  1  0  0  0  0
M  END
>  <DRUGBANK_ID>
DB01830

>  <SECONDARY_ACCESSION_NUMBERS>
EXPT00856

>  <COMMON_NAME>
AP-22408

>  <CAS_NUMBER>
268741-43-1

>  <UNII>
3U3L5QR4KV

$$$$
