
 OpenBabel10282417072D

 56 58  0  0  1  0  0  0  0  0999 V2000
    1.8904   -2.1437    0.0000 C   0  0  0  0  0  0  0  0  0  0  0  0
    1.8904   -1.3187    0.0000 C   0  0  1  0  0  0  0  0  0  0  0  0
    1.1759   -0.9062    0.0000 C   0  0  0  0  0  0  0  0  0  0  0  0
    1.1759   -0.0812    0.0000 O   0  0  0  0  0  0  0  0  0  0  0  0
    0.4614   -1.3187    0.0000 N   0  0  0  0  0  0  0  0  0  0  0  0
   -0.2530   -0.9062    0.0000 C   0  0  1  0  0  0  0  0  0  0  0  0
   -0.9347   -1.3709    0.0000 C   0  0  0  0  0  0  0  0  0  0  0  0
   -0.7511   -2.1752    0.0000 C   0  0  0  0  0  0  0  0  0  0  0  0
   -1.3559   -2.7364    0.0000 C   0  0  0  0  0  0  0  0  0  0  0  0
   -2.1442   -2.4932    0.0000 C   0  0  0  0  0  0  0  0  0  0  0  0
   -2.3278   -1.6889    0.0000 C   0  0  0  0  0  0  0  0  0  0  0  0
   -1.7230   -1.1278    0.0000 C   0  0  0  0  0  0  0  0  0  0  0  0
   -2.0244   -0.3598    0.0000 C   0  0  0  0  0  0  0  0  0  0  0  0
   -2.8494   -0.3598    0.0000 C   0  0  0  0  0  0  0  0  0  0  0  0
   -3.2619    0.3547    0.0000 C   0  0  0  0  0  0  0  0  0  0  0  0
   -2.8494    1.0692    0.0000 C   0  0  0  0  0  0  0  0  0  0  0  0
   -2.0244    1.0692    0.0000 N   0  0  0  0  0  0  0  0  0  0  0  0
   -1.6119    0.3547    0.0000 C   0  0  0  0  0  0  0  0  0  0  0  0
   -0.7962    0.4776    0.0000 N   0  0  0  0  0  0  0  0  0  0  0  0
   -0.1914   -0.0835    0.0000 C   0  0  0  0  0  0  0  0  0  0  0  0
    0.5766    0.2179    0.0000 O   0  0  0  0  0  0  0  0  0  0  0  0
   -0.5530    1.2660    0.0000 C   0  0  0  0  0  0  0  0  0  0  0  0
   -1.1141    1.8708    0.0000 C   0  0  0  0  0  0  0  0  0  0  0  0
   -0.8710    2.6591    0.0000 O   0  0  0  0  0  0  0  0  0  0  0  0
    2.6048   -0.9062    0.0000 N   0  0  0  0  0  0  0  0  0  0  0  0
    3.3193   -1.3187    0.0000 C   0  0  0  0  0  0  0  0  0  0  0  0
    3.3193   -2.1437    0.0000 O   0  0  0  0  0  0  0  0  0  0  0  0
    4.0338   -0.9062    0.0000 C   0  0  0  0  0  0  0  0  0  0  0  0
    4.7483   -1.3187    0.0000 C   0  0  0  0  0  0  0  0  0  0  0  0
    5.4627   -0.9062    0.0000 C   0  0  0  0  0  0  0  0  0  0  0  0
    6.1772   -0.4937    0.0000 F   0  0  0  0  0  0  0  0  0  0  0  0
    5.8752   -1.6207    0.0000 F   0  0  0  0  0  0  0  0  0  0  0  0
    5.0502   -0.1917    0.0000 F   0  0  0  0  0  0  0  0  0  0  0  0
    0.9638   -2.6787    0.0000 H   0  0  0  0  0  0  0  0  0  0  0  0
    2.8170   -2.6787    0.0000 H   0  0  0  0  0  0  0  0  0  0  0  0
    1.8904   -3.2137    0.0000 H   0  0  0  0  0  0  0  0  0  0  0  0
    0.9638   -1.8537    0.0000 H   0  0  0  0  0  0  0  0  0  0  0  0
    0.4614   -2.3032    0.0000 H   0  0  0  0  0  0  0  0  0  0  0  0
   -0.2131   -1.9755    0.0000 H   0  0  0  0  0  0  0  0  0  0  0  0
    0.2351   -2.4794    0.0000 H   0  0  0  0  0  0  0  0  0  0  0  0
   -1.1263   -3.7425    0.0000 H   0  0  0  0  0  0  0  0  0  0  0  0
   -2.9007   -3.1951    0.0000 H   0  0  0  0  0  0  0  0  0  0  0  0
   -3.3139   -1.3847    0.0000 H   0  0  0  0  0  0  0  0  0  0  0  0
   -3.3654   -1.2535    0.0000 H   0  0  0  0  0  0  0  0  0  0  0  0
   -4.2939    0.3547    0.0000 H   0  0  0  0  0  0  0  0  0  0  0  0
   -3.3654    1.9629    0.0000 H   0  0  0  0  0  0  0  0  0  0  0  0
    0.4902    1.5041    0.0000 H   0  0  0  0  0  0  0  0  0  0  0  0
   -0.2376    2.2884    0.0000 H   0  0  0  0  0  0  0  0  0  0  0  0
   -2.1573    1.6327    0.0000 H   0  0  0  0  0  0  0  0  0  0  0  0
   -1.8419    2.6551    0.0000 H   0  0  0  0  0  0  0  0  0  0  0  0
    0.0747    2.8750    0.0000 H   0  0  0  0  0  0  0  0  0  0  0  0
    2.6048    0.0783    0.0000 H   0  0  0  0  0  0  0  0  0  0  0  0
    4.0338    0.1638    0.0000 H   0  0  0  0  0  0  0  0  0  0  0  0
    4.9604   -0.3712    0.0000 H   0  0  0  0  0  0  0  0  0  0  0  0
    4.7483   -2.3887    0.0000 H   0  0  0  0  0  0  0  0  0  0  0  0
    5.6750   -1.8537    0.0000 H   0  0  0  0  0  0  0  0  0  0  0  0
  1 34  1  0  0  0  0
  1 35  1  0  0  0  0
  1 36  1  0  0  0  0
  2  1  1  0  0  0  0
  2  3  1  0  0  0  0
  2 25  1  0  0  0  0
  2 37  1  6  0  0  0
  3  4  2  0  0  0  0
  3  5  1  0  0  0  0
  5 38  1  0  0  0  0
  6  5  1  0  0  0  0
  6  7  1  0  0  0  0
  6 20  1  0  0  0  0
  6 39  1  6  0  0  0
  7  8  2  0  0  0  0
  7 12  1  0  0  0  0
  8  9  1  0  0  0  0
  8 40  1  0  0  0  0
  9 10  2  0  0  0  0
  9 41  1  0  0  0  0
 10 11  1  0  0  0  0
 10 42  1  0  0  0  0
 11 12  2  0  0  0  0
 11 43  1  0  0  0  0
 12 13  1  0  0  0  0
 13 14  2  0  0  0  0
 13 18  1  0  0  0  0
 14 15  1  0  0  0  0
 14 44  1  0  0  0  0
 15 16  2  0  0  0  0
 15 45  1  0  0  0  0
 16 17  1  0  0  0  0
 16 46  1  0  0  0  0
 17 18  2  0  0  0  0
 18 19  1  0  0  0  0
 19 20  1  0  0  0  0
 19 22  1  0  0  0  0
 20 21  2  0  0  0  0
 22 23  1  0  0  0  0
 22 47  1  0  0  0  0
 22 48  1  0  0  0  0
 23 24  1  0  0  0  0
 23 49  1  0  0  0  0
 23 50  1  0  0  0  0
 24 51  1  0  0  0  0
 25 26  1  0  0  0  0
 25 52  1  0  0  0  0
 26 27  2  0  0  0  0
 26 28  1  0  0  0  0
 28 29  1  0  0  0  0
 28 53  1  0  0  0  0
 28 54  1  0  0  0  0
 29 30  1  0  0  0  0
 29 55  1  0  0  0  0
 29 56  1  0  0  0  0
 30 31  1  0  0  0  0
 30 32  1  0  0  0  0
 30 33  1  0  0  0  0
M  END
>  <DRUGBANK_ID>
DB12050

>  <COMMON_NAME>
LY-3039478

>  <CAS_NUMBER>
1421438-81-4

>  <UNII>
923X28214S

$$$$
