
 OpenBabel10282417072D

 50 54  0  0  1  0  0  0  0  0999 V2000
    4.0145   -1.0164    0.0000 O   0  0  0  0  0  0  0  0  0  0  0  0
    3.6020   -0.3020    0.0000 C   0  0  0  0  0  0  0  0  0  0  0  0
    4.0145    0.4125    0.0000 N   0  0  0  0  0  0  0  0  0  0  0  0
    3.6020    1.1270    0.0000 C   0  0  0  0  0  0  0  0  0  0  0  0
    4.0145    1.8414    0.0000 O   0  0  0  0  0  0  0  0  0  0  0  0
    4.8395    1.8414    0.0000 C   0  0  0  0  0  0  0  0  0  0  0  0
    5.2520    2.5559    0.0000 C   0  0  2  0  0  0  0  0  0  0  0  0
    4.8395    3.2704    0.0000 C   0  0  0  0  0  0  0  0  0  0  0  0
    5.2520    3.9849    0.0000 O   0  0  0  0  0  0  0  0  0  0  0  0
    6.0770    3.9849    0.0000 C   0  0  0  0  0  0  0  0  0  0  0  0
    6.4895    3.2704    0.0000 C   0  0  0  0  0  0  0  0  0  0  0  0
    6.0770    2.5559    0.0000 O   0  0  0  0  0  0  0  0  0  0  0  0
    2.7770    1.1270    0.0000 C   0  0  0  0  0  0  0  0  0  0  0  0
    2.3645    0.4125    0.0000 C   0  0  0  0  0  0  0  0  0  0  0  0
    2.7770   -0.3020    0.0000 N   0  0  0  0  0  0  0  0  0  0  0  0
    2.3645   -1.0164    0.0000 C   0  0  0  0  0  0  0  0  0  0  0  0
    1.5395   -1.0164    0.0000 C   0  0  0  0  0  0  0  0  0  0  0  0
    1.1270   -0.3020    0.0000 C   0  0  0  0  0  0  0  0  0  0  0  0
    0.3020   -0.3020    0.0000 C   0  0  0  0  0  0  0  0  0  0  0  0
   -0.1105    0.4125    0.0000 C   0  0  0  0  0  0  0  0  0  0  0  0
    0.3020    1.1270    0.0000 C   0  0  0  0  0  0  0  0  0  0  0  0
    1.1270    1.1270    0.0000 C   0  0  0  0  0  0  0  0  0  0  0  0
    1.5395    0.4125    0.0000 C   0  0  0  0  0  0  0  0  0  0  0  0
   -0.9355    0.4125    0.0000 C   0  0  0  0  0  0  0  0  0  0  0  0
   -1.7605    0.4125    0.0000 C   0  0  0  0  0  0  0  0  0  0  0  0
   -2.5855    0.4125    0.0000 C   0  0  0  0  0  0  0  0  0  0  0  0
   -3.3000    0.0000    0.0000 C   0  0  0  0  0  0  0  0  0  0  0  0
   -3.3000    0.8250    0.0000 C   0  0  0  0  0  0  0  0  0  0  0  0
    5.3745    0.9148    0.0000 H   0  0  0  0  0  0  0  0  0  0  0  0
    5.9095    1.8414    0.0000 H   0  0  0  0  0  0  0  0  0  0  0  0
    4.1820    2.5559    0.0000 H   0  0  0  0  0  0  0  0  0  0  0  0
    3.7695    3.2704    0.0000 H   0  0  0  0  0  0  0  0  0  0  0  0
    4.3045    4.1970    0.0000 H   0  0  0  0  0  0  0  0  0  0  0  0
    6.6120    4.9115    0.0000 H   0  0  0  0  0  0  0  0  0  0  0  0
    7.1470    3.9849    0.0000 H   0  0  0  0  0  0  0  0  0  0  0  0
    7.5595    3.2704    0.0000 H   0  0  0  0  0  0  0  0  0  0  0  0
    7.0245    2.3438    0.0000 H   0  0  0  0  0  0  0  0  0  0  0  0
    2.2610    2.0207    0.0000 H   0  0  0  0  0  0  0  0  0  0  0  0
    2.8995   -1.9431    0.0000 H   0  0  0  0  0  0  0  0  0  0  0  0
    1.8295   -1.9430    0.0000 H   0  0  0  0  0  0  0  0  0  0  0  0
    1.0045   -1.9431    0.0000 H   0  0  0  0  0  0  0  0  0  0  0  0
    0.4695   -1.0164    0.0000 H   0  0  0  0  0  0  0  0  0  0  0  0
   -0.2140   -1.1957    0.0000 H   0  0  0  0  0  0  0  0  0  0  0  0
   -0.2140    2.0207    0.0000 H   0  0  0  0  0  0  0  0  0  0  0  0
    1.6430    2.0207    0.0000 H   0  0  0  0  0  0  0  0  0  0  0  0
   -3.6555    0.4125    0.0000 H   0  0  0  0  0  0  0  0  0  0  0  0
   -3.8350   -0.9266    0.0000 H   0  0  0  0  0  0  0  0  0  0  0  0
   -4.3335    0.2769    0.0000 H   0  0  0  0  0  0  0  0  0  0  0  0
   -3.8350    1.7516    0.0000 H   0  0  0  0  0  0  0  0  0  0  0  0
   -2.5434    1.5816    0.0000 H   0  0  0  0  0  0  0  0  0  0  0  0
  1  2  2  0  0  0  0
  2  3  1  0  0  0  0
  2 15  1  0  0  0  0
  3  4  2  0  0  0  0
  4  5  1  0  0  0  0
  4 13  1  0  0  0  0
  5  6  1  0  0  0  0
  6 29  1  0  0  0  0
  6 30  1  0  0  0  0
  7  6  1  0  0  0  0
  7  8  1  0  0  0  0
  7 12  1  0  0  0  0
  7 31  1  1  0  0  0
  8  9  1  0  0  0  0
  8 32  1  0  0  0  0
  8 33  1  0  0  0  0
  9 10  1  0  0  0  0
 10 11  1  0  0  0  0
 10 34  1  0  0  0  0
 10 35  1  0  0  0  0
 11 12  1  0  0  0  0
 11 36  1  0  0  0  0
 11 37  1  0  0  0  0
 13 14  2  0  0  0  0
 13 38  1  0  0  0  0
 14 15  1  0  0  0  0
 14 23  1  0  0  0  0
 15 16  1  0  0  0  0
 16 17  1  0  0  0  0
 16 39  1  0  0  0  0
 16 40  1  0  0  0  0
 17 18  1  0  0  0  0
 17 41  1  0  0  0  0
 17 42  1  0  0  0  0
 18 19  2  0  0  0  0
 18 23  1  0  0  0  0
 19 20  1  0  0  0  0
 19 43  1  0  0  0  0
 20 21  2  0  0  0  0
 20 24  1  0  0  0  0
 21 22  1  0  0  0  0
 21 44  1  0  0  0  0
 22 23  2  0  0  0  0
 22 45  1  0  0  0  0
 24 25  3  0  0  0  0
 25 26  1  0  0  0  0
 26 27  1  0  0  0  0
 26 28  1  0  0  0  0
 26 46  1  0  0  0  0
 27 28  1  0  0  0  0
 27 47  1  0  0  0  0
 27 48  1  0  0  0  0
 28 49  1  0  0  0  0
 28 50  1  0  0  0  0
M  END
>  <DRUGBANK_ID>
DB15346

>  <COMMON_NAME>
GLPG-1205

>  <CAS_NUMBER>
1445847-37-9

>  <UNII>
K9WR6LRA5D

$$$$
