1594
 OpenBabel10282417072D

 38 40  0  0  1  0  0  0  0  0999 V2000
    4.6690   -2.3783    0.0000 Cl  0  0  0  0  0  0  0  0  0  0  0  0
    5.7303   -1.4841    0.0000 F   0  0  0  0  0  0  0  0  0  0  0  0
    6.0034    2.3401    0.0000 O   0  0  0  0  0  0  0  0  0  0  0  0
    4.4625    2.3401    0.0000 O   0  0  0  0  0  0  0  0  0  0  0  0
    4.3060    0.9518    0.0000 N   0  0  0  0  0  0  0  0  0  0  0  0
    6.1598    0.9518    0.0000 N   0  0  0  0  0  0  0  0  0  0  0  0
    1.6500    2.2908    0.0000 N   0  0  0  0  0  0  0  0  0  0  0  0
    4.4897    0.1475    0.0000 C   0  0  0  0  0  0  0  0  0  0  0  0
    5.2329   -0.2105    0.0000 C   0  0  0  0  0  0  0  0  0  0  0  0
    3.5018    1.1354    0.0000 C   0  0  0  0  0  0  0  0  0  0  0  0
    5.9762    0.1475    0.0000 C   0  0  0  0  0  0  0  0  0  0  0  0
    4.8204    1.5968    0.0000 C   0  0  0  0  0  0  0  0  0  0  0  0
    5.6454    1.5968    0.0000 C   0  0  3  0  0  0  0  0  0  0  0  0
    3.7723   -0.3256    0.0000 C   0  0  0  0  0  0  0  0  0  0  0  0
    5.3104   -1.0663    0.0000 C   0  0  0  0  0  0  0  0  0  0  0  0
    6.6212   -0.3669    0.0000 C   0  0  0  0  0  0  0  0  0  0  0  0
    3.2586    1.9237    0.0000 C   0  0  0  0  0  0  0  0  0  0  0  0
    3.8299   -1.1830    0.0000 C   0  0  0  0  0  0  0  0  0  0  0  0
    4.6041   -1.5559    0.0000 C   0  0  0  0  0  0  0  0  0  0  0  0
    6.4983   -1.1827    0.0000 C   0  0  0  0  0  0  0  0  0  0  0  0
    7.3892   -0.0655    0.0000 C   0  0  0  0  0  0  0  0  0  0  0  0
    7.1433   -1.6971    0.0000 C   0  0  0  0  0  0  0  0  0  0  0  0
    8.0342   -0.5799    0.0000 C   0  0  0  0  0  0  0  0  0  0  0  0
    7.9113   -1.3956    0.0000 C   0  0  0  0  0  0  0  0  0  0  0  0
    2.4543    2.1073    0.0000 C   0  0  0  0  0  0  0  0  0  0  0  0
    6.9707    2.4125    0.0000 H   0  0  0  0  0  0  0  0  0  0  0  0
    2.7740    0.3510    0.0000 H   0  0  0  0  0  0  0  0  0  0  0  0
    2.4586    1.3735    0.0000 H   0  0  0  0  0  0  0  0  0  0  0  0
    6.7087    1.7166    0.0000 H   0  0  0  0  0  0  0  0  0  0  0  0
    2.8477    0.1329    0.0000 H   0  0  0  0  0  0  0  0  0  0  0  0
    6.2453   -1.5032    0.0000 H   0  0  0  0  0  0  0  0  0  0  0  0
    3.9864    2.7081    0.0000 H   0  0  0  0  0  0  0  0  0  0  0  0
    2.9432    2.9462    0.0000 H   0  0  0  0  0  0  0  0  0  0  0  0
    2.9750   -1.7610    0.0000 H   0  0  0  0  0  0  0  0  0  0  0  0
    7.5430    0.9550    0.0000 H   0  0  0  0  0  0  0  0  0  0  0  0
    6.9895   -2.7176    0.0000 H   0  0  0  0  0  0  0  0  0  0  0  0
    8.9949   -0.2029    0.0000 H   0  0  0  0  0  0  0  0  0  0  0  0
    8.7182   -2.0390    0.0000 H   0  0  0  0  0  0  0  0  0  0  0  0
  1 19  1  0  0  0  0
  2 20  1  0  0  0  0
  3 13  1  0  0  0  0
  3 26  1  0  0  0  0
  4 12  2  0  0  0  0
  5  8  1  0  0  0  0
  5 10  1  0  0  0  0
  5 12  1  0  0  0  0
  6 11  2  0  0  0  0
  6 13  1  0  0  0  0
  7 25  3  0  0  0  0
  8  9  2  0  0  0  0
  8 14  1  0  0  0  0
  9 11  1  0  0  0  0
  9 15  1  0  0  0  0
 10 17  1  0  0  0  0
 10 27  1  0  0  0  0
 10 28  1  0  0  0  0
 11 16  1  0  0  0  0
 12 13  1  0  0  0  0
 13 29  1  0  0  0  0
 14 18  2  0  0  0  0
 14 30  1  0  0  0  0
 15 19  2  0  0  0  0
 15 31  1  0  0  0  0
 16 20  1  0  0  0  0
 16 21  2  0  0  0  0
 17 25  1  0  0  0  0
 17 32  1  0  0  0  0
 17 33  1  0  0  0  0
 18 19  1  0  0  0  0
 18 34  1  0  0  0  0
 20 22  2  0  0  0  0
 21 23  1  0  0  0  0
 21 35  1  0  0  0  0
 22 24  1  0  0  0  0
 22 36  1  0  0  0  0
 23 24  2  0  0  0  0
 23 37  1  0  0  0  0
 24 38  1  0  0  0  0
M  END
>  <DRUGBANK_ID>
DB01594

>  <COMMON_NAME>
Cinolazepam

>  <CAS_NUMBER>
75696-02-5

>  <UNII>
68P0556B0U

>  <SYNONYMS>
1-(2-cyanoethyl)-7-chloro-3-hydroxy-5-(2'-fluorophenyl)-1,3-dihydro-2H-1,4-benzodiazepin-2-one; 7-chloro-5-(2-fluorophenyl)-2,3-dihydro-3-hydroxy-2-oxo-1H-1,4-benzodiazepine-1-propanenitrile; 7-chloro-5-(o-fluorophenyl)-2,3-dihydro-3-hydroxy-2-oxo-1H-1,4-benzodiazepine-1-propionitrile; Cinolazepam; Cinolazepamum

$$$$
