
 OpenBabel10282417072D

 35 36  0  0  0  0  0  0  0  0999 V2000
    1.7259    2.1094    0.0000 C   0  0  0  0  0  0  0  0  0  0  0  0
    1.0093    1.7007    0.0000 C   0  0  0  0  0  0  0  0  0  0  0  0
    1.0093    0.8730    0.0000 C   0  0  0  0  0  0  0  0  0  0  0  0
    0.2977    0.4642    0.0000 C   0  0  0  0  0  0  0  0  0  0  0  0
   -0.4188    0.8730    0.0000 C   0  0  0  0  0  0  0  0  0  0  0  0
   -0.4188    1.7007    0.0000 C   0  0  0  0  0  0  0  0  0  0  0  0
    0.2977    2.1094    0.0000 C   0  0  0  0  0  0  0  0  0  0  0  0
    2.4374    2.5232    0.0000 N   0  0  0  0  0  0  0  0  0  0  0  0
    1.7259    0.4642    0.0000 C   0  0  0  0  0  0  0  0  0  0  0  0
    1.7259   -0.3633    0.0000 F   0  0  0  0  0  0  0  0  0  0  0  0
    2.4374    0.0504    0.0000 F   0  0  0  0  0  0  0  0  0  0  0  0
    2.4374    0.8730    0.0000 F   0  0  0  0  0  0  0  0  0  0  0  0
   -1.1304    0.4642    0.0000 N   0  0  0  0  0  0  0  0  0  0  0  0
   -1.2161   -0.3583    0.0000 C   0  0  2  0  0  0  0  0  0  0  0  0
   -2.0236   -0.5299    0.0000 C   0  0  0  0  0  0  0  0  0  0  0  0
   -2.4374    0.1867    0.0000 C   0  0  0  0  0  0  0  0  0  0  0  0
   -1.8873    0.7973    0.0000 C   0  0  0  0  0  0  0  0  0  0  0  0
   -0.6056   -0.9084    0.0000 C   0  0  2  0  0  0  0  0  0  0  0  0
   -0.7771   -1.7158    0.0000 C   0  0  0  0  0  0  0  0  0  0  0  0
    0.1766   -0.6560    0.0000 O   0  0  0  0  0  0  0  0  0  0  0  0
   -0.9487   -2.5232    0.0000 F   0  0  0  0  0  0  0  0  0  0  0  0
   -1.5593   -1.9732    0.0000 F   0  0  0  0  0  0  0  0  0  0  0  0
   -0.1665   -2.2659    0.0000 F   0  0  0  0  0  0  0  0  0  0  0  0
    0.2992   -0.5678    0.0000 H   0  0  0  0  0  0  0  0  0  0  0  0
   -1.3112    2.2190    0.0000 H   0  0  0  0  0  0  0  0  0  0  0  0
    0.2992    3.1414    0.0000 H   0  0  0  0  0  0  0  0  0  0  0  0
   -2.0116    0.3573    0.0000 H   0  0  0  0  0  0  0  0  0  0  0  0
   -2.4588   -1.5074    0.0000 H   0  0  0  0  0  0  0  0  0  0  0  0
   -3.0921   -0.5859    0.0000 H   0  0  0  0  0  0  0  0  0  0  0  0
   -3.5015    0.2987    0.0000 H   0  0  0  0  0  0  0  0  0  0  0  0
   -2.8207    1.1857    0.0000 H   0  0  0  0  0  0  0  0  0  0  0  0
   -2.1119    1.8435    0.0000 H   0  0  0  0  0  0  0  0  0  0  0  0
   -2.9211    1.0733    0.0000 H   0  0  0  0  0  0  0  0  0  0  0  0
   -0.3819    0.1380    0.0000 H   0  0  0  0  0  0  0  0  0  0  0  0
    0.8961   -1.3065    0.0000 H   0  0  0  0  0  0  0  0  0  0  0  0
  1  2  1  0  0  0  0
  1  8  3  0  0  0  0
  2  3  1  0  0  0  0
  2  7  2  0  0  0  0
  3  4  2  0  0  0  0
  3  9  1  0  0  0  0
  4  5  1  0  0  0  0
  4 24  1  0  0  0  0
  5  6  2  0  0  0  0
  5 13  1  0  0  0  0
  6  7  1  0  0  0  0
  6 25  1  0  0  0  0
  7 26  1  0  0  0  0
  9 10  1  0  0  0  0
  9 11  1  0  0  0  0
  9 12  1  0  0  0  0
 13 14  1  0  0  0  0
 13 17  1  0  0  0  0
 14 15  1  0  0  0  0
 14 18  1  0  0  0  0
 14 27  1  6  0  0  0
 15 16  1  0  0  0  0
 15 28  1  0  0  0  0
 15 29  1  0  0  0  0
 16 17  1  0  0  0  0
 16 30  1  0  0  0  0
 16 31  1  0  0  0  0
 17 32  1  0  0  0  0
 17 33  1  0  0  0  0
 18 19  1  0  0  0  0
 18 20  1  0  0  0  0
 18 34  1  6  0  0  0
 19 21  1  0  0  0  0
 19 22  1  0  0  0  0
 19 23  1  0  0  0  0
 20 35  1  0  0  0  0
M  END
>  <DRUGBANK_ID>
DB13934

>  <COMMON_NAME>
Ligandrol

>  <CAS_NUMBER>
1165910-22-4

>  <UNII>
1EJT54415A

$$$$
