
 OpenBabel10282417072D

 71 74  0  0  0  0  0  0  0  0999 V2000
   -0.0315    0.0655    0.0000 C   0  0  2  0  0  0  0  0  0  0  0  0
    0.7554    0.3133    0.0000 C   0  0  2  0  0  0  0  0  0  0  0  0
   -2.1836   -1.1586    0.0000 C   0  0  2  0  0  0  0  0  0  0  0  0
   -0.7554   -1.1586    0.0000 C   0  0  1  0  0  0  0  0  0  0  0  0
   -0.0412   -0.7505    0.0000 C   0  0  2  0  0  0  0  0  0  0  0  0
   -1.4694   -0.7456    0.0000 C   0  0  2  0  0  0  0  0  0  0  0  0
   -2.1836   -1.9844    0.0000 C   0  0  0  0  0  0  0  0  0  0  0  0
   -0.7457    0.4881    0.0000 C   0  0  0  0  0  0  0  0  0  0  0  0
   -1.4694    0.0801    0.0000 C   0  0  2  0  0  0  0  0  0  0  0  0
   -2.8977   -0.7456    0.0000 C   0  0  0  0  0  0  0  0  0  0  0  0
    0.7457    1.1440    0.0000 C   0  0  0  0  0  0  0  0  0  0  0  0
   -2.8977   -2.3974    0.0000 C   0  0  0  0  0  0  0  0  0  0  0  0
    1.4694    0.7360    0.0000 O   0  0  0  0  0  0  0  0  0  0  0  0
    2.1885    0.3278    0.0000 C   0  0  0  0  0  0  0  0  0  0  0  0
    1.2266   -0.3570    0.0000 C   0  0  0  0  0  0  0  0  0  0  0  0
    0.7408   -1.0176    0.0000 C   0  0  0  0  0  0  0  0  0  0  0  0
   -0.7603   -1.9893    0.0000 C   0  0  0  0  0  0  0  0  0  0  0  0
   -3.6118   -1.1586    0.0000 C   0  0  0  0  0  0  0  0  0  0  0  0
   -3.6118   -1.9844    0.0000 C   0  0  0  0  0  0  0  0  0  0  0  0
   -1.4743   -2.3974    0.0000 C   0  0  0  0  0  0  0  0  0  0  0  0
    2.8880    1.5715    0.0000 C   0  0  0  0  0  0  0  0  0  0  0  0
    1.4598    1.5666    0.0000 C   0  0  0  0  0  0  0  0  0  0  0  0
    2.1885   -0.4978    0.0000 O   0  0  0  0  0  0  0  0  0  0  0  0
    0.0315    1.5520    0.0000 O   0  0  0  0  0  0  0  0  0  0  0  0
    2.1739    1.1586    0.0000 O   0  0  0  0  0  0  0  0  0  0  0  0
    2.8831    2.3974    0.0000 O   0  0  0  0  0  0  0  0  0  0  0  0
   -4.3260   -2.3925    0.0000 O   0  0  0  0  0  0  0  0  0  0  0  0
   -0.0412    0.8963    0.0000 C   0  0  0  0  0  0  0  0  0  0  0  0
   -2.1836    0.5027    0.0000 O   0  0  0  0  0  0  0  0  0  0  0  0
    2.8977    0.7505    0.0000 O   0  0  0  0  0  0  0  0  0  0  0  0
   -2.1885   -0.3278    0.0000 C   0  0  0  0  0  0  0  0  0  0  0  0
    3.6022    1.1635    0.0000 C   0  0  0  0  0  0  0  0  0  0  0  0
    3.6167    0.3424    0.0000 C   0  0  0  0  0  0  0  0  0  0  0  0
    4.3163    1.5812    0.0000 C   0  0  0  0  0  0  0  0  0  0  0  0
    4.3260    0.7651    0.0000 C   0  0  0  0  0  0  0  0  0  0  0  0
   -1.4743   -1.5666    0.0000 H   0  0  0  0  0  0  0  0  0  0  0  0
   -0.0461   -1.5812    0.0000 H   0  0  0  0  0  0  0  0  0  0  0  0
   -0.7603   -0.3375    0.0000 H   0  0  0  0  0  0  0  0  0  0  0  0
   -0.7345    1.5580    0.0000 H   0  0  0  0  0  0  0  0  0  0  0  0
   -1.6668    1.0327    0.0000 H   0  0  0  0  0  0  0  0  0  0  0  0
   -2.3989   -0.4499    0.0000 H   0  0  0  0  0  0  0  0  0  0  0  0
   -2.8977    0.2864    0.0000 H   0  0  0  0  0  0  0  0  0  0  0  0
   -2.8977   -3.4294    0.0000 H   0  0  0  0  0  0  0  0  0  0  0  0
    2.2965   -0.3684    0.0000 H   0  0  0  0  0  0  0  0  0  0  0  0
    1.7045   -1.3143    0.0000 H   0  0  0  0  0  0  0  0  0  0  0  0
    1.0609   -2.0386    0.0000 H   0  0  0  0  0  0  0  0  0  0  0  0
    1.7962   -1.1935    0.0000 H   0  0  0  0  0  0  0  0  0  0  0  0
    0.1636   -2.5290    0.0000 H   0  0  0  0  0  0  0  0  0  0  0  0
   -0.7654   -3.0593    0.0000 H   0  0  0  0  0  0  0  0  0  0  0  0
   -4.5057   -0.6429    0.0000 H   0  0  0  0  0  0  0  0  0  0  0  0
   -1.4786   -3.4674    0.0000 H   0  0  0  0  0  0  0  0  0  0  0  0
   -2.4030   -2.9288    0.0000 H   0  0  0  0  0  0  0  0  0  0  0  0
    1.4516    2.6366    0.0000 H   0  0  0  0  0  0  0  0  0  0  0  0
    2.3832    2.1072    0.0000 H   0  0  0  0  0  0  0  0  0  0  0  0
    0.8791    1.4421    0.0000 H   0  0  0  0  0  0  0  0  0  0  0  0
   -0.9740    1.4204    0.0000 H   0  0  0  0  0  0  0  0  0  0  0  0
   -0.0537    1.9662    0.0000 H   0  0  0  0  0  0  0  0  0  0  0  0
   -2.1732    1.4726    0.0000 H   0  0  0  0  0  0  0  0  0  0  0  0
   -1.2650    0.2127    0.0000 H   0  0  0  0  0  0  0  0  0  0  0  0
   -3.1183    0.2017    0.0000 H   0  0  0  0  0  0  0  0  0  0  0  0
   -2.1948    0.7422    0.0000 H   0  0  0  0  0  0  0  0  0  0  0  0
    3.6077    0.0935    0.0000 H   0  0  0  0  0  0  0  0  0  0  0  0
    4.5317    0.6335    0.0000 H   0  0  0  0  0  0  0  0  0  0  0  0
    3.6280   -0.7275    0.0000 H   0  0  0  0  0  0  0  0  0  0  0  0
    4.5498   -0.1812    0.0000 H   0  0  0  0  0  0  0  0  0  0  0  0
    5.2460    1.0515    0.0000 H   0  0  0  0  0  0  0  0  0  0  0  0
    4.3102    2.6512    0.0000 H   0  0  0  0  0  0  0  0  0  0  0  0
    5.2399    2.1214    0.0000 H   0  0  0  0  0  0  0  0  0  0  0  0
    5.2600    0.2430    0.0000 H   0  0  0  0  0  0  0  0  0  0  0  0
    4.3112    1.8350    0.0000 H   0  0  0  0  0  0  0  0  0  0  0  0
    5.2452    1.3129    0.0000 H   0  0  0  0  0  0  0  0  0  0  0  0
  1 28  1  1  0  0  0
  2  1  1  0  0  0  0
  2 11  1  1  0  0  0
  2 13  1  0  0  0  0
  3  6  1  0  0  0  0
  3 31  1  1  0  0  0
  4  5  1  0  0  0  0
  4 38  1  1  0  0  0
  5  1  1  0  0  0  0
  5 37  1  6  0  0  0
  6  9  1  0  0  0  0
  6 36  1  6  0  0  0
  6  4  1  0  0  0  0
  7  3  1  0  0  0  0
  8  1  1  0  0  0  0
  8 39  1  0  0  0  0
  8 40  1  0  0  0  0
  9  8  1  0  0  0  0
  9 29  1  0  0  0  0
  9 41  1  6  0  0  0
 10  3  1  0  0  0  0
 10 42  1  0  0  0  0
 12  7  2  0  0  0  0
 12 43  1  0  0  0  0
 14 13  1  0  0  0  0
 15  2  1  0  0  0  0
 15 16  1  0  0  0  0
 15 44  1  0  0  0  0
 15 45  1  0  0  0  0
 16  5  1  0  0  0  0
 16 46  1  0  0  0  0
 16 47  1  0  0  0  0
 17  4  1  0  0  0  0
 17 48  1  0  0  0  0
 17 49  1  0  0  0  0
 18 10  2  0  0  0  0
 18 50  1  0  0  0  0
 19 18  1  0  0  0  0
 19 12  1  0  0  0  0
 20 17  1  0  0  0  0
 20  7  1  0  0  0  0
 20 51  1  0  0  0  0
 20 52  1  0  0  0  0
 21 25  1  0  0  0  0
 22 11  1  0  0  0  0
 22 53  1  0  0  0  0
 22 54  1  0  0  0  0
 23 14  2  0  0  0  0
 24 11  2  0  0  0  0
 25 22  1  0  0  0  0
 26 21  2  0  0  0  0
 27 19  2  0  0  0  0
 28 55  1  0  0  0  0
 28 56  1  0  0  0  0
 28 57  1  0  0  0  0
 29 58  1  0  0  0  0
 30 14  1  0  0  0  0
 31 59  1  0  0  0  0
 31 60  1  0  0  0  0
 31 61  1  0  0  0  0
 32 21  1  0  0  0  0
 32 62  1  0  0  0  0
 32 63  1  0  0  0  0
 33 30  1  0  0  0  0
 33 64  1  0  0  0  0
 33 65  1  0  0  0  0
 34 32  1  0  0  0  0
 34 66  1  0  0  0  0
 34 67  1  0  0  0  0
 34 68  1  0  0  0  0
 35 33  1  0  0  0  0
 35 69  1  0  0  0  0
 35 70  1  0  0  0  0
 35 71  1  0  0  0  0
M  END
>  <DRUGBANK_ID>
DB01130

>  <SECONDARY_ACCESSION_NUMBERS>
APRD01197

>  <COMMON_NAME>
Prednicarbate

>  <CAS_NUMBER>
73771-04-7

>  <UNII>
V901LV1K7D

>  <SYNONYMS>
Prednicarbate; Prednicarbato

$$$$
