B97
 OpenBabel10282417072D

 45 49  0  0  0  0  0  0  0  0999 V2000
   -0.0959   -0.1125    0.0000 C   0  0  0  0  0  0  0  0  0  0  0  0
    2.1865    0.8448    0.0000 C   0  0  0  0  0  0  0  0  0  0  0  0
    0.3528   -2.2486    0.0000 C   0  0  0  0  0  0  0  0  0  0  0  0
   -0.4080   -2.5677    0.0000 C   0  0  0  0  0  0  0  0  0  0  0  0
    0.6649    0.2066    0.0000 C   0  0  0  0  0  0  0  0  0  0  0  0
    2.9473    1.1639    0.0000 C   0  0  0  0  0  0  0  0  0  0  0  0
    2.7392   -0.4729    0.0000 C   0  0  0  0  0  0  0  0  0  0  0  0
   -0.1999   -0.9309    0.0000 C   0  0  0  0  0  0  0  0  0  0  0  0
   -0.9607   -1.2500    0.0000 C   0  0  0  0  0  0  0  0  0  0  0  0
    2.0825    0.0264    0.0000 C   0  0  0  0  0  0  0  0  0  0  0  0
    0.4569   -1.4302    0.0000 C   0  0  0  0  0  0  0  0  0  0  0  0
   -1.7069   -0.8982    0.0000 C   0  0  0  0  0  0  0  0  0  0  0  0
   -1.0647   -2.0684    0.0000 C   0  0  0  0  0  0  0  0  0  0  0  0
    1.3217   -0.2927    0.0000 C   0  0  0  0  0  0  0  0  0  0  0  0
   -2.2721   -1.4991    0.0000 C   0  0  0  0  0  0  0  0  0  0  0  0
    3.6040    0.6646    0.0000 C   0  0  0  0  0  0  0  0  0  0  0  0
   -3.0944   -1.4319    0.0000 C   0  0  0  0  0  0  0  0  0  0  0  0
   -2.5360    0.3358    0.0000 C   0  0  0  0  0  0  0  0  0  0  0  0
   -3.3060    0.0396    0.0000 C   0  0  1  0  0  0  0  0  0  0  0  0
    4.3648    0.9837    0.0000 C   0  0  0  0  0  0  0  0  0  0  0  0
   -3.9069    0.6048    0.0000 C   0  0  0  0  0  0  0  0  0  0  0  0
    3.5000   -0.1538    0.0000 N   0  0  0  0  0  0  0  0  0  0  0  0
    1.2176   -1.1111    0.0000 N   0  0  0  0  0  0  0  0  0  0  0  0
   -1.8243   -0.0816    0.0000 N   0  0  0  0  0  0  0  0  0  0  0  0
   -3.5545   -0.7471    0.0000 N   0  0  0  0  0  0  0  0  0  0  0  0
   -3.5117   -2.1436    0.0000 O   0  0  0  0  0  0  0  0  0  0  0  0
   -1.8752   -2.2224    0.0000 S   0  0  0  0  0  0  0  0  0  0  0  0
   -3.1936    0.6126    0.0000 H   0  0  0  0  0  0  0  0  0  0  0  0
   -0.9174    0.5121    0.0000 H   0  0  0  0  0  0  0  0  0  0  0  0
    1.3650    1.4694    0.0000 H   0  0  0  0  0  0  0  0  0  0  0  0
    1.1743   -2.8732    0.0000 H   0  0  0  0  0  0  0  0  0  0  0  0
   -0.5382   -3.5915    0.0000 H   0  0  0  0  0  0  0  0  0  0  0  0
    0.7950    1.2304    0.0000 H   0  0  0  0  0  0  0  0  0  0  0  0
    3.0775    2.1877    0.0000 H   0  0  0  0  0  0  0  0  0  0  0  0
    2.6090   -1.4967    0.0000 H   0  0  0  0  0  0  0  0  0  0  0  0
   -2.4488    1.4022    0.0000 H   0  0  0  0  0  0  0  0  0  0  0  0
   -1.5866    0.8293    0.0000 H   0  0  0  0  0  0  0  0  0  0  0  0
    5.2166    0.3361    0.0000 H   0  0  0  0  0  0  0  0  0  0  0  0
    4.4997    2.0452    0.0000 H   0  0  0  0  0  0  0  0  0  0  0  0
    5.3515    1.3976    0.0000 H   0  0  0  0  0  0  0  0  0  0  0  0
   -3.6617    1.6463    0.0000 H   0  0  0  0  0  0  0  0  0  0  0  0
   -4.9315    0.2964    0.0000 H   0  0  0  0  0  0  0  0  0  0  0  0
   -4.6863    1.3379    0.0000 H   0  0  0  0  0  0  0  0  0  0  0  0
   -1.0071    0.4674    0.0000 H   0  0  0  0  0  0  0  0  0  0  0  0
   -4.5290   -0.8872    0.0000 H   0  0  0  0  0  0  0  0  0  0  0  0
  1  5  2  0  0  0  0
  1  8  1  0  0  0  0
  1 29  1  0  0  0  0
  2  6  2  0  0  0  0
  2 10  1  0  0  0  0
  2 30  1  0  0  0  0
  3  4  2  0  0  0  0
  3 11  1  0  0  0  0
  3 31  1  0  0  0  0
  4 13  1  0  0  0  0
  4 32  1  0  0  0  0
  5 14  1  0  0  0  0
  5 33  1  0  0  0  0
  6 16  1  0  0  0  0
  6 34  1  0  0  0  0
  7 10  2  0  0  0  0
  7 22  1  0  0  0  0
  7 35  1  0  0  0  0
  8  9  1  0  0  0  0
  8 11  2  0  0  0  0
  9 12  1  0  0  0  0
  9 13  2  0  0  0  0
 10 14  1  0  0  0  0
 11 23  1  0  0  0  0
 12 15  2  0  0  0  0
 12 24  1  0  0  0  0
 13 27  1  0  0  0  0
 14 23  2  0  0  0  0
 15 17  1  0  0  0  0
 15 27  1  0  0  0  0
 16 20  1  0  0  0  0
 16 22  2  0  0  0  0
 17 25  1  0  0  0  0
 17 26  2  0  0  0  0
 18 19  1  0  0  0  0
 18 24  1  0  0  0  0
 18 36  1  0  0  0  0
 18 37  1  0  0  0  0
 19 21  1  0  0  0  0
 19 25  1  0  0  0  0
 19 28  1  1  0  0  0
 20 38  1  0  0  0  0
 20 39  1  0  0  0  0
 20 40  1  0  0  0  0
 21 41  1  0  0  0  0
 21 42  1  0  0  0  0
 21 43  1  0  0  0  0
 24 44  1  0  0  0  0
 25 45  1  0  0  0  0
M  END
>  <DRUGBANK_ID>
DB07430

>  <COMMON_NAME>
(10R)-10-methyl-3-(6-methylpyridin-3-yl)-9,10,11,12-tetrahydro-8H-[1,4]diazepino[5',6':4,5]thieno[3,2-f]quinolin-8-one

$$$$
