
 OpenBabel10282417072D

 32 33  0  0  0  0  0  0  0  0999 V2000
    4.3201    0.4516    0.0000 C   0  0  0  0  0  0  0  0  0  0  0  0
    4.9332   -0.1002    0.0000 C   0  0  3  0  0  0  0  0  0  0  0  0
    5.7178    0.1546    0.0000 C   0  0  0  0  0  0  0  0  0  0  0  0
    6.3309   -0.3974    0.0000 S   0  0  0  0  0  0  0  0  0  0  0  0
    6.7681    0.3022    0.0000 O   0  0  0  0  0  0  0  0  0  0  0  0
    7.0958   -0.7064    0.0000 O   0  0  0  0  0  0  0  0  0  0  0  0
    6.1594   -1.2044    0.0000 C   0  0  0  0  0  0  0  0  0  0  0  0
    5.3748   -1.4593    0.0000 C   0  0  0  0  0  0  0  0  0  0  0  0
    4.7617   -0.9072    0.0000 N   0  0  0  0  0  0  0  0  0  0  0  0
    3.9770   -1.1622    0.0000 N   0  0  0  0  0  0  0  0  0  0  0  0
    3.3639   -0.6101    0.0000 C   0  0  0  0  0  0  0  0  0  0  0  0
    2.5793   -0.8651    0.0000 C   0  0  0  0  0  0  0  0  0  0  0  0
    2.3244   -1.6497    0.0000 C   0  0  0  0  0  0  0  0  0  0  0  0
    1.4993   -1.6497    0.0000 C   0  0  0  0  0  0  0  0  0  0  0  0
    1.2444   -0.8651    0.0000 C   0  0  0  0  0  0  0  0  0  0  0  0
    1.9119   -0.3802    0.0000 O   0  0  0  0  0  0  0  0  0  0  0  0
    0.4598   -0.6101    0.0000 N   0  3  0  0  0  0  0  0  0  0  0  0
   -0.1532   -1.1622    0.0000 O   0  0  0  0  0  0  0  0  0  0  0  0
    0.2882    0.1967    0.0000 O   0  5  0  0  0  0  0  0  0  0  0  0
    4.5423    1.4983    0.0000 H   0  0  0  0  0  0  0  0  0  0  0  0
    3.3025    0.1207    0.0000 H   0  0  0  0  0  0  0  0  0  0  0  0
    3.5248    1.1674    0.0000 H   0  0  0  0  0  0  0  0  0  0  0  0
    5.1556    0.9464    0.0000 H   0  0  0  0  0  0  0  0  0  0  0  0
    5.9403    1.2012    0.0000 H   0  0  0  0  0  0  0  0  0  0  0  0
    6.7354    0.4852    0.0000 H   0  0  0  0  0  0  0  0  0  0  0  0
    6.9546   -1.9204    0.0000 H   0  0  0  0  0  0  0  0  0  0  0  0
    5.9369   -2.2510    0.0000 H   0  0  0  0  0  0  0  0  0  0  0  0
    5.1523   -2.5059    0.0000 H   0  0  0  0  0  0  0  0  0  0  0  0
    4.3572   -1.7899    0.0000 H   0  0  0  0  0  0  0  0  0  0  0  0
    3.5785    0.3994    0.0000 H   0  0  0  0  0  0  0  0  0  0  0  0
    2.9310   -2.4846    0.0000 H   0  0  0  0  0  0  0  0  0  0  0  0
    0.8927   -2.4846    0.0000 H   0  0  0  0  0  0  0  0  0  0  0  0
  1  2  1  0  0  0  0
  1 20  1  0  0  0  0
  1 21  1  0  0  0  0
  1 22  1  0  0  0  0
  2  3  1  0  0  0  0
  2  9  1  0  0  0  0
  2 23  1  0  0  0  0
  3  4  1  0  0  0  0
  3 24  1  0  0  0  0
  3 25  1  0  0  0  0
  4  5  2  0  0  0  0
  4  6  2  0  0  0  0
  4  7  1  0  0  0  0
  7  8  1  0  0  0  0
  7 26  1  0  0  0  0
  7 27  1  0  0  0  0
  8  9  1  0  0  0  0
  8 28  1  0  0  0  0
  8 29  1  0  0  0  0
  9 10  1  0  0  0  0
 10 11  2  0  0  0  0
 11 12  1  0  0  0  0
 11 30  1  0  0  0  0
 12 13  2  0  0  0  0
 12 16  1  0  0  0  0
 13 14  1  0  0  0  0
 13 31  1  0  0  0  0
 14 15  2  0  0  0  0
 14 32  1  0  0  0  0
 15 16  1  0  0  0  0
 15 17  1  0  0  0  0
 17 18  2  0  0  0  0
 17 19  1  0  0  0  0
M  CHG  2  17   1  19  -1
M  END
>  <DRUGBANK_ID>
DB11820

>  <COMMON_NAME>
Nifurtimox

>  <CAS_NUMBER>
23256-30-6

>  <UNII>
M84I3K7C2O

>  <SYNONYMS>
Nifurtimox; Nifurtimoxum

$$$$
