
 OpenBabel10282417072D

117121  0  0  0  0  0  0  0  0999 V2000
    1.0895   -0.5562    0.0000 C   0  0  0  0  0  0  0  0  0  0  0  0
    1.0895   -1.3813    0.0000 C   0  0  0  0  0  0  0  0  0  0  0  0
   -0.3395   -1.3813    0.0000 C   0  0  0  0  0  0  0  0  0  0  0  0
    0.3750   -1.7938    0.0000 C   0  0  0  0  0  0  0  0  0  0  0  0
    2.5184   -1.3813    0.0000 C   0  0  0  0  0  0  0  0  0  0  0  0
    3.2329   -1.7938    0.0000 C   0  0  0  0  0  0  0  0  0  0  0  0
    3.9473   -1.3813    0.0000 N   0  0  0  0  0  0  0  0  0  0  0  0
    5.3763   -1.3812    0.0000 C   0  0  0  0  0  0  0  0  0  0  0  0
    4.6618   -2.6188    0.0000 C   0  0  0  0  0  0  0  0  0  0  0  0
    5.3763   -3.0313    0.0000 C   0  0  0  0  0  0  0  0  0  0  0  0
    6.0907   -1.7938    0.0000 C   0  0  0  0  0  0  0  0  0  0  0  0
    4.6618   -1.7938    0.0000 N   0  0  0  0  0  0  0  0  0  0  0  0
    6.0907   -2.6188    0.0000 N   0  0  0  0  0  0  0  0  0  0  0  0
    6.8052   -3.0313    0.0000 C   0  0  0  0  0  0  0  0  0  0  0  0
    2.5184   -0.5562    0.0000 C   0  0  0  0  0  0  0  0  0  0  0  0
    3.2329   -0.1437    0.0000 N   0  0  0  0  0  0  0  0  0  0  0  0
    3.9473    1.9188    0.0000 C   0  0  0  0  0  0  0  0  0  0  0  0
    3.2329    2.3313    0.0000 C   0  0  0  0  0  0  0  0  0  0  0  0
    2.5184    1.9188    0.0000 C   0  0  0  0  0  0  0  0  0  0  0  0
   -1.7684   -1.3812    0.0000 C   0  0  0  0  0  0  0  0  0  0  0  0
   -2.4829   -1.7937    0.0000 C   0  0  0  0  0  0  0  0  0  0  0  0
   -2.4829   -2.6187    0.0000 O   0  0  0  0  0  0  0  0  0  0  0  0
    3.2329    0.6813    0.0000 C   0  0  0  0  0  0  0  0  0  0  0  0
    2.5184    1.0938    0.0000 O   0  0  0  0  0  0  0  0  0  0  0  0
    1.8039   -0.1437    0.0000 C   0  0  0  0  0  0  0  0  0  0  0  0
    1.8039    0.6813    0.0000 O   0  0  0  0  0  0  0  0  0  0  0  0
    0.3750   -0.1437    0.0000 C   0  0  0  0  0  0  0  0  0  0  0  0
    0.3750    0.6813    0.0000 O   0  0  0  0  0  0  0  0  0  0  0  0
   -0.3395   -0.5562    0.0000 C   0  0  0  0  0  0  0  0  0  0  0  0
   -0.5530    0.2406    0.0000 C   0  0  0  0  0  0  0  0  0  0  0  0
   -1.0539   -1.7938    0.0000 O   0  0  0  0  0  0  0  0  0  0  0  0
    0.3750   -2.6188    0.0000 C   0  0  0  0  0  0  0  0  0  0  0  0
    0.9583   -3.2021    0.0000 O   0  0  0  0  0  0  0  0  0  0  0  0
   -1.0539   -2.6188    0.0000 C   0  0  1  0  0  0  0  0  0  0  0  0
   -1.0539   -3.4438    0.0000 C   0  0  0  0  0  0  0  0  0  0  0  0
   -1.0540   -0.1437    0.0000 C   0  0  2  0  0  0  0  0  0  0  0  0
   -1.7684    0.2688    0.0000 C   0  0  0  0  0  0  0  0  0  0  0  0
   -1.7684   -0.5562    0.0000 C   0  0  1  0  0  0  0  0  0  0  0  0
   -2.4829   -0.1437    0.0000 O   0  0  0  0  0  0  0  0  0  0  0  0
   -3.1974   -0.5562    0.0000 C   0  0  0  0  0  0  0  0  0  0  0  0
   -1.0540    0.6813    0.0000 C   0  0  1  0  0  0  0  0  0  0  0  0
   -1.7684    1.0938    0.0000 O   0  0  0  0  0  0  0  0  0  0  0  0
   -3.3079    0.6813    0.0000 C   0  0  0  0  0  0  0  0  0  0  0  0
   -2.5934    1.0938    0.0000 C   0  0  0  0  0  0  0  0  0  0  0  0
   -2.8070    1.8906    0.0000 O   0  0  0  0  0  0  0  0  0  0  0  0
   -0.3395    1.0938    0.0000 C   0  0  2  0  0  0  0  0  0  0  0  0
   -1.0540    1.5063    0.0000 C   0  0  0  0  0  0  0  0  0  0  0  0
   -0.3395    1.9188    0.0000 C   0  0  2  0  0  0  0  0  0  0  0  0
   -1.0540    2.3313    0.0000 O   0  0  0  0  0  0  0  0  0  0  0  0
    0.3750    2.3313    0.0000 C   0  0  2  0  0  0  0  0  0  0  0  0
    0.3750    3.1563    0.0000 C   0  0  0  0  0  0  0  0  0  0  0  0
    1.0895    1.9188    0.0000 C   0  0  1  0  0  0  0  0  0  0  0  0
    1.0895    1.0938    0.0000 O   0  0  0  0  0  0  0  0  0  0  0  0
    1.8039    2.3313    0.0000 C   0  0  1  0  0  0  0  0  0  0  0  0
    1.8039    3.1563    0.0000 C   0  0  0  0  0  0  0  0  0  0  0  0
    3.9473    1.0938    0.0000 C   0  0  0  0  0  0  0  0  0  0  0  0
    4.6618    0.6813    0.0000 C   0  0  0  0  0  0  0  0  0  0  0  0
    1.8039   -1.7938    0.0000 C   0  0  0  0  0  0  0  0  0  0  0  0
    1.8039   -2.6188    0.0000 O   0  0  0  0  0  0  0  0  0  0  0  0
    3.2329   -2.8258    0.0000 H   0  0  0  0  0  0  0  0  0  0  0  0
    5.3763   -0.3112    0.0000 H   0  0  0  0  0  0  0  0  0  0  0  0
    6.3030   -0.8463    0.0000 H   0  0  0  0  0  0  0  0  0  0  0  0
    3.7352   -3.1538    0.0000 H   0  0  0  0  0  0  0  0  0  0  0  0
    4.6618   -3.6888    0.0000 H   0  0  0  0  0  0  0  0  0  0  0  0
    5.3763   -4.1013    0.0000 H   0  0  0  0  0  0  0  0  0  0  0  0
    6.3030   -3.5663    0.0000 H   0  0  0  0  0  0  0  0  0  0  0  0
    7.0174   -1.2589    0.0000 H   0  0  0  0  0  0  0  0  0  0  0  0
    7.0173   -2.3288    0.0000 H   0  0  0  0  0  0  0  0  0  0  0  0
    6.8052   -4.1013    0.0000 H   0  0  0  0  0  0  0  0  0  0  0  0
    7.7318   -2.4963    0.0000 H   0  0  0  0  0  0  0  0  0  0  0  0
    7.7319   -3.5663    0.0000 H   0  0  0  0  0  0  0  0  0  0  0  0
    4.0855   -0.6360    0.0000 H   0  0  0  0  0  0  0  0  0  0  0  0
    4.8410    2.4348    0.0000 H   0  0  0  0  0  0  0  0  0  0  0  0
    3.2329    3.3633    0.0000 H   0  0  0  0  0  0  0  0  0  0  0  0
    2.5184    0.8868    0.0000 H   0  0  0  0  0  0  0  0  0  0  0  0
   -0.8747   -1.8972    0.0000 H   0  0  0  0  0  0  0  0  0  0  0  0
   -3.3766   -1.2777    0.0000 H   0  0  0  0  0  0  0  0  0  0  0  0
    2.6154    1.1498    0.0000 H   0  0  0  0  0  0  0  0  0  0  0  0
    1.1865    1.1498    0.0000 H   0  0  0  0  0  0  0  0  0  0  0  0
    0.2036    0.9972    0.0000 H   0  0  0  0  0  0  0  0  0  0  0  0
   -1.5865    0.5175    0.0000 H   0  0  0  0  0  0  0  0  0  0  0  0
   -0.8299    1.2741    0.0000 H   0  0  0  0  0  0  0  0  0  0  0  0
   -1.9805   -3.9788    0.0000 H   0  0  0  0  0  0  0  0  0  0  0  0
   -0.1273   -3.9788    0.0000 H   0  0  0  0  0  0  0  0  0  0  0  0
   -1.0539   -4.5138    0.0000 H   0  0  0  0  0  0  0  0  0  0  0  0
   -1.5890    0.7830    0.0000 H   0  0  0  0  0  0  0  0  0  0  0  0
   -1.7684    1.3388    0.0000 H   0  0  0  0  0  0  0  0  0  0  0  0
   -2.6951   -0.2662    0.0000 H   0  0  0  0  0  0  0  0  0  0  0  0
   -2.6950    0.8038    0.0000 H   0  0  0  0  0  0  0  0  0  0  0  0
   -1.7684    0.5138    0.0000 H   0  0  0  0  0  0  0  0  0  0  0  0
   -4.1240   -0.0212    0.0000 H   0  0  0  0  0  0  0  0  0  0  0  0
   -3.1974   -1.6262    0.0000 H   0  0  0  0  0  0  0  0  0  0  0  0
   -4.1241   -1.0912    0.0000 H   0  0  0  0  0  0  0  0  0  0  0  0
   -1.0540    1.7513    0.0000 H   0  0  0  0  0  0  0  0  0  0  0  0
   -4.2345    1.2163    0.0000 H   0  0  0  0  0  0  0  0  0  0  0  0
   -3.3079   -0.3887    0.0000 H   0  0  0  0  0  0  0  0  0  0  0  0
   -4.2346    0.1463    0.0000 H   0  0  0  0  0  0  0  0  0  0  0  0
   -0.8745    2.0204    0.0000 H   0  0  0  0  0  0  0  0  0  0  0  0
   -1.0540    2.5763    0.0000 H   0  0  0  0  0  0  0  0  0  0  0  0
   -1.9806    0.9713    0.0000 H   0  0  0  0  0  0  0  0  0  0  0  0
   -1.9807    2.0413    0.0000 H   0  0  0  0  0  0  0  0  0  0  0  0
   -0.3395    2.9888    0.0000 H   0  0  0  0  0  0  0  0  0  0  0  0
   -1.0540    3.3013    0.0000 H   0  0  0  0  0  0  0  0  0  0  0  0
    1.3016    2.8663    0.0000 H   0  0  0  0  0  0  0  0  0  0  0  0
    1.3016    3.6913    0.0000 H   0  0  0  0  0  0  0  0  0  0  0  0
   -0.5516    3.6913    0.0000 H   0  0  0  0  0  0  0  0  0  0  0  0
    0.3750    4.2263    0.0000 H   0  0  0  0  0  0  0  0  0  0  0  0
    2.0162    1.3838    0.0000 H   0  0  0  0  0  0  0  0  0  0  0  0
    0.2495    0.6088    0.0000 H   0  0  0  0  0  0  0  0  0  0  0  0
    2.7305    2.8663    0.0000 H   0  0  0  0  0  0  0  0  0  0  0  0
    2.7305    3.6913    0.0000 H   0  0  0  0  0  0  0  0  0  0  0  0
    0.8773    3.6913    0.0000 H   0  0  0  0  0  0  0  0  0  0  0  0
    1.8039    4.2263    0.0000 H   0  0  0  0  0  0  0  0  0  0  0  0
    4.6618   -0.3887    0.0000 H   0  0  0  0  0  0  0  0  0  0  0  0
    5.5884    1.2163    0.0000 H   0  0  0  0  0  0  0  0  0  0  0  0
    5.5885    0.1463    0.0000 H   0  0  0  0  0  0  0  0  0  0  0  0
    0.9924   -3.0873    0.0000 H   0  0  0  0  0  0  0  0  0  0  0  0
  2  1  1  0  0  0  0
  2 58  2  0  0  0  0
  3 31  1  0  0  0  0
  3  4  2  0  0  0  0
  4  2  1  0  0  0  0
  4 32  1  0  0  0  0
  5 15  2  0  0  0  0
  5  6  1  0  0  0  0
  6  7  2  0  0  0  0
  6 60  1  0  0  0  0
  7 12  1  0  0  0  0
  8 12  1  0  0  0  0
  8 11  1  0  0  0  0
  8 61  1  0  0  0  0
  8 62  1  0  0  0  0
  9 10  1  0  0  0  0
  9 63  1  0  0  0  0
  9 64  1  0  0  0  0
 10 13  1  0  0  0  0
 10 65  1  0  0  0  0
 10 66  1  0  0  0  0
 11 67  1  0  0  0  0
 11 68  1  0  0  0  0
 12  9  1  0  0  0  0
 13 11  1  0  0  0  0
 13 14  1  0  0  0  0
 14 69  1  0  0  0  0
 14 70  1  0  0  0  0
 14 71  1  0  0  0  0
 15 16  1  0  0  0  0
 16 23  1  0  0  0  0
 16 72  1  0  0  0  0
 17 18  1  0  0  0  0
 17 73  1  0  0  0  0
 18 19  2  0  0  0  0
 18 74  1  0  0  0  0
 19 54  1  0  0  0  0
 19 75  1  0  0  0  0
 20 21  2  0  0  0  0
 20 76  1  0  0  0  0
 21 22  1  0  0  0  0
 21 77  1  0  0  0  0
 23 56  1  0  0  0  0
 23 24  2  0  0  0  0
 25  1  2  0  0  0  0
 25 15  1  0  0  0  0
 25 26  1  0  0  0  0
 26 78  1  0  0  0  0
 27 29  2  0  0  0  0
 27  1  1  0  0  0  0
 27 28  1  0  0  0  0
 28 79  1  0  0  0  0
 29  3  1  0  0  0  0
 29 30  1  0  0  0  0
 30 80  1  0  0  0  0
 30 81  1  0  0  0  0
 30 82  1  0  0  0  0
 32 34  1  0  0  0  0
 32 33  2  0  0  0  0
 34 31  1  0  0  0  0
 34 22  1  0  0  0  0
 34 35  1  6  0  0  0
 35 83  1  0  0  0  0
 35 84  1  0  0  0  0
 35 85  1  0  0  0  0
 36 38  1  0  0  0  0
 36 37  1  0  0  0  0
 36 86  1  6  0  0  0
 37 87  1  0  0  0  0
 37 88  1  0  0  0  0
 37 89  1  0  0  0  0
 38 20  1  0  0  0  0
 38 39  1  0  0  0  0
 38 90  1  1  0  0  0
 39 40  1  0  0  0  0
 40 91  1  0  0  0  0
 40 92  1  0  0  0  0
 40 93  1  0  0  0  0
 41 36  1  0  0  0  0
 41 42  1  0  0  0  0
 41 94  1  6  0  0  0
 42 44  1  0  0  0  0
 43 95  1  0  0  0  0
 43 96  1  0  0  0  0
 43 97  1  0  0  0  0
 44 43  1  0  0  0  0
 44 45  2  0  0  0  0
 46 41  1  0  0  0  0
 46 47  1  0  0  0  0
 46 98  1  1  0  0  0
 47 99  1  0  0  0  0
 47100  1  0  0  0  0
 47101  1  0  0  0  0
 48 46  1  0  0  0  0
 48 49  1  0  0  0  0
 48102  1  1  0  0  0
 49103  1  0  0  0  0
 50 48  1  0  0  0  0
 50 51  1  0  0  0  0
 50104  1  1  0  0  0
 51105  1  0  0  0  0
 51106  1  0  0  0  0
 51107  1  0  0  0  0
 52 50  1  0  0  0  0
 52 53  1  0  0  0  0
 52108  1  1  0  0  0
 53109  1  0  0  0  0
 54 52  1  0  0  0  0
 54 55  1  0  0  0  0
 54110  1  6  0  0  0
 55111  1  0  0  0  0
 55112  1  0  0  0  0
 55113  1  0  0  0  0
 56 17  2  0  0  0  0
 56 57  1  0  0  0  0
 57114  1  0  0  0  0
 57115  1  0  0  0  0
 57116  1  0  0  0  0
 58  5  1  0  0  0  0
 58 59  1  0  0  0  0
 59117  1  0  0  0  0
M  END
>  <DRUGBANK_ID>
DB01045

>  <SECONDARY_ACCESSION_NUMBERS>
APRD00207; EXPT02777

>  <COMMON_NAME>
Rifampicin

>  <CAS_NUMBER>
13292-46-1

>  <UNII>
VJT6J7R4TR

>  <SYNONYMS>
3-(((4-Methyl-1-piperazinyl)imino)methyl)rifamycin SV; RFP; Rifampicin; Rifampicina; Rifampicine; Rifampicinum; Rifampin

$$$$
