
 OpenBabel10282417072D

 93 97  0  0  1  0  0  0  0  0999 V2000
   -3.1422   -2.4241    0.0000 C   0  0  0  0  0  0  0  0  0  0  0  0
   -2.8562   -1.6502    0.0000 C   0  0  0  0  0  0  0  0  0  0  0  0
   -2.0430   -1.5110    0.0000 C   0  0  0  0  0  0  0  0  0  0  0  0
   -1.4819   -2.0624    0.0000 C   0  0  0  0  0  0  0  0  0  0  0  0
   -0.7243   -1.6459    0.0000 C   0  0  0  0  0  0  0  0  0  0  0  0
    0.0112   -2.0494    0.0000 C   0  0  0  0  0  0  0  0  0  0  0  0
    0.7106   -1.6627    0.0000 C   0  0  0  0  0  0  0  0  0  0  0  0
    1.5044   -2.0364    0.0000 C   0  0  0  0  0  0  0  0  0  0  0  0
    2.0558   -1.4752    0.0000 C   0  0  0  0  0  0  0  0  0  0  0  0
    1.6683   -0.6881    0.0000 C   0  0  0  0  0  0  0  0  0  0  0  0
    0.8501   -0.8709    0.0000 N   0  0  0  0  0  0  0  0  0  0  0  0
    2.0427    0.0179    0.0000 C   0  0  0  0  0  0  0  0  0  0  0  0
    1.6265    0.7462    0.0000 C   0  0  0  0  0  0  0  0  0  0  0  0
    0.8643    0.8567    0.0000 N   0  0  0  0  0  0  0  0  0  0  0  0
    0.7107    1.6752    0.0000 C   0  0  0  0  0  0  0  0  0  0  0  0
    0.0047    2.0496    0.0000 C   0  0  0  0  0  0  0  0  0  0  0  0
   -0.7239    1.6627    0.0000 C   0  0  0  0  0  0  0  0  0  0  0  0
   -1.4588    2.0076    0.0000 C   0  0  0  0  0  0  0  0  0  0  0  0
   -2.0393    1.4169    0.0000 C   0  0  0  0  0  0  0  0  0  0  0  0
   -1.6818    0.7174    0.0000 C   0  0  0  0  0  0  0  0  0  0  0  0
   -0.8926    0.8706    0.0000 N   0  0  0  0  0  0  0  0  0  0  0  0
   -2.0558   -0.0472    0.0000 C   0  0  0  0  0  0  0  0  0  0  0  0
   -1.6690   -0.7465    0.0000 C   0  0  0  0  0  0  0  0  0  0  0  0
   -0.8480   -0.8857    0.0000 N   0  0  0  0  0  0  0  0  0  0  0  0
   -2.8548    1.5419    0.0000 C   0  0  0  0  0  0  0  0  0  0  0  0
   -1.6871    2.7371    0.0000 C   0  0  0  0  0  0  0  0  0  0  0  0
   -2.3807    3.0994    0.0000 O   0  0  0  0  0  0  0  0  0  0  0  0
   -1.1696    3.5206    0.0000 O   0  0  0  0  0  0  0  0  0  0  0  0
    0.0045    2.8746    0.0000 C   0  0  0  0  0  0  0  0  0  0  0  0
   -0.7101    3.2869    0.0000 C   0  0  0  0  0  0  0  0  0  0  0  0
   -1.4245    2.8742    0.0000 O   0  0  0  0  0  0  0  0  0  0  0  0
   -0.7103    4.1119    0.0000 N   0  0  0  0  0  0  0  0  0  0  0  0
   -1.4249    4.5242    0.0000 C   0  0  1  0  0  0  0  0  0  0  0  0
   -1.4252    5.3492    0.0000 C   0  0  0  0  0  0  0  0  0  0  0  0
   -2.1397    5.7615    0.0000 C   0  0  0  0  0  0  0  0  0  0  0  0
   -2.1400    6.5865    0.0000 O   0  0  0  0  0  0  0  0  0  0  0  0
   -2.8541    5.3488    0.0000 O   0  0  0  0  0  0  0  0  0  0  0  0
   -2.1393    4.1115    0.0000 C   0  0  0  0  0  0  0  0  0  0  0  0
   -2.8539    4.5238    0.0000 O   0  0  0  0  0  0  0  0  0  0  0  0
   -2.1391    3.2865    0.0000 O   0  0  0  0  0  0  0  0  0  0  0  0
    1.4686    2.0624    0.0000 C   0  0  2  0  0  0  0  0  0  0  0  0
    2.0297    1.5110    0.0000 C   0  0  2  0  0  0  0  0  0  0  0  0
    2.8449    1.6379    0.0000 C   0  0  0  0  0  0  0  0  0  0  0  0
    1.5937    2.8779    0.0000 C   0  0  0  0  0  0  0  0  0  0  0  0
    2.3624    3.1773    0.0000 C   0  0  0  0  0  0  0  0  0  0  0  0
    2.4875    3.9928    0.0000 C   0  0  0  0  0  0  0  0  0  0  0  0
    1.8438    4.5088    0.0000 O   0  0  0  0  0  0  0  0  0  0  0  0
    3.2562    4.2922    0.0000 O   0  0  0  0  0  0  0  0  0  0  0  0
    2.8703   -1.6063    0.0000 C   0  0  0  0  0  0  0  0  0  0  0  0
    1.6497   -2.8485    0.0000 C   0  0  0  0  0  0  0  0  0  0  0  0
    2.4257   -3.1287    0.0000 C   0  0  0  0  0  0  0  0  0  0  0  0
   -1.5946   -2.8797    0.0000 C   0  0  0  0  0  0  0  0  0  0  0  0
   -4.1968   -2.6047    0.0000 H   0  0  0  0  0  0  0  0  0  0  0  0
   -2.4585   -3.2471    0.0000 H   0  0  0  0  0  0  0  0  0  0  0  0
   -3.5131   -3.4278    0.0000 H   0  0  0  0  0  0  0  0  0  0  0  0
   -3.5399   -0.8271    0.0000 H   0  0  0  0  0  0  0  0  0  0  0  0
   -2.4852   -0.6466    0.0000 H   0  0  0  0  0  0  0  0  0  0  0  0
    0.0129   -3.0814    0.0000 H   0  0  0  0  0  0  0  0  0  0  0  0
    0.1383   -0.1907    0.0000 H   0  0  0  0  0  0  0  0  0  0  0  0
    3.0746    0.0342    0.0000 H   0  0  0  0  0  0  0  0  0  0  0  0
   -0.2028    0.1682    0.0000 H   0  0  0  0  0  0  0  0  0  0  0  0
   -3.0875   -0.0732    0.0000 H   0  0  0  0  0  0  0  0  0  0  0  0
   -3.2432    2.5389    0.0000 H   0  0  0  0  0  0  0  0  0  0  0  0
   -3.5240    0.7070    0.0000 H   0  0  0  0  0  0  0  0  0  0  0  0
   -3.9124    1.7040    0.0000 H   0  0  0  0  0  0  0  0  0  0  0  0
   -0.2343    3.4643    0.0000 H   0  0  0  0  0  0  0  0  0  0  0  0
    0.9310    3.4098    0.0000 H   0  0  0  0  0  0  0  0  0  0  0  0
    0.0042    3.9446    0.0000 H   0  0  0  0  0  0  0  0  0  0  0  0
    0.1422    4.6044    0.0000 H   0  0  0  0  0  0  0  0  0  0  0  0
   -0.4984    5.0595    0.0000 H   0  0  0  0  0  0  0  0  0  0  0  0
   -0.4987    5.8845    0.0000 H   0  0  0  0  0  0  0  0  0  0  0  0
   -1.4255    6.4192    0.0000 H   0  0  0  0  0  0  0  0  0  0  0  0
   -3.6657    5.8171    0.0000 H   0  0  0  0  0  0  0  0  0  0  0  0
   -2.9505    2.8178    0.0000 H   0  0  0  0  0  0  0  0  0  0  0  0
    0.6011    2.6888    0.0000 H   0  0  0  0  0  0  0  0  0  0  0  0
    2.3573    2.5296    0.0000 H   0  0  0  0  0  0  0  0  0  0  0  0
    3.5161    0.8046    0.0000 H   0  0  0  0  0  0  0  0  0  0  0  0
    3.2310    2.6358    0.0000 H   0  0  0  0  0  0  0  0  0  0  0  0
    3.9022    1.8025    0.0000 H   0  0  0  0  0  0  0  0  0  0  0  0
    0.7589    3.5472    0.0000 H   0  0  0  0  0  0  0  0  0  0  0  0
    1.7559    3.9355    0.0000 H   0  0  0  0  0  0  0  0  0  0  0  0
    3.1972    2.5080    0.0000 H   0  0  0  0  0  0  0  0  0  0  0  0
    3.3595    3.5656    0.0000 H   0  0  0  0  0  0  0  0  0  0  0  0
    3.9873    3.7061    0.0000 H   0  0  0  0  0  0  0  0  0  0  0  0
    3.2512   -2.6062    0.0000 H   0  0  0  0  0  0  0  0  0  0  0  0
    3.5458   -0.7764    0.0000 H   0  0  0  0  0  0  0  0  0  0  0  0
    3.9267   -1.7763    0.0000 H   0  0  0  0  0  0  0  0  0  0  0  0
    0.8608   -3.5139    0.0000 H   0  0  0  0  0  0  0  0  0  0  0  0
    2.6075   -4.1446    0.0000 H   0  0  0  0  0  0  0  0  0  0  0  0
    3.2146   -2.4633    0.0000 H   0  0  0  0  0  0  0  0  0  0  0  0
   -2.5856   -3.2831    0.0000 H   0  0  0  0  0  0  0  0  0  0  0  0
   -0.7497   -3.5363    0.0000 H   0  0  0  0  0  0  0  0  0  0  0  0
   -1.7408   -3.9397    0.0000 H   0  0  0  0  0  0  0  0  0  0  0  0
  1  2  1  0  0  0  0
  1 53  1  0  0  0  0
  1 54  1  0  0  0  0
  1 55  1  0  0  0  0
  2  3  1  0  0  0  0
  2 56  1  0  0  0  0
  2 57  1  0  0  0  0
  3  4  2  0  0  0  0
  3 23  1  0  0  0  0
  4  5  1  0  0  0  0
  4 52  1  0  0  0  0
  5  6  2  0  0  0  0
  5 24  1  0  0  0  0
  6  7  1  0  0  0  0
  6 58  1  0  0  0  0
  7  8  2  0  0  0  0
  7 11  1  0  0  0  0
  8  9  1  0  0  0  0
  8 50  1  0  0  0  0
  9 10  2  0  0  0  0
  9 49  1  0  0  0  0
 10 11  1  0  0  0  0
 10 12  1  0  0  0  0
 11 59  1  0  0  0  0
 12 13  2  0  0  0  0
 12 60  1  0  0  0  0
 13 14  1  0  0  0  0
 13 42  1  0  0  0  0
 14 15  2  0  0  0  0
 15 16  1  0  0  0  0
 15 41  1  0  0  0  0
 16 17  2  0  0  0  0
 16 29  1  0  0  0  0
 17 18  1  0  0  0  0
 17 21  1  0  0  0  0
 18 19  2  0  0  0  0
 18 26  1  0  0  0  0
 19 20  1  0  0  0  0
 19 25  1  0  0  0  0
 20 21  1  0  0  0  0
 20 22  2  0  0  0  0
 21 61  1  0  0  0  0
 22 23  1  0  0  0  0
 22 62  1  0  0  0  0
 23 24  2  0  0  0  0
 25 63  1  0  0  0  0
 25 64  1  0  0  0  0
 25 65  1  0  0  0  0
 26 27  2  0  0  0  0
 26 28  1  0  0  0  0
 28 66  1  0  0  0  0
 29 30  1  0  0  0  0
 29 67  1  0  0  0  0
 29 68  1  0  0  0  0
 30 31  2  0  0  0  0
 30 32  1  0  0  0  0
 32 69  1  0  0  0  0
 33 32  1  0  0  0  0
 33 34  1  0  0  0  0
 33 38  1  0  0  0  0
 33 70  1  1  0  0  0
 34 35  1  0  0  0  0
 34 71  1  0  0  0  0
 34 72  1  0  0  0  0
 35 36  2  0  0  0  0
 35 37  1  0  0  0  0
 37 73  1  0  0  0  0
 38 39  2  0  0  0  0
 38 40  1  0  0  0  0
 40 74  1  0  0  0  0
 41 42  1  0  0  0  0
 41 44  1  0  0  0  0
 41 75  1  6  0  0  0
 42 43  1  0  0  0  0
 42 76  1  1  0  0  0
 43 77  1  0  0  0  0
 43 78  1  0  0  0  0
 43 79  1  0  0  0  0
 44 45  1  0  0  0  0
 44 80  1  0  0  0  0
 44 81  1  0  0  0  0
 45 46  1  0  0  0  0
 45 82  1  0  0  0  0
 45 83  1  0  0  0  0
 46 47  2  0  0  0  0
 46 48  1  0  0  0  0
 48 84  1  0  0  0  0
 49 85  1  0  0  0  0
 49 86  1  0  0  0  0
 49 87  1  0  0  0  0
 50 51  2  0  0  0  0
 50 88  1  0  0  0  0
 51 89  1  0  0  0  0
 51 90  1  0  0  0  0
 52 91  1  0  0  0  0
 52 92  1  0  0  0  0
 52 93  1  0  0  0  0
M  END
>  <DRUGBANK_ID>
DB11812

>  <COMMON_NAME>
Talaporfin

>  <CAS_NUMBER>
110230-98-3

>  <UNII>
P4ROX5ELT2

>  <SYNONYMS>
Talaporfin

$$$$
