
 OpenBabel10282417072D

 21 21  0  0  0  0  0  0  0  0999 V2000
    1.2377   -0.3020    0.0000 S   0  0  0  0  0  0  0  0  0  0  0  0
    0.4124   -0.3020    0.0000 C   0  0  0  0  0  0  0  0  0  0  0  0
    0.0000    0.4124    0.0000 C   0  0  0  0  0  0  0  0  0  0  0  0
   -0.8251    0.4124    0.0000 C   0  0  0  0  0  0  0  0  0  0  0  0
    1.2377   -1.1271    0.0000 O   0  0  0  0  0  0  0  0  0  0  0  0
    2.0627   -0.3020    0.0000 O   0  0  0  0  0  0  0  0  0  0  0  0
   -1.2377   -0.3020    0.0000 C   0  0  0  0  0  0  0  0  0  0  0  0
    1.2377    0.5230    0.0000 O   0  0  0  0  0  0  0  0  0  0  0  0
    0.0039   -1.0018    0.0000 C   0  0  0  0  0  0  0  0  0  0  0  0
   -0.8211   -1.0018    0.0000 C   0  0  0  0  0  0  0  0  0  0  0  0
   -1.2377    1.1271    0.0000 O   0  0  0  0  0  0  0  0  0  0  0  0
   -2.0628   -0.3020    0.0000 O   0  0  0  0  0  0  0  0  0  0  0  0
   -2.0628    1.1271    0.0000 C   0  0  0  0  0  0  0  0  0  0  0  0
    0.5160    1.3061    0.0000 H   0  0  0  0  0  0  0  0  0  0  0  0
    2.5477   -1.1420    0.0000 H   0  0  0  0  0  0  0  0  0  0  0  0
    0.5178   -1.8968    0.0000 H   0  0  0  0  0  0  0  0  0  0  0  0
   -1.3311   -1.8990    0.0000 H   0  0  0  0  0  0  0  0  0  0  0  0
   -2.5313    0.5095    0.0000 H   0  0  0  0  0  0  0  0  0  0  0  0
   -2.5978    2.0537    0.0000 H   0  0  0  0  0  0  0  0  0  0  0  0
   -2.5978    0.2005    0.0000 H   0  0  0  0  0  0  0  0  0  0  0  0
   -3.1328    1.1271    0.0000 H   0  0  0  0  0  0  0  0  0  0  0  0
  2  1  1  0  0  0  0
  3  2  2  0  0  0  0
  3 14  1  0  0  0  0
  4  3  1  0  0  0  0
  5  1  2  0  0  0  0
  6  1  1  0  0  0  0
  6 15  1  0  0  0  0
  7 10  1  0  0  0  0
  7  4  2  0  0  0  0
  8  1  2  0  0  0  0
  9  2  1  0  0  0  0
  9 16  1  0  0  0  0
 10  9  2  0  0  0  0
 10 17  1  0  0  0  0
 11  4  1  0  0  0  0
 12  7  1  0  0  0  0
 12 18  1  0  0  0  0
 13 11  1  0  0  0  0
 13 19  1  0  0  0  0
 13 20  1  0  0  0  0
 13 21  1  0  0  0  0
M  END
>  <DRUGBANK_ID>
DB15992

>  <COMMON_NAME>
Sulfogaiacol

>  <CAS_NUMBER>
7134-11-4

>  <UNII>
6L00O0WHZR

>  <SYNONYMS>
4-Guaiacolsulfonic acid; Sulfogaiacol

$$$$
