
 OpenBabel10282417072D

 60 63  0  0  0  0  0  0  0  0999 V2000
    6.3443    0.4707    0.0000 O   0  0  0  0  0  0  0  0  0  0  0  0
    2.9449   -1.8662    0.0000 N   0  0  0  0  0  0  0  0  0  0  0  0
    6.9069    3.3516    0.0000 N   0  0  0  0  0  0  0  0  0  0  0  0
    4.3047   -0.9314    0.0000 C   0  0  0  0  0  0  0  0  0  0  0  0
    3.5599   -0.5764    0.0000 C   0  0  0  0  0  0  0  0  0  0  0  0
    4.3694   -1.7539    0.0000 C   0  0  0  0  0  0  0  0  0  0  0  0
    2.8801   -1.0437    0.0000 C   0  0  0  0  0  0  0  0  0  0  0  0
    3.6896   -2.2213    0.0000 C   0  0  0  0  0  0  0  0  0  0  0  0
    4.9845   -0.4641    0.0000 C   0  0  0  0  0  0  0  0  0  0  0  0
    4.9197    0.3584    0.0000 C   0  0  0  0  0  0  0  0  0  0  0  0
    2.2651   -2.3336    0.0000 C   0  0  0  0  0  0  0  0  0  0  0  0
    5.5995    0.8258    0.0000 C   0  0  0  0  0  0  0  0  0  0  0  0
    2.3299   -3.1560    0.0000 C   0  0  0  0  0  0  0  0  0  0  0  0
    5.5347    1.6482    0.0000 C   0  0  0  0  0  0  0  0  0  0  0  0
    5.4203    3.3516    0.0000 C   0  0  0  0  0  0  0  0  0  0  0  0
    5.2367    4.1559    0.0000 C   0  0  0  0  0  0  0  0  0  0  0  0
    6.1636    2.9936    0.0000 C   0  0  0  0  0  0  0  0  0  0  0  0
    5.7511    4.8009    0.0000 C   0  0  0  0  0  0  0  0  0  0  0  0
    6.5761    4.8009    0.0000 C   0  0  0  0  0  0  0  0  0  0  0  0
    6.2410    2.1378    0.0000 C   0  0  0  0  0  0  0  0  0  0  0  0
    7.0905    4.1559    0.0000 C   0  0  0  0  0  0  0  0  0  0  0  0
    4.7605    2.0211    0.0000 C   0  0  0  0  0  0  0  0  0  0  0  0
    3.0746   -3.5111    0.0000 C   0  0  0  0  0  0  0  0  0  0  0  0
    1.6500   -3.6234    0.0000 C   0  0  0  0  0  0  0  0  0  0  0  0
    4.7028    2.8785    0.0000 C   0  0  0  0  0  0  0  0  0  0  0  0
    3.1394   -4.3336    0.0000 C   0  0  0  0  0  0  0  0  0  0  0  0
    1.7149   -4.4458    0.0000 C   0  0  0  0  0  0  0  0  0  0  0  0
    2.4595   -4.8009    0.0000 C   0  0  0  0  0  0  0  0  0  0  0  0
    7.6766    2.7378    0.0000 H   0  0  0  0  0  0  0  0  0  0  0  0
    5.2705   -1.3920    0.0000 H   0  0  0  0  0  0  0  0  0  0  0  0
    3.4758    0.4903    0.0000 H   0  0  0  0  0  0  0  0  0  0  0  0
    2.5941   -0.1159    0.0000 H   0  0  0  0  0  0  0  0  0  0  0  0
    5.3352   -2.2145    0.0000 H   0  0  0  0  0  0  0  0  0  0  0  0
    4.4535   -2.8206    0.0000 H   0  0  0  0  0  0  0  0  0  0  0  0
    1.9143   -0.5831    0.0000 H   0  0  0  0  0  0  0  0  0  0  0  0
    2.7961    0.0230    0.0000 H   0  0  0  0  0  0  0  0  0  0  0  0
    3.7737   -3.2880    0.0000 H   0  0  0  0  0  0  0  0  0  0  0  0
    4.6554   -2.6818    0.0000 H   0  0  0  0  0  0  0  0  0  0  0  0
    5.9503   -0.9247    0.0000 H   0  0  0  0  0  0  0  0  0  0  0  0
    5.8663    0.1420    0.0000 H   0  0  0  0  0  0  0  0  0  0  0  0
    3.9539    0.8189    0.0000 H   0  0  0  0  0  0  0  0  0  0  0  0
    4.8356    1.4251    0.0000 H   0  0  0  0  0  0  0  0  0  0  0  0
    1.2993   -1.8731    0.0000 H   0  0  0  0  0  0  0  0  0  0  0  0
    1.3834   -2.9398    0.0000 H   0  0  0  0  0  0  0  0  0  0  0  0
    4.1935    4.3940    0.0000 H   0  0  0  0  0  0  0  0  0  0  0  0
    4.8833    5.1659    0.0000 H   0  0  0  0  0  0  0  0  0  0  0  0
    5.2869    5.7649    0.0000 H   0  0  0  0  0  0  0  0  0  0  0  0
    6.3204    5.7069    0.0000 H   0  0  0  0  0  0  0  0  0  0  0  0
    7.0403    5.7649    0.0000 H   0  0  0  0  0  0  0  0  0  0  0  0
    7.6394    4.9207    0.0000 H   0  0  0  0  0  0  0  0  0  0  0  0
    7.1759    1.7008    0.0000 H   0  0  0  0  0  0  0  0  0  0  0  0
    8.1337    4.3940    0.0000 H   0  0  0  0  0  0  0  0  0  0  0  0
    7.4439    5.1659    0.0000 H   0  0  0  0  0  0  0  0  0  0  0  0
    3.9056    1.4430    0.0000 H   0  0  0  0  0  0  0  0  0  0  0  0
    3.9250   -2.9265    0.0000 H   0  0  0  0  0  0  0  0  0  0  0  0
    0.7185   -3.1793    0.0000 H   0  0  0  0  0  0  0  0  0  0  0  0
    3.7782    3.3370    0.0000 H   0  0  0  0  0  0  0  0  0  0  0  0
    4.0709   -4.7778    0.0000 H   0  0  0  0  0  0  0  0  0  0  0  0
    0.8645   -5.0304    0.0000 H   0  0  0  0  0  0  0  0  0  0  0  0
    2.5405   -5.8297    0.0000 H   0  0  0  0  0  0  0  0  0  0  0  0
  1 12  2  0  0  0  0
  2  7  1  0  0  0  0
  2  8  1  0  0  0  0
  2 11  1  0  0  0  0
  3 17  1  0  0  0  0
  3 21  1  0  0  0  0
  3 29  1  0  0  0  0
  4  5  1  0  0  0  0
  4  6  1  0  0  0  0
  4  9  1  0  0  0  0
  4 30  1  0  0  0  0
  5  7  1  0  0  0  0
  5 31  1  0  0  0  0
  5 32  1  0  0  0  0
  6  8  1  0  0  0  0
  6 33  1  0  0  0  0
  6 34  1  0  0  0  0
  7 35  1  0  0  0  0
  7 36  1  0  0  0  0
  8 37  1  0  0  0  0
  8 38  1  0  0  0  0
  9 10  1  0  0  0  0
  9 39  1  0  0  0  0
  9 40  1  0  0  0  0
 10 12  1  0  0  0  0
 10 41  1  0  0  0  0
 10 42  1  0  0  0  0
 11 13  1  0  0  0  0
 11 43  1  0  0  0  0
 11 44  1  0  0  0  0
 12 14  1  0  0  0  0
 13 23  2  0  0  0  0
 13 24  1  0  0  0  0
 14 20  2  0  0  0  0
 14 22  1  0  0  0  0
 15 16  1  0  0  0  0
 15 17  2  0  0  0  0
 15 25  1  0  0  0  0
 16 18  1  0  0  0  0
 16 45  1  0  0  0  0
 16 46  1  0  0  0  0
 17 20  1  0  0  0  0
 18 19  1  0  0  0  0
 18 47  1  0  0  0  0
 18 48  1  0  0  0  0
 19 21  1  0  0  0  0
 19 49  1  0  0  0  0
 19 50  1  0  0  0  0
 20 51  1  0  0  0  0
 21 52  1  0  0  0  0
 21 53  1  0  0  0  0
 22 25  2  0  0  0  0
 22 54  1  0  0  0  0
 23 26  1  0  0  0  0
 23 55  1  0  0  0  0
 24 27  2  0  0  0  0
 24 56  1  0  0  0  0
 25 57  1  0  0  0  0
 26 28  2  0  0  0  0
 26 58  1  0  0  0  0
 27 28  1  0  0  0  0
 27 59  1  0  0  0  0
 28 60  1  0  0  0  0
M  END
>  <DRUGBANK_ID>
DB04859

>  <COMMON_NAME>
Zanapezil

>  <CAS_NUMBER>
142852-50-4

>  <UNII>
0A0800O89N

>  <SYNONYMS>
Zanapezil; Zanepezil

$$$$
