349
 OpenBabel10282417072D

 34 36  0  0  0  0  0  0  0  0999 V2000
    2.8172   -2.3593    0.0000 Cl  0  0  0  0  0  0  0  0  0  0  0  0
    5.1124    1.1545    0.0000 O   0  0  0  0  0  0  0  0  0  0  0  0
    2.6107    2.3593    0.0000 O   0  0  0  0  0  0  0  0  0  0  0  0
    4.1245    0.1666    0.0000 N   0  0  0  0  0  0  0  0  0  0  0  0
    2.4543    0.9709    0.0000 N   0  0  0  0  0  0  0  0  0  0  0  0
    3.3812   -0.1914    0.0000 C   0  0  0  0  0  0  0  0  0  0  0  0
    2.6379    0.1666    0.0000 C   0  0  0  0  0  0  0  0  0  0  0  0
    3.7937    1.6159    0.0000 C   0  0  0  0  0  0  0  0  0  0  0  0
    4.3081    0.9709    0.0000 C   0  0  0  0  0  0  0  0  0  0  0  0
    2.9687    1.6159    0.0000 C   0  0  0  0  0  0  0  0  0  0  0  0
    4.7695   -0.3478    0.0000 C   0  0  0  0  0  0  0  0  0  0  0  0
    3.4586   -1.0473    0.0000 C   0  0  0  0  0  0  0  0  0  0  0  0
    1.9205   -0.3065    0.0000 C   0  0  0  0  0  0  0  0  0  0  0  0
    1.6500    1.1545    0.0000 C   0  0  0  0  0  0  0  0  0  0  0  0
    2.7524   -1.5367    0.0000 C   0  0  0  0  0  0  0  0  0  0  0  0
    1.9781   -1.1639    0.0000 C   0  0  0  0  0  0  0  0  0  0  0  0
    5.5375   -0.0464    0.0000 C   0  0  0  0  0  0  0  0  0  0  0  0
    4.6466   -1.1636    0.0000 C   0  0  0  0  0  0  0  0  0  0  0  0
    6.1825   -0.5608    0.0000 C   0  0  0  0  0  0  0  0  0  0  0  0
    5.2915   -1.6780    0.0000 C   0  0  0  0  0  0  0  0  0  0  0  0
    6.0595   -1.3765    0.0000 C   0  0  0  0  0  0  0  0  0  0  0  0
    4.2579    2.5799    0.0000 H   0  0  0  0  0  0  0  0  0  0  0  0
    3.2244    2.5219    0.0000 H   0  0  0  0  0  0  0  0  0  0  0  0
    4.3935   -1.4843    0.0000 H   0  0  0  0  0  0  0  0  0  0  0  0
    0.9959    0.1520    0.0000 H   0  0  0  0  0  0  0  0  0  0  0  0
    1.3346    2.1770    0.0000 H   0  0  0  0  0  0  0  0  0  0  0  0
    0.9222    0.3702    0.0000 H   0  0  0  0  0  0  0  0  0  0  0  0
    0.6068    1.3926    0.0000 H   0  0  0  0  0  0  0  0  0  0  0  0
    1.1232   -1.7420    0.0000 H   0  0  0  0  0  0  0  0  0  0  0  0
    5.6913    0.9741    0.0000 H   0  0  0  0  0  0  0  0  0  0  0  0
    3.6859   -1.5406    0.0000 H   0  0  0  0  0  0  0  0  0  0  0  0
    7.1432   -0.1838    0.0000 H   0  0  0  0  0  0  0  0  0  0  0  0
    5.1377   -2.6985    0.0000 H   0  0  0  0  0  0  0  0  0  0  0  0
    6.8664   -2.0199    0.0000 H   0  0  0  0  0  0  0  0  0  0  0  0
  1 15  1  0  0  0  0
  2  9  2  0  0  0  0
  3 10  2  0  0  0  0
  4  6  1  0  0  0  0
  4  9  1  0  0  0  0
  4 11  1  0  0  0  0
  5  7  1  0  0  0  0
  5 10  1  0  0  0  0
  5 14  1  0  0  0  0
  6  7  2  0  0  0  0
  6 12  1  0  0  0  0
  7 13  1  0  0  0  0
  8  9  1  0  0  0  0
  8 10  1  0  0  0  0
  8 22  1  0  0  0  0
  8 23  1  0  0  0  0
 11 17  2  0  0  0  0
 11 18  1  0  0  0  0
 12 15  2  0  0  0  0
 12 24  1  0  0  0  0
 13 16  2  0  0  0  0
 13 25  1  0  0  0  0
 14 26  1  0  0  0  0
 14 27  1  0  0  0  0
 14 28  1  0  0  0  0
 15 16  1  0  0  0  0
 16 29  1  0  0  0  0
 17 19  1  0  0  0  0
 17 30  1  0  0  0  0
 18 20  2  0  0  0  0
 18 31  1  0  0  0  0
 19 21  2  0  0  0  0
 19 32  1  0  0  0  0
 20 21  1  0  0  0  0
 20 33  1  0  0  0  0
 21 34  1  0  0  0  0
M  END
>  <DRUGBANK_ID>
DB00349

>  <SECONDARY_ACCESSION_NUMBERS>
APRD00307

>  <COMMON_NAME>
Clobazam

>  <CAS_NUMBER>
22316-47-8

>  <UNII>
2MRO291B4U

>  <SYNONYMS>
1-phenyl-5-methyl-8-chloro-1,2,4,5-tetrahydro-2,4-dioxo-3H-1,5-benzodiazepine; 7-Chloro-1-methyl-5-phenyl-1,5-dihydro-benzo[b][1,4]diazepine-2,4-dione; Clobazam; Clobazamum

$$$$
