
 OpenBabel10282417072D

 21 22  0  0  0  0  0  0  0  0999 V2000
   15.0250   -4.1869    0.0000 C   0  0  0  0  0  0  0  0  0  0  0  0
   15.0250   -3.3274    0.0000 C   0  0  0  0  0  0  0  0  0  0  0  0
   14.2780   -4.6098    0.0000 C   0  0  0  0  0  0  0  0  0  0  0  0
   14.2780   -2.9045    0.0000 C   0  0  0  0  0  0  0  0  0  0  0  0
   13.5407   -4.1691    0.0000 C   0  0  0  0  0  0  0  0  0  0  0  0
   13.5407   -3.3452    0.0000 C   0  0  0  0  0  0  0  0  0  0  0  0
   12.1127   -4.1691    0.0000 C   0  0  0  0  0  0  0  0  0  0  0  0
   12.8267   -4.5810    0.0000 C   0  0  0  0  0  0  0  0  0  0  0  0
   12.1127   -3.3452    0.0000 C   0  0  0  0  0  0  0  0  0  0  0  0
   12.8267   -2.9319    0.0000 N   0  0  0  0  0  0  0  0  0  0  0  0
   12.8267   -5.4062    0.0000 O   0  0  0  0  0  0  0  0  0  0  0  0
   11.3987   -2.9319    0.0000 C   0  0  0  0  0  0  0  0  0  0  0  0
   10.6847   -3.3452    0.0000 O   0  0  0  0  0  0  0  0  0  0  0  0
   11.3987   -2.1081    0.0000 O   0  0  0  0  0  0  0  0  0  0  0  0
   15.9165   -4.7067    0.0000 H   0  0  0  0  0  0  0  0  0  0  0  0
   15.9165   -2.8076    0.0000 H   0  0  0  0  0  0  0  0  0  0  0  0
   14.2658   -5.6417    0.0000 H   0  0  0  0  0  0  0  0  0  0  0  0
   14.2658   -1.8726    0.0000 H   0  0  0  0  0  0  0  0  0  0  0  0
   11.2191   -4.6853    0.0000 H   0  0  0  0  0  0  0  0  0  0  0  0
   12.8267   -1.9474    0.0000 H   0  0  0  0  0  0  0  0  0  0  0  0
    9.8727   -2.8776    0.0000 H   0  0  0  0  0  0  0  0  0  0  0  0
  1  3  1  0  0  0  0
  1 15  1  0  0  0  0
  2  1  2  0  0  0  0
  2  4  1  0  0  0  0
  2 16  1  0  0  0  0
  3  5  2  0  0  0  0
  3 17  1  0  0  0  0
  4 18  1  0  0  0  0
  5  6  1  0  0  0  0
  5  8  1  0  0  0  0
  6  4  2  0  0  0  0
  6 10  1  0  0  0  0
  7  9  2  0  0  0  0
  7 19  1  0  0  0  0
  8  7  1  0  0  0  0
  8 11  2  0  0  0  0
  9 12  1  0  0  0  0
  9 10  1  0  0  0  0
 10 20  1  0  0  0  0
 12 13  1  0  0  0  0
 12 14  2  0  0  0  0
 13 21  1  0  0  0  0
M  END
>  <DRUGBANK_ID>
DB11937

>  <COMMON_NAME>
Kynurenic Acid

>  <CAS_NUMBER>
492-27-3

>  <UNII>
H030S2S85J

$$$$
