
 OpenBabel10282417072D

 26 26  0  0  0  0  0  0  0  0999 V2000
   -2.8579   -1.6500    0.0000 N   0  0  0  0  0  0  0  0  0  0  0  0
   -2.1434   -2.0625    0.0000 C   0  0  0  0  0  0  0  0  0  0  0  0
   -1.4289   -1.6500    0.0000 C   0  0  0  0  0  0  0  0  0  0  0  0
   -0.7145   -2.0625    0.0000 C   0  0  0  0  0  0  0  0  0  0  0  0
    0.0000   -1.6500    0.0000 C   0  0  0  0  0  0  0  0  0  0  0  0
    0.7145   -2.0625    0.0000 C   0  0  0  0  0  0  0  0  0  0  0  0
    1.4289   -1.6500    0.0000 C   0  0  0  0  0  0  0  0  0  0  0  0
    2.1434   -2.0625    0.0000 C   0  0  0  0  0  0  0  0  0  0  0  0
    2.1434   -2.8875    0.0000 C   0  0  0  0  0  0  0  0  0  0  0  0
    1.4289   -3.3000    0.0000 C   0  0  0  0  0  0  0  0  0  0  0  0
    0.7145   -2.8875    0.0000 C   0  0  0  0  0  0  0  0  0  0  0  0
   -2.8579   -0.6300    0.0000 H   0  0  0  0  0  0  0  0  0  0  0  0
   -3.7412   -2.1600    0.0000 H   0  0  0  0  0  0  0  0  0  0  0  0
   -2.1434   -3.1325    0.0000 H   0  0  0  0  0  0  0  0  0  0  0  0
   -1.2168   -2.5975    0.0000 H   0  0  0  0  0  0  0  0  0  0  0  0
   -1.4289   -0.5800    0.0000 H   0  0  0  0  0  0  0  0  0  0  0  0
   -0.5022   -1.1150    0.0000 H   0  0  0  0  0  0  0  0  0  0  0  0
   -0.7145   -3.1325    0.0000 H   0  0  0  0  0  0  0  0  0  0  0  0
    0.2121   -2.5975    0.0000 H   0  0  0  0  0  0  0  0  0  0  0  0
    0.0000   -0.5800    0.0000 H   0  0  0  0  0  0  0  0  0  0  0  0
    0.9266   -1.1150    0.0000 H   0  0  0  0  0  0  0  0  0  0  0  0
    1.4289   -0.6180    0.0000 H   0  0  0  0  0  0  0  0  0  0  0  0
    3.0371   -1.5465    0.0000 H   0  0  0  0  0  0  0  0  0  0  0  0
    3.0371   -3.4035    0.0000 H   0  0  0  0  0  0  0  0  0  0  0  0
    1.4289   -4.3320    0.0000 H   0  0  0  0  0  0  0  0  0  0  0  0
   -0.1792   -3.4035    0.0000 H   0  0  0  0  0  0  0  0  0  0  0  0
  1  2  1  0  0  0  0
  1 12  1  0  0  0  0
  1 13  1  0  0  0  0
  2  3  1  0  0  0  0
  2 14  1  0  0  0  0
  2 15  1  0  0  0  0
  3  4  1  0  0  0  0
  3 16  1  0  0  0  0
  3 17  1  0  0  0  0
  4  5  1  0  0  0  0
  4 18  1  0  0  0  0
  4 19  1  0  0  0  0
  5  6  1  0  0  0  0
  5 20  1  0  0  0  0
  5 21  1  0  0  0  0
  6  7  2  0  0  0  0
  6 11  1  0  0  0  0
  7  8  1  0  0  0  0
  7 22  1  0  0  0  0
  8  9  2  0  0  0  0
  8 23  1  0  0  0  0
  9 10  1  0  0  0  0
  9 24  1  0  0  0  0
 10 11  2  0  0  0  0
 10 25  1  0  0  0  0
 11 26  1  0  0  0  0
M  END
>  <DRUGBANK_ID>
DB04311

>  <SECONDARY_ACCESSION_NUMBERS>
EXPT02510

>  <COMMON_NAME>
4-Phenylbutylamine

>  <UNII>
UG8K2LT79Y

$$$$
