
 OpenBabel10282417072D

 71 77  0  0  0  0  0  0  0  0999 V2000
    1.7120   -1.5762    0.0000 C   0  0  0  0  0  0  0  0  0  0  0  0
    2.2805   -0.9784    0.0000 N   0  0  0  0  0  0  0  0  0  0  0  0
    2.0470   -0.1871    0.0000 C   0  0  0  0  0  0  0  0  0  0  0  0
    2.6155    0.4108    0.0000 C   0  0  0  0  0  0  0  0  0  0  0  0
    3.4175    0.2173    0.0000 C   0  0  0  0  0  0  0  0  0  0  0  0
    3.2680    1.0287    0.0000 C   0  0  0  0  0  0  0  0  0  0  0  0
    3.9934    1.4216    0.0000 O   0  0  0  0  0  0  0  0  0  0  0  0
    4.5913    0.8531    0.0000 C   0  0  0  0  0  0  0  0  0  0  0  0
    5.4138    0.9170    0.0000 C   0  0  0  0  0  0  0  0  0  0  0  0
    5.8804    0.2366    0.0000 C   0  0  0  0  0  0  0  0  0  0  0  0
    5.5245   -0.5077    0.0000 C   0  0  0  0  0  0  0  0  0  0  0  0
    4.7019   -0.5716    0.0000 C   0  0  0  0  0  0  0  0  0  0  0  0
    4.2353    0.1088    0.0000 C   0  0  0  0  0  0  0  0  0  0  0  0
    6.1223   -1.0762    0.0000 N   0  0  0  0  0  0  0  0  0  0  0  0
    6.8477   -0.6833    0.0000 C   0  0  0  0  0  0  0  0  0  0  0  0
    6.6982    0.1281    0.0000 C   0  0  0  0  0  0  0  0  0  0  0  0
    6.0138   -1.8940    0.0000 C   0  0  0  0  0  0  0  0  0  0  0  0
    6.6678   -2.3969    0.0000 O   0  0  0  0  0  0  0  0  0  0  0  0
    5.2513   -2.2090    0.0000 C   0  0  0  0  0  0  0  0  0  0  0  0
    5.1427   -3.0268    0.0000 C   0  0  0  0  0  0  0  0  0  0  0  0
    4.3802   -3.3417    0.0000 C   0  0  0  0  0  0  0  0  0  0  0  0
    3.7262   -2.8388    0.0000 C   0  0  0  0  0  0  0  0  0  0  0  0
    3.8347   -2.0210    0.0000 C   0  0  0  0  0  0  0  0  0  0  0  0
    4.5973   -1.7061    0.0000 C   0  0  0  0  0  0  0  0  0  0  0  0
    2.9637   -3.1537    0.0000 C   0  0  0  0  0  0  0  0  0  0  0  0
    2.8552   -3.9716    0.0000 C   0  0  0  0  0  0  0  0  0  0  0  0
    3.5091   -4.4745    0.0000 C   0  0  0  0  0  0  0  0  0  0  0  0
    2.0926   -4.2865    0.0000 C   0  0  0  0  0  0  0  0  0  0  0  0
    1.4386   -3.7836    0.0000 C   0  0  0  0  0  0  0  0  0  0  0  0
    1.5472   -2.9658    0.0000 C   0  0  0  0  0  0  0  0  0  0  0  0
    2.3097   -2.6508    0.0000 C   0  0  0  0  0  0  0  0  0  0  0  0
    0.6761   -4.0985    0.0000 C   0  0  0  0  0  0  0  0  0  0  0  0
    0.4827   -4.9005    0.0000 N   0  0  0  0  0  0  0  0  0  0  0  0
   -0.3398   -4.9644    0.0000 O   0  0  0  0  0  0  0  0  0  0  0  0
   -0.6548   -4.2019    0.0000 C   0  0  0  0  0  0  0  0  0  0  0  0
   -1.4568   -4.0085    0.0000 C   0  0  0  0  0  0  0  0  0  0  0  0
   -0.0269   -3.6667    0.0000 N   0  0  0  0  0  0  0  0  0  0  0  0
    3.6510   -0.5739    0.0000 C   0  0  0  0  0  0  0  0  0  0  0  0
    3.0825   -1.1718    0.0000 C   0  0  0  0  0  0  0  0  0  0  0  0
    0.6718   -1.3253    0.0000 H   0  0  0  0  0  0  0  0  0  0  0  0
    2.0148   -2.6025    0.0000 H   0  0  0  0  0  0  0  0  0  0  0  0
    0.9746   -2.3516    0.0000 H   0  0  0  0  0  0  0  0  0  0  0  0
    1.0068    0.0637    0.0000 H   0  0  0  0  0  0  0  0  0  0  0  0
    1.7441    0.8391    0.0000 H   0  0  0  0  0  0  0  0  0  0  0  0
    2.3127    1.4371    0.0000 H   0  0  0  0  0  0  0  0  0  0  0  0
    3.3529    1.1861    0.0000 H   0  0  0  0  0  0  0  0  0  0  0  0
    2.3027    1.4903    0.0000 H   0  0  0  0  0  0  0  0  0  0  0  0
    3.2411    2.0984    0.0000 H   0  0  0  0  0  0  0  0  0  0  0  0
    5.8590    1.8480    0.0000 H   0  0  0  0  0  0  0  0  0  0  0  0
    4.2567   -1.5026    0.0000 H   0  0  0  0  0  0  0  0  0  0  0  0
    7.8130   -1.1449    0.0000 H   0  0  0  0  0  0  0  0  0  0  0  0
    7.6973   -0.0328    0.0000 H   0  0  0  0  0  0  0  0  0  0  0  0
    7.4355    0.9035    0.0000 H   0  0  0  0  0  0  0  0  0  0  0  0
    6.3421    1.1371    0.0000 H   0  0  0  0  0  0  0  0  0  0  0  0
    5.9608   -3.6559    0.0000 H   0  0  0  0  0  0  0  0  0  0  0  0
    4.2444   -4.3647    0.0000 H   0  0  0  0  0  0  0  0  0  0  0  0
    3.0166   -1.3919    0.0000 H   0  0  0  0  0  0  0  0  0  0  0  0
    4.7331   -0.6831    0.0000 H   0  0  0  0  0  0  0  0  0  0  0  0
    3.3683   -5.5352    0.0000 H   0  0  0  0  0  0  0  0  0  0  0  0
    4.4981   -4.0661    0.0000 H   0  0  0  0  0  0  0  0  0  0  0  0
    4.3573   -5.1268    0.0000 H   0  0  0  0  0  0  0  0  0  0  0  0
    1.9568   -5.3095    0.0000 H   0  0  0  0  0  0  0  0  0  0  0  0
    0.7291   -2.3367    0.0000 H   0  0  0  0  0  0  0  0  0  0  0  0
    2.4454   -1.6278    0.0000 H   0  0  0  0  0  0  0  0  0  0  0  0
   -1.7597   -2.9823    0.0000 H   0  0  0  0  0  0  0  0  0  0  0  0
   -2.1941   -4.7839    0.0000 H   0  0  0  0  0  0  0  0  0  0  0  0
   -2.4970   -3.7577    0.0000 H   0  0  0  0  0  0  0  0  0  0  0  0
    4.6912   -0.8247    0.0000 H   0  0  0  0  0  0  0  0  0  0  0  0
    3.9539   -1.6001    0.0000 H   0  0  0  0  0  0  0  0  0  0  0  0
    3.3854   -2.1980    0.0000 H   0  0  0  0  0  0  0  0  0  0  0  0
    2.3452   -1.9472    0.0000 H   0  0  0  0  0  0  0  0  0  0  0  0
  1  2  1  0  0  0  0
  1 40  1  0  0  0  0
  1 41  1  0  0  0  0
  1 42  1  0  0  0  0
  2  3  1  0  0  0  0
  2 39  1  0  0  0  0
  3  4  1  0  0  0  0
  3 43  1  0  0  0  0
  3 44  1  0  0  0  0
  4  5  1  0  0  0  0
  4 45  1  0  0  0  0
  4 46  1  0  0  0  0
  5  6  1  0  0  0  0
  5 13  1  0  0  0  0
  5 38  1  0  0  0  0
  6  7  1  0  0  0  0
  6 47  1  0  0  0  0
  6 48  1  0  0  0  0
  7  8  1  0  0  0  0
  8  9  2  0  0  0  0
  8 13  1  0  0  0  0
  9 10  1  0  0  0  0
  9 49  1  0  0  0  0
 10 11  2  0  0  0  0
 10 16  1  0  0  0  0
 11 12  1  0  0  0  0
 11 14  1  0  0  0  0
 12 13  2  0  0  0  0
 12 50  1  0  0  0  0
 14 15  1  0  0  0  0
 14 17  1  0  0  0  0
 15 16  1  0  0  0  0
 15 51  1  0  0  0  0
 15 52  1  0  0  0  0
 16 53  1  0  0  0  0
 16 54  1  0  0  0  0
 17 18  2  0  0  0  0
 17 19  1  0  0  0  0
 19 20  2  0  0  0  0
 19 24  1  0  0  0  0
 20 21  1  0  0  0  0
 20 55  1  0  0  0  0
 21 22  2  0  0  0  0
 21 56  1  0  0  0  0
 22 23  1  0  0  0  0
 22 25  1  0  0  0  0
 23 24  2  0  0  0  0
 23 57  1  0  0  0  0
 24 58  1  0  0  0  0
 25 26  2  0  0  0  0
 25 31  1  0  0  0  0
 26 27  1  0  0  0  0
 26 28  1  0  0  0  0
 27 59  1  0  0  0  0
 27 60  1  0  0  0  0
 27 61  1  0  0  0  0
 28 29  2  0  0  0  0
 28 62  1  0  0  0  0
 29 30  1  0  0  0  0
 29 32  1  0  0  0  0
 30 31  2  0  0  0  0
 30 63  1  0  0  0  0
 31 64  1  0  0  0  0
 32 33  2  0  0  0  0
 32 37  1  0  0  0  0
 33 34  1  0  0  0  0
 34 35  1  0  0  0  0
 35 36  1  0  0  0  0
 35 37  2  0  0  0  0
 36 65  1  0  0  0  0
 36 66  1  0  0  0  0
 36 67  1  0  0  0  0
 38 39  1  0  0  0  0
 38 68  1  0  0  0  0
 38 69  1  0  0  0  0
 39 70  1  0  0  0  0
 39 71  1  0  0  0  0
M  END
>  <DRUGBANK_ID>
DB17052

>  <COMMON_NAME>
SB 224289

>  <CAS_NUMBER>
180083-23-2

>  <UNII>
F95C648W4N

>  <SYNONYMS>
(1'-methyl-6,7-dihydro-5h-spiro(furo(2,3-f)indole-3,4'-piperidin)-5-yl)(2'-methyl-4'-(5-methyl-1,2,4-oxadiazol-3-yl)biphenyl-4-yl)methanone; (2'-methyl-4'-(5-methyl-1,2,4-oxadiazol-3-yl)-(1,1'-biphenyl)-4-yl)(1'-methyl-6,7-dihydrospiro(furo(2,3-f)indole-3,4'-piperidin)-5(2h)-yl)methanone; (4-(2-methyl-4-(5-methyl-1,2,4-oxadiazol-3-yl)phenyl)phenyl)-(1'-methylspiro(6,7-dihydro-2h-furo(2,3-f)indole-3,4'-piperidine)-5-yl)methanone; 6,7-dihydro-1'-methyl-5-((2'-methyl-4'-(5-methyl-1,2,4-oxadiazol-3-yl)-1,1'-biphenyl-4-yl)carbonyl)spiro(2h-furo(2,3-f)indole-3(5h),4'-piperidine); Methanone, (2'-methyl-4'-(5-methyl-1,2,4-oxadiazol-3-yl)(1,1'-biphenyl)-4-yl)(2,5,6,7-tetrahydro-1'-methylspiro(3h-furo(2,3-f)indole-3,4'-piperidin)-5-yl)-; Spiro(2h-furo(2,3-f)indole-3(5h),4'-piperidine), 6,7-dihydro-1'-methyl-5-((2'-methyl-4'-(5-methyl-1,2,4-oxadiazol-3-yl)(1,1'-biphenyl)-4-yl)carbonyl)-

$$$$
