706
 OpenBabel10282417072D

 56 57  0  0  1  0  0  0  0  0999 V2000
    3.7935    3.7910    0.0000 S   0  0  0  0  0  0  0  0  0  0  0  0
    6.6515   -1.9842    0.0000 O   0  0  0  0  0  0  0  0  0  0  0  0
    2.3645    2.9659    0.0000 O   0  0  0  0  0  0  0  0  0  0  0  0
    2.9685    3.7910    0.0000 O   0  0  0  0  0  0  0  0  0  0  0  0
    4.6185    3.7910    0.0000 O   0  0  0  0  0  0  0  0  0  0  0  0
    6.6515   -3.6342    0.0000 O   0  0  0  0  0  0  0  0  0  0  0  0
    5.9370    0.0784    0.0000 N   0  0  0  0  0  0  0  0  0  0  0  0
    3.7935    4.6160    0.0000 N   0  0  0  0  0  0  0  0  0  0  0  0
    5.2224    0.4909    0.0000 C   0  0  1  0  0  0  0  0  0  0  0  0
    5.2224    1.3159    0.0000 C   0  0  0  0  0  0  0  0  0  0  0  0
    4.5080    1.7284    0.0000 C   0  0  0  0  0  0  0  0  0  0  0  0
    4.5080    0.0784    0.0000 C   0  0  0  0  0  0  0  0  0  0  0  0
    5.9370   -0.7466    0.0000 C   0  0  0  0  0  0  0  0  0  0  0  0
    4.5080    2.5534    0.0000 C   0  0  0  0  0  0  0  0  0  0  0  0
    3.7935    2.9659    0.0000 C   0  0  0  0  0  0  0  0  0  0  0  0
    3.7935    1.3159    0.0000 C   0  0  0  0  0  0  0  0  0  0  0  0
    6.6515   -1.1592    0.0000 C   0  0  0  0  0  0  0  0  0  0  0  0
    3.0791    2.5534    0.0000 C   0  0  0  0  0  0  0  0  0  0  0  0
    3.0791    1.7284    0.0000 C   0  0  0  0  0  0  0  0  0  0  0  0
    7.3659   -2.3967    0.0000 C   0  0  0  0  0  0  0  0  0  0  0  0
    7.3659   -3.2217    0.0000 C   0  0  0  0  0  0  0  0  0  0  0  0
    8.0804   -1.9842    0.0000 C   0  0  0  0  0  0  0  0  0  0  0  0
    1.6500    2.5534    0.0000 C   0  0  0  0  0  0  0  0  0  0  0  0
    8.0804   -3.6342    0.0000 C   0  0  0  0  0  0  0  0  0  0  0  0
    8.7949   -2.3967    0.0000 C   0  0  0  0  0  0  0  0  0  0  0  0
    8.7949   -3.2217    0.0000 C   0  0  0  0  0  0  0  0  0  0  0  0
    6.6515   -4.4592    0.0000 C   0  0  0  0  0  0  0  0  0  0  0  0
    5.9370   -4.8717    0.0000 C   0  0  0  0  0  0  0  0  0  0  0  0
    6.8203    0.5884    0.0000 H   0  0  0  0  0  0  0  0  0  0  0  0
    4.6768    5.1260    0.0000 H   0  0  0  0  0  0  0  0  0  0  0  0
    2.9102    5.1260    0.0000 H   0  0  0  0  0  0  0  0  0  0  0  0
    6.1490    1.0259    0.0000 H   0  0  0  0  0  0  0  0  0  0  0  0
    6.1491    1.8509    0.0000 H   0  0  0  0  0  0  0  0  0  0  0  0
    5.2224    2.3859    0.0000 H   0  0  0  0  0  0  0  0  0  0  0  0
    3.5813    0.6134    0.0000 H   0  0  0  0  0  0  0  0  0  0  0  0
    4.5080   -0.9916    0.0000 H   0  0  0  0  0  0  0  0  0  0  0  0
    3.5814   -0.4566    0.0000 H   0  0  0  0  0  0  0  0  0  0  0  0
    5.0103   -1.2816    0.0000 H   0  0  0  0  0  0  0  0  0  0  0  0
    5.9369   -1.8166    0.0000 H   0  0  0  0  0  0  0  0  0  0  0  0
    5.4017    3.0694    0.0000 H   0  0  0  0  0  0  0  0  0  0  0  0
    3.7935    0.2839    0.0000 H   0  0  0  0  0  0  0  0  0  0  0  0
    7.5782   -0.6242    0.0000 H   0  0  0  0  0  0  0  0  0  0  0  0
    6.6516   -0.0892    0.0000 H   0  0  0  0  0  0  0  0  0  0  0  0
    2.1854    1.2124    0.0000 H   0  0  0  0  0  0  0  0  0  0  0  0
    8.0804   -0.9522    0.0000 H   0  0  0  0  0  0  0  0  0  0  0  0
    0.7234    3.0884    0.0000 H   0  0  0  0  0  0  0  0  0  0  0  0
    1.6500    1.4834    0.0000 H   0  0  0  0  0  0  0  0  0  0  0  0
    0.7233    2.0184    0.0000 H   0  0  0  0  0  0  0  0  0  0  0  0
    8.0804   -4.6662    0.0000 H   0  0  0  0  0  0  0  0  0  0  0  0
    9.6886   -1.8807    0.0000 H   0  0  0  0  0  0  0  0  0  0  0  0
    9.6886   -3.7377    0.0000 H   0  0  0  0  0  0  0  0  0  0  0  0
    7.5781   -4.9942    0.0000 H   0  0  0  0  0  0  0  0  0  0  0  0
    6.6515   -5.5292    0.0000 H   0  0  0  0  0  0  0  0  0  0  0  0
    5.0104   -4.3367    0.0000 H   0  0  0  0  0  0  0  0  0  0  0  0
    5.9370   -5.9417    0.0000 H   0  0  0  0  0  0  0  0  0  0  0  0
    5.0103   -5.4067    0.0000 H   0  0  0  0  0  0  0  0  0  0  0  0
  1  4  2  0  0  0  0
  1  5  2  0  0  0  0
  1  8  1  0  0  0  0
  1 15  1  0  0  0  0
  2 17  1  0  0  0  0
  2 20  1  0  0  0  0
  3 18  1  0  0  0  0
  3 23  1  0  0  0  0
  6 21  1  0  0  0  0
  6 27  1  0  0  0  0
  7 13  1  0  0  0  0
  7 29  1  0  0  0  0
  8 30  1  0  0  0  0
  8 31  1  0  0  0  0
  9  7  1  0  0  0  0
  9 10  1  0  0  0  0
  9 12  1  0  0  0  0
  9 32  1  1  0  0  0
 10 11  1  0  0  0  0
 10 33  1  0  0  0  0
 10 34  1  0  0  0  0
 11 14  2  0  0  0  0
 11 16  1  0  0  0  0
 12 35  1  0  0  0  0
 12 36  1  0  0  0  0
 12 37  1  0  0  0  0
 13 17  1  0  0  0  0
 13 38  1  0  0  0  0
 13 39  1  0  0  0  0
 14 15  1  0  0  0  0
 14 40  1  0  0  0  0
 15 18  2  0  0  0  0
 16 19  2  0  0  0  0
 16 41  1  0  0  0  0
 17 42  1  0  0  0  0
 17 43  1  0  0  0  0
 18 19  1  0  0  0  0
 19 44  1  0  0  0  0
 20 21  1  0  0  0  0
 20 22  2  0  0  0  0
 21 24  2  0  0  0  0
 22 25  1  0  0  0  0
 22 45  1  0  0  0  0
 23 46  1  0  0  0  0
 23 47  1  0  0  0  0
 23 48  1  0  0  0  0
 24 26  1  0  0  0  0
 24 49  1  0  0  0  0
 25 26  2  0  0  0  0
 25 50  1  0  0  0  0
 26 51  1  0  0  0  0
 27 28  1  0  0  0  0
 27 52  1  0  0  0  0
 27 53  1  0  0  0  0
 28 54  1  0  0  0  0
 28 55  1  0  0  0  0
 28 56  1  0  0  0  0
M  END
>  <DRUGBANK_ID>
DB00706

>  <SECONDARY_ACCESSION_NUMBERS>
APRD00036

>  <COMMON_NAME>
Tamsulosin

>  <CAS_NUMBER>
106133-20-4

>  <UNII>
G3P28OML5I

>  <SYNONYMS>
(−)-tamsulosin; (R)-(−)-tamsulosin; (R)-5-(2-((2-(2-ethoxyphenoxy)ethyl)amino)propyl)-2-methoxybenzenesulfonamide; Tamsulosin; Tamsulosina; Tamsulosine; Tamsulosinum

$$$$
