
 OpenBabel10282417072D

 49 49  0  0  1  0  0  0  0  0999 V2000
   -4.4708    5.1599    0.0000 C   0  0  0  0  0  0  0  0  0  0  0  0
   -4.6423    4.3529    0.0000 C   0  0  0  0  0  0  0  0  0  0  0  0
   -4.0292    3.8009    0.0000 C   0  0  0  0  0  0  0  0  0  0  0  0
    0.0078    0.9744    0.0000 C   0  0  0  0  0  0  0  0  0  0  0  0
   -0.7066    1.3869    0.0000 C   0  0  0  0  0  0  0  0  0  0  0  0
    0.7223    1.3869    0.0000 C   0  0  0  0  0  0  0  0  0  0  0  0
   -4.2007    2.9939    0.0000 C   0  0  0  0  0  0  0  0  0  0  0  0
   -1.4211    0.9744    0.0000 C   0  0  0  0  0  0  0  0  0  0  0  0
    1.4368    0.9744    0.0000 C   0  0  0  0  0  0  0  0  0  0  0  0
   -2.1356    1.3869    0.0000 C   0  0  0  0  0  0  0  0  0  0  0  0
   -3.5876    2.4418    0.0000 C   0  0  0  0  0  0  0  0  0  0  0  0
    2.1512    1.3869    0.0000 C   0  0  0  0  0  0  0  0  0  0  0  0
   -1.4681    2.6968    0.0000 C   0  0  0  0  0  0  0  0  0  0  0  0
   -1.7231    3.4814    0.0000 C   0  0  0  0  0  0  0  0  0  0  0  0
   -2.1356    2.2119    0.0000 C   0  0  2  0  0  0  0  0  0  0  0  0
   -2.8030    2.6968    0.0000 C   0  0  2  0  0  0  0  0  0  0  0  0
   -2.5481    3.4814    0.0000 C   0  0  0  0  0  0  0  0  0  0  0  0
    2.8657    0.9744    0.0000 C   0  0  0  0  0  0  0  0  0  0  0  0
   -3.0330    4.1488    0.0000 O   0  0  0  0  0  0  0  0  0  0  0  0
    3.5802    1.3869    0.0000 O   0  0  0  0  0  0  0  0  0  0  0  0
    2.8657    0.1494    0.0000 O   0  0  0  0  0  0  0  0  0  0  0  0
   -1.4005    1.8373    0.0000 H   0  0  0  0  0  0  0  0  0  0  0  0
   -2.9321    1.8819    0.0000 H   0  0  0  0  0  0  0  0  0  0  0  0
   -3.4532    5.4906    0.0000 H   0  0  0  0  0  0  0  0  0  0  0  0
   -5.2660    5.8758    0.0000 H   0  0  0  0  0  0  0  0  0  0  0  0
   -4.2484    6.2065    0.0000 H   0  0  0  0  0  0  0  0  0  0  0  0
   -5.6599    4.0222    0.0000 H   0  0  0  0  0  0  0  0  0  0  0  0
   -4.8647    3.3063    0.0000 H   0  0  0  0  0  0  0  0  0  0  0  0
   -3.0477    4.1198    0.0000 H   0  0  0  0  0  0  0  0  0  0  0  0
    0.0078   -0.0956    0.0000 H   0  0  0  0  0  0  0  0  0  0  0  0
    0.9344    0.4394    0.0000 H   0  0  0  0  0  0  0  0  0  0  0  0
   -0.7066    2.4569    0.0000 H   0  0  0  0  0  0  0  0  0  0  0  0
   -1.6332    1.9219    0.0000 H   0  0  0  0  0  0  0  0  0  0  0  0
    0.7223    2.4569    0.0000 H   0  0  0  0  0  0  0  0  0  0  0  0
    1.6489    1.9219    0.0000 H   0  0  0  0  0  0  0  0  0  0  0  0
   -5.1822    2.6750    0.0000 H   0  0  0  0  0  0  0  0  0  0  0  0
   -1.4211   -0.0956    0.0000 H   0  0  0  0  0  0  0  0  0  0  0  0
   -2.3477    0.4394    0.0000 H   0  0  0  0  0  0  0  0  0  0  0  0
    1.4368   -0.0956    0.0000 H   0  0  0  0  0  0  0  0  0  0  0  0
    2.3635    0.4394    0.0000 H   0  0  0  0  0  0  0  0  0  0  0  0
   -3.0622    0.8519    0.0000 H   0  0  0  0  0  0  0  0  0  0  0  0
   -3.0622    1.9219    0.0000 H   0  0  0  0  0  0  0  0  0  0  0  0
   -3.8101    1.3952    0.0000 H   0  0  0  0  0  0  0  0  0  0  0  0
   -2.7924    1.7259    0.0000 H   0  0  0  0  0  0  0  0  0  0  0  0
    2.1512    2.4569    0.0000 H   0  0  0  0  0  0  0  0  0  0  0  0
    3.0778    1.9219    0.0000 H   0  0  0  0  0  0  0  0  0  0  0  0
   -0.4866    2.3779    0.0000 H   0  0  0  0  0  0  0  0  0  0  0  0
   -1.1165    4.3163    0.0000 H   0  0  0  0  0  0  0  0  0  0  0  0
    2.0542   -0.3191    0.0000 H   0  0  0  0  0  0  0  0  0  0  0  0
  1 24  1  0  0  0  0
  1 25  1  0  0  0  0
  1 26  1  0  0  0  0
  2  1  1  0  0  0  0
  2 27  1  0  0  0  0
  2 28  1  0  0  0  0
  3  2  1  0  0  0  0
  3 29  1  0  0  0  0
  4 30  1  0  0  0  0
  4 31  1  0  0  0  0
  5  4  1  0  0  0  0
  5 32  1  0  0  0  0
  5 33  1  0  0  0  0
  6  4  1  0  0  0  0
  6 34  1  0  0  0  0
  6 35  1  0  0  0  0
  7  3  2  3  0  0  0
  7 11  1  0  0  0  0
  7 36  1  0  0  0  0
  8  5  1  0  0  0  0
  8 37  1  0  0  0  0
  8 38  1  0  0  0  0
  9  6  1  0  0  0  0
  9 39  1  0  0  0  0
  9 40  1  0  0  0  0
 10  8  1  0  0  0  0
 10 41  1  0  0  0  0
 10 42  1  0  0  0  0
 11 43  1  0  0  0  0
 11 44  1  0  0  0  0
 12  9  1  0  0  0  0
 12 45  1  0  0  0  0
 12 46  1  0  0  0  0
 13 47  1  0  0  0  0
 14 13  2  0  0  0  0
 14 48  1  0  0  0  0
 15 10  1  0  0  0  0
 15 13  1  0  0  0  0
 15 22  1  6  0  0  0
 16 11  1  0  0  0  0
 16 15  1  0  0  0  0
 16 23  1  6  0  0  0
 17 14  1  0  0  0  0
 17 16  1  0  0  0  0
 18 12  1  0  0  0  0
 19 17  2  0  0  0  0
 20 18  2  0  0  0  0
 21 18  1  0  0  0  0
 21 49  1  0  0  0  0
M  END
>  <DRUGBANK_ID>
DB03007

>  <SECONDARY_ACCESSION_NUMBERS>
EXPT02441

>  <COMMON_NAME>
9r,13r-Opda

$$$$
