
 OpenBabel10282417072D

 40 40  0  0  0  0  0  0  0  0999 V2000
    2.3649    0.1278    0.0000 O   0  0  0  0  0  0  0  0  0  0  0  0
   -0.4930   -0.6971    0.0000 O   0  0  0  0  0  0  0  0  0  0  0  0
    0.9359   -0.6971    0.0000 N   0  0  0  0  0  0  0  0  0  0  0  0
   -0.4930    2.6029    0.0000 N   0  0  0  0  0  0  0  0  0  0  0  0
    1.6503    1.3653    0.0000 N   0  0  0  0  0  0  0  0  0  0  0  0
   -1.2075    3.8404    0.0000 N   0  0  0  0  0  0  0  0  0  0  0  0
    0.2214    0.5403    0.0000 C   0  0  0  0  0  0  0  0  0  0  0  0
    0.9359    0.1278    0.0000 C   0  0  1  0  0  0  0  0  0  0  0  0
    0.2214    1.3653    0.0000 C   0  0  0  0  0  0  0  0  0  0  0  0
   -0.4930    1.7778    0.0000 C   0  0  0  0  0  0  0  0  0  0  0  0
    1.6503    0.5403    0.0000 C   0  0  0  0  0  0  0  0  0  0  0  0
    0.2214   -1.1096    0.0000 C   0  0  0  0  0  0  0  0  0  0  0  0
    0.2214   -1.9346    0.0000 C   0  0  0  0  0  0  0  0  0  0  0  0
   -0.4930   -2.3471    0.0000 C   0  0  0  0  0  0  0  0  0  0  0  0
    0.9359   -2.3471    0.0000 C   0  0  0  0  0  0  0  0  0  0  0  0
   -1.2075    3.0153    0.0000 C   0  0  0  0  0  0  0  0  0  0  0  0
   -0.4930   -3.1721    0.0000 C   0  0  0  0  0  0  0  0  0  0  0  0
    0.9359   -3.1721    0.0000 C   0  0  0  0  0  0  0  0  0  0  0  0
    0.2214   -3.5846    0.0000 C   0  0  0  0  0  0  0  0  0  0  0  0
   -1.9219    2.6029    0.0000 C   0  0  0  0  0  0  0  0  0  0  0  0
    1.7885   -1.1894    0.0000 H   0  0  0  0  0  0  0  0  0  0  0  0
    2.5029    1.8576    0.0000 H   0  0  0  0  0  0  0  0  0  0  0  0
    0.7977    1.8575    0.0000 H   0  0  0  0  0  0  0  0  0  0  0  0
   -0.3549    4.3327    0.0000 H   0  0  0  0  0  0  0  0  0  0  0  0
   -2.0601    4.3327    0.0000 H   0  0  0  0  0  0  0  0  0  0  0  0
   -0.7052    0.0053    0.0000 H   0  0  0  0  0  0  0  0  0  0  0  0
   -0.7052    1.0753    0.0000 H   0  0  0  0  0  0  0  0  0  0  0  0
    0.0093   -0.4072    0.0000 H   0  0  0  0  0  0  0  0  0  0  0  0
    1.1481    1.9003    0.0000 H   0  0  0  0  0  0  0  0  0  0  0  0
    0.2214    2.4353    0.0000 H   0  0  0  0  0  0  0  0  0  0  0  0
   -1.4197    1.2428    0.0000 H   0  0  0  0  0  0  0  0  0  0  0  0
   -0.4930    0.7078    0.0000 H   0  0  0  0  0  0  0  0  0  0  0  0
   -1.3867   -1.8311    0.0000 H   0  0  0  0  0  0  0  0  0  0  0  0
    1.8296   -1.8311    0.0000 H   0  0  0  0  0  0  0  0  0  0  0  0
   -1.3867   -3.6881    0.0000 H   0  0  0  0  0  0  0  0  0  0  0  0
    1.8296   -3.6881    0.0000 H   0  0  0  0  0  0  0  0  0  0  0  0
    0.2214   -4.6166    0.0000 H   0  0  0  0  0  0  0  0  0  0  0  0
   -2.8485    3.1380    0.0000 H   0  0  0  0  0  0  0  0  0  0  0  0
   -1.9220    1.5329    0.0000 H   0  0  0  0  0  0  0  0  0  0  0  0
   -2.8486    2.0680    0.0000 H   0  0  0  0  0  0  0  0  0  0  0  0
  1 11  2  0  0  0  0
  2 12  2  0  0  0  0
  3 12  1  0  0  0  0
  3 21  1  0  0  0  0
  4 10  1  0  0  0  0
  4 16  2  0  0  0  0
  5 11  1  0  0  0  0
  5 22  1  0  0  0  0
  5 23  1  0  0  0  0
  6 16  1  0  0  0  0
  6 24  1  0  0  0  0
  6 25  1  0  0  0  0
  7  8  1  0  0  0  0
  7  9  1  0  0  0  0
  7 26  1  0  0  0  0
  7 27  1  0  0  0  0
  8  3  1  0  0  0  0
  8 11  1  0  0  0  0
  8 28  1  6  0  0  0
  9 10  1  0  0  0  0
  9 29  1  0  0  0  0
  9 30  1  0  0  0  0
 10 31  1  0  0  0  0
 10 32  1  0  0  0  0
 12 13  1  0  0  0  0
 13 14  2  0  0  0  0
 13 15  1  0  0  0  0
 14 17  1  0  0  0  0
 14 33  1  0  0  0  0
 15 18  2  0  0  0  0
 15 34  1  0  0  0  0
 16 20  1  0  0  0  0
 17 19  2  0  0  0  0
 17 35  1  0  0  0  0
 18 19  1  0  0  0  0
 18 36  1  0  0  0  0
 19 37  1  0  0  0  0
 20 38  1  0  0  0  0
 20 39  1  0  0  0  0
 20 40  1  0  0  0  0
M  END
>  <DRUGBANK_ID>
DB07449

>  <COMMON_NAME>
N-[(1S)-1-(aminocarbonyl)-4-(ethanimidoylamino)butyl]benzamide

$$$$
