
 OpenBabel10282417072D

 29 30  0  0  0  0  0  0  0  0999 V2000
    0.8998   -1.1697    0.0000 C   0  0  2  0  0  0  0  0  0  0  0  0
    0.8998    0.2937    0.0000 N   0  0  0  0  0  0  0  0  0  0  0  0
   -0.0145   -0.6398    0.0000 O   0  0  0  0  0  0  0  0  0  0  0  0
    0.5073   -1.9546    0.0000 C   0  0  0  0  0  0  0  0  0  0  0  0
    0.1698    0.6861    0.0000 C   0  0  0  0  0  0  0  0  0  0  0  0
    1.5746    0.7096    0.0000 C   0  0  0  0  0  0  0  0  0  0  0  0
   -0.8734   -1.1697    0.0000 C   0  0  1  0  0  0  0  0  0  0  0  0
   -0.4941   -1.9546    0.0000 C   0  0  1  0  0  0  0  0  0  0  0  0
    0.1698    1.5206    0.0000 N   0  0  0  0  0  0  0  0  0  0  0  0
   -0.5311    0.2728    0.0000 O   0  0  0  0  0  0  0  0  0  0  0  0
    1.5746    1.5206    0.0000 C   0  0  0  0  0  0  0  0  0  0  0  0
   -1.6577   -0.9213    0.0000 C   0  0  0  0  0  0  0  0  0  0  0  0
   -0.7256   -2.7005    0.0000 O   0  0  0  0  0  0  0  0  0  0  0  0
    0.8866    1.9157    0.0000 C   0  0  0  0  0  0  0  0  0  0  0  0
    2.2653    1.9758    0.0000 F   0  0  0  0  0  0  0  0  0  0  0  0
   -2.2653   -1.4761    0.0000 O   0  0  0  0  0  0  0  0  0  0  0  0
    0.8866    2.7005    0.0000 N   0  0  0  0  0  0  0  0  0  0  0  0
    0.3656   -0.2426    0.0000 H   0  0  0  0  0  0  0  0  0  0  0  0
    1.0698   -2.8648    0.0000 H   0  0  0  0  0  0  0  0  0  0  0  0
   -0.0138   -2.8892    0.0000 H   0  0  0  0  0  0  0  0  0  0  0  0
    2.4757    0.2065    0.0000 H   0  0  0  0  0  0  0  0  0  0  0  0
   -1.0047   -0.1078    0.0000 H   0  0  0  0  0  0  0  0  0  0  0  0
    0.1405   -2.8161    0.0000 H   0  0  0  0  0  0  0  0  0  0  0  0
   -1.8877    0.1237    0.0000 H   0  0  0  0  0  0  0  0  0  0  0  0
   -2.6776   -0.5979    0.0000 H   0  0  0  0  0  0  0  0  0  0  0  0
   -1.6717   -2.9147    0.0000 H   0  0  0  0  0  0  0  0  0  0  0  0
   -3.1899   -1.1828    0.0000 H   0  0  0  0  0  0  0  0  0  0  0  0
    1.7392    3.1928    0.0000 H   0  0  0  0  0  0  0  0  0  0  0  0
    0.0340    3.1927    0.0000 H   0  0  0  0  0  0  0  0  0  0  0  0
  1  2  1  0  0  0  0
  1  3  1  0  0  0  0
  1  4  1  0  0  0  0
  1 18  1  6  0  0  0
  2  5  1  0  0  0  0
  2  6  1  0  0  0  0
  3  7  1  0  0  0  0
  4  8  1  0  0  0  0
  4 19  1  0  0  0  0
  4 20  1  0  0  0  0
  5  9  1  0  0  0  0
  5 10  2  0  0  0  0
  6 11  2  0  0  0  0
  6 21  1  0  0  0  0
  7 12  1  0  0  0  0
  7  8  1  0  0  0  0
  7 22  1  6  0  0  0
  8 13  1  0  0  0  0
  8 23  1  1  0  0  0
  9 14  2  0  0  0  0
 11 15  1  0  0  0  0
 11 14  1  0  0  0  0
 12 16  1  0  0  0  0
 12 24  1  0  0  0  0
 12 25  1  0  0  0  0
 13 26  1  0  0  0  0
 14 17  1  0  0  0  0
 16 27  1  0  0  0  0
 17 28  1  0  0  0  0
 17 29  1  0  0  0  0
M  END
>  <DRUGBANK_ID>
DB12957

>  <COMMON_NAME>
5-fluoro-2'-deoxycytidine

>  <CAS_NUMBER>
10356-76-0

>  <UNII>
KUA4693H5W

>  <SYNONYMS>
5-fluoro-2-deoxycytidine; 5-fluoro-2'-deoxycytidine; 5-fluorodeoxycytidine; FCdR; FDCYD

$$$$
