TQ6
 OpenBabel10282417072D

 44 47  0  0  0  0  0  0  0  0999 V2000
   -2.5498    0.9981    0.0000 C   0  0  0  0  0  0  0  0  0  0  0  0
   -3.2643    1.4106    0.0000 N   0  0  0  0  0  0  0  0  0  0  0  0
   -3.2643    2.2356    0.0000 C   0  0  0  0  0  0  0  0  0  0  0  0
   -2.5498    2.6481    0.0000 N   0  0  0  0  0  0  0  0  0  0  0  0
   -0.4064    1.4106    0.0000 C   0  0  0  0  0  0  0  0  0  0  0  0
   -1.1209    0.9981    0.0000 C   0  0  0  0  0  0  0  0  0  0  0  0
   -1.8354    1.4106    0.0000 C   0  0  0  0  0  0  0  0  0  0  0  0
   -1.8354    2.2356    0.0000 C   0  0  0  0  0  0  0  0  0  0  0  0
   -1.1209    2.6481    0.0000 C   0  0  0  0  0  0  0  0  0  0  0  0
   -0.4064    2.2356    0.0000 C   0  0  0  0  0  0  0  0  0  0  0  0
   -3.9788    2.6481    0.0000 N   0  0  0  0  0  0  0  0  0  0  0  0
   -2.5498    0.1731    0.0000 N   0  0  0  0  0  0  0  0  0  0  0  0
   -1.1209    0.1731    0.0000 S   0  0  0  0  0  0  0  0  0  0  0  0
   -0.4064   -0.2394    0.0000 C   0  0  0  0  0  0  0  0  0  0  0  0
    0.3081    0.1731    0.0000 C   0  0  0  0  0  0  0  0  0  0  0  0
    1.0225   -0.2394    0.0000 C   0  0  0  0  0  0  0  0  0  0  0  0
    1.0225   -1.0644    0.0000 C   0  0  0  0  0  0  0  0  0  0  0  0
    0.3081   -1.4769    0.0000 C   0  0  0  0  0  0  0  0  0  0  0  0
   -0.4064   -1.0644    0.0000 C   0  0  0  0  0  0  0  0  0  0  0  0
    2.4515   -2.7144    0.0000 C   0  0  0  0  0  0  0  0  0  0  0  0
    1.7370   -2.3019    0.0000 C   0  0  0  0  0  0  0  0  0  0  0  0
    1.7370   -1.4769    0.0000 N   0  0  0  0  0  0  0  0  0  0  0  0
    2.4515   -1.0644    0.0000 C   0  0  0  0  0  0  0  0  0  0  0  0
    3.1659   -1.4769    0.0000 C   0  0  0  0  0  0  0  0  0  0  0  0
    3.1659   -2.3019    0.0000 O   0  0  0  0  0  0  0  0  0  0  0  0
    0.4873    0.8946    0.0000 H   0  0  0  0  0  0  0  0  0  0  0  0
   -1.1209    3.6801    0.0000 H   0  0  0  0  0  0  0  0  0  0  0  0
    0.4873    2.7516    0.0000 H   0  0  0  0  0  0  0  0  0  0  0  0
   -3.9788    3.6326    0.0000 H   0  0  0  0  0  0  0  0  0  0  0  0
   -4.8314    2.1558    0.0000 H   0  0  0  0  0  0  0  0  0  0  0  0
   -3.4024   -0.3192    0.0000 H   0  0  0  0  0  0  0  0  0  0  0  0
   -1.6972   -0.3191    0.0000 H   0  0  0  0  0  0  0  0  0  0  0  0
    0.3081    1.2051    0.0000 H   0  0  0  0  0  0  0  0  0  0  0  0
    1.9162    0.2766    0.0000 H   0  0  0  0  0  0  0  0  0  0  0  0
    0.3081   -2.5089    0.0000 H   0  0  0  0  0  0  0  0  0  0  0  0
   -1.3001   -1.5804    0.0000 H   0  0  0  0  0  0  0  0  0  0  0  0
    2.4515   -3.7844    0.0000 H   0  0  0  0  0  0  0  0  0  0  0  0
    3.3782   -3.2494    0.0000 H   0  0  0  0  0  0  0  0  0  0  0  0
    0.8104   -2.8369    0.0000 H   0  0  0  0  0  0  0  0  0  0  0  0
    0.8104   -1.7669    0.0000 H   0  0  0  0  0  0  0  0  0  0  0  0
    2.4515    0.0056    0.0000 H   0  0  0  0  0  0  0  0  0  0  0  0
    3.3782   -0.5294    0.0000 H   0  0  0  0  0  0  0  0  0  0  0  0
    4.0926   -0.9419    0.0000 H   0  0  0  0  0  0  0  0  0  0  0  0
    4.0925   -2.0119    0.0000 H   0  0  0  0  0  0  0  0  0  0  0  0
  1  2  2  0  0  0  0
  1  7  1  0  0  0  0
  1 12  1  0  0  0  0
  2  3  1  0  0  0  0
  3  4  2  0  0  0  0
  3 11  1  0  0  0  0
  4  8  1  0  0  0  0
  5  6  2  0  0  0  0
  5 10  1  0  0  0  0
  5 26  1  0  0  0  0
  6  7  1  0  0  0  0
  6 13  1  0  0  0  0
  7  8  2  0  0  0  0
  8  9  1  0  0  0  0
  9 10  2  0  0  0  0
  9 27  1  0  0  0  0
 10 28  1  0  0  0  0
 11 29  1  0  0  0  0
 11 30  1  0  0  0  0
 12 31  1  0  0  0  0
 12 32  1  0  0  0  0
 13 14  1  0  0  0  0
 14 15  2  0  0  0  0
 14 19  1  0  0  0  0
 15 16  1  0  0  0  0
 15 33  1  0  0  0  0
 16 17  2  0  0  0  0
 16 34  1  0  0  0  0
 17 18  1  0  0  0  0
 17 22  1  0  0  0  0
 18 19  2  0  0  0  0
 18 35  1  0  0  0  0
 19 36  1  0  0  0  0
 20 21  1  0  0  0  0
 20 25  1  0  0  0  0
 20 37  1  0  0  0  0
 20 38  1  0  0  0  0
 21 22  1  0  0  0  0
 21 39  1  0  0  0  0
 21 40  1  0  0  0  0
 22 23  1  0  0  0  0
 23 24  1  0  0  0  0
 23 41  1  0  0  0  0
 23 42  1  0  0  0  0
 24 25  1  0  0  0  0
 24 43  1  0  0  0  0
 24 44  1  0  0  0  0
M  END
>  <DRUGBANK_ID>
DB02001

>  <SECONDARY_ACCESSION_NUMBERS>
EXPT03102

>  <COMMON_NAME>
5-(4-Morpholin-4-Yl-Phenylsulfanyl)-2,4-Quinazolinediamine

$$$$
