
 OpenBabel10282417072D

 59 61  0  0  0  0  0  0  0  0999 V2000
   -6.1118    0.8506    0.0000 O   0  0  0  0  0  0  0  0  0  0  0  0
   -6.7860    0.3633    0.0000 C   0  0  0  0  0  0  0  0  0  0  0  0
   -6.5291   -0.4259    0.0000 C   0  0  0  0  0  0  0  0  0  0  0  0
   -5.6989   -0.4259    0.0000 C   0  0  0  0  0  0  0  0  0  0  0  0
   -5.4417    0.3633    0.0000 C   0  0  0  0  0  0  0  0  0  0  0  0
   -4.7310    0.7796    0.0000 C   0  0  0  0  0  0  0  0  0  0  0  0
   -4.0177    0.3709    0.0000 S   0  0  3  0  0  0  0  0  0  0  0  0
   -3.3043    0.7838    0.0000 C   0  0  0  0  0  0  0  0  0  0  0  0
   -2.5909    0.3751    0.0000 C   0  0  0  0  0  0  0  0  0  0  0  0
   -1.8776    0.7880    0.0000 N   0  0  0  0  0  0  0  0  0  0  0  0
   -1.1642    0.3792    0.0000 C   0  0  0  0  0  0  0  0  0  0  0  0
   -4.0219   -0.4550    0.0000 O   0  0  0  0  0  0  0  0  0  0  0  0
   -2.5951   -0.4508    0.0000 O   0  0  0  0  0  0  0  0  0  0  0  0
   -0.4510    0.7963    0.0000 C   0  0  0  0  0  0  0  0  0  0  0  0
    0.3750    0.7963    0.0000 C   0  0  0  0  0  0  0  0  0  0  0  0
    1.0883    0.3834    0.0000 C   0  0  0  0  0  0  0  0  0  0  0  0
    1.8017    0.8006    0.0000 O   0  0  0  0  0  0  0  0  0  0  0  0
    2.5150    0.3876    0.0000 C   0  0  0  0  0  0  0  0  0  0  0  0
    2.5112   -0.4377    0.0000 N   0  0  0  0  0  0  0  0  0  0  0  0
    3.2238   -0.8506    0.0000 C   0  0  0  0  0  0  0  0  0  0  0  0
    3.9390   -0.4393    0.0000 C   0  0  0  0  0  0  0  0  0  0  0  0
    3.9375    0.3892    0.0000 C   0  0  0  0  0  0  0  0  0  0  0  0
    3.2243    0.7983    0.0000 C   0  0  0  0  0  0  0  0  0  0  0  0
    4.6467    0.8089    0.0000 C   0  0  0  0  0  0  0  0  0  0  0  0
    5.3600    0.3959    0.0000 N   0  0  0  0  0  0  0  0  0  0  0  0
    5.3571   -0.4292    0.0000 C   0  0  0  0  0  0  0  0  0  0  0  0
    6.0664   -0.8421    0.0000 C   0  0  0  0  0  0  0  0  0  0  0  0
    6.7831   -0.4344    0.0000 C   0  0  0  0  0  0  0  0  0  0  0  0
    6.7860    0.3908    0.0000 C   0  0  0  0  0  0  0  0  0  0  0  0
    6.0722    0.8082    0.0000 C   0  0  0  0  0  0  0  0  0  0  0  0
   -7.7672    0.6831    0.0000 H   0  0  0  0  0  0  0  0  0  0  0  0
   -7.1355   -1.2610    0.0000 H   0  0  0  0  0  0  0  0  0  0  0  0
   -5.0927   -1.2611    0.0000 H   0  0  0  0  0  0  0  0  0  0  0  0
   -4.7361    1.8496    0.0000 H   0  0  0  0  0  0  0  0  0  0  0  0
   -3.8065    1.3183    0.0000 H   0  0  0  0  0  0  0  0  0  0  0  0
   -3.3067    1.8538    0.0000 H   0  0  0  0  0  0  0  0  0  0  0  0
   -2.3791    1.3214    0.0000 H   0  0  0  0  0  0  0  0  0  0  0  0
   -1.8798    1.7725    0.0000 H   0  0  0  0  0  0  0  0  0  0  0  0
   -1.1595   -0.6908    0.0000 H   0  0  0  0  0  0  0  0  0  0  0  0
   -0.2349   -0.1512    0.0000 H   0  0  0  0  0  0  0  0  0  0  0  0
   -0.7209    1.7924    0.0000 H   0  0  0  0  0  0  0  0  0  0  0  0
    0.6427    1.7930    0.0000 H   0  0  0  0  0  0  0  0  0  0  0  0
    1.0907   -0.6866    0.0000 H   0  0  0  0  0  0  0  0  0  0  0  0
    2.0170   -0.1480    0.0000 H   0  0  0  0  0  0  0  0  0  0  0  0
    3.2221   -1.8826    0.0000 H   0  0  0  0  0  0  0  0  0  0  0  0
    4.8328   -0.9553    0.0000 H   0  0  0  0  0  0  0  0  0  0  0  0
    3.2222    1.8303    0.0000 H   0  0  0  0  0  0  0  0  0  0  0  0
    4.6416    1.8789    0.0000 H   0  0  0  0  0  0  0  0  0  0  0  0
    5.5724    1.3455    0.0000 H   0  0  0  0  0  0  0  0  0  0  0  0
    4.4286   -0.9609    0.0000 H   0  0  0  0  0  0  0  0  0  0  0  0
    5.3533   -1.4992    0.0000 H   0  0  0  0  0  0  0  0  0  0  0  0
    6.0611   -1.9121    0.0000 H   0  0  0  0  0  0  0  0  0  0  0  0
    6.9900   -1.3824    0.0000 H   0  0  0  0  0  0  0  0  0  0  0  0
    7.7071   -0.9740    0.0000 H   0  0  0  0  0  0  0  0  0  0  0  0
    7.7120    0.0967    0.0000 H   0  0  0  0  0  0  0  0  0  0  0  0
    7.7151    0.9216    0.0000 H   0  0  0  0  0  0  0  0  0  0  0  0
    6.7914    1.4608    0.0000 H   0  0  0  0  0  0  0  0  0  0  0  0
    6.0745    1.8782    0.0000 H   0  0  0  0  0  0  0  0  0  0  0  0
    7.0009    1.3396    0.0000 H   0  0  0  0  0  0  0  0  0  0  0  0
  1  2  1  0  0  0  0
  2  3  2  0  0  0  0
  2 31  1  0  0  0  0
  3  4  1  0  0  0  0
  3 32  1  0  0  0  0
  4  5  2  0  0  0  0
  4 33  1  0  0  0  0
  5  1  1  0  0  0  0
  5  6  1  0  0  0  0
  6  7  1  0  0  0  0
  6 34  1  0  0  0  0
  6 35  1  0  0  0  0
  7  8  1  0  0  0  0
  7 12  2  0  0  0  0
  8  9  1  0  0  0  0
  8 36  1  0  0  0  0
  8 37  1  0  0  0  0
  9 10  1  0  0  0  0
  9 13  2  0  0  0  0
 10 11  1  0  0  0  0
 10 38  1  0  0  0  0
 11 14  1  0  0  0  0
 11 39  1  0  0  0  0
 11 40  1  0  0  0  0
 14 15  2  0  0  0  0
 14 41  1  0  0  0  0
 15 16  1  0  0  0  0
 15 42  1  0  0  0  0
 16 17  1  0  0  0  0
 16 43  1  0  0  0  0
 16 44  1  0  0  0  0
 17 18  1  0  0  0  0
 18 19  2  0  0  0  0
 19 20  1  0  0  0  0
 20 21  2  0  0  0  0
 20 45  1  0  0  0  0
 21 22  1  0  0  0  0
 21 46  1  0  0  0  0
 22 23  2  0  0  0  0
 22 24  1  0  0  0  0
 23 18  1  0  0  0  0
 23 47  1  0  0  0  0
 24 25  1  0  0  0  0
 24 48  1  0  0  0  0
 24 49  1  0  0  0  0
 25 26  1  0  0  0  0
 25 30  1  0  0  0  0
 26 27  1  0  0  0  0
 26 50  1  0  0  0  0
 26 51  1  0  0  0  0
 27 28  1  0  0  0  0
 27 52  1  0  0  0  0
 27 53  1  0  0  0  0
 28 29  1  0  0  0  0
 28 54  1  0  0  0  0
 28 55  1  0  0  0  0
 29 30  1  0  0  0  0
 29 56  1  0  0  0  0
 29 57  1  0  0  0  0
 30 58  1  0  0  0  0
 30 59  1  0  0  0  0
M  END
>  <DRUGBANK_ID>
DB12770

>  <COMMON_NAME>
Lafutidine

>  <CAS_NUMBER>
118288-08-7

>  <UNII>
49S4O7ADLC

>  <SYNONYMS>
Lafutidine

$$$$
