KPV
 OpenBabel10282417072D

 26 26  0  0  0  0  0  0  0  0999 V2000
   -0.6062   -0.0468    0.0000 C   0  0  0  0  0  0  0  0  0  0  0  0
   -0.6062    0.7782    0.0000 C   0  0  0  0  0  0  0  0  0  0  0  0
   -1.3207    1.1907    0.0000 C   0  0  0  0  0  0  0  0  0  0  0  0
   -2.0352    0.7782    0.0000 C   0  0  0  0  0  0  0  0  0  0  0  0
   -2.0352   -0.0468    0.0000 C   0  0  0  0  0  0  0  0  0  0  0  0
   -1.3207   -0.4593    0.0000 C   0  0  0  0  0  0  0  0  0  0  0  0
    0.1082   -0.4593    0.0000 C   0  0  0  0  0  0  0  0  0  0  0  0
    0.8227   -0.0468    0.0000 C   0  0  0  0  0  0  0  0  0  0  0  0
    1.5372   -0.4593    0.0000 C   0  0  0  0  0  0  0  0  0  0  0  0
    2.2517   -0.0468    0.0000 C   0  0  0  0  0  0  0  0  0  0  0  0
    2.9661   -0.4593    0.0000 C   0  0  0  0  0  0  0  0  0  0  0  0
    3.6806   -0.0468    0.0000 O   0  0  0  0  0  0  0  0  0  0  0  0
    2.9661   -1.2843    0.0000 O   0  0  0  0  0  0  0  0  0  0  0  0
    2.2517    0.7782    0.0000 O   0  0  0  0  0  0  0  0  0  0  0  0
    0.2875    1.2942    0.0000 H   0  0  0  0  0  0  0  0  0  0  0  0
   -1.3207    2.2227    0.0000 H   0  0  0  0  0  0  0  0  0  0  0  0
   -2.9289    1.2942    0.0000 H   0  0  0  0  0  0  0  0  0  0  0  0
   -2.9289   -0.5628    0.0000 H   0  0  0  0  0  0  0  0  0  0  0  0
   -1.3207   -1.4913    0.0000 H   0  0  0  0  0  0  0  0  0  0  0  0
    0.1082   -1.5293    0.0000 H   0  0  0  0  0  0  0  0  0  0  0  0
    1.0348   -0.9943    0.0000 H   0  0  0  0  0  0  0  0  0  0  0  0
    0.8227    1.0232    0.0000 H   0  0  0  0  0  0  0  0  0  0  0  0
    1.7493    0.4882    0.0000 H   0  0  0  0  0  0  0  0  0  0  0  0
    1.5372   -1.5293    0.0000 H   0  0  0  0  0  0  0  0  0  0  0  0
    2.4638   -0.9943    0.0000 H   0  0  0  0  0  0  0  0  0  0  0  0
    2.1546   -1.7528    0.0000 H   0  0  0  0  0  0  0  0  0  0  0  0
  1  6  2  0  0  0  0
  1  2  1  0  0  0  0
  1  7  1  0  0  0  0
  2  3  2  0  0  0  0
  2 15  1  0  0  0  0
  3  4  1  0  0  0  0
  3 16  1  0  0  0  0
  4  5  2  0  0  0  0
  4 17  1  0  0  0  0
  5  6  1  0  0  0  0
  5 18  1  0  0  0  0
  6 19  1  0  0  0  0
  7  8  1  0  0  0  0
  7 20  1  0  0  0  0
  7 21  1  0  0  0  0
  8  9  1  0  0  0  0
  8 22  1  0  0  0  0
  8 23  1  0  0  0  0
  9 10  1  0  0  0  0
  9 24  1  0  0  0  0
  9 25  1  0  0  0  0
 10 11  1  0  0  0  0
 10 14  2  0  0  0  0
 11 12  2  0  0  0  0
 11 13  1  0  0  0  0
 13 26  1  0  0  0  0
M  END
>  <DRUGBANK_ID>
DB08050

>  <COMMON_NAME>
5-phenyl-2-keto-valeric acid

$$$$
