DCN
 OpenBabel10282417072D

 24 25  0  0  0  0  0  0  0  0999 V2000
    0.8800    1.9558    0.0000 C   0  0  0  0  0  0  0  0  0  0  0  0
    1.5944    1.5433    0.0000 C   0  0  0  0  0  0  0  0  0  0  0  0
    0.1655    1.5433    0.0000 C   0  0  0  0  0  0  0  0  0  0  0  0
    0.1655    0.7183    0.0000 C   0  0  0  0  0  0  0  0  0  0  0  0
    0.8800    0.3058    0.0000 C   0  0  0  0  0  0  0  0  0  0  0  0
    1.5944    0.7183    0.0000 C   0  0  0  0  0  0  0  0  0  0  0  0
   -0.5490   -2.1692    0.0000 C   0  0  0  0  0  0  0  0  0  0  0  0
   -1.2635   -1.7567    0.0000 C   0  0  0  0  0  0  0  0  0  0  0  0
   -1.2635   -0.9317    0.0000 C   0  0  0  0  0  0  0  0  0  0  0  0
   -0.5490   -0.5192    0.0000 C   0  0  0  0  0  0  0  0  0  0  0  0
    0.1655   -1.7567    0.0000 C   0  0  0  0  0  0  0  0  0  0  0  0
    0.1655   -0.9317    0.0000 C   0  0  0  0  0  0  0  0  0  0  0  0
   -0.5490    0.3058    0.0000 O   0  0  0  0  0  0  0  0  0  0  0  0
    2.3089    1.9558    0.0000 Cl  0  0  0  0  0  0  0  0  0  0  0  0
   -0.5490   -2.9942    0.0000 Cl  0  0  0  0  0  0  0  0  0  0  0  0
   -0.5490    1.9558    0.0000 O   0  0  0  0  0  0  0  0  0  0  0  0
    0.8800    2.9878    0.0000 H   0  0  0  0  0  0  0  0  0  0  0  0
    0.8800   -0.7262    0.0000 H   0  0  0  0  0  0  0  0  0  0  0  0
    2.4881    0.2023    0.0000 H   0  0  0  0  0  0  0  0  0  0  0  0
   -2.1572   -2.2727    0.0000 H   0  0  0  0  0  0  0  0  0  0  0  0
   -2.1572   -0.4157    0.0000 H   0  0  0  0  0  0  0  0  0  0  0  0
    1.0592   -2.2727    0.0000 H   0  0  0  0  0  0  0  0  0  0  0  0
    1.0592   -0.4157    0.0000 H   0  0  0  0  0  0  0  0  0  0  0  0
   -0.5490    2.8928    0.0000 H   0  0  0  0  0  0  0  0  0  0  0  0
  1  2  2  0  0  0  0
  1  3  1  0  0  0  0
  1 17  1  0  0  0  0
  2  6  1  0  0  0  0
  2 14  1  0  0  0  0
  3  4  2  0  0  0  0
  3 16  1  0  0  0  0
  4  5  1  0  0  0  0
  4 13  1  0  0  0  0
  5  6  2  0  0  0  0
  5 18  1  0  0  0  0
  6 19  1  0  0  0  0
  7  8  2  0  0  0  0
  7 11  1  0  0  0  0
  7 15  1  0  0  0  0
  8  9  1  0  0  0  0
  8 20  1  0  0  0  0
  9 10  2  0  0  0  0
  9 21  1  0  0  0  0
 10 12  1  0  0  0  0
 10 13  1  0  0  0  0
 11 12  2  0  0  0  0
 11 22  1  0  0  0  0
 12 23  1  0  0  0  0
 16 24  1  0  0  0  0
M  END
>  <DRUGBANK_ID>
DB04393

>  <SECONDARY_ACCESSION_NUMBERS>
EXPT01135

>  <COMMON_NAME>
Soneclosan

>  <CAS_NUMBER>
3380-30-1

>  <UNII>
814H7B74XK

>  <SYNONYMS>
5-chloro-2-(p-chlorophenoxy)phenol; Hydroxydichlorodiphenyl ether; Soneclosan

$$$$
