
 OpenBabel10282417072D

 43 48  0  0  0  0  0  0  0  0999 V2000
   -1.3396   -1.2337    0.0000 C   0  0  0  0  0  0  0  0  0  0  0  0
   -0.5146   -1.2337    0.0000 N   0  0  0  0  0  0  0  0  0  0  0  0
   -0.0296   -1.9011    0.0000 C   0  0  0  0  0  0  0  0  0  0  0  0
    0.7550   -1.6462    0.0000 C   0  0  0  0  0  0  0  0  0  0  0  0
    0.7550   -0.8212    0.0000 C   0  0  0  0  0  0  0  0  0  0  0  0
   -0.0296   -0.5662    0.0000 C   0  0  0  0  0  0  0  0  0  0  0  0
   -0.2012    0.2407    0.0000 C   0  0  0  0  0  0  0  0  0  0  0  0
    0.4119    0.7928    0.0000 C   0  0  0  0  0  0  0  0  0  0  0  0
    0.4119    1.6178    0.0000 O   0  0  0  0  0  0  0  0  0  0  0  0
    1.1966    1.8727    0.0000 C   0  0  0  0  0  0  0  0  0  0  0  0
    1.6815    1.2053    0.0000 O   0  0  0  0  0  0  0  0  0  0  0  0
    1.1966    0.5378    0.0000 C   0  0  0  0  0  0  0  0  0  0  0  0
    1.3681   -0.2691    0.0000 C   0  0  0  0  0  0  0  0  0  0  0  0
    1.4224   -2.1311    0.0000 C   0  0  0  0  0  0  0  0  0  0  0  0
    2.2070   -1.8762    0.0000 C   0  0  0  0  0  0  0  0  0  0  0  0
    2.6920   -2.5436    0.0000 C   0  0  0  0  0  0  0  0  0  0  0  0
    3.5170   -2.5436    0.0000 O   0  0  0  0  0  0  0  0  0  0  0  0
    2.2070   -3.2110    0.0000 N   0  0  0  0  0  0  0  0  0  0  0  0
    1.4224   -2.9561    0.0000 C   0  0  0  0  0  0  0  0  0  0  0  0
    0.7550   -3.4410    0.0000 O   0  0  0  0  0  0  0  0  0  0  0  0
    2.4620   -1.0915    0.0000 C   0  0  0  0  0  0  0  0  0  0  0  0
    1.9771   -0.4241    0.0000 C   0  0  0  0  0  0  0  0  0  0  0  0
    2.4620    0.2433    0.0000 O   0  0  0  0  0  0  0  0  0  0  0  0
    3.2466   -0.0116    0.0000 C   0  0  0  0  0  0  0  0  0  0  0  0
    3.9611    0.4009    0.0000 C   0  0  0  0  0  0  0  0  0  0  0  0
    4.6756   -0.0116    0.0000 C   0  0  0  0  0  0  0  0  0  0  0  0
    4.6756   -0.8366    0.0000 C   0  0  0  0  0  0  0  0  0  0  0  0
    5.3900   -1.2491    0.0000 F   0  0  0  0  0  0  0  0  0  0  0  0
    3.9611   -1.2491    0.0000 C   0  0  0  0  0  0  0  0  0  0  0  0
    3.2466   -0.8366    0.0000 C   0  0  0  0  0  0  0  0  0  0  0  0
   -1.8746   -0.3071    0.0000 H   0  0  0  0  0  0  0  0  0  0  0  0
   -1.8746   -2.1603    0.0000 H   0  0  0  0  0  0  0  0  0  0  0  0
   -2.4096   -1.2337    0.0000 H   0  0  0  0  0  0  0  0  0  0  0  0
   -0.3485   -2.8826    0.0000 H   0  0  0  0  0  0  0  0  0  0  0  0
   -1.1827    0.5595    0.0000 H   0  0  0  0  0  0  0  0  0  0  0  0
    1.5273    2.8903    0.0000 H   0  0  0  0  0  0  0  0  0  0  0  0
    2.2534    2.0401    0.0000 H   0  0  0  0  0  0  0  0  0  0  0  0
    2.3496   -0.5880    0.0000 H   0  0  0  0  0  0  0  0  0  0  0  0
    2.5112   -4.1473    0.0000 H   0  0  0  0  0  0  0  0  0  0  0  0
    0.9451   -0.4241    0.0000 H   0  0  0  0  0  0  0  0  0  0  0  0
    3.9611    1.4329    0.0000 H   0  0  0  0  0  0  0  0  0  0  0  0
    5.5693    0.5044    0.0000 H   0  0  0  0  0  0  0  0  0  0  0  0
    3.9611   -2.2811    0.0000 H   0  0  0  0  0  0  0  0  0  0  0  0
  1  2  1  0  0  0  0
  1 31  1  0  0  0  0
  1 32  1  0  0  0  0
  1 33  1  0  0  0  0
  2  3  1  0  0  0  0
  2  6  1  0  0  0  0
  3  4  2  0  0  0  0
  3 34  1  0  0  0  0
  4  5  1  0  0  0  0
  4 14  1  0  0  0  0
  5  6  2  0  0  0  0
  5 13  1  0  0  0  0
  6  7  1  0  0  0  0
  7  8  2  0  0  0  0
  7 35  1  0  0  0  0
  8  9  1  0  0  0  0
  8 12  1  0  0  0  0
  9 10  1  0  0  0  0
 10 11  1  0  0  0  0
 10 36  1  0  0  0  0
 10 37  1  0  0  0  0
 11 12  1  0  0  0  0
 12 13  2  0  0  0  0
 13 38  1  0  0  0  0
 14 15  2  0  0  0  0
 14 19  1  0  0  0  0
 15 16  1  0  0  0  0
 15 21  1  0  0  0  0
 16 17  2  0  0  0  0
 16 18  1  0  0  0  0
 18 19  1  0  0  0  0
 18 39  1  0  0  0  0
 19 20  2  0  0  0  0
 21 22  2  0  0  0  0
 21 30  1  0  0  0  0
 22 23  1  0  0  0  0
 22 40  1  0  0  0  0
 23 24  1  0  0  0  0
 24 25  2  0  0  0  0
 24 30  1  0  0  0  0
 25 26  1  0  0  0  0
 25 41  1  0  0  0  0
 26 27  2  0  0  0  0
 26 42  1  0  0  0  0
 27 28  1  0  0  0  0
 27 29  1  0  0  0  0
 29 30  2  0  0  0  0
 29 43  1  0  0  0  0
M  END
>  <DRUGBANK_ID>
DB16047

>  <COMMON_NAME>
Elraglusib

>  <CAS_NUMBER>
1034895-42-5

>  <UNII>
ND1SOF0DLU

>  <SYNONYMS>
1H-Pyrrole-2,5-dione, 3-(5-fluoro-3-benzofuranyl)-4-(5-methyl-5H-1,3-dioxolo(4,5-F)indol-7-yl)-; 3-(5-Fluoro-benzofuran-3-yl)-4-(5-methyl-5H-(1,3)dioxolo(4,5-F)indol-7-yl)-pyrrole-2,5-dione

$$$$
