MNS
 OpenBabel10282417072D

 31 32  0  0  0  0  0  0  0  0999 V2000
   -0.8215   -1.0266    0.0000 C   0  0  0  0  0  0  0  0  0  0  0  0
   -1.5359   -0.6141    0.0000 C   0  0  0  0  0  0  0  0  0  0  0  0
   -1.5359    0.2109    0.0000 C   0  0  0  0  0  0  0  0  0  0  0  0
   -0.8215    0.6234    0.0000 C   0  0  0  0  0  0  0  0  0  0  0  0
   -0.1070    0.2109    0.0000 C   0  0  0  0  0  0  0  0  0  0  0  0
    0.6075    0.6234    0.0000 C   0  0  0  0  0  0  0  0  0  0  0  0
    1.3220    0.2109    0.0000 C   0  0  0  0  0  0  0  0  0  0  0  0
    1.3220   -0.6141    0.0000 C   0  0  0  0  0  0  0  0  0  0  0  0
    0.6075   -1.0266    0.0000 C   0  0  0  0  0  0  0  0  0  0  0  0
   -0.1070   -0.6141    0.0000 C   0  0  0  0  0  0  0  0  0  0  0  0
    0.6075    1.4484    0.0000 N   0  0  0  0  0  0  0  0  0  0  0  0
    1.3220    1.8609    0.0000 C   0  0  0  0  0  0  0  0  0  0  0  0
   -0.1070    1.8609    0.0000 C   0  0  0  0  0  0  0  0  0  0  0  0
   -0.8215   -1.8516    0.0000 S   0  0  0  0  0  0  0  0  0  0  0  0
   -0.8215   -2.6766    0.0000 O   0  0  0  0  0  0  0  0  0  0  0  0
   -1.6465   -1.8516    0.0000 O   0  0  0  0  0  0  0  0  0  0  0  0
    0.0035   -1.8516    0.0000 N   0  0  0  0  0  0  0  0  0  0  0  0
   -2.4296   -1.1301    0.0000 H   0  0  0  0  0  0  0  0  0  0  0  0
   -2.4296    0.7269    0.0000 H   0  0  0  0  0  0  0  0  0  0  0  0
   -0.8215    1.6554    0.0000 H   0  0  0  0  0  0  0  0  0  0  0  0
    2.2157    0.7269    0.0000 H   0  0  0  0  0  0  0  0  0  0  0  0
    2.2157   -1.1301    0.0000 H   0  0  0  0  0  0  0  0  0  0  0  0
    0.6075   -2.0586    0.0000 H   0  0  0  0  0  0  0  0  0  0  0  0
    2.2486    1.3259    0.0000 H   0  0  0  0  0  0  0  0  0  0  0  0
    1.3220    2.9309    0.0000 H   0  0  0  0  0  0  0  0  0  0  0  0
    2.2487    2.3959    0.0000 H   0  0  0  0  0  0  0  0  0  0  0  0
   -0.1070    2.9309    0.0000 H   0  0  0  0  0  0  0  0  0  0  0  0
   -1.0336    1.3259    0.0000 H   0  0  0  0  0  0  0  0  0  0  0  0
   -1.0337    2.3959    0.0000 H   0  0  0  0  0  0  0  0  0  0  0  0
    0.5135   -2.7349    0.0000 H   0  0  0  0  0  0  0  0  0  0  0  0
    0.5135   -0.9683    0.0000 H   0  0  0  0  0  0  0  0  0  0  0  0
  1  2  2  0  0  0  0
  1 10  1  0  0  0  0
  1 14  1  0  0  0  0
  2  3  1  0  0  0  0
  2 18  1  0  0  0  0
  3  4  2  0  0  0  0
  3 19  1  0  0  0  0
  4  5  1  0  0  0  0
  4 20  1  0  0  0  0
  5  6  2  0  0  0  0
  5 10  1  0  0  0  0
  6  7  1  0  0  0  0
  6 11  1  0  0  0  0
  7  8  2  0  0  0  0
  7 21  1  0  0  0  0
  8  9  1  0  0  0  0
  8 22  1  0  0  0  0
  9 10  2  0  0  0  0
  9 23  1  0  0  0  0
 11 12  1  0  0  0  0
 11 13  1  0  0  0  0
 12 24  1  0  0  0  0
 12 25  1  0  0  0  0
 12 26  1  0  0  0  0
 13 27  1  0  0  0  0
 13 28  1  0  0  0  0
 13 29  1  0  0  0  0
 14 15  2  0  0  0  0
 14 16  2  0  0  0  0
 14 17  1  0  0  0  0
 17 30  1  0  0  0  0
 17 31  1  0  0  0  0
M  END
>  <DRUGBANK_ID>
DB02866

>  <SECONDARY_ACCESSION_NUMBERS>
EXPT02203

>  <COMMON_NAME>
Dansylamide

>  <UNII>
ZUZ5S5875E

$$$$
