BPQ
 OpenBabel10282417072D

 37 38  0  0  0  0  0  0  0  0999 V2000
   -3.8033    0.2337    0.0000 C   0  0  0  0  0  0  0  0  0  0  0  0
   -3.2513    0.8468    0.0000 N   0  0  0  0  0  0  0  0  0  0  0  0
   -2.4443    0.6753    0.0000 C   0  0  0  0  0  0  0  0  0  0  0  0
   -1.8923    1.2883    0.0000 O   0  0  0  0  0  0  0  0  0  0  0  0
   -2.1894   -0.1094    0.0000 C   0  0  0  0  0  0  0  0  0  0  0  0
   -1.4357   -0.4449    0.0000 C   0  0  0  0  0  0  0  0  0  0  0  0
   -0.7213   -0.0324    0.0000 C   0  0  0  0  0  0  0  0  0  0  0  0
   -0.0068   -0.4449    0.0000 N   0  0  0  0  0  0  0  0  0  0  0  0
   -1.5220   -1.2654    0.0000 C   0  0  0  0  0  0  0  0  0  0  0  0
   -2.3289   -1.4369    0.0000 N   0  0  0  0  0  0  0  0  0  0  0  0
   -2.7414   -0.7225    0.0000 C   0  0  0  0  0  0  0  0  0  0  0  0
   -3.5484   -0.5509    0.0000 N   0  0  0  0  0  0  0  0  0  0  0  0
   -4.6103    0.4052    0.0000 N   0  0  0  0  0  0  0  0  0  0  0  0
    0.7077   -0.0324    0.0000 C   0  0  0  0  0  0  0  0  0  0  0  0
    0.7077    0.7926    0.0000 O   0  0  0  0  0  0  0  0  0  0  0  0
    2.8511    0.3801    0.0000 C   0  0  0  0  0  0  0  0  0  0  0  0
    2.1366   -0.0324    0.0000 C   0  0  0  0  0  0  0  0  0  0  0  0
    2.5491   -0.7469    0.0000 C   0  0  0  0  0  0  0  0  0  0  0  0
    1.7241    0.6820    0.0000 C   0  0  0  0  0  0  0  0  0  0  0  0
    1.4222   -0.4449    0.0000 O   0  0  0  0  0  0  0  0  0  0  0  0
   -3.5556    1.7831    0.0000 H   0  0  0  0  0  0  0  0  0  0  0  0
   -0.7213    1.0376    0.0000 H   0  0  0  0  0  0  0  0  0  0  0  0
    0.2053    0.5026    0.0000 H   0  0  0  0  0  0  0  0  0  0  0  0
   -0.0068   -1.4294    0.0000 H   0  0  0  0  0  0  0  0  0  0  0  0
   -0.7551   -1.9560    0.0000 H   0  0  0  0  0  0  0  0  0  0  0  0
   -2.7293   -2.3363    0.0000 H   0  0  0  0  0  0  0  0  0  0  0  0
   -4.9146    1.3415    0.0000 H   0  0  0  0  0  0  0  0  0  0  0  0
   -5.2690   -0.3265    0.0000 H   0  0  0  0  0  0  0  0  0  0  0  0
    3.7777   -0.1549    0.0000 H   0  0  0  0  0  0  0  0  0  0  0  0
    2.8511    1.4501    0.0000 H   0  0  0  0  0  0  0  0  0  0  0  0
    3.7778    0.9151    0.0000 H   0  0  0  0  0  0  0  0  0  0  0  0
    2.0141   -1.6735    0.0000 H   0  0  0  0  0  0  0  0  0  0  0  0
    3.6191   -0.7469    0.0000 H   0  0  0  0  0  0  0  0  0  0  0  0
    3.0841   -1.6736    0.0000 H   0  0  0  0  0  0  0  0  0  0  0  0
    2.2591    1.6087    0.0000 H   0  0  0  0  0  0  0  0  0  0  0  0
    0.6541    0.6820    0.0000 H   0  0  0  0  0  0  0  0  0  0  0  0
    1.1891    1.6086    0.0000 H   0  0  0  0  0  0  0  0  0  0  0  0
  1  2  1  0  0  0  0
  1 12  2  0  0  0  0
  1 13  1  0  0  0  0
  2  3  1  0  0  0  0
  2 21  1  0  0  0  0
  3  4  2  0  0  0  0
  3  5  1  0  0  0  0
  5  6  1  0  0  0  0
  5 11  2  0  0  0  0
  6  7  1  0  0  0  0
  6  9  2  0  0  0  0
  7  8  1  0  0  0  0
  7 22  1  0  0  0  0
  7 23  1  0  0  0  0
  8 14  1  0  0  0  0
  8 24  1  0  0  0  0
  9 10  1  0  0  0  0
  9 25  1  0  0  0  0
 10 11  1  0  0  0  0
 10 26  1  0  0  0  0
 11 12  1  0  0  0  0
 13 27  1  0  0  0  0
 13 28  1  0  0  0  0
 14 15  2  0  0  0  0
 14 20  1  0  0  0  0
 16 17  1  0  0  0  0
 16 29  1  0  0  0  0
 16 30  1  0  0  0  0
 16 31  1  0  0  0  0
 17 18  1  0  0  0  0
 17 19  1  0  0  0  0
 17 20  1  0  0  0  0
 18 32  1  0  0  0  0
 18 33  1  0  0  0  0
 18 34  1  0  0  0  0
 19 35  1  0  0  0  0
 19 36  1  0  0  0  0
 19 37  1  0  0  0  0
M  END
>  <DRUGBANK_ID>
DB07481

>  <COMMON_NAME>
tert-butyl [(2-amino-4-oxo-4,7-dihydro-3H-pyrrolo[2,3-d]pyrimidin-5-yl)methyl]carbamate

$$$$
