LY1
 OpenBabel10282417072D

 24 25  0  0  0  0  0  0  0  0999 V2000
    0.4514    0.9330    0.0000 C   0  0  0  0  0  0  0  0  0  0  0  0
    1.2557    0.7494    0.0000 N   0  0  0  0  0  0  0  0  0  0  0  0
    1.6137    0.0061    0.0000 C   0  0  0  0  0  0  0  0  0  0  0  0
    1.2557   -0.7372    0.0000 C   0  0  0  0  0  0  0  0  0  0  0  0
    0.4514   -0.9208    0.0000 C   0  0  0  0  0  0  0  0  0  0  0  0
   -0.1936   -0.4064    0.0000 C   0  0  0  0  0  0  0  0  0  0  0  0
   -0.9081   -0.8189    0.0000 C   0  0  0  0  0  0  0  0  0  0  0  0
   -1.6225   -0.4064    0.0000 C   0  0  0  0  0  0  0  0  0  0  0  0
   -1.6225    0.4186    0.0000 C   0  0  0  0  0  0  0  0  0  0  0  0
   -0.9081    0.8311    0.0000 C   0  0  0  0  0  0  0  0  0  0  0  0
   -0.1936    0.4186    0.0000 C   0  0  0  0  0  0  0  0  0  0  0  0
   -2.3370    0.8311    0.0000 Cl  0  0  0  0  0  0  0  0  0  0  0  0
   -0.9081    1.6561    0.0000 Cl  0  0  0  0  0  0  0  0  0  0  0  0
    0.2133    1.9762    0.0000 H   0  0  0  0  0  0  0  0  0  0  0  0
   -0.5586    1.2864    0.0000 H   0  0  0  0  0  0  0  0  0  0  0  0
    1.8917    1.5469    0.0000 H   0  0  0  0  0  0  0  0  0  0  0  0
    2.6837    0.0061    0.0000 H   0  0  0  0  0  0  0  0  0  0  0  0
    2.1830   -0.8999    0.0000 H   0  0  0  0  0  0  0  0  0  0  0  0
    1.9228   -1.5738    0.0000 H   0  0  0  0  0  0  0  0  0  0  0  0
    0.9023   -1.7472    0.0000 H   0  0  0  0  0  0  0  0  0  0  0  0
    0.2133   -1.9640    0.0000 H   0  0  0  0  0  0  0  0  0  0  0  0
   -0.5586   -1.2742    0.0000 H   0  0  0  0  0  0  0  0  0  0  0  0
   -0.9081   -1.8509    0.0000 H   0  0  0  0  0  0  0  0  0  0  0  0
   -2.5162   -0.9224    0.0000 H   0  0  0  0  0  0  0  0  0  0  0  0
  1  2  1  0  0  0  0
  1 11  1  0  0  0  0
  1 14  1  0  0  0  0
  1 15  1  0  0  0  0
  2  3  1  0  0  0  0
  2 16  1  0  0  0  0
  3  4  1  0  0  0  0
  3 17  1  0  0  0  0
  3 18  1  0  0  0  0
  4  5  1  0  0  0  0
  4 19  1  0  0  0  0
  4 20  1  0  0  0  0
  5  6  1  0  0  0  0
  5 21  1  0  0  0  0
  5 22  1  0  0  0  0
  6  7  2  0  0  0  0
  6 11  1  0  0  0  0
  7  8  1  0  0  0  0
  7 23  1  0  0  0  0
  8  9  2  0  0  0  0
  8 24  1  0  0  0  0
  9 10  1  0  0  0  0
  9 12  1  0  0  0  0
 10 11  2  0  0  0  0
 10 13  1  0  0  0  0
M  END
>  <DRUGBANK_ID>
DB04273

>  <SECONDARY_ACCESSION_NUMBERS>
EXPT02072

>  <COMMON_NAME>
8,9-Dichloro-2,3,4,5-Tetrahydro-1h-Benzo[C]Azepine

>  <UNII>
2K2UE2I8AY

$$$$
