634
 OpenBabel10282417072D

 24 24  0  0  0  0  0  0  0  0999 V2000
    2.4751    0.7466    0.0000 S   0  0  0  0  0  0  0  0  0  0  0  0
    1.6500    0.7466    0.0000 O   0  0  0  0  0  0  0  0  0  0  0  0
    3.3001    0.7466    0.0000 O   0  0  0  0  0  0  0  0  0  0  0  0
    3.9041    1.5717    0.0000 O   0  0  0  0  0  0  0  0  0  0  0  0
    2.4751    1.5717    0.0000 N   0  0  0  0  0  0  0  0  0  0  0  0
    2.4751   -2.5534    0.0000 N   0  0  0  0  0  0  0  0  0  0  0  0
    2.4751   -0.0784    0.0000 C   0  0  0  0  0  0  0  0  0  0  0  0
    1.7606   -0.4909    0.0000 C   0  0  0  0  0  0  0  0  0  0  0  0
    3.1895   -0.4909    0.0000 C   0  0  0  0  0  0  0  0  0  0  0  0
    2.4751   -1.7284    0.0000 C   0  0  0  0  0  0  0  0  0  0  0  0
    1.7606   -1.3159    0.0000 C   0  0  0  0  0  0  0  0  0  0  0  0
    3.1895   -1.3159    0.0000 C   0  0  0  0  0  0  0  0  0  0  0  0
    3.1895    1.9842    0.0000 C   0  0  0  0  0  0  0  0  0  0  0  0
    3.1895    2.8092    0.0000 C   0  0  0  0  0  0  0  0  0  0  0  0
    1.6225    2.0639    0.0000 H   0  0  0  0  0  0  0  0  0  0  0  0
    1.6225   -3.0457    0.0000 H   0  0  0  0  0  0  0  0  0  0  0  0
    3.3277   -3.0456    0.0000 H   0  0  0  0  0  0  0  0  0  0  0  0
    0.8669    0.0251    0.0000 H   0  0  0  0  0  0  0  0  0  0  0  0
    4.0832    0.0251    0.0000 H   0  0  0  0  0  0  0  0  0  0  0  0
    0.8669   -1.8319    0.0000 H   0  0  0  0  0  0  0  0  0  0  0  0
    4.0832   -1.8319    0.0000 H   0  0  0  0  0  0  0  0  0  0  0  0
    4.1161    3.3442    0.0000 H   0  0  0  0  0  0  0  0  0  0  0  0
    2.2629    3.3442    0.0000 H   0  0  0  0  0  0  0  0  0  0  0  0
    3.1895    3.8792    0.0000 H   0  0  0  0  0  0  0  0  0  0  0  0
  1  2  2  0  0  0  0
  1  3  2  0  0  0  0
  1  5  1  0  0  0  0
  1  7  1  0  0  0  0
  4 13  2  0  0  0  0
  5 13  1  0  0  0  0
  5 15  1  0  0  0  0
  6 10  1  0  0  0  0
  6 16  1  0  0  0  0
  6 17  1  0  0  0  0
  7  8  2  0  0  0  0
  7  9  1  0  0  0  0
  8 11  1  0  0  0  0
  8 18  1  0  0  0  0
  9 12  2  0  0  0  0
  9 19  1  0  0  0  0
 10 11  2  0  0  0  0
 10 12  1  0  0  0  0
 11 20  1  0  0  0  0
 12 21  1  0  0  0  0
 13 14  1  0  0  0  0
 14 22  1  0  0  0  0
 14 23  1  0  0  0  0
 14 24  1  0  0  0  0
M  END
>  <DRUGBANK_ID>
DB00634

>  <SECONDARY_ACCESSION_NUMBERS>
APRD00452

>  <COMMON_NAME>
Sulfacetamide

>  <CAS_NUMBER>
144-80-9

>  <UNII>
4965G3J0F5

>  <SYNONYMS>
Acetosulfamine; N-((p-Aminophenyl)sulfonyl)acetamide; N-(p-Aminobenzenesulfonyl)acetamide; N-[(p-Aminophenyl)sulfonyl]acetamide; N-Acetyl-4-aminobenzenesulfonamide; N-Acetylsulfanilamide; N-Sulfanilylacetamide; N-Sulphanilylacetamide; N'-acetylsulfanilamide; N(1)-Acetyl-4-aminophenylsulfonamide; N(1)-Acetylsulfanilamide; p-Aminobenzenesulfonacetamide; p-Aminobenzenesulfonoacetamide; Sulfacetamid; Sulfacetamida; Sulfac√©tamide; Sulfacetamide; Sulfacetamidum; Sulfanilazetamid; Sulphacetamide; Sulphacetamidum

$$$$
