
 OpenBabel10282417072D

 42 43  0  0  0  0  0  0  0  0999 V2000
    3.5724   -2.0625    0.0000 C   0  0  0  0  0  0  0  0  0  0  0  0
    3.5724   -2.8875    0.0000 C   0  0  0  0  0  0  0  0  0  0  0  0
    4.2868   -3.3000    0.0000 C   0  0  0  0  0  0  0  0  0  0  0  0
    4.2868   -4.1250    0.0000 C   0  0  0  0  0  0  0  0  0  0  0  0
    3.5724   -4.5375    0.0000 C   0  0  0  0  0  0  0  0  0  0  0  0
    2.8579   -4.1250    0.0000 C   0  0  0  0  0  0  0  0  0  0  0  0
    2.8579   -3.3000    0.0000 C   0  0  0  0  0  0  0  0  0  0  0  0
    2.1434   -2.8875    0.0000 N   0  0  0  0  0  0  0  0  0  0  0  0
    3.5724   -5.3625    0.0000 S   0  0  0  0  0  0  0  0  0  0  0  0
    2.7474   -5.3625    0.0000 O   0  0  0  0  0  0  0  0  0  0  0  0
    4.3974   -5.3625    0.0000 O   0  0  0  0  0  0  0  0  0  0  0  0
    3.5724   -6.1875    0.0000 N   0  0  0  0  0  0  0  0  0  0  0  0
    2.8579   -6.6000    0.0000 C   0  0  0  0  0  0  0  0  0  0  0  0
    2.1434   -6.1875    0.0000 O   0  0  0  0  0  0  0  0  0  0  0  0
    2.8579   -7.4250    0.0000 N   0  0  0  0  0  0  0  0  0  0  0  0
    2.1434   -7.8375    0.0000 C   0  0  0  0  0  0  0  0  0  0  0  0
    2.1434   -8.6625    0.0000 C   0  0  0  0  0  0  0  0  0  0  0  0
    1.4289   -9.0750    0.0000 C   0  0  0  0  0  0  0  0  0  0  0  0
    0.7145   -8.6625    0.0000 C   0  0  0  0  0  0  0  0  0  0  0  0
    0.7145   -7.8375    0.0000 C   0  0  0  0  0  0  0  0  0  0  0  0
    1.4289   -7.4250    0.0000 C   0  0  0  0  0  0  0  0  0  0  0  0
    4.4990   -1.5275    0.0000 H   0  0  0  0  0  0  0  0  0  0  0  0
    2.6458   -1.5275    0.0000 H   0  0  0  0  0  0  0  0  0  0  0  0
    3.5724   -0.9925    0.0000 H   0  0  0  0  0  0  0  0  0  0  0  0
    5.1805   -2.7840    0.0000 H   0  0  0  0  0  0  0  0  0  0  0  0
    5.1805   -4.6410    0.0000 H   0  0  0  0  0  0  0  0  0  0  0  0
    1.9642   -4.6410    0.0000 H   0  0  0  0  0  0  0  0  0  0  0  0
    2.1434   -1.9030    0.0000 H   0  0  0  0  0  0  0  0  0  0  0  0
    1.2908   -3.3798    0.0000 H   0  0  0  0  0  0  0  0  0  0  0  0
    4.4250   -6.6798    0.0000 H   0  0  0  0  0  0  0  0  0  0  0  0
    3.7105   -7.9173    0.0000 H   0  0  0  0  0  0  0  0  0  0  0  0
    1.2168   -8.3725    0.0000 H   0  0  0  0  0  0  0  0  0  0  0  0
    3.0700   -9.1975    0.0000 H   0  0  0  0  0  0  0  0  0  0  0  0
    2.1434   -9.7325    0.0000 H   0  0  0  0  0  0  0  0  0  0  0  0
    1.4289  -10.1450    0.0000 H   0  0  0  0  0  0  0  0  0  0  0  0
    0.5022   -9.6100    0.0000 H   0  0  0  0  0  0  0  0  0  0  0  0
   -0.2122   -9.1975    0.0000 H   0  0  0  0  0  0  0  0  0  0  0  0
   -0.2121   -8.1275    0.0000 H   0  0  0  0  0  0  0  0  0  0  0  0
   -0.2122   -7.3025    0.0000 H   0  0  0  0  0  0  0  0  0  0  0  0
    0.7145   -6.7675    0.0000 H   0  0  0  0  0  0  0  0  0  0  0  0
    1.4289   -6.3550    0.0000 H   0  0  0  0  0  0  0  0  0  0  0  0
    2.3555   -6.8900    0.0000 H   0  0  0  0  0  0  0  0  0  0  0  0
  1  2  1  0  0  0  0
  1 22  1  0  0  0  0
  1 23  1  0  0  0  0
  1 24  1  0  0  0  0
  2  3  2  0  0  0  0
  2  7  1  0  0  0  0
  3  4  1  0  0  0  0
  3 25  1  0  0  0  0
  4  5  2  0  0  0  0
  4 26  1  0  0  0  0
  5  6  1  0  0  0  0
  5  9  1  0  0  0  0
  6  7  2  0  0  0  0
  6 27  1  0  0  0  0
  7  8  1  0  0  0  0
  8 28  1  0  0  0  0
  8 29  1  0  0  0  0
  9 10  2  0  0  0  0
  9 11  2  0  0  0  0
  9 12  1  0  0  0  0
 12 13  1  0  0  0  0
 12 30  1  0  0  0  0
 13 14  2  0  0  0  0
 13 15  1  0  0  0  0
 15 16  1  0  0  0  0
 15 31  1  0  0  0  0
 16 17  1  0  0  0  0
 16 21  1  0  0  0  0
 16 32  1  0  0  0  0
 17 18  1  0  0  0  0
 17 33  1  0  0  0  0
 17 34  1  0  0  0  0
 18 19  1  0  0  0  0
 18 35  1  0  0  0  0
 18 36  1  0  0  0  0
 19 20  1  0  0  0  0
 19 37  1  0  0  0  0
 19 38  1  0  0  0  0
 20 21  1  0  0  0  0
 20 39  1  0  0  0  0
 20 40  1  0  0  0  0
 21 41  1  0  0  0  0
 21 42  1  0  0  0  0
M  END
>  <DRUGBANK_ID>
DB13675

>  <COMMON_NAME>
Metahexamide

>  <CAS_NUMBER>
565-33-3

>  <UNII>
T3U6F5D722

>  <SYNONYMS>
Metahexamide

$$$$
