
 OpenBabel10282417072D

 31 33  0  0  1  0  0  0  0  0999 V2000
    1.7798    3.9841    0.0000 C   0  0  0  0  0  0  0  0  0  0  0  0
    3.9934    0.8250    0.0000 C   0  0  0  0  0  0  0  0  0  0  0  0
    1.5249    3.1994    0.0000 C   0  0  2  0  0  0  0  0  0  0  0  0
    2.5645    0.8250    0.0000 C   0  0  0  0  0  0  0  0  0  0  0  0
    1.7798    1.0799    0.0000 C   0  0  0  0  0  0  0  0  0  0  0  0
    2.5645    0.0000    0.0000 C   0  0  0  0  0  0  0  0  0  0  0  0
    0.7403    2.9445    0.0000 C   0  0  2  0  0  0  0  0  0  0  0  0
    0.7403    2.1195    0.0000 C   0  0  2  0  0  0  0  0  0  0  0  0
    1.5249    1.8646    0.0000 C   0  0  1  0  0  0  0  0  0  0  0  0
    3.2789   -0.4125    0.0000 C   0  0  0  0  0  0  0  0  0  0  0  0
    3.2789    1.2375    0.0000 N   0  0  0  0  0  0  0  0  0  0  0  0
    3.9934    0.0000    0.0000 N   0  0  0  0  0  0  0  0  0  0  0  0
    1.2949    0.4125    0.0000 N   0  0  0  0  0  0  0  0  0  0  0  0
    1.7798   -0.2549    0.0000 N   0  0  0  0  0  0  0  0  0  0  0  0
    1.2278    4.5972    0.0000 O   0  0  0  0  0  0  0  0  0  0  0  0
    0.0728    3.4294    0.0000 O   0  0  0  0  0  0  0  0  0  0  0  0
    0.0728    1.6346    0.0000 O   0  0  0  0  0  0  0  0  0  0  0  0
    3.2789   -1.2375    0.0000 O   0  0  0  0  0  0  0  0  0  0  0  0
    2.0098    2.5320    0.0000 O   0  0  0  0  0  0  0  0  0  0  0  0
    0.7772    3.5481    0.0000 H   0  0  0  0  0  0  0  0  0  0  0  0
    0.5829    3.7543    0.0000 H   0  0  0  0  0  0  0  0  0  0  0  0
    0.0052    2.4940    0.0000 H   0  0  0  0  0  0  0  0  0  0  0  0
    0.9415    1.2812    0.0000 H   0  0  0  0  0  0  0  0  0  0  0  0
    2.8264    4.2066    0.0000 H   0  0  0  0  0  0  0  0  0  0  0  0
    2.1105    5.0017    0.0000 H   0  0  0  0  0  0  0  0  0  0  0  0
    4.8871    1.3410    0.0000 H   0  0  0  0  0  0  0  0  0  0  0  0
    4.8460   -0.4923    0.0000 H   0  0  0  0  0  0  0  0  0  0  0  0
    0.3104    0.4125    0.0000 H   0  0  0  0  0  0  0  0  0  0  0  0
    1.5276    5.5197    0.0000 H   0  0  0  0  0  0  0  0  0  0  0  0
    0.1741    4.3941    0.0000 H   0  0  0  0  0  0  0  0  0  0  0  0
   -0.8133    2.0292    0.0000 H   0  0  0  0  0  0  0  0  0  0  0  0
  1 24  1  0  0  0  0
  1 25  1  0  0  0  0
  2 26  1  0  0  0  0
  3  1  1  0  0  0  0
  3 20  1  6  0  0  0
  5  4  2  0  0  0  0
  6  4  1  0  0  0  0
  7  3  1  0  0  0  0
  7 16  1  0  0  0  0
  7 21  1  1  0  0  0
  8  7  1  0  0  0  0
  8 17  1  0  0  0  0
  8 22  1  1  0  0  0
  9  5  1  0  0  0  0
  9  8  1  0  0  0  0
  9 23  1  6  0  0  0
 10  6  1  0  0  0  0
 11  2  2  0  0  0  0
 11  4  1  0  0  0  0
 12  2  1  0  0  0  0
 12 10  1  0  0  0  0
 12 27  1  0  0  0  0
 13  5  1  0  0  0  0
 13 28  1  0  0  0  0
 14  6  2  0  0  0  0
 14 13  1  0  0  0  0
 15  1  1  0  0  0  0
 15 29  1  0  0  0  0
 16 30  1  0  0  0  0
 17 31  1  0  0  0  0
 18 10  2  0  0  0  0
 19  3  1  0  0  0  0
 19  9  1  0  0  0  0
M  END
>  <DRUGBANK_ID>
DB04198

>  <SECONDARY_ACCESSION_NUMBERS>
EXPT01452

>  <COMMON_NAME>
Formycin B

>  <UNII>
796VMV3YML

$$$$
