1615
 OpenBabel10282417072D

 45 47  0  0  1  0  0  0  0  0999 V2000
    3.6958   -1.9664    0.0000 S   0  0  0  0  0  0  0  0  0  0  0  0
    6.4888    0.4289    0.0000 O   0  0  0  0  0  0  0  0  0  0  0  0
    3.6958   -0.3823    0.0000 N   0  0  0  0  0  0  0  0  0  0  0  0
    3.0099    1.5979    0.0000 N   0  0  0  0  0  0  0  0  0  0  0  0
    3.0099    0.8058    0.0000 C   0  0  3  0  0  0  0  0  0  0  0  0
    3.6958    0.4098    0.0000 C   0  0  0  0  0  0  0  0  0  0  0  0
    4.3818   -0.7783    0.0000 C   0  0  0  0  0  0  0  0  0  0  0  0
    3.0099   -0.7783    0.0000 C   0  0  0  0  0  0  0  0  0  0  0  0
    2.3240    0.4098    0.0000 C   0  0  0  0  0  0  0  0  0  0  0  0
    4.3818   -1.5704    0.0000 C   0  0  0  0  0  0  0  0  0  0  0  0
    3.0099   -1.5704    0.0000 C   0  0  0  0  0  0  0  0  0  0  0  0
    5.0899   -0.3548    0.0000 C   0  0  0  0  0  0  0  0  0  0  0  0
    2.3240    1.9939    0.0000 C   0  0  0  0  0  0  0  0  0  0  0  0
    3.6958    1.9939    0.0000 C   0  0  0  0  0  0  0  0  0  0  0  0
    2.3018   -0.3548    0.0000 C   0  0  0  0  0  0  0  0  0  0  0  0
    5.8075   -0.7619    0.0000 C   0  0  0  0  0  0  0  0  0  0  0  0
    5.0899   -1.9939    0.0000 C   0  0  0  0  0  0  0  0  0  0  0  0
    2.3018   -1.9939    0.0000 C   0  0  0  0  0  0  0  0  0  0  0  0
    5.8075   -1.5869    0.0000 C   0  0  0  0  0  0  0  0  0  0  0  0
    1.5841   -0.7619    0.0000 C   0  0  0  0  0  0  0  0  0  0  0  0
    1.5841   -1.5869    0.0000 C   0  0  0  0  0  0  0  0  0  0  0  0
    6.4920   -0.3632    0.0000 C   0  0  0  0  0  0  0  0  0  0  0  0
    7.1794   -0.7565    0.0000 C   0  0  0  0  0  0  0  0  0  0  0  0
    3.9365    1.3408    0.0000 H   0  0  0  0  0  0  0  0  0  0  0  0
    4.6224    0.9448    0.0000 H   0  0  0  0  0  0  0  0  0  0  0  0
    3.6958    1.4798    0.0000 H   0  0  0  0  0  0  0  0  0  0  0  0
    1.3974    0.9448    0.0000 H   0  0  0  0  0  0  0  0  0  0  0  0
    2.3240   -0.6602    0.0000 H   0  0  0  0  0  0  0  0  0  0  0  0
    1.3974   -0.1252    0.0000 H   0  0  0  0  0  0  0  0  0  0  0  0
    5.0780    0.6771    0.0000 H   0  0  0  0  0  0  0  0  0  0  0  0
    2.3240    3.0639    0.0000 H   0  0  0  0  0  0  0  0  0  0  0  0
    1.3974    1.4589    0.0000 H   0  0  0  0  0  0  0  0  0  0  0  0
    1.3974    2.5289    0.0000 H   0  0  0  0  0  0  0  0  0  0  0  0
    4.6224    1.4589    0.0000 H   0  0  0  0  0  0  0  0  0  0  0  0
    3.6958    3.0639    0.0000 H   0  0  0  0  0  0  0  0  0  0  0  0
    4.6224    2.5289    0.0000 H   0  0  0  0  0  0  0  0  0  0  0  0
    2.3137    0.6771    0.0000 H   0  0  0  0  0  0  0  0  0  0  0  0
    5.0780   -3.0258    0.0000 H   0  0  0  0  0  0  0  0  0  0  0  0
    2.3137   -3.0258    0.0000 H   0  0  0  0  0  0  0  0  0  0  0  0
    6.6993   -2.1063    0.0000 H   0  0  0  0  0  0  0  0  0  0  0  0
    0.6923   -0.2425    0.0000 H   0  0  0  0  0  0  0  0  0  0  0  0
    0.6924   -2.1064    0.0000 H   0  0  0  0  0  0  0  0  0  0  0  0
    7.1836   -1.8265    0.0000 H   0  0  0  0  0  0  0  0  0  0  0  0
    8.1040   -0.2179    0.0000 H   0  0  0  0  0  0  0  0  0  0  0  0
    8.1081   -1.2879    0.0000 H   0  0  0  0  0  0  0  0  0  0  0  0
  1 10  1  0  0  0  0
  1 11  1  0  0  0  0
  2 22  2  0  0  0  0
  3  6  1  0  0  0  0
  3  7  1  0  0  0  0
  3  8  1  0  0  0  0
  4  5  1  0  0  0  0
  4 13  1  0  0  0  0
  4 14  1  0  0  0  0
  5  6  1  0  0  0  0
  5  9  1  0  0  0  0
  5 24  1  0  0  0  0
  6 25  1  0  0  0  0
  6 26  1  0  0  0  0
  7 10  2  0  0  0  0
  7 12  1  0  0  0  0
  8 11  1  0  0  0  0
  8 15  2  0  0  0  0
  9 27  1  0  0  0  0
  9 28  1  0  0  0  0
  9 29  1  0  0  0  0
 10 17  1  0  0  0  0
 11 18  2  0  0  0  0
 12 16  2  0  0  0  0
 12 30  1  0  0  0  0
 13 31  1  0  0  0  0
 13 32  1  0  0  0  0
 13 33  1  0  0  0  0
 14 34  1  0  0  0  0
 14 35  1  0  0  0  0
 14 36  1  0  0  0  0
 15 20  1  0  0  0  0
 15 37  1  0  0  0  0
 16 19  1  0  0  0  0
 16 22  1  0  0  0  0
 17 19  2  0  0  0  0
 17 38  1  0  0  0  0
 18 21  1  0  0  0  0
 18 39  1  0  0  0  0
 19 40  1  0  0  0  0
 20 21  2  0  0  0  0
 20 41  1  0  0  0  0
 21 42  1  0  0  0  0
 22 23  1  0  0  0  0
 23 43  1  0  0  0  0
 23 44  1  0  0  0  0
 23 45  1  0  0  0  0
M  END
>  <DRUGBANK_ID>
DB01615

>  <COMMON_NAME>
Aceprometazine

>  <CAS_NUMBER>
13461-01-3

>  <UNII>
984N9YTM4Y

>  <SYNONYMS>
10-(2-(Dimethylamino)propyl)phenothiazin-2-yl methyl ketone; Aceprometazina; Aceprometazine; Acéprométazine; Aceprometazinum; Acepromethazine

$$$$
