
 OpenBabel10282417072D

 45 48  0  0  0  0  0  0  0  0999 V2000
   -2.8579    2.4750    0.0000 C   0  0  0  0  0  0  0  0  0  0  0  0
    2.8579    2.4750    0.0000 C   0  0  0  0  0  0  0  0  0  0  0  0
   -2.1434    1.2375    0.0000 C   0  0  0  0  0  0  0  0  0  0  0  0
   -1.4289    2.4750    0.0000 C   0  0  0  0  0  0  0  0  0  0  0  0
   -1.4289    0.8250    0.0000 C   0  0  0  0  0  0  0  0  0  0  0  0
   -0.7145    2.0625    0.0000 C   0  0  0  0  0  0  0  0  0  0  0  0
    0.7145   -0.4125    0.0000 C   0  0  0  0  0  0  0  0  0  0  0  0
    2.8579    0.8250    0.0000 C   0  0  0  0  0  0  0  0  0  0  0  0
    1.4289    2.4750    0.0000 C   0  0  0  0  0  0  0  0  0  0  0  0
    1.4289    0.0000    0.0000 C   0  0  0  0  0  0  0  0  0  0  0  0
    2.8579   -0.0000    0.0000 C   0  0  0  0  0  0  0  0  0  0  0  0
   -0.0000    0.0000    0.0000 C   0  0  0  0  0  0  0  0  0  0  0  0
    1.4289    0.8250    0.0000 C   0  0  0  0  0  0  0  0  0  0  0  0
    0.0000    0.8250    0.0000 C   0  0  0  0  0  0  0  0  0  0  0  0
    2.1434   -0.4125    0.0000 C   0  0  0  0  0  0  0  0  0  0  0  0
    0.7145    1.2375    0.0000 C   0  0  0  0  0  0  0  0  0  0  0  0
    3.5724   -0.4125    0.0000 C   0  0  0  0  0  0  0  0  0  0  0  0
   -0.7145   -0.4125    0.0000 F   0  0  0  0  0  0  0  0  0  0  0  0
   -2.1434    2.0625    0.0000 N   0  0  0  0  0  0  0  0  0  0  0  0
    2.1434    2.0625    0.0000 N   0  0  0  0  0  0  0  0  0  0  0  0
   -0.7145    1.2375    0.0000 N   0  0  0  0  0  0  0  0  0  0  0  0
    2.1434    1.2375    0.0000 N   0  0  0  0  0  0  0  0  0  0  0  0
    2.1434   -1.2375    0.0000 O   0  0  0  0  0  0  0  0  0  0  0  0
    4.2868    0.0000    0.0000 O   0  0  0  0  0  0  0  0  0  0  0  0
    3.5724   -1.2375    0.0000 O   0  0  0  0  0  0  0  0  0  0  0  0
    0.7145    2.0625    0.0000 O   0  0  0  0  0  0  0  0  0  0  0  0
   -2.8579    3.5450    0.0000 H   0  0  0  0  0  0  0  0  0  0  0  0
   -3.7845    1.9400    0.0000 H   0  0  0  0  0  0  0  0  0  0  0  0
   -3.7846    3.0100    0.0000 H   0  0  0  0  0  0  0  0  0  0  0  0
    3.7845    1.9400    0.0000 H   0  0  0  0  0  0  0  0  0  0  0  0
    2.8579    3.5450    0.0000 H   0  0  0  0  0  0  0  0  0  0  0  0
    3.7846    3.0100    0.0000 H   0  0  0  0  0  0  0  0  0  0  0  0
   -3.0700    0.7025    0.0000 H   0  0  0  0  0  0  0  0  0  0  0  0
   -3.0700    1.7725    0.0000 H   0  0  0  0  0  0  0  0  0  0  0  0
   -1.4289    3.5450    0.0000 H   0  0  0  0  0  0  0  0  0  0  0  0
   -2.3555    3.0100    0.0000 H   0  0  0  0  0  0  0  0  0  0  0  0
   -1.4289   -0.2450    0.0000 H   0  0  0  0  0  0  0  0  0  0  0  0
   -0.5022    0.2900    0.0000 H   0  0  0  0  0  0  0  0  0  0  0  0
    0.2122    2.5975    0.0000 H   0  0  0  0  0  0  0  0  0  0  0  0
    0.2121    1.5275    0.0000 H   0  0  0  0  0  0  0  0  0  0  0  0
    0.7145   -1.4445    0.0000 H   0  0  0  0  0  0  0  0  0  0  0  0
    3.7516    1.3410    0.0000 H   0  0  0  0  0  0  0  0  0  0  0  0
    1.4289    3.5450    0.0000 H   0  0  0  0  0  0  0  0  0  0  0  0
    0.5022    3.0100    0.0000 H   0  0  0  0  0  0  0  0  0  0  0  0
    2.7609   -1.7060    0.0000 H   0  0  0  0  0  0  0  0  0  0  0  0
  1 27  1  0  0  0  0
  1 28  1  0  0  0  0
  1 29  1  0  0  0  0
  2 30  1  0  0  0  0
  2 31  1  0  0  0  0
  2 32  1  0  0  0  0
  3 33  1  0  0  0  0
  3 34  1  0  0  0  0
  4 35  1  0  0  0  0
  4 36  1  0  0  0  0
  5  3  1  0  0  0  0
  5 37  1  0  0  0  0
  5 38  1  0  0  0  0
  6  4  1  0  0  0  0
  6 39  1  0  0  0  0
  6 40  1  0  0  0  0
  7 41  1  0  0  0  0
  8 42  1  0  0  0  0
  9 43  1  0  0  0  0
  9 44  1  0  0  0  0
 10  7  2  0  0  0  0
 11  8  2  0  0  0  0
 12  7  1  0  0  0  0
 13 10  1  0  0  0  0
 14 12  2  0  0  0  0
 15 10  1  0  0  0  0
 15 11  1  0  0  0  0
 16 13  2  0  0  0  0
 16 14  1  0  0  0  0
 17 11  1  0  0  0  0
 18 12  1  0  0  0  0
 19  1  1  0  0  0  0
 19  3  1  0  0  0  0
 19  4  1  0  0  0  0
 20  2  1  0  0  0  0
 20  9  1  0  0  0  0
 21  5  1  0  0  0  0
 21  6  1  0  0  0  0
 21 14  1  0  0  0  0
 22  8  1  0  0  0  0
 22 13  1  0  0  0  0
 22 20  1  0  0  0  0
 23 15  2  0  0  0  0
 24 17  2  0  0  0  0
 25 17  1  0  0  0  0
 25 45  1  0  0  0  0
 26  9  1  0  0  0  0
 26 16  1  0  0  0  0
M  END
>  <DRUGBANK_ID>
DB11426

>  <COMMON_NAME>
Marbofloxacin

>  <CAS_NUMBER>
115550-35-1

>  <UNII>
8X09WU898T

>  <SYNONYMS>
Marbofloxacin

$$$$
