
 OpenBabel10282417072D

 37 36  0  0  0  0  0  0  0  0999 V2000
    9.2368   -2.0329    0.0000 C   0  0  0  0  0  0  0  0  0  0  0  0
    9.2368   -2.8579    0.0000 N   0  0  0  0  0  0  0  0  0  0  0  0
    8.5224   -3.2704    0.0000 C   0  0  0  0  0  0  0  0  0  0  0  0
    7.8079   -2.8579    0.0000 C   0  0  0  0  0  0  0  0  0  0  0  0
    7.0934   -3.2704    0.0000 O   0  0  0  0  0  0  0  0  0  0  0  0
    6.3789   -2.8579    0.0000 P   0  0  2  0  0  0  0  0  0  0  0  0
    5.9664   -3.5724    0.0000 O   0  5  0  0  0  0  0  0  0  0  0  0
    6.7914   -2.1434    0.0000 O   0  0  0  0  0  0  0  0  0  0  0  0
    5.6645   -2.4454    0.0000 O   0  0  0  0  0  0  0  0  0  0  0  0
    4.9500   -2.8579    0.0000 P   0  0  0  0  0  0  0  0  0  0  0  0
    4.2355   -3.2704    0.0000 O   0  5  0  0  0  0  0  0  0  0  0  0
    5.3625   -3.5724    0.0000 O   0  5  0  0  0  0  0  0  0  0  0  0
    4.5375   -2.1434    0.0000 O   0  0  0  0  0  0  0  0  0  0  0  0
    9.9513   -3.2704    0.0000 C   0  0  0  0  0  0  0  0  0  0  0  0
   10.6658   -2.8579    0.0000 C   0  0  0  0  0  0  0  0  0  0  0  0
   11.3802   -3.2704    0.0000 C   0  0  0  0  0  0  0  0  0  0  0  0
   12.0947   -2.8579    0.0000 C   0  0  0  0  0  0  0  0  0  0  0  0
   12.0947   -2.0329    0.0000 C   0  0  0  0  0  0  0  0  0  0  0  0
   12.8092   -3.2704    0.0000 C   0  0  0  0  0  0  0  0  0  0  0  0
   10.1634   -1.4979    0.0000 H   0  0  0  0  0  0  0  0  0  0  0  0
    8.3102   -1.4979    0.0000 H   0  0  0  0  0  0  0  0  0  0  0  0
    9.2368   -0.9629    0.0000 H   0  0  0  0  0  0  0  0  0  0  0  0
    8.5224   -4.3404    0.0000 H   0  0  0  0  0  0  0  0  0  0  0  0
    7.5958   -3.8054    0.0000 H   0  0  0  0  0  0  0  0  0  0  0  0
    7.8079   -1.7879    0.0000 H   0  0  0  0  0  0  0  0  0  0  0  0
    6.8813   -2.3229    0.0000 H   0  0  0  0  0  0  0  0  0  0  0  0
    9.9513   -4.3404    0.0000 H   0  0  0  0  0  0  0  0  0  0  0  0
   10.8779   -3.8054    0.0000 H   0  0  0  0  0  0  0  0  0  0  0  0
   10.6658   -1.7879    0.0000 H   0  0  0  0  0  0  0  0  0  0  0  0
   11.5925   -2.3229    0.0000 H   0  0  0  0  0  0  0  0  0  0  0  0
   11.3802   -4.3024    0.0000 H   0  0  0  0  0  0  0  0  0  0  0  0
   13.0213   -1.4979    0.0000 H   0  0  0  0  0  0  0  0  0  0  0  0
   11.1681   -1.4979    0.0000 H   0  0  0  0  0  0  0  0  0  0  0  0
   12.0947   -0.9629    0.0000 H   0  0  0  0  0  0  0  0  0  0  0  0
   12.8092   -4.3404    0.0000 H   0  0  0  0  0  0  0  0  0  0  0  0
   13.7358   -2.7354    0.0000 H   0  0  0  0  0  0  0  0  0  0  0  0
   13.7359   -3.8054    0.0000 H   0  0  0  0  0  0  0  0  0  0  0  0
  1  2  1  0  0  0  0
  1 20  1  0  0  0  0
  1 21  1  0  0  0  0
  1 22  1  0  0  0  0
  2  3  1  0  0  0  0
  2 14  1  0  0  0  0
  3  4  1  0  0  0  0
  3 23  1  0  0  0  0
  3 24  1  0  0  0  0
  4  5  1  0  0  0  0
  4 25  1  0  0  0  0
  4 26  1  0  0  0  0
  6  5  1  0  0  0  0
  6  7  1  6  0  0  0
  6  8  2  0  0  0  0
  6  9  1  0  0  0  0
  9 10  1  0  0  0  0
 10 11  1  0  0  0  0
 10 12  1  0  0  0  0
 10 13  2  0  0  0  0
 14 15  1  0  0  0  0
 14 27  1  0  0  0  0
 14 28  1  0  0  0  0
 15 16  1  0  0  0  0
 15 29  1  0  0  0  0
 15 30  1  0  0  0  0
 16 17  2  0  0  0  0
 16 31  1  0  0  0  0
 17 18  1  0  0  0  0
 17 19  1  0  0  0  0
 18 32  1  0  0  0  0
 18 33  1  0  0  0  0
 18 34  1  0  0  0  0
 19 35  1  0  0  0  0
 19 36  1  0  0  0  0
 19 37  1  0  0  0  0
M  CHG  3   7  -1  11  -1  12  -1
M  END
>  <DRUGBANK_ID>
DB02369

>  <SECONDARY_ACCESSION_NUMBERS>
EXPT00160

>  <COMMON_NAME>
3-Aza-2,3-Dihydrogeranyl Diphosphate

$$$$
