
 OpenBabel10282417072D

 45 46  0  0  0  0  0  0  0  0999 V2000
   -0.3571   -0.8250    0.0000 C   0  0  1  0  0  0  0  0  0  0  0  0
   -0.3571   -1.6500    0.0000 C   0  0  1  0  0  0  0  0  0  0  0  0
   -1.0716   -0.4125    0.0000 O   0  0  0  0  0  0  0  0  0  0  0  0
   -1.0716   -2.0625    0.0000 C   0  0  2  0  0  0  0  0  0  0  0  0
   -1.7861   -0.8250    0.0000 C   0  0  1  0  0  0  0  0  0  0  0  0
   -1.7861   -1.6500    0.0000 C   0  0  2  0  0  0  0  0  0  0  0  0
    0.3573   -2.0625    0.0000 O   0  0  0  0  0  0  0  0  0  0  0  0
   -1.0716   -2.8874    0.0000 O   0  0  0  0  0  0  0  0  0  0  0  0
   -2.5005   -2.0625    0.0000 O   0  0  0  0  0  0  0  0  0  0  0  0
   -2.5005   -0.4125    0.0000 C   0  0  0  0  0  0  0  0  0  0  0  0
   -3.2151   -0.8250    0.0000 O   0  0  0  0  0  0  0  0  0  0  0  0
    1.7862    2.0625    0.0000 C   0  0  3  0  0  0  0  0  0  0  0  0
    2.5007    1.6500    0.0000 C   0  0  1  0  0  0  0  0  0  0  0  0
    1.0718    1.6500    0.0000 O   0  0  0  0  0  0  0  0  0  0  0  0
    2.5007    0.8250    0.0000 C   0  0  2  0  0  0  0  0  0  0  0  0
    1.0718    0.8250    0.0000 C   0  0  1  0  0  0  0  0  0  0  0  0
    1.7862    0.4125    0.0000 C   0  0  1  0  0  0  0  0  0  0  0  0
    1.7862    2.8874    0.0000 O   0  0  0  0  0  0  0  0  0  0  0  0
    3.2151    2.0625    0.0000 O   0  0  0  0  0  0  0  0  0  0  0  0
    3.2151    0.4125    0.0000 O   0  0  0  0  0  0  0  0  0  0  0  0
    1.7862   -0.4124    0.0000 O   0  0  0  0  0  0  0  0  0  0  0  0
    0.3573    0.4125    0.0000 C   0  0  0  0  0  0  0  0  0  0  0  0
    0.3573   -0.4125    0.0000 O   0  0  0  0  0  0  0  0  0  0  0  0
    0.5696   -1.3600    0.0000 H   0  0  0  0  0  0  0  0  0  0  0  0
    0.5696   -1.1150    0.0000 H   0  0  0  0  0  0  0  0  0  0  0  0
   -0.1450   -2.5975    0.0000 H   0  0  0  0  0  0  0  0  0  0  0  0
   -1.7861    0.2450    0.0000 H   0  0  0  0  0  0  0  0  0  0  0  0
   -1.7861   -2.7200    0.0000 H   0  0  0  0  0  0  0  0  0  0  0  0
    0.3573   -3.0325    0.0000 H   0  0  0  0  0  0  0  0  0  0  0  0
   -1.9116   -3.3724    0.0000 H   0  0  0  0  0  0  0  0  0  0  0  0
   -3.3406   -1.5775    0.0000 H   0  0  0  0  0  0  0  0  0  0  0  0
   -2.5004    0.6575    0.0000 H   0  0  0  0  0  0  0  0  0  0  0  0
   -3.4271    0.1226    0.0000 H   0  0  0  0  0  0  0  0  0  0  0  0
   -4.0551   -0.3399    0.0000 H   0  0  0  0  0  0  0  0  0  0  0  0
    1.7862    0.9925    0.0000 H   0  0  0  0  0  0  0  0  0  0  0  0
    2.5007    2.7200    0.0000 H   0  0  0  0  0  0  0  0  0  0  0  0
    3.4274    1.3600    0.0000 H   0  0  0  0  0  0  0  0  0  0  0  0
    0.1452    1.3600    0.0000 H   0  0  0  0  0  0  0  0  0  0  0  0
    2.7128   -0.1225    0.0000 H   0  0  0  0  0  0  0  0  0  0  0  0
    2.6262    3.3724    0.0000 H   0  0  0  0  0  0  0  0  0  0  0  0
    4.0552    1.5775    0.0000 H   0  0  0  0  0  0  0  0  0  0  0  0
    3.2151   -0.5575    0.0000 H   0  0  0  0  0  0  0  0  0  0  0  0
    0.9462   -0.8974    0.0000 H   0  0  0  0  0  0  0  0  0  0  0  0
   -0.5693    0.9475    0.0000 H   0  0  0  0  0  0  0  0  0  0  0  0
   -0.5693   -0.1225    0.0000 H   0  0  0  0  0  0  0  0  0  0  0  0
  1  2  1  0  0  0  0
  1  3  1  0  0  0  0
  1 23  1  0  0  0  0
  1 24  1  6  0  0  0
  2  4  1  0  0  0  0
  2  7  1  0  0  0  0
  2 25  1  1  0  0  0
  3  5  1  0  0  0  0
  4  6  1  0  0  0  0
  4  8  1  0  0  0  0
  4 26  1  6  0  0  0
  5  6  1  0  0  0  0
  5 10  1  0  0  0  0
  5 27  1  6  0  0  0
  6  9  1  0  0  0  0
  6 28  1  6  0  0  0
  7 29  1  0  0  0  0
  8 30  1  0  0  0  0
  9 31  1  0  0  0  0
 10 11  1  0  0  0  0
 10 32  1  0  0  0  0
 10 33  1  0  0  0  0
 11 34  1  0  0  0  0
 12 13  1  0  0  0  0
 12 14  1  0  0  0  0
 12 18  1  0  0  0  0
 12 35  1  4  0  0  0
 13 15  1  0  0  0  0
 13 19  1  0  0  0  0
 13 36  1  1  0  0  0
 14 16  1  0  0  0  0
 15 17  1  0  0  0  0
 15 20  1  0  0  0  0
 15 37  1  6  0  0  0
 16 17  1  0  0  0  0
 16 22  1  0  0  0  0
 16 38  1  6  0  0  0
 17 21  1  0  0  0  0
 17 39  1  1  0  0  0
 18 40  1  0  0  0  0
 19 41  1  0  0  0  0
 20 42  1  0  0  0  0
 21 43  1  0  0  0  0
 22 23  1  0  0  0  0
 22 44  1  0  0  0  0
 22 45  1  0  0  0  0
M  END
>  <DRUGBANK_ID>
DB04116

>  <SECONDARY_ACCESSION_NUMBERS>
EXPT01999

>  <COMMON_NAME>
Allolactose

>  <CAS_NUMBER>
645-03-4

>  <SYNONYMS>
6-O-Î²-D-galactopyranosyl-D-glucopyranose

$$$$
