1056
 OpenBabel10282417072D

 30 30  0  0  1  0  0  0  0  0999 V2000
    4.5080    0.1568    0.0000 O   0  0  0  0  0  0  0  0  0  0  0  0
    3.0791    0.1568    0.0000 N   0  0  0  0  0  0  0  0  0  0  0  0
    4.5080    1.8068    0.0000 N   0  0  0  0  0  0  0  0  0  0  0  0
    3.0791   -0.6683    0.0000 C   0  0  0  0  0  0  0  0  0  0  0  0
    3.7935   -1.0808    0.0000 C   0  0  0  0  0  0  0  0  0  0  0  0
    2.3645   -1.0808    0.0000 C   0  0  0  0  0  0  0  0  0  0  0  0
    3.7935    1.3943    0.0000 C   0  0  3  0  0  0  0  0  0  0  0  0
    3.7935    0.5693    0.0000 C   0  0  0  0  0  0  0  0  0  0  0  0
    3.7935   -1.9058    0.0000 C   0  0  0  0  0  0  0  0  0  0  0  0
    2.3645   -1.9058    0.0000 C   0  0  0  0  0  0  0  0  0  0  0  0
    4.5080   -0.6683    0.0000 C   0  0  0  0  0  0  0  0  0  0  0  0
    1.6500   -0.6683    0.0000 C   0  0  0  0  0  0  0  0  0  0  0  0
    3.0791   -2.3183    0.0000 C   0  0  0  0  0  0  0  0  0  0  0  0
    3.0791    1.8068    0.0000 C   0  0  0  0  0  0  0  0  0  0  0  0
    2.2265    0.6490    0.0000 H   0  0  0  0  0  0  0  0  0  0  0  0
    5.3913    1.2968    0.0000 H   0  0  0  0  0  0  0  0  0  0  0  0
    4.5080    2.8268    0.0000 H   0  0  0  0  0  0  0  0  0  0  0  0
    4.7201    0.8593    0.0000 H   0  0  0  0  0  0  0  0  0  0  0  0
    4.6872   -2.4218    0.0000 H   0  0  0  0  0  0  0  0  0  0  0  0
    1.4708   -2.4218    0.0000 H   0  0  0  0  0  0  0  0  0  0  0  0
    5.4346   -1.2033    0.0000 H   0  0  0  0  0  0  0  0  0  0  0  0
    4.5080    0.4017    0.0000 H   0  0  0  0  0  0  0  0  0  0  0  0
    5.4347   -0.1333    0.0000 H   0  0  0  0  0  0  0  0  0  0  0  0
    1.6500    0.4017    0.0000 H   0  0  0  0  0  0  0  0  0  0  0  0
    0.7234   -1.2033    0.0000 H   0  0  0  0  0  0  0  0  0  0  0  0
    0.7233   -0.1333    0.0000 H   0  0  0  0  0  0  0  0  0  0  0  0
    3.0792   -3.3503    0.0000 H   0  0  0  0  0  0  0  0  0  0  0  0
    3.0791    2.8768    0.0000 H   0  0  0  0  0  0  0  0  0  0  0  0
    2.1524    1.2718    0.0000 H   0  0  0  0  0  0  0  0  0  0  0  0
    2.1525    2.3418    0.0000 H   0  0  0  0  0  0  0  0  0  0  0  0
  1  8  2  0  0  0  0
  2  4  1  0  0  0  0
  2  8  1  0  0  0  0
  2 15  1  0  0  0  0
  3  7  1  0  0  0  0
  3 16  1  0  0  0  0
  3 17  1  0  0  0  0
  4  5  2  0  0  0  0
  4  6  1  0  0  0  0
  5  9  1  0  0  0  0
  5 11  1  0  0  0  0
  6 10  2  0  0  0  0
  6 12  1  0  0  0  0
  7  8  1  0  0  0  0
  7 14  1  0  0  0  0
  7 18  1  0  0  0  0
  9 13  2  0  0  0  0
  9 19  1  0  0  0  0
 10 13  1  0  0  0  0
 10 20  1  0  0  0  0
 11 21  1  0  0  0  0
 11 22  1  0  0  0  0
 11 23  1  0  0  0  0
 12 24  1  0  0  0  0
 12 25  1  0  0  0  0
 12 26  1  0  0  0  0
 13 27  1  0  0  0  0
 14 28  1  0  0  0  0
 14 29  1  0  0  0  0
 14 30  1  0  0  0  0
M  END
>  <DRUGBANK_ID>
DB01056

>  <SECONDARY_ACCESSION_NUMBERS>
APRD01266

>  <COMMON_NAME>
Tocainide

>  <CAS_NUMBER>
41708-72-9

>  <UNII>
27DXO59SAN

>  <SYNONYMS>
2-Amino-2',6'-propionoxylidide; 2-amino-N-(2,6-dimethylphenyl)propanamide; 2-Amino-N-(2,6-dimethylphenyl)propionamid; Alanyl-2,6-xylidide; Tocainida; Tocainide; Tocainidum

$$$$
