
 OpenBabel10282417072D

 29 31  0  0  0  0  0  0  0  0999 V2000
    4.0668    2.3479    0.0000 N   0  0  0  0  0  0  0  0  0  0  0  0
    3.3523    1.9354    0.0000 C   0  0  0  0  0  0  0  0  0  0  0  0
    3.3523    1.1104    0.0000 N   0  0  0  0  0  0  0  0  0  0  0  0
    2.6378    0.6979    0.0000 C   0  0  0  0  0  0  0  0  0  0  0  0
    2.6378   -0.1271    0.0000 O   0  0  0  0  0  0  0  0  0  0  0  0
    1.9233    1.1104    0.0000 C   0  0  0  0  0  0  0  0  0  0  0  0
    1.9233    1.9354    0.0000 C   0  0  0  0  0  0  0  0  0  0  0  0
    2.6378    2.3479    0.0000 N   0  0  0  0  0  0  0  0  0  0  0  0
    1.1387    2.1904    0.0000 C   0  0  0  0  0  0  0  0  0  0  0  0
    0.8838    2.9750    0.0000 C   0  0  0  0  0  0  0  0  0  0  0  0
    1.4358    3.5881    0.0000 C   0  0  0  0  0  0  0  0  0  0  0  0
    1.1809    4.3727    0.0000 C   0  0  0  0  0  0  0  0  0  0  0  0
    1.7329    4.9858    0.0000 N   0  0  0  0  0  0  0  0  0  0  0  0
    2.5399    4.8143    0.0000 C   0  0  0  0  0  0  0  0  0  0  0  0
    2.7948    4.0297    0.0000 C   0  0  0  0  0  0  0  0  0  0  0  0
    2.2428    3.4166    0.0000 C   0  0  0  0  0  0  0  0  0  0  0  0
    0.6538    1.5229    0.0000 C   0  0  0  0  0  0  0  0  0  0  0  0
    1.1387    0.8555    0.0000 N   0  0  0  0  0  0  0  0  0  0  0  0
    4.9194    1.8556    0.0000 H   0  0  0  0  0  0  0  0  0  0  0  0
    4.0668    3.3324    0.0000 H   0  0  0  0  0  0  0  0  0  0  0  0
    2.6378    3.3324    0.0000 H   0  0  0  0  0  0  0  0  0  0  0  0
   -0.1628    3.1975    0.0000 H   0  0  0  0  0  0  0  0  0  0  0  0
    0.5531    3.9926    0.0000 H   0  0  0  0  0  0  0  0  0  0  0  0
    0.1715    4.5873    0.0000 H   0  0  0  0  0  0  0  0  0  0  0  0
    3.2304    5.5812    0.0000 H   0  0  0  0  0  0  0  0  0  0  0  0
    3.8042    3.8151    0.0000 H   0  0  0  0  0  0  0  0  0  0  0  0
    2.5617    2.4351    0.0000 H   0  0  0  0  0  0  0  0  0  0  0  0
   -0.3782    1.5229    0.0000 H   0  0  0  0  0  0  0  0  0  0  0  0
    0.8345   -0.0808    0.0000 H   0  0  0  0  0  0  0  0  0  0  0  0
  1  2  1  0  0  0  0
  1 19  1  0  0  0  0
  1 20  1  0  0  0  0
  2  3  2  0  0  0  0
  2  8  1  0  0  0  0
  3  4  1  0  0  0  0
  4  5  2  0  0  0  0
  4  6  1  0  0  0  0
  6  7  2  0  0  0  0
  6 18  1  0  0  0  0
  7  8  1  0  0  0  0
  7  9  1  0  0  0  0
  8 21  1  0  0  0  0
  9 10  1  0  0  0  0
  9 17  2  0  0  0  0
 10 11  1  0  0  0  0
 10 22  1  0  0  0  0
 10 23  1  0  0  0  0
 11 12  2  0  0  0  0
 11 16  1  0  0  0  0
 12 13  1  0  0  0  0
 12 24  1  0  0  0  0
 13 14  2  0  0  0  0
 14 15  1  0  0  0  0
 14 25  1  0  0  0  0
 15 16  2  0  0  0  0
 15 26  1  0  0  0  0
 16 27  1  0  0  0  0
 17 18  1  0  0  0  0
 17 28  1  0  0  0  0
 18 29  1  0  0  0  0
M  END
>  <DRUGBANK_ID>
DB02568

>  <SECONDARY_ACCESSION_NUMBERS>
EXPT03305; DB07442

>  <COMMON_NAME>
Peldesine

>  <CAS_NUMBER>
133432-71-0

>  <UNII>
7B646RJ70F

>  <SYNONYMS>
2-Amino-3,5-dihydro-7-(3-pyridylmethyl)-4H-pyrrolo(3,2-d)pyrimidin-4-one; Peldesine

$$$$
