
 OpenBabel10282417072D

 87 90  0  0  0  0  0  0  0  0999 V2000
    5.9145    0.4360    0.0000 C   0  0  0  0  0  0  0  0  0  0  0  0
    6.6292    0.0233    0.0000 C   0  0  0  0  0  0  0  0  0  0  0  0
    5.1998    0.0233    0.0000 O   0  0  0  0  0  0  0  0  0  0  0  0
    4.4953    0.4303    0.0000 C   0  0  0  0  0  0  0  0  0  0  0  0
    3.7954    0.0263    0.0000 C   0  0  0  0  0  0  0  0  0  0  0  0
    3.0933    0.4318    0.0000 C   0  0  0  0  0  0  0  0  0  0  0  0
    2.3923    0.0270    0.0000 N   0  0  0  0  0  0  0  0  0  0  0  0
    1.6907    0.4322    0.0000 C   0  0  0  0  0  0  0  0  0  0  0  0
    0.9894    0.0272    0.0000 C   0  0  0  0  0  0  0  0  0  0  0  0
    1.6907    1.2611    0.0000 O   0  0  0  0  0  0  0  0  0  0  0  0
    0.2882    0.4323    0.0000 C   0  0  0  0  0  0  0  0  0  0  0  0
   -0.4265    0.0198    0.0000 C   0  0  0  0  0  0  0  0  0  0  0  0
   -0.4267   -0.8052    0.0000 C   0  0  0  0  0  0  0  0  0  0  0  0
    0.2746   -1.2103    0.0000 C   0  0  0  0  0  0  0  0  0  0  0  0
    0.9893   -0.7978    0.0000 C   0  0  0  0  0  0  0  0  0  0  0  0
    4.4952    1.2610    0.0000 O   0  0  0  0  0  0  0  0  0  0  0  0
   -1.2112    0.2749    0.0000 N   0  0  0  0  0  0  0  0  0  0  0  0
   -1.6964   -0.3924    0.0000 C   0  0  0  0  0  0  0  0  0  0  0  0
   -1.2114   -1.0601    0.0000 N   0  0  0  0  0  0  0  0  0  0  0  0
   -1.4645   -1.8382    0.0000 C   0  0  0  0  0  0  0  0  0  0  0  0
   -2.5020   -0.3923    0.0000 C   0  0  0  0  0  0  0  0  0  0  0  0
   -2.9134   -1.1043    0.0000 N   0  0  0  0  0  0  0  0  0  0  0  0
   -3.7396   -1.1042    0.0000 C   0  0  0  0  0  0  0  0  0  0  0  0
   -4.1580   -0.3793    0.0000 C   0  0  0  0  0  0  0  0  0  0  0  0
   -4.9833   -0.3792    0.0000 C   0  0  0  0  0  0  0  0  0  0  0  0
   -5.3959   -1.0936    0.0000 C   0  0  0  0  0  0  0  0  0  0  0  0
   -4.9774   -1.8186    0.0000 C   0  0  0  0  0  0  0  0  0  0  0  0
   -4.1522   -1.8187    0.0000 C   0  0  0  0  0  0  0  0  0  0  0  0
   -6.2151   -1.0936    0.0000 C   0  0  0  0  0  0  0  0  0  0  0  0
   -6.6265   -1.8057    0.0000 N   0  0  0  0  0  0  0  0  0  0  0  0
   -6.6292   -0.3766    0.0000 N   0  0  0  0  0  0  0  0  0  0  0  0
   -6.2214    0.3290    0.0000 C   0  0  0  0  0  0  0  0  0  0  0  0
   -5.3902    0.3290    0.0000 O   0  0  0  0  0  0  0  0  0  0  0  0
   -6.6252    1.0283    0.0000 O   0  0  0  0  0  0  0  0  0  0  0  0
   -4.9847    1.0308    0.0000 C   0  0  0  0  0  0  0  0  0  0  0  0
   -4.1524    1.0308    0.0000 C   0  0  0  0  0  0  0  0  0  0  0  0
   -3.7471    1.7323    0.0000 C   0  0  0  0  0  0  0  0  0  0  0  0
   -2.9148    1.7323    0.0000 C   0  0  0  0  0  0  0  0  0  0  0  0
   -2.5095    2.4339    0.0000 C   0  0  0  0  0  0  0  0  0  0  0  0
   -1.6770    2.4338    0.0000 C   0  0  0  0  0  0  0  0  0  0  0  0
    2.3977   -0.7973    0.0000 C   0  0  0  0  0  0  0  0  0  0  0  0
    1.7000   -1.2064    0.0000 N   0  0  0  0  0  0  0  0  0  0  0  0
    1.7055   -2.0280    0.0000 C   0  0  0  0  0  0  0  0  0  0  0  0
    2.4197   -2.4339    0.0000 C   0  0  0  0  0  0  0  0  0  0  0  0
    3.1173   -2.0250    0.0000 C   0  0  0  0  0  0  0  0  0  0  0  0
    3.1118   -1.2034    0.0000 C   0  0  0  0  0  0  0  0  0  0  0  0
    5.9145    1.5060    0.0000 H   0  0  0  0  0  0  0  0  0  0  0  0
    4.9878    0.9710    0.0000 H   0  0  0  0  0  0  0  0  0  0  0  0
    6.6291   -1.0467    0.0000 H   0  0  0  0  0  0  0  0  0  0  0  0
    7.5559    0.5582    0.0000 H   0  0  0  0  0  0  0  0  0  0  0  0
    7.5558   -0.5118    0.0000 H   0  0  0  0  0  0  0  0  0  0  0  0
    3.7953   -1.0437    0.0000 H   0  0  0  0  0  0  0  0  0  0  0  0
    2.8687   -0.5086    0.0000 H   0  0  0  0  0  0  0  0  0  0  0  0
    3.0933    1.5018    0.0000 H   0  0  0  0  0  0  0  0  0  0  0  0
    2.1666    0.9668    0.0000 H   0  0  0  0  0  0  0  0  0  0  0  0
    0.2884    1.4643    0.0000 H   0  0  0  0  0  0  0  0  0  0  0  0
    0.2744   -2.2423    0.0000 H   0  0  0  0  0  0  0  0  0  0  0  0
    1.8830   -1.3139    0.0000 H   0  0  0  0  0  0  0  0  0  0  0  0
   -2.5112   -2.0603    0.0000 H   0  0  0  0  0  0  0  0  0  0  0  0
   -0.7488   -2.6336    0.0000 H   0  0  0  0  0  0  0  0  0  0  0  0
   -1.7955   -2.8557    0.0000 H   0  0  0  0  0  0  0  0  0  0  0  0
   -3.0368    0.5345    0.0000 H   0  0  0  0  0  0  0  0  0  0  0  0
   -3.5720   -0.3920    0.0000 H   0  0  0  0  0  0  0  0  0  0  0  0
   -2.4213   -1.9570    0.0000 H   0  0  0  0  0  0  0  0  0  0  0  0
   -3.6419    0.5144    0.0000 H   0  0  0  0  0  0  0  0  0  0  0  0
   -5.4992    0.5146    0.0000 H   0  0  0  0  0  0  0  0  0  0  0  0
   -5.4935   -2.7123    0.0000 H   0  0  0  0  0  0  0  0  0  0  0  0
   -3.6363   -2.7125    0.0000 H   0  0  0  0  0  0  0  0  0  0  0  0
   -7.6110   -1.8054    0.0000 H   0  0  0  0  0  0  0  0  0  0  0  0
   -6.1345   -2.6584    0.0000 H   0  0  0  0  0  0  0  0  0  0  0  0
   -5.5195    1.9575    0.0000 H   0  0  0  0  0  0  0  0  0  0  0  0
   -4.4496    1.9574    0.0000 H   0  0  0  0  0  0  0  0  0  0  0  0
   -3.6175    0.1041    0.0000 H   0  0  0  0  0  0  0  0  0  0  0  0
   -3.0824    1.0306    0.0000 H   0  0  0  0  0  0  0  0  0  0  0  0
   -4.2820    2.6590    0.0000 H   0  0  0  0  0  0  0  0  0  0  0  0
   -3.2120    2.6589    0.0000 H   0  0  0  0  0  0  0  0  0  0  0  0
   -2.3799    0.8056    0.0000 H   0  0  0  0  0  0  0  0  0  0  0  0
   -1.8448    1.7321    0.0000 H   0  0  0  0  0  0  0  0  0  0  0  0
   -3.0443    3.3606    0.0000 H   0  0  0  0  0  0  0  0  0  0  0  0
   -1.9744    3.3605    0.0000 H   0  0  0  0  0  0  0  0  0  0  0  0
   -1.1421    1.5071    0.0000 H   0  0  0  0  0  0  0  0  0  0  0  0
   -1.1419    3.3604    0.0000 H   0  0  0  0  0  0  0  0  0  0  0  0
   -0.6070    2.4337    0.0000 H   0  0  0  0  0  0  0  0  0  0  0  0
    0.8153   -2.5500    0.0000 H   0  0  0  0  0  0  0  0  0  0  0  0
    2.4266   -3.4659    0.0000 H   0  0  0  0  0  0  0  0  0  0  0  0
    4.0144   -2.5351    0.0000 H   0  0  0  0  0  0  0  0  0  0  0  0
    4.0021   -0.6815    0.0000 H   0  0  0  0  0  0  0  0  0  0  0  0
  1  2  1  0  0  0  0
  1  3  1  0  0  0  0
  1 47  1  0  0  0  0
  1 48  1  0  0  0  0
  2 49  1  0  0  0  0
  2 50  1  0  0  0  0
  2 51  1  0  0  0  0
  3  4  1  0  0  0  0
  4  5  1  0  0  0  0
  4 16  2  0  0  0  0
  5  6  1  0  0  0  0
  5 52  1  0  0  0  0
  5 53  1  0  0  0  0
  6  7  1  0  0  0  0
  6 54  1  0  0  0  0
  6 55  1  0  0  0  0
  7  8  1  0  0  0  0
  7 41  1  0  0  0  0
  8  9  1  0  0  0  0
  8 10  2  0  0  0  0
  9 11  2  0  0  0  0
  9 15  1  0  0  0  0
 11 12  1  0  0  0  0
 11 56  1  0  0  0  0
 12 13  2  0  0  0  0
 12 17  1  0  0  0  0
 13 14  1  0  0  0  0
 13 19  1  0  0  0  0
 14 15  2  0  0  0  0
 14 57  1  0  0  0  0
 15 58  1  0  0  0  0
 17 18  2  0  0  0  0
 18 19  1  0  0  0  0
 18 21  1  0  0  0  0
 19 20  1  0  0  0  0
 20 59  1  0  0  0  0
 20 60  1  0  0  0  0
 20 61  1  0  0  0  0
 21 22  1  0  0  0  0
 21 62  1  0  0  0  0
 21 63  1  0  0  0  0
 22 23  1  0  0  0  0
 22 64  1  0  0  0  0
 23 24  2  0  0  0  0
 23 28  1  0  0  0  0
 24 25  1  0  0  0  0
 24 65  1  0  0  0  0
 25 26  2  0  0  0  0
 25 66  1  0  0  0  0
 26 27  1  0  0  0  0
 26 29  1  0  0  0  0
 27 28  2  0  0  0  0
 27 67  1  0  0  0  0
 28 68  1  0  0  0  0
 29 30  1  0  0  0  0
 29 31  2  0  0  0  0
 30 69  1  0  0  0  0
 30 70  1  0  0  0  0
 31 32  1  0  0  0  0
 32 33  1  0  0  0  0
 32 34  2  0  0  0  0
 33 35  1  0  0  0  0
 35 36  1  0  0  0  0
 35 71  1  0  0  0  0
 35 72  1  0  0  0  0
 36 37  1  0  0  0  0
 36 73  1  0  0  0  0
 36 74  1  0  0  0  0
 37 38  1  0  0  0  0
 37 75  1  0  0  0  0
 37 76  1  0  0  0  0
 38 39  1  0  0  0  0
 38 77  1  0  0  0  0
 38 78  1  0  0  0  0
 39 40  1  0  0  0  0
 39 79  1  0  0  0  0
 39 80  1  0  0  0  0
 40 81  1  0  0  0  0
 40 82  1  0  0  0  0
 40 83  1  0  0  0  0
 41 42  2  0  0  0  0
 41 46  1  0  0  0  0
 42 43  1  0  0  0  0
 43 44  2  0  0  0  0
 43 84  1  0  0  0  0
 44 45  1  0  0  0  0
 44 85  1  0  0  0  0
 45 46  2  0  0  0  0
 45 86  1  0  0  0  0
 46 87  1  0  0  0  0
M  END
>  <DRUGBANK_ID>
DB06695

>  <COMMON_NAME>
Dabigatran etexilate

>  <CAS_NUMBER>
211915-06-9

>  <UNII>
2E18WX195X

>  <SYNONYMS>
Dabigatran etexilate

$$$$
