CT7
 OpenBabel10282417072D

 32 34  0  0  0  0  0  0  0  0999 V2000
    2.9182   -1.9275    0.0000 O   0  0  0  0  0  0  0  0  0  0  0  0
    2.2038   -1.5150    0.0000 S   0  0  0  0  0  0  0  0  0  0  0  0
    2.6163   -0.8006    0.0000 O   0  0  0  0  0  0  0  0  0  0  0  0
    1.4893   -1.1025    0.0000 C   0  0  0  0  0  0  0  0  0  0  0  0
    0.7748   -1.5150    0.0000 C   0  0  0  0  0  0  0  0  0  0  0  0
    1.4893   -0.2775    0.0000 C   0  0  0  0  0  0  0  0  0  0  0  0
    0.7748    0.1350    0.0000 C   0  0  0  0  0  0  0  0  0  0  0  0
    0.0603   -1.1025    0.0000 C   0  0  0  0  0  0  0  0  0  0  0  0
    0.0603   -0.2775    0.0000 C   0  0  0  0  0  0  0  0  0  0  0  0
   -0.6541    0.1350    0.0000 N   0  0  0  0  0  0  0  0  0  0  0  0
   -0.6541    0.9600    0.0000 C   0  0  0  0  0  0  0  0  0  0  0  0
   -1.3686    1.3725    0.0000 N   0  0  0  0  0  0  0  0  0  0  0  0
   -1.3686    2.1975    0.0000 C   0  0  0  0  0  0  0  0  0  0  0  0
   -0.6541    2.6100    0.0000 N   0  0  0  0  0  0  0  0  0  0  0  0
   -2.6381    1.7850    0.0000 C   0  0  0  0  0  0  0  0  0  0  0  0
   -2.1532    1.1175    0.0000 N   0  0  0  0  0  0  0  0  0  0  0  0
    0.0603    1.3725    0.0000 C   0  0  0  0  0  0  0  0  0  0  0  0
    0.0603    2.1975    0.0000 C   0  0  0  0  0  0  0  0  0  0  0  0
    0.7748    2.6100    0.0000 Cl  0  0  0  0  0  0  0  0  0  0  0  0
   -2.1532    2.4524    0.0000 C   0  0  0  0  0  0  0  0  0  0  0  0
    1.7913   -2.2295    0.0000 C   0  0  0  0  0  0  0  0  0  0  0  0
    0.7748   -2.5470    0.0000 H   0  0  0  0  0  0  0  0  0  0  0  0
    2.3830    0.2385    0.0000 H   0  0  0  0  0  0  0  0  0  0  0  0
    0.7748    1.1670    0.0000 H   0  0  0  0  0  0  0  0  0  0  0  0
   -0.8334   -1.6185    0.0000 H   0  0  0  0  0  0  0  0  0  0  0  0
   -1.5067   -0.3572    0.0000 H   0  0  0  0  0  0  0  0  0  0  0  0
   -3.6701    1.7850    0.0000 H   0  0  0  0  0  0  0  0  0  0  0  0
    0.9540    0.8565    0.0000 H   0  0  0  0  0  0  0  0  0  0  0  0
   -2.4721    3.4339    0.0000 H   0  0  0  0  0  0  0  0  0  0  0  0
    0.7213   -2.2295    0.0000 H   0  0  0  0  0  0  0  0  0  0  0  0
    2.3263   -3.1561    0.0000 H   0  0  0  0  0  0  0  0  0  0  0  0
    1.2563   -3.1562    0.0000 H   0  0  0  0  0  0  0  0  0  0  0  0
  1  2  2  0  0  0  0
  2  3  2  0  0  0  0
  2  4  1  0  0  0  0
  2 21  1  0  0  0  0
  4  5  2  0  0  0  0
  4  6  1  0  0  0  0
  5  8  1  0  0  0  0
  5 22  1  0  0  0  0
  6  7  2  0  0  0  0
  6 23  1  0  0  0  0
  7  9  1  0  0  0  0
  7 24  1  0  0  0  0
  8  9  2  0  0  0  0
  8 25  1  0  0  0  0
  9 10  1  0  0  0  0
 10 11  1  0  0  0  0
 10 26  1  0  0  0  0
 11 12  1  0  0  0  0
 11 17  2  0  0  0  0
 12 13  1  0  0  0  0
 12 16  1  0  0  0  0
 13 14  1  0  0  0  0
 13 20  2  0  0  0  0
 14 18  2  0  0  0  0
 15 16  2  0  0  0  0
 15 20  1  0  0  0  0
 15 27  1  0  0  0  0
 17 18  1  0  0  0  0
 17 28  1  0  0  0  0
 18 19  1  0  0  0  0
 20 29  1  0  0  0  0
 21 30  1  0  0  0  0
 21 31  1  0  0  0  0
 21 32  1  0  0  0  0
M  END
>  <DRUGBANK_ID>
DB02963

>  <SECONDARY_ACCESSION_NUMBERS>
EXPT01045

>  <COMMON_NAME>
(5-Chloropyrazolo[1,5-a]Pyrimidin-7-Yl)-(4-Methanesulfonylphenyl)Amine

>  <UNII>
XNE9CK2X79

$$$$
