
 OpenBabel10282417072D

 37 36  0  0  0  0  0  0  0  0999 V2000
   -0.7144    1.4842    0.0000 S   0  0  0  0  0  0  0  0  0  0  0  0
    0.0000    0.2467    0.0000 O   0  0  0  0  0  0  0  0  0  0  0  0
    0.7144    1.4842    0.0000 S   0  0  0  0  0  0  0  0  0  0  0  0
    0.7144    0.6592    0.0000 P   0  0  0  0  0  0  0  0  0  0  0  0
   -0.7144    0.6592    0.0000 P   0  0  0  0  0  0  0  0  0  0  0  0
   -1.4289    0.2467    0.0000 O   0  0  0  0  0  0  0  0  0  0  0  0
   -2.1434    0.6592    0.0000 C   0  0  0  0  0  0  0  0  0  0  0  0
   -2.8579    0.2467    0.0000 C   0  0  0  0  0  0  0  0  0  0  0  0
    1.4289    0.2467    0.0000 O   0  0  0  0  0  0  0  0  0  0  0  0
    2.1433    0.6592    0.0000 C   0  0  0  0  0  0  0  0  0  0  0  0
    2.8579    0.2467    0.0000 C   0  0  0  0  0  0  0  0  0  0  0  0
    1.1269   -0.0552    0.0000 O   0  0  0  0  0  0  0  0  0  0  0  0
    0.7144   -0.7697    0.0000 C   0  0  0  0  0  0  0  0  0  0  0  0
    1.1269   -1.4842    0.0000 C   0  0  0  0  0  0  0  0  0  0  0  0
   -1.1269   -0.0552    0.0000 O   0  0  0  0  0  0  0  0  0  0  0  0
   -0.7144   -0.7697    0.0000 C   0  0  0  0  0  0  0  0  0  0  0  0
   -1.1269   -1.4842    0.0000 C   0  0  0  0  0  0  0  0  0  0  0  0
   -2.1434    1.7292    0.0000 H   0  0  0  0  0  0  0  0  0  0  0  0
   -3.0700    1.1942    0.0000 H   0  0  0  0  0  0  0  0  0  0  0  0
   -3.7845    0.7817    0.0000 H   0  0  0  0  0  0  0  0  0  0  0  0
   -2.8579   -0.8233    0.0000 H   0  0  0  0  0  0  0  0  0  0  0  0
   -3.7846   -0.2883    0.0000 H   0  0  0  0  0  0  0  0  0  0  0  0
    2.1432    1.7292    0.0000 H   0  0  0  0  0  0  0  0  0  0  0  0
    3.0699    1.1943    0.0000 H   0  0  0  0  0  0  0  0  0  0  0  0
    2.8580   -0.8233    0.0000 H   0  0  0  0  0  0  0  0  0  0  0  0
    3.7845    0.7818    0.0000 H   0  0  0  0  0  0  0  0  0  0  0  0
    3.7846   -0.2882    0.0000 H   0  0  0  0  0  0  0  0  0  0  0  0
   -0.3556   -0.7697    0.0000 H   0  0  0  0  0  0  0  0  0  0  0  0
    0.1794   -1.6963    0.0000 H   0  0  0  0  0  0  0  0  0  0  0  0
    0.5919   -2.4108    0.0000 H   0  0  0  0  0  0  0  0  0  0  0  0
    2.1969   -1.4842    0.0000 H   0  0  0  0  0  0  0  0  0  0  0  0
    1.6619   -2.4109    0.0000 H   0  0  0  0  0  0  0  0  0  0  0  0
    0.3556   -0.7697    0.0000 H   0  0  0  0  0  0  0  0  0  0  0  0
   -0.1794   -1.6963    0.0000 H   0  0  0  0  0  0  0  0  0  0  0  0
   -2.1969   -1.4842    0.0000 H   0  0  0  0  0  0  0  0  0  0  0  0
   -0.5919   -2.4108    0.0000 H   0  0  0  0  0  0  0  0  0  0  0  0
   -1.6619   -2.4109    0.0000 H   0  0  0  0  0  0  0  0  0  0  0  0
  2  4  1  0  0  0  0
  4  3  2  0  0  0  0
  4  9  1  0  0  0  0
  4 12  1  0  0  0  0
  5  1  2  0  0  0  0
  5  2  1  0  0  0  0
  5  6  1  0  0  0  0
  5 15  1  0  0  0  0
  6  7  1  0  0  0  0
  7  8  1  0  0  0  0
  7 18  1  0  0  0  0
  7 19  1  0  0  0  0
  8 20  1  0  0  0  0
  8 21  1  0  0  0  0
  8 22  1  0  0  0  0
  9 10  1  0  0  0  0
 10 11  1  0  0  0  0
 10 23  1  0  0  0  0
 10 24  1  0  0  0  0
 11 25  1  0  0  0  0
 11 26  1  0  0  0  0
 11 27  1  0  0  0  0
 12 13  1  0  0  0  0
 13 14  1  0  0  0  0
 13 28  1  0  0  0  0
 13 29  1  0  0  0  0
 14 30  1  0  0  0  0
 14 31  1  0  0  0  0
 14 32  1  0  0  0  0
 15 16  1  0  0  0  0
 16 17  1  0  0  0  0
 16 33  1  0  0  0  0
 16 34  1  0  0  0  0
 17 35  1  0  0  0  0
 17 36  1  0  0  0  0
 17 37  1  0  0  0  0
M  END
>  <DRUGBANK_ID>
DB11497

>  <COMMON_NAME>
Sulfotep

>  <CAS_NUMBER>
3689-24-5

>  <UNII>
V41BK2EE8X

>  <SYNONYMS>
Bis(O,O-diethylphosphorothionic) anhydride; Dithion; Dithiophos; O,O,O,O-Tetraethyl dithiopyrophosphate; Sulfotepp; Sulphotepp; TEDP; TEDTP; Tetraethyl dithiopyrophosphate; Thiodiphosphate, tetraethyl ester

$$$$
