
 OpenBabel10282417072D

 12 10  0  0  0  0  0  0  0  0999 V2000
   -0.1930   -0.2049    0.0000 C   0  0  0  0  0  0  0  0  0  0  0  0
    0.5210    0.2098    0.0000 O   0  5  0  0  0  0  0  0  0  0  0  0
   -0.1930   -1.0299    0.0000 O   0  0  0  0  0  0  0  0  0  0  0  0
   -0.9022    0.2049    0.0000 C   0  0  3  0  0  0  0  0  0  0  0  0
    1.6160    0.0940    0.0000 K   0  3  0  0  0  0  0  0  0  0  0  0
   -0.9069    1.0299    0.0000 O   0  0  0  0  0  0  0  0  0  0  0  0
   -1.6160   -0.2098    0.0000 C   0  0  0  0  0  0  0  0  0  0  0  0
    0.0230    0.7424    0.0000 H   0  0  0  0  0  0  0  0  0  0  0  0
   -0.0696    1.5197    0.0000 H   0  0  0  0  0  0  0  0  0  0  0  0
   -2.5441    0.3227    0.0000 H   0  0  0  0  0  0  0  0  0  0  0  0
   -1.6131   -1.2798    0.0000 H   0  0  0  0  0  0  0  0  0  0  0  0
   -2.5412   -0.7473    0.0000 H   0  0  0  0  0  0  0  0  0  0  0  0
  2  1  1  0  0  0  0
  3  1  2  0  0  0  0
  4  1  1  0  0  0  0
  4  8  1  0  0  0  0
  6  4  1  0  0  0  0
  6  9  1  0  0  0  0
  7  4  1  0  0  0  0
  7 10  1  0  0  0  0
  7 11  1  0  0  0  0
  7 12  1  0  0  0  0
M  CHG  2   2  -1   5   1
M  END
>  <DRUGBANK_ID>
DB09483

>  <COMMON_NAME>
Potassium lactate

>  <CAS_NUMBER>
996-31-6

>  <UNII>
276897E67U

>  <SYNONYMS>
Lactic acid, potassium salt; Monopotassium 2-hydroxypropanoate; Monopotassium lactate

$$$$
