
 OpenBabel10282417072D

173179  0  0  1  0  0  0  0  0999 V2000
   11.2805   13.0465    0.0000 C   0  0  0  0  0  0  0  0  0  0  0  0
    2.9005   -2.7890    0.0000 C   0  0  0  0  0  0  0  0  0  0  0  0
   10.7220    0.9073    0.0000 C   0  0  0  0  0  0  0  0  0  0  0  0
    5.9448   -5.4256    0.0000 C   0  0  0  0  0  0  0  0  0  0  0  0
    2.8136    1.9615    0.0000 C   0  0  0  0  0  0  0  0  0  0  0  0
    3.1808    0.3529    0.0000 C   0  0  0  0  0  0  0  0  0  0  0  0
    2.1929    0.9736    0.0000 C   0  0  0  0  0  0  0  0  0  0  0  0
   10.5125   12.7451    0.0000 C   0  0  0  0  0  0  0  0  0  0  0  0
   10.3896   11.9293    0.0000 C   0  0  0  0  0  0  0  0  0  0  0  0
    9.6216   11.6280    0.0000 C   0  0  0  0  0  0  0  0  0  0  0  0
    7.3479    6.1304    0.0000 C   0  0  0  0  0  0  0  0  0  0  0  0
    8.7609    5.9175    0.0000 C   0  0  0  0  0  0  0  0  0  0  0  0
    7.4709    6.9462    0.0000 C   0  0  0  0  0  0  0  0  0  0  0  0
    8.8839    6.7332    0.0000 C   0  0  0  0  0  0  0  0  0  0  0  0
    8.5150    4.2859    0.0000 C   0  0  0  0  0  0  0  0  0  0  0  0
    7.1020    4.4989    0.0000 C   0  0  0  0  0  0  0  0  0  0  0  0
    8.3920    3.4701    0.0000 C   0  0  0  0  0  0  0  0  0  0  0  0
    6.9790    3.6831    0.0000 C   0  0  0  0  0  0  0  0  0  0  0  0
   10.5214   -6.3025    0.0000 C   0  0  0  0  0  0  0  0  0  0  0  0
    9.1560   -6.7237    0.0000 C   0  0  0  0  0  0  0  0  0  0  0  0
    7.7168    8.5778    0.0000 C   0  0  0  0  0  0  0  0  0  0  0  0
    9.1298    8.3648    0.0000 C   0  0  0  0  0  0  0  0  0  0  0  0
   10.7646   -7.0908    0.0000 C   0  0  0  0  0  0  0  0  0  0  0  0
    9.3991   -7.5120    0.0000 C   0  0  0  0  0  0  0  0  0  0  0  0
    7.8398    9.3935    0.0000 C   0  0  0  0  0  0  0  0  0  0  0  0
    9.2528    9.1806    0.0000 C   0  0  0  0  0  0  0  0  0  0  0  0
    3.8015    1.3408    0.0000 C   0  0  0  0  0  0  0  0  0  0  0  0
    9.4986   10.8122    0.0000 C   0  0  0  0  0  0  0  0  0  0  0  0
    4.3627    0.7360    0.0000 C   0  0  0  0  0  0  0  0  0  0  0  0
   10.8952   -3.1482    0.0000 C   0  0  0  0  0  0  0  0  0  0  0  0
    7.1981    1.0227    0.0000 C   0  0  0  0  0  0  0  0  0  0  0  0
    4.3261   -3.1482    0.0000 C   0  0  0  0  0  0  0  0  0  0  0  0
   11.1923   -1.8468    0.0000 C   0  0  0  0  0  0  0  0  0  0  0  0
    3.7048   -2.6054    0.0000 C   0  0  1  0  0  0  0  0  0  0  0  0
   10.7220    0.0823    0.0000 C   0  0  2  0  0  0  0  0  0  0  0  0
    5.5868   -4.6823    0.0000 C   0  0  2  0  0  0  0  0  0  0  0  0
    7.9929    5.6161    0.0000 C   0  0  0  0  0  0  0  0  0  0  0  0
    8.2389    7.2476    0.0000 C   0  0  0  0  0  0  0  0  0  0  0  0
    7.8700    4.8003    0.0000 C   0  0  0  0  0  0  0  0  0  0  0  0
    8.3618    8.0634    0.0000 C   0  0  0  0  0  0  0  0  0  0  0  0
    9.7171   -6.1189    0.0000 C   0  0  0  0  0  0  0  0  0  0  0  0
    7.6240    3.1687    0.0000 C   0  0  0  0  0  0  0  0  0  0  0  0
   10.2034   -7.6956    0.0000 C   0  0  0  0  0  0  0  0  0  0  0  0
   11.5165   -2.6054    0.0000 C   0  0  2  0  0  0  0  0  0  0  0  0
    8.6077    9.6950    0.0000 C   0  0  0  0  0  0  0  0  0  0  0  0
    8.0231    1.0227    0.0000 C   0  0  1  0  0  0  0  0  0  0  0  0
   10.1870   -2.7251    0.0000 C   0  0  1  0  0  0  0  0  0  0  0  0
    6.4098    0.7796    0.0000 C   0  0  2  0  0  0  0  0  0  0  0  0
   10.0075   -0.3301    0.0000 C   0  0  1  0  0  0  0  0  0  0  0  0
    6.0515   -4.0007    0.0000 C   0  0  1  0  0  0  0  0  0  0  0  0
    8.4264   -4.3586    0.0000 C   0  0  1  0  0  0  0  0  0  0  0  0
    4.8507   -1.9208    0.0000 C   0  0  1  0  0  0  0  0  0  0  0  0
    4.0290   -1.8468    0.0000 C   0  0  1  0  0  0  0  0  0  0  0  0
    9.4739   -5.3306    0.0000 C   0  0  1  0  0  0  0  0  0  0  0  0
    8.6696   -5.1470    0.0000 C   0  0  1  0  0  0  0  0  0  0  0  0
    7.5011    2.3529    0.0000 C   0  0  0  0  0  0  0  0  0  0  0  0
    8.8115    0.7796    0.0000 C   0  0  0  0  0  0  0  0  0  0  0  0
    9.7745   -3.4396    0.0000 C   0  0  0  0  0  0  0  0  0  0  0  0
    7.6106   -4.4816    0.0000 C   0  0  0  0  0  0  0  0  0  0  0  0
    4.9123   -1.0981    0.0000 C   0  0  0  0  0  0  0  0  0  0  0  0
    5.7281    0.3148    0.0000 C   0  0  2  0  0  0  0  0  0  0  0  0
   10.3089   -1.0981    0.0000 C   0  0  0  0  0  0  0  0  0  0  0  0
    5.4468   -3.4396    0.0000 C   0  0  0  0  0  0  0  0  0  0  0  0
    8.1461    1.8385    0.0000 N   0  0  0  0  0  0  0  0  0  0  0  0
    9.4931    0.3148    0.0000 N   0  0  0  0  0  0  0  0  0  0  0  0
    6.7948   -4.3586    0.0000 N   0  0  0  0  0  0  0  0  0  0  0  0
    9.1697   -4.0007    0.0000 N   0  0  0  0  0  0  0  0  0  0  0  0
    5.2137   -0.3301    0.0000 N   0  0  0  0  0  0  0  0  0  0  0  0
   10.3706   -1.9208    0.0000 N   0  0  0  0  0  0  0  0  0  0  0  0
    5.0343   -2.7251    0.0000 N   0  0  0  0  0  0  0  0  0  0  0  0
    2.9972    1.1572    0.0000 N   0  3  0  0  0  0  0  0  0  0  0  0
   11.4364   -0.3301    0.0000 O   0  0  0  0  0  0  0  0  0  0  0  0
    4.7641   -4.6206    0.0000 O   0  0  0  0  0  0  0  0  0  0  0  0
   10.4466   -8.4840    0.0000 O   0  0  0  0  0  0  0  0  0  0  0  0
   12.3208   -2.7890    0.0000 O   0  0  0  0  0  0  0  0  0  0  0  0
    6.0518    1.5229    0.0000 O   0  0  0  0  0  0  0  0  0  0  0  0
    3.6059   -1.1386    0.0000 O   0  0  0  0  0  0  0  0  0  0  0  0
   10.0351   -4.7258    0.0000 O   0  0  0  0  0  0  0  0  0  0  0  0
    8.1085   -5.7518    0.0000 O   0  0  0  0  0  0  0  0  0  0  0  0
    6.7331    2.0515    0.0000 O   0  0  0  0  0  0  0  0  0  0  0  0
    9.1695    1.5229    0.0000 O   0  0  0  0  0  0  0  0  0  0  0  0
   10.4195   -3.9539    0.0000 O   0  0  0  0  0  0  0  0  0  0  0  0
    7.6106   -5.3066    0.0000 O   0  0  0  0  0  0  0  0  0  0  0  0
    4.1080   -0.9145    0.0000 O   0  0  0  0  0  0  0  0  0  0  0  0
   11.1132   -0.9145    0.0000 O   0  0  0  0  0  0  0  0  0  0  0  0
    4.8018   -3.9539    0.0000 O   0  0  0  0  0  0  0  0  0  0  0  0
    8.7307   10.5108    0.0000 O   0  0  0  0  0  0  0  0  0  0  0  0
    5.1670    0.9196    0.0000 O   0  0  0  0  0  0  0  0  0  0  0  0
    3.5032   -3.4054    0.0000 H   0  0  0  0  0  0  0  0  0  0  0  0
   10.0075    0.4948    0.0000 H   0  0  0  0  0  0  0  0  0  0  0  0
    6.4095   -4.7440    0.0000 H   0  0  0  0  0  0  0  0  0  0  0  0
   11.7181   -3.4054    0.0000 H   0  0  0  0  0  0  0  0  0  0  0  0
    7.9002    0.2070    0.0000 H   0  0  0  0  0  0  0  0  0  0  0  0
    9.4190   -2.4237    0.0000 H   0  0  0  0  0  0  0  0  0  0  0  0
    6.7677    0.0363    0.0000 H   0  0  0  0  0  0  0  0  0  0  0  0
    9.2930   -0.7426    0.0000 H   0  0  0  0  0  0  0  0  0  0  0  0
    6.5163   -3.3190    0.0000 H   0  0  0  0  0  0  0  0  0  0  0  0
    8.1833   -3.5703    0.0000 H   0  0  0  0  0  0  0  0  0  0  0  0
    5.6734   -1.8591    0.0000 H   0  0  0  0  0  0  0  0  0  0  0  0
    3.2059   -1.9023    0.0000 H   0  0  0  0  0  0  0  0  0  0  0  0
    8.9128   -5.9353    0.0000 H   0  0  0  0  0  0  0  0  0  0  0  0
    9.2307   -4.5422    0.0000 H   0  0  0  0  0  0  0  0  0  0  0  0
    6.2893   -0.2898    0.0000 H   0  0  0  0  0  0  0  0  0  0  0  0
   12.1170   12.3793    0.0000 H   0  0  0  0  0  0  0  0  0  0  0  0
   11.4400   14.1045    0.0000 H   0  0  0  0  0  0  0  0  0  0  0  0
   12.2765   13.4374    0.0000 H   0  0  0  0  0  0  0  0  0  0  0  0
    2.1727   -2.0047    0.0000 H   0  0  0  0  0  0  0  0  0  0  0  0
    2.5851   -3.8115    0.0000 H   0  0  0  0  0  0  0  0  0  0  0  0
    1.8573   -3.0271    0.0000 H   0  0  0  0  0  0  0  0  0  0  0  0
   11.6486    1.4423    0.0000 H   0  0  0  0  0  0  0  0  0  0  0  0
    9.7954    1.4423    0.0000 H   0  0  0  0  0  0  0  0  0  0  0  0
   10.7220    1.9773    0.0000 H   0  0  0  0  0  0  0  0  0  0  0  0
    5.3421   -6.3097    0.0000 H   0  0  0  0  0  0  0  0  0  0  0  0
    7.0118   -5.5055    0.0000 H   0  0  0  0  0  0  0  0  0  0  0  0
    6.4091   -6.3896    0.0000 H   0  0  0  0  0  0  0  0  0  0  0  0
    3.5979    2.6893    0.0000 H   0  0  0  0  0  0  0  0  0  0  0  0
    1.7911    2.2769    0.0000 H   0  0  0  0  0  0  0  0  0  0  0  0
    2.5755    3.0047    0.0000 H   0  0  0  0  0  0  0  0  0  0  0  0
    2.3965   -0.3749    0.0000 H   0  0  0  0  0  0  0  0  0  0  0  0
    4.2033    0.0375    0.0000 H   0  0  0  0  0  0  0  0  0  0  0  0
    3.4189   -0.6903    0.0000 H   0  0  0  0  0  0  0  0  0  0  0  0
    1.4651    1.7579    0.0000 H   0  0  0  0  0  0  0  0  0  0  0  0
    1.8775   -0.0489    0.0000 H   0  0  0  0  0  0  0  0  0  0  0  0
    1.1497    0.7355    0.0000 H   0  0  0  0  0  0  0  0  0  0  0  0
    9.6759   13.4122    0.0000 H   0  0  0  0  0  0  0  0  0  0  0  0
    9.5165   12.3541    0.0000 H   0  0  0  0  0  0  0  0  0  0  0  0
   11.2261   11.2621    0.0000 H   0  0  0  0  0  0  0  0  0  0  0  0
   10.2300   10.8713    0.0000 H   0  0  0  0  0  0  0  0  0  0  0  0
    8.7851   12.2952    0.0000 H   0  0  0  0  0  0  0  0  0  0  0  0
    8.6255   11.2372    0.0000 H   0  0  0  0  0  0  0  0  0  0  0  0
    6.3872    5.7534    0.0000 H   0  0  0  0  0  0  0  0  0  0  0  0
    9.5677    5.2740    0.0000 H   0  0  0  0  0  0  0  0  0  0  0  0
    6.6641    7.5897    0.0000 H   0  0  0  0  0  0  0  0  0  0  0  0
    9.8446    7.1102    0.0000 H   0  0  0  0  0  0  0  0  0  0  0  0
    9.4757    4.6629    0.0000 H   0  0  0  0  0  0  0  0  0  0  0  0
    6.2952    5.1424    0.0000 H   0  0  0  0  0  0  0  0  0  0  0  0
    9.1988    2.8266    0.0000 H   0  0  0  0  0  0  0  0  0  0  0  0
    6.0183    3.3061    0.0000 H   0  0  0  0  0  0  0  0  0  0  0  0
   11.2233   -5.5460    0.0000 H   0  0  0  0  0  0  0  0  0  0  0  0
    8.1499   -6.4941    0.0000 H   0  0  0  0  0  0  0  0  0  0  0  0
    6.7561    8.2008    0.0000 H   0  0  0  0  0  0  0  0  0  0  0  0
    9.9366    7.7213    0.0000 H   0  0  0  0  0  0  0  0  0  0  0  0
   11.7707   -7.3204    0.0000 H   0  0  0  0  0  0  0  0  0  0  0  0
    8.6971   -8.2685    0.0000 H   0  0  0  0  0  0  0  0  0  0  0  0
    7.0329   10.0369    0.0000 H   0  0  0  0  0  0  0  0  0  0  0  0
   10.2135    9.5576    0.0000 H   0  0  0  0  0  0  0  0  0  0  0  0
    4.1169    2.3633    0.0000 H   0  0  0  0  0  0  0  0  0  0  0  0
    3.0737    2.1251    0.0000 H   0  0  0  0  0  0  0  0  0  0  0  0
   10.3352   10.1451    0.0000 H   0  0  0  0  0  0  0  0  0  0  0  0
    9.3391    9.7541    0.0000 H   0  0  0  0  0  0  0  0  0  0  0  0
    4.0473   -0.2865    0.0000 H   0  0  0  0  0  0  0  0  0  0  0  0
    5.0905   -0.0483    0.0000 H   0  0  0  0  0  0  0  0  0  0  0  0
   10.9911   -4.2139    0.0000 H   0  0  0  0  0  0  0  0  0  0  0  0
    9.9892   -3.7175    0.0000 H   0  0  0  0  0  0  0  0  0  0  0  0
    7.0387    2.0808    0.0000 H   0  0  0  0  0  0  0  0  0  0  0  0
    6.2921    1.5920    0.0000 H   0  0  0  0  0  0  0  0  0  0  0  0
    4.2302   -4.2139    0.0000 H   0  0  0  0  0  0  0  0  0  0  0  0
    5.2321   -3.7175    0.0000 H   0  0  0  0  0  0  0  0  0  0  0  0
   11.7411   -0.9283    0.0000 H   0  0  0  0  0  0  0  0  0  0  0  0
   10.6230   -0.9408    0.0000 H   0  0  0  0  0  0  0  0  0  0  0  0
   11.4365   -1.3001    0.0000 H   0  0  0  0  0  0  0  0  0  0  0  0
    4.3433   -3.7466    0.0000 H   0  0  0  0  0  0  0  0  0  0  0  0
    9.8093   -9.1709    0.0000 H   0  0  0  0  0  0  0  0  0  0  0  0
   12.6067   -3.7159    0.0000 H   0  0  0  0  0  0  0  0  0  0  0  0
    6.5982    2.3244    0.0000 H   0  0  0  0  0  0  0  0  0  0  0  0
    4.0783   -0.2914    0.0000 H   0  0  0  0  0  0  0  0  0  0  0  0
   10.9808   -4.9417    0.0000 H   0  0  0  0  0  0  0  0  0  0  0  0
    7.1628   -5.5360    0.0000 H   0  0  0  0  0  0  0  0  0  0  0  0
    6.0005    2.6357    0.0000 H   0  0  0  0  0  0  0  0  0  0  0  0
   10.1039    1.5929    0.0000 H   0  0  0  0  0  0  0  0  0  0  0  0
   10.2799   -4.8804    0.0000 H   0  0  0  0  0  0  0  0  0  0  0  0
    6.7991   -5.7751    0.0000 H   0  0  0  0  0  0  0  0  0  0  0  0
    3.8318   -0.0191    0.0000 H   0  0  0  0  0  0  0  0  0  0  0  0
  1  8  1  0  0  0  0
  1104  1  0  0  0  0
  1105  1  0  0  0  0
  1106  1  0  0  0  0
  2107  1  0  0  0  0
  2108  1  0  0  0  0
  2109  1  0  0  0  0
  3110  1  0  0  0  0
  3111  1  0  0  0  0
  3112  1  0  0  0  0
  4113  1  0  0  0  0
  4114  1  0  0  0  0
  4115  1  0  0  0  0
  5 71  1  0  0  0  0
  5116  1  0  0  0  0
  5117  1  0  0  0  0
  5118  1  0  0  0  0
  6 71  1  0  0  0  0
  6119  1  0  0  0  0
  6120  1  0  0  0  0
  6121  1  0  0  0  0
  7 71  1  0  0  0  0
  7122  1  0  0  0  0
  7123  1  0  0  0  0
  7124  1  0  0  0  0
  8  9  1  0  0  0  0
  8125  1  0  0  0  0
  8126  1  0  0  0  0
  9 10  1  0  0  0  0
  9127  1  0  0  0  0
  9128  1  0  0  0  0
 10 28  1  0  0  0  0
 10129  1  0  0  0  0
 10130  1  0  0  0  0
 11 13  1  0  0  0  0
 11 37  2  0  0  0  0
 11131  1  0  0  0  0
 12 14  2  0  0  0  0
 12 37  1  0  0  0  0
 12132  1  0  0  0  0
 13 38  2  0  0  0  0
 13133  1  0  0  0  0
 14 38  1  0  0  0  0
 14134  1  0  0  0  0
 15 17  1  0  0  0  0
 15 39  2  0  0  0  0
 15135  1  0  0  0  0
 16 18  2  0  0  0  0
 16 39  1  0  0  0  0
 16136  1  0  0  0  0
 17 42  2  0  0  0  0
 17137  1  0  0  0  0
 18 42  1  0  0  0  0
 18138  1  0  0  0  0
 19 23  1  0  0  0  0
 19 41  2  0  0  0  0
 19139  1  0  0  0  0
 20 24  2  0  0  0  0
 20 41  1  0  0  0  0
 20140  1  0  0  0  0
 21 25  1  0  0  0  0
 21 40  2  0  0  0  0
 21141  1  0  0  0  0
 22 26  2  0  0  0  0
 22 40  1  0  0  0  0
 22142  1  0  0  0  0
 23 43  2  0  0  0  0
 23143  1  0  0  0  0
 24 43  1  0  0  0  0
 24144  1  0  0  0  0
 25 45  2  0  0  0  0
 25145  1  0  0  0  0
 26 45  1  0  0  0  0
 26146  1  0  0  0  0
 27 29  1  0  0  0  0
 27 71  1  0  0  0  0
 27147  1  0  0  0  0
 27148  1  0  0  0  0
 28 87  1  0  0  0  0
 28149  1  0  0  0  0
 28150  1  0  0  0  0
 29 88  1  0  0  0  0
 29151  1  0  0  0  0
 29152  1  0  0  0  0
 30153  1  0  0  0  0
 30154  1  0  0  0  0
 31155  1  0  0  0  0
 31156  1  0  0  0  0
 32 70  1  0  0  0  0
 32157  1  0  0  0  0
 32158  1  0  0  0  0
 33 69  1  0  0  0  0
 33159  1  0  0  0  0
 33160  1  0  0  0  0
 34  2  1  0  0  0  0
 34 32  1  0  0  0  0
 34 89  1  1  0  0  0
 35  3  1  0  0  0  0
 35 90  1  6  0  0  0
 35 49  1  0  0  0  0
 35 72  1  0  0  0  0
 36  4  1  0  0  0  0
 36 91  1  6  0  0  0
 36 50  1  0  0  0  0
 36 73  1  0  0  0  0
 37 39  1  0  0  0  0
 38 40  1  0  0  0  0
 42 56  1  0  0  0  0
 43 74  1  0  0  0  0
 44 30  1  0  0  0  0
 44 33  1  0  0  0  0
 44 92  1  1  0  0  0
 44 75  1  0  0  0  0
 45 87  1  0  0  0  0
 46 31  1  0  0  0  0
 46 93  1  1  0  0  0
 46 57  1  0  0  0  0
 46 64  1  0  0  0  0
 47 30  1  0  0  0  0
 47 94  1  6  0  0  0
 47 58  1  0  0  0  0
 47 69  1  0  0  0  0
 48 31  1  0  0  0  0
 48 95  1  1  0  0  0
 48 61  1  0  0  0  0
 48 76  1  0  0  0  0
 49 96  1  6  0  0  0
 49 62  1  0  0  0  0
 49 65  1  0  0  0  0
 50 97  1  6  0  0  0
 50 63  1  0  0  0  0
 50 66  1  0  0  0  0
 51 98  1  6  0  0  0
 51 59  1  0  0  0  0
 51 67  1  0  0  0  0
 52 99  1  6  0  0  0
 52 60  1  0  0  0  0
 52 70  1  0  0  0  0
 53 34  1  0  0  0  0
 53 52  1  0  0  0  0
 53100  1  1  0  0  0
 53 77  1  0  0  0  0
 54 41  1  0  0  0  0
 54101  1  6  0  0  0
 54 78  1  0  0  0  0
 55 51  1  0  0  0  0
 55 54  1  0  0  0  0
 55102  1  6  0  0  0
 55 79  1  0  0  0  0
 56 64  2  0  0  0  0
 56 80  1  0  0  0  0
 57 65  2  0  0  0  0
 57 81  1  0  0  0  0
 58 67  2  0  0  0  0
 58 82  1  0  0  0  0
 59 66  2  0  0  0  0
 59 83  1  0  0  0  0
 60 68  2  0  0  0  0
 60 84  1  0  0  0  0
 61103  1  1  0  0  0
 61 68  1  0  0  0  0
 61 88  1  0  0  0  0
 62 69  1  0  0  0  0
 62 85  2  0  0  0  0
 63 70  1  0  0  0  0
 63 86  2  0  0  0  0
 72161  1  0  0  0  0
 73162  1  0  0  0  0
 74163  1  0  0  0  0
 75164  1  0  0  0  0
 76165  1  0  0  0  0
 77166  1  0  0  0  0
 78167  1  0  0  0  0
 79168  1  0  0  0  0
 80169  1  0  0  0  0
 81170  1  0  0  0  0
 82171  1  0  0  0  0
 83172  1  0  0  0  0
 84173  1  0  0  0  0
M  CHG  1  71   1
M  END
>  <DRUGBANK_ID>
DB16310

>  <COMMON_NAME>
Rezafungin

>  <CAS_NUMBER>
1396640-59-7

>  <UNII>
G013B5478J

>  <SYNONYMS>
Biafungin; Echinocandin B, 1-((4R,5R)-4-hydroxy-N2-((4''-(pentyloxy)(1,1':4',1''-terphenyl)-4-yl)carbonyl)-5-(2-(trimethylammonio)ethoxy)-l-ornithine)-4-((4S)-4-hydroxy-4-(4-hydroxyphenyl)-l-allothreonine)-; Rezafungin; Rezafungin cation; Rezafungin ion

$$$$
