
 OpenBabel10282417072D

 55 59  0  0  1  0  0  0  0  0999 V2000
    5.4957   -1.5229    0.0000 C   0  0  0  0  0  0  0  0  0  0  0  0
    4.7812   -0.2854    0.0000 C   0  0  0  0  0  0  0  0  0  0  0  0
    6.2102   -1.1104    0.0000 C   0  0  0  0  0  0  0  0  0  0  0  0
    5.4957    0.1271    0.0000 C   0  0  0  0  0  0  0  0  0  0  0  0
    0.0992   -2.4049    0.0000 C   0  0  0  0  0  0  0  0  0  0  0  0
    0.0992   -3.2299    0.0000 C   0  0  0  0  0  0  0  0  0  0  0  0
   -0.5837    1.4455    0.0000 C   0  0  0  0  0  0  0  0  0  0  0  0
   -1.8212    0.7310    0.0000 C   0  0  0  0  0  0  0  0  0  0  0  0
    2.6378    0.1271    0.0000 C   0  0  0  0  0  0  0  0  0  0  0  0
    1.3687   -2.8174    0.0000 C   0  0  0  0  0  0  0  0  0  0  0  0
   -1.4087    1.4455    0.0000 C   0  0  0  0  0  0  0  0  0  0  0  0
    4.7812   -1.1104    0.0000 C   0  0  1  0  0  0  0  0  0  0  0  0
    0.8838   -2.1500    0.0000 C   0  0  1  0  0  0  0  0  0  0  0  0
    6.2102   -0.2854    0.0000 C   0  0  1  0  0  0  0  0  0  0  0  0
   -0.1712    0.7310    0.0000 C   0  0  0  0  0  0  0  0  0  0  0  0
   -1.4087    0.0165    0.0000 C   0  0  0  0  0  0  0  0  0  0  0  0
    1.9233   -0.2854    0.0000 C   0  0  0  0  0  0  0  0  0  0  0  0
   -0.5837    0.0165    0.0000 C   0  0  0  0  0  0  0  0  0  0  0  0
    1.9233   -1.1104    0.0000 C   0  0  0  0  0  0  0  0  0  0  0  0
    3.3523   -1.1104    0.0000 C   0  0  0  0  0  0  0  0  0  0  0  0
    0.6538   -0.6979    0.0000 C   0  0  0  0  0  0  0  0  0  0  0  0
   -1.8212    2.1599    0.0000 F   0  0  0  0  0  0  0  0  0  0  0  0
    0.6538    0.7310    0.0000 F   0  0  0  0  0  0  0  0  0  0  0  0
   -1.8212   -0.6979    0.0000 F   0  0  0  0  0  0  0  0  0  0  0  0
    3.3523   -0.2854    0.0000 N   0  0  0  0  0  0  0  0  0  0  0  0
    4.0668   -1.5229    0.0000 N   0  0  0  0  0  0  0  0  0  0  0  0
    1.1387   -0.0305    0.0000 N   0  0  0  0  0  0  0  0  0  0  0  0
   -0.1712   -0.6979    0.0000 N   0  0  0  0  0  0  0  0  0  0  0  0
    2.6378   -1.5229    0.0000 N   0  0  0  0  0  0  0  0  0  0  0  0
    1.1387   -1.3654    0.0000 N   0  0  0  0  0  0  0  0  0  0  0  0
    6.9246    0.1271    0.0000 O   0  0  0  0  0  0  0  0  0  0  0  0
    0.8838   -3.4849    0.0000 O   0  0  0  0  0  0  0  0  0  0  0  0
    4.7812   -1.9354    0.0000 H   0  0  0  0  0  0  0  0  0  0  0  0
    0.3004   -1.5666    0.0000 H   0  0  0  0  0  0  0  0  0  0  0  0
    6.9246   -0.6979    0.0000 H   0  0  0  0  0  0  0  0  0  0  0  0
    5.4957   -2.5929    0.0000 H   0  0  0  0  0  0  0  0  0  0  0  0
    4.5691   -2.0579    0.0000 H   0  0  0  0  0  0  0  0  0  0  0  0
    3.8546    0.2496    0.0000 H   0  0  0  0  0  0  0  0  0  0  0  0
    3.8546   -0.8204    0.0000 H   0  0  0  0  0  0  0  0  0  0  0  0
    7.1368   -1.6454    0.0000 H   0  0  0  0  0  0  0  0  0  0  0  0
    7.1368   -0.5754    0.0000 H   0  0  0  0  0  0  0  0  0  0  0  0
    5.4957    1.1971    0.0000 H   0  0  0  0  0  0  0  0  0  0  0  0
    6.4223    0.6621    0.0000 H   0  0  0  0  0  0  0  0  0  0  0  0
   -0.7664   -1.7760    0.0000 H   0  0  0  0  0  0  0  0  0  0  0  0
    0.2666   -1.3481    0.0000 H   0  0  0  0  0  0  0  0  0  0  0  0
   -0.7665   -3.8588    0.0000 H   0  0  0  0  0  0  0  0  0  0  0  0
    0.2665   -4.2867    0.0000 H   0  0  0  0  0  0  0  0  0  0  0  0
   -0.0677    2.3392    0.0000 H   0  0  0  0  0  0  0  0  0  0  0  0
   -2.8532    0.7310    0.0000 H   0  0  0  0  0  0  0  0  0  0  0  0
    2.6378    1.1591    0.0000 H   0  0  0  0  0  0  0  0  0  0  0  0
    2.4387   -2.8174    0.0000 H   0  0  0  0  0  0  0  0  0  0  0  0
    1.8545   -3.7708    0.0000 H   0  0  0  0  0  0  0  0  0  0  0  0
    4.0668   -2.5074    0.0000 H   0  0  0  0  0  0  0  0  0  0  0  0
   -0.6634   -1.5505    0.0000 H   0  0  0  0  0  0  0  0  0  0  0  0
    7.7647   -0.3579    0.0000 H   0  0  0  0  0  0  0  0  0  0  0  0
  1 36  1  0  0  0  0
  1 37  1  0  0  0  0
  2 38  1  0  0  0  0
  2 39  1  0  0  0  0
  3  1  1  0  0  0  0
  3 40  1  0  0  0  0
  3 41  1  0  0  0  0
  4  2  1  0  0  0  0
  4 42  1  0  0  0  0
  4 43  1  0  0  0  0
  5 44  1  0  0  0  0
  5 45  1  0  0  0  0
  6  5  1  0  0  0  0
  6 46  1  0  0  0  0
  6 47  1  0  0  0  0
  7 48  1  0  0  0  0
  8 49  1  0  0  0  0
  9 50  1  0  0  0  0
 10 51  1  0  0  0  0
 10 52  1  0  0  0  0
 11  7  2  0  0  0  0
 11  8  1  0  0  0  0
 12  1  1  0  0  0  0
 12  2  1  0  0  0  0
 12 26  1  0  0  0  0
 12 33  1  1  0  0  0
 13  5  1  0  0  0  0
 13 10  1  0  0  0  0
 13 30  1  0  0  0  0
 13 34  1  1  0  0  0
 14  3  1  0  0  0  0
 14  4  1  0  0  0  0
 14 31  1  0  0  0  0
 14 35  1  6  0  0  0
 15  7  1  0  0  0  0
 16  8  2  0  0  0  0
 17  9  2  0  0  0  0
 18 15  2  0  0  0  0
 18 16  1  0  0  0  0
 19 17  1  0  0  0  0
 22 11  1  0  0  0  0
 23 15  1  0  0  0  0
 24 16  1  0  0  0  0
 25  9  1  0  0  0  0
 25 20  2  0  0  0  0
 26 20  1  0  0  0  0
 26 53  1  0  0  0  0
 27 17  1  0  0  0  0
 27 21  2  0  0  0  0
 28 18  1  0  0  0  0
 28 21  1  0  0  0  0
 28 54  1  0  0  0  0
 29 19  2  0  0  0  0
 29 20  1  0  0  0  0
 30 19  1  0  0  0  0
 30 21  1  0  0  0  0
 31 55  1  0  0  0  0
 32  6  1  0  0  0  0
 32 10  1  0  0  0  0
M  END
>  <DRUGBANK_ID>
DB11798

>  <COMMON_NAME>
Tanzisertib

>  <CAS_NUMBER>
899805-25-5

>  <UNII>
M5O06306UO

>  <SYNONYMS>
4-[[9-(3S)-tetrahydro-3-furanyl]-8-[(2,4,6-trifluorophenyl)amino]-9H-purin-2-yl]amino]-trans-cyclohexanol; CYCLOHEXANOL, 4-((9-((3S)-TETRAHYDRO-3-FURANYL)-8-((2,4,6-TRIFLUOROPHENYL)AMINO)-9H-PURIN-2-YL)AMINO)-, TRANS-; Tanzisertib; TRANS-4-((9-((3S)-TETRAHYDROFURAN-3-YL)-8-((2,4,6-TRIFLUOROPHENYL)AMINO)-9H-PURIN-2- YL)AMINO)CYCLOHEXANOL

$$$$
