
 OpenBabel10282417072D

 32 34  0  0  0  0  0  0  0  0999 V2000
    0.6538   -0.6979    0.0000 C   0  0  0  0  0  0  0  0  0  0  0  0
    1.1387   -0.0305    0.0000 N   0  0  0  0  0  0  0  0  0  0  0  0
    1.9233   -0.2854    0.0000 C   0  0  0  0  0  0  0  0  0  0  0  0
    2.6378    0.1271    0.0000 C   0  0  0  0  0  0  0  0  0  0  0  0
    2.6378    0.9521    0.0000 O   0  0  0  0  0  0  0  0  0  0  0  0
    3.3523   -0.2854    0.0000 N   0  0  0  0  0  0  0  0  0  0  0  0
    3.3523   -1.1104    0.0000 C   0  0  0  0  0  0  0  0  0  0  0  0
    2.6378   -1.5229    0.0000 N   0  0  0  0  0  0  0  0  0  0  0  0
    1.9233   -1.1104    0.0000 C   0  0  0  0  0  0  0  0  0  0  0  0
    1.1387   -1.3654    0.0000 N   0  0  0  0  0  0  0  0  0  0  0  0
    0.8838   -2.1500    0.0000 C   0  0  0  0  0  0  0  0  0  0  0  0
    0.0768   -2.3215    0.0000 C   0  0  0  0  0  0  0  0  0  0  0  0
   -0.5363   -2.8736    0.0000 C   0  0  0  0  0  0  0  0  0  0  0  0
   -0.7078   -2.0666    0.0000 C   0  0  0  0  0  0  0  0  0  0  0  0
   -1.5117   -1.8810    0.0000 C   0  0  0  0  0  0  0  0  0  0  0  0
   -2.0743   -2.4844    0.0000 O   0  0  0  0  0  0  0  0  0  0  0  0
   -0.8084   -1.2477    0.0000 C   0  0  0  0  0  0  0  0  0  0  0  0
   -1.5678   -0.9254    0.0000 O   0  0  0  0  0  0  0  0  0  0  0  0
    4.0668   -1.5229    0.0000 N   0  0  0  0  0  0  0  0  0  0  0  0
   -0.3782   -0.6979    0.0000 H   0  0  0  0  0  0  0  0  0  0  0  0
    4.2049    0.2069    0.0000 H   0  0  0  0  0  0  0  0  0  0  0  0
    1.5743   -2.9169    0.0000 H   0  0  0  0  0  0  0  0  0  0  0  0
   -0.8669   -3.8912    0.0000 H   0  0  0  0  0  0  0  0  0  0  0  0
   -1.6048   -2.8176    0.0000 H   0  0  0  0  0  0  0  0  0  0  0  0
   -1.8246   -0.8578    0.0000 H   0  0  0  0  0  0  0  0  0  0  0  0
   -2.5543   -1.6404    0.0000 H   0  0  0  0  0  0  0  0  0  0  0  0
   -3.0195   -2.2663    0.0000 H   0  0  0  0  0  0  0  0  0  0  0  0
    0.0461   -0.6037    0.0000 H   0  0  0  0  0  0  0  0  0  0  0  0
   -0.9389   -0.1857    0.0000 H   0  0  0  0  0  0  0  0  0  0  0  0
   -1.6861    0.0374    0.0000 H   0  0  0  0  0  0  0  0  0  0  0  0
    4.0668   -2.5074    0.0000 H   0  0  0  0  0  0  0  0  0  0  0  0
    4.9194   -1.0306    0.0000 H   0  0  0  0  0  0  0  0  0  0  0  0
  1  2  2  0  0  0  0
  1 10  1  0  0  0  0
  1 20  1  0  0  0  0
  2  3  1  0  0  0  0
  3  4  1  0  0  0  0
  3  9  2  0  0  0  0
  4  5  2  0  0  0  0
  4  6  1  0  0  0  0
  6  7  1  0  0  0  0
  6 21  1  0  0  0  0
  7  8  2  0  0  0  0
  7 19  1  0  0  0  0
  8  9  1  0  0  0  0
  9 10  1  0  0  0  0
 10 11  1  0  0  0  0
 11 12  2  0  0  0  0
 11 22  1  0  0  0  0
 12 13  1  0  0  0  0
 12 14  1  0  0  0  0
 13 14  1  0  0  0  0
 13 23  1  0  0  0  0
 13 24  1  0  0  0  0
 14 15  1  0  0  0  0
 14 17  1  0  0  0  0
 15 16  1  0  0  0  0
 15 25  1  0  0  0  0
 15 26  1  0  0  0  0
 16 27  1  0  0  0  0
 17 18  1  0  0  0  0
 17 28  1  0  0  0  0
 17 29  1  0  0  0  0
 18 30  1  0  0  0  0
 19 31  1  0  0  0  0
 19 32  1  0  0  0  0
M  END
>  <DRUGBANK_ID>
DB12438

>  <COMMON_NAME>
Filociclovir

>  <CAS_NUMBER>
632325-71-4

>  <UNII>
EAO0TD9B13

>  <SYNONYMS>
Filociclovir

$$$$
