
 OpenBabel10282417072D

 55 60  0  0  0  0  0  0  0  0999 V2000
   -1.5915    0.1677    0.0000 O   0  0  0  0  0  0  0  0  0  0  0  0
   -1.3710   -0.6271    0.0000 C   0  0  0  0  0  0  0  0  0  0  0  0
   -1.9493   -1.2154    0.0000 C   0  0  0  0  0  0  0  0  0  0  0  0
   -2.7480   -1.0088    0.0000 C   0  0  0  0  0  0  0  0  0  0  0  0
   -3.3263   -1.5971    0.0000 C   0  0  0  0  0  0  0  0  0  0  0  0
   -3.1059   -2.3920    0.0000 C   0  0  0  0  0  0  0  0  0  0  0  0
   -2.3073   -2.5987    0.0000 C   0  0  0  0  0  0  0  0  0  0  0  0
   -1.7291   -2.0104    0.0000 C   0  0  0  0  0  0  0  0  0  0  0  0
   -0.5724   -0.8338    0.0000 O   0  0  0  0  0  0  0  0  0  0  0  0
    0.5235   -0.2085    0.0000 O   0  0  0  0  0  0  0  0  0  0  0  0
   -0.1906    0.3128    0.0000 C   0  0  2  0  0  0  0  0  0  0  0  0
    0.0465    0.9198    0.0000 C   0  0  1  0  0  0  0  0  0  0  0  0
    1.2045    0.3115    0.0000 C   0  0  0  0  0  0  0  0  0  0  0  0
    3.3263   -0.2596    0.0000 C   0  0  0  0  0  0  0  0  0  0  0  0
    2.5032   -0.3132    0.0000 O   0  0  0  0  0  0  0  0  0  0  0  0
    2.0451    0.3729    0.0000 C   0  0  0  0  0  0  0  0  0  0  0  0
    2.4205    1.1183    0.0000 C   0  0  0  0  0  0  0  0  0  0  0  0
    1.9421    1.8192    0.0000 C   0  0  0  0  0  0  0  0  0  0  0  0
    1.0729    1.8631    0.0000 C   0  0  0  0  0  0  0  0  0  0  0  0
    0.2823    2.3757    0.0000 C   0  0  0  0  0  0  0  0  0  0  0  0
   -0.6106    1.9271    0.0000 C   0  0  2  0  0  0  0  0  0  0  0  0
   -0.1676    1.7601    0.0000 C   0  0  1  0  0  0  0  0  0  0  0  0
   -0.9668    2.2062    0.0000 C   0  0  0  0  0  0  0  0  0  0  0  0
   -1.0132    0.7560    0.0000 C   0  0  0  0  0  0  0  0  0  0  0  0
   -1.5062    1.6343    0.0000 C   0  0  0  0  0  0  0  0  0  0  0  0
   -0.6305   -0.3850    0.0000 H   0  0  0  0  0  0  0  0  0  0  0  0
    0.8343    1.0648    0.0000 C   0  0  0  0  0  0  0  0  0  0  0  0
    0.6188    2.0090    0.0000 H   0  0  0  0  0  0  0  0  0  0  0  0
   -1.0898    2.5987    0.0000 H   0  0  0  0  0  0  0  0  0  0  0  0
   -0.6743    0.2282    0.0000 C   0  0  0  0  0  0  0  0  0  0  0  0
   -1.2942    1.2589    0.0000 N   0  0  0  0  0  0  0  0  0  0  0  0
   -1.4647    0.4552    0.0000 C   0  0  0  0  0  0  0  0  0  0  0  0
   -2.0169    1.6566    0.0000 C   0  0  0  0  0  0  0  0  0  0  0  0
   -3.0237   -0.0143    0.0000 H   0  0  0  0  0  0  0  0  0  0  0  0
   -4.3254   -1.3386    0.0000 H   0  0  0  0  0  0  0  0  0  0  0  0
   -3.8293   -3.1280    0.0000 H   0  0  0  0  0  0  0  0  0  0  0  0
   -2.0316   -3.5932    0.0000 H   0  0  0  0  0  0  0  0  0  0  0  0
   -0.7300   -2.2690    0.0000 H   0  0  0  0  0  0  0  0  0  0  0  0
    3.9204   -1.1495    0.0000 H   0  0  0  0  0  0  0  0  0  0  0  0
    3.8000    0.6999    0.0000 H   0  0  0  0  0  0  0  0  0  0  0  0
    4.3940   -0.1901    0.0000 H   0  0  0  0  0  0  0  0  0  0  0  0
    3.4502    1.1866    0.0000 H   0  0  0  0  0  0  0  0  0  0  0  0
    2.4470    2.7193    0.0000 H   0  0  0  0  0  0  0  0  0  0  0  0
    0.3409    3.4441    0.0000 H   0  0  0  0  0  0  0  0  0  0  0  0
   -0.6127    2.9621    0.0000 H   0  0  0  0  0  0  0  0  0  0  0  0
   -1.1296    3.2637    0.0000 H   0  0  0  0  0  0  0  0  0  0  0  0
   -1.9885    2.5241    0.0000 H   0  0  0  0  0  0  0  0  0  0  0  0
   -2.5305    1.7602    0.0000 H   0  0  0  0  0  0  0  0  0  0  0  0
   -0.4173   -0.8105    0.0000 H   0  0  0  0  0  0  0  0  0  0  0  0
   -1.4448   -0.5142    0.0000 H   0  0  0  0  0  0  0  0  0  0  0  0
   -2.3819   -0.0959    0.0000 H   0  0  0  0  0  0  0  0  0  0  0  0
   -1.3253   -0.6057    0.0000 H   0  0  0  0  0  0  0  0  0  0  0  0
   -2.0389    2.7264    0.0000 H   0  0  0  0  0  0  0  0  0  0  0  0
   -2.9324    1.1027    0.0000 H   0  0  0  0  0  0  0  0  0  0  0  0
   -2.9543    2.1725    0.0000 H   0  0  0  0  0  0  0  0  0  0  0  0
  1  2  1  0  0  0  0
  1 24  1  0  0  0  0
  2  9  2  0  0  0  0
  3  2  1  0  0  0  0
  3  8  1  0  0  0  0
  4  3  2  0  0  0  0
  4  5  1  0  0  0  0
  4 34  1  0  0  0  0
  5  6  2  0  0  0  0
  5 35  1  0  0  0  0
  6 36  1  0  0  0  0
  7  6  1  0  0  0  0
  7 37  1  0  0  0  0
  8  7  2  0  0  0  0
  8 38  1  0  0  0  0
 11 12  1  0  0  0  0
 11 24  1  0  0  0  0
 11 26  1  6  0  0  0
 11 10  1  0  0  0  0
 12 22  1  0  0  0  0
 12 27  1  6  0  0  0
 12 30  1  0  0  0  0
 13 10  1  0  0  0  0
 13 27  1  0  0  0  0
 14 39  1  0  0  0  0
 14 40  1  0  0  0  0
 14 41  1  0  0  0  0
 15 14  1  0  0  0  0
 15 16  1  0  0  0  0
 16 13  2  0  0  0  0
 17 18  2  0  0  0  0
 17 16  1  0  0  0  0
 17 42  1  0  0  0  0
 18 19  1  0  0  0  0
 18 43  1  0  0  0  0
 19 27  2  0  0  0  0
 20 19  1  0  0  0  0
 20 44  1  0  0  0  0
 20 45  1  0  0  0  0
 21 22  1  0  0  0  0
 21 20  1  0  0  0  0
 21 29  1  1  0  0  0
 21 31  1  0  0  0  0
 22 28  1  6  0  0  0
 23 22  1  0  0  0  0
 23 46  1  0  0  0  0
 23 47  1  0  0  0  0
 24 25  2  0  0  0  0
 25 23  1  0  0  0  0
 25 48  1  0  0  0  0
 30 49  1  0  0  0  0
 30 50  1  0  0  0  0
 31 32  1  0  0  0  0
 31 33  1  0  0  0  0
 32 30  1  0  0  0  0
 32 51  1  0  0  0  0
 32 52  1  0  0  0  0
 33 53  1  0  0  0  0
 33 54  1  0  0  0  0
 33 55  1  0  0  0  0
M  END
>  <DRUGBANK_ID>
DB15465

>  <COMMON_NAME>
Benzhydrocodone

>  <CAS_NUMBER>
1259440-61-3

>  <UNII>
75MS0AAZ9I

>  <SYNONYMS>
Benzhydrocodone

$$$$
