
 OpenBabel10282417072D

 37 37  0  0  0  0  0  0  0  0999 V2000
    1.3717    0.9404    0.0000 N   0  0  0  0  0  0  0  0  0  0  0  0
    0.6565    0.5263    0.0000 C   0  0  0  0  0  0  0  0  0  0  0  0
    2.0869    0.5263    0.0000 C   0  0  0  0  0  0  0  0  0  0  0  0
    0.6565   -0.3017    0.0000 C   0  0  3  0  0  0  0  0  0  0  0  0
    2.0869   -0.3017    0.0000 N   0  0  0  0  0  0  0  0  0  0  0  0
    1.3717   -0.7282    0.0000 C   0  0  0  0  0  0  0  0  0  0  0  0
   -0.0752    0.9446    0.0000 O   0  0  0  0  0  0  0  0  0  0  0  0
    2.8145    0.9404    0.0000 O   0  0  0  0  0  0  0  0  0  0  0  0
    1.3717   -1.5520    0.0000 O   0  0  0  0  0  0  0  0  0  0  0  0
   -0.0460    0.1249    0.0000 C   0  0  0  0  0  0  0  0  0  0  0  0
    1.3717    1.7307    0.0000 C   0  0  0  0  0  0  0  0  0  0  0  0
   -0.7778   -0.2389    0.0000 C   0  0  0  0  0  0  0  0  0  0  0  0
   -1.4761    0.1249    0.0000 C   0  0  0  0  0  0  0  0  0  0  0  0
    0.2440   -1.0162    0.0000 C   0  0  3  0  0  0  0  0  0  0  0  0
   -0.5810   -1.0162    0.0000 C   0  0  0  0  0  0  0  0  0  0  0  0
    0.6565   -1.7307    0.0000 C   0  0  0  0  0  0  0  0  0  0  0  0
   -1.4060   -1.0162    0.0000 C   0  0  0  0  0  0  0  0  0  0  0  0
   -2.2312   -1.0162    0.0000 C   0  0  0  0  0  0  0  0  0  0  0  0
   -2.8145   -1.5995    0.0000 C   0  0  0  0  0  0  0  0  0  0  0  0
    2.9430   -0.7879    0.0000 H   0  0  0  0  0  0  0  0  0  0  0  0
   -0.0009    1.1939    0.0000 H   0  0  0  0  0  0  0  0  0  0  0  0
   -0.9435    0.7075    0.0000 H   0  0  0  0  0  0  0  0  0  0  0  0
    2.2983    2.2657    0.0000 H   0  0  0  0  0  0  0  0  0  0  0  0
    0.4451    2.2657    0.0000 H   0  0  0  0  0  0  0  0  0  0  0  0
    1.3717    2.8007    0.0000 H   0  0  0  0  0  0  0  0  0  0  0  0
   -0.7876   -1.2709    0.0000 H   0  0  0  0  0  0  0  0  0  0  0  0
   -1.5208    1.1559    0.0000 H   0  0  0  0  0  0  0  0  0  0  0  0
   -2.3467   -0.4293    0.0000 H   0  0  0  0  0  0  0  0  0  0  0  0
   -0.2910   -0.0896    0.0000 H   0  0  0  0  0  0  0  0  0  0  0  0
    0.1215   -2.6573    0.0000 H   0  0  0  0  0  0  0  0  0  0  0  0
    1.7265   -1.7307    0.0000 H   0  0  0  0  0  0  0  0  0  0  0  0
    1.1915   -2.6574    0.0000 H   0  0  0  0  0  0  0  0  0  0  0  0
   -2.6407   -0.0276    0.0000 H   0  0  0  0  0  0  0  0  0  0  0  0
   -3.2806   -0.8075    0.0000 H   0  0  0  0  0  0  0  0  0  0  0  0
   -3.8480   -1.3226    0.0000 H   0  0  0  0  0  0  0  0  0  0  0  0
   -2.5376   -2.6330    0.0000 H   0  0  0  0  0  0  0  0  0  0  0  0
   -3.5711   -2.3561    0.0000 H   0  0  0  0  0  0  0  0  0  0  0  0
  2  1  1  0  0  0  0
  3  1  1  0  0  0  0
  4  2  1  0  0  0  0
  4 14  1  0  0  0  0
  5  3  1  0  0  0  0
  5 20  1  0  0  0  0
  6  5  1  0  0  0  0
  6  4  1  0  0  0  0
  7  2  2  0  0  0  0
  8  3  2  0  0  0  0
  9  6  2  0  0  0  0
 10  4  1  0  0  0  0
 10 21  1  0  0  0  0
 10 22  1  0  0  0  0
 11  1  1  0  0  0  0
 11 23  1  0  0  0  0
 11 24  1  0  0  0  0
 11 25  1  0  0  0  0
 12 10  1  0  0  0  0
 12 26  1  0  0  0  0
 13 12  2  0  0  0  0
 13 27  1  0  0  0  0
 13 28  1  0  0  0  0
 14 15  1  0  0  0  0
 14 16  1  0  0  0  0
 14 29  1  0  0  0  0
 15 17  3  0  0  0  0
 16 30  1  0  0  0  0
 16 31  1  0  0  0  0
 16 32  1  0  0  0  0
 17 18  1  0  0  0  0
 18 19  1  0  0  0  0
 18 33  1  0  0  0  0
 18 34  1  0  0  0  0
 19 35  1  0  0  0  0
 19 36  1  0  0  0  0
 19 37  1  0  0  0  0
M  END
>  <DRUGBANK_ID>
DB00474

>  <SECONDARY_ACCESSION_NUMBERS>
APRD00058

>  <COMMON_NAME>
Methohexital

>  <CAS_NUMBER>
151-83-7

>  <UNII>
E5B8ND5IPE

>  <SYNONYMS>
(±)-5-allyl-1-methyl-5-(1-methyl-2-pentynyl)barbituric acid; 5-allyl-1-methyl-5-(1-methyl-2-pentynyl)-2,4,6(1H,3H,5H)-pyrimidinetrione; 5-Allyl-1-methyl-5-(1-methyl-pent-2-ynyl)-pyrimidine-2,4,6-trione; 5-Allyl-5-(3-hexyn-2-yl)-1-methylbarbituric acid; Methohexital; Methohexitalum; Methohexitone; Metohexital; α-DL-1-methyl-5-allyl-5-(1'-methylpentyn-2-yl)barbituric acid

$$$$
