
 OpenBabel10282417072D

 43 46  0  0  0  0  0  0  0  0999 V2000
   -2.8563   -1.5683    0.0000 C   0  0  0  0  0  0  0  0  0  0  0  0
   -2.8563   -2.3933    0.0000 C   0  0  0  0  0  0  0  0  0  0  0  0
   -2.1418   -2.8058    0.0000 C   0  0  0  0  0  0  0  0  0  0  0  0
   -1.4273   -2.3933    0.0000 N   0  0  0  0  0  0  0  0  0  0  0  0
   -1.4273   -1.5683    0.0000 C   0  0  0  0  0  0  0  0  0  0  0  0
   -2.1418   -1.1558    0.0000 C   0  0  0  0  0  0  0  0  0  0  0  0
   -0.7018   -1.1493    0.0000 N   0  0  0  0  0  0  0  0  0  0  0  0
    0.0083   -1.5593    0.0000 C   0  0  0  0  0  0  0  0  0  0  0  0
    0.0085   -2.3930    0.0000 C   0  0  0  0  0  0  0  0  0  0  0  0
    0.7231   -2.8054    0.0000 C   0  0  0  0  0  0  0  0  0  0  0  0
    1.4375   -2.3926    0.0000 C   0  0  0  0  0  0  0  0  0  0  0  0
    1.4372   -1.5588    0.0000 C   0  0  0  0  0  0  0  0  0  0  0  0
    0.7226   -1.1465    0.0000 C   0  0  0  0  0  0  0  0  0  0  0  0
    2.1517   -1.1463    0.0000 C   0  0  0  0  0  0  0  0  0  0  0  0
    1.7392   -0.4318    0.0000 F   0  0  0  0  0  0  0  0  0  0  0  0
    2.5642   -1.8608    0.0000 F   0  0  0  0  0  0  0  0  0  0  0  0
    2.8661   -0.7338    0.0000 F   0  0  0  0  0  0  0  0  0  0  0  0
   -2.1418   -0.3308    0.0000 C   0  0  0  0  0  0  0  0  0  0  0  0
   -1.4373    0.0760    0.0000 O   0  0  0  0  0  0  0  0  0  0  0  0
   -2.8661    0.0874    0.0000 O   0  0  0  0  0  0  0  0  0  0  0  0
   -1.4373    0.9010    0.0000 C   0  0  3  0  0  0  0  0  0  0  0  0
   -0.7782    1.3801    0.0000 C   0  0  0  0  0  0  0  0  0  0  0  0
   -1.0301    2.1550    0.0000 C   0  0  0  0  0  0  0  0  0  0  0  0
   -1.8451    2.1549    0.0000 C   0  0  0  0  0  0  0  0  0  0  0  0
   -2.0967    1.3798    0.0000 O   0  0  0  0  0  0  0  0  0  0  0  0
    0.0288    1.2088    0.0000 C   0  0  0  0  0  0  0  0  0  0  0  0
    0.5806    1.8220    0.0000 C   0  0  0  0  0  0  0  0  0  0  0  0
    0.3287    2.5969    0.0000 C   0  0  0  0  0  0  0  0  0  0  0  0
   -0.4782    2.7682    0.0000 C   0  0  0  0  0  0  0  0  0  0  0  0
   -2.3178    2.8058    0.0000 O   0  0  0  0  0  0  0  0  0  0  0  0
   -3.7500   -1.0523    0.0000 H   0  0  0  0  0  0  0  0  0  0  0  0
   -3.7500   -2.9093    0.0000 H   0  0  0  0  0  0  0  0  0  0  0  0
   -2.1418   -3.8378    0.0000 H   0  0  0  0  0  0  0  0  0  0  0  0
   -0.7019   -0.1648    0.0000 H   0  0  0  0  0  0  0  0  0  0  0  0
   -0.8851   -2.9092    0.0000 H   0  0  0  0  0  0  0  0  0  0  0  0
    0.7234   -3.8374    0.0000 H   0  0  0  0  0  0  0  0  0  0  0  0
    2.3314   -2.9083    0.0000 H   0  0  0  0  0  0  0  0  0  0  0  0
    0.7222   -0.1145    0.0000 H   0  0  0  0  0  0  0  0  0  0  0  0
   -0.4839    0.4153    0.0000 H   0  0  0  0  0  0  0  0  0  0  0  0
    0.3480    0.2274    0.0000 H   0  0  0  0  0  0  0  0  0  0  0  0
    1.5901    1.6077    0.0000 H   0  0  0  0  0  0  0  0  0  0  0  0
    1.0191    3.3640    0.0000 H   0  0  0  0  0  0  0  0  0  0  0  0
   -0.7973    3.7496    0.0000 H   0  0  0  0  0  0  0  0  0  0  0  0
  1  2  2  0  0  0  0
  1  6  1  0  0  0  0
  1 31  1  0  0  0  0
  2  3  1  0  0  0  0
  2 32  1  0  0  0  0
  3  4  2  0  0  0  0
  3 33  1  0  0  0  0
  4  5  1  0  0  0  0
  5  6  2  0  0  0  0
  5  7  1  0  0  0  0
  6 18  1  0  0  0  0
  7  8  1  0  0  0  0
  7 34  1  0  0  0  0
  8  9  2  0  0  0  0
  8 13  1  0  0  0  0
  9 10  1  0  0  0  0
  9 35  1  0  0  0  0
 10 11  2  0  0  0  0
 10 36  1  0  0  0  0
 11 12  1  0  0  0  0
 11 37  1  0  0  0  0
 12 13  2  0  0  0  0
 12 14  1  0  0  0  0
 13 38  1  0  0  0  0
 14 15  1  0  0  0  0
 14 16  1  0  0  0  0
 14 17  1  0  0  0  0
 18 19  1  0  0  0  0
 18 20  2  0  0  0  0
 19 21  1  0  0  0  0
 21 22  1  0  0  0  0
 21 25  1  0  0  0  0
 21 39  1  0  0  0  0
 22 23  1  0  0  0  0
 22 26  2  0  0  0  0
 23 24  1  0  0  0  0
 23 29  2  0  0  0  0
 24 25  1  0  0  0  0
 24 30  2  0  0  0  0
 26 27  1  0  0  0  0
 26 40  1  0  0  0  0
 27 28  2  0  0  0  0
 27 41  1  0  0  0  0
 28 29  1  0  0  0  0
 28 42  1  0  0  0  0
 29 43  1  0  0  0  0
M  END
>  <DRUGBANK_ID>
DB09295

>  <COMMON_NAME>
Talniflumate

>  <CAS_NUMBER>
66898-62-2

>  <UNII>
JFK78S0U9S

>  <SYNONYMS>
Talniflumate; Talniflumato; Talniflumatum

$$$$
