
 OpenBabel10282417072D

 71 75  0  0  0  0  0  0  0  0999 V2000
   -3.4024   -2.0419    0.0000 C   0  0  0  0  0  0  0  0  0  0  0  0
   -2.7713   -1.5089    0.0000 C   0  0  0  0  0  0  0  0  0  0  0  0
   -1.9964   -1.7919    0.0000 C   0  0  0  0  0  0  0  0  0  0  0  0
   -1.8525   -2.6033    0.0000 C   0  0  0  0  0  0  0  0  0  0  0  0
   -2.4835   -3.1360    0.0000 C   0  0  0  0  0  0  0  0  0  0  0  0
   -3.2585   -2.8532    0.0000 C   0  0  0  0  0  0  0  0  0  0  0  0
   -1.0774   -2.8861    0.0000 F   0  0  0  0  0  0  0  0  0  0  0  0
   -1.3608   -1.2634    0.0000 C   0  0  0  0  0  0  0  0  0  0  0  0
   -1.5044   -0.4476    0.0000 N   0  0  0  0  0  0  0  0  0  0  0  0
   -0.7918   -0.0349    0.0000 C   0  0  0  0  0  0  0  0  0  0  0  0
   -0.7918    0.7900    0.0000 C   0  0  0  0  0  0  0  0  0  0  0  0
   -1.5045    1.2026    0.0000 C   0  0  0  0  0  0  0  0  0  0  0  0
   -1.4997    1.9370    0.0000 O   0  0  0  0  0  0  0  0  0  0  0  0
   -2.2218    0.7899    0.0000 N   0  0  0  0  0  0  0  0  0  0  0  0
   -2.9345    1.2025    0.0000 C   0  0  0  0  0  0  0  0  0  0  0  0
   -2.9345    2.0276    0.0000 N   0  0  0  0  0  0  0  0  0  0  0  0
   -3.6517    2.4400    0.0000 N   0  0  0  0  0  0  0  0  0  0  0  0
   -4.3643    2.0276    0.0000 C   0  0  0  0  0  0  0  0  0  0  0  0
   -5.0817    2.4400    0.0000 O   0  0  0  0  0  0  0  0  0  0  0  0
   -5.7943    2.0275    0.0000 C   0  0  0  0  0  0  0  0  0  0  0  0
   -4.3643    1.2025    0.0000 C   0  0  0  0  0  0  0  0  0  0  0  0
   -3.6516    0.7899    0.0000 C   0  0  0  0  0  0  0  0  0  0  0  0
   -2.2218   -0.0350    0.0000 C   0  0  0  0  0  0  0  0  0  0  0  0
   -2.9345   -0.4477    0.0000 O   0  0  0  0  0  0  0  0  0  0  0  0
   -0.0067    1.0430    0.0000 C   0  0  0  0  0  0  0  0  0  0  0  0
    0.2476    1.8279    0.0000 C   0  0  0  0  0  0  0  0  0  0  0  0
   -0.3048    2.4405    0.0000 N   0  0  0  0  0  0  0  0  0  0  0  0
   -0.9686    2.3221    0.0000 C   0  0  0  0  0  0  0  0  0  0  0  0
   -0.0862    3.1360    0.0000 C   0  0  0  0  0  0  0  0  0  0  0  0
    0.4808    0.3775    0.0000 C   0  0  0  0  0  0  0  0  0  0  0  0
   -0.0066   -0.2926    0.0000 S   0  0  0  0  0  0  0  0  0  0  0  0
    1.3060    0.3775    0.0000 C   0  0  0  0  0  0  0  0  0  0  0  0
    1.7185    1.0902    0.0000 C   0  0  0  0  0  0  0  0  0  0  0  0
    2.5437    1.0902    0.0000 C   0  0  0  0  0  0  0  0  0  0  0  0
    2.9560    0.3775    0.0000 C   0  0  0  0  0  0  0  0  0  0  0  0
    3.7813    0.3776    0.0000 N   0  0  0  0  0  0  0  0  0  0  0  0
    4.0641   -0.3974    0.0000 C   0  0  0  0  0  0  0  0  0  0  0  0
    3.5313   -1.0328    0.0000 O   0  0  0  0  0  0  0  0  0  0  0  0
    4.8756   -0.5412    0.0000 N   0  0  0  0  0  0  0  0  0  0  0  0
    5.0193   -1.3570    0.0000 O   0  0  0  0  0  0  0  0  0  0  0  0
    5.7943   -1.6354    0.0000 C   0  0  0  0  0  0  0  0  0  0  0  0
    2.5436   -0.3395    0.0000 C   0  0  0  0  0  0  0  0  0  0  0  0
    1.7186   -0.3395    0.0000 C   0  0  0  0  0  0  0  0  0  0  0  0
   -2.8723   -0.9428    0.0000 F   0  0  0  0  0  0  0  0  0  0  0  0
   -4.3729   -1.6910    0.0000 H   0  0  0  0  0  0  0  0  0  0  0  0
   -2.3032   -4.1521    0.0000 H   0  0  0  0  0  0  0  0  0  0  0  0
   -4.0490   -3.5166    0.0000 H   0  0  0  0  0  0  0  0  0  0  0  0
   -0.3562   -1.6318    0.0000 H   0  0  0  0  0  0  0  0  0  0  0  0
   -0.5402   -0.5767    0.0000 H   0  0  0  0  0  0  0  0  0  0  0  0
   -6.7216    2.5614    0.0000 H   0  0  0  0  0  0  0  0  0  0  0  0
   -5.7931    0.9575    0.0000 H   0  0  0  0  0  0  0  0  0  0  0  0
   -6.7203    1.4914    0.0000 H   0  0  0  0  0  0  0  0  0  0  0  0
   -5.2583    0.6870    0.0000 H   0  0  0  0  0  0  0  0  0  0  0  0
   -3.6530   -0.2421    0.0000 H   0  0  0  0  0  0  0  0  0  0  0  0
    1.2940    2.0512    0.0000 H   0  0  0  0  0  0  0  0  0  0  0  0
    0.5775    2.8458    0.0000 H   0  0  0  0  0  0  0  0  0  0  0  0
   -1.6580    3.1404    0.0000 H   0  0  0  0  0  0  0  0  0  0  0  0
   -1.3326    1.3159    0.0000 H   0  0  0  0  0  0  0  0  0  0  0  0
   -2.0220    2.1342    0.0000 H   0  0  0  0  0  0  0  0  0  0  0  0
    0.9582    3.3685    0.0000 H   0  0  0  0  0  0  0  0  0  0  0  0
   -0.8098    3.9242    0.0000 H   0  0  0  0  0  0  0  0  0  0  0  0
    0.2346    4.1568    0.0000 H   0  0  0  0  0  0  0  0  0  0  0  0
    1.2030    1.9842    0.0000 H   0  0  0  0  0  0  0  0  0  0  0  0
    3.0593    1.9842    0.0000 H   0  0  0  0  0  0  0  0  0  0  0  0
    4.3456    1.1843    0.0000 H   0  0  0  0  0  0  0  0  0  0  0  0
    5.5721    0.1546    0.0000 H   0  0  0  0  0  0  0  0  0  0  0  0
    5.9845   -2.6884    0.0000 H   0  0  0  0  0  0  0  0  0  0  0  0
    6.6111   -0.9442    0.0000 H   0  0  0  0  0  0  0  0  0  0  0  0
    6.8013   -1.9971    0.0000 H   0  0  0  0  0  0  0  0  0  0  0  0
    3.0603   -1.2328    0.0000 H   0  0  0  0  0  0  0  0  0  0  0  0
    1.2020   -1.2329    0.0000 H   0  0  0  0  0  0  0  0  0  0  0  0
  1  2  1  0  0  0  0
  1 45  1  0  0  0  0
  2  3  2  0  0  0  0
  2 44  1  0  0  0  0
  3  4  1  0  0  0  0
  3  8  1  0  0  0  0
  4  5  2  0  0  0  0
  4  7  1  0  0  0  0
  5  6  1  0  0  0  0
  5 46  1  0  0  0  0
  6  1  2  0  0  0  0
  6 47  1  0  0  0  0
  8 48  1  0  0  0  0
  8 49  1  0  0  0  0
  9  8  1  0  0  0  0
 10  9  1  0  0  0  0
 10 11  2  0  0  0  0
 11 12  1  0  0  0  0
 11 25  1  0  0  0  0
 12 13  2  0  0  0  0
 12 14  1  0  0  0  0
 14 15  1  0  0  0  0
 14 23  1  0  0  0  0
 15 16  1  0  0  0  0
 16 17  2  0  0  0  0
 17 18  1  0  0  0  0
 18 19  1  0  0  0  0
 18 21  2  0  0  0  0
 19 20  1  0  0  0  0
 20 50  1  0  0  0  0
 20 51  1  0  0  0  0
 20 52  1  0  0  0  0
 21 22  1  0  0  0  0
 21 53  1  0  0  0  0
 22 15  2  0  0  0  0
 22 54  1  0  0  0  0
 23 24  2  0  0  0  0
 23  9  1  0  0  0  0
 25 26  1  0  0  0  0
 26 27  1  0  0  0  0
 26 55  1  0  0  0  0
 26 56  1  0  0  0  0
 27 28  1  0  0  0  0
 27 29  1  0  0  0  0
 28 57  1  0  0  0  0
 28 58  1  0  0  0  0
 28 59  1  0  0  0  0
 29 60  1  0  0  0  0
 29 61  1  0  0  0  0
 29 62  1  0  0  0  0
 30 25  2  0  0  0  0
 31 30  1  0  0  0  0
 31 10  1  0  0  0  0
 32 30  1  0  0  0  0
 32 43  2  0  0  0  0
 33 32  1  0  0  0  0
 33 63  1  0  0  0  0
 34 33  2  0  0  0  0
 34 64  1  0  0  0  0
 35 34  1  0  0  0  0
 35 36  1  0  0  0  0
 36 37  1  0  0  0  0
 36 65  1  0  0  0  0
 37 38  2  0  0  0  0
 37 39  1  0  0  0  0
 39 40  1  0  0  0  0
 39 66  1  0  0  0  0
 40 41  1  0  0  0  0
 41 67  1  0  0  0  0
 41 68  1  0  0  0  0
 41 69  1  0  0  0  0
 42 35  2  0  0  0  0
 42 70  1  0  0  0  0
 43 42  1  0  0  0  0
 43 71  1  0  0  0  0
M  END
>  <DRUGBANK_ID>
DB11853

>  <COMMON_NAME>
Relugolix

>  <CAS_NUMBER>
737789-87-6

>  <UNII>
P76B05O5V6

>  <SYNONYMS>
Relugolix

$$$$
