
 OpenBabel10282417072D

125131  0  0  1  0  0  0  0  0999 V2000
    7.4190   -3.9989    0.0000 C   0  0  0  0  0  0  0  0  0  0  0  0
    7.0065   -7.5712    0.0000 C   0  0  0  0  0  0  0  0  0  0  0  0
   15.2506   -0.6944    0.0000 C   0  0  0  0  0  0  0  0  0  0  0  0
   14.6694   -1.9998    0.0000 C   0  0  0  0  0  0  0  0  0  0  0  0
   11.8272   -2.2985    0.0000 C   0  0  0  0  0  0  0  0  0  0  0  0
    3.2940   -4.8239    0.0000 C   0  0  0  0  0  0  0  0  0  0  0  0
   12.1497    1.4683    0.0000 C   0  0  0  0  0  0  0  0  0  0  0  0
   11.4822    0.9834    0.0000 C   0  0  0  0  0  0  0  0  0  0  0  0
    8.2440   -6.8568    0.0000 C   0  0  0  0  0  0  0  0  0  0  0  0
    8.6565   -6.1423    0.0000 C   0  0  0  0  0  0  0  0  0  0  0  0
    4.1190   -5.4278    0.0000 C   0  0  0  0  0  0  0  0  0  0  0  0
    4.5315   -6.1423    0.0000 C   0  0  0  0  0  0  0  0  0  0  0  0
   14.4107    0.4617    0.0000 C   0  0  0  0  0  0  0  0  0  0  0  0
    9.9664   -6.8097    0.0000 C   0  0  0  0  0  0  0  0  0  0  0  0
   12.1721   -5.5804    0.0000 C   0  0  0  0  0  0  0  0  0  0  0  0
   12.9033    1.1328    0.0000 C   0  0  0  0  0  0  0  0  0  0  0  0
   13.6570    0.7972    0.0000 C   0  0  0  0  0  0  0  0  0  0  0  0
   10.7510   -6.5548    0.0000 C   0  0  0  0  0  0  0  0  0  0  0  0
   11.5047   -6.0654    0.0000 C   0  0  0  0  0  0  0  0  0  0  0  0
   11.5685    0.1629    0.0000 C   0  0  0  0  0  0  0  0  0  0  0  0
    7.4190   -5.4278    0.0000 C   0  0  0  0  0  0  0  0  0  0  0  0
   13.2483   -2.1491    0.0000 C   0  0  0  0  0  0  0  0  0  0  0  0
    6.1815   -4.7134    0.0000 C   0  0  0  0  0  0  0  0  0  0  0  0
    4.1190   -3.9989    0.0000 C   0  0  0  0  0  0  0  0  0  0  0  0
    7.0065   -4.7134    0.0000 C   0  0  0  0  0  0  0  0  0  0  0  0
    7.4190   -6.8568    0.0000 C   0  0  2  0  0  0  0  0  0  0  0  0
   14.4969   -0.3588    0.0000 C   0  0  2  0  0  0  0  0  0  0  0  0
   13.9157   -1.6642    0.0000 C   0  0  1  0  0  0  0  0  0  0  0  0
   11.9134   -3.1190    0.0000 C   0  0  0  0  0  0  0  0  0  0  0  0
    9.4815   -6.1423    0.0000 C   0  0  1  0  0  0  0  0  0  0  0  0
    4.5315   -4.7134    0.0000 C   0  0  1  0  0  0  0  0  0  0  0  0
   13.3345   -2.9696    0.0000 C   0  0  1  0  0  0  0  0  0  0  0  0
   12.0859   -4.7599    0.0000 C   0  0  2  0  0  0  0  0  0  0  0  0
    7.0065   -6.1423    0.0000 C   0  0  1  0  0  0  0  0  0  0  0  0
    5.3565   -6.1423    0.0000 C   0  0  2  0  0  0  0  0  0  0  0  0
   11.2460   -3.6039    0.0000 C   0  0  2  0  0  0  0  0  0  0  0  0
   13.8295   -0.8437    0.0000 C   0  0  1  0  0  0  0  0  0  0  0  0
   12.6671   -3.4545    0.0000 C   0  0  1  0  0  0  0  0  0  0  0  0
   11.3322   -4.4244    0.0000 C   0  0  2  0  0  0  0  0  0  0  0  0
    2.4690   -3.9989    0.0000 C   0  0  0  0  0  0  0  0  0  0  0  0
    3.2940   -3.9989    0.0000 C   0  0  1  0  0  0  0  0  0  0  0  0
   12.9896    0.3123    0.0000 C   0  0  2  0  0  0  0  0  0  0  0  0
   10.7510   -5.7298    0.0000 C   0  0  1  0  0  0  0  0  0  0  0  0
    5.7690   -5.4278    0.0000 C   0  0  1  0  0  0  0  0  0  0  0  0
   14.0882   -3.3052    0.0000 O   0  0  0  0  0  0  0  0  0  0  0  0
    5.7690   -6.8568    0.0000 O   0  0  0  0  0  0  0  0  0  0  0  0
   10.4923   -3.2684    0.0000 O   0  0  0  0  0  0  0  0  0  0  0  0
    2.0565   -4.7134    0.0000 O   0  0  0  0  0  0  0  0  0  0  0  0
    2.0565   -3.2844    0.0000 O   0  0  0  0  0  0  0  0  0  0  0  0
    3.2940   -3.1739    0.0000 O   0  0  0  0  0  0  0  0  0  0  0  0
   12.3221   -0.1726    0.0000 O   0  0  0  0  0  0  0  0  0  0  0  0
   12.7533   -4.2750    0.0000 O   0  0  0  0  0  0  0  0  0  0  0  0
    9.9664   -5.4749    0.0000 O   0  0  0  0  0  0  0  0  0  0  0  0
    5.3565   -4.7134    0.0000 O   0  0  0  0  0  0  0  0  0  0  0  0
    6.1815   -6.1423    0.0000 O   0  0  0  0  0  0  0  0  0  0  0  0
   13.0758   -0.5082    0.0000 O   0  0  0  0  0  0  0  0  0  0  0  0
   10.6648   -4.9093    0.0000 O   0  0  0  0  0  0  0  0  0  0  0  0
    8.6565   -7.5712    0.0000 H   0  0  0  0  0  0  0  0  0  0  0  0
    8.2440   -5.4278    0.0000 H   0  0  0  0  0  0  0  0  0  0  0  0
    7.8315   -7.5712    0.0000 H   0  0  0  0  0  0  0  0  0  0  0  0
   15.1644    0.1261    0.0000 H   0  0  0  0  0  0  0  0  0  0  0  0
   14.0020   -2.4847    0.0000 H   0  0  0  0  0  0  0  0  0  0  0  0
    9.1069   -6.8774    0.0000 H   0  0  0  0  0  0  0  0  0  0  0  0
    3.7065   -4.7134    0.0000 H   0  0  0  0  0  0  0  0  0  0  0  0
   12.5115   -2.9121    0.0000 H   0  0  0  0  0  0  0  0  0  0  0  0
   12.8396   -5.0955    0.0000 H   0  0  0  0  0  0  0  0  0  0  0  0
    7.8315   -6.1423    0.0000 H   0  0  0  0  0  0  0  0  0  0  0  0
    4.9440   -6.8568    0.0000 H   0  0  0  0  0  0  0  0  0  0  0  0
   11.1597   -2.7834    0.0000 H   0  0  0  0  0  0  0  0  0  0  0  0
   14.5832   -1.1793    0.0000 H   0  0  0  0  0  0  0  0  0  0  0  0
   12.3054   -2.7130    0.0000 H   0  0  0  0  0  0  0  0  0  0  0  0
   10.5785   -4.0888    0.0000 H   0  0  0  0  0  0  0  0  0  0  0  0
    8.4890   -3.9989    0.0000 H   0  0  0  0  0  0  0  0  0  0  0  0
    6.8840   -3.0723    0.0000 H   0  0  0  0  0  0  0  0  0  0  0  0
    7.9540   -3.0722    0.0000 H   0  0  0  0  0  0  0  0  0  0  0  0
    5.9365   -7.5712    0.0000 H   0  0  0  0  0  0  0  0  0  0  0  0
    7.5415   -8.4979    0.0000 H   0  0  0  0  0  0  0  0  0  0  0  0
    6.4715   -8.4978    0.0000 H   0  0  0  0  0  0  0  0  0  0  0  0
   15.3624   -1.7585    0.0000 H   0  0  0  0  0  0  0  0  0  0  0  0
   16.1163   -0.0655    0.0000 H   0  0  0  0  0  0  0  0  0  0  0  0
   16.2281   -1.1296    0.0000 H   0  0  0  0  0  0  0  0  0  0  0  0
   14.7812   -3.0639    0.0000 H   0  0  0  0  0  0  0  0  0  0  0  0
   15.5351   -1.3709    0.0000 H   0  0  0  0  0  0  0  0  0  0  0  0
   15.6469   -2.4350    0.0000 H   0  0  0  0  0  0  0  0  0  0  0  0
   12.6621   -1.6919    0.0000 H   0  0  0  0  0  0  0  0  0  0  0  0
   10.8844   -1.8787    0.0000 H   0  0  0  0  0  0  0  0  0  0  0  0
    2.3674   -5.3589    0.0000 H   0  0  0  0  0  0  0  0  0  0  0  0
    4.2206   -5.3589    0.0000 H   0  0  0  0  0  0  0  0  0  0  0  0
    3.2940   -5.8939    0.0000 H   0  0  0  0  0  0  0  0  0  0  0  0
   12.0379    2.5324    0.0000 H   0  0  0  0  0  0  0  0  0  0  0  0
   13.0153    2.0972    0.0000 H   0  0  0  0  0  0  0  0  0  0  0  0
   10.5047    1.4186    0.0000 H   0  0  0  0  0  0  0  0  0  0  0  0
   10.6166    0.3544    0.0000 H   0  0  0  0  0  0  0  0  0  0  0  0
    3.0490   -5.4278    0.0000 H   0  0  0  0  0  0  0  0  0  0  0  0
    3.5840   -4.5011    0.0000 H   0  0  0  0  0  0  0  0  0  0  0  0
    3.9965   -7.0689    0.0000 H   0  0  0  0  0  0  0  0  0  0  0  0
    5.0665   -7.0689    0.0000 H   0  0  0  0  0  0  0  0  0  0  0  0
   15.2763    1.0906    0.0000 H   0  0  0  0  0  0  0  0  0  0  0  0
   15.3882    0.0265    0.0000 H   0  0  0  0  0  0  0  0  0  0  0  0
    9.6357   -7.8273    0.0000 H   0  0  0  0  0  0  0  0  0  0  0  0
    8.9096   -6.9771    0.0000 H   0  0  0  0  0  0  0  0  0  0  0  0
   13.1496   -6.0156    0.0000 H   0  0  0  0  0  0  0  0  0  0  0  0
   13.0378   -4.9515    0.0000 H   0  0  0  0  0  0  0  0  0  0  0  0
   13.7689    1.7618    0.0000 H   0  0  0  0  0  0  0  0  0  0  0  0
   13.8808    0.6977    0.0000 H   0  0  0  0  0  0  0  0  0  0  0  0
   13.5451    1.8613    0.0000 H   0  0  0  0  0  0  0  0  0  0  0  0
   12.6795    1.2324    0.0000 H   0  0  0  0  0  0  0  0  0  0  0  0
   11.6166   -7.1837    0.0000 H   0  0  0  0  0  0  0  0  0  0  0  0
   11.7044   -6.0690    0.0000 H   0  0  0  0  0  0  0  0  0  0  0  0
   11.6166   -7.1295    0.0000 H   0  0  0  0  0  0  0  0  0  0  0  0
   10.6391   -6.6943    0.0000 H   0  0  0  0  0  0  0  0  0  0  0  0
   10.7029   -0.4661    0.0000 H   0  0  0  0  0  0  0  0  0  0  0  0
   11.6804   -0.9012    0.0000 H   0  0  0  0  0  0  0  0  0  0  0  0
    8.4890   -5.4278    0.0000 H   0  0  0  0  0  0  0  0  0  0  0  0
    7.9540   -6.3544    0.0000 H   0  0  0  0  0  0  0  0  0  0  0  0
   12.2708   -1.7139    0.0000 H   0  0  0  0  0  0  0  0  0  0  0  0
   12.3826   -2.7780    0.0000 H   0  0  0  0  0  0  0  0  0  0  0  0
    5.6655   -3.8197    0.0000 H   0  0  0  0  0  0  0  0  0  0  0  0
    4.6540   -3.0723    0.0000 H   0  0  0  0  0  0  0  0  0  0  0  0
    3.5840   -3.0723    0.0000 H   0  0  0  0  0  0  0  0  0  0  0  0
   14.1896   -4.2699    0.0000 H   0  0  0  0  0  0  0  0  0  0  0  0
    5.2840   -7.6968    0.0000 H   0  0  0  0  0  0  0  0  0  0  0  0
   10.3908   -2.3037    0.0000 H   0  0  0  0  0  0  0  0  0  0  0  0
    2.5250   -2.4729    0.0000 H   0  0  0  0  0  0  0  0  0  0  0  0
    4.1340   -2.6889    0.0000 H   0  0  0  0  0  0  0  0  0  0  0  0
  1 73  1  0  0  0  0
  1 74  1  0  0  0  0
  1 75  1  0  0  0  0
  2 76  1  0  0  0  0
  2 77  1  0  0  0  0
  2 78  1  0  0  0  0
  3 79  1  0  0  0  0
  3 80  1  0  0  0  0
  3 81  1  0  0  0  0
  4 82  1  0  0  0  0
  4 83  1  0  0  0  0
  4 84  1  0  0  0  0
  5 85  1  0  0  0  0
  5 86  1  0  0  0  0
  6 87  1  0  0  0  0
  6 88  1  0  0  0  0
  6 89  1  0  0  0  0
  7 90  1  0  0  0  0
  7 91  1  0  0  0  0
  8  7  1  0  0  0  0
  8 92  1  0  0  0  0
  8 93  1  0  0  0  0
 10  9  2  0  0  0  0
 11 94  1  0  0  0  0
 11 95  1  0  0  0  0
 12 11  1  0  0  0  0
 12 96  1  0  0  0  0
 12 97  1  0  0  0  0
 13 98  1  0  0  0  0
 13 99  1  0  0  0  0
 14100  1  0  0  0  0
 14101  1  0  0  0  0
 15102  1  0  0  0  0
 15103  1  0  0  0  0
 16  7  1  0  0  0  0
 16104  1  0  0  0  0
 16105  1  0  0  0  0
 17 13  1  0  0  0  0
 17106  1  0  0  0  0
 17107  1  0  0  0  0
 18 14  1  0  0  0  0
 18108  1  0  0  0  0
 18109  1  0  0  0  0
 19 15  1  0  0  0  0
 19110  1  0  0  0  0
 19111  1  0  0  0  0
 20  8  1  0  0  0  0
 20112  1  0  0  0  0
 20113  1  0  0  0  0
 21114  1  0  0  0  0
 21115  1  0  0  0  0
 22116  1  0  0  0  0
 22117  1  0  0  0  0
 23118  1  0  0  0  0
 24119  1  0  0  0  0
 24120  1  0  0  0  0
 25  1  1  0  0  0  0
 25 21  1  0  0  0  0
 25 23  2  0  0  0  0
 26  2  1  0  0  0  0
 26  9  1  0  0  0  0
 26 60  1  6  0  0  0
 27  3  1  0  0  0  0
 27 13  1  0  0  0  0
 27 61  1  6  0  0  0
 28  4  1  0  0  0  0
 28 22  1  0  0  0  0
 28 62  1  6  0  0  0
 29  5  2  0  0  0  0
 30 10  1  0  0  0  0
 30 14  1  0  0  0  0
 30 63  1  1  0  0  0
 31 11  1  0  0  0  0
 31 24  1  0  0  0  0
 31 64  1  6  0  0  0
 32 22  1  0  0  0  0
 32 45  1  0  0  0  0
 32 65  1  1  0  0  0
 33 15  1  0  0  0  0
 33 66  1  1  0  0  0
 34 21  1  0  0  0  0
 34 26  1  0  0  0  0
 34 67  1  6  0  0  0
 35 12  1  0  0  0  0
 35 46  1  0  0  0  0
 35 68  1  1  0  0  0
 36 29  1  0  0  0  0
 36 47  1  0  0  0  0
 36 69  1  1  0  0  0
 37 27  1  0  0  0  0
 37 28  1  0  0  0  0
 37 70  1  6  0  0  0
 38 29  1  0  0  0  0
 38 32  1  0  0  0  0
 38 71  1  6  0  0  0
 39 33  1  0  0  0  0
 39 36  1  0  0  0  0
 39 72  1  6  0  0  0
 41  6  1  0  0  0  0
 41 24  1  0  0  0  0
 41 40  1  6  0  0  0
 41 50  1  0  0  0  0
 42 16  1  0  0  0  0
 42 17  1  0  0  0  0
 42 51  1  6  0  0  0
 43 18  1  0  0  0  0
 43 19  1  0  0  0  0
 43 53  1  6  0  0  0
 44 23  1  1  0  0  0
 44 35  1  0  0  0  0
 44 54  1  0  0  0  0
 45121  1  0  0  0  0
 46122  1  0  0  0  0
 47123  1  0  0  0  0
 48 40  2  0  0  0  0
 49 40  1  0  0  0  0
 49124  1  0  0  0  0
 50125  1  0  0  0  0
 51 20  1  0  0  0  0
 52 33  1  0  0  0  0
 52 38  1  0  0  0  0
 53 30  1  0  0  0  0
 54 31  1  0  0  0  0
 55 34  1  0  0  0  0
 55 44  1  0  0  0  0
 56 37  1  0  0  0  0
 56 42  1  0  0  0  0
 57 39  1  0  0  0  0
 57 43  1  0  0  0  0
 58  9  1  0  0  0  0
 59 10  1  0  0  0  0
M  END
>  <DRUGBANK_ID>
DB02169

>  <SECONDARY_ACCESSION_NUMBERS>
EXPT02429

>  <COMMON_NAME>
9,10-Deepithio-9,10-Didehydroacanthifolicin

>  <CAS_NUMBER>
78111-17-8

>  <UNII>
1W21G5Q4N2

$$$$
