
 OpenBabel10282417072D

 57 60  0  0  0  0  0  0  0  0999 V2000
   -1.1129    1.8562    0.0000 C   0  0  0  0  0  0  0  0  0  0  0  0
   -0.3985    1.4437    0.0000 N   0  0  0  0  0  0  0  0  0  0  0  0
   -1.1129    2.6812    0.0000 C   0  0  0  0  0  0  0  0  0  0  0  0
   -1.8274    1.4437    0.0000 C   0  0  0  0  0  0  0  0  0  0  0  0
    0.3160    1.8562    0.0000 C   0  0  0  0  0  0  0  0  0  0  0  0
   -0.3984    0.6187    0.0000 C   0  0  0  0  0  0  0  0  0  0  0  0
   -0.3985    3.0937    0.0000 S   0  0  0  0  0  0  0  0  0  0  0  0
   -1.8274    3.0937    0.0000 C   0  0  0  0  0  0  0  0  0  0  0  0
   -2.5419    1.8562    0.0000 C   0  0  0  0  0  0  0  0  0  0  0  0
    0.3160    2.6813    0.0000 C   0  0  0  0  0  0  0  0  0  0  0  0
    1.0304    1.4437    0.0000 C   0  0  0  0  0  0  0  0  0  0  0  0
    0.3160    0.2062    0.0000 C   0  0  0  0  0  0  0  0  0  0  0  0
   -2.5419    2.6812    0.0000 C   0  0  0  0  0  0  0  0  0  0  0  0
   -3.2564    1.4437    0.0000 S   0  0  0  0  0  0  0  0  0  0  0  0
    1.0304    3.0938    0.0000 C   0  0  0  0  0  0  0  0  0  0  0  0
    1.7449    1.8562    0.0000 C   0  0  0  0  0  0  0  0  0  0  0  0
    0.3160   -0.6187    0.0000 C   0  0  0  0  0  0  0  0  0  0  0  0
   -3.8398    2.0270    0.0000 C   0  0  0  0  0  0  0  0  0  0  0  0
   -2.7831    0.7679    0.0000 O   0  0  0  0  0  0  0  0  0  0  0  0
   -3.8884    0.9134    0.0000 O   0  0  0  0  0  0  0  0  0  0  0  0
    1.7449    2.6813    0.0000 C   0  0  0  0  0  0  0  0  0  0  0  0
    1.0305   -1.0312    0.0000 N   0  0  0  0  0  0  0  0  0  0  0  0
    1.0305   -1.8562    0.0000 C   0  0  0  0  0  0  0  0  0  0  0  0
    1.7449   -0.6187    0.0000 C   0  0  0  0  0  0  0  0  0  0  0  0
    1.7449   -2.2687    0.0000 C   0  0  0  0  0  0  0  0  0  0  0  0
    2.4594   -1.0312    0.0000 C   0  0  0  0  0  0  0  0  0  0  0  0
    2.4595   -1.8562    0.0000 C   0  0  0  0  0  0  0  0  0  0  0  0
    3.1739   -2.2687    0.0000 C   0  0  0  0  0  0  0  0  0  0  0  0
    3.8884   -1.8562    0.0000 N   0  0  0  0  0  0  0  0  0  0  0  0
    3.1739   -3.0938    0.0000 O   0  0  0  0  0  0  0  0  0  0  0  0
   -1.8274    0.4117    0.0000 H   0  0  0  0  0  0  0  0  0  0  0  0
   -1.3250    0.0837    0.0000 H   0  0  0  0  0  0  0  0  0  0  0  0
   -0.3984   -0.4513    0.0000 H   0  0  0  0  0  0  0  0  0  0  0  0
   -1.8274    4.1257    0.0000 H   0  0  0  0  0  0  0  0  0  0  0  0
    1.0304    0.4117    0.0000 H   0  0  0  0  0  0  0  0  0  0  0  0
    1.2427    0.7412    0.0000 H   0  0  0  0  0  0  0  0  0  0  0  0
    1.2426   -0.3288    0.0000 H   0  0  0  0  0  0  0  0  0  0  0  0
   -3.4356    3.1972    0.0000 H   0  0  0  0  0  0  0  0  0  0  0  0
    1.0304    4.1258    0.0000 H   0  0  0  0  0  0  0  0  0  0  0  0
    2.6386    1.3402    0.0000 H   0  0  0  0  0  0  0  0  0  0  0  0
   -0.6106   -1.1537    0.0000 H   0  0  0  0  0  0  0  0  0  0  0  0
    0.3160   -1.6887    0.0000 H   0  0  0  0  0  0  0  0  0  0  0  0
   -3.5630    3.0606    0.0000 H   0  0  0  0  0  0  0  0  0  0  0  0
   -4.8733    1.7500    0.0000 H   0  0  0  0  0  0  0  0  0  0  0  0
   -4.5965    2.7835    0.0000 H   0  0  0  0  0  0  0  0  0  0  0  0
    2.6386    3.1973    0.0000 H   0  0  0  0  0  0  0  0  0  0  0  0
    0.1038   -2.3912    0.0000 H   0  0  0  0  0  0  0  0  0  0  0  0
    1.0305   -2.9262    0.0000 H   0  0  0  0  0  0  0  0  0  0  0  0
    1.7449    0.4513    0.0000 H   0  0  0  0  0  0  0  0  0  0  0  0
    2.6715   -0.0837    0.0000 H   0  0  0  0  0  0  0  0  0  0  0  0
    1.7448   -3.3387    0.0000 H   0  0  0  0  0  0  0  0  0  0  0  0
    2.6715   -2.8038    0.0000 H   0  0  0  0  0  0  0  0  0  0  0  0
    3.3860   -0.4961    0.0000 H   0  0  0  0  0  0  0  0  0  0  0  0
    3.3861   -1.5661    0.0000 H   0  0  0  0  0  0  0  0  0  0  0  0
    3.3861   -1.3212    0.0000 H   0  0  0  0  0  0  0  0  0  0  0  0
    4.7410   -2.3485    0.0000 H   0  0  0  0  0  0  0  0  0  0  0  0
    3.8884   -0.8717    0.0000 H   0  0  0  0  0  0  0  0  0  0  0  0
  1  2  1  0  0  0  0
  1  3  1  0  0  0  0
  1  4  2  0  0  0  0
  2  5  1  0  0  0  0
  2  6  1  0  0  0  0
  3  7  1  0  0  0  0
  3  8  2  0  0  0  0
  4  9  1  0  0  0  0
  4 31  1  0  0  0  0
  5 10  2  0  0  0  0
  5 11  1  0  0  0  0
  6 12  1  0  0  0  0
  6 32  1  0  0  0  0
  6 33  1  0  0  0  0
  7 10  1  0  0  0  0
  8 13  1  0  0  0  0
  8 34  1  0  0  0  0
  9 14  1  0  0  0  0
  9 13  2  0  0  0  0
 10 15  1  0  0  0  0
 11 16  2  0  0  0  0
 11 35  1  0  0  0  0
 12 17  1  0  0  0  0
 12 36  1  0  0  0  0
 12 37  1  0  0  0  0
 13 38  1  0  0  0  0
 14 18  1  0  0  0  0
 14 19  2  0  0  0  0
 14 20  2  0  0  0  0
 15 21  2  0  0  0  0
 15 39  1  0  0  0  0
 16 21  1  0  0  0  0
 16 40  1  0  0  0  0
 17 22  1  0  0  0  0
 17 41  1  0  0  0  0
 17 42  1  0  0  0  0
 18 43  1  0  0  0  0
 18 44  1  0  0  0  0
 18 45  1  0  0  0  0
 21 46  1  0  0  0  0
 22 23  1  0  0  0  0
 22 24  1  0  0  0  0
 23 25  1  0  0  0  0
 23 47  1  0  0  0  0
 23 48  1  0  0  0  0
 24 26  1  0  0  0  0
 24 49  1  0  0  0  0
 24 50  1  0  0  0  0
 25 27  1  0  0  0  0
 25 51  1  0  0  0  0
 25 52  1  0  0  0  0
 26 27  1  0  0  0  0
 26 53  1  0  0  0  0
 26 54  1  0  0  0  0
 27 28  1  0  0  0  0
 27 55  1  0  0  0  0
 28 29  1  0  0  0  0
 28 30  2  0  0  0  0
 29 56  1  0  0  0  0
 29 57  1  0  0  0  0
M  END
>  <DRUGBANK_ID>
DB13591

>  <COMMON_NAME>
Metopimazine

>  <CAS_NUMBER>
14008-44-7

>  <UNII>
238S75V9AV

>  <SYNONYMS>
Metopimazina; Metopimazine; Metopimazinum

$$$$
