PUX
 OpenBabel10282417072D

 43 46  0  0  0  0  0  0  0  0999 V2000
    0.1965    2.6197    0.0000 C   0  0  0  0  0  0  0  0  0  0  0  0
    0.0249    1.8128    0.0000 C   0  0  0  0  0  0  0  0  0  0  0  0
    0.6380    1.2607    0.0000 C   0  0  0  0  0  0  0  0  0  0  0  0
    0.4665    0.4538    0.0000 C   0  0  0  0  0  0  0  0  0  0  0  0
    1.0796   -0.0983    0.0000 N   0  0  0  0  0  0  0  0  0  0  0  0
    1.8866    0.0732    0.0000 C   0  0  0  0  0  0  0  0  0  0  0  0
    2.2991    0.7877    0.0000 N   0  0  0  0  0  0  0  0  0  0  0  0
    3.1241    0.7877    0.0000 C   0  0  0  0  0  0  0  0  0  0  0  0
    3.5366    0.0732    0.0000 N   0  0  0  0  0  0  0  0  0  0  0  0
    2.2991   -0.6412    0.0000 C   0  0  0  0  0  0  0  0  0  0  0  0
    3.1241   -0.6412    0.0000 C   0  0  0  0  0  0  0  0  0  0  0  0
    3.5366   -1.3557    0.0000 N   0  0  0  0  0  0  0  0  0  0  0  0
    1.7470   -1.2543    0.0000 N   0  0  0  0  0  0  0  0  0  0  0  0
    0.9934   -0.9188    0.0000 C   0  0  0  0  0  0  0  0  0  0  0  0
    0.2789   -1.3313    0.0000 C   0  0  0  0  0  0  0  0  0  0  0  0
   -0.4356   -0.9188    0.0000 C   0  0  0  0  0  0  0  0  0  0  0  0
   -1.1501   -1.3313    0.0000 C   0  0  0  0  0  0  0  0  0  0  0  0
   -1.8645   -0.9188    0.0000 C   0  0  0  0  0  0  0  0  0  0  0  0
   -0.4356   -0.0938    0.0000 C   0  0  0  0  0  0  0  0  0  0  0  0
   -2.6492   -1.1737    0.0000 O   0  0  0  0  0  0  0  0  0  0  0  0
   -1.1501    0.3187    0.0000 C   0  0  0  0  0  0  0  0  0  0  0  0
   -1.8645   -0.0938    0.0000 C   0  0  0  0  0  0  0  0  0  0  0  0
   -2.6492    0.1612    0.0000 O   0  0  0  0  0  0  0  0  0  0  0  0
   -3.1341   -0.5063    0.0000 C   0  0  0  0  0  0  0  0  0  0  0  0
    3.5366    1.5022    0.0000 F   0  0  0  0  0  0  0  0  0  0  0  0
    1.2142    2.9502    0.0000 H   0  0  0  0  0  0  0  0  0  0  0  0
   -0.5986    3.3358    0.0000 H   0  0  0  0  0  0  0  0  0  0  0  0
    0.4191    3.6663    0.0000 H   0  0  0  0  0  0  0  0  0  0  0  0
   -0.9928    1.4822    0.0000 H   0  0  0  0  0  0  0  0  0  0  0  0
   -0.1976    0.7662    0.0000 H   0  0  0  0  0  0  0  0  0  0  0  0
    1.6556    1.5913    0.0000 H   0  0  0  0  0  0  0  0  0  0  0  0
    1.4332    0.5447    0.0000 H   0  0  0  0  0  0  0  0  0  0  0  0
   -0.5511    0.1232    0.0000 H   0  0  0  0  0  0  0  0  0  0  0  0
    0.2440   -0.5928    0.0000 H   0  0  0  0  0  0  0  0  0  0  0  0
    3.0443   -2.2083    0.0000 H   0  0  0  0  0  0  0  0  0  0  0  0
    4.5211   -1.3557    0.0000 H   0  0  0  0  0  0  0  0  0  0  0  0
    0.2789   -2.4013    0.0000 H   0  0  0  0  0  0  0  0  0  0  0  0
   -0.6477   -1.8663    0.0000 H   0  0  0  0  0  0  0  0  0  0  0  0
   -1.1501   -2.3633    0.0000 H   0  0  0  0  0  0  0  0  0  0  0  0
    0.4581    0.4222    0.0000 H   0  0  0  0  0  0  0  0  0  0  0  0
   -1.1501    1.3507    0.0000 H   0  0  0  0  0  0  0  0  0  0  0  0
   -4.2041   -0.5063    0.0000 H   0  0  0  0  0  0  0  0  0  0  0  0
   -3.6199    0.4471    0.0000 H   0  0  0  0  0  0  0  0  0  0  0  0
  1  2  1  0  0  0  0
  1 26  1  0  0  0  0
  1 27  1  0  0  0  0
  1 28  1  0  0  0  0
  2  3  1  0  0  0  0
  2 29  1  0  0  0  0
  2 30  1  0  0  0  0
  3  4  1  0  0  0  0
  3 31  1  0  0  0  0
  3 32  1  0  0  0  0
  4  5  1  0  0  0  0
  4 33  1  0  0  0  0
  4 34  1  0  0  0  0
  5  6  1  0  0  0  0
  5 14  1  0  0  0  0
  6  7  2  0  0  0  0
  6 10  1  0  0  0  0
  7  8  1  0  0  0  0
  8  9  2  0  0  0  0
  8 25  1  0  0  0  0
  9 11  1  0  0  0  0
 10 11  2  0  0  0  0
 10 13  1  0  0  0  0
 11 12  1  0  0  0  0
 12 35  1  0  0  0  0
 12 36  1  0  0  0  0
 13 14  2  0  0  0  0
 14 15  1  0  0  0  0
 15 16  1  0  0  0  0
 15 37  1  0  0  0  0
 15 38  1  0  0  0  0
 16 17  2  0  0  0  0
 16 19  1  0  0  0  0
 17 18  1  0  0  0  0
 17 39  1  0  0  0  0
 18 20  1  0  0  0  0
 18 22  2  0  0  0  0
 19 21  2  0  0  0  0
 19 40  1  0  0  0  0
 20 24  1  0  0  0  0
 21 22  1  0  0  0  0
 21 41  1  0  0  0  0
 22 23  1  0  0  0  0
 23 24  1  0  0  0  0
 24 42  1  0  0  0  0
 24 43  1  0  0  0  0
M  END
>  <DRUGBANK_ID>
DB04254

>  <SECONDARY_ACCESSION_NUMBERS>
EXPT02703

>  <COMMON_NAME>
8-Benzo[1,3]Dioxol-,5-Ylmethyl-9-Butyl-2-Fluoro-9h-Purin-6-Ylamine

$$$$
