LDT
 OpenBabel10282417072D

 36 37  0  0  0  0  0  0  0  0999 V2000
   -1.3563    1.8851    0.0000 C   0  0  0  0  0  0  0  0  0  0  0  0
   -1.3563    0.2351    0.0000 C   0  0  0  0  0  0  0  0  0  0  0  0
   -0.6418    1.4726    0.0000 C   0  0  0  0  0  0  0  0  0  0  0  0
   -2.0707    1.4726    0.0000 C   0  0  0  0  0  0  0  0  0  0  0  0
   -2.0707    0.6476    0.0000 C   0  0  0  0  0  0  0  0  0  0  0  0
   -0.6418    0.6476    0.0000 C   0  0  0  0  0  0  0  0  0  0  0  0
    0.7871   -4.3024    0.0000 Br  0  0  0  0  0  0  0  0  0  0  0  0
   -2.7852    1.8851    0.0000 F   0  0  0  0  0  0  0  0  0  0  0  0
    0.0727    0.2351    0.0000 C   0  0  0  0  0  0  0  0  0  0  0  0
    0.7871   -1.0024    0.0000 C   0  0  0  0  0  0  0  0  0  0  0  0
   -0.6418   -1.8274    0.0000 F   0  0  0  0  0  0  0  0  0  0  0  0
    0.0727    1.8851    0.0000 O   0  0  0  0  0  0  0  0  0  0  0  0
    0.7871    0.6476    0.0000 S   0  0  0  0  0  0  0  0  0  0  0  0
    0.0727   -0.5899    0.0000 N   0  0  0  0  0  0  0  0  0  0  0  0
    0.0727    2.7101    0.0000 C   0  0  0  0  0  0  0  0  0  0  0  0
    0.7871   -1.8274    0.0000 C   0  0  0  0  0  0  0  0  0  0  0  0
    0.7871   -3.4774    0.0000 C   0  0  0  0  0  0  0  0  0  0  0  0
    1.5016   -2.2399    0.0000 C   0  0  0  0  0  0  0  0  0  0  0  0
    0.0727   -2.2399    0.0000 C   0  0  0  0  0  0  0  0  0  0  0  0
    0.0727   -3.0649    0.0000 C   0  0  0  0  0  0  0  0  0  0  0  0
    1.5016   -3.0649    0.0000 C   0  0  0  0  0  0  0  0  0  0  0  0
    0.7871    3.1226    0.0000 C   0  0  0  0  0  0  0  0  0  0  0  0
    0.7871    3.9476    0.0000 O   0  0  0  0  0  0  0  0  0  0  0  0
    1.5016    2.7101    0.0000 O   0  0  0  0  0  0  0  0  0  0  0  0
   -1.3563    2.9171    0.0000 H   0  0  0  0  0  0  0  0  0  0  0  0
   -1.3563   -0.7969    0.0000 H   0  0  0  0  0  0  0  0  0  0  0  0
   -2.9644    0.1316    0.0000 H   0  0  0  0  0  0  0  0  0  0  0  0
    1.7138   -0.4674    0.0000 H   0  0  0  0  0  0  0  0  0  0  0  0
    1.7137   -1.5374    0.0000 H   0  0  0  0  0  0  0  0  0  0  0  0
   -0.7799   -1.0821    0.0000 H   0  0  0  0  0  0  0  0  0  0  0  0
   -0.8540    3.2451    0.0000 H   0  0  0  0  0  0  0  0  0  0  0  0
    0.0727    3.7801    0.0000 H   0  0  0  0  0  0  0  0  0  0  0  0
    2.3953   -1.7239    0.0000 H   0  0  0  0  0  0  0  0  0  0  0  0
   -0.8210   -3.5809    0.0000 H   0  0  0  0  0  0  0  0  0  0  0  0
    2.3953   -3.5809    0.0000 H   0  0  0  0  0  0  0  0  0  0  0  0
    1.5986    4.4161    0.0000 H   0  0  0  0  0  0  0  0  0  0  0  0
  1  3  2  0  0  0  0
  1  4  1  0  0  0  0
  1 25  1  0  0  0  0
  2  5  1  0  0  0  0
  2  6  2  0  0  0  0
  2 26  1  0  0  0  0
  3  6  1  0  0  0  0
  3 12  1  0  0  0  0
  4  5  2  0  0  0  0
  4  8  1  0  0  0  0
  5 27  1  0  0  0  0
  6  9  1  0  0  0  0
  7 17  1  0  0  0  0
  9 13  2  0  0  0  0
  9 14  1  0  0  0  0
 10 14  1  0  0  0  0
 10 16  1  0  0  0  0
 10 28  1  0  0  0  0
 10 29  1  0  0  0  0
 11 19  1  0  0  0  0
 12 15  1  0  0  0  0
 14 30  1  0  0  0  0
 15 22  1  0  0  0  0
 15 31  1  0  0  0  0
 15 32  1  0  0  0  0
 16 18  2  0  0  0  0
 16 19  1  0  0  0  0
 17 20  1  0  0  0  0
 17 21  2  0  0  0  0
 18 21  1  0  0  0  0
 18 33  1  0  0  0  0
 19 20  2  0  0  0  0
 20 34  1  0  0  0  0
 21 35  1  0  0  0  0
 22 23  1  0  0  0  0
 22 24  2  0  0  0  0
 23 36  1  0  0  0  0
M  END
>  <DRUGBANK_ID>
DB08084

>  <COMMON_NAME>
IDD594

$$$$
