
 OpenBabel10282417072D

 78 80  0  0  0  0  0  0  0  0999 V2000
   -2.3446   -0.0726    0.0000 N   0  0  0  0  0  0  0  0  0  0  0  0
   -2.3495    0.7460    0.0000 C   0  0  1  0  0  0  0  0  0  0  0  0
   -3.1730   -0.0823    0.0000 C   0  0  0  0  0  0  0  0  0  0  0  0
   -3.1730    0.7460    0.0000 C   0  0  1  0  0  0  0  0  0  0  0  0
   -1.5598   -0.3293    0.0000 C   0  0  2  0  0  0  0  0  0  0  0  0
   -1.5647    1.0028    0.0000 S   0  0  0  0  0  0  0  0  0  0  0  0
   -1.0803    0.3391    0.0000 C   0  0  0  0  0  0  0  0  0  0  0  0
   -3.8901    1.1626    0.0000 N   0  0  0  0  0  0  0  0  0  0  0  0
   -1.5647   -1.1481    0.0000 C   0  0  0  0  0  0  0  0  0  0  0  0
   -4.6119    0.7460    0.0000 C   0  0  0  0  0  0  0  0  0  0  0  0
    3.2651    0.2761    0.0000 C   0  0  0  0  0  0  0  0  0  0  0  0
   -3.7544   -0.6636    0.0000 O   0  0  0  0  0  0  0  0  0  0  0  0
    2.5675   -0.1307    0.0000 C   0  0  0  0  0  0  0  0  0  0  0  0
   -2.2865   -1.5550    0.0000 O   0  0  0  0  0  0  0  0  0  0  0  0
   -4.6119   -0.0726    0.0000 O   0  0  0  0  0  0  0  0  0  0  0  0
    3.2360    1.0609    0.0000 O   0  0  0  0  0  0  0  0  0  0  0  0
   -5.3239    1.1626    0.0000 C   0  0  0  0  0  0  0  0  0  0  0  0
    2.5529   -1.0172    0.0000 C   0  0  0  0  0  0  0  0  0  0  0  0
    1.7972    0.3052    0.0000 C   0  0  0  0  0  0  0  0  0  0  0  0
    3.9627   -0.1404    0.0000 O   0  0  0  0  0  0  0  0  0  0  0  0
   -0.8622   -1.5695    0.0000 O   0  0  0  0  0  0  0  0  0  0  0  0
    1.0561   -0.9882    0.0000 C   0  0  0  0  0  0  0  0  0  0  0  0
   -0.3681   -0.0726    0.0000 C   0  0  0  0  0  0  0  0  0  0  0  0
   -0.3681    0.7556    0.0000 C   0  0  0  0  0  0  0  0  0  0  0  0
    6.0652    0.2665    0.0000 N   0  0  0  0  0  0  0  0  0  0  0  0
    0.3439   -1.3952    0.0000 N   0  0  0  0  0  0  0  0  0  0  0  0
    1.8069   -1.4339    0.0000 C   0  0  0  0  0  0  0  0  0  0  0  0
    1.0561   -0.1162    0.0000 C   0  0  0  0  0  0  0  0  0  0  0  0
   -6.0361    0.7460    0.0000 C   0  0  0  0  0  0  0  0  0  0  0  0
    4.6699    0.2615    0.0000 C   0  0  0  0  0  0  0  0  0  0  0  0
    5.3579   -0.1307    0.0000 C   0  0  0  0  0  0  0  0  0  0  0  0
    6.0410    1.0754    0.0000 C   0  0  0  0  0  0  0  0  0  0  0  0
    6.7433   -0.1453    0.0000 C   0  0  0  0  0  0  0  0  0  0  0  0
   -6.0361   -0.0677    0.0000 C   0  0  0  0  0  0  0  0  0  0  0  0
   -6.7482    1.1626    0.0000 C   0  0  0  0  0  0  0  0  0  0  0  0
    6.7385    1.4873    0.0000 C   0  0  0  0  0  0  0  0  0  0  0  0
    7.4603    0.2470    0.0000 C   0  0  0  0  0  0  0  0  0  0  0  0
   -7.4603    0.7556    0.0000 C   0  0  0  0  0  0  0  0  0  0  0  0
   -6.7385   -0.4795    0.0000 C   0  0  0  0  0  0  0  0  0  0  0  0
   -7.4603   -0.0726    0.0000 C   0  0  0  0  0  0  0  0  0  0  0  0
   -2.3591    1.5695    0.0000 H   0  0  0  0  0  0  0  0  0  0  0  0
   -4.1004    0.2122    0.0000 H   0  0  0  0  0  0  0  0  0  0  0  0
   -2.4279   -0.9548    0.0000 H   0  0  0  0  0  0  0  0  0  0  0  0
   -3.8887    2.1471    0.0000 H   0  0  0  0  0  0  0  0  0  0  0  0
   -5.3238    2.2326    0.0000 H   0  0  0  0  0  0  0  0  0  0  0  0
   -6.2520    1.6950    0.0000 H   0  0  0  0  0  0  0  0  0  0  0  0
    3.4386   -1.5468    0.0000 H   0  0  0  0  0  0  0  0  0  0  0  0
    1.7961    1.3372    0.0000 H   0  0  0  0  0  0  0  0  0  0  0  0
   -0.8779   -2.5064    0.0000 H   0  0  0  0  0  0  0  0  0  0  0  0
   -0.3687   -1.1426    0.0000 H   0  0  0  0  0  0  0  0  0  0  0  0
    0.5588    0.4619    0.0000 H   0  0  0  0  0  0  0  0  0  0  0  0
    0.5583   -0.6081    0.0000 H   0  0  0  0  0  0  0  0  0  0  0  0
    0.5615    0.2258    0.0000 H   0  0  0  0  0  0  0  0  0  0  0  0
   -0.3741    1.8256    0.0000 H   0  0  0  0  0  0  0  0  0  0  0  0
    0.5556    1.2958    0.0000 H   0  0  0  0  0  0  0  0  0  0  0  0
   -0.5065   -0.8992    0.0000 H   0  0  0  0  0  0  0  0  0  0  0  0
    0.3395   -2.3797    0.0000 H   0  0  0  0  0  0  0  0  0  0  0  0
    1.7933   -2.4658    0.0000 H   0  0  0  0  0  0  0  0  0  0  0  0
    0.1641    0.4027    0.0000 H   0  0  0  0  0  0  0  0  0  0  0  0
    4.6706    1.3315    0.0000 H   0  0  0  0  0  0  0  0  0  0  0  0
    5.5953    0.7987    0.0000 H   0  0  0  0  0  0  0  0  0  0  0  0
    5.3545   -1.2007    0.0000 H   0  0  0  0  0  0  0  0  0  0  0  0
    4.4319   -0.6668    0.0000 H   0  0  0  0  0  0  0  0  0  0  0  0
    5.1039    1.5919    0.0000 H   0  0  0  0  0  0  0  0  0  0  0  0
    6.0251    2.1453    0.0000 H   0  0  0  0  0  0  0  0  0  0  0  0
    6.7192   -1.2150    0.0000 H   0  0  0  0  0  0  0  0  0  0  0  0
    7.6575   -0.7012    0.0000 H   0  0  0  0  0  0  0  0  0  0  0  0
   -5.1406   -0.5807    0.0000 H   0  0  0  0  0  0  0  0  0  0  0  0
   -6.7430    2.1946    0.0000 H   0  0  0  0  0  0  0  0  0  0  0  0
    7.6704    0.9614    0.0000 H   0  0  0  0  0  0  0  0  0  0  0  0
    6.7280    2.5572    0.0000 H   0  0  0  0  0  0  0  0  0  0  0  0
    7.6598    2.0314    0.0000 H   0  0  0  0  0  0  0  0  0  0  0  0
    8.3744   -0.3091    0.0000 H   0  0  0  0  0  0  0  0  0  0  0  0
    7.4849    1.3167    0.0000 H   0  0  0  0  0  0  0  0  0  0  0  0
    8.3990    0.7606    0.0000 H   0  0  0  0  0  0  0  0  0  0  0  0
   -8.3529    1.2735    0.0000 H   0  0  0  0  0  0  0  0  0  0  0  0
   -6.7298   -1.5115    0.0000 H   0  0  0  0  0  0  0  0  0  0  0  0
   -8.3514   -0.5932    0.0000 H   0  0  0  0  0  0  0  0  0  0  0  0
  2  1  1  0  0  0  0
  2 41  1  6  0  0  0
  3  1  1  0  0  0  0
  4  3  1  0  0  0  0
  4  8  1  0  0  0  0
  4  2  1  0  0  0  0
  4 42  1  6  0  0  0
  5  1  1  0  0  0  0
  5  9  1  0  0  0  0
  5 43  1  1  0  0  0
  6  2  1  0  0  0  0
  6  7  1  0  0  0  0
  7  5  1  0  0  0  0
  8 44  1  0  0  0  0
 10  8  1  0  0  0  0
 12  3  2  0  0  0  0
 13 11  1  0  0  0  0
 14  9  2  0  0  0  0
 15 10  2  0  0  0  0
 16 11  2  0  0  0  0
 17 10  1  0  0  0  0
 17 45  1  0  0  0  0
 17 46  1  0  0  0  0
 18 13  1  0  0  0  0
 18 47  1  0  0  0  0
 19 13  2  0  0  0  0
 19 48  1  0  0  0  0
 20 11  1  0  0  0  0
 21  9  1  0  0  0  0
 21 49  1  0  0  0  0
 22 28  2  0  0  0  0
 22 27  1  0  0  0  0
 23  7  1  0  0  0  0
 23 50  1  0  0  0  0
 23 51  1  0  0  0  0
 23 52  1  0  0  0  0
 24  7  1  0  0  0  0
 24 53  1  0  0  0  0
 24 54  1  0  0  0  0
 24 55  1  0  0  0  0
 25 31  1  0  0  0  0
 26 22  1  0  0  0  0
 26 56  1  0  0  0  0
 26 57  1  0  0  0  0
 27 18  2  0  0  0  0
 27 58  1  0  0  0  0
 28 19  1  0  0  0  0
 28 59  1  0  0  0  0
 29 17  1  0  0  0  0
 30 20  1  0  0  0  0
 30 60  1  0  0  0  0
 30 61  1  0  0  0  0
 31 30  1  0  0  0  0
 31 62  1  0  0  0  0
 31 63  1  0  0  0  0
 32 25  1  0  0  0  0
 32 64  1  0  0  0  0
 32 65  1  0  0  0  0
 33 25  1  0  0  0  0
 33 66  1  0  0  0  0
 33 67  1  0  0  0  0
 34 29  1  0  0  0  0
 34 68  1  0  0  0  0
 35 29  2  0  0  0  0
 35 69  1  0  0  0  0
 36 32  1  0  0  0  0
 36 70  1  0  0  0  0
 36 71  1  0  0  0  0
 36 72  1  0  0  0  0
 37 33  1  0  0  0  0
 37 73  1  0  0  0  0
 37 74  1  0  0  0  0
 37 75  1  0  0  0  0
 38 35  1  0  0  0  0
 38 76  1  0  0  0  0
 39 34  2  0  0  0  0
 39 77  1  0  0  0  0
 40 38  2  0  0  0  0
 40 39  1  0  0  0  0
 40 78  1  0  0  0  0
M  END
>  <DRUGBANK_ID>
DB09320

>  <COMMON_NAME>
Procaine benzylpenicillin

>  <CAS_NUMBER>
54-35-3

>  <UNII>
1LW5K9CIR1

>  <SYNONYMS>
Bencilpenicilina proca√≠na; Penicillin G procaine

$$$$
