
 OpenBabel10282417072D

  9  8  0  0  0  0  0  0  0  0999 V2000
    4.2363   -0.0495    0.0000 O   0  0  0  0  0  0  0  0  0  0  0  0
    2.8074   -0.8745    0.0000 O   0  0  0  0  0  0  0  0  0  0  0  0
    3.5219    0.3630    0.0000 N   0  0  0  0  0  0  0  0  0  0  0  0
    2.0929    0.3630    0.0000 N   0  0  0  0  0  0  0  0  0  0  0  0
    2.8074   -0.0495    0.0000 C   0  0  0  0  0  0  0  0  0  0  0  0
    4.2363   -1.0195    0.0000 H   0  0  0  0  0  0  0  0  0  0  0  0
    3.5219    1.3475    0.0000 H   0  0  0  0  0  0  0  0  0  0  0  0
    2.0929    1.3475    0.0000 H   0  0  0  0  0  0  0  0  0  0  0  0
    1.2403   -0.1293    0.0000 H   0  0  0  0  0  0  0  0  0  0  0  0
  1  3  1  0  0  0  0
  1  6  1  0  0  0  0
  2  5  2  0  0  0  0
  3  5  1  0  0  0  0
  3  7  1  0  0  0  0
  4  5  1  0  0  0  0
  4  8  1  0  0  0  0
  4  9  1  0  0  0  0
M  END
>  <DRUGBANK_ID>
DB01005

>  <SECONDARY_ACCESSION_NUMBERS>
APRD00023

>  <COMMON_NAME>
Hydroxyurea

>  <CAS_NUMBER>
127-07-1

>  <UNII>
X6Q56QN5QC

>  <SYNONYMS>
Carbamohydroxamic acid; Carbamohydroximic acid; Carbamoyl oxime; Carbamyl hydroxamate; Hidroxicarbamida; Hydrea; Hydroxycarbamid; Hydroxycarbamide; Hydroxycarbamidum; Hydroxyharnstoff; Hydroxyurea; N-Carbamoylhydroxylamine; N-Hydroxyurea; Oxyurea

$$$$
