826
 OpenBabel10282417072D

 52 56  0  0  0  0  0  0  0  0999 V2000
    6.5105   -1.9180    0.0000 O   0  0  0  0  0  0  0  0  0  0  0  0
    5.9585   -1.3049    0.0000 C   0  0  0  0  0  0  0  0  0  0  0  0
    5.1515   -1.4764    0.0000 C   0  0  0  0  0  0  0  0  0  0  0  0
    4.5995   -0.8633    0.0000 C   0  0  0  0  0  0  0  0  0  0  0  0
    4.8544   -0.0787    0.0000 C   0  0  0  0  0  0  0  0  0  0  0  0
    5.6614    0.0928    0.0000 C   0  0  0  0  0  0  0  0  0  0  0  0
    6.2134   -0.5203    0.0000 C   0  0  0  0  0  0  0  0  0  0  0  0
    4.3024    0.5344    0.0000 C   0  0  0  0  0  0  0  0  0  0  0  0
    4.5573    1.3190    0.0000 O   0  0  0  0  0  0  0  0  0  0  0  0
    3.4954    0.3629    0.0000 N   0  0  0  0  0  0  0  0  0  0  0  0
    3.2405   -0.4218    0.0000 C   0  0  0  0  0  0  0  0  0  0  0  0
    2.4335   -0.5933    0.0000 C   0  0  0  0  0  0  0  0  0  0  0  0
    1.8815    0.0198    0.0000 C   0  0  0  0  0  0  0  0  0  0  0  0
    2.1364    0.8044    0.0000 C   0  0  0  0  0  0  0  0  0  0  0  0
    2.9434    0.9760    0.0000 C   0  0  0  0  0  0  0  0  0  0  0  0
    1.4690    1.2894    0.0000 N   0  0  0  0  0  0  0  0  0  0  0  0
    0.8015    0.8044    0.0000 C   0  0  0  0  0  0  0  0  0  0  0  0
    1.0565    0.0198    0.0000 C   0  0  0  0  0  0  0  0  0  0  0  0
    0.5045   -0.5933    0.0000 C   0  0  0  0  0  0  0  0  0  0  0  0
   -0.3025   -0.4218    0.0000 C   0  0  0  0  0  0  0  0  0  0  0  0
   -0.5575    0.3629    0.0000 C   0  0  0  0  0  0  0  0  0  0  0  0
   -0.0054    0.9760    0.0000 C   0  0  0  0  0  0  0  0  0  0  0  0
    1.4690    2.1144    0.0000 C   0  0  0  0  0  0  0  0  0  0  0  0
    2.1835    2.5269    0.0000 C   0  0  0  0  0  0  0  0  0  0  0  0
    2.1835    3.3519    0.0000 C   0  0  0  0  0  0  0  0  0  0  0  0
    2.8979    3.7644    0.0000 C   0  0  0  0  0  0  0  0  0  0  0  0
    3.6124    3.3519    0.0000 C   0  0  0  0  0  0  0  0  0  0  0  0
    4.3269    3.7644    0.0000 O   0  0  0  0  0  0  0  0  0  0  0  0
    3.6124    2.5269    0.0000 C   0  0  0  0  0  0  0  0  0  0  0  0
    2.8979    2.1144    0.0000 C   0  0  0  0  0  0  0  0  0  0  0  0
    6.2209   -2.8091    0.0000 H   0  0  0  0  0  0  0  0  0  0  0  0
    4.8326   -2.4579    0.0000 H   0  0  0  0  0  0  0  0  0  0  0  0
    3.5901   -1.0779    0.0000 H   0  0  0  0  0  0  0  0  0  0  0  0
    5.9803    1.0743    0.0000 H   0  0  0  0  0  0  0  0  0  0  0  0
    7.2228   -0.3057    0.0000 H   0  0  0  0  0  0  0  0  0  0  0  0
    3.9565   -1.2170    0.0000 H   0  0  0  0  0  0  0  0  0  0  0  0
    2.9098   -1.4394    0.0000 H   0  0  0  0  0  0  0  0  0  0  0  0
    2.1028   -1.6109    0.0000 H   0  0  0  0  0  0  0  0  0  0  0  0
    1.3869   -0.8157    0.0000 H   0  0  0  0  0  0  0  0  0  0  0  0
    3.2740    1.9936    0.0000 H   0  0  0  0  0  0  0  0  0  0  0  0
    2.2274    1.7711    0.0000 H   0  0  0  0  0  0  0  0  0  0  0  0
    0.8234   -1.5748    0.0000 H   0  0  0  0  0  0  0  0  0  0  0  0
   -0.9930   -1.1888    0.0000 H   0  0  0  0  0  0  0  0  0  0  0  0
   -1.5669    0.5775    0.0000 H   0  0  0  0  0  0  0  0  0  0  0  0
   -0.3242    1.9575    0.0000 H   0  0  0  0  0  0  0  0  0  0  0  0
    0.5424    2.6494    0.0000 H   0  0  0  0  0  0  0  0  0  0  0  0
    1.4690    3.1844    0.0000 H   0  0  0  0  0  0  0  0  0  0  0  0
    1.2898    3.8679    0.0000 H   0  0  0  0  0  0  0  0  0  0  0  0
    2.8979    4.7964    0.0000 H   0  0  0  0  0  0  0  0  0  0  0  0
    5.1384    3.2959    0.0000 H   0  0  0  0  0  0  0  0  0  0  0  0
    4.5061    2.0109    0.0000 H   0  0  0  0  0  0  0  0  0  0  0  0
    2.8979    1.0824    0.0000 H   0  0  0  0  0  0  0  0  0  0  0  0
  1  2  1  0  0  0  0
  1 31  1  0  0  0  0
  2  3  2  0  0  0  0
  2  7  1  0  0  0  0
  3  4  1  0  0  0  0
  3 32  1  0  0  0  0
  4  5  2  0  0  0  0
  4 33  1  0  0  0  0
  5  6  1  0  0  0  0
  5  8  1  0  0  0  0
  6  7  2  0  0  0  0
  6 34  1  0  0  0  0
  7 35  1  0  0  0  0
  8  9  2  0  0  0  0
  8 10  1  0  0  0  0
 10 11  1  0  0  0  0
 10 15  1  0  0  0  0
 11 12  1  0  0  0  0
 11 36  1  0  0  0  0
 11 37  1  0  0  0  0
 12 13  1  0  0  0  0
 12 38  1  0  0  0  0
 12 39  1  0  0  0  0
 13 14  2  0  0  0  0
 13 18  1  0  0  0  0
 14 15  1  0  0  0  0
 14 16  1  0  0  0  0
 15 40  1  0  0  0  0
 15 41  1  0  0  0  0
 16 17  1  0  0  0  0
 16 23  1  0  0  0  0
 17 18  1  0  0  0  0
 17 22  2  0  0  0  0
 18 19  2  0  0  0  0
 19 20  1  0  0  0  0
 19 42  1  0  0  0  0
 20 21  2  0  0  0  0
 20 43  1  0  0  0  0
 21 22  1  0  0  0  0
 21 44  1  0  0  0  0
 22 45  1  0  0  0  0
 23 24  1  0  0  0  0
 23 46  1  0  0  0  0
 23 47  1  0  0  0  0
 24 25  1  0  0  0  0
 24 30  2  0  0  0  0
 25 26  2  0  0  0  0
 25 48  1  0  0  0  0
 26 27  1  0  0  0  0
 26 49  1  0  0  0  0
 27 28  1  0  0  0  0
 27 29  2  0  0  0  0
 28 50  1  0  0  0  0
 29 30  1  0  0  0  0
 29 51  1  0  0  0  0
 30 52  1  0  0  0  0
M  END
>  <DRUGBANK_ID>
DB04030

>  <SECONDARY_ACCESSION_NUMBERS>
EXPT00323

>  <COMMON_NAME>
1,3,4,9-Tetrahydro-2-(Hydroxybenzoyl)-9-[(4-Hydroxyphenyl)Methyl]-6-Methoxy-2h-Pyrido[3,4-B]Indole

$$$$
