1535
 OpenBabel10282417072D

 59 61  0  0  0  0  0  0  0  0999 V2000
    2.2820    1.4946    0.0000 O   0  0  0  0  0  0  0  0  0  0  0  0
    2.7751    2.5520    0.0000 O   0  0  0  0  0  0  0  0  0  0  0  0
    3.4282    3.4054    0.0000 O   0  0  0  0  0  0  0  0  0  0  0  0
    3.6893   -0.4036    0.0000 N   0  0  0  0  0  0  0  0  0  0  0  0
    4.1018    1.9609    0.0000 N   0  0  0  0  0  0  0  0  0  0  0  0
    3.6893    1.2464    0.0000 C   0  0  0  0  0  0  0  0  0  0  0  0
    4.4038    0.8339    0.0000 C   0  0  0  0  0  0  0  0  0  0  0  0
    2.9749    0.8339    0.0000 C   0  0  0  0  0  0  0  0  0  0  0  0
    4.4038    0.0089    0.0000 C   0  0  0  0  0  0  0  0  0  0  0  0
    2.9749    0.0089    0.0000 C   0  0  0  0  0  0  0  0  0  0  0  0
    3.6893   -1.2286    0.0000 C   0  0  0  0  0  0  0  0  0  0  0  0
    3.0573    1.7768    0.0000 C   0  0  0  0  0  0  0  0  0  0  0  0
    4.9268    1.9609    0.0000 C   0  0  0  0  0  0  0  0  0  0  0  0
    2.9749   -1.6411    0.0000 C   0  0  0  0  0  0  0  0  0  0  0  0
    3.9585    2.7734    0.0000 C   0  0  0  0  0  0  0  0  0  0  0  0
    4.5906    3.3037    0.0000 C   0  0  0  0  0  0  0  0  0  0  0  0
    2.9749   -2.4661    0.0000 C   0  0  0  0  0  0  0  0  0  0  0  0
    5.3394    2.6754    0.0000 C   0  0  0  0  0  0  0  0  0  0  0  0
    5.3394    1.2464    0.0000 C   0  0  0  0  0  0  0  0  0  0  0  0
    4.4473    4.1162    0.0000 C   0  0  0  0  0  0  0  0  0  0  0  0
    1.6500    2.0248    0.0000 C   0  0  0  0  0  0  0  0  0  0  0  0
    6.1644    2.6754    0.0000 C   0  0  0  0  0  0  0  0  0  0  0  0
    6.1644    1.2464    0.0000 C   0  0  0  0  0  0  0  0  0  0  0  0
    3.6893   -2.8787    0.0000 C   0  0  0  0  0  0  0  0  0  0  0  0
    2.2603   -2.8787    0.0000 C   0  0  0  0  0  0  0  0  0  0  0  0
    6.5769    1.9609    0.0000 C   0  0  0  0  0  0  0  0  0  0  0  0
    3.6893   -3.7037    0.0000 C   0  0  0  0  0  0  0  0  0  0  0  0
    2.2603   -3.7037    0.0000 C   0  0  0  0  0  0  0  0  0  0  0  0
    2.9749   -4.1162    0.0000 C   0  0  0  0  0  0  0  0  0  0  0  0
    5.3304    1.3689    0.0000 H   0  0  0  0  0  0  0  0  0  0  0  0
    5.3304    0.2989    0.0000 H   0  0  0  0  0  0  0  0  0  0  0  0
    2.0482    1.3689    0.0000 H   0  0  0  0  0  0  0  0  0  0  0  0
    2.0483    0.2989    0.0000 H   0  0  0  0  0  0  0  0  0  0  0  0
    5.3304   -0.5261    0.0000 H   0  0  0  0  0  0  0  0  0  0  0  0
    5.3304    0.5439    0.0000 H   0  0  0  0  0  0  0  0  0  0  0  0
    2.0482   -0.5261    0.0000 H   0  0  0  0  0  0  0  0  0  0  0  0
    2.0483    0.5439    0.0000 H   0  0  0  0  0  0  0  0  0  0  0  0
    4.6160   -1.7636    0.0000 H   0  0  0  0  0  0  0  0  0  0  0  0
    3.6893   -2.2986    0.0000 H   0  0  0  0  0  0  0  0  0  0  0  0
    2.0482   -1.1061    0.0000 H   0  0  0  0  0  0  0  0  0  0  0  0
    2.0483   -2.1761    0.0000 H   0  0  0  0  0  0  0  0  0  0  0  0
    5.5961    2.9377    0.0000 H   0  0  0  0  0  0  0  0  0  0  0  0
    5.4103    3.9915    0.0000 H   0  0  0  0  0  0  0  0  0  0  0  0
    4.8234    3.5692    0.0000 H   0  0  0  0  0  0  0  0  0  0  0  0
    4.8234    0.3526    0.0000 H   0  0  0  0  0  0  0  0  0  0  0  0
    5.2669    4.8040    0.0000 H   0  0  0  0  0  0  0  0  0  0  0  0
    3.4418    4.4821    0.0000 H   0  0  0  0  0  0  0  0  0  0  0  0
    4.2615    5.1699    0.0000 H   0  0  0  0  0  0  0  0  0  0  0  0
    1.8357    3.0786    0.0000 H   0  0  0  0  0  0  0  0  0  0  0  0
    0.6446    1.6587    0.0000 H   0  0  0  0  0  0  0  0  0  0  0  0
    0.8303    2.7125    0.0000 H   0  0  0  0  0  0  0  0  0  0  0  0
    6.6804    3.5691    0.0000 H   0  0  0  0  0  0  0  0  0  0  0  0
    6.6804    0.3527    0.0000 H   0  0  0  0  0  0  0  0  0  0  0  0
    4.5831   -2.3628    0.0000 H   0  0  0  0  0  0  0  0  0  0  0  0
    1.3666   -2.3627    0.0000 H   0  0  0  0  0  0  0  0  0  0  0  0
    7.6089    1.9609    0.0000 H   0  0  0  0  0  0  0  0  0  0  0  0
    4.5830   -4.2197    0.0000 H   0  0  0  0  0  0  0  0  0  0  0  0
    1.3666   -4.2197    0.0000 H   0  0  0  0  0  0  0  0  0  0  0  0
    2.9750   -5.1482    0.0000 H   0  0  0  0  0  0  0  0  0  0  0  0
  1 12  1  0  0  0  0
  1 21  1  0  0  0  0
  2 12  2  0  0  0  0
  3 15  2  0  0  0  0
  4  9  1  0  0  0  0
  4 10  1  0  0  0  0
  4 11  1  0  0  0  0
  5  6  1  0  0  0  0
  5 13  1  0  0  0  0
  5 15  1  0  0  0  0
  6  7  1  0  0  0  0
  6  8  1  0  0  0  0
  6 12  1  0  0  0  0
  7  9  1  0  0  0  0
  7 30  1  0  0  0  0
  7 31  1  0  0  0  0
  8 10  1  0  0  0  0
  8 32  1  0  0  0  0
  8 33  1  0  0  0  0
  9 34  1  0  0  0  0
  9 35  1  0  0  0  0
 10 36  1  0  0  0  0
 10 37  1  0  0  0  0
 11 14  1  0  0  0  0
 11 38  1  0  0  0  0
 11 39  1  0  0  0  0
 13 18  2  0  0  0  0
 13 19  1  0  0  0  0
 14 17  1  0  0  0  0
 14 40  1  0  0  0  0
 14 41  1  0  0  0  0
 15 16  1  0  0  0  0
 16 20  1  0  0  0  0
 16 42  1  0  0  0  0
 16 43  1  0  0  0  0
 17 24  2  0  0  0  0
 17 25  1  0  0  0  0
 18 22  1  0  0  0  0
 18 44  1  0  0  0  0
 19 23  2  0  0  0  0
 19 45  1  0  0  0  0
 20 46  1  0  0  0  0
 20 47  1  0  0  0  0
 20 48  1  0  0  0  0
 21 49  1  0  0  0  0
 21 50  1  0  0  0  0
 21 51  1  0  0  0  0
 22 26  2  0  0  0  0
 22 52  1  0  0  0  0
 23 26  1  0  0  0  0
 23 53  1  0  0  0  0
 24 27  1  0  0  0  0
 24 54  1  0  0  0  0
 25 28  2  0  0  0  0
 25 55  1  0  0  0  0
 26 56  1  0  0  0  0
 27 29  2  0  0  0  0
 27 57  1  0  0  0  0
 28 29  1  0  0  0  0
 28 58  1  0  0  0  0
 29 59  1  0  0  0  0
M  END
>  <DRUGBANK_ID>
DB01535

>  <COMMON_NAME>
Carfentanil

>  <CAS_NUMBER>
59708-52-0

>  <UNII>
LA9DTA2L8F

>  <SYNONYMS>
Carfentanil; carfentanila; Carfentanyl

$$$$
