
 OpenBabel10282417072D

 46 49  0  0  0  0  0  0  0  0999 V2000
   -4.0920    3.9365    0.0000 N   0  0  0  0  0  0  0  0  0  0  0  0
   -3.3218    3.6409    0.0000 C   0  0  0  0  0  0  0  0  0  0  0  0
   -2.6807    4.1601    0.0000 O   0  0  0  0  0  0  0  0  0  0  0  0
   -3.1928    2.8260    0.0000 C   0  0  0  0  0  0  0  0  0  0  0  0
   -2.4577    2.4515    0.0000 C   0  0  0  0  0  0  0  0  0  0  0  0
   -2.5867    1.6367    0.0000 N   0  0  0  0  0  0  0  0  0  0  0  0
   -3.4016    1.5076    0.0000 C   0  0  0  0  0  0  0  0  0  0  0  0
   -3.7761    2.2427    0.0000 C   0  0  0  0  0  0  0  0  0  0  0  0
   -2.0034    1.0533    0.0000 C   0  0  0  0  0  0  0  0  0  0  0  0
   -1.2065    1.2668    0.0000 C   0  0  0  0  0  0  0  0  0  0  0  0
   -0.6231    0.6835    0.0000 N   0  0  0  0  0  0  0  0  0  0  0  0
   -0.8366   -0.1134    0.0000 C   0  0  0  0  0  0  0  0  0  0  0  0
   -0.2533   -0.6968    0.0000 N   0  0  0  0  0  0  0  0  0  0  0  0
    0.5436   -0.4833    0.0000 C   0  0  0  0  0  0  0  0  0  0  0  0
    1.1270   -1.0666    0.0000 C   0  0  2  0  0  0  0  0  0  0  0  0
    1.7103   -1.6500    0.0000 C   0  0  0  0  0  0  0  0  0  0  0  0
    1.1270   -2.2334    0.0000 C   0  0  2  0  0  0  0  0  0  0  0  0
    1.1270   -3.0584    0.0000 F   0  0  0  0  0  0  0  0  0  0  0  0
    0.5436   -1.6500    0.0000 C   0  0  0  0  0  0  0  0  0  0  0  0
    1.7103   -0.4833    0.0000 C   0  0  0  0  0  0  0  0  0  0  0  0
    1.4968    0.3136    0.0000 N   0  0  0  0  0  0  0  0  0  0  0  0
    2.0802    0.8970    0.0000 C   0  0  0  0  0  0  0  0  0  0  0  0
    2.8771    0.6835    0.0000 C   0  0  0  0  0  0  0  0  0  0  0  0
    3.0906   -0.1134    0.0000 C   0  0  0  0  0  0  0  0  0  0  0  0
    2.5072   -0.6968    0.0000 C   0  0  0  0  0  0  0  0  0  0  0  0
    2.7207   -1.4937    0.0000 F   0  0  0  0  0  0  0  0  0  0  0  0
   -1.6335   -0.3270    0.0000 N   0  0  0  0  0  0  0  0  0  0  0  0
   -2.2169    0.2564    0.0000 C   0  0  0  0  0  0  0  0  0  0  0  0
   -4.2461    4.9089    0.0000 H   0  0  0  0  0  0  0  0  0  0  0  0
   -4.8571    3.3169    0.0000 H   0  0  0  0  0  0  0  0  0  0  0  0
   -1.5382    2.9201    0.0000 H   0  0  0  0  0  0  0  0  0  0  0  0
   -3.8701    0.5881    0.0000 H   0  0  0  0  0  0  0  0  0  0  0  0
   -4.7954    2.4042    0.0000 H   0  0  0  0  0  0  0  0  0  0  0  0
   -0.9394    2.2636    0.0000 H   0  0  0  0  0  0  0  0  0  0  0  0
   -0.5082   -1.6477    0.0000 H   0  0  0  0  0  0  0  0  0  0  0  0
    0.8205    0.5502    0.0000 H   0  0  0  0  0  0  0  0  0  0  0  0
    1.5771   -0.2063    0.0000 H   0  0  0  0  0  0  0  0  0  0  0  0
    2.7803   -1.6500    0.0000 H   0  0  0  0  0  0  0  0  0  0  0  0
    2.1198   -2.6385    0.0000 H   0  0  0  0  0  0  0  0  0  0  0  0
    2.1156   -2.6428    0.0000 H   0  0  0  0  0  0  0  0  0  0  0  0
   -0.5264   -1.6500    0.0000 H   0  0  0  0  0  0  0  0  0  0  0  0
    0.1341   -0.6614    0.0000 H   0  0  0  0  0  0  0  0  0  0  0  0
    1.8131    1.8938    0.0000 H   0  0  0  0  0  0  0  0  0  0  0  0
    3.6068    1.4132    0.0000 H   0  0  0  0  0  0  0  0  0  0  0  0
    4.0874   -0.3805    0.0000 H   0  0  0  0  0  0  0  0  0  0  0  0
   -3.2137   -0.0107    0.0000 H   0  0  0  0  0  0  0  0  0  0  0  0
  1  2  1  0  0  0  0
  1 29  1  0  0  0  0
  1 30  1  0  0  0  0
  2  3  2  0  0  0  0
  2  4  1  0  0  0  0
  4  5  2  0  0  0  0
  4  8  1  0  0  0  0
  5  6  1  0  0  0  0
  5 31  1  0  0  0  0
  6  7  1  0  0  0  0
  6  9  1  0  0  0  0
  7  8  2  0  0  0  0
  7 32  1  0  0  0  0
  8 33  1  0  0  0  0
  9 10  2  0  0  0  0
  9 28  1  0  0  0  0
 10 11  1  0  0  0  0
 10 34  1  0  0  0  0
 11 12  2  0  0  0  0
 12 13  1  0  0  0  0
 12 27  1  0  0  0  0
 13 14  1  0  0  0  0
 13 35  1  0  0  0  0
 14 36  1  0  0  0  0
 14 37  1  0  0  0  0
 15 14  1  6  0  0  0
 15 16  1  0  0  0  0
 15 19  1  0  0  0  0
 15 20  1  0  0  0  0
 16 38  1  0  0  0  0
 16 39  1  0  0  0  0
 17 16  1  0  0  0  0
 17 18  1  0  0  0  0
 17 19  1  0  0  0  0
 17 40  1  1  0  0  0
 19 41  1  0  0  0  0
 19 42  1  0  0  0  0
 20 21  2  0  0  0  0
 20 25  1  0  0  0  0
 21 22  1  0  0  0  0
 22 23  2  0  0  0  0
 22 43  1  0  0  0  0
 23 24  1  0  0  0  0
 23 44  1  0  0  0  0
 24 25  2  0  0  0  0
 24 45  1  0  0  0  0
 25 26  1  0  0  0  0
 27 28  2  0  0  0  0
 28 46  1  0  0  0  0
M  END
>  <DRUGBANK_ID>
DB15256

>  <COMMON_NAME>
Reldesemtiv

>  <CAS_NUMBER>
1345410-31-2

>  <UNII>
4S0HBYW6QE

>  <SYNONYMS>
CK-2127107; CK2127107; Reldesemtiv

$$$$
