
 OpenBabel10282417072D

 41 43  0  0  1  0  0  0  0  0999 V2000
    3.9934    2.4750    0.0000 O   0  0  0  0  0  0  0  0  0  0  0  0
    3.2789    2.0625    0.0000 C   0  0  0  0  0  0  0  0  0  0  0  0
    3.2789    1.2375    0.0000 C   0  0  2  0  0  0  0  0  0  0  0  0
    3.9934    0.8250    0.0000 C   0  0  1  0  0  0  0  0  0  0  0  0
    4.7079    1.2375    0.0000 O   0  0  0  0  0  0  0  0  0  0  0  0
    3.9934    0.0000    0.0000 C   0  0  2  0  0  0  0  0  0  0  0  0
    4.7079   -0.4125    0.0000 O   0  0  0  0  0  0  0  0  0  0  0  0
    3.2789   -0.4125    0.0000 C   0  0  1  0  0  0  0  0  0  0  0  0
    3.2789   -1.2375    0.0000 O   0  0  0  0  0  0  0  0  0  0  0  0
    2.5645    0.0000    0.0000 C   0  0  0  0  0  0  0  0  0  0  0  0
    1.7798   -0.2549    0.0000 N   0  0  0  0  0  0  0  0  0  0  0  0
    1.2949    0.4125    0.0000 C   0  0  0  0  0  0  0  0  0  0  0  0
    0.4699    0.4125    0.0000 C   0  0  0  0  0  0  0  0  0  0  0  0
    0.0574   -0.3020    0.0000 N   0  0  0  0  0  0  0  0  0  0  0  0
   -0.7676   -0.3020    0.0000 C   0  0  0  0  0  0  0  0  0  0  0  0
   -1.1801   -1.0164    0.0000 C   0  0  0  0  0  0  0  0  0  0  0  0
   -2.0051   -1.0164    0.0000 C   0  0  0  0  0  0  0  0  0  0  0  0
   -2.4176   -0.3020    0.0000 C   0  0  0  0  0  0  0  0  0  0  0  0
   -2.0051    0.4125    0.0000 C   0  0  0  0  0  0  0  0  0  0  0  0
   -1.1801    0.4125    0.0000 C   0  0  0  0  0  0  0  0  0  0  0  0
    1.7798    1.0799    0.0000 C   0  0  0  0  0  0  0  0  0  0  0  0
    2.5645    0.8250    0.0000 N   0  0  0  0  0  0  0  0  0  0  0  0
    4.8334    1.9900    0.0000 H   0  0  0  0  0  0  0  0  0  0  0  0
    2.3523    2.5975    0.0000 H   0  0  0  0  0  0  0  0  0  0  0  0
    2.3523    1.5275    0.0000 H   0  0  0  0  0  0  0  0  0  0  0  0
    4.2055    1.7725    0.0000 H   0  0  0  0  0  0  0  0  0  0  0  0
    3.9934    1.8950    0.0000 H   0  0  0  0  0  0  0  0  0  0  0  0
    5.5479    0.7525    0.0000 H   0  0  0  0  0  0  0  0  0  0  0  0
    4.9200    0.5350    0.0000 H   0  0  0  0  0  0  0  0  0  0  0  0
    4.7079   -1.3825    0.0000 H   0  0  0  0  0  0  0  0  0  0  0  0
    4.2055   -0.9475    0.0000 H   0  0  0  0  0  0  0  0  0  0  0  0
    2.4389   -1.7225    0.0000 H   0  0  0  0  0  0  0  0  0  0  0  0
   -0.0651    1.3391    0.0000 H   0  0  0  0  0  0  0  0  0  0  0  0
   -0.6001    0.4125    0.0000 H   0  0  0  0  0  0  0  0  0  0  0  0
    0.5497   -1.1546    0.0000 H   0  0  0  0  0  0  0  0  0  0  0  0
   -0.6641   -1.9101    0.0000 H   0  0  0  0  0  0  0  0  0  0  0  0
   -2.5211   -1.9101    0.0000 H   0  0  0  0  0  0  0  0  0  0  0  0
   -3.4496   -0.3020    0.0000 H   0  0  0  0  0  0  0  0  0  0  0  0
   -2.5211    1.3062    0.0000 H   0  0  0  0  0  0  0  0  0  0  0  0
   -0.6641    1.3062    0.0000 H   0  0  0  0  0  0  0  0  0  0  0  0
    1.4609    2.0614    0.0000 H   0  0  0  0  0  0  0  0  0  0  0  0
  1  2  1  0  0  0  0
  1 23  1  0  0  0  0
  2 24  1  0  0  0  0
  2 25  1  0  0  0  0
  3  2  1  0  0  0  0
  3  4  1  0  0  0  0
  3 22  1  0  0  0  0
  3 26  1  1  0  0  0
  4  5  1  0  0  0  0
  4  6  1  0  0  0  0
  4 27  1  6  0  0  0
  5 28  1  0  0  0  0
  6  7  1  0  0  0  0
  6  8  1  0  0  0  0
  6 29  1  1  0  0  0
  7 30  1  0  0  0  0
  8  9  1  0  0  0  0
  8 10  1  0  0  0  0
  8 31  1  6  0  0  0
  9 32  1  0  0  0  0
 10 11  2  0  0  0  0
 10 22  1  0  0  0  0
 11 12  1  0  0  0  0
 12 13  1  0  0  0  0
 12 21  2  0  0  0  0
 13 14  1  0  0  0  0
 13 33  1  0  0  0  0
 13 34  1  0  0  0  0
 14 15  1  0  0  0  0
 14 35  1  0  0  0  0
 15 16  2  0  0  0  0
 15 20  1  0  0  0  0
 16 17  1  0  0  0  0
 16 36  1  0  0  0  0
 17 18  2  0  0  0  0
 17 37  1  0  0  0  0
 18 19  1  0  0  0  0
 18 38  1  0  0  0  0
 19 20  2  0  0  0  0
 19 39  1  0  0  0  0
 20 40  1  0  0  0  0
 21 22  1  0  0  0  0
 21 41  1  0  0  0  0
M  END
>  <DRUGBANK_ID>
DB04712

>  <COMMON_NAME>
ANILINOMETHYL GLUCO-PHENYLIMIDAZOLE

$$$$
