
 OpenBabel10282417072D

 54 57  0  0  1  0  0  0  0  0999 V2000
    3.9503    0.0961    0.0000 C   0  0  0  0  0  0  0  0  0  0  0  0
    6.4662    0.4982    0.0000 C   0  0  0  0  0  0  0  0  0  0  0  0
    3.9215   -2.0864    0.0000 C   0  0  0  0  0  0  0  0  0  0  0  0
    4.7336   -1.9412    0.0000 C   0  0  0  0  0  0  0  0  0  0  0  0
    2.3261   -0.1943    0.0000 C   0  0  0  0  0  0  0  0  0  0  0  0
    6.4774   -1.5264    0.0000 C   0  0  0  0  0  0  0  0  0  0  0  0
    3.1382   -0.0491    0.0000 C   0  0  0  0  0  0  0  0  0  0  0  0
    7.1602   -1.0634    0.0000 C   0  0  0  0  0  0  0  0  0  0  0  0
    2.5776   -1.6009    0.0000 C   0  0  0  0  0  0  0  0  0  0  0  0
    5.5745    0.3866    0.0000 C   0  0  0  0  0  0  0  0  0  0  0  0
    8.2749   -0.7564    0.0000 C   0  0  0  0  0  0  0  0  0  0  0  0
    3.3897   -1.4557    0.0000 C   0  0  0  0  0  0  0  0  0  0  0  0
    2.0458   -0.9702    0.0000 C   0  0  0  0  0  0  0  0  0  0  0  0
    5.8261   -1.0201    0.0000 C   0  0  1  0  0  0  0  0  0  0  0  0
    5.0139   -1.1653    0.0000 C   0  0  1  0  0  0  0  0  0  0  0  0
    4.7624    0.2414    0.0000 C   0  0  1  0  0  0  0  0  0  0  0  0
    7.7430   -0.1257    0.0000 C   0  0  0  0  0  0  0  0  0  0  0  0
    3.6700   -0.6798    0.0000 C   0  0  2  0  0  0  0  0  0  0  0  0
    6.1064   -0.2441    0.0000 C   0  0  2  0  0  0  0  0  0  0  0  0
    6.9309   -0.2709    0.0000 C   0  0  2  0  0  0  0  0  0  0  0  0
    4.4821   -0.5346    0.0000 C   0  0  2  0  0  0  0  0  0  0  0  0
    4.4226    0.2883    0.0000 F   0  0  0  0  0  0  0  0  0  0  0  0
    9.0870   -0.6112    0.0000 O   0  0  0  0  0  0  0  0  0  0  0  0
    1.2336   -1.1154    0.0000 O   0  0  0  0  0  0  0  0  0  0  0  0
    4.2306    0.8721    0.0000 O   0  0  0  0  0  0  0  0  0  0  0  0
    8.0233    0.6502    0.0000 O   0  0  0  0  0  0  0  0  0  0  0  0
    6.8714    0.5519    0.0000 O   0  0  0  0  0  0  0  0  0  0  0  0
    5.2942   -0.3894    0.0000 H   0  0  0  0  0  0  0  0  0  0  0  0
    5.5458   -1.7960    0.0000 H   0  0  0  0  0  0  0  0  0  0  0  0
    5.0427    1.0173    0.0000 H   0  0  0  0  0  0  0  0  0  0  0  0
    5.0036    0.2844    0.0000 H   0  0  0  0  0  0  0  0  0  0  0  0
    3.2606    0.9141    0.0000 H   0  0  0  0  0  0  0  0  0  0  0  0
    4.3139    1.1024    0.0000 H   0  0  0  0  0  0  0  0  0  0  0  0
    7.5334    0.5754    0.0000 H   0  0  0  0  0  0  0  0  0  0  0  0
    5.8657    1.3838    0.0000 H   0  0  0  0  0  0  0  0  0  0  0  0
    6.9329    1.4611    0.0000 H   0  0  0  0  0  0  0  0  0  0  0  0
    3.5579   -3.0927    0.0000 H   0  0  0  0  0  0  0  0  0  0  0  0
    2.8682   -2.2747    0.0000 H   0  0  0  0  0  0  0  0  0  0  0  0
    5.4233   -2.7592    0.0000 H   0  0  0  0  0  0  0  0  0  0  0  0
    5.7869   -1.7529    0.0000 H   0  0  0  0  0  0  0  0  0  0  0  0
    1.6609    0.5947    0.0000 H   0  0  0  0  0  0  0  0  0  0  0  0
    6.4427   -2.5958    0.0000 H   0  0  0  0  0  0  0  0  0  0  0  0
    5.5088   -1.9810    0.0000 H   0  0  0  0  0  0  0  0  0  0  0  0
    3.4888    0.9215    0.0000 H   0  0  0  0  0  0  0  0  0  0  0  0
    8.1666   -1.4269    0.0000 H   0  0  0  0  0  0  0  0  0  0  0  0
    7.9410   -0.3318    0.0000 H   0  0  0  0  0  0  0  0  0  0  0  0
    2.2270   -2.5715    0.0000 H   0  0  0  0  0  0  0  0  0  0  0  0
    5.9380    1.3930    0.0000 H   0  0  0  0  0  0  0  0  0  0  0  0
    6.6278    0.5750    0.0000 H   0  0  0  0  0  0  0  0  0  0  0  0
    7.9114   -1.7628    0.0000 H   0  0  0  0  0  0  0  0  0  0  0  0
    8.9647   -1.5744    0.0000 H   0  0  0  0  0  0  0  0  0  0  0  0
    9.7123   -1.3528    0.0000 H   0  0  0  0  0  0  0  0  0  0  0  0
    4.5602    1.7844    0.0000 H   0  0  0  0  0  0  0  0  0  0  0  0
    7.6743    1.0962    0.0000 H   0  0  0  0  0  0  0  0  0  0  0  0
  1 31  1  0  0  0  0
  1 32  1  0  0  0  0
  1 33  1  0  0  0  0
  2 34  1  0  0  0  0
  2 35  1  0  0  0  0
  2 36  1  0  0  0  0
  3 37  1  0  0  0  0
  3 38  1  0  0  0  0
  4  3  1  0  0  0  0
  4 39  1  0  0  0  0
  4 40  1  0  0  0  0
  5 41  1  0  0  0  0
  6 42  1  0  0  0  0
  6 43  1  0  0  0  0
  7  5  2  0  0  0  0
  7 44  1  0  0  0  0
  8  6  1  0  0  0  0
  8 45  1  0  0  0  0
  8 46  1  0  0  0  0
  9 47  1  0  0  0  0
 10 48  1  0  0  0  0
 10 49  1  0  0  0  0
 11 50  1  0  0  0  0
 11 51  1  0  0  0  0
 12  3  1  0  0  0  0
 12  9  2  0  0  0  0
 13  5  1  0  0  0  0
 13  9  1  0  0  0  0
 14  6  1  0  0  0  0
 14 28  1  6  0  0  0
 15  4  1  0  0  0  0
 15 14  1  0  0  0  0
 15 29  1  1  0  0  0
 16 10  1  0  0  0  0
 16 25  1  0  0  0  0
 16 30  1  6  0  0  0
 17 11  1  0  0  0  0
 18  1  1  1  0  0  0
 18  7  1  0  0  0  0
 18 12  1  0  0  0  0
 19  2  1  1  0  0  0
 19 10  1  0  0  0  0
 19 14  1  0  0  0  0
 20  8  1  0  0  0  0
 20 17  1  1  0  0  0
 20 19  1  0  0  0  0
 20 27  1  0  0  0  0
 21 15  1  0  0  0  0
 21 16  1  0  0  0  0
 21 18  1  0  0  0  0
 21 22  1  6  0  0  0
 23 11  1  0  0  0  0
 23 52  1  0  0  0  0
 24 13  2  0  0  0  0
 25 53  1  0  0  0  0
 26 17  2  0  0  0  0
 27 54  1  0  0  0  0
M  END
>  <DRUGBANK_ID>
DB11522

>  <COMMON_NAME>
Isoflupredone

>  <CAS_NUMBER>
338-95-4

>  <UNII>
HYS0B45Z2S

>  <SYNONYMS>
9-fluoroprednisolone; delta-Fluorocortisone; Isoflupredona; Isoflupredone; Isoflupredonum

$$$$
