GW3
 OpenBabel10282417072D

 39 41  0  0  0  0  0  0  0  0999 V2000
    1.7445    0.0574    0.0000 C   0  0  0  0  0  0  0  0  0  0  0  0
    1.3545   -0.6696    0.0000 C   0  0  0  0  0  0  0  0  0  0  0  0
    1.7891   -1.3708    0.0000 C   0  0  0  0  0  0  0  0  0  0  0  0
    2.6137   -1.3451    0.0000 N   0  0  0  0  0  0  0  0  0  0  0  0
    3.0037   -0.6180    0.0000 C   0  0  0  0  0  0  0  0  0  0  0  0
    2.5691    0.0832    0.0000 N   0  0  0  0  0  0  0  0  0  0  0  0
    1.3991   -2.0978    0.0000 N   0  0  0  0  0  0  0  0  0  0  0  0
    1.3099    0.7587    0.0000 C   0  0  0  0  0  0  0  0  0  0  0  0
    0.4853    0.7329    0.0000 C   0  0  0  0  0  0  0  0  0  0  0  0
    0.0953    0.0059    0.0000 C   0  0  0  0  0  0  0  0  0  0  0  0
    0.5299   -0.6953    0.0000 C   0  0  0  0  0  0  0  0  0  0  0  0
   -0.0027   -1.3254    0.0000 C   0  0  0  0  0  0  0  0  0  0  0  0
   -0.7665   -1.0135    0.0000 C   0  0  0  0  0  0  0  0  0  0  0  0
   -0.7059   -0.1907    0.0000 N   0  0  0  0  0  0  0  0  0  0  0  0
    3.8283   -0.5923    0.0000 N   0  0  0  0  0  0  0  0  0  0  0  0
   -1.3360    0.3419    0.0000 C   0  0  0  0  0  0  0  0  0  0  0  0
   -1.1897    1.1538    0.0000 C   0  0  0  0  0  0  0  0  0  0  0  0
   -1.8198    1.6864    0.0000 C   0  0  0  0  0  0  0  0  0  0  0  0
   -2.1123    0.0626    0.0000 C   0  0  0  0  0  0  0  0  0  0  0  0
   -2.7423    0.5952    0.0000 C   0  0  0  0  0  0  0  0  0  0  0  0
    0.4151   -2.1285    0.0000 H   0  0  0  0  0  0  0  0  0  0  0  0
    1.9177   -2.9346    0.0000 H   0  0  0  0  0  0  0  0  0  0  0  0
    1.7977    1.6681    0.0000 H   0  0  0  0  0  0  0  0  0  0  0  0
   -0.0584    1.6101    0.0000 H   0  0  0  0  0  0  0  0  0  0  0  0
    0.2433   -2.3277    0.0000 H   0  0  0  0  0  0  0  0  0  0  0  0
   -1.6437   -1.5571    0.0000 H   0  0  0  0  0  0  0  0  0  0  0  0
    4.3469   -1.4292    0.0000 H   0  0  0  0  0  0  0  0  0  0  0  0
    4.2938    0.2752    0.0000 H   0  0  0  0  0  0  0  0  0  0  0  0
   -2.1531    1.0327    0.0000 H   0  0  0  0  0  0  0  0  0  0  0  0
   -0.1829    1.5161    0.0000 H   0  0  0  0  0  0  0  0  0  0  0  0
   -1.0001    2.2069    0.0000 H   0  0  0  0  0  0  0  0  0  0  0  0
   -1.6302    2.7395    0.0000 H   0  0  0  0  0  0  0  0  0  0  0  0
   -2.8266    1.3241    0.0000 H   0  0  0  0  0  0  0  0  0  0  0  0
   -2.6370    2.3771    0.0000 H   0  0  0  0  0  0  0  0  0  0  0  0
   -2.3020   -0.9905    0.0000 H   0  0  0  0  0  0  0  0  0  0  0  0
   -3.1191   -0.2997    0.0000 H   0  0  0  0  0  0  0  0  0  0  0  0
   -2.5526    1.6483    0.0000 H   0  0  0  0  0  0  0  0  0  0  0  0
   -3.7491    0.2329    0.0000 H   0  0  0  0  0  0  0  0  0  0  0  0
   -3.5594    1.2860    0.0000 H   0  0  0  0  0  0  0  0  0  0  0  0
  1  2  2  0  0  0  0
  1  6  1  0  0  0  0
  1  8  1  0  0  0  0
  2  3  1  0  0  0  0
  2 11  1  0  0  0  0
  3  4  2  0  0  0  0
  3  7  1  0  0  0  0
  4  5  1  0  0  0  0
  5  6  2  0  0  0  0
  5 15  1  0  0  0  0
  7 21  1  0  0  0  0
  7 22  1  0  0  0  0
  8  9  2  0  0  0  0
  8 23  1  0  0  0  0
  9 10  1  0  0  0  0
  9 24  1  0  0  0  0
 10 11  2  0  0  0  0
 10 14  1  0  0  0  0
 11 12  1  0  0  0  0
 12 13  2  0  0  0  0
 12 25  1  0  0  0  0
 13 14  1  0  0  0  0
 13 26  1  0  0  0  0
 14 16  1  0  0  0  0
 15 27  1  0  0  0  0
 15 28  1  0  0  0  0
 16 17  1  0  0  0  0
 16 19  1  0  0  0  0
 16 29  1  0  0  0  0
 17 18  1  0  0  0  0
 17 30  1  0  0  0  0
 17 31  1  0  0  0  0
 18 32  1  0  0  0  0
 18 33  1  0  0  0  0
 18 34  1  0  0  0  0
 19 20  1  0  0  0  0
 19 35  1  0  0  0  0
 19 36  1  0  0  0  0
 20 37  1  0  0  0  0
 20 38  1  0  0  0  0
 20 39  1  0  0  0  0
M  END
>  <DRUGBANK_ID>
DB07862

>  <COMMON_NAME>
7-(1-ETHYL-PROPYL)-7H-PYRROLO-[3,2-F]QUINAZOLINE-1,3-DIAMINE

$$$$
