
 OpenBabel10282417072D

 64 69  0  0  0  0  0  0  0  0999 V2000
    0.6490   -2.2790    0.0000 F   0  0  0  0  0  0  0  0  0  0  0  0
    1.0390   -1.5520    0.0000 C   0  0  0  0  0  0  0  0  0  0  0  0
    0.6043   -0.8508    0.0000 C   0  0  0  0  0  0  0  0  0  0  0  0
    0.9943   -0.1238    0.0000 C   0  0  0  0  0  0  0  0  0  0  0  0
    1.8189   -0.0980    0.0000 C   0  0  0  0  0  0  0  0  0  0  0  0
    2.2535   -0.7992    0.0000 C   0  0  0  0  0  0  0  0  0  0  0  0
    3.0781   -0.7735    0.0000 C   0  0  0  0  0  0  0  0  0  0  0  0
    3.5127   -1.4747    0.0000 C   0  0  0  0  0  0  0  0  0  0  0  0
    3.1228   -2.2017    0.0000 C   0  0  0  0  0  0  0  0  0  0  0  0
    2.2982   -2.2275    0.0000 S   0  0  0  0  0  0  0  0  0  0  0  0
    2.4667   -3.0351    0.0000 O   0  0  0  0  0  0  0  0  0  0  0  0
    1.5321   -2.5337    0.0000 O   0  0  0  0  0  0  0  0  0  0  0  0
    1.8636   -1.5262    0.0000 C   0  0  0  0  0  0  0  0  0  0  0  0
    4.3140   -1.2781    0.0000 C   0  0  0  0  0  0  0  0  0  0  0  0
    4.3745   -0.4553    0.0000 N   0  0  0  0  0  0  0  0  0  0  0  0
    3.6108   -0.1434    0.0000 N   0  0  0  0  0  0  0  0  0  0  0  0
    3.4141    0.6578    0.0000 C   0  0  0  0  0  0  0  0  0  0  0  0
    2.6219    0.8881    0.0000 C   0  0  0  0  0  0  0  0  0  0  0  0
    2.4253    1.6893    0.0000 C   0  0  0  0  0  0  0  0  0  0  0  0
    3.0208    2.2602    0.0000 C   0  0  0  0  0  0  0  0  0  0  0  0
    2.8242    3.0614    0.0000 C   0  0  0  0  0  0  0  0  0  0  0  0
    3.4197    3.6324    0.0000 N   0  0  0  0  0  0  0  0  0  0  0  0
    3.2231    4.4336    0.0000 C   0  0  0  0  0  0  0  0  0  0  0  0
    3.8187    5.0045    0.0000 C   0  0  0  0  0  0  0  0  0  0  0  0
    4.6109    4.7742    0.0000 O   0  0  0  0  0  0  0  0  0  0  0  0
    4.8075    3.9730    0.0000 C   0  0  0  0  0  0  0  0  0  0  0  0
    4.2119    3.4020    0.0000 C   0  0  0  0  0  0  0  0  0  0  0  0
    3.8130    2.0299    0.0000 C   0  0  0  0  0  0  0  0  0  0  0  0
    4.0097    1.2287    0.0000 C   0  0  0  0  0  0  0  0  0  0  0  0
    4.9440   -1.8107    0.0000 C   0  0  0  0  0  0  0  0  0  0  0  0
    5.7203   -1.5314    0.0000 O   0  0  0  0  0  0  0  0  0  0  0  0
    4.7978   -2.6226    0.0000 N   0  0  0  0  0  0  0  0  0  0  0  0
    5.4278   -3.1552    0.0000 C   0  0  0  0  0  0  0  0  0  0  0  0
    5.2816   -3.9672    0.0000 C   0  0  0  0  0  0  0  0  0  0  0  0
    4.5053   -4.2465    0.0000 O   0  0  0  0  0  0  0  0  0  0  0  0
    3.8752   -3.7139    0.0000 C   0  0  0  0  0  0  0  0  0  0  0  0
    4.0215   -2.9019    0.0000 C   0  0  0  0  0  0  0  0  0  0  0  0
   -0.4272   -0.8831    0.0000 H   0  0  0  0  0  0  0  0  0  0  0  0
    0.4506    0.7534    0.0000 H   0  0  0  0  0  0  0  0  0  0  0  0
    2.3067    0.8114    0.0000 H   0  0  0  0  0  0  0  0  0  0  0  0
    3.6865   -3.1112    0.0000 H   0  0  0  0  0  0  0  0  0  0  0  0
    2.6171   -3.1446    0.0000 H   0  0  0  0  0  0  0  0  0  0  0  0
    1.8769    0.1740    0.0000 H   0  0  0  0  0  0  0  0  0  0  0  0
    1.4343    1.9774    0.0000 H   0  0  0  0  0  0  0  0  0  0  0  0
    1.7967    3.3601    0.0000 H   0  0  0  0  0  0  0  0  0  0  0  0
    2.5691    4.1005    0.0000 H   0  0  0  0  0  0  0  0  0  0  0  0
    2.1957    4.7324    0.0000 H   0  0  0  0  0  0  0  0  0  0  0  0
    2.9681    5.4728    0.0000 H   0  0  0  0  0  0  0  0  0  0  0  0
    3.5637    6.0437    0.0000 H   0  0  0  0  0  0  0  0  0  0  0  0
    4.5911    5.7450    0.0000 H   0  0  0  0  0  0  0  0  0  0  0  0
    5.8350    3.6743    0.0000 H   0  0  0  0  0  0  0  0  0  0  0  0
    5.0626    2.9338    0.0000 H   0  0  0  0  0  0  0  0  0  0  0  0
    4.4669    2.3628    0.0000 H   0  0  0  0  0  0  0  0  0  0  0  0
    3.4394    2.6616    0.0000 H   0  0  0  0  0  0  0  0  0  0  0  0
    4.5580    2.7441    0.0000 H   0  0  0  0  0  0  0  0  0  0  0  0
    5.0007    0.9406    0.0000 H   0  0  0  0  0  0  0  0  0  0  0  0
    6.4346   -2.7929    0.0000 H   0  0  0  0  0  0  0  0  0  0  0  0
    6.2450   -3.8460    0.0000 H   0  0  0  0  0  0  0  0  0  0  0  0
    6.0987   -4.6580    0.0000 H   0  0  0  0  0  0  0  0  0  0  0  0
    5.0919   -5.0203    0.0000 H   0  0  0  0  0  0  0  0  0  0  0  0
    2.8684   -4.0762    0.0000 H   0  0  0  0  0  0  0  0  0  0  0  0
    3.0581   -3.0231    0.0000 H   0  0  0  0  0  0  0  0  0  0  0  0
    3.2044   -2.2111    0.0000 H   0  0  0  0  0  0  0  0  0  0  0  0
    4.2112   -1.8489    0.0000 H   0  0  0  0  0  0  0  0  0  0  0  0
  1  2  1  0  0  0  0
  2  3  2  0  0  0  0
  2 13  1  0  0  0  0
  3  4  1  0  0  0  0
  3 38  1  0  0  0  0
  4  5  2  0  0  0  0
  4 39  1  0  0  0  0
  5  6  1  0  0  0  0
  5 40  1  0  0  0  0
  6  7  1  0  0  0  0
  6 13  2  0  0  0  0
  7  8  2  0  0  0  0
  7 16  1  0  0  0  0
  8  9  1  0  0  0  0
  8 14  1  0  0  0  0
  9 10  1  0  0  0  0
  9 41  1  0  0  0  0
  9 42  1  0  0  0  0
 10 11  2  0  0  0  0
 10 12  2  0  0  0  0
 10 13  1  0  0  0  0
 14 15  2  0  0  0  0
 14 30  1  0  0  0  0
 15 16  1  0  0  0  0
 16 17  1  0  0  0  0
 17 18  2  0  0  0  0
 17 29  1  0  0  0  0
 18 19  1  0  0  0  0
 18 43  1  0  0  0  0
 19 20  2  0  0  0  0
 19 44  1  0  0  0  0
 20 21  1  0  0  0  0
 20 28  1  0  0  0  0
 21 22  1  0  0  0  0
 21 45  1  0  0  0  0
 21 46  1  0  0  0  0
 22 23  1  0  0  0  0
 22 27  1  0  0  0  0
 23 24  1  0  0  0  0
 23 47  1  0  0  0  0
 23 48  1  0  0  0  0
 24 25  1  0  0  0  0
 24 49  1  0  0  0  0
 24 50  1  0  0  0  0
 25 26  1  0  0  0  0
 26 27  1  0  0  0  0
 26 51  1  0  0  0  0
 26 52  1  0  0  0  0
 27 53  1  0  0  0  0
 27 54  1  0  0  0  0
 28 29  2  0  0  0  0
 28 55  1  0  0  0  0
 29 56  1  0  0  0  0
 30 31  2  0  0  0  0
 30 32  1  0  0  0  0
 32 33  1  0  0  0  0
 32 37  1  0  0  0  0
 33 34  1  0  0  0  0
 33 57  1  0  0  0  0
 33 58  1  0  0  0  0
 34 35  1  0  0  0  0
 34 59  1  0  0  0  0
 34 60  1  0  0  0  0
 35 36  1  0  0  0  0
 36 37  1  0  0  0  0
 36 61  1  0  0  0  0
 36 62  1  0  0  0  0
 37 63  1  0  0  0  0
 37 64  1  0  0  0  0
M  END
>  <DRUGBANK_ID>
DB18088

>  <COMMON_NAME>
Roginolisib

>  <CAS_NUMBER>
1305267-37-1

>  <UNII>
6K8FC2TF54

>  <SYNONYMS>
MSC-2360844

$$$$
