
 OpenBabel10282417072D

 34 36  0  0  0  0  0  0  0  0999 V2000
    0.0217    0.8513    0.0000 O   0  0  0  0  0  0  0  0  0  0  0  0
    1.9571   -0.0494    0.0000 O   0  0  0  0  0  0  0  0  0  0  0  0
    1.9602    1.7453    0.0000 O   0  0  0  0  0  0  0  0  0  0  0  0
    0.8074    2.9150    0.0000 O   0  0  0  0  0  0  0  0  0  0  0  0
   -1.2458   -2.9150    0.0000 O   0  0  0  0  0  0  0  0  0  0  0  0
    0.2492   -0.6011    0.0000 N   0  3  0  0  0  0  0  0  0  0  0  0
    0.2492   -1.9289    0.0000 N   0  0  0  0  0  0  0  0  0  0  0  0
   -1.2458   -0.4400    0.0000 N   0  0  0  0  0  0  0  0  0  0  0  0
   -1.9602   -1.6775    0.0000 N   0  0  0  0  0  0  0  0  0  0  0  0
    0.5054    0.1829    0.0000 C   0  0  1  0  0  0  0  0  0  0  0  0
    1.2906    0.4365    0.0000 C   0  0  1  0  0  0  0  0  0  0  0  0
    1.2920    1.2616    0.0000 C   0  0  1  0  0  0  0  0  0  0  0  0
    0.5077    1.5179    0.0000 C   0  0  1  0  0  0  0  0  0  0  0  0
   -0.5313   -0.8526    0.0000 C   0  0  0  0  0  0  0  0  0  0  0  0
    0.2542    2.3030    0.0000 C   0  0  0  0  0  0  0  0  0  0  0  0
   -0.5313   -1.6775    0.0000 C   0  0  0  0  0  0  0  0  0  0  0  0
    0.7307   -1.2650    0.0000 C   0  0  0  0  0  0  0  0  0  0  0  0
   -1.2458   -2.0901    0.0000 C   0  0  2  0  0  0  0  0  0  0  0  0
   -1.9602   -0.8526    0.0000 C   0  0  0  0  0  0  0  0  0  0  0  0
    0.4081   -2.4152    0.0000 H   0  0  0  0  0  0  0  0  0  0  0  0
   -1.2458    0.0714    0.0000 H   0  0  0  0  0  0  0  0  0  0  0  0
    1.8541   -1.0139    0.0000 H   0  0  0  0  0  0  0  0  0  0  0  0
    2.8457    1.3492    0.0000 H   0  0  0  0  0  0  0  0  0  0  0  0
    1.7558    2.7115    0.0000 H   0  0  0  0  0  0  0  0  0  0  0  0
   -2.0858   -3.4000    0.0000 H   0  0  0  0  0  0  0  0  0  0  0  0
   -0.5517    0.0174    0.0000 H   0  0  0  0  0  0  0  0  0  0  0  0
    1.1214   -0.6200    0.0000 H   0  0  0  0  0  0  0  0  0  0  0  0
    2.2445    0.7742    0.0000 H   0  0  0  0  0  0  0  0  0  0  0  0
   -0.5488    1.6871    0.0000 H   0  0  0  0  0  0  0  0  0  0  0  0
   -0.7920    2.5274    0.0000 H   0  0  0  0  0  0  0  0  0  0  0  0
   -0.4633    1.5092    0.0000 H   0  0  0  0  0  0  0  0  0  0  0  0
    1.7627   -1.2650    0.0000 H   0  0  0  0  0  0  0  0  0  0  0  0
   -2.1725   -2.6250    0.0000 H   0  0  0  0  0  0  0  0  0  0  0  0
   -2.8540   -0.3367    0.0000 H   0  0  0  0  0  0  0  0  0  0  0  0
  1 10  1  0  0  0  0
  1 13  1  0  0  0  0
  2 22  1  0  0  0  0
  3 23  1  0  0  0  0
  4 15  1  0  0  0  0
  4 24  1  0  0  0  0
  5 25  1  0  0  0  0
  6 14  1  0  0  0  0
  6 17  2  0  0  0  0
  7 16  1  0  0  0  0
  7 17  1  0  0  0  0
  7 20  1  0  0  0  0
  8 14  1  0  0  0  0
  8 19  1  0  0  0  0
  8 21  1  0  0  0  0
  9 18  1  0  0  0  0
  9 19  2  0  0  0  0
 10  6  1  0  0  0  0
 10 11  1  0  0  0  0
 10 26  1  1  0  0  0
 11  2  1  0  0  0  0
 11 12  1  0  0  0  0
 11 27  1  6  0  0  0
 12  3  1  0  0  0  0
 12 13  1  0  0  0  0
 12 28  1  6  0  0  0
 13 15  1  0  0  0  0
 13 29  1  1  0  0  0
 14 16  2  0  0  0  0
 15 30  1  0  0  0  0
 15 31  1  0  0  0  0
 16 18  1  0  0  0  0
 17 32  1  0  0  0  0
 18  5  1  0  0  0  0
 18 33  1  1  0  0  0
 19 34  1  0  0  0  0
M  CHG  1   6   1
M  END
>  <DRUGBANK_ID>
DB03015

>  <SECONDARY_ACCESSION_NUMBERS>
EXPT02660

>  <COMMON_NAME>
6-hydroxy-1,6-dihydro purine nucleoside

$$$$
