870
 OpenBabel10282417072D

 30 31  0  0  1  0  0  0  0  0999 V2000
    3.8797    2.9274    0.0000 S   0  0  0  0  0  0  0  0  0  0  0  0
    2.3645   -2.8432    0.0000 O   0  0  0  0  0  0  0  0  0  0  0  0
    1.6500   -1.6056    0.0000 O   0  0  0  0  0  0  0  0  0  0  0  0
    2.3645    2.1069    0.0000 O   0  0  0  0  0  0  0  0  0  0  0  0
    3.0790   -1.6056    0.0000 C   0  0  3  0  0  0  0  0  0  0  0  0
    3.0790   -0.7806    0.0000 C   0  0  0  0  0  0  0  0  0  0  0  0
    2.3645   -0.3681    0.0000 C   0  0  0  0  0  0  0  0  0  0  0  0
    3.7935   -0.3681    0.0000 C   0  0  0  0  0  0  0  0  0  0  0  0
    3.0790    0.8694    0.0000 C   0  0  0  0  0  0  0  0  0  0  0  0
    3.7935   -2.0181    0.0000 C   0  0  0  0  0  0  0  0  0  0  0  0
    2.3645    0.4569    0.0000 C   0  0  0  0  0  0  0  0  0  0  0  0
    3.7935    0.4569    0.0000 C   0  0  0  0  0  0  0  0  0  0  0  0
    2.3645   -2.0181    0.0000 C   0  0  0  0  0  0  0  0  0  0  0  0
    3.0790    1.6944    0.0000 C   0  0  0  0  0  0  0  0  0  0  0  0
    3.7935    2.1069    0.0000 C   0  0  0  0  0  0  0  0  0  0  0  0
    4.5471    1.7713    0.0000 C   0  0  0  0  0  0  0  0  0  0  0  0
    5.0992    2.3845    0.0000 C   0  0  0  0  0  0  0  0  0  0  0  0
    4.6867    3.0989    0.0000 C   0  0  0  0  0  0  0  0  0  0  0  0
    1.5530   -3.3117    0.0000 H   0  0  0  0  0  0  0  0  0  0  0  0
    4.0056   -1.0706    0.0000 H   0  0  0  0  0  0  0  0  0  0  0  0
    1.4708   -0.8841    0.0000 H   0  0  0  0  0  0  0  0  0  0  0  0
    4.6872   -0.8841    0.0000 H   0  0  0  0  0  0  0  0  0  0  0  0
    3.7935   -3.0881    0.0000 H   0  0  0  0  0  0  0  0  0  0  0  0
    4.7201   -1.4831    0.0000 H   0  0  0  0  0  0  0  0  0  0  0  0
    4.7202   -2.5531    0.0000 H   0  0  0  0  0  0  0  0  0  0  0  0
    1.4708    0.9729    0.0000 H   0  0  0  0  0  0  0  0  0  0  0  0
    4.6872    0.9729    0.0000 H   0  0  0  0  0  0  0  0  0  0  0  0
    4.7616    0.7618    0.0000 H   0  0  0  0  0  0  0  0  0  0  0  0
    6.1256    2.2767    0.0000 H   0  0  0  0  0  0  0  0  0  0  0  0
    5.1065    4.0417    0.0000 H   0  0  0  0  0  0  0  0  0  0  0  0
  1 15  1  0  0  0  0
  1 18  1  0  0  0  0
  2 13  1  0  0  0  0
  2 19  1  0  0  0  0
  3 13  2  0  0  0  0
  4 14  2  0  0  0  0
  5  6  1  0  0  0  0
  5 10  1  0  0  0  0
  5 13  1  0  0  0  0
  5 20  1  0  0  0  0
  6  7  2  0  0  0  0
  6  8  1  0  0  0  0
  7 11  1  0  0  0  0
  7 21  1  0  0  0  0
  8 12  2  0  0  0  0
  8 22  1  0  0  0  0
  9 11  2  0  0  0  0
  9 12  1  0  0  0  0
  9 14  1  0  0  0  0
 10 23  1  0  0  0  0
 10 24  1  0  0  0  0
 10 25  1  0  0  0  0
 11 26  1  0  0  0  0
 12 27  1  0  0  0  0
 14 15  1  0  0  0  0
 15 16  2  0  0  0  0
 16 17  1  0  0  0  0
 16 28  1  0  0  0  0
 17 18  2  0  0  0  0
 17 29  1  0  0  0  0
 18 30  1  0  0  0  0
M  END
>  <DRUGBANK_ID>
DB00870

>  <SECONDARY_ACCESSION_NUMBERS>
APRD00230

>  <COMMON_NAME>
Suprofen

>  <CAS_NUMBER>
40828-46-4

>  <UNII>
988GU2F9PE

>  <SYNONYMS>
(±)-2-(p-(2-thenoyl)phenyl)propionic acid; 2-(4-(2-Thenoyl)phenyl)propionsäure; 2-[4-(Thiophene-2-carbonyl)-phenyl]-propionic acid; 4-(2-Thenoyl)hydratropsäure; p-2-thenoylhydratropic acid; Suprofen; Suprofene; Suprofeno; Suprofenum; Sutoprofen; α-methyl-4-(2-thienylcarbonyl)benzeneacetic acid

$$$$
