
 OpenBabel10282417072D

 35 35  0  0  0  0  0  0  0  0999 V2000
    0.2415   -0.9757    0.0000 C   0  0  0  0  0  0  0  0  0  0  0  0
   -0.6517   -0.3268    0.0000 C   0  0  0  0  0  0  0  0  0  0  0  0
    1.1198    1.7274    0.0000 C   0  0  0  0  0  0  0  0  0  0  0  0
    0.0157    1.7274    0.0000 C   0  0  0  0  0  0  0  0  0  0  0  0
    4.2022    0.8421    0.0000 C   0  0  0  0  0  0  0  0  0  0  0  0
    0.9803   -0.1553    0.0000 C   0  0  0  0  0  0  0  0  0  0  0  0
    2.0198    0.8843    0.0000 C   0  0  0  0  0  0  0  0  0  0  0  0
    1.2352    0.6294    0.0000 C   0  0  0  0  0  0  0  0  0  0  0  0
    0.1553   -0.1553    0.0000 C   0  0  0  0  0  0  0  0  0  0  0  0
    0.5678    1.1143    0.0000 C   0  0  0  0  0  0  0  0  0  0  0  0
   -0.0997    0.6294    0.0000 N   0  0  0  0  0  0  0  0  0  0  0  0
   -0.8843    0.8843    0.0000 O   0  0  0  0  0  0  0  0  0  0  0  0
    3.6725   -0.1974    0.0000 O   0  0  0  0  0  0  0  0  0  0  0  0
    3.1626    1.3718    0.0000 O   0  0  0  0  0  0  0  0  0  0  0  0
    2.6329    0.3323    0.0000 S   0  0  0  0  0  0  0  0  0  0  0  0
    3.4175    0.5872    0.0000 S   0  0  0  0  0  0  0  0  0  0  0  0
   -0.6242   -1.6046    0.0000 H   0  0  0  0  0  0  0  0  0  0  0  0
    1.2190   -1.4109    0.0000 H   0  0  0  0  0  0  0  0  0  0  0  0
    0.3533   -2.0398    0.0000 H   0  0  0  0  0  0  0  0  0  0  0  0
   -1.3676    0.4684    0.0000 H   0  0  0  0  0  0  0  0  0  0  0  0
   -0.9824   -1.3444    0.0000 H   0  0  0  0  0  0  0  0  0  0  0  0
   -1.6983   -0.5492    0.0000 H   0  0  0  0  0  0  0  0  0  0  0  0
    2.1664    1.5050    0.0000 H   0  0  0  0  0  0  0  0  0  0  0  0
    0.7891    2.7450    0.0000 H   0  0  0  0  0  0  0  0  0  0  0  0
    1.8357    2.5226    0.0000 H   0  0  0  0  0  0  0  0  0  0  0  0
    0.3463    2.7450    0.0000 H   0  0  0  0  0  0  0  0  0  0  0  0
   -1.0309    1.5049    0.0000 H   0  0  0  0  0  0  0  0  0  0  0  0
   -0.7003    2.5225    0.0000 H   0  0  0  0  0  0  0  0  0  0  0  0
    4.9973    0.1261    0.0000 H   0  0  0  0  0  0  0  0  0  0  0  0
    4.4247    1.8887    0.0000 H   0  0  0  0  0  0  0  0  0  0  0  0
    5.2199    1.1727    0.0000 H   0  0  0  0  0  0  0  0  0  0  0  0
    1.5869   -0.9902    0.0000 H   0  0  0  0  0  0  0  0  0  0  0  0
    2.2423    1.9309    0.0000 H   0  0  0  0  0  0  0  0  0  0  0  0
    3.0374    1.2150    0.0000 H   0  0  0  0  0  0  0  0  0  0  0  0
   -1.0860    1.8331    0.0000 H   0  0  0  0  0  0  0  0  0  0  0  0
  1 17  1  0  0  0  0
  1 18  1  0  0  0  0
  1 19  1  0  0  0  0
  2 20  1  0  0  0  0
  2 21  1  0  0  0  0
  2 22  1  0  0  0  0
  3 23  1  0  0  0  0
  3 24  1  0  0  0  0
  3 25  1  0  0  0  0
  4 26  1  0  0  0  0
  4 27  1  0  0  0  0
  4 28  1  0  0  0  0
  5 29  1  0  0  0  0
  5 30  1  0  0  0  0
  5 31  1  0  0  0  0
  6 32  1  0  0  0  0
  7 33  1  0  0  0  0
  7 34  1  0  0  0  0
  8  6  2  0  0  0  0
  8  7  1  0  0  0  0
  9  1  1  0  0  0  0
  9  2  1  0  0  0  0
  9  6  1  0  0  0  0
 10  3  1  0  0  0  0
 10  4  1  0  0  0  0
 10  8  1  0  0  0  0
 11  9  1  0  0  0  0
 11 10  1  0  0  0  0
 12 11  1  0  0  0  0
 12 35  1  0  0  0  0
 15  7  1  0  0  0  0
 16  5  1  0  0  0  0
 16 13  2  0  0  0  0
 16 14  2  0  0  0  0
 16 15  1  0  0  0  0
M  END
>  <DRUGBANK_ID>
DB08217

>  <COMMON_NAME>
S-[(1-Hydroxy-2,2,5,5-tetramethyl-2,5-dihydro-1H-pyrrol-3-yl)methyl] methanesulfonothioate

$$$$
