
 OpenBabel10282417072D

 21 23  0  0  0  0  0  0  0  0999 V2000
    1.9339   -0.6855    0.0000 I   0  3  0  0  0  0  0  0  0  0  0  0
    2.6014   -0.2006    0.0000 C   0  0  0  0  0  0  0  0  0  0  0  0
    3.4084   -0.3721    0.0000 C   0  0  0  0  0  0  0  0  0  0  0  0
    3.9604    0.2410    0.0000 C   0  0  0  0  0  0  0  0  0  0  0  0
    3.7054    1.0256    0.0000 C   0  0  0  0  0  0  0  0  0  0  0  0
    2.8985    1.1971    0.0000 C   0  0  0  0  0  0  0  0  0  0  0  0
    2.3464    0.5840    0.0000 C   0  0  0  0  0  0  0  0  0  0  0  0
    1.5214    0.5840    0.0000 C   0  0  0  0  0  0  0  0  0  0  0  0
    1.2665   -0.2006    0.0000 C   0  0  0  0  0  0  0  0  0  0  0  0
    0.4595   -0.3721    0.0000 C   0  0  0  0  0  0  0  0  0  0  0  0
   -0.0925    0.2410    0.0000 C   0  0  0  0  0  0  0  0  0  0  0  0
    0.1624    1.0256    0.0000 C   0  0  0  0  0  0  0  0  0  0  0  0
    0.9694    1.1971    0.0000 C   0  0  0  0  0  0  0  0  0  0  0  0
    3.7273   -1.3536    0.0000 H   0  0  0  0  0  0  0  0  0  0  0  0
    4.9699    0.0265    0.0000 H   0  0  0  0  0  0  0  0  0  0  0  0
    4.3959    1.7926    0.0000 H   0  0  0  0  0  0  0  0  0  0  0  0
    2.5796    2.1786    0.0000 H   0  0  0  0  0  0  0  0  0  0  0  0
    0.1406   -1.3536    0.0000 H   0  0  0  0  0  0  0  0  0  0  0  0
   -1.1019    0.0264    0.0000 H   0  0  0  0  0  0  0  0  0  0  0  0
   -0.5281    1.7925    0.0000 H   0  0  0  0  0  0  0  0  0  0  0  0
    1.2883    2.1786    0.0000 H   0  0  0  0  0  0  0  0  0  0  0  0
  1  2  1  0  0  0  0
  1  9  1  0  0  0  0
  2  3  2  0  0  0  0
  2  7  1  0  0  0  0
  3  4  1  0  0  0  0
  3 14  1  0  0  0  0
  4  5  2  0  0  0  0
  4 15  1  0  0  0  0
  5  6  1  0  0  0  0
  5 16  1  0  0  0  0
  6  7  2  0  0  0  0
  6 17  1  0  0  0  0
  7  8  1  0  0  0  0
  8  9  2  0  0  0  0
  8 13  1  0  0  0  0
  9 10  1  0  0  0  0
 10 11  2  0  0  0  0
 10 18  1  0  0  0  0
 11 12  1  0  0  0  0
 11 19  1  0  0  0  0
 12 13  2  0  0  0  0
 12 20  1  0  0  0  0
 13 21  1  0  0  0  0
M  CHG  1   1   1
M  END
>  <DRUGBANK_ID>
DB17025

>  <COMMON_NAME>
Diphenyleneiodonium

>  <CAS_NUMBER>
244-54-2

>  <UNII>
6HJ411TU98

>  <SYNONYMS>
Dibenziodolium

$$$$
