
 OpenBabel10282417072D

 19 18  0  0  1  0  0  0  0  0999 V2000
    1.7605   -1.0164    0.0000 C   0  0  0  0  0  0  0  0  0  0  0  0
    2.4750   -1.4289    0.0000 C   0  0  0  0  0  0  0  0  0  0  0  0
    3.1895   -1.0164    0.0000 O   0  0  0  0  0  0  0  0  0  0  0  0
    3.9039   -1.4289    0.0000 P   0  0  2  0  0  0  0  0  0  0  0  0
    3.4914   -2.1434    0.0000 O   0  0  0  0  0  0  0  0  0  0  0  0
    4.3164   -0.7145    0.0000 O   0  0  0  0  0  0  0  0  0  0  0  0
    4.6184   -1.8414    0.0000 O   0  0  0  0  0  0  0  0  0  0  0  0
    5.3329   -1.4289    0.0000 P   0  0  0  0  0  0  0  0  0  0  0  0
    6.0474   -1.0164    0.0000 O   0  0  0  0  0  0  0  0  0  0  0  0
    5.7454   -2.1434    0.0000 O   0  0  0  0  0  0  0  0  0  0  0  0
    4.9204   -0.7145    0.0000 O   0  0  0  0  0  0  0  0  0  0  0  0
    1.7605    0.0536    0.0000 H   0  0  0  0  0  0  0  0  0  0  0  0
    0.8339   -1.5514    0.0000 H   0  0  0  0  0  0  0  0  0  0  0  0
    0.8338   -0.4814    0.0000 H   0  0  0  0  0  0  0  0  0  0  0  0
    2.4750   -2.4989    0.0000 H   0  0  0  0  0  0  0  0  0  0  0  0
    3.4016   -1.9639    0.0000 H   0  0  0  0  0  0  0  0  0  0  0  0
    2.5214   -2.1434    0.0000 H   0  0  0  0  0  0  0  0  0  0  0  0
    6.8874   -1.5014    0.0000 H   0  0  0  0  0  0  0  0  0  0  0  0
    5.2604   -2.9834    0.0000 H   0  0  0  0  0  0  0  0  0  0  0  0
  1  2  1  0  0  0  0
  1 12  1  0  0  0  0
  1 13  1  0  0  0  0
  1 14  1  0  0  0  0
  2  3  1  0  0  0  0
  2 15  1  0  0  0  0
  2 16  1  0  0  0  0
  4  3  1  0  0  0  0
  4  5  1  0  0  0  0
  4  6  2  1  0  0  0
  4  7  1  0  0  0  0
  5 17  1  0  0  0  0
  7  8  1  0  0  0  0
  8  9  1  0  0  0  0
  8 10  1  0  0  0  0
  8 11  2  0  0  0  0
  9 18  1  0  0  0  0
 10 19  1  0  0  0  0
M  END
>  <DRUGBANK_ID>
DB01798

>  <SECONDARY_ACCESSION_NUMBERS>
EXPT02470

>  <COMMON_NAME>
Ethyl Dihydrogen Diphosphate

$$$$
