
 OpenBabel10282417072D

 46 47  0  0  0  0  0  0  0  0999 V2000
   -0.2332    2.0272    0.0000 S   0  0  0  0  0  0  0  0  0  0  0  0
    2.1522    3.3930    0.0000 O   0  0  0  0  0  0  0  0  0  0  0  0
    0.9962    4.2330    0.0000 O   0  0  0  0  0  0  0  0  0  0  0  0
    1.1487   -0.5203    0.0000 O   0  0  0  0  0  0  0  0  0  0  0  0
    0.4342   -0.9328    0.0000 O   0  0  0  0  0  0  0  0  0  0  0  0
   -0.9947   -4.2330    0.0000 O   0  0  0  0  0  0  0  0  0  0  0  0
    1.1017    2.0272    0.0000 N   0  0  0  0  0  0  0  0  0  0  0  0
   -0.2802    0.3046    0.0000 N   0  0  0  0  0  0  0  0  0  0  0  0
   -1.7092   -0.5203    0.0000 N   0  0  0  0  0  0  0  0  0  0  0  0
    0.0217    2.8118    0.0000 C   0  0  0  0  0  0  0  0  0  0  0  0
    0.8467    2.8118    0.0000 C   0  0  2  0  0  0  0  0  0  0  0  0
    0.4342    1.5422    0.0000 C   0  0  1  0  0  0  0  0  0  0  0  0
    0.4342    0.7172    0.0000 C   0  0  1  0  0  0  0  0  0  0  0  0
   -0.7628    3.0668    0.0000 C   0  0  0  0  0  0  0  0  0  0  0  0
    0.0217    3.6368    0.0000 C   0  0  0  0  0  0  0  0  0  0  0  0
    1.3317    3.4793    0.0000 C   0  0  0  0  0  0  0  0  0  0  0  0
    1.1487    0.3046    0.0000 C   0  0  0  0  0  0  0  0  0  0  0  0
   -0.2802   -0.5203    0.0000 C   0  0  0  0  0  0  0  0  0  0  0  0
   -0.9947   -0.9328    0.0000 C   0  0  1  0  0  0  0  0  0  0  0  0
   -0.9947   -1.7579    0.0000 C   0  0  0  0  0  0  0  0  0  0  0  0
   -0.2802   -2.1704    0.0000 C   0  0  0  0  0  0  0  0  0  0  0  0
   -1.7092   -2.1704    0.0000 C   0  0  0  0  0  0  0  0  0  0  0  0
   -0.2802   -2.9955    0.0000 C   0  0  0  0  0  0  0  0  0  0  0  0
   -1.7092   -2.9955    0.0000 C   0  0  0  0  0  0  0  0  0  0  0  0
   -0.9947   -3.4080    0.0000 C   0  0  0  0  0  0  0  0  0  0  0  0
    1.0223    1.2426    0.0000 H   0  0  0  0  0  0  0  0  0  0  0  0
    1.5882    1.8691    0.0000 H   0  0  0  0  0  0  0  0  0  0  0  0
   -0.7231    0.5604    0.0000 H   0  0  0  0  0  0  0  0  0  0  0  0
   -2.1522   -0.7761    0.0000 H   0  0  0  0  0  0  0  0  0  0  0  0
   -1.7092   -0.0088    0.0000 H   0  0  0  0  0  0  0  0  0  0  0  0
    2.5332    2.5370    0.0000 H   0  0  0  0  0  0  0  0  0  0  0  0
   -1.8062   -4.7015    0.0000 H   0  0  0  0  0  0  0  0  0  0  0  0
    1.9035    2.6444    0.0000 H   0  0  0  0  0  0  0  0  0  0  0  0
   -0.4925    1.2521    0.0000 H   0  0  0  0  0  0  0  0  0  0  0  0
   -0.9851    4.1134    0.0000 H   0  0  0  0  0  0  0  0  0  0  0  0
   -1.5580    2.3509    0.0000 H   0  0  0  0  0  0  0  0  0  0  0  0
   -1.7804    3.3976    0.0000 H   0  0  0  0  0  0  0  0  0  0  0  0
    0.9483    4.1718    0.0000 H   0  0  0  0  0  0  0  0  0  0  0  0
   -0.9049    4.1718    0.0000 H   0  0  0  0  0  0  0  0  0  0  0  0
    0.0217    4.7068    0.0000 H   0  0  0  0  0  0  0  0  0  0  0  0
    2.0425    0.8206    0.0000 H   0  0  0  0  0  0  0  0  0  0  0  0
   -0.9947    0.1372    0.0000 H   0  0  0  0  0  0  0  0  0  0  0  0
    0.6135   -1.6544    0.0000 H   0  0  0  0  0  0  0  0  0  0  0  0
   -2.6029   -1.6544    0.0000 H   0  0  0  0  0  0  0  0  0  0  0  0
    0.6135   -3.5115    0.0000 H   0  0  0  0  0  0  0  0  0  0  0  0
   -2.6029   -3.5115    0.0000 H   0  0  0  0  0  0  0  0  0  0  0  0
  1 10  1  0  0  0  0
  1 12  1  0  0  0  0
  2 16  1  0  0  0  0
  2 31  1  0  0  0  0
  3 16  2  0  0  0  0
  4 17  2  0  0  0  0
  5 18  2  0  0  0  0
  6 25  1  0  0  0  0
  6 32  1  0  0  0  0
  7 11  1  0  0  0  0
  7 12  1  0  0  0  0
  7 27  1  0  0  0  0
  8 18  1  0  0  0  0
  8 28  1  0  0  0  0
  9 29  1  0  0  0  0
  9 30  1  0  0  0  0
 10 11  1  0  0  0  0
 10 14  1  0  0  0  0
 10 15  1  0  0  0  0
 11 16  1  0  0  0  0
 11 33  1  1  0  0  0
 12 13  1  0  0  0  0
 12 26  1  6  0  0  0
 13  8  1  0  0  0  0
 13 17  1  0  0  0  0
 13 34  1  6  0  0  0
 14 35  1  0  0  0  0
 14 36  1  0  0  0  0
 14 37  1  0  0  0  0
 15 38  1  0  0  0  0
 15 39  1  0  0  0  0
 15 40  1  0  0  0  0
 17 41  1  0  0  0  0
 18 19  1  0  0  0  0
 19  9  1  0  0  0  0
 19 20  1  0  0  0  0
 19 42  1  6  0  0  0
 20 21  2  0  0  0  0
 20 22  1  0  0  0  0
 21 23  1  0  0  0  0
 21 43  1  0  0  0  0
 22 24  2  0  0  0  0
 22 44  1  0  0  0  0
 23 25  2  0  0  0  0
 23 45  1  0  0  0  0
 24 25  1  0  0  0  0
 24 46  1  0  0  0  0
M  END
>  <DRUGBANK_ID>
DB03658

>  <SECONDARY_ACCESSION_NUMBERS>
EXPT00594

>  <COMMON_NAME>
(2R,4S)-2-[(1R)-1-{[(2R)-2-Amino-2-(4-hydroxyphenyl)acetyl]amino}-2-oxoethyl]-5,5-dimethyl-1,3-thiazolidine-4-carboxylic acid

>  <SYNONYMS>
(2R,4S)-2-[(1R)-1-[[(2R)-2-Amino-2-(4-hydroxyphenyl)acetyl]amino]-2-oxoethyl]-5,5-dimethyl-1,3-thiazolidine-4-carboxylic acid

$$$$
