
 OpenBabel10282417072D

 56 58  0  0  1  0  0  0  0  0999 V2000
   -1.1258    0.9365    0.0000 C   0  0  0  0  0  0  0  0  0  0  0  0
   -1.6158    1.6013    0.0000 N   0  0  0  0  0  0  0  0  0  0  0  0
   -1.6109    0.2620    0.0000 C   0  0  0  0  0  0  0  0  0  0  0  0
   -2.4020    1.3393    0.0000 C   0  0  0  0  0  0  0  0  0  0  0  0
   -2.3972    0.5144    0.0000 C   0  0  0  0  0  0  0  0  0  0  0  0
   -0.3007    0.9413    0.0000 C   0  0  0  0  0  0  0  0  0  0  0  0
    3.4162    0.2524    0.0000 C   0  0  0  0  0  0  0  0  0  0  0  0
   -1.6158   -0.5580    0.0000 C   0  0  0  0  0  0  0  0  0  0  0  0
    2.5912    0.2475    0.0000 C   0  0  0  0  0  0  0  0  0  0  0  0
    0.1067    1.6595    0.0000 C   0  0  0  0  0  0  0  0  0  0  0  0
   -1.2179    2.3243    0.0000 C   0  0  0  0  0  0  0  0  0  0  0  0
    3.8286   -0.4609    0.0000 O   0  0  0  0  0  0  0  0  0  0  0  0
    3.8238    0.9656    0.0000 O   0  0  0  0  0  0  0  0  0  0  0  0
    2.1739    0.9558    0.0000 C   0  0  3  0  0  0  0  0  0  0  0  0
    1.3489    0.9511    0.0000 C   0  0  0  0  0  0  0  0  0  0  0  0
   -2.3388   -0.9607    0.0000 C   0  0  0  0  0  0  0  0  0  0  0  0
   -0.9122   -0.9752    0.0000 C   0  0  0  0  0  0  0  0  0  0  0  0
   -1.6353   -2.2078    0.0000 C   0  0  0  0  0  0  0  0  0  0  0  0
    0.9316    1.6644    0.0000 C   0  0  3  0  0  0  0  0  0  0  0  0
   -3.1152    1.7518    0.0000 C   0  0  0  0  0  0  0  0  0  0  0  0
   -3.1152    0.0970    0.0000 C   0  0  0  0  0  0  0  0  0  0  0  0
   -2.3486   -1.7856    0.0000 C   0  0  0  0  0  0  0  0  0  0  0  0
   -0.9171   -1.7954    0.0000 C   0  0  0  0  0  0  0  0  0  0  0  0
   -1.6450   -3.0329    0.0000 F   0  0  0  0  0  0  0  0  0  0  0  0
    2.5815    1.6741    0.0000 O   0  0  0  0  0  0  0  0  0  0  0  0
    1.3392    2.3826    0.0000 O   0  0  0  0  0  0  0  0  0  0  0  0
   -1.6401    3.0329    0.0000 C   0  0  0  0  0  0  0  0  0  0  0  0
   -0.3930    2.3341    0.0000 C   0  0  0  0  0  0  0  0  0  0  0  0
   -3.8286    0.5094    0.0000 C   0  0  0  0  0  0  0  0  0  0  0  0
   -3.8286    1.3393    0.0000 C   0  0  0  0  0  0  0  0  0  0  0  0
    0.2213    0.0510    0.0000 H   0  0  0  0  0  0  0  0  0  0  0  0
    2.0630   -0.6831    0.0000 H   0  0  0  0  0  0  0  0  0  0  0  0
    1.5212    0.2388    0.0000 H   0  0  0  0  0  0  0  0  0  0  0  0
   -0.4153    2.5497    0.0000 H   0  0  0  0  0  0  0  0  0  0  0  0
   -0.6948    3.2577    0.0000 H   0  0  0  0  0  0  0  0  0  0  0  0
    3.3606   -1.2726    0.0000 H   0  0  0  0  0  0  0  0  0  0  0  0
    1.6456    0.0253    0.0000 H   0  0  0  0  0  0  0  0  0  0  0  0
    0.8192    0.0214    0.0000 H   0  0  0  0  0  0  0  0  0  0  0  0
    0.2789    0.9450    0.0000 H   0  0  0  0  0  0  0  0  0  0  0  0
   -3.2254   -0.4326    0.0000 H   0  0  0  0  0  0  0  0  0  0  0  0
   -0.0140   -0.4671    0.0000 H   0  0  0  0  0  0  0  0  0  0  0  0
    0.4020    0.7346    0.0000 H   0  0  0  0  0  0  0  0  0  0  0  0
   -3.1151    2.7838    0.0000 H   0  0  0  0  0  0  0  0  0  0  0  0
   -3.1139   -0.9350    0.0000 H   0  0  0  0  0  0  0  0  0  0  0  0
   -3.2481   -2.2914    0.0000 H   0  0  0  0  0  0  0  0  0  0  0  0
   -0.0255   -2.3151    0.0000 H   0  0  0  0  0  0  0  0  0  0  0  0
    3.5515    1.6813    0.0000 H   0  0  0  0  0  0  0  0  0  0  0  0
    2.3092    2.3898    0.0000 H   0  0  0  0  0  0  0  0  0  0  0  0
   -1.1179    3.9668    0.0000 H   0  0  0  0  0  0  0  0  0  0  0  0
   -2.7100    3.0182    0.0000 H   0  0  0  0  0  0  0  0  0  0  0  0
   -2.1878    3.9521    0.0000 H   0  0  0  0  0  0  0  0  0  0  0  0
    0.1530    1.4139    0.0000 H   0  0  0  0  0  0  0  0  0  0  0  0
    0.1310    3.2670    0.0000 H   0  0  0  0  0  0  0  0  0  0  0  0
    0.6769    2.3468    0.0000 H   0  0  0  0  0  0  0  0  0  0  0  0
   -4.7225   -0.0064    0.0000 H   0  0  0  0  0  0  0  0  0  0  0  0
   -4.7225    1.8550    0.0000 H   0  0  0  0  0  0  0  0  0  0  0  0
  2  1  1  0  0  0  0
  3  1  2  0  0  0  0
  4  2  1  0  0  0  0
  5  3  1  0  0  0  0
  5  4  1  0  0  0  0
  6  1  1  0  0  0  0
  6 31  1  0  0  0  0
  7  9  1  0  0  0  0
  8  3  1  0  0  0  0
  9 14  1  0  0  0  0
  9 32  1  0  0  0  0
  9 33  1  0  0  0  0
 10  6  2  0  0  0  0
 10 34  1  0  0  0  0
 11  2  1  0  0  0  0
 11 35  1  0  0  0  0
 12  7  1  0  0  0  0
 12 36  1  0  0  0  0
 13  7  2  0  0  0  0
 14 15  1  0  0  0  0
 14 25  1  0  0  0  0
 14 37  1  0  0  0  0
 15 19  1  0  0  0  0
 15 38  1  0  0  0  0
 15 39  1  0  0  0  0
 16  8  2  0  0  0  0
 16 40  1  0  0  0  0
 17  8  1  0  0  0  0
 17 41  1  0  0  0  0
 18 22  2  0  0  0  0
 19 10  1  0  0  0  0
 19 26  1  0  0  0  0
 19 42  1  0  0  0  0
 20  4  2  0  0  0  0
 20 43  1  0  0  0  0
 21  5  2  0  0  0  0
 21 44  1  0  0  0  0
 22 16  1  0  0  0  0
 22 45  1  0  0  0  0
 23 17  2  0  0  0  0
 23 18  1  0  0  0  0
 23 46  1  0  0  0  0
 24 18  1  0  0  0  0
 25 47  1  0  0  0  0
 26 48  1  0  0  0  0
 27 11  1  0  0  0  0
 27 49  1  0  0  0  0
 27 50  1  0  0  0  0
 27 51  1  0  0  0  0
 28 11  1  0  0  0  0
 28 52  1  0  0  0  0
 28 53  1  0  0  0  0
 28 54  1  0  0  0  0
 29 21  1  0  0  0  0
 29 30  2  0  0  0  0
 29 55  1  0  0  0  0
 30 20  1  0  0  0  0
 30 56  1  0  0  0  0
M  END
>  <DRUGBANK_ID>
DB01095

>  <SECONDARY_ACCESSION_NUMBERS>
APRD00346

>  <COMMON_NAME>
Fluvastatin

>  <CAS_NUMBER>
93957-54-1

>  <UNII>
4L066368AS

>  <SYNONYMS>
Fluvastatin; fluvastatina; fluvastatine; fluvastatinum

$$$$
