
 OpenBabel10282417072D

 67 70  0  0  0  0  0  0  0  0999 V2000
    1.9478    0.4727    0.0000 C   0  0  0  0  0  0  0  0  0  0  0  0
    1.2074    0.1195    0.0000 C   0  0  2  0  0  0  0  0  0  0  0  0
    1.0251   -0.6892    0.0000 C   0  0  0  0  0  0  0  0  0  0  0  0
    1.5377   -1.3383    0.0000 C   0  0  0  0  0  0  0  0  0  0  0  0
    2.3579   -1.3383    0.0000 C   0  0  0  0  0  0  0  0  0  0  0  0
    2.6882    0.1195    0.0000 C   0  0  0  0  0  0  0  0  0  0  0  0
    1.9478    1.2928    0.0000 O   0  0  0  0  0  0  0  0  0  0  0  0
    2.8705   -0.6892    0.0000 N   0  0  0  0  0  0  0  0  0  0  0  0
    4.3057   -1.5093    0.0000 C   0  0  0  0  0  0  0  0  0  0  0  0
    5.6954   -1.8282    0.0000 C   0  0  0  0  0  0  0  0  0  0  0  0
    4.1235   -2.3180    0.0000 C   0  0  0  0  0  0  0  0  0  0  0  0
    4.7271   -2.8761    0.0000 C   0  0  0  0  0  0  0  0  0  0  0  0
    5.5131   -2.6370    0.0000 C   0  0  0  0  0  0  0  0  0  0  0  0
    5.0916   -1.2700    0.0000 N   0  0  0  0  0  0  0  0  0  0  0  0
    3.5880   -1.0992    0.0000 S   0  0  0  0  0  0  0  0  0  0  0  0
    3.9981   -0.3929    0.0000 O   0  0  0  0  0  0  0  0  0  0  0  0
    3.1780   -1.8168    0.0000 O   0  0  0  0  0  0  0  0  0  0  0  0
    0.5581    0.6322    0.0000 N   0  0  0  0  0  0  0  0  0  0  0  0
   -0.1481    0.2107    0.0000 C   0  0  0  0  0  0  0  0  0  0  0  0
   -0.1481   -0.6094    0.0000 O   0  0  0  0  0  0  0  0  0  0  0  0
   -0.8656    0.6322    0.0000 C   0  0  2  0  0  0  0  0  0  0  0  0
   -0.8656    1.4523    0.0000 C   0  0  0  0  0  0  0  0  0  0  0  0
   -1.2757    2.1700    0.0000 C   0  0  0  0  0  0  0  0  0  0  0  0
   -0.8656    2.8761    0.0000 C   0  0  0  0  0  0  0  0  0  0  0  0
   -2.0959    2.1700    0.0000 C   0  0  0  0  0  0  0  0  0  0  0  0
   -1.5719    0.2107    0.0000 N   0  0  0  0  0  0  0  0  0  0  0  0
   -2.2895    0.6322    0.0000 C   0  0  0  0  0  0  0  0  0  0  0  0
   -2.2895    1.4523    0.0000 O   0  0  0  0  0  0  0  0  0  0  0  0
   -3.0071    0.2107    0.0000 C   0  0  0  0  0  0  0  0  0  0  0  0
   -3.6678    0.7005    0.0000 C   0  0  0  0  0  0  0  0  0  0  0  0
   -3.2577   -0.5638    0.0000 O   0  0  0  0  0  0  0  0  0  0  0  0
   -4.0779   -0.5638    0.0000 C   0  0  0  0  0  0  0  0  0  0  0  0
   -4.3398    0.2107    0.0000 C   0  0  0  0  0  0  0  0  0  0  0  0
   -5.1486    0.3929    0.0000 C   0  0  0  0  0  0  0  0  0  0  0  0
   -5.6954   -0.2220    0.0000 C   0  0  0  0  0  0  0  0  0  0  0  0
   -5.4447   -1.0080    0.0000 C   0  0  0  0  0  0  0  0  0  0  0  0
   -4.6359   -1.1788    0.0000 C   0  0  0  0  0  0  0  0  0  0  0  0
    1.3266    1.1828    0.0000 H   0  0  0  0  0  0  0  0  0  0  0  0
   -0.0183   -0.9262    0.0000 H   0  0  0  0  0  0  0  0  0  0  0  0
    0.6688   -1.6981    0.0000 H   0  0  0  0  0  0  0  0  0  0  0  0
    1.0711   -2.3012    0.0000 H   0  0  0  0  0  0  0  0  0  0  0  0
    2.1059   -2.2450    0.0000 H   0  0  0  0  0  0  0  0  0  0  0  0
    2.8245   -2.3012    0.0000 H   0  0  0  0  0  0  0  0  0  0  0  0
    3.4216   -1.4543    0.0000 H   0  0  0  0  0  0  0  0  0  0  0  0
    3.5244    0.7871    0.0000 H   0  0  0  0  0  0  0  0  0  0  0  0
    3.6978   -0.2350    0.0000 H   0  0  0  0  0  0  0  0  0  0  0  0
    6.6809   -1.5218    0.0000 H   0  0  0  0  0  0  0  0  0  0  0  0
    3.1380   -2.6244    0.0000 H   0  0  0  0  0  0  0  0  0  0  0  0
    4.4964   -3.8820    0.0000 H   0  0  0  0  0  0  0  0  0  0  0  0
    6.2692   -3.3394    0.0000 H   0  0  0  0  0  0  0  0  0  0  0  0
    0.6222    1.6146    0.0000 H   0  0  0  0  0  0  0  0  0  0  0  0
    0.0631    1.1637    0.0000 H   0  0  0  0  0  0  0  0  0  0  0  0
    0.1686    1.7269    0.0000 H   0  0  0  0  0  0  0  0  0  0  0  0
   -0.4528    2.4395    0.0000 H   0  0  0  0  0  0  0  0  0  0  0  0
   -1.8095    3.0973    0.0000 H   0  0  0  0  0  0  0  0  0  0  0  0
    0.2044    2.8733    0.0000 H   0  0  0  0  0  0  0  0  0  0  0  0
   -1.3982    3.8041    0.0000 H   0  0  0  0  0  0  0  0  0  0  0  0
   -0.3282    3.8014    0.0000 H   0  0  0  0  0  0  0  0  0  0  0  0
   -2.6309    3.0966    0.0000 H   0  0  0  0  0  0  0  0  0  0  0  0
   -2.6309    1.2434    0.0000 H   0  0  0  0  0  0  0  0  0  0  0  0
   -3.1659    2.1700    0.0000 H   0  0  0  0  0  0  0  0  0  0  0  0
   -1.5685   -0.7738    0.0000 H   0  0  0  0  0  0  0  0  0  0  0  0
   -3.6636    1.7325    0.0000 H   0  0  0  0  0  0  0  0  0  0  0  0
   -5.4646    1.3753    0.0000 H   0  0  0  0  0  0  0  0  0  0  0  0
   -6.7049   -0.0078    0.0000 H   0  0  0  0  0  0  0  0  0  0  0  0
   -6.1368   -1.7735    0.0000 H   0  0  0  0  0  0  0  0  0  0  0  0
   -4.3182   -2.1607    0.0000 H   0  0  0  0  0  0  0  0  0  0  0  0
  1  2  1  0  0  0  0
  1  6  1  0  0  0  0
  1  7  2  0  0  0  0
  2  3  1  0  0  0  0
  2 18  1  0  0  0  0
  2 38  1  1  0  0  0
  3  4  1  0  0  0  0
  3 39  1  0  0  0  0
  3 40  1  0  0  0  0
  4  5  1  0  0  0  0
  4 41  1  0  0  0  0
  4 42  1  0  0  0  0
  5  8  1  0  0  0  0
  5 43  1  0  0  0  0
  5 44  1  0  0  0  0
  6  8  1  0  0  0  0
  6 45  1  0  0  0  0
  6 46  1  0  0  0  0
  8 15  1  0  0  0  0
  9 15  1  0  0  0  0
  9 14  1  0  0  0  0
  9 11  2  0  0  0  0
 10 14  2  0  0  0  0
 10 13  1  0  0  0  0
 10 47  1  0  0  0  0
 11 12  1  0  0  0  0
 11 48  1  0  0  0  0
 12 13  2  0  0  0  0
 12 49  1  0  0  0  0
 13 50  1  0  0  0  0
 15 17  2  0  0  0  0
 15 16  2  0  0  0  0
 18 19  1  0  0  0  0
 18 51  1  0  0  0  0
 19 21  1  0  0  0  0
 19 20  2  0  0  0  0
 21 26  1  0  0  0  0
 21 22  1  0  0  0  0
 21 52  1  6  0  0  0
 22 23  1  0  0  0  0
 22 53  1  0  0  0  0
 22 54  1  0  0  0  0
 23 24  1  0  0  0  0
 23 25  1  0  0  0  0
 23 55  1  0  0  0  0
 24 56  1  0  0  0  0
 24 57  1  0  0  0  0
 24 58  1  0  0  0  0
 25 59  1  0  0  0  0
 25 60  1  0  0  0  0
 25 61  1  0  0  0  0
 26 27  1  0  0  0  0
 26 62  1  0  0  0  0
 27 29  1  0  0  0  0
 27 28  2  0  0  0  0
 29 31  1  0  0  0  0
 29 30  2  0  0  0  0
 30 33  1  0  0  0  0
 30 63  1  0  0  0  0
 31 32  1  0  0  0  0
 32 37  1  0  0  0  0
 32 33  2  0  0  0  0
 33 34  1  0  0  0  0
 34 35  2  0  0  0  0
 34 64  1  0  0  0  0
 35 36  1  0  0  0  0
 35 65  1  0  0  0  0
 36 37  2  0  0  0  0
 36 66  1  0  0  0  0
 37 67  1  0  0  0  0
M  END
>  <DRUGBANK_ID>
DB03642

>  <SECONDARY_ACCESSION_NUMBERS>
EXPT00107

>  <COMMON_NAME>
N-[(2S)-4-Methyl-1-oxo-1-{[(4S)-3-oxo-1-(2-pyridinylsulfonyl)-4-azepanyl]amino}-2-pentanyl]-1-benzofuran-2-carboxamide

$$$$
