KTP
 OpenBabel10282417072D

 44 47  0  0  0  0  0  0  0  0999 V2000
   -1.1896   -0.1475    0.0000 P   0  0  0  0  0  0  0  0  0  0  0  0
   -1.6021   -0.8620    0.0000 O   0  0  0  0  0  0  0  0  0  0  0  0
    0.9538   -0.5600    0.0000 O   0  0  0  0  0  0  0  0  0  0  0  0
   -0.4751   -0.5600    0.0000 C   0  0  1  0  0  0  0  0  0  0  0  0
    0.2393   -0.1475    0.0000 C   0  0  0  0  0  0  0  0  0  0  0  0
   -0.7771    0.5670    0.0000 O   0  0  0  0  0  0  0  0  0  0  0  0
   -1.9041    0.2650    0.0000 O   0  0  0  0  0  0  0  0  0  0  0  0
    0.2393    0.6775    0.0000 C   0  0  0  0  0  0  0  0  0  0  0  0
    0.9538    1.0900    0.0000 C   0  0  0  0  0  0  0  0  0  0  0  0
    0.9538    1.9150    0.0000 C   0  0  0  0  0  0  0  0  0  0  0  0
    1.6683    2.3275    0.0000 C   0  0  0  0  0  0  0  0  0  0  0  0
    1.6683    3.1525    0.0000 C   0  0  0  0  0  0  0  0  0  0  0  0
    0.9538    3.5650    0.0000 C   0  0  0  0  0  0  0  0  0  0  0  0
    0.2393    3.1525    0.0000 C   0  0  0  0  0  0  0  0  0  0  0  0
    0.2393    2.3275    0.0000 C   0  0  0  0  0  0  0  0  0  0  0  0
   -0.4751    1.9150    0.0000 C   0  0  0  0  0  0  0  0  0  0  0  0
   -0.4751    1.0900    0.0000 C   0  0  0  0  0  0  0  0  0  0  0  0
   -1.1896   -1.7975    0.0000 C   0  0  0  0  0  0  0  0  0  0  0  0
   -0.4751   -1.3850    0.0000 C   0  0  0  0  0  0  0  0  0  0  0  0
    0.2393   -1.7975    0.0000 C   0  0  0  0  0  0  0  0  0  0  0  0
    0.9538   -1.3850    0.0000 C   0  0  0  0  0  0  0  0  0  0  0  0
    1.6683   -1.7975    0.0000 C   0  0  0  0  0  0  0  0  0  0  0  0
    1.6683   -2.6225    0.0000 C   0  0  0  0  0  0  0  0  0  0  0  0
    0.9538   -3.0350    0.0000 C   0  0  0  0  0  0  0  0  0  0  0  0
    0.2393   -2.6225    0.0000 C   0  0  0  0  0  0  0  0  0  0  0  0
   -0.4751   -3.0350    0.0000 C   0  0  0  0  0  0  0  0  0  0  0  0
   -1.1896   -2.6225    0.0000 C   0  0  0  0  0  0  0  0  0  0  0  0
   -0.4751    0.0239    0.0000 H   0  0  0  0  0  0  0  0  0  0  0  0
    0.1929    0.5670    0.0000 H   0  0  0  0  0  0  0  0  0  0  0  0
   -1.9041    1.2350    0.0000 H   0  0  0  0  0  0  0  0  0  0  0  0
    1.8475    0.5740    0.0000 H   0  0  0  0  0  0  0  0  0  0  0  0
    2.5620    1.8115    0.0000 H   0  0  0  0  0  0  0  0  0  0  0  0
    2.5620    3.6685    0.0000 H   0  0  0  0  0  0  0  0  0  0  0  0
    0.9538    4.5970    0.0000 H   0  0  0  0  0  0  0  0  0  0  0  0
   -0.6544    3.6685    0.0000 H   0  0  0  0  0  0  0  0  0  0  0  0
   -1.3688    2.4310    0.0000 H   0  0  0  0  0  0  0  0  0  0  0  0
   -1.3688    0.5740    0.0000 H   0  0  0  0  0  0  0  0  0  0  0  0
   -2.0833   -1.2815    0.0000 H   0  0  0  0  0  0  0  0  0  0  0  0
    0.9538   -0.3530    0.0000 H   0  0  0  0  0  0  0  0  0  0  0  0
    2.5620   -1.2815    0.0000 H   0  0  0  0  0  0  0  0  0  0  0  0
    2.5620   -3.1385    0.0000 H   0  0  0  0  0  0  0  0  0  0  0  0
    0.9538   -4.0670    0.0000 H   0  0  0  0  0  0  0  0  0  0  0  0
   -0.4751   -4.0670    0.0000 H   0  0  0  0  0  0  0  0  0  0  0  0
   -2.0833   -3.1385    0.0000 H   0  0  0  0  0  0  0  0  0  0  0  0
  1  2  2  0  0  0  0
  1  6  1  0  0  0  0
  1  7  1  0  0  0  0
  3  5  2  0  0  0  0
  4  1  1  0  0  0  0
  4  5  1  0  0  0  0
  4 19  1  0  0  0  0
  4 28  1  6  0  0  0
  5  8  1  0  0  0  0
  6 29  1  0  0  0  0
  7 30  1  0  0  0  0
  8  9  2  0  0  0  0
  8 17  1  0  0  0  0
  9 10  1  0  0  0  0
  9 31  1  0  0  0  0
 10 11  2  0  0  0  0
 10 15  1  0  0  0  0
 11 12  1  0  0  0  0
 11 32  1  0  0  0  0
 12 13  2  0  0  0  0
 12 33  1  0  0  0  0
 13 14  1  0  0  0  0
 13 34  1  0  0  0  0
 14 15  2  0  0  0  0
 14 35  1  0  0  0  0
 15 16  1  0  0  0  0
 16 17  2  0  0  0  0
 16 36  1  0  0  0  0
 17 37  1  0  0  0  0
 18 19  2  0  0  0  0
 18 27  1  0  0  0  0
 18 38  1  0  0  0  0
 19 20  1  0  0  0  0
 20 21  2  0  0  0  0
 20 25  1  0  0  0  0
 21 22  1  0  0  0  0
 21 39  1  0  0  0  0
 22 23  2  0  0  0  0
 22 40  1  0  0  0  0
 23 24  1  0  0  0  0
 23 41  1  0  0  0  0
 24 25  2  0  0  0  0
 24 42  1  0  0  0  0
 25 26  1  0  0  0  0
 26 27  2  0  0  0  0
 26 43  1  0  0  0  0
 27 44  1  0  0  0  0
M  END
>  <DRUGBANK_ID>
DB02360

>  <SECONDARY_ACCESSION_NUMBERS>
EXPT01984

>  <COMMON_NAME>
Bis-Napthyl Beta-Ketophosphonic Acid

$$$$
