
 OpenBabel10282417072D

 28 29  0  0  0  0  0  0  0  0999 V2000
   -1.6577   -0.4756    0.0000 C   0  0  0  0  0  0  0  0  0  0  0  0
   -1.4102   -1.2594    0.0000 C   0  0  0  0  0  0  0  0  0  0  0  0
   -0.5852   -1.2594    0.0000 C   0  0  0  0  0  0  0  0  0  0  0  0
   -0.3376   -0.4756    0.0000 C   0  0  2  0  0  0  0  0  0  0  0  0
   -0.9977    0.0193    0.0000 N   0  0  0  0  0  0  0  0  0  0  0  0
   -2.4415   -0.1868    0.0000 O   0  0  0  0  0  0  0  0  0  0  0  0
    0.3635   -0.0631    0.0000 C   0  0  0  0  0  0  0  0  0  0  0  0
    1.0647   -0.4756    0.0000 N   0  0  0  0  0  0  0  0  0  0  0  0
    0.3635    0.7619    0.0000 O   0  0  0  0  0  0  0  0  0  0  0  0
    1.3194   -1.2604    0.0000 C   0  0  0  0  0  0  0  0  0  0  0  0
    2.1444   -1.2607    0.0000 S   0  0  0  0  0  0  0  0  0  0  0  0
    2.3998   -0.4761    0.0000 C   0  0  0  0  0  0  0  0  0  0  0  0
    1.7324    0.0090    0.0000 C   0  0  1  0  0  0  0  0  0  0  0  0
    1.7328    0.8443    0.0000 C   0  0  0  0  0  0  0  0  0  0  0  0
    2.4415    1.2529    0.0000 O   0  0  0  0  0  0  0  0  0  0  0  0
    1.0125    1.2607    0.0000 O   0  0  0  0  0  0  0  0  0  0  0  0
   -2.0427   -2.1224    0.0000 H   0  0  0  0  0  0  0  0  0  0  0  0
   -0.9264   -2.2138    0.0000 H   0  0  0  0  0  0  0  0  0  0  0  0
    0.0473   -2.1225    0.0000 H   0  0  0  0  0  0  0  0  0  0  0  0
    0.4706   -1.0855    0.0000 H   0  0  0  0  0  0  0  0  0  0  0  0
    0.4994   -1.1421    0.0000 H   0  0  0  0  0  0  0  0  0  0  0  0
   -0.9977    1.0038    0.0000 H   0  0  0  0  0  0  0  0  0  0  0  0
    0.6902   -2.1258    0.0000 H   0  0  0  0  0  0  0  0  0  0  0  0
    1.8048   -2.2140    0.0000 H   0  0  0  0  0  0  0  0  0  0  0  0
    3.4176   -0.1458    0.0000 H   0  0  0  0  0  0  0  0  0  0  0  0
    2.5675    0.5807    0.0000 H   0  0  0  0  0  0  0  0  0  0  0  0
    2.6859    0.4944    0.0000 H   0  0  0  0  0  0  0  0  0  0  0  0
    3.2527    0.7839    0.0000 H   0  0  0  0  0  0  0  0  0  0  0  0
  1  2  1  0  0  0  0
  1  5  1  0  0  0  0
  1  6  2  0  0  0  0
  2  3  1  0  0  0  0
  2 17  1  0  0  0  0
  2 18  1  0  0  0  0
  3  4  1  0  0  0  0
  3 19  1  0  0  0  0
  3 20  1  0  0  0  0
  4  5  1  0  0  0  0
  4  7  1  0  0  0  0
  4 21  1  1  0  0  0
  5 22  1  0  0  0  0
  7  8  1  0  0  0  0
  7  9  2  0  0  0  0
  8 10  1  0  0  0  0
  8 13  1  0  0  0  0
 10 11  1  0  0  0  0
 10 23  1  0  0  0  0
 10 24  1  0  0  0  0
 11 12  1  0  0  0  0
 12 13  1  0  0  0  0
 12 25  1  0  0  0  0
 12 26  1  0  0  0  0
 13 14  1  0  0  0  0
 13 27  1  1  0  0  0
 14 15  1  0  0  0  0
 14 16  2  0  0  0  0
 15 28  1  0  0  0  0
M  END
>  <DRUGBANK_ID>
DB11364

>  <COMMON_NAME>
Pidotimod

>  <CAS_NUMBER>
121808-62-6

>  <UNII>
785363R681

>  <SYNONYMS>
Pidotimod

$$$$
