1367
 OpenBabel10282417072D

 26 27  0  0  1  0  0  0  0  0999 V2000
    4.1159    0.0242    0.0000 N   0  0  0  0  0  0  0  0  0  0  0  0
    3.8597   -0.7600    0.0000 C   0  0  2  0  0  0  0  0  0  0  0  0
    4.3412   -1.4239    0.0000 C   0  0  0  0  0  0  0  0  0  0  0  0
    3.8597   -2.0878    0.0000 C   0  0  0  0  0  0  0  0  0  0  0  0
    3.0791   -1.0114    0.0000 C   0  0  0  0  0  0  0  0  0  0  0  0
    3.0791   -1.8364    0.0000 C   0  0  0  0  0  0  0  0  0  0  0  0
    2.3645   -0.5989    0.0000 C   0  0  0  0  0  0  0  0  0  0  0  0
    2.3645   -2.2489    0.0000 C   0  0  0  0  0  0  0  0  0  0  0  0
    4.9232    0.1944    0.0000 C   0  0  0  0  0  0  0  0  0  0  0  0
    1.6500   -1.0114    0.0000 C   0  0  0  0  0  0  0  0  0  0  0  0
    1.6500   -1.8364    0.0000 C   0  0  0  0  0  0  0  0  0  0  0  0
    5.1795    0.9786    0.0000 C   0  0  0  0  0  0  0  0  0  0  0  0
    5.4359    1.7627    0.0000 C   0  0  0  0  0  0  0  0  0  0  0  0
    3.4346    0.7833    0.0000 H   0  0  0  0  0  0  0  0  0  0  0  0
    4.9167   -0.5939    0.0000 H   0  0  0  0  0  0  0  0  0  0  0  0
    5.4112   -1.4239    0.0000 H   0  0  0  0  0  0  0  0  0  0  0  0
    4.8274   -2.3771    0.0000 H   0  0  0  0  0  0  0  0  0  0  0  0
    4.1921   -3.1049    0.0000 H   0  0  0  0  0  0  0  0  0  0  0  0
    3.1047   -2.8460    0.0000 H   0  0  0  0  0  0  0  0  0  0  0  0
    2.3645    0.4331    0.0000 H   0  0  0  0  0  0  0  0  0  0  0  0
    2.3645   -3.2809    0.0000 H   0  0  0  0  0  0  0  0  0  0  0  0
    5.6378   -0.6020    0.0000 H   0  0  0  0  0  0  0  0  0  0  0  0
    5.9702    0.4151    0.0000 H   0  0  0  0  0  0  0  0  0  0  0  0
    0.7563   -0.4954    0.0000 H   0  0  0  0  0  0  0  0  0  0  0  0
    0.7563   -2.3524    0.0000 H   0  0  0  0  0  0  0  0  0  0  0  0
    5.7448    2.7075    0.0000 H   0  0  0  0  0  0  0  0  0  0  0  0
  1  9  1  0  0  0  0
  1 14  1  0  0  0  0
  2  1  1  0  0  0  0
  2  3  1  0  0  0  0
  2  5  1  0  0  0  0
  2 15  1  1  0  0  0
  3  4  1  0  0  0  0
  3 16  1  0  0  0  0
  3 17  1  0  0  0  0
  4  6  1  0  0  0  0
  4 18  1  0  0  0  0
  4 19  1  0  0  0  0
  5  6  1  0  0  0  0
  5  7  2  0  0  0  0
  6  8  2  0  0  0  0
  7 10  1  0  0  0  0
  7 20  1  0  0  0  0
  8 11  1  0  0  0  0
  8 21  1  0  0  0  0
  9 12  1  0  0  0  0
  9 22  1  0  0  0  0
  9 23  1  0  0  0  0
 10 11  2  0  0  0  0
 10 24  1  0  0  0  0
 11 25  1  0  0  0  0
 12 13  3  0  0  0  0
 13 26  1  0  0  0  0
M  END
>  <DRUGBANK_ID>
DB01367

>  <SECONDARY_ACCESSION_NUMBERS>
EXPT02758

>  <COMMON_NAME>
Rasagiline

>  <CAS_NUMBER>
136236-51-6

>  <UNII>
003N66TS6T

>  <SYNONYMS>
(1R)-N-propargylindan-1-amine; (R)-indan-1-yl-prop-2-ynyl-amine; (R)-N-2-Propynyl-1-indanamine; RAS; Rasagilina; Rasagiline

$$$$
