
 OpenBabel10282417072D

 39 41  0  0  0  0  0  0  0  0999 V2000
   -3.5288   -0.4403    0.0000 Cl  0  0  0  0  0  0  0  0  0  0  0  0
    0.7017   -1.2654    0.0000 O   0  0  0  0  0  0  0  0  0  0  0  0
    1.9155    2.4154    0.0000 O   0  0  0  0  0  0  0  0  0  0  0  0
    1.0709   -0.2002    0.0000 N   0  0  0  0  0  0  0  0  0  0  0  0
   -0.6047   -1.9293    0.0000 N   0  0  0  0  0  0  0  0  0  0  0  0
    2.9757    1.4575    0.0000 N   0  0  0  0  0  0  0  0  0  0  0  0
    0.4588    0.3528    0.0000 C   0  0  0  0  0  0  0  0  0  0  0  0
    0.7956    1.1059    0.0000 C   0  0  0  0  0  0  0  0  0  0  0  0
    1.6160    1.0183    0.0000 C   0  0  0  0  0  0  0  0  0  0  0  0
    1.7861    0.2110    0.0000 C   0  0  0  0  0  0  0  0  0  0  0  0
   -0.6047   -0.6015    0.0000 C   0  0  0  0  0  0  0  0  0  0  0  0
   -0.3484    0.1827    0.0000 C   0  0  0  0  0  0  0  0  0  0  0  0
   -1.3854   -0.8529    0.0000 C   0  0  0  0  0  0  0  0  0  0  0  0
   -1.3854   -1.6779    0.0000 C   0  0  0  0  0  0  0  0  0  0  0  0
   -0.1232   -1.2654    0.0000 C   0  0  0  0  0  0  0  0  0  0  0  0
    0.3844    1.8211    0.0000 C   0  0  0  0  0  0  0  0  0  0  0  0
    2.5392   -0.1258    0.0000 C   0  0  0  0  0  0  0  0  0  0  0  0
    2.1690    1.6304    0.0000 C   0  0  0  0  0  0  0  0  0  0  0  0
   -2.0998   -0.4403    0.0000 C   0  0  0  0  0  0  0  0  0  0  0  0
   -2.0998   -2.0904    0.0000 C   0  0  0  0  0  0  0  0  0  0  0  0
   -2.8144   -0.8529    0.0000 C   0  0  0  0  0  0  0  0  0  0  0  0
   -2.8144   -1.6779    0.0000 C   0  0  0  0  0  0  0  0  0  0  0  0
    3.5288    2.0696    0.0000 C   0  0  0  0  0  0  0  0  0  0  0  0
    1.0166   -0.7088    0.0000 H   0  0  0  0  0  0  0  0  0  0  0  0
   -0.4458   -2.4154    0.0000 H   0  0  0  0  0  0  0  0  0  0  0  0
    3.1330    0.9707    0.0000 H   0  0  0  0  0  0  0  0  0  0  0  0
   -1.0376    0.9508    0.0000 H   0  0  0  0  0  0  0  0  0  0  0  0
    0.9211    2.7468    0.0000 H   0  0  0  0  0  0  0  0  0  0  0  0
   -0.6856    1.8230    0.0000 H   0  0  0  0  0  0  0  0  0  0  0  0
   -0.1489    2.7487    0.0000 H   0  0  0  0  0  0  0  0  0  0  0  0
    2.6493   -1.1901    0.0000 H   0  0  0  0  0  0  0  0  0  0  0  0
    3.4059    0.5017    0.0000 H   0  0  0  0  0  0  0  0  0  0  0  0
    3.5160   -0.5626    0.0000 H   0  0  0  0  0  0  0  0  0  0  0  0
   -2.0997    0.5917    0.0000 H   0  0  0  0  0  0  0  0  0  0  0  0
   -2.0997   -3.1224    0.0000 H   0  0  0  0  0  0  0  0  0  0  0  0
   -3.7081   -2.1939    0.0000 H   0  0  0  0  0  0  0  0  0  0  0  0
    4.5750    1.8453    0.0000 H   0  0  0  0  0  0  0  0  0  0  0  0
    3.2000    3.0878    0.0000 H   0  0  0  0  0  0  0  0  0  0  0  0
    4.2462    2.8635    0.0000 H   0  0  0  0  0  0  0  0  0  0  0  0
  1 21  1  0  0  0  0
  2 15  2  0  0  0  0
  3 18  2  0  0  0  0
  4  7  1  0  0  0  0
  4 10  1  0  0  0  0
  4 24  1  0  0  0  0
  5 14  1  0  0  0  0
  5 15  1  0  0  0  0
  5 25  1  0  0  0  0
  6 18  1  0  0  0  0
  6 23  1  0  0  0  0
  6 26  1  0  0  0  0
  7  8  2  0  0  0  0
  7 12  1  0  0  0  0
  8  9  1  0  0  0  0
  8 16  1  0  0  0  0
  9 10  2  0  0  0  0
  9 18  1  0  0  0  0
 10 17  1  0  0  0  0
 11 12  2  0  0  0  0
 11 13  1  0  0  0  0
 11 15  1  0  0  0  0
 12 27  1  0  0  0  0
 13 14  2  0  0  0  0
 13 19  1  0  0  0  0
 14 20  1  0  0  0  0
 16 28  1  0  0  0  0
 16 29  1  0  0  0  0
 16 30  1  0  0  0  0
 17 31  1  0  0  0  0
 17 32  1  0  0  0  0
 17 33  1  0  0  0  0
 19 21  2  0  0  0  0
 19 34  1  0  0  0  0
 20 22  2  0  0  0  0
 20 35  1  0  0  0  0
 21 22  1  0  0  0  0
 22 36  1  0  0  0  0
 23 37  1  0  0  0  0
 23 38  1  0  0  0  0
 23 39  1  0  0  0  0
M  END
>  <DRUGBANK_ID>
DB07180

>  <COMMON_NAME>
5-[(Z)-(5-Chloro-2-oxo-1,2-dihydro-3H-indol-3-ylidene)methyl]-N,2,4-trimethyl-1H-pyrrole-3-carboxamide

$$$$
