
 OpenBabel10282417072D

114119  0  0  1  0  0  0  0  0999 V2000
   -0.5230   -6.0315    0.0000 C   0  0  0  0  0  0  0  0  0  0  0  0
   -0.6092   -5.2110    0.0000 C   0  0  0  0  0  0  0  0  0  0  0  0
    0.0582   -4.7261    0.0000 C   0  0  1  0  0  0  0  0  0  0  0  0
   -0.0280   -3.9056    0.0000 C   0  0  0  0  0  0  0  0  0  0  0  0
    0.6394   -3.4207    0.0000 O   0  0  0  0  0  0  0  0  0  0  0  0
   -0.7817   -3.5701    0.0000 N   0  0  0  0  0  0  0  0  0  0  0  0
   -1.4962   -3.9826    0.0000 C   0  0  0  0  0  0  0  0  0  0  0  0
   -2.1093   -3.4305    0.0000 C   0  0  2  0  0  0  0  0  0  0  0  0
   -1.7737   -2.6769    0.0000 C   0  0  0  0  0  0  0  0  0  0  0  0
   -0.9532   -2.7631    0.0000 C   0  0  1  0  0  0  0  0  0  0  0  0
   -0.4012   -2.1500    0.0000 C   0  0  0  0  0  0  0  0  0  0  0  0
   -0.6561   -1.3654    0.0000 C   0  0  0  0  0  0  0  0  0  0  0  0
   -1.4407   -1.1104    0.0000 C   0  0  0  0  0  0  0  0  0  0  0  0
   -2.1552   -1.5229    0.0000 C   0  0  0  0  0  0  0  0  0  0  0  0
   -2.8697   -1.1104    0.0000 C   0  0  0  0  0  0  0  0  0  0  0  0
   -2.8697   -0.2854    0.0000 C   0  0  0  0  0  0  0  0  0  0  0  0
   -2.1552    0.1271    0.0000 C   0  0  0  0  0  0  0  0  0  0  0  0
   -1.4407   -0.2854    0.0000 C   0  0  0  0  0  0  0  0  0  0  0  0
   -0.6561   -0.0305    0.0000 N   0  0  0  0  0  0  0  0  0  0  0  0
   -0.1712   -0.6979    0.0000 C   0  0  0  0  0  0  0  0  0  0  0  0
    0.6538   -0.6979    0.0000 C   0  0  0  0  0  0  0  0  0  0  0  0
    1.1387   -0.0305    0.0000 C   0  0  0  0  0  0  0  0  0  0  0  0
    1.9233   -0.2854    0.0000 C   0  0  0  0  0  0  0  0  0  0  0  0
    2.6378    0.1271    0.0000 C   0  0  0  0  0  0  0  0  0  0  0  0
    3.3523   -0.2854    0.0000 C   0  0  0  0  0  0  0  0  0  0  0  0
    3.3523   -1.1104    0.0000 C   0  0  0  0  0  0  0  0  0  0  0  0
    2.6378   -1.5229    0.0000 C   0  0  0  0  0  0  0  0  0  0  0  0
    1.9233   -1.1104    0.0000 C   0  0  0  0  0  0  0  0  0  0  0  0
    1.1387   -1.3654    0.0000 N   0  0  0  0  0  0  0  0  0  0  0  0
    4.0668   -1.5229    0.0000 F   0  0  0  0  0  0  0  0  0  0  0  0
    0.8838    0.7541    0.0000 C   0  0  0  0  0  0  0  0  0  0  0  0
    1.4358    1.3672    0.0000 C   0  0  2  0  0  0  0  0  0  0  0  0
    2.2563    1.2810    0.0000 C   0  0  0  0  0  0  0  0  0  0  0  0
    2.5919    2.0347    0.0000 C   0  0  1  0  0  0  0  0  0  0  0  0
    1.9788    2.5867    0.0000 C   0  0  0  0  0  0  0  0  0  0  0  0
    1.2643    2.1742    0.0000 N   0  0  0  0  0  0  0  0  0  0  0  0
    0.5106    2.5097    0.0000 C   0  0  0  0  0  0  0  0  0  0  0  0
    0.4244    3.3302    0.0000 O   0  0  0  0  0  0  0  0  0  0  0  0
   -0.1568    2.0248    0.0000 C   0  0  2  0  0  0  0  0  0  0  0  0
   -0.0706    1.2043    0.0000 C   0  0  0  0  0  0  0  0  0  0  0  0
   -0.7380    0.7194    0.0000 C   0  0  0  0  0  0  0  0  0  0  0  0
   -0.9105    2.3604    0.0000 N   0  0  0  0  0  0  0  0  0  0  0  0
   -0.9967    3.1809    0.0000 C   0  0  0  0  0  0  0  0  0  0  0  0
   -0.3293    3.6658    0.0000 O   0  0  0  0  0  0  0  0  0  0  0  0
   -1.7504    3.5164    0.0000 C   0  0  2  0  0  0  0  0  0  0  0  0
   -2.4179    3.0315    0.0000 C   0  0  0  0  0  0  0  0  0  0  0  0
   -1.8366    4.3369    0.0000 N   0  0  0  0  0  0  0  0  0  0  0  0
   -2.5903    4.6725    0.0000 C   0  0  0  0  0  0  0  0  0  0  0  0
    3.3988    2.2062    0.0000 O   0  0  0  0  0  0  0  0  0  0  0  0
   -3.5842    0.1271    0.0000 F   0  0  0  0  0  0  0  0  0  0  0  0
   -2.9162   -3.6021    0.0000 O   0  0  0  0  0  0  0  0  0  0  0  0
    0.8119   -5.0617    0.0000 N   0  0  0  0  0  0  0  0  0  0  0  0
    0.8981   -5.8821    0.0000 C   0  0  0  0  0  0  0  0  0  0  0  0
    0.2307   -6.3671    0.0000 O   0  0  0  0  0  0  0  0  0  0  0  0
    1.6518   -6.2177    0.0000 C   0  0  2  0  0  0  0  0  0  0  0  0
    2.3192   -5.7328    0.0000 C   0  0  0  0  0  0  0  0  0  0  0  0
    1.7380   -7.0382    0.0000 N   0  0  0  0  0  0  0  0  0  0  0  0
    2.4917   -7.3737    0.0000 C   0  0  0  0  0  0  0  0  0  0  0  0
   -1.3887   -6.6604    0.0000 H   0  0  0  0  0  0  0  0  0  0  0  0
    0.4545   -6.4668    0.0000 H   0  0  0  0  0  0  0  0  0  0  0  0
   -0.4112   -7.0956    0.0000 H   0  0  0  0  0  0  0  0  0  0  0  0
   -1.5867   -4.7758    0.0000 H   0  0  0  0  0  0  0  0  0  0  0  0
   -0.7210   -4.1469    0.0000 H   0  0  0  0  0  0  0  0  0  0  0  0
    0.1700   -5.7902    0.0000 H   0  0  0  0  0  0  0  0  0  0  0  0
   -1.6081   -5.0467    0.0000 H   0  0  0  0  0  0  0  0  0  0  0  0
   -2.4951   -4.3660    0.0000 H   0  0  0  0  0  0  0  0  0  0  0  0
   -2.3862   -4.4640    0.0000 H   0  0  0  0  0  0  0  0  0  0  0  0
   -2.3087   -1.7502    0.0000 H   0  0  0  0  0  0  0  0  0  0  0  0
   -1.1909   -1.7795    0.0000 H   0  0  0  0  0  0  0  0  0  0  0  0
   -1.3367   -1.7642    0.0000 H   0  0  0  0  0  0  0  0  0  0  0  0
    0.6454   -2.3725    0.0000 H   0  0  0  0  0  0  0  0  0  0  0  0
    0.3148   -1.3548    0.0000 H   0  0  0  0  0  0  0  0  0  0  0  0
   -2.1552   -2.5549    0.0000 H   0  0  0  0  0  0  0  0  0  0  0  0
   -3.7634   -1.6264    0.0000 H   0  0  0  0  0  0  0  0  0  0  0  0
   -2.1552    1.1591    0.0000 H   0  0  0  0  0  0  0  0  0  0  0  0
   -0.3519    0.9058    0.0000 H   0  0  0  0  0  0  0  0  0  0  0  0
    2.6378    1.1591    0.0000 H   0  0  0  0  0  0  0  0  0  0  0  0
    4.2460    0.2306    0.0000 H   0  0  0  0  0  0  0  0  0  0  0  0
    2.6378   -2.5549    0.0000 H   0  0  0  0  0  0  0  0  0  0  0  0
    0.8345   -2.3017    0.0000 H   0  0  0  0  0  0  0  0  0  0  0  0
   -0.1628    0.9766    0.0000 H   0  0  0  0  0  0  0  0  0  0  0  0
    0.5531    1.7717    0.0000 H   0  0  0  0  0  0  0  0  0  0  0  0
    1.8193    0.3683    0.0000 H   0  0  0  0  0  0  0  0  0  0  0  0
    2.7913    0.3544    0.0000 H   0  0  0  0  0  0  0  0  0  0  0  0
    3.3248    1.3370    0.0000 H   0  0  0  0  0  0  0  0  0  0  0  0
    3.2653    1.2031    0.0000 H   0  0  0  0  0  0  0  0  0  0  0  0
    2.0906    3.6508    0.0000 H   0  0  0  0  0  0  0  0  0  0  0  0
    1.0814    3.1695    0.0000 H   0  0  0  0  0  0  0  0  0  0  0  0
   -0.2686    3.0889    0.0000 H   0  0  0  0  0  0  0  0  0  0  0  0
    0.9069    0.7691    0.0000 H   0  0  0  0  0  0  0  0  0  0  0  0
    0.0412    0.1402    0.0000 H   0  0  0  0  0  0  0  0  0  0  0  0
   -1.7155    1.1546    0.0000 H   0  0  0  0  0  0  0  0  0  0  0  0
   -0.6261   -0.3447    0.0000 H   0  0  0  0  0  0  0  0  0  0  0  0
   -1.6036    0.0905    0.0000 H   0  0  0  0  0  0  0  0  0  0  0  0
   -1.7070    1.7818    0.0000 H   0  0  0  0  0  0  0  0  0  0  0  0
   -1.6385    2.4523    0.0000 H   0  0  0  0  0  0  0  0  0  0  0  0
   -3.3954    3.4668    0.0000 H   0  0  0  0  0  0  0  0  0  0  0  0
   -2.3061    1.9674    0.0000 H   0  0  0  0  0  0  0  0  0  0  0  0
   -3.2836    2.4026    0.0000 H   0  0  0  0  0  0  0  0  0  0  0  0
   -1.0114    4.9364    0.0000 H   0  0  0  0  0  0  0  0  0  0  0  0
   -2.7021    5.7366    0.0000 H   0  0  0  0  0  0  0  0  0  0  0  0
   -3.4560    4.0436    0.0000 H   0  0  0  0  0  0  0  0  0  0  0  0
   -3.5678    5.1077    0.0000 H   0  0  0  0  0  0  0  0  0  0  0  0
    4.0478    1.4853    0.0000 H   0  0  0  0  0  0  0  0  0  0  0  0
   -3.5653   -2.8813    0.0000 H   0  0  0  0  0  0  0  0  0  0  0  0
    1.6084   -4.4831    0.0000 H   0  0  0  0  0  0  0  0  0  0  0  0
    1.5400   -5.1536    0.0000 H   0  0  0  0  0  0  0  0  0  0  0  0
    3.2967   -6.1680    0.0000 H   0  0  0  0  0  0  0  0  0  0  0  0
    2.2073   -4.6687    0.0000 H   0  0  0  0  0  0  0  0  0  0  0  0
    3.1848   -5.1039    0.0000 H   0  0  0  0  0  0  0  0  0  0  0  0
    0.9128   -7.6378    0.0000 H   0  0  0  0  0  0  0  0  0  0  0  0
    2.6036   -8.4378    0.0000 H   0  0  0  0  0  0  0  0  0  0  0  0
    3.3573   -6.7447    0.0000 H   0  0  0  0  0  0  0  0  0  0  0  0
    3.4692   -7.8088    0.0000 H   0  0  0  0  0  0  0  0  0  0  0  0
  1  2  1  0  0  0  0
  1 59  1  0  0  0  0
  1 60  1  0  0  0  0
  1 61  1  0  0  0  0
  2  3  1  0  0  0  0
  2 62  1  0  0  0  0
  2 63  1  0  0  0  0
  3  4  1  0  0  0  0
  3 52  1  0  0  0  0
  3 64  1  6  0  0  0
  4  5  2  0  0  0  0
  4  6  1  0  0  0  0
  6  7  1  0  0  0  0
  6 10  1  0  0  0  0
  7  8  1  0  0  0  0
  7 65  1  0  0  0  0
  7 66  1  0  0  0  0
  8  9  1  0  0  0  0
  8 51  1  0  0  0  0
  8 67  1  6  0  0  0
  9 10  1  0  0  0  0
  9 68  1  0  0  0  0
  9 69  1  0  0  0  0
 10 11  1  0  0  0  0
 10 70  1  6  0  0  0
 11 12  1  0  0  0  0
 11 71  1  0  0  0  0
 11 72  1  0  0  0  0
 12 13  1  0  0  0  0
 12 20  2  0  0  0  0
 13 14  2  0  0  0  0
 13 18  1  0  0  0  0
 14 15  1  0  0  0  0
 14 73  1  0  0  0  0
 15 16  2  0  0  0  0
 15 74  1  0  0  0  0
 16 17  1  0  0  0  0
 16 50  1  0  0  0  0
 17 18  2  0  0  0  0
 17 75  1  0  0  0  0
 18 19  1  0  0  0  0
 19 20  1  0  0  0  0
 19 76  1  0  0  0  0
 20 21  1  0  0  0  0
 21 22  2  0  0  0  0
 21 29  1  0  0  0  0
 22 23  1  0  0  0  0
 22 31  1  0  0  0  0
 23 24  2  0  0  0  0
 23 28  1  0  0  0  0
 24 25  1  0  0  0  0
 24 77  1  0  0  0  0
 25 26  2  0  0  0  0
 25 78  1  0  0  0  0
 26 27  1  0  0  0  0
 26 30  1  0  0  0  0
 27 28  2  0  0  0  0
 27 79  1  0  0  0  0
 28 29  1  0  0  0  0
 29 80  1  0  0  0  0
 31 81  1  0  0  0  0
 31 82  1  0  0  0  0
 32 31  1  0  0  0  0
 32 33  1  0  0  0  0
 32 36  1  0  0  0  0
 32 83  1  6  0  0  0
 33 34  1  0  0  0  0
 33 84  1  0  0  0  0
 33 85  1  0  0  0  0
 34 35  1  0  0  0  0
 34 49  1  0  0  0  0
 34 86  1  6  0  0  0
 35 36  1  0  0  0  0
 35 87  1  0  0  0  0
 35 88  1  0  0  0  0
 36 37  1  0  0  0  0
 37 38  2  0  0  0  0
 37 39  1  0  0  0  0
 39 40  1  0  0  0  0
 39 42  1  0  0  0  0
 39 89  1  1  0  0  0
 40 41  1  0  0  0  0
 40 90  1  0  0  0  0
 40 91  1  0  0  0  0
 41 92  1  0  0  0  0
 41 93  1  0  0  0  0
 41 94  1  0  0  0  0
 42 43  1  0  0  0  0
 42 95  1  0  0  0  0
 43 44  2  0  0  0  0
 43 45  1  0  0  0  0
 45 46  1  0  0  0  0
 45 47  1  0  0  0  0
 45 96  1  1  0  0  0
 46 97  1  0  0  0  0
 46 98  1  0  0  0  0
 46 99  1  0  0  0  0
 47 48  1  0  0  0  0
 47100  1  0  0  0  0
 48101  1  0  0  0  0
 48102  1  0  0  0  0
 48103  1  0  0  0  0
 49104  1  0  0  0  0
 51105  1  0  0  0  0
 52 53  1  0  0  0  0
 52106  1  0  0  0  0
 53 54  2  0  0  0  0
 53 55  1  0  0  0  0
 55 56  1  0  0  0  0
 55 57  1  0  0  0  0
 55107  1  1  0  0  0
 56108  1  0  0  0  0
 56109  1  0  0  0  0
 56110  1  0  0  0  0
 57 58  1  0  0  0  0
 57111  1  0  0  0  0
 58112  1  0  0  0  0
 58113  1  0  0  0  0
 58114  1  0  0  0  0
M  END
>  <DRUGBANK_ID>
DB11782

>  <COMMON_NAME>
Birinapant

>  <CAS_NUMBER>
1260251-31-7

>  <UNII>
6O4Z07B57R

>  <SYNONYMS>
Birinapant

$$$$
