
 OpenBabel10282417072D

106108  0  0  1  0  0  0  0  0999 V2000
    7.8807   -2.0433    0.0000 O   0  0  0  0  0  0  0  0  0  0  0  0
    8.6039   -1.6362    0.0000 C   0  0  0  0  0  0  0  0  0  0  0  0
    9.2889   -2.0944    0.0000 C   0  0  0  0  0  0  0  0  0  0  0  0
    8.6039   -0.8467    0.0000 O   0  0  0  0  0  0  0  0  0  0  0  0
    7.8954   -0.4256    0.0000 C   0  0  2  0  0  0  0  0  0  0  0  0
    7.8954    0.4030    0.0000 C   0  0  0  0  0  0  0  0  0  0  0  0
    7.1543    0.8001    0.0000 C   0  0  2  0  0  0  0  0  0  0  0  0
    6.5354    1.4194    0.0000 O   0  0  0  0  0  0  0  0  0  0  0  0
    7.5176    1.4852    0.0000 C   0  0  0  0  0  0  0  0  0  0  0  0
    6.4646    0.3883    0.0000 C   0  0  0  0  0  0  0  0  0  0  0  0
    6.4646   -0.4256    0.0000 C   0  0  0  0  0  0  0  0  0  0  0  0
    6.1867   -1.2511    0.0000 C   0  0  0  0  0  0  0  0  0  0  0  0
    5.6507   -0.6275    0.0000 C   0  0  0  0  0  0  0  0  0  0  0  0
    7.1957   -0.8323    0.0000 C   0  0  0  0  0  0  0  0  0  0  0  0
    5.7462    0.8001    0.0000 C   0  0  0  0  0  0  0  0  0  0  0  0
    5.0344    1.2365    0.0000 C   0  0  0  0  0  0  0  0  0  0  0  0
    4.3154    0.8440    0.0000 C   0  0  0  0  0  0  0  0  0  0  0  0
    4.3154   -0.0183    0.0000 C   0  0  0  0  0  0  0  0  0  0  0  0
    3.5822    1.2584    0.0000 C   0  0  0  0  0  0  0  0  0  0  0  0
    2.8706    0.8440    0.0000 C   0  0  0  0  0  0  0  0  0  0  0  0
    2.1883    1.2800    0.0000 C   0  0  0  0  0  0  0  0  0  0  0  0
    1.4476    0.8587    0.0000 C   0  0  0  0  0  0  0  0  0  0  0  0
    1.4476    0.0548    0.0000 C   0  0  0  0  0  0  0  0  0  0  0  0
    0.7433    1.2800    0.0000 C   0  0  0  0  0  0  0  0  0  0  0  0
    0.0462    0.8733    0.0000 C   0  0  0  0  0  0  0  0  0  0  0  0
   -0.6725    1.2800    0.0000 C   0  0  0  0  0  0  0  0  0  0  0  0
   -1.4034    0.8587    0.0000 C   0  0  0  0  0  0  0  0  0  0  0  0
   -2.1222    1.2800    0.0000 C   0  0  0  0  0  0  0  0  0  0  0  0
   -2.1222    2.0797    0.0000 C   0  0  0  0  0  0  0  0  0  0  0  0
   -2.8118    0.8587    0.0000 C   0  0  0  0  0  0  0  0  0  0  0  0
   -3.5597    1.2800    0.0000 C   0  0  0  0  0  0  0  0  0  0  0  0
   -4.2640    0.8733    0.0000 C   0  0  0  0  0  0  0  0  0  0  0  0
   -5.0047    1.2800    0.0000 C   0  0  0  0  0  0  0  0  0  0  0  0
   -5.0047    2.0944    0.0000 C   0  0  0  0  0  0  0  0  0  0  0  0
   -5.7236    0.8733    0.0000 C   0  0  0  0  0  0  0  0  0  0  0  0
   -5.7236    0.0109    0.0000 O   0  0  0  0  0  0  0  0  0  0  0  0
   -6.4354    1.2800    0.0000 C   0  0  0  0  0  0  0  0  0  0  0  0
   -7.1686    0.8440    0.0000 C   0  0  2  0  0  0  0  0  0  0  0  0
   -7.8728    1.2800    0.0000 C   0  0  0  0  0  0  0  0  0  0  0  0
   -7.3853    2.0651    0.0000 C   0  0  0  0  0  0  0  0  0  0  0  0
   -8.3504    2.0065    0.0000 C   0  0  0  0  0  0  0  0  0  0  0  0
   -8.5845    0.8440    0.0000 C   0  0  0  0  0  0  0  0  0  0  0  0
   -8.5845    0.0256    0.0000 C   0  0  2  0  0  0  0  0  0  0  0  0
   -9.2889   -0.3961    0.0000 O   0  0  0  0  0  0  0  0  0  0  0  0
   -7.8728   -0.3669    0.0000 C   0  0  0  0  0  0  0  0  0  0  0  0
   -7.1686    0.0548    0.0000 C   0  0  1  0  0  0  0  0  0  0  0  0
   -6.4354    0.5177    0.0000 O   0  0  0  0  0  0  0  0  0  0  0  0
   -6.5889   -0.5058    0.0000 C   0  0  0  0  0  0  0  0  0  0  0  0
    9.2184   -3.1621    0.0000 H   0  0  0  0  0  0  0  0  0  0  0  0
   10.2488   -1.6216    0.0000 H   0  0  0  0  0  0  0  0  0  0  0  0
   10.1783   -2.6893    0.0000 H   0  0  0  0  0  0  0  0  0  0  0  0
    8.8254    0.1035    0.0000 H   0  0  0  0  0  0  0  0  0  0  0  0
    8.8135    0.9526    0.0000 H   0  0  0  0  0  0  0  0  0  0  0  0
    7.8700    1.4727    0.0000 H   0  0  0  0  0  0  0  0  0  0  0  0
    6.7868    2.3563    0.0000 H   0  0  0  0  0  0  0  0  0  0  0  0
    8.5869    1.5237    0.0000 H   0  0  0  0  0  0  0  0  0  0  0  0
    6.9496    2.3920    0.0000 H   0  0  0  0  0  0  0  0  0  0  0  0
    8.0189    2.4305    0.0000 H   0  0  0  0  0  0  0  0  0  0  0  0
    5.1378   -1.4625    0.0000 H   0  0  0  0  0  0  0  0  0  0  0  0
    6.8942   -2.0538    0.0000 H   0  0  0  0  0  0  0  0  0  0  0  0
    5.8453   -2.2652    0.0000 H   0  0  0  0  0  0  0  0  0  0  0  0
    4.9083    0.1431    0.0000 H   0  0  0  0  0  0  0  0  0  0  0  0
    5.3545   -1.6557    0.0000 H   0  0  0  0  0  0  0  0  0  0  0  0
    4.6122   -0.8851    0.0000 H   0  0  0  0  0  0  0  0  0  0  0  0
    7.2058   -1.9023    0.0000 H   0  0  0  0  0  0  0  0  0  0  0  0
    8.1256   -1.3616    0.0000 H   0  0  0  0  0  0  0  0  0  0  0  0
    5.0604    2.2682    0.0000 H   0  0  0  0  0  0  0  0  0  0  0  0
    3.3888   -0.5533    0.0000 H   0  0  0  0  0  0  0  0  0  0  0  0
    5.2420   -0.5533    0.0000 H   0  0  0  0  0  0  0  0  0  0  0  0
    4.3154   -1.0883    0.0000 H   0  0  0  0  0  0  0  0  0  0  0  0
    3.5755    2.2904    0.0000 H   0  0  0  0  0  0  0  0  0  0  0  0
    2.8493   -0.1878    0.0000 H   0  0  0  0  0  0  0  0  0  0  0  0
    2.2149    2.3117    0.0000 H   0  0  0  0  0  0  0  0  0  0  0  0
    0.5210   -0.4802    0.0000 H   0  0  0  0  0  0  0  0  0  0  0  0
    2.3742   -0.4802    0.0000 H   0  0  0  0  0  0  0  0  0  0  0  0
    1.4476   -1.0152    0.0000 H   0  0  0  0  0  0  0  0  0  0  0  0
    0.7489    2.3120    0.0000 H   0  0  0  0  0  0  0  0  0  0  0  0
    0.0530   -0.1587    0.0000 H   0  0  0  0  0  0  0  0  0  0  0  0
   -0.6766    2.3120    0.0000 H   0  0  0  0  0  0  0  0  0  0  0  0
   -1.4071   -0.1733    0.0000 H   0  0  0  0  0  0  0  0  0  0  0  0
   -1.1956    2.6147    0.0000 H   0  0  0  0  0  0  0  0  0  0  0  0
   -3.0488    2.6147    0.0000 H   0  0  0  0  0  0  0  0  0  0  0  0
   -2.1222    3.1497    0.0000 H   0  0  0  0  0  0  0  0  0  0  0  0
   -2.7935   -0.1731    0.0000 H   0  0  0  0  0  0  0  0  0  0  0  0
   -3.5652    2.3120    0.0000 H   0  0  0  0  0  0  0  0  0  0  0  0
   -4.2529   -0.1586    0.0000 H   0  0  0  0  0  0  0  0  0  0  0  0
   -4.0781    2.6294    0.0000 H   0  0  0  0  0  0  0  0  0  0  0  0
   -5.9313    2.6294    0.0000 H   0  0  0  0  0  0  0  0  0  0  0  0
   -5.0047    3.1644    0.0000 H   0  0  0  0  0  0  0  0  0  0  0  0
   -6.4447    2.3500    0.0000 H   0  0  0  0  0  0  0  0  0  0  0  0
   -7.3678    1.8050    0.0000 H   0  0  0  0  0  0  0  0  0  0  0  0
   -6.3159    2.0308    0.0000 H   0  0  0  0  0  0  0  0  0  0  0  0
   -7.8903    3.0084    0.0000 H   0  0  0  0  0  0  0  0  0  0  0  0
   -6.8209    2.9741    0.0000 H   0  0  0  0  0  0  0  0  0  0  0  0
   -7.8700    2.9626    0.0000 H   0  0  0  0  0  0  0  0  0  0  0  0
   -9.4186    1.9445    0.0000 H   0  0  0  0  0  0  0  0  0  0  0  0
   -8.9382    2.9006    0.0000 H   0  0  0  0  0  0  0  0  0  0  0  0
   -9.5180    1.3669    0.0000 H   0  0  0  0  0  0  0  0  0  0  0  0
   -9.5076    0.3030    0.0000 H   0  0  0  0  0  0  0  0  0  0  0  0
   -9.5154    0.5532    0.0000 H   0  0  0  0  0  0  0  0  0  0  0  0
  -10.1365    0.0755    0.0000 H   0  0  0  0  0  0  0  0  0  0  0  0
   -7.8538   -1.4367    0.0000 H   0  0  0  0  0  0  0  0  0  0  0  0
   -6.9373   -0.8862    0.0000 H   0  0  0  0  0  0  0  0  0  0  0  0
   -6.8485   -1.5438    0.0000 H   0  0  0  0  0  0  0  0  0  0  0  0
   -5.5601   -0.2116    0.0000 H   0  0  0  0  0  0  0  0  0  0  0  0
   -5.8197   -1.2496    0.0000 H   0  0  0  0  0  0  0  0  0  0  0  0
  2  1  2  0  0  0  0
  2  3  1  0  0  0  0
  3 49  1  0  0  0  0
  3 50  1  0  0  0  0
  3 51  1  0  0  0  0
  4  2  1  0  0  0  0
  5  4  1  0  0  0  0
  5 52  1  6  0  0  0
  6  5  1  0  0  0  0
  6 53  1  0  0  0  0
  6 54  1  0  0  0  0
  7  6  1  0  0  0  0
  7  8  1  6  0  0  0
  7  9  1  0  0  0  0
  8 55  1  0  0  0  0
  9 56  1  0  0  0  0
  9 57  1  0  0  0  0
  9 58  1  0  0  0  0
 10  7  1  0  0  0  0
 10 11  1  0  0  0  0
 11 12  1  0  0  0  0
 11 13  1  0  0  0  0
 11 14  1  0  0  0  0
 12 59  1  0  0  0  0
 12 60  1  0  0  0  0
 12 61  1  0  0  0  0
 13 62  1  0  0  0  0
 13 63  1  0  0  0  0
 13 64  1  0  0  0  0
 14  5  1  0  0  0  0
 14 65  1  0  0  0  0
 14 66  1  0  0  0  0
 15 10  2  0  0  0  0
 16 15  2  0  0  0  0
 16 17  1  0  0  0  0
 16 67  1  0  0  0  0
 17 18  1  0  0  0  0
 18 68  1  0  0  0  0
 18 69  1  0  0  0  0
 18 70  1  0  0  0  0
 19 17  2  0  0  0  0
 19 71  1  0  0  0  0
 20 19  1  0  0  0  0
 20 72  1  0  0  0  0
 21 20  2  0  0  0  0
 21 73  1  0  0  0  0
 22 21  1  0  0  0  0
 22 23  1  0  0  0  0
 23 74  1  0  0  0  0
 23 75  1  0  0  0  0
 23 76  1  0  0  0  0
 24 22  2  0  0  0  0
 24 77  1  0  0  0  0
 25 24  1  0  0  0  0
 25 78  1  0  0  0  0
 26 25  2  0  0  0  0
 26 79  1  0  0  0  0
 27 26  1  0  0  0  0
 27 80  1  0  0  0  0
 28 27  2  0  0  0  0
 28 29  1  0  0  0  0
 29 81  1  0  0  0  0
 29 82  1  0  0  0  0
 29 83  1  0  0  0  0
 30 28  1  0  0  0  0
 30 84  1  0  0  0  0
 31 30  2  0  0  0  0
 31 85  1  0  0  0  0
 32 31  1  0  0  0  0
 32 86  1  0  0  0  0
 33 32  2  0  0  0  0
 33 34  1  0  0  0  0
 34 87  1  0  0  0  0
 34 88  1  0  0  0  0
 34 89  1  0  0  0  0
 35 33  1  0  0  0  0
 35 36  2  0  0  0  0
 37 35  1  0  0  0  0
 37 90  1  0  0  0  0
 37 91  1  0  0  0  0
 38 37  1  1  0  0  0
 38 39  1  0  0  0  0
 38 47  1  0  0  0  0
 38 46  1  0  0  0  0
 39 40  1  0  0  0  0
 39 41  1  0  0  0  0
 39 42  1  0  0  0  0
 40 92  1  0  0  0  0
 40 93  1  0  0  0  0
 40 94  1  0  0  0  0
 41 95  1  0  0  0  0
 41 96  1  0  0  0  0
 41 97  1  0  0  0  0
 42 43  1  0  0  0  0
 42 98  1  0  0  0  0
 42 99  1  0  0  0  0
 43 44  1  0  0  0  0
 43100  1  6  0  0  0
 44101  1  0  0  0  0
 45 43  1  0  0  0  0
 45102  1  0  0  0  0
 45103  1  0  0  0  0
 46 45  1  0  0  0  0
 46 47  1  0  0  0  0
 46 48  1  1  0  0  0
 48104  1  0  0  0  0
 48105  1  0  0  0  0
 48106  1  0  0  0  0
M  END
>  <DRUGBANK_ID>
DB15462

>  <COMMON_NAME>
Fucoxanthin

>  <CAS_NUMBER>
3351-86-8

>  <UNII>
06O0TC0VSM

$$$$
