
 OpenBabel10282417072D

 75 77  0  0  1  0  0  0  0  0999 V2000
    5.3485  -12.3100    0.0000 C   0  0  0  0  0  0  0  0  0  0  0  0
    5.3485  -13.9599    0.0000 C   0  0  0  0  0  0  0  0  0  0  0  0
    6.8476  -13.8024    0.0000 C   0  0  0  0  0  0  0  0  0  0  0  0
    7.3325  -13.1350    0.0000 C   0  0  0  0  0  0  0  0  0  0  0  0
    4.6340  -12.7225    0.0000 C   0  0  0  0  0  0  0  0  0  0  0  0
    5.3485  -14.7849    0.0000 C   0  0  0  0  0  0  0  0  0  0  0  0
    4.6340  -13.5475    0.0000 C   0  0  0  0  0  0  0  0  0  0  0  0
    4.6340  -15.1974    0.0000 C   0  0  0  0  0  0  0  0  0  0  0  0
    4.6340  -16.0224    0.0000 C   0  0  0  0  0  0  0  0  0  0  0  0
    5.3485  -16.4349    0.0000 C   0  0  0  0  0  0  0  0  0  0  0  0
    3.9197  -16.4349    0.0000 C   0  0  2  0  0  0  0  0  0  0  0  0
    5.3485  -17.2599    0.0000 C   0  0  2  0  0  0  0  0  0  0  0  0
    3.9197  -17.2599    0.0000 C   0  0  0  0  0  0  0  0  0  0  0  0
    4.6340  -17.6724    0.0000 C   0  0  0  0  0  0  0  0  0  0  0  0
    6.1331  -11.2300    0.0000 C   0  0  0  0  0  0  0  0  0  0  0  0
    6.8476  -11.6425    0.0000 C   0  0  2  0  0  0  0  0  0  0  0  0
    7.5620  -11.2300    0.0000 C   0  0  0  0  0  0  0  0  0  0  0  0
    8.2764  -11.6425    0.0000 C   0  0  0  0  0  0  0  0  0  0  0  0
   10.4199  -11.2300    0.0000 C   0  0  0  0  0  0  0  0  0  0  0  0
    9.7054  -11.6425    0.0000 C   0  0  0  0  0  0  0  0  0  0  0  0
    9.7054  -12.4675    0.0000 C   0  0  0  0  0  0  0  0  0  0  0  0
    8.9909  -11.2300    0.0000 C   0  0  1  0  0  0  0  0  0  0  0  0
    6.8476  -12.4675    0.0000 C   0  0  2  0  0  0  0  0  0  0  0  0
    6.0630  -13.5475    0.0000 C   0  0  2  0  0  0  0  0  0  0  0  0
    6.0630  -12.7225    0.0000 C   0  0  2  0  0  0  0  0  0  0  0  0
    6.0630  -11.8975    0.0000 C   0  0  0  0  0  0  0  0  0  0  0  0
    8.9909  -10.4050    0.0000 C   0  0  0  0  0  0  0  0  0  0  0  0
    7.6437  -12.0570    0.0000 H   0  0  0  0  0  0  0  0  0  0  0  0
    3.2051  -16.0224    0.0000 C   0  0  0  0  0  0  0  0  0  0  0  0
    6.0630  -17.6724    0.0000 O   0  0  0  0  0  0  0  0  0  0  0  0
    6.0630  -14.3725    0.0000 H   0  0  0  0  0  0  0  0  0  0  0  0
    5.3485  -11.2400    0.0000 H   0  0  0  0  0  0  0  0  0  0  0  0
    4.4219  -11.7750    0.0000 H   0  0  0  0  0  0  0  0  0  0  0  0
    7.1783  -14.8200    0.0000 H   0  0  0  0  0  0  0  0  0  0  0  0
    7.9044  -13.9698    0.0000 H   0  0  0  0  0  0  0  0  0  0  0  0
    8.4025  -13.1350    0.0000 H   0  0  0  0  0  0  0  0  0  0  0  0
    7.8183  -14.0884    0.0000 H   0  0  0  0  0  0  0  0  0  0  0  0
    3.7074  -12.1875    0.0000 H   0  0  0  0  0  0  0  0  0  0  0  0
    3.7074  -13.2575    0.0000 H   0  0  0  0  0  0  0  0  0  0  0  0
    6.2422  -15.3009    0.0000 H   0  0  0  0  0  0  0  0  0  0  0  0
    3.7074  -14.0826    0.0000 H   0  0  0  0  0  0  0  0  0  0  0  0
    3.7073  -13.0125    0.0000 H   0  0  0  0  0  0  0  0  0  0  0  0
    3.7403  -14.6814    0.0000 H   0  0  0  0  0  0  0  0  0  0  0  0
    6.2751  -15.8999    0.0000 H   0  0  0  0  0  0  0  0  0  0  0  0
    6.2751  -16.9699    0.0000 H   0  0  0  0  0  0  0  0  0  0  0  0
    3.9196  -15.3649    0.0000 H   0  0  0  0  0  0  0  0  0  0  0  0
    6.2751  -16.7249    0.0000 H   0  0  0  0  0  0  0  0  0  0  0  0
    2.9930  -17.7949    0.0000 H   0  0  0  0  0  0  0  0  0  0  0  0
    3.9196  -18.3299    0.0000 H   0  0  0  0  0  0  0  0  0  0  0  0
    4.6339  -18.7424    0.0000 H   0  0  0  0  0  0  0  0  0  0  0  0
    3.7073  -18.2073    0.0000 H   0  0  0  0  0  0  0  0  0  0  0  0
    6.1331  -10.1600    0.0000 H   0  0  0  0  0  0  0  0  0  0  0  0
    5.2065  -11.7650    0.0000 H   0  0  0  0  0  0  0  0  0  0  0  0
    5.2064  -10.6950    0.0000 H   0  0  0  0  0  0  0  0  0  0  0  0
    5.9210  -12.1775    0.0000 H   0  0  0  0  0  0  0  0  0  0  0  0
    7.5620  -10.1980    0.0000 H   0  0  0  0  0  0  0  0  0  0  0  0
    8.2764  -12.6745    0.0000 H   0  0  0  0  0  0  0  0  0  0  0  0
   11.3465  -11.7650    0.0000 H   0  0  0  0  0  0  0  0  0  0  0  0
   10.4199  -10.1600    0.0000 H   0  0  0  0  0  0  0  0  0  0  0  0
   11.3466  -10.6950    0.0000 H   0  0  0  0  0  0  0  0  0  0  0  0
   10.6320  -12.1775    0.0000 H   0  0  0  0  0  0  0  0  0  0  0  0
    8.7788  -13.0025    0.0000 H   0  0  0  0  0  0  0  0  0  0  0  0
   10.6320  -13.0025    0.0000 H   0  0  0  0  0  0  0  0  0  0  0  0
    9.7054  -13.5375    0.0000 H   0  0  0  0  0  0  0  0  0  0  0  0
    8.0643  -10.6950    0.0000 H   0  0  0  0  0  0  0  0  0  0  0  0
    6.9896  -11.3625    0.0000 H   0  0  0  0  0  0  0  0  0  0  0  0
    5.1364  -11.3625    0.0000 H   0  0  0  0  0  0  0  0  0  0  0  0
    6.0630  -10.8275    0.0000 H   0  0  0  0  0  0  0  0  0  0  0  0
    9.9175   -9.8700    0.0000 H   0  0  0  0  0  0  0  0  0  0  0  0
    8.0643   -9.8700    0.0000 H   0  0  0  0  0  0  0  0  0  0  0  0
    8.9909   -9.3350    0.0000 H   0  0  0  0  0  0  0  0  0  0  0  0
    3.2050  -14.9524    0.0000 H   0  0  0  0  0  0  0  0  0  0  0  0
    2.2785  -16.5575    0.0000 H   0  0  0  0  0  0  0  0  0  0  0  0
    2.2784  -15.4875    0.0000 H   0  0  0  0  0  0  0  0  0  0  0  0
    6.0630  -18.6424    0.0000 H   0  0  0  0  0  0  0  0  0  0  0  0
  1  5  1  0  0  0  0
  1 32  1  0  0  0  0
  1 33  1  0  0  0  0
  2  6  2  0  0  0  0
  2  7  1  0  0  0  0
  3  4  1  0  0  0  0
  3 34  1  0  0  0  0
  3 35  1  0  0  0  0
  4 36  1  0  0  0  0
  4 37  1  0  0  0  0
  5  7  1  0  0  0  0
  5 38  1  0  0  0  0
  5 39  1  0  0  0  0
  6  8  1  0  0  0  0
  6 40  1  0  0  0  0
  7 41  1  0  0  0  0
  7 42  1  0  0  0  0
  8  9  2  0  0  0  0
  8 43  1  0  0  0  0
  9 10  1  0  0  0  0
  9 11  1  0  0  0  0
 10 12  1  0  0  0  0
 10 44  1  0  0  0  0
 10 45  1  0  0  0  0
 11 13  1  0  0  0  0
 11 29  1  0  0  0  0
 11 46  1  1  0  0  0
 12 14  1  0  0  0  0
 12 30  1  0  0  0  0
 12 47  1  6  0  0  0
 13 14  1  0  0  0  0
 13 48  1  0  0  0  0
 13 49  1  0  0  0  0
 14 50  1  0  0  0  0
 14 51  1  0  0  0  0
 15 52  1  0  0  0  0
 15 53  1  0  0  0  0
 15 54  1  0  0  0  0
 16 15  1  0  0  0  0
 16 17  1  0  0  0  0
 16 55  1  1  0  0  0
 17 18  2  0  0  0  0
 17 56  1  0  0  0  0
 18 22  1  0  0  0  0
 18 57  1  0  0  0  0
 19 58  1  0  0  0  0
 19 59  1  0  0  0  0
 19 60  1  0  0  0  0
 20 19  1  0  0  0  0
 20 21  1  0  0  0  0
 20 61  1  0  0  0  0
 21 62  1  0  0  0  0
 21 63  1  0  0  0  0
 21 64  1  0  0  0  0
 22 20  1  0  0  0  0
 22 27  1  0  0  0  0
 22 65  1  1  0  0  0
 23  4  1  0  0  0  0
 23 16  1  0  0  0  0
 23 28  1  6  0  0  0
 24 25  1  0  0  0  0
 24  2  1  0  0  0  0
 24  3  1  0  0  0  0
 24 31  1  6  0  0  0
 25 23  1  0  0  0  0
 25  1  1  0  0  0  0
 25 26  1  1  0  0  0
 26 66  1  0  0  0  0
 26 67  1  0  0  0  0
 26 68  1  0  0  0  0
 27 69  1  0  0  0  0
 27 70  1  0  0  0  0
 27 71  1  0  0  0  0
 29 72  1  0  0  0  0
 29 73  1  0  0  0  0
 29 74  1  0  0  0  0
 30 75  1  0  0  0  0
M  END
>  <DRUGBANK_ID>
DB01070

>  <SECONDARY_ACCESSION_NUMBERS>
APRD00143

>  <COMMON_NAME>
Dihydrotachysterol

>  <CAS_NUMBER>
67-96-9

>  <UNII>
R5LM3H112R

>  <SYNONYMS>
Anti-tetany substance 10; Dihidrotaquisterol; Dihydrotachysterol; Dihydrotachysterolum

$$$$
