
 OpenBabel10282417072D

 65 69  0  0  1  0  0  0  0  0999 V2000
   -5.0013   -5.3625    0.0000 C   0  0  0  0  0  0  0  0  0  0  0  0
   -4.2868   -4.9500    0.0000 C   0  0  0  0  0  0  0  0  0  0  0  0
   -4.2868   -4.1250    0.0000 N   0  0  0  0  0  0  0  0  0  0  0  0
   -3.5724   -3.7125    0.0000 C   0  0  0  0  0  0  0  0  0  0  0  0
   -2.8579   -4.1250    0.0000 O   0  0  0  0  0  0  0  0  0  0  0  0
   -3.5724   -2.8875    0.0000 N   0  0  0  0  0  0  0  0  0  0  0  0
   -2.8579   -2.4750    0.0000 C   0  0  0  0  0  0  0  0  0  0  0  0
   -2.8579   -1.6500    0.0000 C   0  0  0  0  0  0  0  0  0  0  0  0
   -2.1434   -1.2375    0.0000 C   0  0  0  0  0  0  0  0  0  0  0  0
   -1.4289   -1.6500    0.0000 C   0  0  0  0  0  0  0  0  0  0  0  0
   -1.4289   -2.4750    0.0000 C   0  0  0  0  0  0  0  0  0  0  0  0
   -2.1434   -2.8875    0.0000 C   0  0  0  0  0  0  0  0  0  0  0  0
   -0.7145   -1.2375    0.0000 C   0  0  0  0  0  0  0  0  0  0  0  0
    0.0000   -1.6500    0.0000 N   0  0  0  0  0  0  0  0  0  0  0  0
    0.7145   -1.2375    0.0000 C   0  0  0  0  0  0  0  0  0  0  0  0
    0.7145   -0.4125    0.0000 C   0  0  0  0  0  0  0  0  0  0  0  0
    0.0000   -0.0000    0.0000 C   0  0  0  0  0  0  0  0  0  0  0  0
   -0.7145   -0.4125    0.0000 N   0  0  0  0  0  0  0  0  0  0  0  0
    0.0000    0.8250    0.0000 N   0  0  0  0  0  0  0  0  0  0  0  0
   -0.7145    1.2375    0.0000 C   0  0  0  0  0  0  0  0  0  0  0  0
   -0.7145    2.0625    0.0000 C   0  0  0  0  0  0  0  0  0  0  0  0
    0.0000    2.4750    0.0000 O   0  0  0  0  0  0  0  0  0  0  0  0
    0.7145    2.0625    0.0000 C   0  0  0  0  0  0  0  0  0  0  0  0
    0.7145    1.2375    0.0000 C   0  0  2  0  0  0  0  0  0  0  0  0
    1.4289    0.8250    0.0000 C   0  0  0  0  0  0  0  0  0  0  0  0
    1.4289   -0.0000    0.0000 C   0  0  0  0  0  0  0  0  0  0  0  0
    2.1434   -0.4125    0.0000 C   0  0  0  0  0  0  0  0  0  0  0  0
    2.1434   -1.2375    0.0000 N   0  0  3  0  0  0  0  0  0  0  0  0
    1.4289   -1.6500    0.0000 C   0  0  0  0  0  0  0  0  0  0  0  0
    2.8579   -1.6500    0.0000 C   0  0  0  0  0  0  0  0  0  0  0  0
    3.6548   -1.4365    0.0000 C   0  0  0  0  0  0  0  0  0  0  0  0
    3.8683   -2.2334    0.0000 O   0  0  0  0  0  0  0  0  0  0  0  0
    3.0714   -2.4469    0.0000 C   0  0  0  0  0  0  0  0  0  0  0  0
   -5.9279   -4.8275    0.0000 H   0  0  0  0  0  0  0  0  0  0  0  0
   -5.0013   -6.4325    0.0000 H   0  0  0  0  0  0  0  0  0  0  0  0
   -5.9280   -5.8975    0.0000 H   0  0  0  0  0  0  0  0  0  0  0  0
   -3.3602   -5.4850    0.0000 H   0  0  0  0  0  0  0  0  0  0  0  0
   -3.3602   -4.4150    0.0000 H   0  0  0  0  0  0  0  0  0  0  0  0
   -5.1394   -3.6328    0.0000 H   0  0  0  0  0  0  0  0  0  0  0  0
   -4.4250   -2.3952    0.0000 H   0  0  0  0  0  0  0  0  0  0  0  0
   -3.7516   -1.1340    0.0000 H   0  0  0  0  0  0  0  0  0  0  0  0
   -2.1434   -0.2055    0.0000 H   0  0  0  0  0  0  0  0  0  0  0  0
   -0.5352   -2.9910    0.0000 H   0  0  0  0  0  0  0  0  0  0  0  0
   -2.1434   -3.9195    0.0000 H   0  0  0  0  0  0  0  0  0  0  0  0
   -1.6411    0.7025    0.0000 H   0  0  0  0  0  0  0  0  0  0  0  0
   -1.6411    1.7725    0.0000 H   0  0  0  0  0  0  0  0  0  0  0  0
   -1.6411    2.5975    0.0000 H   0  0  0  0  0  0  0  0  0  0  0  0
   -0.7145    3.1325    0.0000 H   0  0  0  0  0  0  0  0  0  0  0  0
    1.6411    2.5975    0.0000 H   0  0  0  0  0  0  0  0  0  0  0  0
    1.6411    1.5275    0.0000 H   0  0  0  0  0  0  0  0  0  0  0  0
    1.6412    1.7725    0.0000 H   0  0  0  0  0  0  0  0  0  0  0  0
    1.4289   -0.2450    0.0000 H   0  0  0  0  0  0  0  0  0  0  0  0
    2.3556    1.3600    0.0000 H   0  0  0  0  0  0  0  0  0  0  0  0
    2.3555    0.2900    0.0000 H   0  0  0  0  0  0  0  0  0  0  0  0
    1.4289    1.0700    0.0000 H   0  0  0  0  0  0  0  0  0  0  0  0
    2.3555    0.5350    0.0000 H   0  0  0  0  0  0  0  0  0  0  0  0
    3.0700    0.1225    0.0000 H   0  0  0  0  0  0  0  0  0  0  0  0
    3.0700   -0.9475    0.0000 H   0  0  0  0  0  0  0  0  0  0  0  0
    1.4289   -2.7200    0.0000 H   0  0  0  0  0  0  0  0  0  0  0  0
    0.5022   -2.1850    0.0000 H   0  0  0  0  0  0  0  0  0  0  0  0
    3.7845   -2.1850    0.0000 H   0  0  0  0  0  0  0  0  0  0  0  0
    4.1898   -0.5099    0.0000 H   0  0  0  0  0  0  0  0  0  0  0  0
    4.7156   -1.5762    0.0000 H   0  0  0  0  0  0  0  0  0  0  0  0
    2.5364   -3.3735    0.0000 H   0  0  0  0  0  0  0  0  0  0  0  0
    2.0106   -2.3072    0.0000 H   0  0  0  0  0  0  0  0  0  0  0  0
  1  2  1  0  0  0  0
  1 34  1  0  0  0  0
  1 35  1  0  0  0  0
  1 36  1  0  0  0  0
  2  3  1  0  0  0  0
  2 37  1  0  0  0  0
  2 38  1  0  0  0  0
  3  4  1  0  0  0  0
  3 39  1  0  0  0  0
  4  5  2  0  0  0  0
  4  6  1  0  0  0  0
  6  7  1  0  0  0  0
  6 40  1  0  0  0  0
  7  8  2  0  0  0  0
  7 12  1  0  0  0  0
  8  9  1  0  0  0  0
  8 41  1  0  0  0  0
  9 10  2  0  0  0  0
  9 42  1  0  0  0  0
 10 11  1  0  0  0  0
 10 13  1  0  0  0  0
 11 12  2  0  0  0  0
 11 43  1  0  0  0  0
 12 44  1  0  0  0  0
 13 14  2  0  0  0  0
 13 18  1  0  0  0  0
 14 15  1  0  0  0  0
 15 16  2  0  0  0  0
 15 29  1  0  0  0  0
 16 17  1  0  0  0  0
 16 26  1  0  0  0  0
 17 18  2  0  0  0  0
 17 19  1  0  0  0  0
 19 20  1  0  0  0  0
 19 24  1  0  0  0  0
 20 21  1  0  0  0  0
 20 45  1  0  0  0  0
 20 46  1  0  0  0  0
 21 22  1  0  0  0  0
 21 47  1  0  0  0  0
 21 48  1  0  0  0  0
 22 23  1  0  0  0  0
 23 24  1  0  0  0  0
 23 49  1  0  0  0  0
 23 50  1  0  0  0  0
 24 25  1  0  0  0  0
 24 51  1  1  0  0  0
 25 52  1  0  0  0  0
 25 53  1  0  0  0  0
 25 54  1  0  0  0  0
 26 27  1  0  0  0  0
 26 55  1  0  0  0  0
 26 56  1  0  0  0  0
 27 28  1  0  0  0  0
 27 57  1  0  0  0  0
 27 58  1  0  0  0  0
 28 29  1  0  0  0  0
 28 30  1  0  0  0  0
 29 59  1  0  0  0  0
 29 60  1  0  0  0  0
 30 31  1  0  0  0  0
 30 33  1  0  0  0  0
 30 61  1  0  0  0  0
 31 32  1  0  0  0  0
 31 62  1  0  0  0  0
 31 63  1  0  0  0  0
 32 33  1  0  0  0  0
 33 64  1  0  0  0  0
 33 65  1  0  0  0  0
M  END
>  <DRUGBANK_ID>
DB13072

>  <COMMON_NAME>
GDC-0349

>  <CAS_NUMBER>
1207360-89-1

>  <UNII>
579255I6O9

$$$$
