
 OpenBabel10282417072D

 73 75  0  0  0  0  0  0  0  0999 V2000
    0.7144    0.4125    0.0000 O   0  0  0  0  0  0  0  0  0  0  0  0
   -1.4289   -4.1250    0.0000 O   0  0  0  0  0  0  0  0  0  0  0  0
    2.1434   -0.4125    0.0000 O   0  0  0  0  0  0  0  0  0  0  0  0
    1.4290   -1.6500    0.0000 O   0  0  0  0  0  0  0  0  0  0  0  0
   -0.7144    0.4125    0.0000 N   0  0  0  0  0  0  0  0  0  0  0  0
   -0.7144   -0.4125    0.0000 C   0  0  1  0  0  0  0  0  0  0  0  0
    0.0000   -0.8250    0.0000 C   0  0  0  0  0  0  0  0  0  0  0  0
   -1.4289   -0.8250    0.0000 C   0  0  0  0  0  0  0  0  0  0  0  0
    0.7144    2.8875    0.0000 C   0  0  0  0  0  0  0  0  0  0  0  0
    0.7144    2.0625    0.0000 C   0  0  0  0  0  0  0  0  0  0  0  0
    1.4290    3.3000    0.0000 C   0  0  0  0  0  0  0  0  0  0  0  0
    0.0000    1.6500    0.0000 C   0  0  0  0  0  0  0  0  0  0  0  0
    1.4290    4.1250    0.0000 C   0  0  0  0  0  0  0  0  0  0  0  0
    0.0000    0.8250    0.0000 C   0  0  0  0  0  0  0  0  0  0  0  0
    0.7144   -0.4125    0.0000 C   0  0  0  0  0  0  0  0  0  0  0  0
   -1.4289   -1.6500    0.0000 C   0  0  0  0  0  0  0  0  0  0  0  0
    2.1434    4.5375    0.0000 C   0  0  0  0  0  0  0  0  0  0  0  0
   -0.7144   -2.0625    0.0000 C   0  0  0  0  0  0  0  0  0  0  0  0
   -2.1434   -2.0625    0.0000 C   0  0  0  0  0  0  0  0  0  0  0  0
    2.1434    5.3626    0.0000 C   0  0  0  0  0  0  0  0  0  0  0  0
    1.4290   -0.8250    0.0000 C   0  0  0  0  0  0  0  0  0  0  0  0
   -0.7144   -2.8875    0.0000 C   0  0  0  0  0  0  0  0  0  0  0  0
   -2.1434   -2.8875    0.0000 C   0  0  0  0  0  0  0  0  0  0  0  0
   -1.4289   -3.3000    0.0000 C   0  0  0  0  0  0  0  0  0  0  0  0
    1.4290    5.7751    0.0000 C   0  0  0  0  0  0  0  0  0  0  0  0
    2.8579    5.7751    0.0000 C   0  0  0  0  0  0  0  0  0  0  0  0
    1.4290    6.6001    0.0000 C   0  0  0  0  0  0  0  0  0  0  0  0
    2.8579    6.6001    0.0000 C   0  0  0  0  0  0  0  0  0  0  0  0
    2.1434    7.0126    0.0000 C   0  0  0  0  0  0  0  0  0  0  0  0
   -2.1434   -4.5375    0.0000 C   0  0  0  0  0  0  0  0  0  0  0  0
   -2.1434   -5.3626    0.0000 C   0  0  0  0  0  0  0  0  0  0  0  0
   -1.4289   -5.7751    0.0000 C   0  0  0  0  0  0  0  0  0  0  0  0
   -2.8579   -5.7751    0.0000 C   0  0  0  0  0  0  0  0  0  0  0  0
   -1.4289   -6.6001    0.0000 C   0  0  0  0  0  0  0  0  0  0  0  0
   -2.8579   -6.6001    0.0000 C   0  0  0  0  0  0  0  0  0  0  0  0
   -2.1434   -7.0126    0.0000 C   0  0  0  0  0  0  0  0  0  0  0  0
   -1.1575    0.6682    0.0000 H   0  0  0  0  0  0  0  0  0  0  0  0
    2.9549   -0.8810    0.0000 H   0  0  0  0  0  0  0  0  0  0  0  0
    0.2123    0.1225    0.0000 H   0  0  0  0  0  0  0  0  0  0  0  0
    0.0000   -1.8950    0.0000 H   0  0  0  0  0  0  0  0  0  0  0  0
    0.9267   -1.3600    0.0000 H   0  0  0  0  0  0  0  0  0  0  0  0
   -2.3555   -0.2900    0.0000 H   0  0  0  0  0  0  0  0  0  0  0  0
   -2.3555   -1.3600    0.0000 H   0  0  0  0  0  0  0  0  0  0  0  0
   -0.2122    3.4225    0.0000 H   0  0  0  0  0  0  0  0  0  0  0  0
    0.7145    3.9575    0.0000 H   0  0  0  0  0  0  0  0  0  0  0  0
    1.6411    1.5275    0.0000 H   0  0  0  0  0  0  0  0  0  0  0  0
    0.7144    0.9925    0.0000 H   0  0  0  0  0  0  0  0  0  0  0  0
    2.3556    2.7650    0.0000 H   0  0  0  0  0  0  0  0  0  0  0  0
    2.3557    3.8350    0.0000 H   0  0  0  0  0  0  0  0  0  0  0  0
   -0.9267    2.1850    0.0000 H   0  0  0  0  0  0  0  0  0  0  0  0
   -0.9266    1.1150    0.0000 H   0  0  0  0  0  0  0  0  0  0  0  0
    0.5023    4.6600    0.0000 H   0  0  0  0  0  0  0  0  0  0  0  0
    1.4290    5.1950    0.0000 H   0  0  0  0  0  0  0  0  0  0  0  0
    0.7143    0.6575    0.0000 H   0  0  0  0  0  0  0  0  0  0  0  0
    1.6410    0.1226    0.0000 H   0  0  0  0  0  0  0  0  0  0  0  0
    3.0701    4.0025    0.0000 H   0  0  0  0  0  0  0  0  0  0  0  0
    3.0700    5.0725    0.0000 H   0  0  0  0  0  0  0  0  0  0  0  0
    0.1793   -1.5465    0.0000 H   0  0  0  0  0  0  0  0  0  0  0  0
   -3.0371   -1.5465    0.0000 H   0  0  0  0  0  0  0  0  0  0  0  0
    0.1793   -3.4035    0.0000 H   0  0  0  0  0  0  0  0  0  0  0  0
   -3.0371   -3.4035    0.0000 H   0  0  0  0  0  0  0  0  0  0  0  0
    0.5353    5.2591    0.0000 H   0  0  0  0  0  0  0  0  0  0  0  0
    3.7516    5.2591    0.0000 H   0  0  0  0  0  0  0  0  0  0  0  0
    0.5353    7.1161    0.0000 H   0  0  0  0  0  0  0  0  0  0  0  0
    3.7516    7.1161    0.0000 H   0  0  0  0  0  0  0  0  0  0  0  0
    2.1434    8.0446    0.0000 H   0  0  0  0  0  0  0  0  0  0  0  0
   -3.0700   -4.0025    0.0000 H   0  0  0  0  0  0  0  0  0  0  0  0
   -3.0700   -5.0725    0.0000 H   0  0  0  0  0  0  0  0  0  0  0  0
   -0.5352   -5.2591    0.0000 H   0  0  0  0  0  0  0  0  0  0  0  0
   -3.7516   -5.2591    0.0000 H   0  0  0  0  0  0  0  0  0  0  0  0
   -0.5352   -7.1161    0.0000 H   0  0  0  0  0  0  0  0  0  0  0  0
   -3.7516   -7.1161    0.0000 H   0  0  0  0  0  0  0  0  0  0  0  0
   -2.1434   -8.0446    0.0000 H   0  0  0  0  0  0  0  0  0  0  0  0
  1 14  2  0  0  0  0
  2 24  1  0  0  0  0
  2 30  1  0  0  0  0
  3 21  1  0  0  0  0
  3 38  1  0  0  0  0
  4 21  2  0  0  0  0
  5 14  1  0  0  0  0
  5 37  1  0  0  0  0
  6  5  1  0  0  0  0
  6  7  1  0  0  0  0
  6  8  1  0  0  0  0
  6 39  1  6  0  0  0
  7 15  1  0  0  0  0
  7 40  1  0  0  0  0
  7 41  1  0  0  0  0
  8 16  1  0  0  0  0
  8 42  1  0  0  0  0
  8 43  1  0  0  0  0
  9 10  1  0  0  0  0
  9 11  1  0  0  0  0
  9 44  1  0  0  0  0
  9 45  1  0  0  0  0
 10 12  1  0  0  0  0
 10 46  1  0  0  0  0
 10 47  1  0  0  0  0
 11 13  1  0  0  0  0
 11 48  1  0  0  0  0
 11 49  1  0  0  0  0
 12 14  1  0  0  0  0
 12 50  1  0  0  0  0
 12 51  1  0  0  0  0
 13 17  1  0  0  0  0
 13 52  1  0  0  0  0
 13 53  1  0  0  0  0
 15 21  1  0  0  0  0
 15 54  1  0  0  0  0
 15 55  1  0  0  0  0
 16 18  2  0  0  0  0
 16 19  1  0  0  0  0
 17 20  1  0  0  0  0
 17 56  1  0  0  0  0
 17 57  1  0  0  0  0
 18 22  1  0  0  0  0
 18 58  1  0  0  0  0
 19 23  2  0  0  0  0
 19 59  1  0  0  0  0
 20 25  2  0  0  0  0
 20 26  1  0  0  0  0
 22 24  2  0  0  0  0
 22 60  1  0  0  0  0
 23 24  1  0  0  0  0
 23 61  1  0  0  0  0
 25 27  1  0  0  0  0
 25 62  1  0  0  0  0
 26 28  2  0  0  0  0
 26 63  1  0  0  0  0
 27 29  2  0  0  0  0
 27 64  1  0  0  0  0
 28 29  1  0  0  0  0
 28 65  1  0  0  0  0
 29 66  1  0  0  0  0
 30 31  1  0  0  0  0
 30 67  1  0  0  0  0
 30 68  1  0  0  0  0
 31 32  2  0  0  0  0
 31 33  1  0  0  0  0
 32 34  1  0  0  0  0
 32 69  1  0  0  0  0
 33 35  2  0  0  0  0
 33 70  1  0  0  0  0
 34 36  2  0  0  0  0
 34 71  1  0  0  0  0
 35 36  1  0  0  0  0
 35 72  1  0  0  0  0
 36 73  1  0  0  0  0
M  END
>  <DRUGBANK_ID>
DB04287

>  <SECONDARY_ACCESSION_NUMBERS>
EXPT00701

>  <COMMON_NAME>
KH064

>  <CAS_NUMBER>
393569-31-8

>  <SYNONYMS>
(S)-5-(4-Benzyloxy-phenyl)-4-(7-phenyl-heptanoylamino)-pentanoic acid; 5-(4-Benzyloxyphenyl)-4S-(7-phenylheptanoylamino)pentanoic acid

$$$$
