342
 OpenBabel10282417072D

 51 55  0  0  0  0  0  0  0  0999 V2000
   -1.4638   -2.6062    0.0000 C   0  0  0  0  0  0  0  0  0  0  0  0
   -2.1783   -3.0187    0.0000 C   0  0  0  0  0  0  0  0  0  0  0  0
   -2.9629   -2.7638    0.0000 O   0  0  0  0  0  0  0  0  0  0  0  0
   -3.4478   -3.4312    0.0000 C   0  0  0  0  0  0  0  0  0  0  0  0
   -2.9629   -4.0987    0.0000 O   0  0  0  0  0  0  0  0  0  0  0  0
   -2.1783   -3.8437    0.0000 C   0  0  0  0  0  0  0  0  0  0  0  0
   -1.4638   -4.2562    0.0000 C   0  0  0  0  0  0  0  0  0  0  0  0
   -0.7494   -3.8437    0.0000 C   0  0  0  0  0  0  0  0  0  0  0  0
   -0.7494   -3.0187    0.0000 C   0  0  0  0  0  0  0  0  0  0  0  0
   -0.0349   -2.6062    0.0000 C   0  0  0  0  0  0  0  0  0  0  0  0
   -0.0349   -1.7812    0.0000 N   0  0  0  0  0  0  0  0  0  0  0  0
    0.6796   -1.3687    0.0000 C   0  0  0  0  0  0  0  0  0  0  0  0
   -0.7494   -1.3687    0.0000 C   0  0  0  0  0  0  0  0  0  0  0  0
   -0.7494   -0.5437    0.0000 C   0  0  0  0  0  0  0  0  0  0  0  0
   -0.0349   -0.1312    0.0000 C   0  0  0  0  0  0  0  0  0  0  0  0
    0.6796   -0.5437    0.0000 C   0  0  2  0  0  0  0  0  0  0  0  0
    1.3941   -0.1312    0.0000 O   0  0  0  0  0  0  0  0  0  0  0  0
    2.1085   -0.5437    0.0000 C   0  0  0  0  0  0  0  0  0  0  0  0
    2.8230   -0.1312    0.0000 C   0  0  0  0  0  0  0  0  0  0  0  0
    3.5375   -0.5437    0.0000 C   0  0  0  0  0  0  0  0  0  0  0  0
    2.1085   -1.3687    0.0000 C   0  0  0  0  0  0  0  0  0  0  0  0
    2.8230   -1.7812    0.0000 C   0  0  0  0  0  0  0  0  0  0  0  0
    3.5375   -1.3687    0.0000 C   0  0  0  0  0  0  0  0  0  0  0  0
    4.2519   -1.7812    0.0000 N   0  0  0  0  0  0  0  0  0  0  0  0
    5.0056   -1.4457    0.0000 C   0  0  0  0  0  0  0  0  0  0  0  0
    5.5576   -2.0588    0.0000 C   0  0  0  0  0  0  0  0  0  0  0  0
    5.1451   -2.7732    0.0000 N   0  0  0  0  0  0  0  0  0  0  0  0
    4.3382   -2.6017    0.0000 C   0  0  0  0  0  0  0  0  0  0  0  0
    1.1853   -0.8357    0.0000 H   0  0  0  0  0  0  0  0  0  0  0  0
   -1.4638   -1.5742    0.0000 H   0  0  0  0  0  0  0  0  0  0  0  0
   -4.5178   -3.4312    0.0000 H   0  0  0  0  0  0  0  0  0  0  0  0
   -3.9336   -4.3846    0.0000 H   0  0  0  0  0  0  0  0  0  0  0  0
   -1.4638   -5.2882    0.0000 H   0  0  0  0  0  0  0  0  0  0  0  0
    0.1443   -4.3597    0.0000 H   0  0  0  0  0  0  0  0  0  0  0  0
    0.8917   -3.1412    0.0000 H   0  0  0  0  0  0  0  0  0  0  0  0
    0.8917   -2.0712    0.0000 H   0  0  0  0  0  0  0  0  0  0  0  0
    1.6062   -1.9037    0.0000 H   0  0  0  0  0  0  0  0  0  0  0  0
    1.6062   -0.8337    0.0000 H   0  0  0  0  0  0  0  0  0  0  0  0
   -1.6760   -1.9037    0.0000 H   0  0  0  0  0  0  0  0  0  0  0  0
   -1.6760   -0.8337    0.0000 H   0  0  0  0  0  0  0  0  0  0  0  0
   -1.6760   -0.0087    0.0000 H   0  0  0  0  0  0  0  0  0  0  0  0
   -0.7494    0.5263    0.0000 H   0  0  0  0  0  0  0  0  0  0  0  0
   -0.0349    0.9388    0.0000 H   0  0  0  0  0  0  0  0  0  0  0  0
    0.8917    0.4038    0.0000 H   0  0  0  0  0  0  0  0  0  0  0  0
    2.8230    0.9008    0.0000 H   0  0  0  0  0  0  0  0  0  0  0  0
    4.4312   -0.0277    0.0000 H   0  0  0  0  0  0  0  0  0  0  0  0
    1.2148   -1.8847    0.0000 H   0  0  0  0  0  0  0  0  0  0  0  0
    2.8230   -2.8132    0.0000 H   0  0  0  0  0  0  0  0  0  0  0  0
    5.2202   -0.4363    0.0000 H   0  0  0  0  0  0  0  0  0  0  0  0
    6.5840   -1.9510    0.0000 H   0  0  0  0  0  0  0  0  0  0  0  0
    3.5713   -3.2923    0.0000 H   0  0  0  0  0  0  0  0  0  0  0  0
  1  9  2  0  0  0  0
  1  2  1  0  0  0  0
  1 30  1  0  0  0  0
  2  3  1  0  0  0  0
  2  6  2  0  0  0  0
  3  4  1  0  0  0  0
  4  5  1  0  0  0  0
  4 31  1  0  0  0  0
  4 32  1  0  0  0  0
  5  6  1  0  0  0  0
  6  7  1  0  0  0  0
  7  8  2  0  0  0  0
  7 33  1  0  0  0  0
  8  9  1  0  0  0  0
  8 34  1  0  0  0  0
  9 10  1  0  0  0  0
 10 11  1  0  0  0  0
 10 35  1  0  0  0  0
 10 36  1  0  0  0  0
 11 13  1  0  0  0  0
 11 12  1  0  0  0  0
 12 16  1  0  0  0  0
 12 37  1  0  0  0  0
 12 38  1  0  0  0  0
 13 14  1  0  0  0  0
 13 39  1  0  0  0  0
 13 40  1  0  0  0  0
 14 15  1  0  0  0  0
 14 41  1  0  0  0  0
 14 42  1  0  0  0  0
 15 16  1  0  0  0  0
 15 43  1  0  0  0  0
 15 44  1  0  0  0  0
 16 17  1  0  0  0  0
 16 29  1  1  0  0  0
 17 18  1  0  0  0  0
 18 19  2  0  0  0  0
 18 21  1  0  0  0  0
 19 20  1  0  0  0  0
 19 45  1  0  0  0  0
 20 23  2  0  0  0  0
 20 46  1  0  0  0  0
 21 22  2  0  0  0  0
 21 47  1  0  0  0  0
 22 23  1  0  0  0  0
 22 48  1  0  0  0  0
 23 24  1  0  0  0  0
 24 25  1  0  0  0  0
 24 28  1  0  0  0  0
 25 26  2  0  0  0  0
 25 49  1  0  0  0  0
 26 27  1  0  0  0  0
 26 50  1  0  0  0  0
 27 28  2  0  0  0  0
 28 51  1  0  0  0  0
M  END
>  <DRUGBANK_ID>
DB07011

>  <COMMON_NAME>
(3S)-1-(1,3-BENZODIOXOL-5-YLMETHYL)-3-[4-(1H-IMIDAZOL-1-YL)PHENOXY]PIPERIDINE

$$$$
