
 OpenBabel10282417072D

 24 23  0  0  1  0  0  0  0  0999 V2000
    3.9039    1.4289    0.0000 C   0  0  0  0  0  0  0  0  0  0  0  0
    1.7605    1.8414    0.0000 C   0  0  0  0  0  0  0  0  0  0  0  0
    3.1895    1.8414    0.0000 C   0  0  2  0  0  0  0  0  0  0  0  0
    4.6184    1.8414    0.0000 C   0  0  1  0  0  0  0  0  0  0  0  0
    2.4750    1.4289    0.0000 C   0  0  2  0  0  0  0  0  0  0  0  0
    5.3329    1.4289    0.0000 C   0  0  0  0  0  0  0  0  0  0  0  0
    1.0461    1.4289    0.0000 O   0  0  0  0  0  0  0  0  0  0  0  0
    3.1895    2.6664    0.0000 O   0  0  0  0  0  0  0  0  0  0  0  0
    4.6184    2.6664    0.0000 O   0  0  0  0  0  0  0  0  0  0  0  0
    2.4750    0.6039    0.0000 O   0  0  0  0  0  0  0  0  0  0  0  0
    6.0474    1.8414    0.0000 O   0  0  0  0  0  0  0  0  0  0  0  0
    5.3329    0.6039    0.0000 O   0  0  0  0  0  0  0  0  0  0  0  0
    3.1895    1.0164    0.0000 H   0  0  0  0  0  0  0  0  0  0  0  0
    4.6184    1.0164    0.0000 H   0  0  0  0  0  0  0  0  0  0  0  0
    2.4750    2.2539    0.0000 H   0  0  0  0  0  0  0  0  0  0  0  0
    3.9039    0.3589    0.0000 H   0  0  0  0  0  0  0  0  0  0  0  0
    4.8305    0.8939    0.0000 H   0  0  0  0  0  0  0  0  0  0  0  0
    1.7605    2.9114    0.0000 H   0  0  0  0  0  0  0  0  0  0  0  0
    0.8338    2.3764    0.0000 H   0  0  0  0  0  0  0  0  0  0  0  0
    0.2060    1.9139    0.0000 H   0  0  0  0  0  0  0  0  0  0  0  0
    4.0295    3.1514    0.0000 H   0  0  0  0  0  0  0  0  0  0  0  0
    5.4584    3.1514    0.0000 H   0  0  0  0  0  0  0  0  0  0  0  0
    1.6350    0.1189    0.0000 H   0  0  0  0  0  0  0  0  0  0  0  0
    4.5214    0.1354    0.0000 H   0  0  0  0  0  0  0  0  0  0  0  0
  1 16  1  0  0  0  0
  1 17  1  0  0  0  0
  2 18  1  0  0  0  0
  2 19  1  0  0  0  0
  3  1  1  0  0  0  0
  3  8  1  0  0  0  0
  3 13  1  1  0  0  0
  4  1  1  0  0  0  0
  4  9  1  0  0  0  0
  4 14  1  1  0  0  0
  5  2  1  0  0  0  0
  5  3  1  0  0  0  0
  5 10  1  0  0  0  0
  5 15  1  1  0  0  0
  6  4  1  0  0  0  0
  7  2  1  0  0  0  0
  7 20  1  0  0  0  0
  8 21  1  0  0  0  0
  9 22  1  0  0  0  0
 10 23  1  0  0  0  0
 11  6  2  0  0  0  0
 12  6  1  0  0  0  0
 12 24  1  0  0  0  0
M  END
>  <DRUGBANK_ID>
DB02807

>  <SECONDARY_ACCESSION_NUMBERS>
EXPT02819

>  <COMMON_NAME>
3-deoxy-D-lyxo-hexonic acid

>  <SYNONYMS>
D-2-keto-3-deoxygalactonate

$$$$
