
 OpenBabel10282417072D

 77 82  0  0  0  0  0  0  0  0999 V2000
   -1.4534   -0.6979    0.0000 C   0  0  0  0  0  0  0  0  0  0  0  0
   -0.6284   -0.6979    0.0000 C   0  0  0  0  0  0  0  0  0  0  0  0
   -0.1435   -1.3654    0.0000 N   0  0  0  0  0  0  0  0  0  0  0  0
    0.6411   -1.1104    0.0000 C   0  0  0  0  0  0  0  0  0  0  0  0
    0.6411   -0.2854    0.0000 C   0  0  0  0  0  0  0  0  0  0  0  0
   -0.1435   -0.0305    0.0000 N   0  0  0  0  0  0  0  0  0  0  0  0
    1.3556    0.1271    0.0000 C   0  0  0  0  0  0  0  0  0  0  0  0
    2.0701   -0.2854    0.0000 N   0  0  0  0  0  0  0  0  0  0  0  0
    2.0701   -1.1104    0.0000 C   0  0  0  0  0  0  0  0  0  0  0  0
    1.3556   -1.5229    0.0000 C   0  0  0  0  0  0  0  0  0  0  0  0
   -0.3984   -2.1500    0.0000 C   0  0  0  0  0  0  0  0  0  0  0  0
   -1.2054   -2.3215    0.0000 C   0  0  1  0  0  0  0  0  0  0  0  0
   -1.4604   -3.1062    0.0000 C   0  0  0  0  0  0  0  0  0  0  0  0
   -2.2673   -3.2777    0.0000 C   0  0  0  0  0  0  0  0  0  0  0  0
   -2.8194   -2.6646    0.0000 N   0  0  0  0  0  0  0  0  0  0  0  0
   -2.5644   -1.8800    0.0000 C   0  0  0  0  0  0  0  0  0  0  0  0
   -1.7575   -1.7084    0.0000 C   0  0  0  0  0  0  0  0  0  0  0  0
   -3.6263   -2.8361    0.0000 C   0  0  0  0  0  0  0  0  0  0  0  0
   -4.1784   -2.2230    0.0000 O   0  0  0  0  0  0  0  0  0  0  0  0
   -3.8813   -3.6207    0.0000 C   0  0  0  0  0  0  0  0  0  0  0  0
   -4.6882   -3.7923    0.0000 C   0  0  0  0  0  0  0  0  0  0  0  0
   -5.2403   -3.1792    0.0000 C   0  0  0  0  0  0  0  0  0  0  0  0
   -6.0472   -3.3507    0.0000 C   0  0  0  0  0  0  0  0  0  0  0  0
   -6.5993   -2.7376    0.0000 C   0  0  0  0  0  0  0  0  0  0  0  0
   -6.3443   -1.9530    0.0000 C   0  0  0  0  0  0  0  0  0  0  0  0
   -5.5374   -1.7814    0.0000 C   0  0  0  0  0  0  0  0  0  0  0  0
   -4.9853   -2.3945    0.0000 C   0  0  0  0  0  0  0  0  0  0  0  0
   -6.8964   -1.3399    0.0000 N   0  0  0  0  0  0  0  0  0  0  0  0
   -7.7033   -1.5114    0.0000 N   0  0  0  0  0  0  0  0  0  0  0  0
   -8.2554   -0.8983    0.0000 C   0  0  0  0  0  0  0  0  0  0  0  0
   -9.0624   -1.0698    0.0000 C   0  0  0  0  0  0  0  0  0  0  0  0
   -9.6144   -0.4567    0.0000 C   0  0  0  0  0  0  0  0  0  0  0  0
   -9.3594    0.3279    0.0000 C   0  0  0  0  0  0  0  0  0  0  0  0
   -8.5525    0.4994    0.0000 C   0  0  0  0  0  0  0  0  0  0  0  0
   -8.0004   -0.1137    0.0000 C   0  0  0  0  0  0  0  0  0  0  0  0
   -9.9115    0.9410    0.0000 O   0  0  0  0  0  0  0  0  0  0  0  0
  -10.4214   -0.6283    0.0000 C   0  0  0  0  0  0  0  0  0  0  0  0
  -10.9734   -0.0152    0.0000 O   0  0  0  0  0  0  0  0  0  0  0  0
  -10.6763   -1.4129    0.0000 O   0  0  0  0  0  0  0  0  0  0  0  0
   -4.9432   -4.5769    0.0000 C   0  0  0  0  0  0  0  0  0  0  0  0
   -4.3912   -5.1900    0.0000 C   0  0  0  0  0  0  0  0  0  0  0  0
   -4.6461   -5.9746    0.0000 C   0  0  0  0  0  0  0  0  0  0  0  0
   -5.4531   -6.1461    0.0000 C   0  0  0  0  0  0  0  0  0  0  0  0
   -6.0051   -5.5330    0.0000 C   0  0  0  0  0  0  0  0  0  0  0  0
   -5.7502   -4.7484    0.0000 C   0  0  0  0  0  0  0  0  0  0  0  0
   -1.9884    0.2287    0.0000 H   0  0  0  0  0  0  0  0  0  0  0  0
   -1.9884   -1.6245    0.0000 H   0  0  0  0  0  0  0  0  0  0  0  0
   -2.5234   -0.6979    0.0000 H   0  0  0  0  0  0  0  0  0  0  0  0
    1.3556    1.1591    0.0000 H   0  0  0  0  0  0  0  0  0  0  0  0
    2.9638   -1.6264    0.0000 H   0  0  0  0  0  0  0  0  0  0  0  0
    1.3556   -2.5549    0.0000 H   0  0  0  0  0  0  0  0  0  0  0  0
    0.3176   -2.9452    0.0000 H   0  0  0  0  0  0  0  0  0  0  0  0
   -0.7291   -3.1676    0.0000 H   0  0  0  0  0  0  0  0  0  0  0  0
   -0.4895   -3.1167    0.0000 H   0  0  0  0  0  0  0  0  0  0  0  0
   -0.7445   -3.9014    0.0000 H   0  0  0  0  0  0  0  0  0  0  0  0
   -1.7911   -4.1238    0.0000 H   0  0  0  0  0  0  0  0  0  0  0  0
   -2.5979   -4.2953    0.0000 H   0  0  0  0  0  0  0  0  0  0  0  0
   -3.3139   -3.5002    0.0000 H   0  0  0  0  0  0  0  0  0  0  0  0
   -3.2804   -1.0848    0.0000 H   0  0  0  0  0  0  0  0  0  0  0  0
   -2.2338   -0.8624    0.0000 H   0  0  0  0  0  0  0  0  0  0  0  0
   -1.4269   -0.6907    0.0000 H   0  0  0  0  0  0  0  0  0  0  0  0
   -0.7109   -1.4859    0.0000 H   0  0  0  0  0  0  0  0  0  0  0  0
   -3.1907   -4.3876    0.0000 H   0  0  0  0  0  0  0  0  0  0  0  0
   -6.3661   -4.3322    0.0000 H   0  0  0  0  0  0  0  0  0  0  0  0
   -7.6088   -2.9522    0.0000 H   0  0  0  0  0  0  0  0  0  0  0  0
   -5.2186   -0.7999    0.0000 H   0  0  0  0  0  0  0  0  0  0  0  0
   -3.9759   -2.1799    0.0000 H   0  0  0  0  0  0  0  0  0  0  0  0
   -9.3813   -2.0513    0.0000 H   0  0  0  0  0  0  0  0  0  0  0  0
   -8.2336    1.4809    0.0000 H   0  0  0  0  0  0  0  0  0  0  0  0
   -6.9909    0.1009    0.0000 H   0  0  0  0  0  0  0  0  0  0  0  0
   -9.6220    1.8322    0.0000 H   0  0  0  0  0  0  0  0  0  0  0  0
  -11.5928   -1.6077    0.0000 H   0  0  0  0  0  0  0  0  0  0  0  0
   -3.3818   -4.9754    0.0000 H   0  0  0  0  0  0  0  0  0  0  0  0
   -3.9556   -6.7415    0.0000 H   0  0  0  0  0  0  0  0  0  0  0  0
   -5.7720   -7.1276    0.0000 H   0  0  0  0  0  0  0  0  0  0  0  0
   -7.0145   -5.7476    0.0000 H   0  0  0  0  0  0  0  0  0  0  0  0
   -6.4407   -3.9815    0.0000 H   0  0  0  0  0  0  0  0  0  0  0  0
  1  2  1  0  0  0  0
  1 46  1  0  0  0  0
  1 47  1  0  0  0  0
  1 48  1  0  0  0  0
  2  3  1  0  0  0  0
  2  6  2  0  0  0  0
  3  4  1  0  0  0  0
  3 11  1  0  0  0  0
  4  5  1  0  0  0  0
  4 10  2  0  0  0  0
  5  6  1  0  0  0  0
  5  7  2  0  0  0  0
  7  8  1  0  0  0  0
  7 49  1  0  0  0  0
  8  9  2  0  0  0  0
  9 10  1  0  0  0  0
  9 50  1  0  0  0  0
 10 51  1  0  0  0  0
 11 52  1  0  0  0  0
 11 53  1  0  0  0  0
 12 11  1  0  0  0  0
 12 13  1  0  0  0  0
 12 17  1  0  0  0  0
 12 54  1  6  0  0  0
 13 14  1  0  0  0  0
 13 55  1  0  0  0  0
 13 56  1  0  0  0  0
 14 15  1  0  0  0  0
 14 57  1  0  0  0  0
 14 58  1  0  0  0  0
 15 16  1  0  0  0  0
 15 18  1  0  0  0  0
 16 17  1  0  0  0  0
 16 59  1  0  0  0  0
 16 60  1  0  0  0  0
 17 61  1  0  0  0  0
 17 62  1  0  0  0  0
 18 19  2  0  0  0  0
 18 20  1  0  0  0  0
 20 21  2  0  0  0  0
 20 63  1  0  0  0  0
 21 22  1  0  0  0  0
 21 40  1  0  0  0  0
 22 23  2  0  0  0  0
 22 27  1  0  0  0  0
 23 24  1  0  0  0  0
 23 64  1  0  0  0  0
 24 25  2  0  0  0  0
 24 65  1  0  0  0  0
 25 26  1  0  0  0  0
 25 28  1  0  0  0  0
 26 27  2  0  0  0  0
 26 66  1  0  0  0  0
 27 67  1  0  0  0  0
 28 29  2  0  0  0  0
 29 30  1  0  0  0  0
 30 31  2  0  0  0  0
 30 35  1  0  0  0  0
 31 32  1  0  0  0  0
 31 68  1  0  0  0  0
 32 33  2  0  0  0  0
 32 37  1  0  0  0  0
 33 34  1  0  0  0  0
 33 36  1  0  0  0  0
 34 35  2  0  0  0  0
 34 69  1  0  0  0  0
 35 70  1  0  0  0  0
 36 71  1  0  0  0  0
 37 38  2  0  0  0  0
 37 39  1  0  0  0  0
 39 72  1  0  0  0  0
 40 41  2  0  0  0  0
 40 45  1  0  0  0  0
 41 42  1  0  0  0  0
 41 73  1  0  0  0  0
 42 43  2  0  0  0  0
 42 74  1  0  0  0  0
 43 44  1  0  0  0  0
 43 75  1  0  0  0  0
 44 45  2  0  0  0  0
 44 76  1  0  0  0  0
 45 77  1  0  0  0  0
M  END
>  <DRUGBANK_ID>
DB06251

>  <COMMON_NAME>
Dersalazine

>  <CAS_NUMBER>
188913-58-8

>  <UNII>
WS1IH75AJT

>  <SYNONYMS>
Dersalazine

$$$$
