
 OpenBabel10282417072D

 37 39  0  0  0  0  0  0  0  0999 V2000
   -1.0717    2.4752    0.0000 C   0  0  0  0  0  0  0  0  0  0  0  0
   -1.7862    1.2375    0.0000 C   0  0  0  0  0  0  0  0  0  0  0  0
   -1.0717    0.8250    0.0000 C   0  0  0  0  0  0  0  0  0  0  0  0
   -0.3572    2.0627    0.0000 C   0  0  0  0  0  0  0  0  0  0  0  0
   -0.3572    1.2375    0.0000 C   0  0  0  0  0  0  0  0  0  0  0  0
    0.3572    2.4752    0.0000 C   0  0  0  0  0  0  0  0  0  0  0  0
    1.0717    1.2375    0.0000 C   0  0  0  0  0  0  0  0  0  0  0  0
    1.0717    2.0627    0.0000 C   0  0  0  0  0  0  0  0  0  0  0  0
   -1.7862    2.0627    0.0000 N   0  0  0  0  0  0  0  0  0  0  0  0
    0.3572    0.8250    0.0000 C   0  0  0  0  0  0  0  0  0  0  0  0
    1.1823    0.0000    0.0000 O   0  0  0  0  0  0  0  0  0  0  0  0
   -0.4677    0.0000    0.0000 O   0  0  0  0  0  0  0  0  0  0  0  0
    0.3572    0.0000    0.0000 S   0  0  0  0  0  0  0  0  0  0  0  0
   -0.3572   -1.2376    0.0000 C   0  0  0  0  0  0  0  0  0  0  0  0
   -0.3572   -2.0627    0.0000 C   0  0  0  0  0  0  0  0  0  0  0  0
    1.0717   -2.0627    0.0000 C   0  0  0  0  0  0  0  0  0  0  0  0
    0.3572   -0.8251    0.0000 N   0  0  0  0  0  0  0  0  0  0  0  0
    0.3572   -2.4752    0.0000 N   0  0  0  0  0  0  0  0  0  0  0  0
    1.0717   -1.2376    0.0000 C   0  0  3  0  0  0  0  0  0  0  0  0
    1.7862   -0.8251    0.0000 C   0  0  0  0  0  0  0  0  0  0  0  0
   -1.0717    3.5072    0.0000 H   0  0  0  0  0  0  0  0  0  0  0  0
   -2.6799    0.7215    0.0000 H   0  0  0  0  0  0  0  0  0  0  0  0
   -1.0717   -0.2070    0.0000 H   0  0  0  0  0  0  0  0  0  0  0  0
    0.3572    3.5072    0.0000 H   0  0  0  0  0  0  0  0  0  0  0  0
    1.9654    0.7215    0.0000 H   0  0  0  0  0  0  0  0  0  0  0  0
    1.9654    2.5787    0.0000 H   0  0  0  0  0  0  0  0  0  0  0  0
   -1.2839   -0.7026    0.0000 H   0  0  0  0  0  0  0  0  0  0  0  0
   -1.2838   -1.7726    0.0000 H   0  0  0  0  0  0  0  0  0  0  0  0
   -1.2839   -2.5977    0.0000 H   0  0  0  0  0  0  0  0  0  0  0  0
   -0.3572   -3.1327    0.0000 H   0  0  0  0  0  0  0  0  0  0  0  0
    1.9983   -2.5977    0.0000 H   0  0  0  0  0  0  0  0  0  0  0  0
    1.9983   -1.5277    0.0000 H   0  0  0  0  0  0  0  0  0  0  0  0
    0.3572   -3.4952    0.0000 H   0  0  0  0  0  0  0  0  0  0  0  0
    0.1451   -1.7726    0.0000 H   0  0  0  0  0  0  0  0  0  0  0  0
    2.7128   -1.3601    0.0000 H   0  0  0  0  0  0  0  0  0  0  0  0
    1.7862    0.2449    0.0000 H   0  0  0  0  0  0  0  0  0  0  0  0
    2.7129   -0.2901    0.0000 H   0  0  0  0  0  0  0  0  0  0  0  0
  1  9  2  0  0  0  0
  1  4  1  0  0  0  0
  1 21  1  0  0  0  0
  2  3  2  0  0  0  0
  2 22  1  0  0  0  0
  3  5  1  0  0  0  0
  3 23  1  0  0  0  0
  5  4  1  0  0  0  0
  5 10  2  0  0  0  0
  6  4  2  0  0  0  0
  6  8  1  0  0  0  0
  6 24  1  0  0  0  0
  7  8  2  0  0  0  0
  7 25  1  0  0  0  0
  8 26  1  0  0  0  0
  9  2  1  0  0  0  0
 10  7  1  0  0  0  0
 10 13  1  0  0  0  0
 13 11  2  0  0  0  0
 13 12  2  0  0  0  0
 13 17  1  0  0  0  0
 14 15  1  0  0  0  0
 14 27  1  0  0  0  0
 14 28  1  0  0  0  0
 15 18  1  0  0  0  0
 15 29  1  0  0  0  0
 15 30  1  0  0  0  0
 16 19  1  0  0  0  0
 16 31  1  0  0  0  0
 16 32  1  0  0  0  0
 17 14  1  0  0  0  0
 17 19  1  0  0  0  0
 18 16  1  0  0  0  0
 18 33  1  0  0  0  0
 19 20  1  0  0  0  0
 19 34  1  0  0  0  0
 20 35  1  0  0  0  0
 20 36  1  0  0  0  0
 20 37  1  0  0  0  0
M  END
>  <DRUGBANK_ID>
DB07996

>  <COMMON_NAME>
5-(2-methylpiperazine-1-sulfonyl)isoquinoline

>  <CAS_NUMBER>
84477-87-2

>  <UNII>
487H9Q0F9N

>  <SYNONYMS>
1-(5-Isoquinolinesulfonyl)-2-methylpiperazine; 1-(5-Isoquinolinylsulfonyl)-2-methylpiperazine

$$$$
