
 OpenBabel10282417072D

 30 31  0  0  0  0  0  0  0  0999 V2000
    0.9157    2.3138    0.0000 P   0  0  0  0  0  0  0  0  0  0  0  0
    0.5363   -0.5593    0.0000 O   0  0  0  0  0  0  0  0  0  0  0  0
   -1.5831   -0.8142    0.0000 O   0  0  0  0  0  0  0  0  0  0  0  0
   -1.0285    0.8927    0.0000 O   0  0  0  0  0  0  0  0  0  0  0  0
    0.4308    1.6463    0.0000 O   0  0  0  0  0  0  0  0  0  0  0  0
    1.3209   -1.2743    0.0000 O   0  0  0  0  0  0  0  0  0  0  0  0
   -1.0285   -2.9812    0.0000 O   0  0  0  0  0  0  0  0  0  0  0  0
    1.4006    2.9812    0.0000 O   0  0  0  0  0  0  0  0  0  0  0  0
    0.2482    2.7987    0.0000 O   0  0  0  0  0  0  0  0  0  0  0  0
    1.5831    1.8288    0.0000 O   0  0  0  0  0  0  0  0  0  0  0  0
   -0.7985   -1.5292    0.0000 N   0  0  0  0  0  0  0  0  0  0  0  0
    0.2814   -2.3138    0.0000 N   0  0  0  0  0  0  0  0  0  0  0  0
   -0.1310   -1.0442    0.0000 C   0  0  1  0  0  0  0  0  0  0  0  0
   -0.7985   -0.5593    0.0000 C   0  0  1  0  0  0  0  0  0  0  0  0
   -0.5435    0.2253    0.0000 C   0  0  1  0  0  0  0  0  0  0  0  0
    0.2814    0.2253    0.0000 C   0  0  1  0  0  0  0  0  0  0  0  0
    0.5363   -1.5292    0.0000 C   0  0  0  0  0  0  0  0  0  0  0  0
    0.7663    0.8927    0.0000 C   0  0  0  0  0  0  0  0  0  0  0  0
   -0.5435   -2.3138    0.0000 C   0  0  0  0  0  0  0  0  0  0  0  0
   -1.2849   -1.3711    0.0000 H   0  0  0  0  0  0  0  0  0  0  0  0
    0.5821   -2.7276    0.0000 H   0  0  0  0  0  0  0  0  0  0  0  0
   -2.3039   -0.1651    0.0000 H   0  0  0  0  0  0  0  0  0  0  0  0
   -0.6341    1.7789    0.0000 H   0  0  0  0  0  0  0  0  0  0  0  0
    2.3653    2.8798    0.0000 H   0  0  0  0  0  0  0  0  0  0  0  0
    0.3495    3.7634    0.0000 H   0  0  0  0  0  0  0  0  0  0  0  0
   -0.9659   -1.6161    0.0000 H   0  0  0  0  0  0  0  0  0  0  0  0
   -1.6003    0.0579    0.0000 H   0  0  0  0  0  0  0  0  0  0  0  0
    1.3382    0.0579    0.0000 H   0  0  0  0  0  0  0  0  0  0  0  0
    1.8304    0.7808    0.0000 H   0  0  0  0  0  0  0  0  0  0  0  0
    1.2015   -0.0848    0.0000 H   0  0  0  0  0  0  0  0  0  0  0  0
  1  5  1  0  0  0  0
  1  8  1  0  0  0  0
  1  9  1  0  0  0  0
  1 10  2  0  0  0  0
  2 16  1  0  0  0  0
  3 22  1  0  0  0  0
  4 23  1  0  0  0  0
  5 18  1  0  0  0  0
  6 17  2  0  0  0  0
  7 19  2  0  0  0  0
  8 24  1  0  0  0  0
  9 25  1  0  0  0  0
 11 13  1  0  0  0  0
 11 19  1  0  0  0  0
 11 20  1  0  0  0  0
 12 17  1  0  0  0  0
 12 19  1  0  0  0  0
 12 21  1  0  0  0  0
 13  2  1  1  0  0  0
 13 14  1  0  0  0  0
 13 17  1  0  0  0  0
 14  3  1  0  0  0  0
 14 15  1  0  0  0  0
 14 26  1  1  0  0  0
 15  4  1  0  0  0  0
 15 16  1  0  0  0  0
 15 27  1  1  0  0  0
 16 18  1  0  0  0  0
 16 28  1  6  0  0  0
 18 29  1  0  0  0  0
 18 30  1  0  0  0  0
M  END
>  <DRUGBANK_ID>
DB02493

>  <SECONDARY_ACCESSION_NUMBERS>
EXPT01683; DB02150

>  <COMMON_NAME>
Hydantocidin-5'-phosphate

>  <SYNONYMS>
[(5S,7R,8S,9R)-8,9-dihydroxy-2,4-dioxo-6-oxa-1,3-diazaspiro[4.4]non-7-yl]methyl dihydrogen phosphate; Phosphohydantocidin

$$$$
