
 OpenBabel10282417072D

 18 17  0  0  1  0  0  0  0  0999 V2000
   -0.2211   -1.4289    0.0000 C   0  0  0  0  0  0  0  0  0  0  0  0
   -0.9355   -1.0164    0.0000 C   0  0  1  0  0  0  0  0  0  0  0  0
   -1.6500   -1.4289    0.0000 C   0  0  0  0  0  0  0  0  0  0  0  0
    1.2079   -1.4289    0.0000 As  0  0  0  0  0  0  0  0  0  0  0  0
   -0.9355   -0.1914    0.0000 N   0  0  0  0  0  0  0  0  0  0  0  0
   -2.3645   -1.0164    0.0000 O   0  0  0  0  0  0  0  0  0  0  0  0
   -1.6500   -2.2539    0.0000 O   0  0  0  0  0  0  0  0  0  0  0  0
    1.9224   -1.0164    0.0000 O   0  0  0  0  0  0  0  0  0  0  0  0
    1.2079   -2.2539    0.0000 O   0  0  0  0  0  0  0  0  0  0  0  0
    0.4934   -1.0164    0.0000 S   0  0  0  0  0  0  0  0  0  0  0  0
   -0.9355   -1.8414    0.0000 H   0  0  0  0  0  0  0  0  0  0  0  0
   -0.2211   -2.4989    0.0000 H   0  0  0  0  0  0  0  0  0  0  0  0
    0.7055   -1.9639    0.0000 H   0  0  0  0  0  0  0  0  0  0  0  0
   -0.0522    0.3186    0.0000 H   0  0  0  0  0  0  0  0  0  0  0  0
   -1.8188    0.3186    0.0000 H   0  0  0  0  0  0  0  0  0  0  0  0
   -2.4615   -2.7224    0.0000 H   0  0  0  0  0  0  0  0  0  0  0  0
    2.7624   -1.5014    0.0000 H   0  0  0  0  0  0  0  0  0  0  0  0
    0.3679   -2.7389    0.0000 H   0  0  0  0  0  0  0  0  0  0  0  0
  1 12  1  0  0  0  0
  1 13  1  0  0  0  0
  2  1  1  0  0  0  0
  2  5  1  0  0  0  0
  2 11  1  6  0  0  0
  3  2  1  0  0  0  0
  5 14  1  0  0  0  0
  5 15  1  0  0  0  0
  6  3  2  0  0  0  0
  7  3  1  0  0  0  0
  7 16  1  0  0  0  0
  8  4  1  0  0  0  0
  8 17  1  0  0  0  0
  9  4  1  0  0  0  0
  9 18  1  0  0  0  0
 10  1  1  0  0  0  0
 10  4  1  0  0  0  0
M  END
>  <DRUGBANK_ID>
DB03289

>  <SECONDARY_ACCESSION_NUMBERS>
EXPT01083

>  <COMMON_NAME>
Thiarsa Dihydroxy Cysteine

$$$$
