
 OpenBabel10282417072D

 61 64  0  0  1  0  0  0  0  0999 V2000
    6.8513    4.9500    0.0000 C   0  0  0  0  0  0  0  0  0  0  0  0
    6.1368    4.5375    0.0000 C   0  0  0  0  0  0  0  0  0  0  0  0
    6.1368    3.7125    0.0000 O   0  0  0  0  0  0  0  0  0  0  0  0
    5.4223    3.3000    0.0000 C   0  0  1  0  0  0  0  0  0  0  0  0
    5.4223    2.4750    0.0000 C   0  0  0  0  0  0  0  0  0  0  0  0
    4.7079    2.0625    0.0000 C   0  0  0  0  0  0  0  0  0  0  0  0
    3.9934    2.4750    0.0000 N   0  0  0  0  0  0  0  0  0  0  0  0
    3.2789    2.0625    0.0000 C   0  0  0  0  0  0  0  0  0  0  0  0
    3.2789    1.2375    0.0000 C   0  0  0  0  0  0  0  0  0  0  0  0
    3.9934    0.8250    0.0000 C   0  0  0  0  0  0  0  0  0  0  0  0
    4.7079    1.2375    0.0000 O   0  0  0  0  0  0  0  0  0  0  0  0
    5.4223    0.8250    0.0000 C   0  0  0  0  0  0  0  0  0  0  0  0
    3.9934    0.0000    0.0000 C   0  0  0  0  0  0  0  0  0  0  0  0
    3.2789   -0.4125    0.0000 C   0  0  0  0  0  0  0  0  0  0  0  0
    3.2789   -1.2375    0.0000 C   0  0  0  0  0  0  0  0  0  0  0  0
    2.5645    0.0000    0.0000 C   0  0  0  0  0  0  0  0  0  0  0  0
    2.5645    0.8250    0.0000 C   0  0  0  0  0  0  0  0  0  0  0  0
    1.7798    1.0799    0.0000 C   0  0  0  0  0  0  0  0  0  0  0  0
    1.2949    0.4125    0.0000 C   0  0  0  0  0  0  0  0  0  0  0  0
    1.7798   -0.2549    0.0000 N   0  0  0  0  0  0  0  0  0  0  0  0
    3.9934    3.3000    0.0000 C   0  0  1  0  0  0  0  0  0  0  0  0
    4.7079    3.7125    0.0000 C   0  0  0  0  0  0  0  0  0  0  0  0
    3.2789    3.7125    0.0000 C   0  0  0  0  0  0  0  0  0  0  0  0
    2.5645    3.3000    0.0000 C   0  0  0  0  0  0  0  0  0  0  0  0
    1.8500    3.7125    0.0000 C   0  0  0  0  0  0  0  0  0  0  0  0
    1.8500    4.5375    0.0000 C   0  0  0  0  0  0  0  0  0  0  0  0
    2.5645    4.9500    0.0000 C   0  0  0  0  0  0  0  0  0  0  0  0
    3.2789    4.5375    0.0000 C   0  0  0  0  0  0  0  0  0  0  0  0
    1.1355    4.9500    0.0000 C   0  0  0  0  0  0  0  0  0  0  0  0
    0.4210    4.5375    0.0000 O   0  0  0  0  0  0  0  0  0  0  0  0
    1.1355    5.7750    0.0000 O   0  0  0  0  0  0  0  0  0  0  0  0
    7.7779    4.4150    0.0000 H   0  0  0  0  0  0  0  0  0  0  0  0
    6.8513    6.0200    0.0000 H   0  0  0  0  0  0  0  0  0  0  0  0
    7.7780    5.4850    0.0000 H   0  0  0  0  0  0  0  0  0  0  0  0
    5.2102    5.0725    0.0000 H   0  0  0  0  0  0  0  0  0  0  0  0
    5.2102    4.0025    0.0000 H   0  0  0  0  0  0  0  0  0  0  0  0
    6.3489    2.7650    0.0000 H   0  0  0  0  0  0  0  0  0  0  0  0
    6.3490    1.9400    0.0000 H   0  0  0  0  0  0  0  0  0  0  0  0
    5.4223    1.4050    0.0000 H   0  0  0  0  0  0  0  0  0  0  0  0
    4.7079    0.9925    0.0000 H   0  0  0  0  0  0  0  0  0  0  0  0
    3.7813    1.5275    0.0000 H   0  0  0  0  0  0  0  0  0  0  0  0
    2.3523    2.5975    0.0000 H   0  0  0  0  0  0  0  0  0  0  0  0
    2.3523    1.5275    0.0000 H   0  0  0  0  0  0  0  0  0  0  0  0
    5.4223   -0.2450    0.0000 H   0  0  0  0  0  0  0  0  0  0  0  0
    6.3490    1.3600    0.0000 H   0  0  0  0  0  0  0  0  0  0  0  0
    6.3489    0.2900    0.0000 H   0  0  0  0  0  0  0  0  0  0  0  0
    4.8871   -0.5160    0.0000 H   0  0  0  0  0  0  0  0  0  0  0  0
    2.3523   -1.7725    0.0000 H   0  0  0  0  0  0  0  0  0  0  0  0
    4.2055   -1.7725    0.0000 H   0  0  0  0  0  0  0  0  0  0  0  0
    3.2789   -2.3075    0.0000 H   0  0  0  0  0  0  0  0  0  0  0  0
    1.4609    2.0614    0.0000 H   0  0  0  0  0  0  0  0  0  0  0  0
    0.2629    0.4125    0.0000 H   0  0  0  0  0  0  0  0  0  0  0  0
    1.4755   -1.1912    0.0000 H   0  0  0  0  0  0  0  0  0  0  0  0
    3.0668    2.7650    0.0000 H   0  0  0  0  0  0  0  0  0  0  0  0
    4.7079    4.7825    0.0000 H   0  0  0  0  0  0  0  0  0  0  0  0
    5.6346    4.2475    0.0000 H   0  0  0  0  0  0  0  0  0  0  0  0
    2.5645    2.2680    0.0000 H   0  0  0  0  0  0  0  0  0  0  0  0
    0.9563    3.1965    0.0000 H   0  0  0  0  0  0  0  0  0  0  0  0
    2.5645    5.9820    0.0000 H   0  0  0  0  0  0  0  0  0  0  0  0
    4.1726    5.0535    0.0000 H   0  0  0  0  0  0  0  0  0  0  0  0
   -0.3905    5.0060    0.0000 H   0  0  0  0  0  0  0  0  0  0  0  0
  1  2  1  0  0  0  0
  1 32  1  0  0  0  0
  1 33  1  0  0  0  0
  1 34  1  0  0  0  0
  2  3  1  0  0  0  0
  2 35  1  0  0  0  0
  2 36  1  0  0  0  0
  4  3  1  0  0  0  0
  4  5  1  0  0  0  0
  4 22  1  0  0  0  0
  4 37  1  6  0  0  0
  5  6  1  0  0  0  0
  5 38  1  0  0  0  0
  5 39  1  0  0  0  0
  6  7  1  0  0  0  0
  6 40  1  0  0  0  0
  6 41  1  0  0  0  0
  7  8  1  0  0  0  0
  8  9  1  0  0  0  0
  8 42  1  0  0  0  0
  8 43  1  0  0  0  0
  9 10  2  0  0  0  0
  9 17  1  0  0  0  0
 10 11  1  0  0  0  0
 10 13  1  0  0  0  0
 11 12  1  0  0  0  0
 12 44  1  0  0  0  0
 12 45  1  0  0  0  0
 12 46  1  0  0  0  0
 13 14  2  0  0  0  0
 13 47  1  0  0  0  0
 14 15  1  0  0  0  0
 14 16  1  0  0  0  0
 15 48  1  0  0  0  0
 15 49  1  0  0  0  0
 15 50  1  0  0  0  0
 16 17  2  0  0  0  0
 16 20  1  0  0  0  0
 17 18  1  0  0  0  0
 18 19  2  0  0  0  0
 18 51  1  0  0  0  0
 19 20  1  0  0  0  0
 19 52  1  0  0  0  0
 20 53  1  0  0  0  0
 21  7  1  0  0  0  0
 21 22  1  0  0  0  0
 21 23  1  0  0  0  0
 21 54  1  1  0  0  0
 22 55  1  0  0  0  0
 22 56  1  0  0  0  0
 23 24  2  0  0  0  0
 23 28  1  0  0  0  0
 24 25  1  0  0  0  0
 24 57  1  0  0  0  0
 25 26  2  0  0  0  0
 25 58  1  0  0  0  0
 26 27  1  0  0  0  0
 26 29  1  0  0  0  0
 27 28  2  0  0  0  0
 27 59  1  0  0  0  0
 28 60  1  0  0  0  0
 29 30  1  0  0  0  0
 29 31  2  0  0  0  0
 30 61  1  0  0  0  0
M  END
>  <DRUGBANK_ID>
DB16200

>  <COMMON_NAME>
Iptacopan

>  <CAS_NUMBER>
1644670-37-0

>  <UNII>
8E05T07Z6W

>  <SYNONYMS>
4-((2S,4S)-4-ethoxy-1-((5-methoxy-7-methyl-1H-indol-4-yl)methyl)piperidin-2-yl) benzoic acid; BENZOIC ACID, 4-((2S,4S)-4-ETHOXY-1-((5-METHOXY-7-METHYL-1H-INDOL-4-YL)METHYL)-2-PIPERIDINYL)-; Iptacopan

$$$$
