
 OpenBabel10282417072D

 67 70  0  0  0  0  0  0  0  0999 V2000
    2.4732   -1.9017    0.0000 O   0  0  0  0  0  0  0  0  0  0  0  0
    3.2765   -1.7238    0.0000 C   0  0  0  0  0  0  0  0  0  0  0  0
    3.5239   -0.9365    0.0000 O   0  0  0  0  0  0  0  0  0  0  0  0
    2.9681   -0.3317    0.0000 C   0  0  2  0  0  0  0  0  0  0  0  0
    2.1636   -0.5149    0.0000 C   0  0  0  0  0  0  0  0  0  0  0  0
    1.6075    0.0985    0.0000 C   0  0  0  0  0  0  0  0  0  0  0  0
    1.8563    0.8868    0.0000 C   0  0  1  0  0  0  0  0  0  0  0  0
    1.3002    1.4958    0.0000 N   0  0  0  0  0  0  0  0  0  0  0  0
    0.5003    1.3190    0.0000 C   0  0  0  0  0  0  0  0  0  0  0  0
    0.2488    0.5302    0.0000 C   0  0  0  0  0  0  0  0  0  0  0  0
   -0.5605    0.3639    0.0000 C   0  0  0  0  0  0  0  0  0  0  0  0
   -0.8121   -0.4189    0.0000 N   0  0  0  0  0  0  0  0  0  0  0  0
   -1.5998   -0.6779    0.0000 C   0  0  0  0  0  0  0  0  0  0  0  0
   -2.3155   -0.2607    0.0000 C   0  0  0  0  0  0  0  0  0  0  0  0
   -3.0312   -0.6779    0.0000 C   0  0  0  0  0  0  0  0  0  0  0  0
   -3.3144    0.0968    0.0000 C   0  0  0  0  0  0  0  0  0  0  0  0
   -3.8369   -0.8210    0.0000 C   0  0  0  0  0  0  0  0  0  0  0  0
   -3.0312   -1.5036    0.0000 C   0  0  0  0  0  0  0  0  0  0  0  0
   -2.3155   -1.9118    0.0000 C   0  0  0  0  0  0  0  0  0  0  0  0
   -2.3155   -2.7342    0.0000 O   0  0  0  0  0  0  0  0  0  0  0  0
   -1.5998   -1.5054    0.0000 C   0  0  0  0  0  0  0  0  0  0  0  0
   -0.8121   -1.7600    0.0000 C   0  0  0  0  0  0  0  0  0  0  0  0
   -0.5606   -2.5432    0.0000 C   0  0  0  0  0  0  0  0  0  0  0  0
    0.2224   -2.2870    0.0000 F   0  0  0  0  0  0  0  0  0  0  0  0
   -1.3389   -2.7993    0.0000 F   0  0  0  0  0  0  0  0  0  0  0  0
   -0.3044   -3.3264    0.0000 F   0  0  0  0  0  0  0  0  0  0  0  0
   -0.3260   -1.0893    0.0000 N   0  0  0  0  0  0  0  0  0  0  0  0
   -1.1136    0.9763    0.0000 C   0  0  0  0  0  0  0  0  0  0  0  0
   -0.8619    1.7591    0.0000 C   0  0  0  0  0  0  0  0  0  0  0  0
   -0.0573    1.9312    0.0000 C   0  0  0  0  0  0  0  0  0  0  0  0
    0.1932    2.7160    0.0000 C   0  0  0  0  0  0  0  0  0  0  0  0
    0.9982    2.8907    0.0000 N   0  0  0  0  0  0  0  0  0  0  0  0
   -0.3613    3.3264    0.0000 O   0  0  0  0  0  0  0  0  0  0  0  0
    2.6612    1.0614    0.0000 C   0  0  0  0  0  0  0  0  0  0  0  0
    3.2170    0.4566    0.0000 C   0  0  0  0  0  0  0  0  0  0  0  0
    3.8369   -2.3285    0.0000 C   0  0  0  0  0  0  0  0  0  0  0  0
    3.5893   -3.1113    0.0000 N   0  0  0  0  0  0  0  0  0  0  0  0
    2.6500   -1.3533    0.0000 H   0  0  0  0  0  0  0  0  0  0  0  0
    1.8421   -1.5354    0.0000 H   0  0  0  0  0  0  0  0  0  0  0  0
    1.1184   -0.7438    0.0000 H   0  0  0  0  0  0  0  0  0  0  0  0
    0.5622   -0.1302    0.0000 H   0  0  0  0  0  0  0  0  0  0  0  0
    0.8858    0.8885    0.0000 H   0  0  0  0  0  0  0  0  0  0  0  0
    0.8114    0.6563    0.0000 H   0  0  0  0  0  0  0  0  0  0  0  0
    1.5974    2.4344    0.0000 H   0  0  0  0  0  0  0  0  0  0  0  0
    0.9389   -0.2372    0.0000 H   0  0  0  0  0  0  0  0  0  0  0  0
   -2.3155    0.8093    0.0000 H   0  0  0  0  0  0  0  0  0  0  0  0
   -3.2433    0.2724    0.0000 H   0  0  0  0  0  0  0  0  0  0  0  0
   -2.6278    0.9174    0.0000 H   0  0  0  0  0  0  0  0  0  0  0  0
   -4.3684    0.2811    0.0000 H   0  0  0  0  0  0  0  0  0  0  0  0
   -3.6818    1.1018    0.0000 H   0  0  0  0  0  0  0  0  0  0  0  0
   -4.5257   -0.0022    0.0000 H   0  0  0  0  0  0  0  0  0  0  0  0
   -4.2016   -1.8269    0.0000 H   0  0  0  0  0  0  0  0  0  0  0  0
   -4.8904   -1.0081    0.0000 H   0  0  0  0  0  0  0  0  0  0  0  0
   -3.9564   -2.0410    0.0000 H   0  0  0  0  0  0  0  0  0  0  0  0
   -3.0270   -2.5736    0.0000 H   0  0  0  0  0  0  0  0  0  0  0  0
   -2.1226    0.7594    0.0000 H   0  0  0  0  0  0  0  0  0  0  0  0
   -1.5541    2.5245    0.0000 H   0  0  0  0  0  0  0  0  0  0  0  0
    1.6601    2.1619    0.0000 H   0  0  0  0  0  0  0  0  0  0  0  0
    1.2984    3.8283    0.0000 H   0  0  0  0  0  0  0  0  0  0  0  0
    2.9845    2.0814    0.0000 H   0  0  0  0  0  0  0  0  0  0  0  0
    3.7059    1.2929    0.0000 H   0  0  0  0  0  0  0  0  0  0  0  0
    4.2615    0.6887    0.0000 H   0  0  0  0  0  0  0  0  0  0  0  0
    3.9399   -0.3322    0.0000 H   0  0  0  0  0  0  0  0  0  0  0  0
    4.8810   -2.0944    0.0000 H   0  0  0  0  0  0  0  0  0  0  0  0
    4.5604   -3.1169    0.0000 H   0  0  0  0  0  0  0  0  0  0  0  0
    2.5933   -3.3312    0.0000 H   0  0  0  0  0  0  0  0  0  0  0  0
    4.2777   -3.8640    0.0000 H   0  0  0  0  0  0  0  0  0  0  0  0
  2  1  2  0  0  0  0
  2  3  1  0  0  0  0
  2 36  1  0  0  0  0
  4  3  1  0  0  0  0
  4  5  1  0  0  0  0
  4 35  1  0  0  0  0
  4 38  1  1  0  0  0
  5 39  1  0  0  0  0
  5 40  1  0  0  0  0
  6  5  1  0  0  0  0
  6 41  1  0  0  0  0
  6 42  1  0  0  0  0
  7  6  1  0  0  0  0
  7  8  1  0  0  0  0
  7 43  1  6  0  0  0
  8 44  1  0  0  0  0
  9  8  1  0  0  0  0
  9 10  1  0  0  0  0
  9 30  2  0  0  0  0
 10 45  1  0  0  0  0
 11 10  2  0  0  0  0
 12 11  1  0  0  0  0
 12 27  1  0  0  0  0
 13 12  1  0  0  0  0
 13 14  1  0  0  0  0
 14 46  1  0  0  0  0
 14 47  1  0  0  0  0
 15 14  1  0  0  0  0
 16 15  1  0  0  0  0
 16 48  1  0  0  0  0
 16 49  1  0  0  0  0
 16 50  1  0  0  0  0
 17 15  1  0  0  0  0
 17 51  1  0  0  0  0
 17 52  1  0  0  0  0
 17 53  1  0  0  0  0
 18 15  1  0  0  0  0
 18 54  1  0  0  0  0
 18 55  1  0  0  0  0
 19 18  1  0  0  0  0
 20 19  2  0  0  0  0
 21 19  1  0  0  0  0
 21 22  1  0  0  0  0
 21 13  2  0  0  0  0
 23 22  1  0  0  0  0
 24 23  1  0  0  0  0
 25 23  1  0  0  0  0
 26 23  1  0  0  0  0
 27 22  2  0  0  0  0
 28 11  1  0  0  0  0
 28 56  1  0  0  0  0
 29 28  2  0  0  0  0
 29 57  1  0  0  0  0
 30 29  1  0  0  0  0
 31 30  1  0  0  0  0
 31 32  1  0  0  0  0
 31 33  2  0  0  0  0
 32 58  1  0  0  0  0
 32 59  1  0  0  0  0
 34  7  1  0  0  0  0
 34 60  1  0  0  0  0
 34 61  1  0  0  0  0
 35 34  1  0  0  0  0
 35 62  1  0  0  0  0
 35 63  1  0  0  0  0
 36 64  1  0  0  0  0
 36 65  1  0  0  0  0
 37 36  1  0  0  0  0
 37 66  1  0  0  0  0
 37 67  1  0  0  0  0
M  END
>  <DRUGBANK_ID>
DB06070

>  <COMMON_NAME>
SNX-5422

>  <CAS_NUMBER>
908115-27-5

>  <UNII>
BF52J69Q8T

$$$$
