
 OpenBabel10282417072D

 33 33  0  0  0  0  0  0  0  0999 V2000
    1.1270   -0.8444    0.0000 C   0  0  0  0  0  0  0  0  0  0  0  0
    0.7145   -0.1298    0.0000 C   0  0  2  0  0  0  0  0  0  0  0  0
    0.3019    0.5846    0.0000 C   0  0  0  0  0  0  0  0  0  0  0  0
    0.7145    1.2991    0.0000 N   0  0  0  0  0  0  0  0  0  0  0  0
    1.5350    1.3853    0.0000 C   0  0  0  0  0  0  0  0  0  0  0  0
    1.7064    2.1924    0.0000 C   0  0  0  0  0  0  0  0  0  0  0  0
    0.9920    2.6049    0.0000 N   0  0  0  0  0  0  0  0  0  0  0  0
    0.3789    2.0529    0.0000 N   0  0  0  0  0  0  0  0  0  0  0  0
    0.0000   -0.5423    0.0000 C   0  0  1  0  0  0  0  0  0  0  0  0
   -0.7145   -0.1298    0.0000 N   0  0  0  0  0  0  0  0  0  0  0  0
   -1.4289   -0.5423    0.0000 C   0  0  0  0  0  0  0  0  0  0  0  0
   -1.4289   -1.3673    0.0000 C   0  0  0  0  0  0  0  0  0  0  0  0
   -2.1435   -1.7798    0.0000 C   0  0  0  0  0  0  0  0  0  0  0  0
   -2.1435   -2.6049    0.0000 O   0  0  0  0  0  0  0  0  0  0  0  0
    0.0000   -1.3673    0.0000 C   0  0  0  0  0  0  0  0  0  0  0  0
    0.7145   -1.7798    0.0000 O   0  0  0  0  0  0  0  0  0  0  0  0
   -0.7145   -1.7798    0.0000 O   0  0  0  0  0  0  0  0  0  0  0  0
    1.4289    0.2826    0.0000 S   0  0  0  0  0  5  0  0  0  0  0  0
    1.5906    0.9311    0.0000 O   0  0  0  0  0  0  0  0  0  0  0  0
    2.1435   -0.1298    0.0000 O   0  0  0  0  0  0  0  0  0  0  0  0
    0.5919   -1.7710    0.0000 H   0  0  0  0  0  0  0  0  0  0  0  0
    2.1970   -0.8445    0.0000 H   0  0  0  0  0  0  0  0  0  0  0  0
    1.6619   -1.7711    0.0000 H   0  0  0  0  0  0  0  0  0  0  0  0
   -0.7681    0.5846    0.0000 H   0  0  0  0  0  0  0  0  0  0  0  0
   -0.2331    1.5113    0.0000 H   0  0  0  0  0  0  0  0  0  0  0  0
    2.2256    0.6184    0.0000 H   0  0  0  0  0  0  0  0  0  0  0  0
    2.6491    2.6122    0.0000 H   0  0  0  0  0  0  0  0  0  0  0  0
    0.0000    0.5277    0.0000 H   0  0  0  0  0  0  0  0  0  0  0  0
   -0.7145    0.8547    0.0000 H   0  0  0  0  0  0  0  0  0  0  0  0
   -2.3226   -0.0263    0.0000 H   0  0  0  0  0  0  0  0  0  0  0  0
   -0.5352   -1.8833    0.0000 H   0  0  0  0  0  0  0  0  0  0  0  0
   -3.0372   -1.2638    0.0000 H   0  0  0  0  0  0  0  0  0  0  0  0
   -1.5260   -1.3113    0.0000 H   0  0  0  0  0  0  0  0  0  0  0  0
  1 21  1  0  0  0  0
  1 22  1  0  0  0  0
  1 23  1  0  0  0  0
  2  1  1  1  0  0  0
  2  3  1  0  0  0  0
  2  9  1  0  0  0  0
  2 18  1  0  0  0  0
  3  4  1  0  0  0  0
  3 24  1  0  0  0  0
  3 25  1  0  0  0  0
  4  5  1  0  0  0  0
  5  6  2  0  0  0  0
  5 26  1  0  0  0  0
  6  7  1  0  0  0  0
  6 27  1  0  0  0  0
  7  8  2  0  0  0  0
  8  4  1  0  0  0  0
  9 10  1  0  0  0  0
  9 15  1  0  0  0  0
  9 28  1  1  0  0  0
 10 11  1  0  0  0  0
 10 29  1  0  0  0  0
 11 12  2  0  0  0  0
 11 30  1  0  0  0  0
 12 13  1  0  0  0  0
 12 31  1  0  0  0  0
 13 14  2  0  0  0  0
 13 32  1  0  0  0  0
 15 16  2  0  0  0  0
 15 17  1  0  0  0  0
 17 33  1  0  0  0  0
 18 19  2  0  0  0  0
 18 20  2  0  0  0  0
M  RAD  1  18   2
M  END
>  <DRUGBANK_ID>
DB03445

>  <SECONDARY_ACCESSION_NUMBERS>
EXPT03016

>  <COMMON_NAME>
Tazobactam trans-enamine intermediate

>  <SYNONYMS>
Tazobactam Trans-Enamine Intermediate

$$$$
