
 OpenBabel10282417072D

 49 53  0  0  1  0  0  0  0  0999 V2000
    5.9659    1.7986    0.0000 C   0  0  0  0  0  0  0  0  0  0  0  0
    6.2736    1.0332    0.0000 C   0  0  2  0  0  0  0  0  0  0  0  0
    7.0904    0.9170    0.0000 C   0  0  0  0  0  0  0  0  0  0  0  0
    7.4632    0.0948    0.0000 C   0  0  0  0  0  0  0  0  0  0  0  0
    8.2041   -0.2681    0.0000 C   0  0  0  0  0  0  0  0  0  0  0  0
    8.0879   -1.0849    0.0000 C   0  0  0  0  0  0  0  0  0  0  0  0
    8.7372   -1.5939    0.0000 C   0  0  0  0  0  0  0  0  0  0  0  0
    9.5026   -1.2862    0.0000 C   0  0  0  0  0  0  0  0  0  0  0  0
   10.1519   -1.7952    0.0000 F   0  0  0  0  0  0  0  0  0  0  0  0
    9.6188   -0.4694    0.0000 C   0  0  0  0  0  0  0  0  0  0  0  0
    8.9696    0.0396    0.0000 N   0  0  0  0  0  0  0  0  0  0  0  0
    7.2752   -1.2268    0.0000 C   0  0  1  0  0  0  0  0  0  0  0  0
    8.0370   -1.5436    0.0000 C   0  0  0  0  0  0  0  0  0  0  0  0
    7.9710   -2.3660    0.0000 C   0  0  0  0  0  0  0  0  0  0  0  0
    7.1685   -2.5574    0.0000 C   0  0  0  0  0  0  0  0  0  0  0  0
    6.7385   -1.8533    0.0000 N   0  0  0  0  0  0  0  0  0  0  0  0
    5.8711   -1.7962    0.0000 C   0  0  0  0  0  0  0  0  0  0  0  0
    5.5634   -1.0308    0.0000 N   0  0  0  0  0  0  0  0  0  0  0  0
    4.7466   -0.9146    0.0000 C   0  0  0  0  0  0  0  0  0  0  0  0
    4.4388   -0.1491    0.0000 C   0  0  0  0  0  0  0  0  0  0  0  0
    3.6008   -0.2804    0.0000 C   0  0  0  0  0  0  0  0  0  0  0  0
    3.5085   -1.1003    0.0000 N   0  0  0  0  0  0  0  0  0  0  0  0
    4.2597   -1.4413    0.0000 N   0  0  0  0  0  0  0  0  0  0  0  0
    4.5089   -2.2278    0.0000 C   0  0  0  0  0  0  0  0  0  0  0  0
    5.3146   -2.4052    0.0000 C   0  0  0  0  0  0  0  0  0  0  0  0
    4.9478    0.5001    0.0000 C   0  0  0  0  0  0  0  0  0  0  0  0
    4.6401    1.2656    0.0000 O   0  0  0  0  0  0  0  0  0  0  0  0
    5.7646    0.3839    0.0000 N   0  0  0  0  0  0  0  0  0  0  0  0
    6.6261    2.6406    0.0000 H   0  0  0  0  0  0  0  0  0  0  0  0
    4.9066    1.9494    0.0000 H   0  0  0  0  0  0  0  0  0  0  0  0
    5.5668    2.7914    0.0000 H   0  0  0  0  0  0  0  0  0  0  0  0
    6.9338    1.8752    0.0000 H   0  0  0  0  0  0  0  0  0  0  0  0
    7.7321    1.7732    0.0000 H   0  0  0  0  0  0  0  0  0  0  0  0
    8.1541    0.8009    0.0000 H   0  0  0  0  0  0  0  0  0  0  0  0
    6.6954   -0.6505    0.0000 H   0  0  0  0  0  0  0  0  0  0  0  0
    7.6311   -0.9620    0.0000 H   0  0  0  0  0  0  0  0  0  0  0  0
    8.5919   -2.6156    0.0000 H   0  0  0  0  0  0  0  0  0  0  0  0
   10.5763   -0.0844    0.0000 H   0  0  0  0  0  0  0  0  0  0  0  0
    7.8047   -2.1566    0.0000 H   0  0  0  0  0  0  0  0  0  0  0  0
    8.9501   -0.9859    0.0000 H   0  0  0  0  0  0  0  0  0  0  0  0
    8.9485   -2.1040    0.0000 H   0  0  0  0  0  0  0  0  0  0  0  0
    8.7836   -3.0621    0.0000 H   0  0  0  0  0  0  0  0  0  0  0  0
    7.7197   -3.4061    0.0000 H   0  0  0  0  0  0  0  0  0  0  0  0
    6.7575   -3.5453    0.0000 H   0  0  0  0  0  0  0  0  0  0  0  0
    6.1017   -2.6397    0.0000 H   0  0  0  0  0  0  0  0  0  0  0  0
    2.8554    0.4334    0.0000 H   0  0  0  0  0  0  0  0  0  0  0  0
    3.8128   -2.9897    0.0000 H   0  0  0  0  0  0  0  0  0  0  0  0
    5.6263   -3.3890    0.0000 H   0  0  0  0  0  0  0  0  0  0  0  0
    6.1319   -0.5295    0.0000 H   0  0  0  0  0  0  0  0  0  0  0  0
  1 29  1  0  0  0  0
  1 30  1  0  0  0  0
  1 31  1  0  0  0  0
  2  1  1  0  0  0  0
  2  3  1  0  0  0  0
  2 28  1  0  0  0  0
  2 32  1  1  0  0  0
  3  4  1  0  0  0  0
  3 33  1  0  0  0  0
  3 34  1  0  0  0  0
  4  5  1  0  0  0  0
  4 35  1  0  0  0  0
  4 36  1  0  0  0  0
  5  6  2  0  0  0  0
  5 11  1  0  0  0  0
  6  7  1  0  0  0  0
  7  8  2  0  0  0  0
  7 37  1  0  0  0  0
  8  9  1  0  0  0  0
  8 10  1  0  0  0  0
 10 11  2  0  0  0  0
 10 38  1  0  0  0  0
 12  6  1  0  0  0  0
 12 13  1  0  0  0  0
 12 16  1  0  0  0  0
 12 39  1  6  0  0  0
 13 14  1  0  0  0  0
 13 40  1  0  0  0  0
 13 41  1  0  0  0  0
 14 15  1  0  0  0  0
 14 42  1  0  0  0  0
 14 43  1  0  0  0  0
 15 16  1  0  0  0  0
 15 44  1  0  0  0  0
 15 45  1  0  0  0  0
 16 17  1  0  0  0  0
 17 18  2  0  0  0  0
 17 25  1  0  0  0  0
 18 19  1  0  0  0  0
 19 20  2  0  0  0  0
 19 23  1  0  0  0  0
 20 21  1  0  0  0  0
 20 26  1  0  0  0  0
 21 22  2  0  0  0  0
 21 46  1  0  0  0  0
 22 23  1  0  0  0  0
 23 24  1  0  0  0  0
 24 25  2  0  0  0  0
 24 47  1  0  0  0  0
 25 48  1  0  0  0  0
 26 27  2  0  0  0  0
 26 28  1  0  0  0  0
 28 49  1  0  0  0  0
M  END
>  <DRUGBANK_ID>
DB14896

>  <COMMON_NAME>
Selitrectinib

>  <CAS_NUMBER>
2097002-61-2

>  <UNII>
0J45910S3X

>  <SYNONYMS>
Selitrectinib

$$$$
