
 OpenBabel10282417072D

 33 33  0  0  1  0  0  0  0  0999 V2000
    2.0198    0.8843    0.0000 O   0  0  0  0  0  0  0  0  0  0  0  0
    1.2352    0.6294    0.0000 C   0  0  1  0  0  0  0  0  0  0  0  0
    0.9803   -0.1553    0.0000 C   0  0  2  0  0  0  0  0  0  0  0  0
    1.4652   -0.8227    0.0000 O   0  0  0  0  0  0  0  0  0  0  0  0
    0.1553   -0.1553    0.0000 C   0  0  2  0  0  0  0  0  0  0  0  0
   -0.3297   -0.8227    0.0000 C   0  0  0  0  0  0  0  0  0  0  0  0
    0.0059   -1.5764    0.0000 O   0  0  0  0  0  0  0  0  0  0  0  0
   -0.4790   -2.2438    0.0000 P   0  0  0  0  0  0  0  0  0  0  0  0
   -0.9640   -2.9112    0.0000 O   0  0  0  0  0  0  0  0  0  0  0  0
    0.1884   -2.7287    0.0000 O   0  0  0  0  0  0  0  0  0  0  0  0
   -1.1465   -1.7589    0.0000 O   0  0  0  0  0  0  0  0  0  0  0  0
   -0.0997    0.6294    0.0000 O   0  0  0  0  0  0  0  0  0  0  0  0
    0.5678    1.1143    0.0000 C   0  0  2  0  0  0  0  0  0  0  0  0
    0.5678    1.9393    0.0000 C   0  0  0  0  0  0  0  0  0  0  0  0
    1.2822    2.3518    0.0000 O   0  0  0  0  0  0  0  0  0  0  0  0
    1.2822    3.1768    0.0000 P   0  0  0  0  0  0  0  0  0  0  0  0
    1.2822    4.0018    0.0000 O   0  0  0  0  0  0  0  0  0  0  0  0
    2.1072    3.1768    0.0000 O   0  0  0  0  0  0  0  0  0  0  0  0
    0.4572    3.1768    0.0000 O   0  0  0  0  0  0  0  0  0  0  0  0
    1.9889    0.2939    0.0000 H   0  0  0  0  0  0  0  0  0  0  0  0
    0.8941   -0.9758    0.0000 H   0  0  0  0  0  0  0  0  0  0  0  0
   -0.6517   -0.3268    0.0000 H   0  0  0  0  0  0  0  0  0  0  0  0
    1.2735    1.5417    0.0000 H   0  0  0  0  0  0  0  0  0  0  0  0
    2.7406    0.2352    0.0000 H   0  0  0  0  0  0  0  0  0  0  0  0
    1.0707   -1.7088    0.0000 H   0  0  0  0  0  0  0  0  0  0  0  0
   -1.3938   -0.7108    0.0000 H   0  0  0  0  0  0  0  0  0  0  0  0
   -0.9586   -1.6883    0.0000 H   0  0  0  0  0  0  0  0  0  0  0  0
   -1.9287   -2.8097    0.0000 H   0  0  0  0  0  0  0  0  0  0  0  0
    0.0870   -3.6934    0.0000 H   0  0  0  0  0  0  0  0  0  0  0  0
   -0.3589    2.4743    0.0000 H   0  0  0  0  0  0  0  0  0  0  0  0
    0.5678    3.0093    0.0000 H   0  0  0  0  0  0  0  0  0  0  0  0
    2.1222    4.4868    0.0000 H   0  0  0  0  0  0  0  0  0  0  0  0
    2.5922    2.3368    0.0000 H   0  0  0  0  0  0  0  0  0  0  0  0
  1 24  1  0  0  0  0
  2  1  1  0  0  0  0
  2  3  1  0  0  0  0
  2 13  1  0  0  0  0
  2 20  1  6  0  0  0
  3  4  1  0  0  0  0
  3  5  1  0  0  0  0
  3 21  1  1  0  0  0
  4 25  1  0  0  0  0
  5  6  1  0  0  0  0
  5 12  1  0  0  0  0
  5 22  1  1  0  0  0
  6  7  1  0  0  0  0
  6 26  1  0  0  0  0
  6 27  1  0  0  0  0
  7  8  1  0  0  0  0
  8  9  1  0  0  0  0
  8 10  1  0  0  0  0
  8 11  2  0  0  0  0
  9 28  1  0  0  0  0
 10 29  1  0  0  0  0
 12 13  1  0  0  0  0
 13 14  1  0  0  0  0
 13 23  1  1  0  0  0
 14 15  1  0  0  0  0
 14 30  1  0  0  0  0
 14 31  1  0  0  0  0
 15 16  1  0  0  0  0
 16 17  1  0  0  0  0
 16 18  1  0  0  0  0
 16 19  2  0  0  0  0
 17 32  1  0  0  0  0
 18 33  1  0  0  0  0
M  END
>  <DRUGBANK_ID>
DB02778

>  <SECONDARY_ACCESSION_NUMBERS>
EXPT00466

>  <COMMON_NAME>
2,5-Anhydroglucitol-1,6-Biphosphate

$$$$
