
 OpenBabel10282417072D

 53 56  0  0  0  0  0  0  0  0999 V2000
   -0.9625    5.1475    0.0000 C   0  0  0  0  0  0  0  0  0  0  0  0
   -1.5145    4.5344    0.0000 S   0  0  0  0  0  0  0  0  0  0  0  0
   -2.1276    5.0865    0.0000 O   0  0  0  0  0  0  0  0  0  0  0  0
   -0.9015    3.9824    0.0000 O   0  0  0  0  0  0  0  0  0  0  0  0
   -2.0666    3.9213    0.0000 C   0  0  0  0  0  0  0  0  0  0  0  0
   -1.8116    3.1367    0.0000 C   0  0  0  0  0  0  0  0  0  0  0  0
   -2.3637    2.5236    0.0000 C   0  0  0  0  0  0  0  0  0  0  0  0
   -2.1087    1.7390    0.0000 N   0  0  0  0  0  0  0  0  0  0  0  0
   -2.5937    1.0716    0.0000 C   0  0  0  0  0  0  0  0  0  0  0  0
   -3.4187    1.0716    0.0000 C   0  0  0  0  0  0  0  0  0  0  0  0
   -3.8312    0.3571    0.0000 N   0  0  0  0  0  0  0  0  0  0  0  0
   -4.6516    0.2708    0.0000 C   0  0  0  0  0  0  0  0  0  0  0  0
   -5.2037    0.8839    0.0000 O   0  0  0  0  0  0  0  0  0  0  0  0
   -4.8232   -0.5361    0.0000 N   0  0  0  0  0  0  0  0  0  0  0  0
   -5.5768   -0.8717    0.0000 C   0  0  0  0  0  0  0  0  0  0  0  0
   -5.6631   -1.6922    0.0000 C   0  0  0  0  0  0  0  0  0  0  0  0
   -5.7493   -2.5126    0.0000 F   0  0  0  0  0  0  0  0  0  0  0  0
   -6.4836   -1.6059    0.0000 F   0  0  0  0  0  0  0  0  0  0  0  0
   -4.8426   -1.7784    0.0000 F   0  0  0  0  0  0  0  0  0  0  0  0
   -4.1087   -0.9486    0.0000 C   0  0  0  0  0  0  0  0  0  0  0  0
   -3.4956   -0.3966    0.0000 C   0  0  0  0  0  0  0  0  0  0  0  0
   -2.7110   -0.6515    0.0000 C   0  0  0  0  0  0  0  0  0  0  0  0
   -2.5394   -1.4585    0.0000 N   0  0  0  0  0  0  0  0  0  0  0  0
   -3.1525   -2.0105    0.0000 C   0  0  0  0  0  0  0  0  0  0  0  0
   -3.9372   -1.7556    0.0000 C   0  0  0  0  0  0  0  0  0  0  0  0
   -2.1087    0.4041    0.0000 C   0  0  0  0  0  0  0  0  0  0  0  0
   -1.3241    0.6591    0.0000 C   0  0  0  0  0  0  0  0  0  0  0  0
   -1.3241    1.4841    0.0000 C   0  0  0  0  0  0  0  0  0  0  0  0
   -0.6096    1.8966    0.0000 C   0  0  0  0  0  0  0  0  0  0  0  0
    0.1048    1.4841    0.0000 C   0  0  0  0  0  0  0  0  0  0  0  0
    0.1048    0.6591    0.0000 C   0  0  0  0  0  0  0  0  0  0  0  0
    0.8193    0.2466    0.0000 Cl  0  0  0  0  0  0  0  0  0  0  0  0
   -0.6096    0.2466    0.0000 C   0  0  0  0  0  0  0  0  0  0  0  0
    0.0841    4.9251    0.0000 H   0  0  0  0  0  0  0  0  0  0  0  0
   -1.2932    6.1651    0.0000 H   0  0  0  0  0  0  0  0  0  0  0  0
   -0.2466    5.9427    0.0000 H   0  0  0  0  0  0  0  0  0  0  0  0
   -3.1132    4.1438    0.0000 H   0  0  0  0  0  0  0  0  0  0  0  0
   -2.7825    3.1261    0.0000 H   0  0  0  0  0  0  0  0  0  0  0  0
   -0.7650    2.9142    0.0000 H   0  0  0  0  0  0  0  0  0  0  0  0
   -1.4810    2.1191    0.0000 H   0  0  0  0  0  0  0  0  0  0  0  0
   -3.4103    2.7461    0.0000 H   0  0  0  0  0  0  0  0  0  0  0  0
   -3.0796    1.7284    0.0000 H   0  0  0  0  0  0  0  0  0  0  0  0
   -3.9537    1.9982    0.0000 H   0  0  0  0  0  0  0  0  0  0  0  0
   -4.4887    1.0716    0.0000 H   0  0  0  0  0  0  0  0  0  0  0  0
   -6.4425   -0.2428    0.0000 H   0  0  0  0  0  0  0  0  0  0  0  0
   -6.5543   -1.3069    0.0000 H   0  0  0  0  0  0  0  0  0  0  0  0
   -1.9441    0.0391    0.0000 H   0  0  0  0  0  0  0  0  0  0  0  0
   -2.9379   -3.0199    0.0000 H   0  0  0  0  0  0  0  0  0  0  0  0
   -4.7041   -2.4462    0.0000 H   0  0  0  0  0  0  0  0  0  0  0  0
   -2.4276   -0.5774    0.0000 H   0  0  0  0  0  0  0  0  0  0  0  0
   -0.6096    2.9286    0.0000 H   0  0  0  0  0  0  0  0  0  0  0  0
    0.9985    2.0001    0.0000 H   0  0  0  0  0  0  0  0  0  0  0  0
   -0.6096   -0.7854    0.0000 H   0  0  0  0  0  0  0  0  0  0  0  0
  1  2  1  0  0  0  0
  1 34  1  0  0  0  0
  1 35  1  0  0  0  0
  1 36  1  0  0  0  0
  2  3  2  0  0  0  0
  2  4  2  0  0  0  0
  2  5  1  0  0  0  0
  5  6  1  0  0  0  0
  5 37  1  0  0  0  0
  5 38  1  0  0  0  0
  6  7  1  0  0  0  0
  6 39  1  0  0  0  0
  6 40  1  0  0  0  0
  7  8  1  0  0  0  0
  7 41  1  0  0  0  0
  7 42  1  0  0  0  0
  8  9  1  0  0  0  0
  8 28  1  0  0  0  0
  9 10  1  0  0  0  0
  9 26  2  0  0  0  0
 10 11  1  0  0  0  0
 10 43  1  0  0  0  0
 10 44  1  0  0  0  0
 11 12  1  0  0  0  0
 11 21  1  0  0  0  0
 12 13  2  0  0  0  0
 12 14  1  0  0  0  0
 14 15  1  0  0  0  0
 14 20  1  0  0  0  0
 15 16  1  0  0  0  0
 15 45  1  0  0  0  0
 15 46  1  0  0  0  0
 16 17  1  0  0  0  0
 16 18  1  0  0  0  0
 16 19  1  0  0  0  0
 20 21  2  0  0  0  0
 20 25  1  0  0  0  0
 21 22  1  0  0  0  0
 22 23  2  0  0  0  0
 22 47  1  0  0  0  0
 23 24  1  0  0  0  0
 24 25  2  0  0  0  0
 24 48  1  0  0  0  0
 25 49  1  0  0  0  0
 26 27  1  0  0  0  0
 26 50  1  0  0  0  0
 27 28  2  0  0  0  0
 27 33  1  0  0  0  0
 28 29  1  0  0  0  0
 29 30  2  0  0  0  0
 29 51  1  0  0  0  0
 30 31  1  0  0  0  0
 30 52  1  0  0  0  0
 31 32  1  0  0  0  0
 31 33  2  0  0  0  0
 33 53  1  0  0  0  0
M  END
>  <DRUGBANK_ID>
DB15672

>  <COMMON_NAME>
Rilematovir

>  <CAS_NUMBER>
1383450-81-4

>  <UNII>
NQ99E8OH3P

>  <SYNONYMS>
Rilematovir

$$$$
