
 OpenBabel10282417072D

106106  0  0  0  0  0  0  0  0999 V2000
    3.8985   -1.2051    0.0000 O   0  0  0  0  0  0  0  0  0  0  0  0
    4.5456   -1.7066    0.0000 O   0  0  0  0  0  0  0  0  0  0  0  0
    1.7955    0.8654    0.0000 O   0  0  0  0  0  0  0  0  0  0  0  0
   -0.3235   -1.2051    0.0000 O   0  0  0  0  0  0  0  0  0  0  0  0
   -2.4426    0.8654    0.0000 O   0  0  0  0  0  0  0  0  0  0  0  0
    3.1706    2.5316    0.0000 O   0  0  0  0  0  0  0  0  0  0  0  0
   -4.5456   -1.2051    0.0000 O   0  0  0  0  0  0  0  0  0  0  0  0
    7.3927   -2.5316    0.0000 O   0  0  0  0  0  0  0  0  0  0  0  0
    8.0883   -1.2860    0.0000 O   0  0  0  0  0  0  0  0  0  0  0  0
   -6.6647    0.8654    0.0000 O   0  0  0  0  0  0  0  0  0  0  0  0
    4.6103    0.0404    0.0000 N   0  0  0  0  0  0  0  0  0  0  0  0
    2.4911   -0.3801    0.0000 N   0  0  0  0  0  0  0  0  0  0  0  0
    0.3882    0.0404    0.0000 N   0  0  0  0  0  0  0  0  0  0  0  0
    5.9691   -1.6904    0.0000 N   0  0  0  0  0  0  0  0  0  0  0  0
   -1.7309   -0.3801    0.0000 N   0  0  0  0  0  0  0  0  0  0  0  0
   -3.8500    0.0404    0.0000 N   0  0  0  0  0  0  0  0  0  0  0  0
    4.6103    2.5154    0.0000 N   0  0  0  0  0  0  0  0  0  0  0  0
   -5.9530   -0.3801    0.0000 N   0  0  0  0  0  0  0  0  0  0  0  0
   -8.0883    0.0404    0.0000 N   0  0  0  0  0  0  0  0  0  0  0  0
    5.2735   -0.4448    0.0000 C   0  0  2  0  0  0  0  0  0  0  0  0
    3.8985   -0.3801    0.0000 C   0  0  0  0  0  0  0  0  0  0  0  0
    3.2030    0.0404    0.0000 C   0  0  2  0  0  0  0  0  0  0  0  0
    5.2735   -1.2860    0.0000 C   0  0  0  0  0  0  0  0  0  0  0  0
    4.8530    0.8007    0.0000 C   0  0  0  0  0  0  0  0  0  0  0  0
    5.9206    0.0404    0.0000 C   0  0  0  0  0  0  0  0  0  0  0  0
    1.7955    0.0404    0.0000 C   0  0  0  0  0  0  0  0  0  0  0  0
    1.0838   -0.3801    0.0000 C   0  0  2  0  0  0  0  0  0  0  0  0
    5.6618    0.8007    0.0000 C   0  0  0  0  0  0  0  0  0  0  0  0
    3.2030    0.8654    0.0000 C   0  0  0  0  0  0  0  0  0  0  0  0
   -0.3235   -0.3801    0.0000 C   0  0  0  0  0  0  0  0  0  0  0  0
   -1.0353    0.0404    0.0000 C   0  0  2  0  0  0  0  0  0  0  0  0
    1.0838   -1.2051    0.0000 C   0  0  0  0  0  0  0  0  0  0  0  0
   -2.4426    0.0404    0.0000 C   0  0  0  0  0  0  0  0  0  0  0  0
   -3.1382   -0.3801    0.0000 C   0  0  2  0  0  0  0  0  0  0  0  0
    3.8985    1.2698    0.0000 C   0  0  0  0  0  0  0  0  0  0  0  0
   -1.0353    0.8654    0.0000 C   0  0  0  0  0  0  0  0  0  0  0  0
    6.6809   -1.2860    0.0000 C   0  0  0  0  0  0  0  0  0  0  0  0
   -3.1382   -1.2051    0.0000 C   0  0  0  0  0  0  0  0  0  0  0  0
    3.8985    2.1110    0.0000 C   0  0  0  0  0  0  0  0  0  0  0  0
   -0.3235    1.2698    0.0000 C   0  0  0  0  0  0  0  0  0  0  0  0
    1.7955   -1.6096    0.0000 C   0  0  0  0  0  0  0  0  0  0  0  0
    0.3559   -1.6257    0.0000 C   0  0  0  0  0  0  0  0  0  0  0  0
   -4.5456   -0.3801    0.0000 C   0  0  0  0  0  0  0  0  0  0  0  0
    7.3927   -1.6904    0.0000 C   0  0  0  0  0  0  0  0  0  0  0  0
   -2.4426   -1.6096    0.0000 C   0  0  0  0  0  0  0  0  0  0  0  0
   -3.8662   -1.6257    0.0000 C   0  0  0  0  0  0  0  0  0  0  0  0
   -5.2574    0.0404    0.0000 C   0  0  0  0  0  0  0  0  0  0  0  0
    0.3882    0.8654    0.0000 C   0  0  0  0  0  0  0  0  0  0  0  0
   -0.3235    2.1110    0.0000 C   0  0  0  0  0  0  0  0  0  0  0  0
   -6.6647    0.0242    0.0000 C   0  0  0  0  0  0  0  0  0  0  0  0
   -7.3765   -0.3801    0.0000 C   0  0  0  0  0  0  0  0  0  0  0  0
    8.9012   -1.7521    0.0000 H   0  0  0  0  0  0  0  0  0  0  0  0
    2.4861   -1.3646    0.0000 H   0  0  0  0  0  0  0  0  0  0  0  0
    0.3932    1.0249    0.0000 H   0  0  0  0  0  0  0  0  0  0  0  0
    5.9642   -2.6749    0.0000 H   0  0  0  0  0  0  0  0  0  0  0  0
   -1.7259   -1.3646    0.0000 H   0  0  0  0  0  0  0  0  0  0  0  0
   -3.8550    1.0249    0.0000 H   0  0  0  0  0  0  0  0  0  0  0  0
    5.4595    2.0172    0.0000 H   0  0  0  0  0  0  0  0  0  0  0  0
    4.6171    3.4999    0.0000 H   0  0  0  0  0  0  0  0  0  0  0  0
   -5.9397   -1.3645    0.0000 H   0  0  0  0  0  0  0  0  0  0  0  0
   -8.0781    1.0603    0.0000 H   0  0  0  0  0  0  0  0  0  0  0  0
   -8.9767   -0.4607    0.0000 H   0  0  0  0  0  0  0  0  0  0  0  0
    4.3193   -0.9290    0.0000 H   0  0  0  0  0  0  0  0  0  0  0  0
    2.2737    0.5708    0.0000 H   0  0  0  0  0  0  0  0  0  0  0  0
    4.2218    1.6647    0.0000 H   0  0  0  0  0  0  0  0  0  0  0  0
    5.3375    1.7547    0.0000 H   0  0  0  0  0  0  0  0  0  0  0  0
    6.9429   -0.2755    0.0000 H   0  0  0  0  0  0  0  0  0  0  0  0
    6.6664    0.8077    0.0000 H   0  0  0  0  0  0  0  0  0  0  0  0
    0.1518   -0.9057    0.0000 H   0  0  0  0  0  0  0  0  0  0  0  0
    6.2847    1.6707    0.0000 H   0  0  0  0  0  0  0  0  0  0  0  0
    6.7203    0.6444    0.0000 H   0  0  0  0  0  0  0  0  0  0  0  0
    2.2755    1.3990    0.0000 H   0  0  0  0  0  0  0  0  0  0  0  0
    3.2005    1.9354    0.0000 H   0  0  0  0  0  0  0  0  0  0  0  0
   -1.9673    0.5660    0.0000 H   0  0  0  0  0  0  0  0  0  0  0  0
    1.0876   -2.2751    0.0000 H   0  0  0  0  0  0  0  0  0  0  0  0
   -4.0675   -0.9105    0.0000 H   0  0  0  0  0  0  0  0  0  0  0  0
    4.8260    0.7362    0.0000 H   0  0  0  0  0  0  0  0  0  0  0  0
    4.8247    1.8055    0.0000 H   0  0  0  0  0  0  0  0  0  0  0  0
   -1.9601    1.4036    0.0000 H   0  0  0  0  0  0  0  0  0  0  0  0
   -1.0297    1.9354    0.0000 H   0  0  0  0  0  0  0  0  0  0  0  0
    6.6809   -0.2160    0.0000 H   0  0  0  0  0  0  0  0  0  0  0  0
    7.6057   -0.7478    0.0000 H   0  0  0  0  0  0  0  0  0  0  0  0
   -3.1397   -2.2751    0.0000 H   0  0  0  0  0  0  0  0  0  0  0  0
    0.6013    1.8080    0.0000 H   0  0  0  0  0  0  0  0  0  0  0  0
    1.8027   -2.6796    0.0000 H   0  0  0  0  0  0  0  0  0  0  0  0
    2.7185   -1.0683    0.0000 H   0  0  0  0  0  0  0  0  0  0  0  0
    2.7257   -2.1383    0.0000 H   0  0  0  0  0  0  0  0  0  0  0  0
   -0.5709   -1.0910    0.0000 H   0  0  0  0  0  0  0  0  0  0  0  0
    0.3563   -2.6957    0.0000 H   0  0  0  0  0  0  0  0  0  0  0  0
   -0.5706   -2.1610    0.0000 H   0  0  0  0  0  0  0  0  0  0  0  0
   -2.4459   -2.6796    0.0000 H   0  0  0  0  0  0  0  0  0  0  0  0
   -1.5143   -1.0775    0.0000 H   0  0  0  0  0  0  0  0  0  0  0  0
   -1.5176   -2.1475    0.0000 H   0  0  0  0  0  0  0  0  0  0  0  0
   -4.7930   -1.0910    0.0000 H   0  0  0  0  0  0  0  0  0  0  0  0
   -3.8659   -2.6957    0.0000 H   0  0  0  0  0  0  0  0  0  0  0  0
   -4.7927   -2.1610    0.0000 H   0  0  0  0  0  0  0  0  0  0  0  0
   -5.2628    1.1104    0.0000 H   0  0  0  0  0  0  0  0  0  0  0  0
   -4.3294    0.5731    0.0000 H   0  0  0  0  0  0  0  0  0  0  0  0
    0.3956   -0.2046    0.0000 H   0  0  0  0  0  0  0  0  0  0  0  0
    1.3111    1.4068    0.0000 H   0  0  0  0  0  0  0  0  0  0  0  0
    1.3185    0.3368    0.0000 H   0  0  0  0  0  0  0  0  0  0  0  0
    0.6031    2.6460    0.0000 H   0  0  0  0  0  0  0  0  0  0  0  0
   -1.2501    2.6460    0.0000 H   0  0  0  0  0  0  0  0  0  0  0  0
   -0.3235    3.1810    0.0000 H   0  0  0  0  0  0  0  0  0  0  0  0
   -7.3856   -1.4501    0.0000 H   0  0  0  0  0  0  0  0  0  0  0  0
   -6.4540   -0.9223    0.0000 H   0  0  0  0  0  0  0  0  0  0  0  0
  1 21  2  0  0  0  0
  2 23  2  0  0  0  0
  3 26  2  0  0  0  0
  4 30  2  0  0  0  0
  5 33  2  0  0  0  0
  6 39  2  0  0  0  0
  7 43  2  0  0  0  0
  8 44  2  0  0  0  0
  9 44  1  0  0  0  0
  9 52  1  0  0  0  0
 10 50  2  0  0  0  0
 11 20  1  0  0  0  0
 11 21  1  0  0  0  0
 11 24  1  0  0  0  0
 12 22  1  0  0  0  0
 12 26  1  0  0  0  0
 12 53  1  0  0  0  0
 13 27  1  0  0  0  0
 13 30  1  0  0  0  0
 13 54  1  0  0  0  0
 14 23  1  0  0  0  0
 14 37  1  0  0  0  0
 14 55  1  0  0  0  0
 15 31  1  0  0  0  0
 15 33  1  0  0  0  0
 15 56  1  0  0  0  0
 16 34  1  0  0  0  0
 16 43  1  0  0  0  0
 16 57  1  0  0  0  0
 17 39  1  0  0  0  0
 17 58  1  0  0  0  0
 17 59  1  0  0  0  0
 18 47  1  0  0  0  0
 18 50  1  0  0  0  0
 18 60  1  0  0  0  0
 19 51  1  0  0  0  0
 19 61  1  0  0  0  0
 19 62  1  0  0  0  0
 20 23  1  0  0  0  0
 20 25  1  0  0  0  0
 20 63  1  6  0  0  0
 21 22  1  0  0  0  0
 22 29  1  0  0  0  0
 22 64  1  6  0  0  0
 24 28  1  0  0  0  0
 24 65  1  0  0  0  0
 24 66  1  0  0  0  0
 25 28  1  0  0  0  0
 25 67  1  0  0  0  0
 25 68  1  0  0  0  0
 26 27  1  0  0  0  0
 27 32  1  0  0  0  0
 27 69  1  1  0  0  0
 28 70  1  0  0  0  0
 28 71  1  0  0  0  0
 29 35  1  0  0  0  0
 29 72  1  0  0  0  0
 29 73  1  0  0  0  0
 30 31  1  0  0  0  0
 31 36  1  0  0  0  0
 31 74  1  6  0  0  0
 32 41  1  0  0  0  0
 32 42  1  0  0  0  0
 32 75  1  0  0  0  0
 33 34  1  0  0  0  0
 34 38  1  0  0  0  0
 34 76  1  1  0  0  0
 35 39  1  0  0  0  0
 35 77  1  0  0  0  0
 35 78  1  0  0  0  0
 36 40  1  0  0  0  0
 36 79  1  0  0  0  0
 36 80  1  0  0  0  0
 37 44  1  0  0  0  0
 37 81  1  0  0  0  0
 37 82  1  0  0  0  0
 38 45  1  0  0  0  0
 38 46  1  0  0  0  0
 38 83  1  0  0  0  0
 40 48  1  0  0  0  0
 40 49  1  0  0  0  0
 40 84  1  0  0  0  0
 41 85  1  0  0  0  0
 41 86  1  0  0  0  0
 41 87  1  0  0  0  0
 42 88  1  0  0  0  0
 42 89  1  0  0  0  0
 42 90  1  0  0  0  0
 43 47  1  0  0  0  0
 45 91  1  0  0  0  0
 45 92  1  0  0  0  0
 45 93  1  0  0  0  0
 46 94  1  0  0  0  0
 46 95  1  0  0  0  0
 46 96  1  0  0  0  0
 47 97  1  0  0  0  0
 47 98  1  0  0  0  0
 48 99  1  0  0  0  0
 48100  1  0  0  0  0
 48101  1  0  0  0  0
 49102  1  0  0  0  0
 49103  1  0  0  0  0
 49104  1  0  0  0  0
 50 51  1  0  0  0  0
 51105  1  0  0  0  0
 51106  1  0  0  0  0
M  END
>  <DRUGBANK_ID>
DB05645

>  <COMMON_NAME>
Larazotide

>  <CAS_NUMBER>
258818-34-7

>  <UNII>
ZN3R5560ZV

>  <SYNONYMS>
Larazotide

$$$$
