
 OpenBabel10282417072D

 76 79  0  0  0  0  0  0  0  0999 V2000
    3.5724   -7.0125    0.0000 C   0  0  0  0  0  0  0  0  0  0  0  0
    2.8579   -7.4250    0.0000 C   0  0  0  0  0  0  0  0  0  0  0  0
    2.1434   -7.0125    0.0000 C   0  0  0  0  0  0  0  0  0  0  0  0
    2.8579   -8.2500    0.0000 C   0  0  0  0  0  0  0  0  0  0  0  0
    3.5724   -8.6625    0.0000 C   0  0  0  0  0  0  0  0  0  0  0  0
    3.5724   -9.4875    0.0000 C   0  0  0  0  0  0  0  0  0  0  0  0
    2.8579   -9.9000    0.0000 C   0  0  0  0  0  0  0  0  0  0  0  0
    2.1434   -9.4875    0.0000 C   0  0  0  0  0  0  0  0  0  0  0  0
    2.1434   -8.6625    0.0000 C   0  0  0  0  0  0  0  0  0  0  0  0
    1.4289   -8.2500    0.0000 C   0  0  0  0  0  0  0  0  0  0  0  0
    0.7145   -8.6625    0.0000 C   0  0  0  0  0  0  0  0  0  0  0  0
    0.7145   -9.4875    0.0000 C   0  0  0  0  0  0  0  0  0  0  0  0
    1.4289   -9.9000    0.0000 O   0  0  0  0  0  0  0  0  0  0  0  0
    0.0000   -9.9000    0.0000 C   0  0  0  0  0  0  0  0  0  0  0  0
    0.0000  -10.7250    0.0000 O   0  0  0  0  0  0  0  0  0  0  0  0
   -0.7145   -9.4875    0.0000 C   0  0  0  0  0  0  0  0  0  0  0  0
   -1.4289   -9.9000    0.0000 O   0  0  0  0  0  0  0  0  0  0  0  0
   -0.7145   -8.6625    0.0000 C   0  0  0  0  0  0  0  0  0  0  0  0
    0.0000   -8.2500    0.0000 C   0  0  0  0  0  0  0  0  0  0  0  0
   -1.4289   -8.2500    0.0000 C   0  0  0  0  0  0  0  0  0  0  0  0
   -1.4289   -7.4250    0.0000 O   0  0  0  0  0  0  0  0  0  0  0  0
   -2.1434   -8.6625    0.0000 N   0  0  0  0  0  0  0  0  0  0  0  0
   -2.8579   -8.2500    0.0000 C   0  0  0  0  0  0  0  0  0  0  0  0
   -3.5724   -8.6625    0.0000 C   0  0  0  0  0  0  0  0  0  0  0  0
   -4.2868   -8.2500    0.0000 C   0  0  0  0  0  0  0  0  0  0  0  0
   -4.2868   -7.4250    0.0000 C   0  0  0  0  0  0  0  0  0  0  0  0
   -3.5724   -7.0125    0.0000 C   0  0  0  0  0  0  0  0  0  0  0  0
   -2.8579   -7.4250    0.0000 C   0  0  0  0  0  0  0  0  0  0  0  0
   -5.0013   -7.0125    0.0000 S   0  0  0  0  0  0  0  0  0  0  0  0
   -4.5888   -6.2980    0.0000 O   0  0  0  0  0  0  0  0  0  0  0  0
   -5.4138   -7.7270    0.0000 O   0  0  0  0  0  0  0  0  0  0  0  0
   -5.7158   -6.6000    0.0000 C   0  0  0  0  0  0  0  0  0  0  0  0
   -6.4302   -7.0125    0.0000 C   0  0  0  0  0  0  0  0  0  0  0  0
   -7.1447   -6.6000    0.0000 C   0  0  0  0  0  0  0  0  0  0  0  0
   -7.1447   -5.7750    0.0000 C   0  0  0  0  0  0  0  0  0  0  0  0
   -6.4302   -5.3625    0.0000 C   0  0  0  0  0  0  0  0  0  0  0  0
   -5.7158   -5.7750    0.0000 C   0  0  0  0  0  0  0  0  0  0  0  0
   -5.0013   -5.3625    0.0000 C   0  0  0  0  0  0  0  0  0  0  0  0
   -4.2868   -4.9500    0.0000 C   0  0  0  0  0  0  0  0  0  0  0  0
   -4.3882   -5.9145    0.0000 C   0  0  0  0  0  0  0  0  0  0  0  0
   -5.4138   -4.6480    0.0000 C   0  0  0  0  0  0  0  0  0  0  0  0
    4.4990   -7.5475    0.0000 H   0  0  0  0  0  0  0  0  0  0  0  0
    3.5724   -5.9425    0.0000 H   0  0  0  0  0  0  0  0  0  0  0  0
    4.4991   -6.4775    0.0000 H   0  0  0  0  0  0  0  0  0  0  0  0
    1.9313   -7.9600    0.0000 H   0  0  0  0  0  0  0  0  0  0  0  0
    2.1434   -5.9425    0.0000 H   0  0  0  0  0  0  0  0  0  0  0  0
    1.2168   -7.5475    0.0000 H   0  0  0  0  0  0  0  0  0  0  0  0
    1.2167   -6.4775    0.0000 H   0  0  0  0  0  0  0  0  0  0  0  0
    4.4661   -8.1465    0.0000 H   0  0  0  0  0  0  0  0  0  0  0  0
    4.4661  -10.0035    0.0000 H   0  0  0  0  0  0  0  0  0  0  0  0
    2.8579  -10.9320    0.0000 H   0  0  0  0  0  0  0  0  0  0  0  0
    1.2497  -10.0035    0.0000 H   0  0  0  0  0  0  0  0  0  0  0  0
    1.4289   -7.1800    0.0000 H   0  0  0  0  0  0  0  0  0  0  0  0
    0.5022   -7.7150    0.0000 H   0  0  0  0  0  0  0  0  0  0  0  0
    1.4289  -10.8370    0.0000 H   0  0  0  0  0  0  0  0  0  0  0  0
   -0.8115  -11.1935    0.0000 H   0  0  0  0  0  0  0  0  0  0  0  0
   -2.2404   -9.4315    0.0000 H   0  0  0  0  0  0  0  0  0  0  0  0
    0.0000   -7.2180    0.0000 H   0  0  0  0  0  0  0  0  0  0  0  0
   -2.1434   -9.6470    0.0000 H   0  0  0  0  0  0  0  0  0  0  0  0
   -3.5724   -9.6945    0.0000 H   0  0  0  0  0  0  0  0  0  0  0  0
   -5.1805   -8.7660    0.0000 H   0  0  0  0  0  0  0  0  0  0  0  0
   -3.5724   -5.9805    0.0000 H   0  0  0  0  0  0  0  0  0  0  0  0
   -1.9642   -6.9090    0.0000 H   0  0  0  0  0  0  0  0  0  0  0  0
   -6.4302   -8.0445    0.0000 H   0  0  0  0  0  0  0  0  0  0  0  0
   -8.0384   -7.1160    0.0000 H   0  0  0  0  0  0  0  0  0  0  0  0
   -8.0384   -5.2590    0.0000 H   0  0  0  0  0  0  0  0  0  0  0  0
   -6.4302   -4.3305    0.0000 H   0  0  0  0  0  0  0  0  0  0  0  0
   -3.3602   -5.4850    0.0000 H   0  0  0  0  0  0  0  0  0  0  0  0
   -4.2868   -3.8800    0.0000 H   0  0  0  0  0  0  0  0  0  0  0  0
   -3.3601   -4.4150    0.0000 H   0  0  0  0  0  0  0  0  0  0  0  0
   -4.6106   -6.9611    0.0000 H   0  0  0  0  0  0  0  0  0  0  0  0
   -3.3706   -5.5838    0.0000 H   0  0  0  0  0  0  0  0  0  0  0  0
   -3.5930   -6.6304    0.0000 H   0  0  0  0  0  0  0  0  0  0  0  0
   -4.8788   -3.7214    0.0000 H   0  0  0  0  0  0  0  0  0  0  0  0
   -6.4838   -4.6480    0.0000 H   0  0  0  0  0  0  0  0  0  0  0  0
   -5.9488   -3.7213    0.0000 H   0  0  0  0  0  0  0  0  0  0  0  0
  1  2  1  0  0  0  0
  1 42  1  0  0  0  0
  1 43  1  0  0  0  0
  1 44  1  0  0  0  0
  2  3  1  0  0  0  0
  2  4  1  0  0  0  0
  2 45  1  0  0  0  0
  3 46  1  0  0  0  0
  3 47  1  0  0  0  0
  3 48  1  0  0  0  0
  4  5  2  0  0  0  0
  4  9  1  0  0  0  0
  5  6  1  0  0  0  0
  5 49  1  0  0  0  0
  6  7  2  0  0  0  0
  6 50  1  0  0  0  0
  7  8  1  0  0  0  0
  7 51  1  0  0  0  0
  8  9  2  0  0  0  0
  8 52  1  0  0  0  0
  9 10  1  0  0  0  0
 10 11  1  0  0  0  0
 10 53  1  0  0  0  0
 10 54  1  0  0  0  0
 11 12  2  0  0  0  0
 11 19  1  0  0  0  0
 12 13  1  0  0  0  0
 12 14  1  0  0  0  0
 13 55  1  0  0  0  0
 14 15  1  0  0  0  0
 14 16  2  0  0  0  0
 15 56  1  0  0  0  0
 16 17  1  0  0  0  0
 16 18  1  0  0  0  0
 17 57  1  0  0  0  0
 18 19  2  0  0  0  0
 18 20  1  0  0  0  0
 19 58  1  0  0  0  0
 20 21  2  0  0  0  0
 20 22  1  0  0  0  0
 22 23  1  0  0  0  0
 22 59  1  0  0  0  0
 23 24  2  0  0  0  0
 23 28  1  0  0  0  0
 24 25  1  0  0  0  0
 24 60  1  0  0  0  0
 25 26  2  0  0  0  0
 25 61  1  0  0  0  0
 26 27  1  0  0  0  0
 26 29  1  0  0  0  0
 27 28  2  0  0  0  0
 27 62  1  0  0  0  0
 28 63  1  0  0  0  0
 29 30  2  0  0  0  0
 29 31  2  0  0  0  0
 29 32  1  0  0  0  0
 32 33  2  0  0  0  0
 32 37  1  0  0  0  0
 33 34  1  0  0  0  0
 33 64  1  0  0  0  0
 34 35  2  0  0  0  0
 34 65  1  0  0  0  0
 35 36  1  0  0  0  0
 35 66  1  0  0  0  0
 36 37  2  0  0  0  0
 36 67  1  0  0  0  0
 37 38  1  0  0  0  0
 38 39  1  0  0  0  0
 38 40  1  0  0  0  0
 38 41  1  0  0  0  0
 39 68  1  0  0  0  0
 39 69  1  0  0  0  0
 39 70  1  0  0  0  0
 40 71  1  0  0  0  0
 40 72  1  0  0  0  0
 40 73  1  0  0  0  0
 41 74  1  0  0  0  0
 41 75  1  0  0  0  0
 41 76  1  0  0  0  0
M  END
>  <DRUGBANK_ID>
DB17059

>  <COMMON_NAME>
TW-37

>  <CAS_NUMBER>
877877-35-5

>  <UNII>
FQ8NY4LUO5

>  <SYNONYMS>
Benzamide, n-(4-((2-(1,1-dimethylethyl)phenyl)sulfonyl)phenyl)-2,3,4-trihydroxy-5-((2-(1-methylethyl)phenyl)methyl)-; N-(4-((2-(1,1-dimethylethyl)phenyl)sulfonyl)phenyl)-2,3,4-trihydroxy-5-((2-(1-methylethyl)phenyl)methyl)benzamide; N-[4-[[2-(1,1-Dimethylethyl)phenyl]sulfonyl]phenyl]-2,3,4-trihydroxy-5-[[2-(1-methylethyl)phenyl]methyl]benzamide

$$$$
