
 OpenBabel10282417072D

 28 29  0  0  0  0  0  0  0  0999 V2000
    0.8212    6.8277    0.0000 C   0  0  0  0  0  0  0  0  0  0  0  0
   -0.6078    6.0027    0.0000 C   0  0  0  0  0  0  0  0  0  0  0  0
    1.5356    4.7652    0.0000 C   0  0  0  0  0  0  0  0  0  0  0  0
    1.5356    5.5902    0.0000 C   0  0  0  0  0  0  0  0  0  0  0  0
    0.8212    4.3527    0.0000 C   0  0  0  0  0  0  0  0  0  0  0  0
   -0.6078    4.3527    0.0000 C   0  0  0  0  0  0  0  0  0  0  0  0
    0.0597    3.0428    0.0000 C   0  0  0  0  0  0  0  0  0  0  0  0
   -1.0203    2.2581    0.0000 C   0  0  0  0  0  0  0  0  0  0  0  0
    0.8212    6.0027    0.0000 C   0  0  0  0  0  0  0  0  0  0  0  0
    0.1067    5.5902    0.0000 C   0  0  0  0  0  0  0  0  0  0  0  0
    0.1067    4.7652    0.0000 C   0  0  0  0  0  0  0  0  0  0  0  0
   -0.6078    3.5277    0.0000 C   0  0  0  0  0  0  0  0  0  0  0  0
   -0.1953    2.2581    0.0000 N   0  0  0  0  0  0  0  0  0  0  0  0
   -1.2752    3.0428    0.0000 N   0  0  0  0  0  0  0  0  0  0  0  0
    1.7478    7.3627    0.0000 H   0  0  0  0  0  0  0  0  0  0  0  0
   -0.1054    7.3627    0.0000 H   0  0  0  0  0  0  0  0  0  0  0  0
    0.8212    7.8977    0.0000 H   0  0  0  0  0  0  0  0  0  0  0  0
   -0.6078    7.0727    0.0000 H   0  0  0  0  0  0  0  0  0  0  0  0
   -1.5344    5.4677    0.0000 H   0  0  0  0  0  0  0  0  0  0  0  0
   -1.5345    6.5377    0.0000 H   0  0  0  0  0  0  0  0  0  0  0  0
    2.4293    4.2492    0.0000 H   0  0  0  0  0  0  0  0  0  0  0  0
    2.4293    6.1062    0.0000 H   0  0  0  0  0  0  0  0  0  0  0  0
    0.8212    3.3207    0.0000 H   0  0  0  0  0  0  0  0  0  0  0  0
   -1.5344    4.8877    0.0000 H   0  0  0  0  0  0  0  0  0  0  0  0
   -1.5344    3.8177    0.0000 H   0  0  0  0  0  0  0  0  0  0  0  0
    1.0412    3.3617    0.0000 H   0  0  0  0  0  0  0  0  0  0  0  0
   -1.6269    1.4232    0.0000 H   0  0  0  0  0  0  0  0  0  0  0  0
   -2.2115    3.3471    0.0000 H   0  0  0  0  0  0  0  0  0  0  0  0
  1 15  1  0  0  0  0
  1 16  1  0  0  0  0
  1 17  1  0  0  0  0
  2 18  1  0  0  0  0
  2 19  1  0  0  0  0
  2 20  1  0  0  0  0
  3 21  1  0  0  0  0
  4  3  2  0  0  0  0
  4 22  1  0  0  0  0
  5  3  1  0  0  0  0
  5 23  1  0  0  0  0
  6 24  1  0  0  0  0
  6 25  1  0  0  0  0
  7 26  1  0  0  0  0
  8 27  1  0  0  0  0
  9  1  1  0  0  0  0
  9  4  1  0  0  0  0
 10  2  1  0  0  0  0
 10  9  2  0  0  0  0
 11  5  2  0  0  0  0
 11  6  1  0  0  0  0
 11 10  1  0  0  0  0
 12  6  1  0  0  0  0
 12  7  2  0  0  0  0
 13  7  1  0  0  0  0
 13  8  2  0  0  0  0
 14  8  1  0  0  0  0
 14 12  1  0  0  0  0
 14 28  1  0  0  0  0
M  END
>  <DRUGBANK_ID>
DB11556

>  <COMMON_NAME>
Detomidine

>  <CAS_NUMBER>
76631-46-4

>  <UNII>
7N8K34P2XH

>  <SYNONYMS>
4-(2,3-dimethylbenzyl)imidazole; Detomidine

$$$$
