C08
 OpenBabel10282417072D

 60 62  0  0  0  0  0  0  0  0999 V2000
    0.3749    1.7392    0.0000 C   0  0  0  0  0  0  0  0  0  0  0  0
    0.3908    0.9144    0.0000 C   0  0  0  0  0  0  0  0  0  0  0  0
    1.0145    0.3743    0.0000 C   0  0  0  0  0  0  0  0  0  0  0  0
    0.6935   -0.3857    0.0000 C   0  0  0  0  0  0  0  0  0  0  0  0
   -0.1285   -0.3154    0.0000 C   0  0  0  0  0  0  0  0  0  0  0  0
   -0.6685   -0.9390    0.0000 C   0  0  0  0  0  0  0  0  0  0  0  0
   -0.3985   -1.7186    0.0000 C   0  0  0  0  0  0  0  0  0  0  0  0
    0.4116   -1.8745    0.0000 C   0  0  0  0  0  0  0  0  0  0  0  0
    0.9517   -1.2508    0.0000 C   0  0  0  0  0  0  0  0  0  0  0  0
    1.7619   -1.4067    0.0000 C   0  0  0  0  0  0  0  0  0  0  0  0
    2.3019   -0.7831    0.0000 C   0  0  0  0  0  0  0  0  0  0  0  0
    3.1121   -0.9390    0.0000 C   0  0  0  0  0  0  0  0  0  0  0  0
    3.6522   -0.3154    0.0000 C   0  0  0  0  0  0  0  0  0  0  0  0
   -0.3155    0.4881    0.0000 N   0  0  0  0  0  0  0  0  0  0  0  0
   -1.0378    0.8868    0.0000 B   0  5  0  0  0  0  0  0  0  0  0  0
   -1.3050    0.1062    0.0000 F   0  0  0  0  0  0  0  0  0  0  0  0
   -1.0538    1.7116    0.0000 N   0  3  0  0  0  0  0  0  0  0  0  0
   -1.6774    2.2517    0.0000 C   0  0  0  0  0  0  0  0  0  0  0  0
   -2.4809    2.0646    0.0000 C   0  0  0  0  0  0  0  0  0  0  0  0
   -2.7207    1.2752    0.0000 C   0  0  0  0  0  0  0  0  0  0  0  0
   -3.5242    1.0882    0.0000 C   0  0  0  0  0  0  0  0  0  0  0  0
   -3.7639    0.2988    0.0000 C   0  0  0  0  0  0  0  0  0  0  0  0
   -4.5674    0.1117    0.0000 C   0  0  0  0  0  0  0  0  0  0  0  0
   -4.8072   -0.6777    0.0000 O   0  0  0  0  0  0  0  0  0  0  0  0
   -5.1312    0.7140    0.0000 O   0  0  0  0  0  0  0  0  0  0  0  0
   -1.3565    3.0117    0.0000 C   0  0  0  0  0  0  0  0  0  0  0  0
   -0.5345    2.9414    0.0000 C   0  0  0  0  0  0  0  0  0  0  0  0
   -0.3474    2.1378    0.0000 C   0  0  0  0  0  0  0  0  0  0  0  0
   -1.8529    1.0143    0.0000 F   0  0  0  0  0  0  0  0  0  0  0  0
    1.2585    2.2724    0.0000 H   0  0  0  0  0  0  0  0  0  0  0  0
    2.0196    0.6083    0.0000 H   0  0  0  0  0  0  0  0  0  0  0  0
    1.2267   -1.2693    0.0000 H   0  0  0  0  0  0  0  0  0  0  0  0
   -1.7192   -0.7368    0.0000 H   0  0  0  0  0  0  0  0  0  0  0  0
   -1.3690   -1.7478    0.0000 H   0  0  0  0  0  0  0  0  0  0  0  0
   -1.0990   -2.5274    0.0000 H   0  0  0  0  0  0  0  0  0  0  0  0
   -0.0483   -2.7297    0.0000 H   0  0  0  0  0  0  0  0  0  0  0  0
    0.7619   -2.8855    0.0000 H   0  0  0  0  0  0  0  0  0  0  0  0
    1.4623   -2.0767    0.0000 H   0  0  0  0  0  0  0  0  0  0  0  0
    0.6014   -0.2398    0.0000 H   0  0  0  0  0  0  0  0  0  0  0  0
    1.6522   -0.4419    0.0000 H   0  0  0  0  0  0  0  0  0  0  0  0
    2.1122   -2.4177    0.0000 H   0  0  0  0  0  0  0  0  0  0  0  0
    2.8126   -1.6089    0.0000 H   0  0  0  0  0  0  0  0  0  0  0  0
    1.9516    0.2279    0.0000 H   0  0  0  0  0  0  0  0  0  0  0  0
    3.0024    0.0258    0.0000 H   0  0  0  0  0  0  0  0  0  0  0  0
    3.4623   -1.9501    0.0000 H   0  0  0  0  0  0  0  0  0  0  0  0
    4.1628   -1.1412    0.0000 H   0  0  0  0  0  0  0  0  0  0  0  0
    4.7029   -0.5177    0.0000 H   0  0  0  0  0  0  0  0  0  0  0  0
    3.3020    0.6957    0.0000 H   0  0  0  0  0  0  0  0  0  0  0  0
    4.3527    0.4934    0.0000 H   0  0  0  0  0  0  0  0  0  0  0  0
   -3.2121    2.8458    0.0000 H   0  0  0  0  0  0  0  0  0  0  0  0
   -3.5230    1.8220    0.0000 H   0  0  0  0  0  0  0  0  0  0  0  0
   -1.9896    0.4940    0.0000 H   0  0  0  0  0  0  0  0  0  0  0  0
   -3.0317    0.2514    0.0000 H   0  0  0  0  0  0  0  0  0  0  0  0
   -4.2554    1.8694    0.0000 H   0  0  0  0  0  0  0  0  0  0  0  0
   -4.5663    0.8456    0.0000 H   0  0  0  0  0  0  0  0  0  0  0  0
   -3.0327   -0.4824    0.0000 H   0  0  0  0  0  0  0  0  0  0  0  0
   -4.0748   -0.7250    0.0000 H   0  0  0  0  0  0  0  0  0  0  0  0
   -5.7198   -0.8901    0.0000 H   0  0  0  0  0  0  0  0  0  0  0  0
   -1.8897    3.8953    0.0000 H   0  0  0  0  0  0  0  0  0  0  0  0
    0.1411    3.7215    0.0000 H   0  0  0  0  0  0  0  0  0  0  0  0
  1  2  1  0  0  0  0
  1 28  2  0  0  0  0
  1 30  1  0  0  0  0
  2  3  2  0  0  0  0
  2 14  1  0  0  0  0
  3  4  1  0  0  0  0
  3 31  1  0  0  0  0
  4  5  2  0  0  0  0
  4 32  1  0  0  0  0
  5  6  1  0  0  0  0
  5 14  1  0  0  0  0
  6  7  1  0  0  0  0
  6 33  1  0  0  0  0
  6 34  1  0  0  0  0
  7  8  1  0  0  0  0
  7 35  1  0  0  0  0
  7 36  1  0  0  0  0
  8  9  1  0  0  0  0
  8 37  1  0  0  0  0
  8 38  1  0  0  0  0
  9 10  1  0  0  0  0
  9 39  1  0  0  0  0
  9 40  1  0  0  0  0
 10 11  1  0  0  0  0
 10 41  1  0  0  0  0
 10 42  1  0  0  0  0
 11 12  1  0  0  0  0
 11 43  1  0  0  0  0
 11 44  1  0  0  0  0
 12 13  1  0  0  0  0
 12 45  1  0  0  0  0
 12 46  1  0  0  0  0
 13 47  1  0  0  0  0
 13 48  1  0  0  0  0
 13 49  1  0  0  0  0
 14 15  1  0  0  0  0
 15 16  1  0  0  0  0
 15 17  1  0  0  0  0
 15 29  1  0  0  0  0
 17 18  2  0  0  0  0
 17 28  1  0  0  0  0
 18 19  1  0  0  0  0
 18 26  1  0  0  0  0
 19 20  1  0  0  0  0
 19 50  1  0  0  0  0
 19 51  1  0  0  0  0
 20 21  1  0  0  0  0
 20 52  1  0  0  0  0
 20 53  1  0  0  0  0
 21 22  1  0  0  0  0
 21 54  1  0  0  0  0
 21 55  1  0  0  0  0
 22 23  1  0  0  0  0
 22 56  1  0  0  0  0
 22 57  1  0  0  0  0
 23 24  1  0  0  0  0
 23 25  2  0  0  0  0
 24 58  1  0  0  0  0
 26 27  2  0  0  0  0
 26 59  1  0  0  0  0
 27 28  1  0  0  0  0
 27 60  1  0  0  0  0
M  CHG  2  15  -1  17   1
M  END
>  <DRUGBANK_ID>
DB07509

>  <COMMON_NAME>
difluoro(5-{2-[(5-octyl-1H-pyrrol-2-yl-kappaN)methylidene]-2H-pyrrol-5-yl-kappaN}pentanoato)boron

$$$$
