11X
 OpenBabel10282417072D

 26 27  0  0  0  0  0  0  0  0999 V2000
   -1.5900    2.1614    0.0000 N   0  0  0  0  0  0  0  0  0  0  0  0
    1.2678   -0.3136    0.0000 C   0  0  0  0  0  0  0  0  0  0  0  0
    1.9823   -0.7261    0.0000 C   0  0  0  0  0  0  0  0  0  0  0  0
    0.5534   -0.7261    0.0000 C   0  0  0  0  0  0  0  0  0  0  0  0
    0.5534   -1.5511    0.0000 C   0  0  0  0  0  0  0  0  0  0  0  0
    1.9823   -1.5511    0.0000 C   0  0  0  0  0  0  0  0  0  0  0  0
    1.2678   -1.9636    0.0000 C   0  0  0  0  0  0  0  0  0  0  0  0
   -0.8756    1.7489    0.0000 C   0  0  0  0  0  0  0  0  0  0  0  0
   -1.5900    0.5114    0.0000 C   0  0  0  0  0  0  0  0  0  0  0  0
   -2.3045    0.9239    0.0000 C   0  0  0  0  0  0  0  0  0  0  0  0
   -2.3045    1.7489    0.0000 C   0  0  0  0  0  0  0  0  0  0  0  0
   -0.1611    0.5114    0.0000 C   0  0  0  0  0  0  0  0  0  0  0  0
   -0.8756    0.9239    0.0000 C   0  0  0  0  0  0  0  0  0  0  0  0
   -0.1611   -0.3136    0.0000 N   0  0  0  0  0  0  0  0  0  0  0  0
    1.2678    0.7184    0.0000 H   0  0  0  0  0  0  0  0  0  0  0  0
    2.8760   -0.2101    0.0000 H   0  0  0  0  0  0  0  0  0  0  0  0
   -0.3403   -2.0671    0.0000 H   0  0  0  0  0  0  0  0  0  0  0  0
    2.8760   -2.0671    0.0000 H   0  0  0  0  0  0  0  0  0  0  0  0
    1.2678   -2.9956    0.0000 H   0  0  0  0  0  0  0  0  0  0  0  0
    0.0181    2.2649    0.0000 H   0  0  0  0  0  0  0  0  0  0  0  0
   -1.5900   -0.5206    0.0000 H   0  0  0  0  0  0  0  0  0  0  0  0
   -3.1982    0.4079    0.0000 H   0  0  0  0  0  0  0  0  0  0  0  0
   -3.1982    2.2649    0.0000 H   0  0  0  0  0  0  0  0  0  0  0  0
    0.7655    1.0464    0.0000 H   0  0  0  0  0  0  0  0  0  0  0  0
    0.7655   -0.0236    0.0000 H   0  0  0  0  0  0  0  0  0  0  0  0
   -1.0137   -0.8059    0.0000 H   0  0  0  0  0  0  0  0  0  0  0  0
  1  8  2  0  0  0  0
  1 11  1  0  0  0  0
  2  3  2  0  0  0  0
  2  4  1  0  0  0  0
  2 15  1  0  0  0  0
  3  6  1  0  0  0  0
  3 16  1  0  0  0  0
  4  5  2  0  0  0  0
  4 14  1  0  0  0  0
  5  7  1  0  0  0  0
  5 17  1  0  0  0  0
  6  7  2  0  0  0  0
  6 18  1  0  0  0  0
  7 19  1  0  0  0  0
  8 13  1  0  0  0  0
  8 20  1  0  0  0  0
  9 10  1  0  0  0  0
  9 13  2  0  0  0  0
  9 21  1  0  0  0  0
 10 11  2  0  0  0  0
 10 22  1  0  0  0  0
 11 23  1  0  0  0  0
 12 13  1  0  0  0  0
 12 14  1  0  0  0  0
 12 24  1  0  0  0  0
 12 25  1  0  0  0  0
 14 26  1  0  0  0  0
M  END
>  <DRUGBANK_ID>
DB06851

>  <COMMON_NAME>
N-(pyridin-3-ylmethyl)aniline

>  <UNII>
24B88BKX5U

$$$$
