
 OpenBabel10282417072D

 48 52  0  0  0  0  0  0  0  0999 V2000
   -1.4522   -0.3856    0.0000 C   0  0  1  0  0  0  0  0  0  0  0  0
   -2.1670    0.0267    0.0000 C   0  0  2  0  0  0  0  0  0  0  0  0
   -2.1670    0.8421    0.0000 C   0  0  0  0  0  0  0  0  0  0  0  0
   -1.4522    1.2544    0.0000 C   0  0  0  0  0  0  0  0  0  0  0  0
    1.3877    1.2544    0.0000 C   0  0  0  0  0  0  0  0  0  0  0  0
    2.1024    0.8421    0.0000 C   0  0  0  0  0  0  0  0  0  0  0  0
    2.1024    0.0267    0.0000 C   0  0  1  0  0  0  0  0  0  0  0  0
    1.9375   -0.7977    0.0000 C   0  0  0  0  0  0  0  0  0  0  0  0
    0.8381   -0.7977    0.0000 C   0  0  0  0  0  0  0  0  0  0  0  0
   -0.7468    0.8421    0.0000 C   0  0  2  0  0  0  0  0  0  0  0  0
    1.3877   -0.3856    0.0000 C   0  0  0  0  0  0  0  0  0  0  0  0
   -0.7468    0.0267    0.0000 C   0  0  2  0  0  0  0  0  0  0  0  0
    0.6731    0.8421    0.0000 C   0  0  1  0  0  0  0  0  0  0  0  0
   -0.0322   -0.3856    0.0000 C   0  0  1  0  0  0  0  0  0  0  0  0
    0.6731    0.0267    0.0000 C   0  0  2  0  0  0  0  0  0  0  0  0
   -0.7468   -0.8876    0.0000 H   0  0  0  0  0  0  0  0  0  0  0  0
   -2.8993   -0.3532    0.0000 O   0  0  0  0  0  0  0  0  0  0  0  0
   -1.4498   -1.0820    0.0000 C   0  0  0  0  0  0  0  0  0  0  0  0
   -0.0299   -1.2264    0.0000 C   0  0  0  0  0  0  0  0  0  0  0  0
    0.6994   -1.6448    0.0000 O   0  0  0  0  0  0  0  0  0  0  0  0
   -0.7570   -1.6489    0.0000 O   0  0  0  0  0  0  0  0  0  0  0  0
    2.4343   -1.4022    0.0000 C   0  0  0  0  0  0  0  0  0  0  0  0
    0.6804    1.6248    0.0000 H   0  0  0  0  0  0  0  0  0  0  0  0
   -0.7450    1.6489    0.0000 O   0  0  0  0  0  0  0  0  0  0  0  0
   -1.6739    0.3194    0.0000 C   0  0  0  0  0  0  0  0  0  0  0  0
   -1.0973    0.3675    0.0000 O   0  0  0  0  0  0  0  0  0  0  0  0
    2.8993   -0.1867    0.0000 H   0  0  0  0  0  0  0  0  0  0  0  0
   -2.1909   -1.0430    0.0000 H   0  0  0  0  0  0  0  0  0  0  0  0
   -3.0935    1.3773    0.0000 H   0  0  0  0  0  0  0  0  0  0  0  0
   -3.0937    0.3072    0.0000 H   0  0  0  0  0  0  0  0  0  0  0  0
   -1.4491    2.3244    0.0000 H   0  0  0  0  0  0  0  0  0  0  0  0
   -0.5234    1.7856    0.0000 H   0  0  0  0  0  0  0  0  0  0  0  0
    1.3877    2.3244    0.0000 H   0  0  0  0  0  0  0  0  0  0  0  0
    2.3142    1.7896    0.0000 H   0  0  0  0  0  0  0  0  0  0  0  0
    3.0290    1.3773    0.0000 H   0  0  0  0  0  0  0  0  0  0  0  0
    3.0291    0.3072    0.0000 H   0  0  0  0  0  0  0  0  0  0  0  0
    0.1598   -1.6252    0.0000 H   0  0  0  0  0  0  0  0  0  0  0  0
    1.2959   -1.7648    0.0000 H   0  0  0  0  0  0  0  0  0  0  0  0
    1.3877   -1.4556    0.0000 H   0  0  0  0  0  0  0  0  0  0  0  0
    2.3142   -0.9208    0.0000 H   0  0  0  0  0  0  0  0  0  0  0  0
   -0.9580   -0.9220    0.0000 H   0  0  0  0  0  0  0  0  0  0  0  0
   -3.7167    0.1691    0.0000 H   0  0  0  0  0  0  0  0  0  0  0  0
   -2.3746   -1.6202    0.0000 H   0  0  0  0  0  0  0  0  0  0  0  0
   -0.5213   -1.6138    0.0000 H   0  0  0  0  0  0  0  0  0  0  0  0
   -1.4461   -2.1520    0.0000 H   0  0  0  0  0  0  0  0  0  0  0  0
   -1.5698   -1.1827    0.0000 H   0  0  0  0  0  0  0  0  0  0  0  0
    2.0714   -2.3683    0.0000 H   0  0  0  0  0  0  0  0  0  0  0  0
    3.4524   -1.2334    0.0000 H   0  0  0  0  0  0  0  0  0  0  0  0
  1 12  1  0  0  0  0
  1 18  1  6  0  0  0
  1 25  1  0  0  0  0
  2  1  1  0  0  0  0
  2  3  1  0  0  0  0
  2 17  1  0  0  0  0
  2 28  1  6  0  0  0
  3  4  1  0  0  0  0
  3 29  1  0  0  0  0
  3 30  1  0  0  0  0
  4 10  1  0  0  0  0
  4 31  1  0  0  0  0
  4 32  1  0  0  0  0
  5 13  1  0  0  0  0
  5 33  1  0  0  0  0
  5 34  1  0  0  0  0
  6  5  1  0  0  0  0
  6 35  1  0  0  0  0
  6 36  1  0  0  0  0
  7  6  1  0  0  0  0
  7 11  1  0  0  0  0
  7  8  1  0  0  0  0
  7 27  1  6  0  0  0
  8  9  1  0  0  0  0
  9 37  1  0  0  0  0
  9 38  1  0  0  0  0
 10 24  1  6  0  0  0
 11 39  1  0  0  0  0
 11 40  1  0  0  0  0
 12 10  1  0  0  0  0
 12 16  1  1  0  0  0
 13 10  1  0  0  0  0
 13 23  1  1  0  0  0
 14 12  1  0  0  0  0
 14 19  1  0  0  0  0
 14 41  1  6  0  0  0
 15 13  1  0  0  0  0
 15 14  1  0  0  0  0
 15 11  1  6  0  0  0
 15  9  1  0  0  0  0
 17 42  1  0  0  0  0
 18 43  1  0  0  0  0
 18 44  1  0  0  0  0
 18 45  1  0  0  0  0
 20 19  2  0  0  0  0
 21 19  1  0  0  0  0
 21 46  1  0  0  0  0
 22  8  2  0  0  0  0
 22 47  1  0  0  0  0
 22 48  1  0  0  0  0
 25 24  1  0  0  0  0
 26 25  2  0  0  0  0
M  END
>  <DRUGBANK_ID>
DB07815

>  <COMMON_NAME>
Gibberellin A4

>  <CAS_NUMBER>
468-44-0

>  <UNII>
1360M56KLC

>  <SYNONYMS>
2β,4a-dihydroxy-1-methyl-8-methylene-4aα,4bβ-gibbane-1α,10β-dicarboxylic acid, 1,4a-lactone; GA4; Gibberellin 4

$$$$
