
 OpenBabel10282417072D

 75 79  0  0  1  0  0  0  0  0999 V2000
    3.5581   -4.8543    0.0000 C   0  0  0  0  0  0  0  0  0  0  0  0
    0.1268   -5.9305    0.0000 C   0  0  0  0  0  0  0  0  0  0  0  0
    2.7376   -4.7681    0.0000 C   0  0  0  0  0  0  0  0  0  0  0  0
    4.2086   -2.0195    0.0000 C   0  0  0  0  0  0  0  0  0  0  0  0
    3.7670   -0.6605    0.0000 C   0  0  0  0  0  0  0  0  0  0  0  0
    2.8579    0.0000    0.0000 C   0  0  0  0  0  0  0  0  0  0  0  0
    1.4289    0.0000    0.0000 C   0  0  0  0  0  0  0  0  0  0  0  0
    4.9932   -1.7646    0.0000 C   0  0  0  0  0  0  0  0  0  0  0  0
    4.5516   -0.4056    0.0000 C   0  0  0  0  0  0  0  0  0  0  0  0
    2.8579    0.8250    0.0000 C   0  0  0  0  0  0  0  0  0  0  0  0
    1.4289    0.8250    0.0000 C   0  0  0  0  0  0  0  0  0  0  0  0
   -0.0594   -3.7557    0.0000 C   0  0  0  0  0  0  0  0  0  0  0  0
    0.4255   -3.0882    0.0000 C   0  0  0  0  0  0  0  0  0  0  0  0
   -0.3633   -3.3785    0.0000 C   0  0  0  0  0  0  0  0  0  0  0  0
   -1.3195   -2.3166    0.0000 C   0  0  0  0  0  0  0  0  0  0  0  0
    0.2498   -2.8265    0.0000 C   0  0  0  0  0  0  0  0  0  0  0  0
   -0.7064   -1.7646    0.0000 C   0  0  0  0  0  0  0  0  0  0  0  0
   -1.7610   -3.6756    0.0000 C   0  0  0  0  0  0  0  0  0  0  0  0
   -2.5456   -3.4207    0.0000 C   0  0  0  0  0  0  0  0  0  0  0  0
    1.0966   -4.5956    0.0000 C   0  0  0  0  0  0  0  0  0  0  0  0
    3.5955   -1.4675    0.0000 C   0  0  0  0  0  0  0  0  0  0  0  0
    2.1434   -0.4125    0.0000 C   0  0  0  0  0  0  0  0  0  0  0  0
    5.1647   -0.9576    0.0000 C   0  0  0  0  0  0  0  0  0  0  0  0
    2.1434    1.2375    0.0000 C   0  0  0  0  0  0  0  0  0  0  0  0
    0.2761   -4.5094    0.0000 C   0  0  0  0  0  0  0  0  0  0  0  0
    1.2460   -3.1745    0.0000 C   0  0  0  0  0  0  0  0  0  0  0  0
    1.5815   -3.9282    0.0000 C   0  0  0  0  0  0  0  0  0  0  0  0
    2.8109   -1.7224    0.0000 C   0  0  1  0  0  0  0  0  0  0  0  0
    2.1434   -1.2375    0.0000 C   0  0  2  0  0  0  0  0  0  0  0  0
    1.7309   -2.5070    0.0000 C   0  0  0  0  0  0  0  0  0  0  0  0
    0.6914   -1.4675    0.0000 C   0  0  0  0  0  0  0  0  0  0  0  0
    5.9493   -0.7027    0.0000 Br  0  0  0  0  0  0  0  0  0  0  0  0
    2.1434    2.0625    0.0000 Br  0  0  0  0  0  0  0  0  0  0  0  0
    2.5559   -2.5070    0.0000 N   0  0  0  0  0  0  0  0  0  0  0  0
   -1.1479   -3.1236    0.0000 N   0  0  0  0  0  0  0  0  0  0  0  0
    0.0783   -2.0195    0.0000 N   0  0  0  0  0  0  0  0  0  0  0  0
    1.4760   -1.7224    0.0000 N   0  0  0  0  0  0  0  0  0  0  0  0
   -3.1587   -3.9727    0.0000 O   0  0  0  0  0  0  0  0  0  0  0  0
    0.5198   -0.6605    0.0000 O   0  0  0  0  0  0  0  0  0  0  0  0
   -0.2088   -5.1768    0.0000 O   0  0  0  0  0  0  0  0  0  0  0  0
    2.4020   -4.0144    0.0000 O   0  0  0  0  0  0  0  0  0  0  0  0
    2.6534   -0.9126    0.0000 H   0  0  0  0  0  0  0  0  0  0  0  0
    2.7061   -0.6341    0.0000 H   0  0  0  0  0  0  0  0  0  0  0  0
    3.9934   -5.8318    0.0000 H   0  0  0  0  0  0  0  0  0  0  0  0
    4.1870   -3.9886    0.0000 H   0  0  0  0  0  0  0  0  0  0  0  0
    4.6222   -4.9661    0.0000 H   0  0  0  0  0  0  0  0  0  0  0  0
   -0.5021   -6.7962    0.0000 H   0  0  0  0  0  0  0  0  0  0  0  0
    1.1909   -6.0423    0.0000 H   0  0  0  0  0  0  0  0  0  0  0  0
    0.5620   -6.9080    0.0000 H   0  0  0  0  0  0  0  0  0  0  0  0
    2.1087   -5.6338    0.0000 H   0  0  0  0  0  0  0  0  0  0  0  0
    1.6735   -4.6563    0.0000 H   0  0  0  0  0  0  0  0  0  0  0  0
    3.9940   -3.0289    0.0000 H   0  0  0  0  0  0  0  0  0  0  0  0
    3.0001    0.0300    0.0000 H   0  0  0  0  0  0  0  0  0  0  0  0
    3.7516   -0.5160    0.0000 H   0  0  0  0  0  0  0  0  0  0  0  0
    0.5352   -0.5160    0.0000 H   0  0  0  0  0  0  0  0  0  0  0  0
    5.7601   -2.4551    0.0000 H   0  0  0  0  0  0  0  0  0  0  0  0
    4.7662    0.6038    0.0000 H   0  0  0  0  0  0  0  0  0  0  0  0
    3.7516    1.3410    0.0000 H   0  0  0  0  0  0  0  0  0  0  0  0
    0.5352    1.3410    0.0000 H   0  0  0  0  0  0  0  0  0  0  0  0
   -1.0857   -3.6478    0.0000 H   0  0  0  0  0  0  0  0  0  0  0  0
    0.0058   -2.1454    0.0000 H   0  0  0  0  0  0  0  0  0  0  0  0
   -0.1408   -4.4251    0.0000 H   0  0  0  0  0  0  0  0  0  0  0  0
   -1.1585   -4.0945    0.0000 H   0  0  0  0  0  0  0  0  0  0  0  0
   -2.3371   -1.9860    0.0000 H   0  0  0  0  0  0  0  0  0  0  0  0
   -2.1146   -3.0326    0.0000 H   0  0  0  0  0  0  0  0  0  0  0  0
    1.2674   -3.1572    0.0000 H   0  0  0  0  0  0  0  0  0  0  0  0
    1.0450   -2.1106    0.0000 H   0  0  0  0  0  0  0  0  0  0  0  0
   -0.9289   -0.7180    0.0000 H   0  0  0  0  0  0  0  0  0  0  0  0
    0.0887   -1.0486    0.0000 H   0  0  0  0  0  0  0  0  0  0  0  0
   -1.5385   -4.7222    0.0000 H   0  0  0  0  0  0  0  0  0  0  0  0
   -0.7434   -4.0063    0.0000 H   0  0  0  0  0  0  0  0  0  0  0  0
   -2.7681   -2.3741    0.0000 H   0  0  0  0  0  0  0  0  0  0  0  0
   -3.5632   -3.0900    0.0000 H   0  0  0  0  0  0  0  0  0  0  0  0
    1.5164   -5.5384    0.0000 H   0  0  0  0  0  0  0  0  0  0  0  0
   -4.0812   -3.6729    0.0000 H   0  0  0  0  0  0  0  0  0  0  0  0
  1 44  1  0  0  0  0
  1 45  1  0  0  0  0
  1 46  1  0  0  0  0
  2 47  1  0  0  0  0
  2 48  1  0  0  0  0
  2 49  1  0  0  0  0
  3  1  1  0  0  0  0
  3 50  1  0  0  0  0
  3 51  1  0  0  0  0
  4 52  1  0  0  0  0
  5 53  1  0  0  0  0
  6 54  1  0  0  0  0
  7 55  1  0  0  0  0
  8  4  1  0  0  0  0
  8 56  1  0  0  0  0
  9  5  2  0  0  0  0
  9 57  1  0  0  0  0
 10  6  1  0  0  0  0
 10 58  1  0  0  0  0
 11  7  2  0  0  0  0
 11 59  1  0  0  0  0
 12 60  1  0  0  0  0
 13 12  2  0  0  0  0
 13 61  1  0  0  0  0
 14 62  1  0  0  0  0
 14 63  1  0  0  0  0
 15 64  1  0  0  0  0
 15 65  1  0  0  0  0
 16 14  1  0  0  0  0
 16 66  1  0  0  0  0
 16 67  1  0  0  0  0
 17 15  1  0  0  0  0
 17 68  1  0  0  0  0
 17 69  1  0  0  0  0
 18 70  1  0  0  0  0
 18 71  1  0  0  0  0
 19 18  1  0  0  0  0
 19 72  1  0  0  0  0
 19 73  1  0  0  0  0
 20 74  1  0  0  0  0
 21  4  2  0  0  0  0
 21  5  1  0  0  0  0
 22  6  2  0  0  0  0
 22  7  1  0  0  0  0
 23  8  2  0  0  0  0
 23  9  1  0  0  0  0
 24 10  2  0  0  0  0
 24 11  1  0  0  0  0
 25 12  1  0  0  0  0
 25 20  2  0  0  0  0
 26 13  1  0  0  0  0
 27 20  1  0  0  0  0
 27 26  2  0  0  0  0
 28 21  1  0  0  0  0
 28 42  1  1  0  0  0
 29 22  1  0  0  0  0
 29 28  1  0  0  0  0
 29 43  1  1  0  0  0
 30 26  1  0  0  0  0
 32 23  1  0  0  0  0
 33 24  1  0  0  0  0
 34 28  1  0  0  0  0
 34 30  2  0  0  0  0
 35 14  1  0  0  0  0
 35 15  1  0  0  0  0
 35 18  1  0  0  0  0
 36 16  1  0  0  0  0
 36 17  1  0  0  0  0
 36 31  1  0  0  0  0
 37 29  1  0  0  0  0
 37 30  1  0  0  0  0
 37 31  1  0  0  0  0
 38 19  1  0  0  0  0
 38 75  1  0  0  0  0
 39 31  2  0  0  0  0
 40  2  1  0  0  0  0
 40 25  1  0  0  0  0
 41  3  1  0  0  0  0
 41 27  1  0  0  0  0
M  END
>  <DRUGBANK_ID>
DB02872

>  <SECONDARY_ACCESSION_NUMBERS>
EXPT01878

>  <COMMON_NAME>
Cis-[4,5-Bis-(4-Bromophenyl)-2-(2-Ethoxy-4-Methoxyphenyl)-4,5-Dihydroimidazol-1-Yl]-[4-(2-Hydroxyethyl)Piperazin-1-Yl]Methanone

$$$$
