
 OpenBabel10282417072D

 70 73  0  0  0  0  0  0  0  0999 V2000
   -2.1434   -2.8875    0.0000 C   0  0  0  0  0  0  0  0  0  0  0  0
   -1.4289   -2.4750    0.0000 C   0  0  0  0  0  0  0  0  0  0  0  0
   -1.4289   -1.6500    0.0000 O   0  0  0  0  0  0  0  0  0  0  0  0
   -0.7145   -1.2375    0.0000 C   0  0  0  0  0  0  0  0  0  0  0  0
    0.0000   -1.6500    0.0000 C   0  0  0  0  0  0  0  0  0  0  0  0
    0.7145   -1.2375    0.0000 C   0  0  0  0  0  0  0  0  0  0  0  0
    0.7145   -0.4125    0.0000 C   0  0  0  0  0  0  0  0  0  0  0  0
    0.0000   -0.0000    0.0000 C   0  0  0  0  0  0  0  0  0  0  0  0
   -0.7145   -0.4125    0.0000 C   0  0  0  0  0  0  0  0  0  0  0  0
   -1.4289    0.0000    0.0000 N   0  0  0  0  0  0  0  0  0  0  0  0
   -2.1434   -0.4125    0.0000 C   0  0  0  0  0  0  0  0  0  0  0  0
   -2.8579    0.0000    0.0000 O   0  0  0  0  0  0  0  0  0  0  0  0
   -2.1434   -1.2375    0.0000 C   0  0  0  0  0  0  0  0  0  0  0  0
   -2.8579   -1.6500    0.0000 C   0  0  0  0  0  0  0  0  0  0  0  0
   -2.8579   -2.4750    0.0000 C   0  0  0  0  0  0  0  0  0  0  0  0
   -3.5724   -2.8875    0.0000 N   0  0  0  0  0  0  0  0  0  0  0  0
   -3.5724   -3.7125    0.0000 C   0  0  0  0  0  0  0  0  0  0  0  0
   -4.2868   -2.4750    0.0000 C   0  0  0  0  0  0  0  0  0  0  0  0
    1.4289   -0.0000    0.0000 C   0  0  0  0  0  0  0  0  0  0  0  0
    2.1434   -0.4125    0.0000 C   0  0  0  0  0  0  0  0  0  0  0  0
    2.1434   -1.2375    0.0000 C   0  0  0  0  0  0  0  0  0  0  0  0
    1.4289   -1.6500    0.0000 N   0  0  0  0  0  0  0  0  0  0  0  0
    2.8579   -0.0000    0.0000 C   0  0  0  0  0  0  0  0  0  0  0  0
    3.5724    0.4125    0.0000 N   0  0  0  0  0  0  0  0  0  0  0  0
    1.4289    0.8250    0.0000 N   0  0  0  0  0  0  0  0  0  0  0  0
    2.1434    1.2375    0.0000 C   0  0  0  0  0  0  0  0  0  0  0  0
    2.1434    2.0625    0.0000 C   0  0  0  0  0  0  0  0  0  0  0  0
    2.8579    2.4750    0.0000 C   0  0  0  0  0  0  0  0  0  0  0  0
    3.5724    2.0625    0.0000 C   0  0  0  0  0  0  0  0  0  0  0  0
    3.5724    1.2375    0.0000 C   0  0  0  0  0  0  0  0  0  0  0  0
    2.8579    0.8250    0.0000 C   0  0  0  0  0  0  0  0  0  0  0  0
    4.2868    0.8250    0.0000 Cl  0  0  0  0  0  0  0  0  0  0  0  0
    4.2868    2.4750    0.0000 O   0  0  0  0  0  0  0  0  0  0  0  0
    4.2868    3.3000    0.0000 C   0  0  0  0  0  0  0  0  0  0  0  0
    5.0013    3.7125    0.0000 C   0  0  0  0  0  0  0  0  0  0  0  0
    5.0013    4.5375    0.0000 C   0  0  0  0  0  0  0  0  0  0  0  0
    5.7158    4.9500    0.0000 C   0  0  0  0  0  0  0  0  0  0  0  0
    6.4302    4.5375    0.0000 C   0  0  0  0  0  0  0  0  0  0  0  0
    6.4302    3.7125    0.0000 C   0  0  0  0  0  0  0  0  0  0  0  0
    5.7158    3.3000    0.0000 C   0  0  0  0  0  0  0  0  0  0  0  0
    7.1447    3.3000    0.0000 F   0  0  0  0  0  0  0  0  0  0  0  0
   -3.0700   -2.3525    0.0000 H   0  0  0  0  0  0  0  0  0  0  0  0
   -2.1434   -3.9575    0.0000 H   0  0  0  0  0  0  0  0  0  0  0  0
   -3.0701   -3.4225    0.0000 H   0  0  0  0  0  0  0  0  0  0  0  0
   -0.5023   -3.0100    0.0000 H   0  0  0  0  0  0  0  0  0  0  0  0
   -0.5023   -1.9400    0.0000 H   0  0  0  0  0  0  0  0  0  0  0  0
    0.0000   -2.6820    0.0000 H   0  0  0  0  0  0  0  0  0  0  0  0
    0.0000    1.0320    0.0000 H   0  0  0  0  0  0  0  0  0  0  0  0
   -1.4289    0.9845    0.0000 H   0  0  0  0  0  0  0  0  0  0  0  0
   -1.2497   -1.7535    0.0000 H   0  0  0  0  0  0  0  0  0  0  0  0
   -3.7516   -1.1340    0.0000 H   0  0  0  0  0  0  0  0  0  0  0  0
   -1.9313   -3.0100    0.0000 H   0  0  0  0  0  0  0  0  0  0  0  0
   -2.8579   -3.5450    0.0000 H   0  0  0  0  0  0  0  0  0  0  0  0
   -4.4990   -4.2475    0.0000 H   0  0  0  0  0  0  0  0  0  0  0  0
   -2.6458   -4.2475    0.0000 H   0  0  0  0  0  0  0  0  0  0  0  0
   -3.5724   -4.7825    0.0000 H   0  0  0  0  0  0  0  0  0  0  0  0
   -4.2868   -1.4050    0.0000 H   0  0  0  0  0  0  0  0  0  0  0  0
   -5.2135   -3.0100    0.0000 H   0  0  0  0  0  0  0  0  0  0  0  0
   -5.2134   -1.9400    0.0000 H   0  0  0  0  0  0  0  0  0  0  0  0
    3.0371   -1.7535    0.0000 H   0  0  0  0  0  0  0  0  0  0  0  0
    0.5763    1.3173    0.0000 H   0  0  0  0  0  0  0  0  0  0  0  0
    1.2497    2.5785    0.0000 H   0  0  0  0  0  0  0  0  0  0  0  0
    2.8579    3.5070    0.0000 H   0  0  0  0  0  0  0  0  0  0  0  0
    2.8579   -0.2070    0.0000 H   0  0  0  0  0  0  0  0  0  0  0  0
    3.3602    3.8350    0.0000 H   0  0  0  0  0  0  0  0  0  0  0  0
    4.2868    4.3700    0.0000 H   0  0  0  0  0  0  0  0  0  0  0  0
    4.1076    5.0535    0.0000 H   0  0  0  0  0  0  0  0  0  0  0  0
    5.7158    5.9820    0.0000 H   0  0  0  0  0  0  0  0  0  0  0  0
    7.3239    5.0535    0.0000 H   0  0  0  0  0  0  0  0  0  0  0  0
    5.7158    2.2680    0.0000 H   0  0  0  0  0  0  0  0  0  0  0  0
  1  2  1  0  0  0  0
  1 42  1  0  0  0  0
  1 43  1  0  0  0  0
  1 44  1  0  0  0  0
  2  3  1  0  0  0  0
  2 45  1  0  0  0  0
  2 46  1  0  0  0  0
  3  4  1  0  0  0  0
  4  5  1  0  0  0  0
  4  9  2  0  0  0  0
  5  6  2  0  0  0  0
  5 47  1  0  0  0  0
  6  7  1  0  0  0  0
  6 22  1  0  0  0  0
  7  8  2  0  0  0  0
  7 19  1  0  0  0  0
  8  9  1  0  0  0  0
  8 48  1  0  0  0  0
  9 10  1  0  0  0  0
 10 11  1  0  0  0  0
 10 49  1  0  0  0  0
 11 12  2  0  0  0  0
 11 13  1  0  0  0  0
 13 14  2  0  0  0  0
 13 50  1  0  0  0  0
 14 15  1  0  0  0  0
 14 51  1  0  0  0  0
 15 16  1  0  0  0  0
 15 52  1  0  0  0  0
 15 53  1  0  0  0  0
 16 17  1  0  0  0  0
 16 18  1  0  0  0  0
 17 54  1  0  0  0  0
 17 55  1  0  0  0  0
 17 56  1  0  0  0  0
 18 57  1  0  0  0  0
 18 58  1  0  0  0  0
 18 59  1  0  0  0  0
 19 20  2  0  0  0  0
 19 25  1  0  0  0  0
 20 21  1  0  0  0  0
 20 23  1  0  0  0  0
 21 22  2  0  0  0  0
 21 60  1  0  0  0  0
 23 24  3  0  0  0  0
 25 26  1  0  0  0  0
 25 61  1  0  0  0  0
 26 27  2  0  0  0  0
 26 31  1  0  0  0  0
 27 28  1  0  0  0  0
 27 62  1  0  0  0  0
 28 29  2  0  0  0  0
 28 63  1  0  0  0  0
 29 30  1  0  0  0  0
 29 33  1  0  0  0  0
 30 31  2  0  0  0  0
 30 32  1  0  0  0  0
 31 64  1  0  0  0  0
 33 34  1  0  0  0  0
 34 35  1  0  0  0  0
 34 65  1  0  0  0  0
 34 66  1  0  0  0  0
 35 36  2  0  0  0  0
 35 40  1  0  0  0  0
 36 37  1  0  0  0  0
 36 67  1  0  0  0  0
 37 38  2  0  0  0  0
 37 68  1  0  0  0  0
 38 39  1  0  0  0  0
 38 69  1  0  0  0  0
 39 40  2  0  0  0  0
 39 41  1  0  0  0  0
 40 70  1  0  0  0  0
M  END
>  <DRUGBANK_ID>
DB13002

>  <COMMON_NAME>
HKI-357

>  <CAS_NUMBER>
848133-17-5

>  <UNII>
39R3638KZ6

$$$$
