
 OpenBabel10282417072D

 51 54  0  0  0  0  0  0  0  0999 V2000
    5.9723   -2.9287    0.0000 C   0  0  0  0  0  0  0  0  0  0  0  0
    5.9723   -3.7537    0.0000 N   0  0  0  0  0  0  0  0  0  0  0  0
    6.6397   -4.2386    0.0000 C   0  0  0  0  0  0  0  0  0  0  0  0
    6.3848   -5.0233    0.0000 C   0  0  0  0  0  0  0  0  0  0  0  0
    5.5598   -5.0233    0.0000 C   0  0  0  0  0  0  0  0  0  0  0  0
    5.3049   -4.2386    0.0000 N   0  0  0  0  0  0  0  0  0  0  0  0
    7.4244   -3.9837    0.0000 C   0  0  0  0  0  0  0  0  0  0  0  0
    7.5959   -3.1767    0.0000 C   0  0  0  0  0  0  0  0  0  0  0  0
    8.3805   -2.9218    0.0000 C   0  0  0  0  0  0  0  0  0  0  0  0
    8.9936   -3.4738    0.0000 C   0  0  0  0  0  0  0  0  0  0  0  0
    8.8221   -4.2808    0.0000 C   0  0  0  0  0  0  0  0  0  0  0  0
    8.0375   -4.5357    0.0000 C   0  0  0  0  0  0  0  0  0  0  0  0
    9.7782   -3.2189    0.0000 S   0  0  0  0  0  0  0  0  0  0  0  0
    9.9498   -2.4119    0.0000 C   0  0  0  0  0  0  0  0  0  0  0  0
    9.3367   -1.8599    0.0000 C   0  0  0  0  0  0  0  0  0  0  0  0
    9.5082   -1.0529    0.0000 C   0  0  0  0  0  0  0  0  0  0  0  0
   10.2928   -0.7980    0.0000 C   0  0  0  0  0  0  0  0  0  0  0  0
   10.9059   -1.3500    0.0000 C   0  0  0  0  0  0  0  0  0  0  0  0
   10.7344   -2.1570    0.0000 C   0  0  0  0  0  0  0  0  0  0  0  0
   11.6905   -1.0951    0.0000 C   0  0  0  0  0  0  0  0  0  0  0  0
   12.3406   -0.5871    0.0000 C   0  0  0  0  0  0  0  0  0  0  0  0
   13.1056   -0.8962    0.0000 C   0  0  0  0  0  0  0  0  0  0  0  0
   13.2204   -1.7132    0.0000 O   0  0  0  0  0  0  0  0  0  0  0  0
   12.5703   -2.2211    0.0000 C   0  0  0  0  0  0  0  0  0  0  0  0
   11.8053   -1.9120    0.0000 C   0  0  0  0  0  0  0  0  0  0  0  0
   11.3032   -0.3666    0.0000 C   0  0  0  0  0  0  0  0  0  0  0  0
   11.7404    0.3330    0.0000 O   0  0  0  0  0  0  0  0  0  0  0  0
   10.4787   -0.3378    0.0000 N   0  0  0  0  0  0  0  0  0  0  0  0
    6.8989   -2.3937    0.0000 H   0  0  0  0  0  0  0  0  0  0  0  0
    5.0457   -2.3937    0.0000 H   0  0  0  0  0  0  0  0  0  0  0  0
    5.9723   -1.8587    0.0000 H   0  0  0  0  0  0  0  0  0  0  0  0
    6.9914   -5.8582    0.0000 H   0  0  0  0  0  0  0  0  0  0  0  0
    4.9532   -5.8582    0.0000 H   0  0  0  0  0  0  0  0  0  0  0  0
    6.8290   -2.4862    0.0000 H   0  0  0  0  0  0  0  0  0  0  0  0
    8.5951   -1.9124    0.0000 H   0  0  0  0  0  0  0  0  0  0  0  0
    9.5890   -4.9713    0.0000 H   0  0  0  0  0  0  0  0  0  0  0  0
    7.8229   -5.5451    0.0000 H   0  0  0  0  0  0  0  0  0  0  0  0
    8.3552   -2.1788    0.0000 H   0  0  0  0  0  0  0  0  0  0  0  0
    8.7413   -0.3624    0.0000 H   0  0  0  0  0  0  0  0  0  0  0  0
   10.5074    0.2114    0.0000 H   0  0  0  0  0  0  0  0  0  0  0  0
   11.5013   -2.8475    0.0000 H   0  0  0  0  0  0  0  0  0  0  0  0
   12.1917    0.4725    0.0000 H   0  0  0  0  0  0  0  0  0  0  0  0
   13.1838    0.0717    0.0000 H   0  0  0  0  0  0  0  0  0  0  0  0
   13.9488   -0.2375    0.0000 H   0  0  0  0  0  0  0  0  0  0  0  0
   14.0977   -1.2971    0.0000 H   0  0  0  0  0  0  0  0  0  0  0  0
   12.7192   -3.2807    0.0000 H   0  0  0  0  0  0  0  0  0  0  0  0
   11.7271   -2.8798    0.0000 H   0  0  0  0  0  0  0  0  0  0  0  0
   10.9621   -2.5707    0.0000 H   0  0  0  0  0  0  0  0  0  0  0  0
   10.8132   -1.5112    0.0000 H   0  0  0  0  0  0  0  0  0  0  0  0
   10.0165    0.5315    0.0000 H   0  0  0  0  0  0  0  0  0  0  0  0
    9.9570   -1.1727    0.0000 H   0  0  0  0  0  0  0  0  0  0  0  0
  1  2  1  0  0  0  0
  1 29  1  0  0  0  0
  1 30  1  0  0  0  0
  1 31  1  0  0  0  0
  2  3  1  0  0  0  0
  2  6  1  0  0  0  0
  3  4  2  0  0  0  0
  3  7  1  0  0  0  0
  4  5  1  0  0  0  0
  4 32  1  0  0  0  0
  5  6  2  0  0  0  0
  5 33  1  0  0  0  0
  7  8  2  0  0  0  0
  7 12  1  0  0  0  0
  8  9  1  0  0  0  0
  8 34  1  0  0  0  0
  9 10  2  0  0  0  0
  9 35  1  0  0  0  0
 10 11  1  0  0  0  0
 10 13  1  0  0  0  0
 11 12  2  0  0  0  0
 11 36  1  0  0  0  0
 12 37  1  0  0  0  0
 13 14  1  0  0  0  0
 14 15  2  0  0  0  0
 14 19  1  0  0  0  0
 15 16  1  0  0  0  0
 15 38  1  0  0  0  0
 16 17  2  0  0  0  0
 16 39  1  0  0  0  0
 17 18  1  0  0  0  0
 17 40  1  0  0  0  0
 18 19  2  0  0  0  0
 18 20  1  0  0  0  0
 19 41  1  0  0  0  0
 20 21  1  0  0  0  0
 20 25  1  0  0  0  0
 20 26  1  0  0  0  0
 21 22  1  0  0  0  0
 21 42  1  0  0  0  0
 21 43  1  0  0  0  0
 22 23  1  0  0  0  0
 22 44  1  0  0  0  0
 22 45  1  0  0  0  0
 23 24  1  0  0  0  0
 24 25  1  0  0  0  0
 24 46  1  0  0  0  0
 24 47  1  0  0  0  0
 25 48  1  0  0  0  0
 25 49  1  0  0  0  0
 26 27  2  0  0  0  0
 26 28  1  0  0  0  0
 28 50  1  0  0  0  0
 28 51  1  0  0  0  0
M  END
>  <DRUGBANK_ID>
DB11645

>  <COMMON_NAME>
PF-4191834

>  <CAS_NUMBER>
1029317-21-2

>  <UNII>
YX55DXP4T1

$$$$
