7X7
 OpenBabel10282417072D

 50 54  0  0  0  0  0  0  0  0999 V2000
    9.7457    1.2681    0.0000 Cl  0  0  0  0  0  0  0  0  0  0  0  0
    9.0313    0.8556    0.0000 C   0  0  0  0  0  0  0  0  0  0  0  0
    9.0313    0.0306    0.0000 C   0  0  0  0  0  0  0  0  0  0  0  0
    8.3168   -0.3819    0.0000 C   0  0  0  0  0  0  0  0  0  0  0  0
    7.6023    0.0306    0.0000 C   0  0  0  0  0  0  0  0  0  0  0  0
    6.8177   -0.2243    0.0000 O   0  0  0  0  0  0  0  0  0  0  0  0
    6.3328    0.4431    0.0000 C   0  0  0  0  0  0  0  0  0  0  0  0
    6.8177    1.1105    0.0000 O   0  0  0  0  0  0  0  0  0  0  0  0
    7.6023    0.8556    0.0000 C   0  0  0  0  0  0  0  0  0  0  0  0
    8.3168    1.2681    0.0000 C   0  0  0  0  0  0  0  0  0  0  0  0
    8.3168    2.0931    0.0000 N   0  0  0  0  0  0  0  0  0  0  0  0
    7.6023    2.5056    0.0000 C   0  0  0  0  0  0  0  0  0  0  0  0
    6.8879    2.0931    0.0000 C   0  0  0  0  0  0  0  0  0  0  0  0
    6.1734    2.5056    0.0000 C   0  0  0  0  0  0  0  0  0  0  0  0
    6.1734    3.3306    0.0000 N   0  0  0  0  0  0  0  0  0  0  0  0
    6.8879    3.7431    0.0000 C   0  0  0  0  0  0  0  0  0  0  0  0
    6.8879    4.5681    0.0000 N   0  0  0  0  0  0  0  0  0  0  0  0
    6.1734    4.9806    0.0000 C   0  0  0  0  0  0  0  0  0  0  0  0
    5.4589    4.5681    0.0000 C   0  0  0  0  0  0  0  0  0  0  0  0
    4.7444    4.9806    0.0000 C   0  0  0  0  0  0  0  0  0  0  0  0
    4.7444    5.8056    0.0000 C   0  0  0  0  0  0  0  0  0  0  0  0
    5.4589    6.2181    0.0000 C   0  0  0  0  0  0  0  0  0  0  0  0
    6.1734    5.8056    0.0000 C   0  0  0  0  0  0  0  0  0  0  0  0
    5.4589    7.0431    0.0000 N   0  0  0  0  0  0  0  0  0  0  0  0
    4.7444    7.4556    0.0000 C   0  0  0  0  0  0  0  0  0  0  0  0
    4.7444    8.2806    0.0000 C   0  0  0  0  0  0  0  0  0  0  0  0
    5.4589    8.6931    0.0000 O   0  0  0  0  0  0  0  0  0  0  0  0
    6.1734    8.2806    0.0000 C   0  0  0  0  0  0  0  0  0  0  0  0
    6.1734    7.4556    0.0000 C   0  0  0  0  0  0  0  0  0  0  0  0
    7.6023    3.3306    0.0000 N   0  0  0  0  0  0  0  0  0  0  0  0
    9.9250   -0.4854    0.0000 H   0  0  0  0  0  0  0  0  0  0  0  0
    8.3168   -1.4139    0.0000 H   0  0  0  0  0  0  0  0  0  0  0  0
    5.2628    0.4431    0.0000 H   0  0  0  0  0  0  0  0  0  0  0  0
    5.8470    1.3965    0.0000 H   0  0  0  0  0  0  0  0  0  0  0  0
    9.1694    2.5854    0.0000 H   0  0  0  0  0  0  0  0  0  0  0  0
    6.8879    1.0611    0.0000 H   0  0  0  0  0  0  0  0  0  0  0  0
    5.2797    1.9896    0.0000 H   0  0  0  0  0  0  0  0  0  0  0  0
    7.7405    5.0604    0.0000 H   0  0  0  0  0  0  0  0  0  0  0  0
    5.4589    3.5361    0.0000 H   0  0  0  0  0  0  0  0  0  0  0  0
    3.8507    4.4646    0.0000 H   0  0  0  0  0  0  0  0  0  0  0  0
    3.8507    6.3216    0.0000 H   0  0  0  0  0  0  0  0  0  0  0  0
    7.0671    6.3216    0.0000 H   0  0  0  0  0  0  0  0  0  0  0  0
    3.8178    6.9206    0.0000 H   0  0  0  0  0  0  0  0  0  0  0  0
    3.8178    7.9906    0.0000 H   0  0  0  0  0  0  0  0  0  0  0  0
    3.8178    8.8156    0.0000 H   0  0  0  0  0  0  0  0  0  0  0  0
    4.7444    9.3506    0.0000 H   0  0  0  0  0  0  0  0  0  0  0  0
    7.1000    8.8156    0.0000 H   0  0  0  0  0  0  0  0  0  0  0  0
    7.1000    7.7456    0.0000 H   0  0  0  0  0  0  0  0  0  0  0  0
    7.1000    6.9206    0.0000 H   0  0  0  0  0  0  0  0  0  0  0  0
    7.1000    7.9906    0.0000 H   0  0  0  0  0  0  0  0  0  0  0  0
  1  2  1  0  0  0  0
  2  3  1  0  0  0  0
  2 10  2  0  0  0  0
  3  4  2  0  0  0  0
  3 31  1  0  0  0  0
  4  5  1  0  0  0  0
  4 32  1  0  0  0  0
  5  6  1  0  0  0  0
  5  9  2  0  0  0  0
  6  7  1  0  0  0  0
  7  8  1  0  0  0  0
  7 33  1  0  0  0  0
  7 34  1  0  0  0  0
  8  9  1  0  0  0  0
  9 10  1  0  0  0  0
 10 11  1  0  0  0  0
 11 12  1  0  0  0  0
 11 35  1  0  0  0  0
 12 13  1  0  0  0  0
 12 30  2  0  0  0  0
 13 14  2  0  0  0  0
 13 36  1  0  0  0  0
 14 15  1  0  0  0  0
 14 37  1  0  0  0  0
 15 16  2  0  0  0  0
 16 17  1  0  0  0  0
 16 30  1  0  0  0  0
 17 18  1  0  0  0  0
 17 38  1  0  0  0  0
 18 19  1  0  0  0  0
 18 23  2  0  0  0  0
 19 20  2  0  0  0  0
 19 39  1  0  0  0  0
 20 21  1  0  0  0  0
 20 40  1  0  0  0  0
 21 22  2  0  0  0  0
 21 41  1  0  0  0  0
 22 23  1  0  0  0  0
 22 24  1  0  0  0  0
 23 42  1  0  0  0  0
 24 25  1  0  0  0  0
 24 29  1  0  0  0  0
 25 26  1  0  0  0  0
 25 43  1  0  0  0  0
 25 44  1  0  0  0  0
 26 27  1  0  0  0  0
 26 45  1  0  0  0  0
 26 46  1  0  0  0  0
 27 28  1  0  0  0  0
 28 29  1  0  0  0  0
 28 47  1  0  0  0  0
 28 48  1  0  0  0  0
 29 49  1  0  0  0  0
 29 50  1  0  0  0  0
M  END
>  <DRUGBANK_ID>
DB07255

>  <COMMON_NAME>
N'-(5-CHLORO-1,3-BENZODIOXOL-4-YL)-N-(3-MORPHOLIN-4-YLPHENYL)PYRIMIDINE-2,4-DIAMINE

$$$$
