
 OpenBabel10282417072D

 53 56  0  0  0  0  0  0  0  0999 V2000
    0.7145   -0.4125    0.0000 C   0  0  0  0  0  0  0  0  0  0  0  0
    0.7145   -1.2375    0.0000 C   0  0  0  0  0  0  0  0  0  0  0  0
    1.3819   -1.7224    0.0000 O   0  0  0  0  0  0  0  0  0  0  0  0
    1.1270   -2.5070    0.0000 N   0  0  0  0  0  0  0  0  0  0  0  0
    0.3020   -2.5070    0.0000 C   0  0  0  0  0  0  0  0  0  0  0  0
    0.0470   -1.7224    0.0000 C   0  0  0  0  0  0  0  0  0  0  0  0
   -0.7376   -1.4675    0.0000 C   0  0  0  0  0  0  0  0  0  0  0  0
   -0.9091   -0.6605    0.0000 O   0  0  0  0  0  0  0  0  0  0  0  0
   -1.6937   -0.4056    0.0000 C   0  0  0  0  0  0  0  0  0  0  0  0
   -2.3068   -0.9576    0.0000 C   0  0  0  0  0  0  0  0  0  0  0  0
   -3.0915   -0.7027    0.0000 C   0  0  0  0  0  0  0  0  0  0  0  0
   -3.2630    0.1043    0.0000 C   0  0  0  0  0  0  0  0  0  0  0  0
   -2.6499    0.6563    0.0000 N   0  0  0  0  0  0  0  0  0  0  0  0
   -1.8653    0.4014    0.0000 N   0  0  0  0  0  0  0  0  0  0  0  0
   -4.0476    0.3592    0.0000 C   0  0  0  0  0  0  0  0  0  0  0  0
   -4.6607   -0.1928    0.0000 O   0  0  0  0  0  0  0  0  0  0  0  0
   -4.2191    1.1662    0.0000 N   0  0  0  0  0  0  0  0  0  0  0  0
   -5.0038    1.4212    0.0000 C   0  0  0  0  0  0  0  0  0  0  0  0
   -5.6168    0.8691    0.0000 C   0  0  0  0  0  0  0  0  0  0  0  0
   -6.4015    1.1241    0.0000 C   0  0  0  0  0  0  0  0  0  0  0  0
   -6.5730    1.9310    0.0000 O   0  0  0  0  0  0  0  0  0  0  0  0
   -5.9599    2.4831    0.0000 C   0  0  0  0  0  0  0  0  0  0  0  0
   -5.1753    2.2281    0.0000 C   0  0  0  0  0  0  0  0  0  0  0  0
   -0.1830   -3.1745    0.0000 C   0  0  0  0  0  0  0  0  0  0  0  0
    0.1526   -3.9282    0.0000 C   0  0  0  0  0  0  0  0  0  0  0  0
   -0.3323   -4.5956    0.0000 C   0  0  0  0  0  0  0  0  0  0  0  0
   -1.1528   -4.5094    0.0000 C   0  0  0  0  0  0  0  0  0  0  0  0
   -1.6377   -5.1768    0.0000 C   0  0  0  0  0  0  0  0  0  0  0  0
   -1.4884   -3.7557    0.0000 N   0  0  0  0  0  0  0  0  0  0  0  0
   -1.0034   -3.0882    0.0000 C   0  0  0  0  0  0  0  0  0  0  0  0
    1.6411    0.1225    0.0000 H   0  0  0  0  0  0  0  0  0  0  0  0
   -0.2121    0.1225    0.0000 H   0  0  0  0  0  0  0  0  0  0  0  0
    0.7145    0.6575    0.0000 H   0  0  0  0  0  0  0  0  0  0  0  0
   -1.5328   -2.1835    0.0000 H   0  0  0  0  0  0  0  0  0  0  0  0
   -1.7552   -1.1368    0.0000 H   0  0  0  0  0  0  0  0  0  0  0  0
   -2.0922   -1.9670    0.0000 H   0  0  0  0  0  0  0  0  0  0  0  0
   -3.8584   -1.3933    0.0000 H   0  0  0  0  0  0  0  0  0  0  0  0
   -3.4874    1.8249    0.0000 H   0  0  0  0  0  0  0  0  0  0  0  0
   -6.0215    1.7518    0.0000 H   0  0  0  0  0  0  0  0  0  0  0  0
   -5.3943   -0.1775    0.0000 H   0  0  0  0  0  0  0  0  0  0  0  0
   -6.4120    0.1531    0.0000 H   0  0  0  0  0  0  0  0  0  0  0  0
   -7.1967    0.4082    0.0000 H   0  0  0  0  0  0  0  0  0  0  0  0
   -7.4191    1.4548    0.0000 H   0  0  0  0  0  0  0  0  0  0  0  0
   -6.1824    3.5297    0.0000 H   0  0  0  0  0  0  0  0  0  0  0  0
   -5.1647    3.1990    0.0000 H   0  0  0  0  0  0  0  0  0  0  0  0
   -4.3801    2.9440    0.0000 H   0  0  0  0  0  0  0  0  0  0  0  0
   -4.1577    1.8974    0.0000 H   0  0  0  0  0  0  0  0  0  0  0  0
    1.1789   -4.0361    0.0000 H   0  0  0  0  0  0  0  0  0  0  0  0
    0.0875   -5.5384    0.0000 H   0  0  0  0  0  0  0  0  0  0  0  0
   -2.7018   -5.0649    0.0000 H   0  0  0  0  0  0  0  0  0  0  0  0
   -1.2025   -6.1543    0.0000 H   0  0  0  0  0  0  0  0  0  0  0  0
   -2.2666   -6.0424    0.0000 H   0  0  0  0  0  0  0  0  0  0  0  0
   -1.4231   -2.1454    0.0000 H   0  0  0  0  0  0  0  0  0  0  0  0
  1  2  1  0  0  0  0
  1 31  1  0  0  0  0
  1 32  1  0  0  0  0
  1 33  1  0  0  0  0
  2  3  1  0  0  0  0
  2  6  2  0  0  0  0
  3  4  1  0  0  0  0
  4  5  2  0  0  0  0
  5  6  1  0  0  0  0
  5 24  1  0  0  0  0
  6  7  1  0  0  0  0
  7  8  1  0  0  0  0
  7 34  1  0  0  0  0
  7 35  1  0  0  0  0
  8  9  1  0  0  0  0
  9 10  2  0  0  0  0
  9 14  1  0  0  0  0
 10 11  1  0  0  0  0
 10 36  1  0  0  0  0
 11 12  2  0  0  0  0
 11 37  1  0  0  0  0
 12 13  1  0  0  0  0
 12 15  1  0  0  0  0
 13 14  2  0  0  0  0
 15 16  2  0  0  0  0
 15 17  1  0  0  0  0
 17 18  1  0  0  0  0
 17 38  1  0  0  0  0
 18 19  1  0  0  0  0
 18 23  1  0  0  0  0
 18 39  1  0  0  0  0
 19 20  1  0  0  0  0
 19 40  1  0  0  0  0
 19 41  1  0  0  0  0
 20 21  1  0  0  0  0
 20 42  1  0  0  0  0
 20 43  1  0  0  0  0
 21 22  1  0  0  0  0
 22 23  1  0  0  0  0
 22 44  1  0  0  0  0
 22 45  1  0  0  0  0
 23 46  1  0  0  0  0
 23 47  1  0  0  0  0
 24 25  2  0  0  0  0
 24 30  1  0  0  0  0
 25 26  1  0  0  0  0
 25 48  1  0  0  0  0
 26 27  2  0  0  0  0
 26 49  1  0  0  0  0
 27 28  1  0  0  0  0
 27 29  1  0  0  0  0
 28 50  1  0  0  0  0
 28 51  1  0  0  0  0
 28 52  1  0  0  0  0
 29 30  2  0  0  0  0
 30 53  1  0  0  0  0
M  END
>  <DRUGBANK_ID>
DB18708

>  <COMMON_NAME>
Alogabat

>  <CAS_NUMBER>
2230009-48-8

>  <UNII>
0HPA4GK3UH

>  <SYNONYMS>
3-pyridazinecarboxamide, 6-((5-methyl-3-(6-methyl-3-pyridinyl)-4-isoxazolyl)methoxy)-n-(tetrahydro-2h-pyran-4-yl)-; Alogabat

$$$$
