
 OpenBabel10282417072D

 44 47  0  0  0  0  0  0  0  0999 V2000
   -2.7964   -0.5740    0.0000 N   0  0  0  0  0  0  0  0  0  0  0  0
   -2.8784   -1.3941    0.0000 C   0  0  0  0  0  0  0  0  0  0  0  0
   -3.6903   -1.5663    0.0000 C   0  0  0  0  0  0  0  0  0  0  0  0
   -4.1004   -0.8528    0.0000 N   0  0  0  0  0  0  0  0  0  0  0  0
   -3.5508   -0.2378    0.0000 C   0  0  0  0  0  0  0  0  0  0  0  0
    3.5099    0.3854    0.0000 N   0  0  0  0  0  0  0  0  0  0  0  0
    2.9604    1.0005    0.0000 N   0  0  0  0  0  0  0  0  0  0  0  0
    2.2059    0.6642    0.0000 C   0  0  0  0  0  0  0  0  0  0  0  0
    2.2879   -0.1557    0.0000 C   0  0  0  0  0  0  0  0  0  0  0  0
    3.0998   -0.3280    0.0000 C   0  0  0  0  0  0  0  0  0  0  0  0
    3.4361   -1.0825    0.0000 C   0  0  0  0  0  0  0  0  0  0  0  0
    4.1004   -1.5663    0.0000 C   0  0  0  0  0  0  0  0  0  0  0  0
    3.3458   -1.9025    0.0000 C   0  0  0  0  0  0  0  0  0  0  0  0
    1.4925    1.0743    0.0000 N   0  0  0  0  0  0  0  0  0  0  0  0
    0.7790    0.6642    0.0000 C   0  0  0  0  0  0  0  0  0  0  0  0
    0.0655    1.0743    0.0000 C   0  0  2  0  0  0  0  0  0  0  0  0
    0.7790   -0.1639    0.0000 O   0  0  0  0  0  0  0  0  0  0  0  0
   -0.6560    0.6642    0.0000 C   0  0  0  0  0  0  0  0  0  0  0  0
   -0.6560   -0.1639    0.0000 C   0  0  0  0  0  0  0  0  0  0  0  0
   -1.3695   -0.5740    0.0000 C   0  0  0  0  0  0  0  0  0  0  0  0
   -2.0829   -0.1639    0.0000 C   0  0  0  0  0  0  0  0  0  0  0  0
   -2.0829    0.6642    0.0000 C   0  0  0  0  0  0  0  0  0  0  0  0
   -1.3695    1.0743    0.0000 C   0  0  0  0  0  0  0  0  0  0  0  0
   -3.7231    0.5658    0.0000 O   0  0  0  0  0  0  0  0  0  0  0  0
    0.0655    1.9025    0.0000 C   0  0  0  0  0  0  0  0  0  0  0  0
   -2.0816   -2.1082    0.0000 H   0  0  0  0  0  0  0  0  0  0  0  0
   -3.1544   -2.4279    0.0000 H   0  0  0  0  0  0  0  0  0  0  0  0
   -4.1267   -2.5433    0.0000 H   0  0  0  0  0  0  0  0  0  0  0  0
   -4.7589   -1.6206    0.0000 H   0  0  0  0  0  0  0  0  0  0  0  0
   -5.0796   -0.7508    0.0000 H   0  0  0  0  0  0  0  0  0  0  0  0
    1.5193   -0.8444    0.0000 H   0  0  0  0  0  0  0  0  0  0  0  0
    3.8683   -2.0613    0.0000 H   0  0  0  0  0  0  0  0  0  0  0  0
    5.1645   -1.6786    0.0000 H   0  0  0  0  0  0  0  0  0  0  0  0
    4.2677   -2.6231    0.0000 H   0  0  0  0  0  0  0  0  0  0  0  0
    2.7148   -2.7667    0.0000 H   0  0  0  0  0  0  0  0  0  0  0  0
    4.0183   -2.7348    0.0000 H   0  0  0  0  0  0  0  0  0  0  0  0
    0.9916    1.6102    0.0000 H   0  0  0  0  0  0  0  0  0  0  0  0
    0.2372   -0.6808    0.0000 H   0  0  0  0  0  0  0  0  0  0  0  0
   -1.3695   -1.6060    0.0000 H   0  0  0  0  0  0  0  0  0  0  0  0
   -2.9762    1.1810    0.0000 H   0  0  0  0  0  0  0  0  0  0  0  0
   -1.3695    2.1063    0.0000 H   0  0  0  0  0  0  0  0  0  0  0  0
    0.9921    2.4375    0.0000 H   0  0  0  0  0  0  0  0  0  0  0  0
   -0.8611    2.4375    0.0000 H   0  0  0  0  0  0  0  0  0  0  0  0
    0.0655    2.9725    0.0000 H   0  0  0  0  0  0  0  0  0  0  0  0
  1  2  1  0  0  0  0
  1  5  1  0  0  0  0
  1 21  1  0  0  0  0
  2  3  1  0  0  0  0
  2 26  1  0  0  0  0
  2 27  1  0  0  0  0
  3  4  1  0  0  0  0
  3 28  1  0  0  0  0
  3 29  1  0  0  0  0
  4  5  1  0  0  0  0
  4 30  1  0  0  0  0
  5 24  2  0  0  0  0
  6  7  2  0  0  0  0
  6 10  1  0  0  0  0
  7  8  1  0  0  0  0
  8  9  1  0  0  0  0
  8 14  2  0  0  0  0
  9 10  2  0  0  0  0
  9 31  1  0  0  0  0
 10 11  1  0  0  0  0
 11 12  1  0  0  0  0
 11 13  1  0  0  0  0
 11 32  1  0  0  0  0
 12 13  1  0  0  0  0
 12 33  1  0  0  0  0
 12 34  1  0  0  0  0
 13 35  1  0  0  0  0
 13 36  1  0  0  0  0
 14 15  1  0  0  0  0
 15 16  1  0  0  0  0
 15 17  2  0  0  0  0
 16 18  1  0  0  0  0
 16 25  1  0  0  0  0
 16 37  1  1  0  0  0
 18 19  2  0  0  0  0
 18 23  1  0  0  0  0
 19 20  1  0  0  0  0
 19 38  1  0  0  0  0
 20 21  2  0  0  0  0
 20 39  1  0  0  0  0
 21 22  1  0  0  0  0
 22 23  2  0  0  0  0
 22 40  1  0  0  0  0
 23 41  1  0  0  0  0
 25 42  1  0  0  0  0
 25 43  1  0  0  0  0
 25 44  1  0  0  0  0
M  END
>  <DRUGBANK_ID>
DB07137

>  <COMMON_NAME>
(2S)-N-[(3E)-5-Cyclopropyl-3H-pyrazol-3-ylidene]-2-[4-(2-oxo-1-imidazolidinyl)phenyl]propanamide

$$$$
