SC0
 OpenBabel10282417072D

 59 58  0  0  0  0  0  0  0  0999 V2000
   -5.7460    0.1166    0.0000 C   0  0  0  0  0  0  0  0  0  0  0  0
   -5.0315    0.5291    0.0000 C   0  0  0  0  0  0  0  0  0  0  0  0
   -4.3170    0.1166    0.0000 C   0  0  0  0  0  0  0  0  0  0  0  0
   -3.6026    0.5291    0.0000 C   0  0  0  0  0  0  0  0  0  0  0  0
   -2.8881    0.1166    0.0000 C   0  0  0  0  0  0  0  0  0  0  0  0
   -2.1736    0.5291    0.0000 C   0  0  0  0  0  0  0  0  0  0  0  0
   -1.4591    0.1166    0.0000 C   0  0  0  0  0  0  0  0  0  0  0  0
   -0.7447    0.5291    0.0000 C   0  0  0  0  0  0  0  0  0  0  0  0
   -0.0302    0.1166    0.0000 C   0  0  0  0  0  0  0  0  0  0  0  0
   -0.4427   -0.5979    0.0000 P   0  0  0  0  0  0  0  0  0  0  0  0
   -0.8552   -1.3123    0.0000 O   0  0  0  0  0  0  0  0  0  0  0  0
    0.2718   -1.0104    0.0000 O   0  0  0  0  0  0  0  0  0  0  0  0
   -1.1572   -0.1854    0.0000 O   0  0  0  0  0  0  0  0  0  0  0  0
    0.3823    0.8311    0.0000 P   0  0  0  0  0  0  0  0  0  0  0  0
    0.7948    1.5455    0.0000 O   0  0  0  0  0  0  0  0  0  0  0  0
    1.0968    0.4186    0.0000 O   0  0  0  0  0  0  0  0  0  0  0  0
   -0.3322    1.2436    0.0000 O   0  0  0  0  0  0  0  0  0  0  0  0
    0.6843   -0.2959    0.0000 C   0  0  0  0  0  0  0  0  0  0  0  0
    1.3987    0.1166    0.0000 C   0  0  0  0  0  0  0  0  0  0  0  0
    2.1132   -0.2959    0.0000 C   0  0  0  0  0  0  0  0  0  0  0  0
    2.8277    0.1166    0.0000 C   0  0  0  0  0  0  0  0  0  0  0  0
    3.5422   -0.2959    0.0000 C   0  0  0  0  0  0  0  0  0  0  0  0
    4.2566    0.1166    0.0000 C   0  0  0  0  0  0  0  0  0  0  0  0
    4.9711   -0.2959    0.0000 C   0  0  0  0  0  0  0  0  0  0  0  0
    5.6856    0.1166    0.0000 C   0  0  0  0  0  0  0  0  0  0  0  0
   -6.6726    0.6516    0.0000 H   0  0  0  0  0  0  0  0  0  0  0  0
   -5.7460   -0.9534    0.0000 H   0  0  0  0  0  0  0  0  0  0  0  0
   -6.6727   -0.4184    0.0000 H   0  0  0  0  0  0  0  0  0  0  0  0
   -5.0315    1.5991    0.0000 H   0  0  0  0  0  0  0  0  0  0  0  0
   -4.1049    1.0641    0.0000 H   0  0  0  0  0  0  0  0  0  0  0  0
   -4.3170   -0.9534    0.0000 H   0  0  0  0  0  0  0  0  0  0  0  0
   -3.3903   -0.4184    0.0000 H   0  0  0  0  0  0  0  0  0  0  0  0
   -3.6026    1.5991    0.0000 H   0  0  0  0  0  0  0  0  0  0  0  0
   -2.6760    1.0641    0.0000 H   0  0  0  0  0  0  0  0  0  0  0  0
   -2.8881   -0.9534    0.0000 H   0  0  0  0  0  0  0  0  0  0  0  0
   -1.9615   -0.4184    0.0000 H   0  0  0  0  0  0  0  0  0  0  0  0
   -2.1736    1.5611    0.0000 H   0  0  0  0  0  0  0  0  0  0  0  0
   -1.4591   -0.9154    0.0000 H   0  0  0  0  0  0  0  0  0  0  0  0
   -0.7447    1.5991    0.0000 H   0  0  0  0  0  0  0  0  0  0  0  0
    0.1819    1.0641    0.0000 H   0  0  0  0  0  0  0  0  0  0  0  0
   -1.8252   -1.3123    0.0000 H   0  0  0  0  0  0  0  0  0  0  0  0
    0.2718   -1.9804    0.0000 H   0  0  0  0  0  0  0  0  0  0  0  0
    1.7648    1.5455    0.0000 H   0  0  0  0  0  0  0  0  0  0  0  0
    1.0968   -0.5514    0.0000 H   0  0  0  0  0  0  0  0  0  0  0  0
    0.6843   -1.3659    0.0000 H   0  0  0  0  0  0  0  0  0  0  0  0
    1.6110   -0.8309    0.0000 H   0  0  0  0  0  0  0  0  0  0  0  0
    1.3987    1.1486    0.0000 H   0  0  0  0  0  0  0  0  0  0  0  0
    2.1132   -1.3279    0.0000 H   0  0  0  0  0  0  0  0  0  0  0  0
    2.8277    1.1866    0.0000 H   0  0  0  0  0  0  0  0  0  0  0  0
    3.7543    0.6516    0.0000 H   0  0  0  0  0  0  0  0  0  0  0  0
    3.5422   -1.3659    0.0000 H   0  0  0  0  0  0  0  0  0  0  0  0
    4.4689   -0.8309    0.0000 H   0  0  0  0  0  0  0  0  0  0  0  0
    4.2566    1.1866    0.0000 H   0  0  0  0  0  0  0  0  0  0  0  0
    5.1832    0.6516    0.0000 H   0  0  0  0  0  0  0  0  0  0  0  0
    4.9711   -1.3659    0.0000 H   0  0  0  0  0  0  0  0  0  0  0  0
    5.8977   -0.8309    0.0000 H   0  0  0  0  0  0  0  0  0  0  0  0
    6.6122   -0.4184    0.0000 H   0  0  0  0  0  0  0  0  0  0  0  0
    5.6856    1.1866    0.0000 H   0  0  0  0  0  0  0  0  0  0  0  0
    6.6123    0.6516    0.0000 H   0  0  0  0  0  0  0  0  0  0  0  0
  1  2  1  0  0  0  0
  1 26  1  0  0  0  0
  1 27  1  0  0  0  0
  1 28  1  0  0  0  0
  2  3  1  0  0  0  0
  2 29  1  0  0  0  0
  2 30  1  0  0  0  0
  3  4  1  0  0  0  0
  3 31  1  0  0  0  0
  3 32  1  0  0  0  0
  4  5  1  0  0  0  0
  4 33  1  0  0  0  0
  4 34  1  0  0  0  0
  5  6  1  0  0  0  0
  5 35  1  0  0  0  0
  5 36  1  0  0  0  0
  6  7  2  0  0  0  0
  6 37  1  0  0  0  0
  7  8  1  0  0  0  0
  7 38  1  0  0  0  0
  8  9  1  0  0  0  0
  8 39  1  0  0  0  0
  8 40  1  0  0  0  0
  9 18  1  0  0  0  0
  9 10  1  0  0  0  0
  9 14  1  0  0  0  0
 10 11  1  0  0  0  0
 10 12  1  0  0  0  0
 10 13  2  0  0  0  0
 11 41  1  0  0  0  0
 12 42  1  0  0  0  0
 14 15  1  0  0  0  0
 14 16  1  0  0  0  0
 14 17  2  0  0  0  0
 15 43  1  0  0  0  0
 16 44  1  0  0  0  0
 18 19  1  0  0  0  0
 18 45  1  0  0  0  0
 18 46  1  0  0  0  0
 19 20  2  0  0  0  0
 19 47  1  0  0  0  0
 20 21  1  0  0  0  0
 20 48  1  0  0  0  0
 21 22  1  0  0  0  0
 21 49  1  0  0  0  0
 21 50  1  0  0  0  0
 22 23  1  0  0  0  0
 22 51  1  0  0  0  0
 22 52  1  0  0  0  0
 23 24  1  0  0  0  0
 23 53  1  0  0  0  0
 23 54  1  0  0  0  0
 24 25  1  0  0  0  0
 24 55  1  0  0  0  0
 24 56  1  0  0  0  0
 25 57  1  0  0  0  0
 25 58  1  0  0  0  0
 25 59  1  0  0  0  0
M  END
>  <DRUGBANK_ID>
DB08529

>  <COMMON_NAME>
(6E,11E)-HEPTADECA-6,11-DIENE-9,9-DIYLBIS(PHOSPHONIC ACID)

$$$$
