
 OpenBabel10282417072D

 87 89  0  0  0  0  0  0  0  0999 V2000
   -3.2150    0.9909    0.0000 N   0  0  0  0  0  0  0  0  0  0  0  0
   -3.9295    0.5784    0.0000 C   0  0  1  0  0  0  0  0  0  0  0  0
   -3.9295   -0.2465    0.0000 C   0  0  0  0  0  0  0  0  0  0  0  0
   -4.6440   -0.6590    0.0000 C   0  0  0  0  0  0  0  0  0  0  0  0
   -5.3585   -0.2465    0.0000 C   0  0  2  0  0  0  0  0  0  0  0  0
   -5.3585    0.5784    0.0000 C   0  0  1  0  0  0  0  0  0  0  0  0
   -4.6440    0.9909    0.0000 C   0  0  1  0  0  0  0  0  0  0  0  0
   -4.6518    1.8966    0.0000 O   0  0  0  0  0  0  0  0  0  0  0  0
   -6.0729    0.9909    0.0000 O   0  0  0  0  0  0  0  0  0  0  0  0
   -6.0729   -0.6590    0.0000 O   0  0  0  0  0  0  0  0  0  0  0  0
   -4.6440   -1.4841    0.0000 C   0  0  0  0  0  0  0  0  0  0  0  0
   -5.3585   -1.8966    0.0000 O   0  0  0  0  0  0  0  0  0  0  0  0
   -3.2150    0.1659    0.0000 H   0  0  0  0  0  0  0  0  0  0  0  0
   -2.5006    0.5784    0.0000 C   0  0  1  0  0  0  0  0  0  0  0  0
   -2.5006   -0.2465    0.0000 C   0  0  1  0  0  0  0  0  0  0  0  0
   -1.7861   -0.6590    0.0000 C   0  0  2  0  0  0  0  0  0  0  0  0
   -1.0716   -0.2465    0.0000 C   0  0  2  0  0  0  0  0  0  0  0  0
   -1.0716    0.5784    0.0000 O   0  0  0  0  0  0  0  0  0  0  0  0
   -1.7861    0.9909    0.0000 C   0  0  2  0  0  0  0  0  0  0  0  0
   -1.7485    1.7219    0.0000 C   0  0  0  0  0  0  0  0  0  0  0  0
   -0.3572   -0.6590    0.0000 O   0  0  0  0  0  0  0  0  0  0  0  0
    0.3572   -0.2465    0.0000 C   0  0  1  0  0  0  0  0  0  0  0  0
    0.3572    0.5784    0.0000 C   0  0  1  0  0  0  0  0  0  0  0  0
    1.0717    0.9909    0.0000 C   0  0  2  0  0  0  0  0  0  0  0  0
    1.7862    0.5784    0.0000 C   0  0  2  0  0  0  0  0  0  0  0  0
    1.7862   -0.2465    0.0000 O   0  0  0  0  0  0  0  0  0  0  0  0
    1.0717   -0.6590    0.0000 C   0  0  2  0  0  0  0  0  0  0  0  0
    1.0717   -1.4841    0.0000 C   0  0  0  0  0  0  0  0  0  0  0  0
    0.3572   -1.8690    0.0000 O   0  0  0  0  0  0  0  0  0  0  0  0
    2.5005    0.9909    0.0000 O   0  0  0  0  0  0  0  0  0  0  0  0
    3.2151    0.5784    0.0000 C   0  0  1  0  0  0  0  0  0  0  0  0
    3.9296    0.9909    0.0000 C   0  0  2  0  0  0  0  0  0  0  0  0
    3.9296    1.8159    0.0000 O   0  0  0  0  0  0  0  0  0  0  0  0
    4.6440    0.5784    0.0000 C   0  0  2  0  0  0  0  0  0  0  0  0
    5.3585    0.9909    0.0000 C   0  0  0  0  0  0  0  0  0  0  0  0
    5.3586    1.8159    0.0000 O   0  0  0  0  0  0  0  0  0  0  0  0
    4.6440   -0.2465    0.0000 O   0  0  0  0  0  0  0  0  0  0  0  0
    3.2151   -0.2465    0.0000 C   0  0  2  0  0  0  0  0  0  0  0  0
    2.5005   -0.6590    0.0000 O   0  0  0  0  0  0  0  0  0  0  0  0
    3.9296   -0.6590    0.0000 C   0  0  0  0  0  0  0  0  0  0  0  0
    3.9296   -1.4841    0.0000 O   0  0  0  0  0  0  0  0  0  0  0  0
    1.7862    1.4034    0.0000 H   0  0  0  0  0  0  0  0  0  0  0  0
    1.0717    1.8159    0.0000 O   0  0  0  0  0  0  0  0  0  0  0  0
   -0.3572    0.9909    0.0000 O   0  0  0  0  0  0  0  0  0  0  0  0
   -1.7861   -1.5669    0.0000 O   0  0  0  0  0  0  0  0  0  0  0  0
   -3.2150   -0.6590    0.0000 O   0  0  0  0  0  0  0  0  0  0  0  0
    6.0730    0.5783    0.0000 H   0  0  0  0  0  0  0  0  0  0  0  0
    0.3572   -1.0716    0.0000 H   0  0  0  0  0  0  0  0  0  0  0  0
    2.5477    0.0935    0.0000 H   0  0  0  0  0  0  0  0  0  0  0  0
   -3.2150    2.0109    0.0000 H   0  0  0  0  0  0  0  0  0  0  0  0
   -3.0358   -0.7625    0.0000 H   0  0  0  0  0  0  0  0  0  0  0  0
   -5.3585   -1.3165    0.0000 H   0  0  0  0  0  0  0  0  0  0  0  0
   -6.2852    0.0434    0.0000 H   0  0  0  0  0  0  0  0  0  0  0  0
   -5.5729    1.5219    0.0000 H   0  0  0  0  0  0  0  0  0  0  0  0
   -3.8160    2.3888    0.0000 H   0  0  0  0  0  0  0  0  0  0  0  0
   -6.0729    1.9609    0.0000 H   0  0  0  0  0  0  0  0  0  0  0  0
   -6.9130   -0.1740    0.0000 H   0  0  0  0  0  0  0  0  0  0  0  0
   -3.7174   -2.0191    0.0000 H   0  0  0  0  0  0  0  0  0  0  0  0
   -4.6440   -2.5541    0.0000 H   0  0  0  0  0  0  0  0  0  0  0  0
   -6.1985   -1.4116    0.0000 H   0  0  0  0  0  0  0  0  0  0  0  0
   -3.4273    0.0434    0.0000 H   0  0  0  0  0  0  0  0  0  0  0  0
   -3.4273    0.2885    0.0000 H   0  0  0  0  0  0  0  0  0  0  0  0
   -2.7127   -1.1940    0.0000 H   0  0  0  0  0  0  0  0  0  0  0  0
   -1.0716   -1.3165    0.0000 H   0  0  0  0  0  0  0  0  0  0  0  0
   -0.8460    1.5019    0.0000 H   0  0  0  0  0  0  0  0  0  0  0  0
   -0.7956    2.2086    0.0000 H   0  0  0  0  0  0  0  0  0  0  0  0
   -2.6464    2.3038    0.0000 H   0  0  0  0  0  0  0  0  0  0  0  0
   -1.6935    2.7905    0.0000 H   0  0  0  0  0  0  0  0  0  0  0  0
   -0.5695    0.0434    0.0000 H   0  0  0  0  0  0  0  0  0  0  0  0
    0.1451    1.5259    0.0000 H   0  0  0  0  0  0  0  0  0  0  0  0
    1.9983   -1.1940    0.0000 H   0  0  0  0  0  0  0  0  0  0  0  0
    1.9904   -2.0327    0.0000 H   0  0  0  0  0  0  0  0  0  0  0  0
    1.0480   -2.5538    0.0000 H   0  0  0  0  0  0  0  0  0  0  0  0
   -0.4682   -1.3595    0.0000 H   0  0  0  0  0  0  0  0  0  0  0  0
    3.0030    1.5259    0.0000 H   0  0  0  0  0  0  0  0  0  0  0  0
    4.7696    2.3009    0.0000 H   0  0  0  0  0  0  0  0  0  0  0  0
    3.7173    0.0434    0.0000 H   0  0  0  0  0  0  0  0  0  0  0  0
    3.8040   -0.7315    0.0000 H   0  0  0  0  0  0  0  0  0  0  0  0
    2.2885    0.2885    0.0000 H   0  0  0  0  0  0  0  0  0  0  0  0
    1.6605   -0.1739    0.0000 H   0  0  0  0  0  0  0  0  0  0  0  0
    4.8562   -0.1240    0.0000 H   0  0  0  0  0  0  0  0  0  0  0  0
    4.8562   -1.1940    0.0000 H   0  0  0  0  0  0  0  0  0  0  0  0
    3.0896   -1.9691    0.0000 H   0  0  0  0  0  0  0  0  0  0  0  0
    1.9117    2.3009    0.0000 H   0  0  0  0  0  0  0  0  0  0  0  0
   -0.3572    1.9609    0.0000 H   0  0  0  0  0  0  0  0  0  0  0  0
   -2.6261   -2.0519    0.0000 H   0  0  0  0  0  0  0  0  0  0  0  0
   -4.0551   -0.1740    0.0000 H   0  0  0  0  0  0  0  0  0  0  0  0
  1 50  1  0  0  0  0
  2  1  1  0  0  0  0
  2  7  1  0  0  0  0
  2 13  1  6  0  0  0
  3  2  1  0  0  0  0
  3 51  1  0  0  0  0
  4  3  2  0  0  0  0
  4 11  1  0  0  0  0
  5  4  1  0  0  0  0
  5 10  1  0  0  0  0
  5 52  1  6  0  0  0
  6  5  1  0  0  0  0
  6  9  1  0  0  0  0
  6 53  1  1  0  0  0
  7  6  1  0  0  0  0
  7  8  1  0  0  0  0
  7 54  1  6  0  0  0
  8 55  1  0  0  0  0
  9 56  1  0  0  0  0
 10 57  1  0  0  0  0
 11 58  1  0  0  0  0
 11 59  1  0  0  0  0
 12 11  1  0  0  0  0
 12 60  1  0  0  0  0
 14  1  1  0  0  0  0
 14 19  1  0  0  0  0
 14 61  1  1  0  0  0
 15 14  1  0  0  0  0
 15 46  1  0  0  0  0
 15 62  1  6  0  0  0
 16 15  1  0  0  0  0
 16 45  1  0  0  0  0
 16 63  1  1  0  0  0
 17 16  1  0  0  0  0
 17 21  1  0  0  0  0
 17 64  1  1  0  0  0
 18 17  1  0  0  0  0
 19 18  1  0  0  0  0
 19 20  1  0  0  0  0
 19 65  1  6  0  0  0
 20 66  1  0  0  0  0
 20 67  1  0  0  0  0
 20 68  1  0  0  0  0
 22 21  1  0  0  0  0
 22 27  1  0  0  0  0
 22 48  1  6  0  0  0
 23 22  1  0  0  0  0
 23 44  1  0  0  0  0
 23 69  1  1  0  0  0
 24 23  1  0  0  0  0
 24 43  1  0  0  0  0
 24 70  1  6  0  0  0
 25 24  1  0  0  0  0
 25 30  1  0  0  0  0
 25 42  1  6  0  0  0
 26 25  1  0  0  0  0
 27 26  1  0  0  0  0
 27 28  1  0  0  0  0
 27 71  1  1  0  0  0
 28 72  1  0  0  0  0
 28 73  1  0  0  0  0
 29 28  1  0  0  0  0
 29 74  1  0  0  0  0
 31 30  1  0  0  0  0
 31 38  1  0  0  0  0
 31 49  1  6  0  0  0
 32 31  1  0  0  0  0
 32 33  1  0  0  0  0
 32 75  1  1  0  0  0
 33 76  1  0  0  0  0
 34 32  1  0  0  0  0
 34 37  1  0  0  0  0
 34 77  1  1  0  0  0
 35 34  1  0  0  0  0
 35 36  2  0  0  0  0
 35 47  1  0  0  0  0
 37 78  1  0  0  0  0
 38 39  1  0  0  0  0
 38 40  1  0  0  0  0
 38 79  1  6  0  0  0
 39 80  1  0  0  0  0
 40 81  1  0  0  0  0
 40 82  1  0  0  0  0
 41 40  1  0  0  0  0
 41 83  1  0  0  0  0
 43 84  1  0  0  0  0
 44 85  1  0  0  0  0
 45 86  1  0  0  0  0
 46 87  1  0  0  0  0
M  END
>  <DRUGBANK_ID>
DB00284

>  <SECONDARY_ACCESSION_NUMBERS>
APRD00656

>  <COMMON_NAME>
Acarbose

>  <CAS_NUMBER>
56180-94-0

>  <UNII>
T58MSI464G

>  <SYNONYMS>
Acarbosa; Acarbose; Acarbosum

$$$$
