
 OpenBabel10282417072D

 50 50  0  0  0  0  0  0  0  0999 V2000
   -1.9136   -2.2665    0.0000 C   0  0  0  0  0  0  0  0  0  0  0  0
   -1.1991   -1.8540    0.0000 C   0  0  0  0  0  0  0  0  0  0  0  0
   -1.1991   -1.0290    0.0000 C   0  0  0  0  0  0  0  0  0  0  0  0
   -1.9136   -0.6165    0.0000 C   0  0  0  0  0  0  0  0  0  0  0  0
   -2.6280   -1.0290    0.0000 C   0  0  0  0  0  0  0  0  0  0  0  0
   -2.6280   -1.8540    0.0000 C   0  0  0  0  0  0  0  0  0  0  0  0
   -2.4968   -0.0331    0.0000 C   0  0  0  0  0  0  0  0  0  0  0  0
   -1.3302   -0.0331    0.0000 C   0  0  0  0  0  0  0  0  0  0  0  0
   -0.5333   -0.2467    0.0000 N   0  0  0  0  0  0  0  0  0  0  0  0
    0.0500    0.3366    0.0000 C   0  0  0  0  0  0  0  0  0  0  0  0
    0.8468    0.1231    0.0000 O   0  0  0  0  0  0  0  0  0  0  0  0
   -0.1635    1.1335    0.0000 O   0  0  0  0  0  0  0  0  0  0  0  0
    1.2593    0.8375    0.0000 C   0  0  3  0  0  0  0  0  0  0  0  0
    2.0843    0.8375    0.0000 O   0  0  0  0  0  0  0  0  0  0  0  0
    0.8468    1.5520    0.0000 C   0  0  0  0  0  0  0  0  0  0  0  0
    2.4968    1.5520    0.0000 C   0  0  0  0  0  0  0  0  0  0  0  0
    3.3219    1.5520    0.0000 C   0  0  0  0  0  0  0  0  0  0  0  0
    2.0843    2.2665    0.0000 O   0  0  0  0  0  0  0  0  0  0  0  0
    3.7343    2.2665    0.0000 C   0  0  0  0  0  0  0  0  0  0  0  0
    3.7343    0.8375    0.0000 C   0  0  0  0  0  0  0  0  0  0  0  0
   -3.3219   -0.0331    0.0000 C   0  0  0  0  0  0  0  0  0  0  0  0
   -3.7344    0.6812    0.0000 O   0  0  0  0  0  0  0  0  0  0  0  0
   -3.7344   -0.7476    0.0000 O   0  0  0  0  0  0  0  0  0  0  0  0
   -1.9136   -3.3365    0.0000 H   0  0  0  0  0  0  0  0  0  0  0  0
   -2.8403   -2.8015    0.0000 H   0  0  0  0  0  0  0  0  0  0  0  0
   -0.2725   -2.3890    0.0000 H   0  0  0  0  0  0  0  0  0  0  0  0
   -0.2725   -1.3190    0.0000 H   0  0  0  0  0  0  0  0  0  0  0  0
   -0.2725   -0.4940    0.0000 H   0  0  0  0  0  0  0  0  0  0  0  0
   -1.1991    0.0410    0.0000 H   0  0  0  0  0  0  0  0  0  0  0  0
   -3.5547   -0.4940    0.0000 H   0  0  0  0  0  0  0  0  0  0  0  0
   -3.5546   -1.5640    0.0000 H   0  0  0  0  0  0  0  0  0  0  0  0
   -3.5547   -2.3890    0.0000 H   0  0  0  0  0  0  0  0  0  0  0  0
   -2.6280   -2.9240    0.0000 H   0  0  0  0  0  0  0  0  0  0  0  0
   -2.0872    0.9554    0.0000 H   0  0  0  0  0  0  0  0  0  0  0  0
   -3.0912    0.8566    0.0000 H   0  0  0  0  0  0  0  0  0  0  0  0
   -1.6071    1.0005    0.0000 H   0  0  0  0  0  0  0  0  0  0  0  0
   -0.5735    0.7235    0.0000 H   0  0  0  0  0  0  0  0  0  0  0  0
   -0.2785   -1.1977    0.0000 H   0  0  0  0  0  0  0  0  0  0  0  0
    1.7943   -0.0892    0.0000 H   0  0  0  0  0  0  0  0  0  0  0  0
    1.3818    2.4786    0.0000 H   0  0  0  0  0  0  0  0  0  0  0  0
   -0.2232    1.5520    0.0000 H   0  0  0  0  0  0  0  0  0  0  0  0
    0.3118    2.4787    0.0000 H   0  0  0  0  0  0  0  0  0  0  0  0
    4.3919    1.5520    0.0000 H   0  0  0  0  0  0  0  0  0  0  0  0
    4.8043    2.2666    0.0000 H   0  0  0  0  0  0  0  0  0  0  0  0
    3.1992    3.1931    0.0000 H   0  0  0  0  0  0  0  0  0  0  0  0
    4.2692    3.1932    0.0000 H   0  0  0  0  0  0  0  0  0  0  0  0
    3.1992   -0.0891    0.0000 H   0  0  0  0  0  0  0  0  0  0  0  0
    4.8043    0.8374    0.0000 H   0  0  0  0  0  0  0  0  0  0  0  0
    4.2692   -0.0892    0.0000 H   0  0  0  0  0  0  0  0  0  0  0  0
   -3.2660    1.4927    0.0000 H   0  0  0  0  0  0  0  0  0  0  0  0
  1  2  1  0  0  0  0
  1 24  1  0  0  0  0
  1 25  1  0  0  0  0
  2  3  1  0  0  0  0
  2 26  1  0  0  0  0
  2 27  1  0  0  0  0
  3  4  1  0  0  0  0
  3 28  1  0  0  0  0
  3 29  1  0  0  0  0
  4  5  1  0  0  0  0
  4  7  1  0  0  0  0
  4  8  1  0  0  0  0
  5  6  1  0  0  0  0
  5 30  1  0  0  0  0
  5 31  1  0  0  0  0
  6  1  1  0  0  0  0
  6 32  1  0  0  0  0
  6 33  1  0  0  0  0
  7 21  1  0  0  0  0
  7 34  1  0  0  0  0
  7 35  1  0  0  0  0
  8  9  1  0  0  0  0
  8 36  1  0  0  0  0
  8 37  1  0  0  0  0
  9 10  1  0  0  0  0
  9 38  1  0  0  0  0
 10 11  1  0  0  0  0
 10 12  2  0  0  0  0
 11 13  1  0  0  0  0
 13 14  1  0  0  0  0
 13 15  1  0  0  0  0
 13 39  1  0  0  0  0
 14 16  1  0  0  0  0
 15 40  1  0  0  0  0
 15 41  1  0  0  0  0
 15 42  1  0  0  0  0
 16 17  1  0  0  0  0
 16 18  2  0  0  0  0
 17 19  1  0  0  0  0
 17 20  1  0  0  0  0
 17 43  1  0  0  0  0
 19 44  1  0  0  0  0
 19 45  1  0  0  0  0
 19 46  1  0  0  0  0
 20 47  1  0  0  0  0
 20 48  1  0  0  0  0
 20 49  1  0  0  0  0
 21 22  1  0  0  0  0
 21 23  2  0  0  0  0
 22 50  1  0  0  0  0
M  END
>  <DRUGBANK_ID>
DB08872

>  <SECONDARY_ACCESSION_NUMBERS>
DB04922

>  <COMMON_NAME>
Gabapentin enacarbil

>  <CAS_NUMBER>
478296-72-9

>  <UNII>
75OCL1SPBQ

>  <SYNONYMS>
Gabapentin enacarbil; Gabapentina enacarbilo; Gabapentine enacarbil; Gabapentinum enacarbilum

$$$$
