
 OpenBabel10282417072D

198203  0  0  0  0  0  0  0  0999 V2000
    7.1011    0.9359    0.0000 C   0  0  0  0  0  0  0  0  0  0  0  0
   -1.4029    0.9359    0.0000 C   0  0  0  0  0  0  0  0  0  0  0  0
   -3.4970    0.4917    0.0000 C   0  0  0  0  0  0  0  0  0  0  0  0
    2.8491    0.9359    0.0000 C   0  0  0  0  0  0  0  0  0  0  0  0
    0.7548    0.4917    0.0000 C   0  0  0  0  0  0  0  0  0  0  0  0
    4.9433    0.5551    0.0000 C   0  0  0  0  0  0  0  0  0  0  0  0
   -2.7990    0.9359    0.0000 N   0  0  0  0  0  0  0  0  0  0  0  0
   -2.1009    0.4917    0.0000 C   0  0  1  0  0  0  0  0  0  0  0  0
   -0.7048    0.4917    0.0000 N   0  0  0  0  0  0  0  0  0  0  0  0
    1.4529    0.9359    0.0000 N   0  0  0  0  0  0  0  0  0  0  0  0
    3.5472    0.4917    0.0000 N   0  0  0  0  0  0  0  0  0  0  0  0
    5.7048    0.9359    0.0000 N   0  0  0  0  0  0  0  0  0  0  0  0
    2.1510    0.4917    0.0000 C   0  0  2  0  0  0  0  0  0  0  0  0
    0.0567    0.9359    0.0000 C   0  0  1  0  0  0  0  0  0  0  0  0
    4.2452    0.9359    0.0000 C   0  0  1  0  0  0  0  0  0  0  0  0
    6.4030    0.5551    0.0000 C   0  0  1  0  0  0  0  0  0  0  0  0
    7.7992   -2.7449    0.0000 C   0  0  0  0  0  0  0  0  0  0  0  0
    2.1510   -0.2698    0.0000 C   0  0  0  0  0  0  0  0  0  0  0  0
    7.1011   -3.1257    0.0000 N   0  0  0  0  0  0  0  0  0  0  0  0
    7.7947    0.4893    0.0000 O   0  0  0  0  0  0  0  0  0  0  0  0
   -1.4029    1.7609    0.0000 O   0  0  0  0  0  0  0  0  0  0  0  0
    4.9433   -0.2698    0.0000 O   0  0  0  0  0  0  0  0  0  0  0  0
   -3.4970   -0.3332    0.0000 O   0  0  0  0  0  0  0  0  0  0  0  0
    0.7548   -0.2698    0.0000 O   0  0  0  0  0  0  0  0  0  0  0  0
    2.8491    1.7609    0.0000 O   0  0  0  0  0  0  0  0  0  0  0  0
    0.0567    1.7609    0.0000 C   0  0  0  0  0  0  0  0  0  0  0  0
    4.2452    1.7609    0.0000 C   0  0  0  0  0  0  0  0  0  0  0  0
    7.7992   -1.9198    0.0000 N   0  0  0  0  0  0  0  0  0  0  0  0
    8.4972   -3.1257    0.0000 N   0  0  0  0  0  0  0  0  0  0  0  0
    0.7548    2.1417    0.0000 C   0  0  0  0  0  0  0  0  0  0  0  0
    2.1510    2.9667    0.0000 C   0  0  0  0  0  0  0  0  0  0  0  0
   -2.1009   -0.3332    0.0000 C   0  0  0  0  0  0  0  0  0  0  0  0
    1.4529    1.7609    0.0000 C   0  0  0  0  0  0  0  0  0  0  0  0
    0.7548    2.9667    0.0000 C   0  0  0  0  0  0  0  0  0  0  0  0
    2.1510    2.1417    0.0000 C   0  0  0  0  0  0  0  0  0  0  0  0
    1.4529    3.4109    0.0000 C   0  0  0  0  0  0  0  0  0  0  0  0
    2.8491    3.4109    0.0000 O   0  0  0  0  0  0  0  0  0  0  0  0
   -1.4029   -0.7140    0.0000 O   0  0  0  0  0  0  0  0  0  0  0  0
    6.4030   -0.2698    0.0000 C   0  0  0  0  0  0  0  0  0  0  0  0
    4.9433    2.1417    0.0000 C   0  0  0  0  0  0  0  0  0  0  0  0
    7.1011   -1.4756    0.0000 C   0  0  0  0  0  0  0  0  0  0  0  0
    7.1011   -0.7140    0.0000 C   0  0  0  0  0  0  0  0  0  0  0  0
    4.9433    2.9667    0.0000 C   0  0  0  0  0  0  0  0  0  0  0  0
    5.7048    1.7609    0.0000 C   0  0  0  0  0  0  0  0  0  0  0  0
    2.8654   -0.6823    0.0000 C   0  0  0  0  0  0  0  0  0  0  0  0
    3.6192   -0.3468    0.0000 N   0  0  0  0  0  0  0  0  0  0  0  0
    3.7587   -1.6744    0.0000 N   0  0  0  0  0  0  0  0  0  0  0  0
    4.1712   -0.9598    0.0000 C   0  0  0  0  0  0  0  0  0  0  0  0
    2.9517   -1.5027    0.0000 C   0  0  0  0  0  0  0  0  0  0  0  0
    4.0943   -2.4280    0.0000 C   0  0  0  0  0  0  0  0  0  0  0  0
    3.6093   -3.0955    0.0000 C   0  0  0  0  0  0  0  0  0  0  0  0
    3.9449   -3.8491    0.0000 C   0  0  0  0  0  0  0  0  0  0  0  0
    2.7889   -3.0092    0.0000 C   0  0  0  0  0  0  0  0  0  0  0  0
    3.4599   -4.5166    0.0000 C   0  0  0  0  0  0  0  0  0  0  0  0
    2.3039   -3.6766    0.0000 C   0  0  0  0  0  0  0  0  0  0  0  0
    2.6395   -4.4304    0.0000 C   0  0  0  0  0  0  0  0  0  0  0  0
   -4.2158    0.9030    0.0000 C   0  0  2  0  0  0  0  0  0  0  0  0
   -4.2190    1.7280    0.0000 C   0  0  0  0  0  0  0  0  0  0  0  0
   -4.9288    0.4878    0.0000 N   0  0  0  0  0  0  0  0  0  0  0  0
   -3.5060    2.1432    0.0000 C   0  0  0  0  0  0  0  0  0  0  0  0
   -3.4228    2.9640    0.0000 C   0  0  0  0  0  0  0  0  0  0  0  0
   -2.7510    1.8105    0.0000 C   0  0  0  0  0  0  0  0  0  0  0  0
   -2.6166    3.1386    0.0000 C   0  0  0  0  0  0  0  0  0  0  0  0
   -2.2012    2.4257    0.0000 N   0  0  0  0  0  0  0  0  0  0  0  0
   -2.4078    3.9368    0.0000 C   0  0  0  0  0  0  0  0  0  0  0  0
   -2.9948    4.5166    0.0000 C   0  0  0  0  0  0  0  0  0  0  0  0
   -3.7903    4.2982    0.0000 C   0  0  0  0  0  0  0  0  0  0  0  0
   -3.9990    3.5000    0.0000 C   0  0  0  0  0  0  0  0  0  0  0  0
   -5.6448    0.8976    0.0000 C   0  0  0  0  0  0  0  0  0  0  0  0
   -5.6472    1.7181    0.0000 O   0  0  0  0  0  0  0  0  0  0  0  0
   -6.3629    0.4855    0.0000 C   0  0  1  0  0  0  0  0  0  0  0  0
   -7.0763    0.8999    0.0000 N   0  0  0  0  0  0  0  0  0  0  0  0
   -6.3629   -0.3394    0.0000 C   0  0  0  0  0  0  0  0  0  0  0  0
   -5.6484   -0.7519    0.0000 C   0  0  0  0  0  0  0  0  0  0  0  0
   -4.8947   -0.4163    0.0000 N   0  0  0  0  0  0  0  0  0  0  0  0
   -5.5621   -1.5723    0.0000 C   0  0  0  0  0  0  0  0  0  0  0  0
   -4.3426   -1.0294    0.0000 C   0  0  0  0  0  0  0  0  0  0  0  0
   -4.7550   -1.7440    0.0000 N   0  0  0  0  0  0  0  0  0  0  0  0
   -7.7918    0.4893    0.0000 C   0  0  0  0  0  0  0  0  0  0  0  0
   -8.5054    0.9046    0.0000 C   0  0  1  0  0  0  0  0  0  0  0  0
   -7.7942   -0.3394    0.0000 O   0  0  0  0  0  0  0  0  0  0  0  0
   -9.2603    0.5716    0.0000 N   0  0  0  0  0  0  0  0  0  0  0  0
   -8.5888    1.7254    0.0000 C   0  0  0  0  0  0  0  0  0  0  0  0
   -9.8102    1.1866    0.0000 C   0  0  0  0  0  0  0  0  0  0  0  0
   -9.3952    1.8997    0.0000 C   0  0  0  0  0  0  0  0  0  0  0  0
  -10.6310    1.1031    0.0000 O   0  0  0  0  0  0  0  0  0  0  0  0
    7.1057    1.7579    0.0000 N   0  0  0  0  0  0  0  0  0  0  0  0
    7.7730    2.2429    0.0000 C   0  0  1  0  0  0  0  0  0  0  0  0
    6.4380    2.2427    0.0000 C   0  0  0  0  0  0  0  0  0  0  0  0
    7.5179    3.0275    0.0000 C   0  0  0  0  0  0  0  0  0  0  0  0
    6.6931    3.0275    0.0000 C   0  0  0  0  0  0  0  0  0  0  0  0
    8.4875    1.8304    0.0000 C   0  0  0  0  0  0  0  0  0  0  0  0
    8.4875    1.0054    0.0000 O   0  0  0  0  0  0  0  0  0  0  0  0
    9.2020    2.2429    0.0000 N   0  0  0  0  0  0  0  0  0  0  0  0
    9.9165    1.8304    0.0000 C   0  0  0  0  0  0  0  0  0  0  0  0
   10.6310    2.2429    0.0000 C   0  0  0  0  0  0  0  0  0  0  0  0
   -1.0351   -4.1464    0.0000 C   0  0  0  0  0  0  0  0  0  0  0  0
   -0.3193   -3.7388    0.0000 C   0  0  0  0  0  0  0  0  0  0  0  0
    0.3926   -4.1556    0.0000 O   0  0  0  0  0  0  0  0  0  0  0  0
   -0.3144   -2.9138    0.0000 O   0  0  0  0  0  0  0  0  0  0  0  0
   -4.3450   -4.1166    0.0000 C   0  0  0  0  0  0  0  0  0  0  0  0
   -3.6294   -3.7090    0.0000 C   0  0  0  0  0  0  0  0  0  0  0  0
   -2.9173   -4.1258    0.0000 O   0  0  0  0  0  0  0  0  0  0  0  0
   -3.6245   -2.8840    0.0000 O   0  0  0  0  0  0  0  0  0  0  0  0
   -2.7990    1.9204    0.0000 H   0  0  0  0  0  0  0  0  0  0  0  0
   -1.1629   -0.0232    0.0000 H   0  0  0  0  0  0  0  0  0  0  0  0
   -0.7238   -0.4926    0.0000 H   0  0  0  0  0  0  0  0  0  0  0  0
    1.4529    1.9204    0.0000 H   0  0  0  0  0  0  0  0  0  0  0  0
    3.5472   -0.4928    0.0000 H   0  0  0  0  0  0  0  0  0  0  0  0
    5.7223    1.9202    0.0000 H   0  0  0  0  0  0  0  0  0  0  0  0
    3.0890   -0.0232    0.0000 H   0  0  0  0  0  0  0  0  0  0  0  0
    0.9947    1.4508    0.0000 H   0  0  0  0  0  0  0  0  0  0  0  0
    5.1653    1.4821    0.0000 H   0  0  0  0  0  0  0  0  0  0  0  0
    7.3231    0.0089    0.0000 H   0  0  0  0  0  0  0  0  0  0  0  0
    1.2243   -0.8048    0.0000 H   0  0  0  0  0  0  0  0  0  0  0  0
    2.1510   -1.3398    0.0000 H   0  0  0  0  0  0  0  0  0  0  0  0
    6.2607   -2.6129    0.0000 H   0  0  0  0  0  0  0  0  0  0  0  0
   -0.8634    2.3071    0.0000 H   0  0  0  0  0  0  0  0  0  0  0  0
    0.0761    2.8307    0.0000 H   0  0  0  0  0  0  0  0  0  0  0  0
    3.3251    2.3071    0.0000 H   0  0  0  0  0  0  0  0  0  0  0  0
    4.2646    2.8307    0.0000 H   0  0  0  0  0  0  0  0  0  0  0  0
    8.6622   -1.4460    0.0000 H   0  0  0  0  0  0  0  0  0  0  0  0
    8.5210   -4.1099    0.0000 H   0  0  0  0  0  0  0  0  0  0  0  0
    9.3377   -2.6130    0.0000 H   0  0  0  0  0  0  0  0  0  0  0  0
   -3.0210   -0.8794    0.0000 H   0  0  0  0  0  0  0  0  0  0  0  0
   -2.0815   -1.4030    0.0000 H   0  0  0  0  0  0  0  0  0  0  0  0
    1.4529    0.7289    0.0000 H   0  0  0  0  0  0  0  0  0  0  0  0
   -0.1498    3.4633    0.0000 H   0  0  0  0  0  0  0  0  0  0  0  0
    3.0384    1.6149    0.0000 H   0  0  0  0  0  0  0  0  0  0  0  0
    1.4529    4.4429    0.0000 H   0  0  0  0  0  0  0  0  0  0  0  0
    3.6800    2.9778    0.0000 H   0  0  0  0  0  0  0  0  0  0  0  0
   -1.3795   -1.6837    0.0000 H   0  0  0  0  0  0  0  0  0  0  0  0
    5.4650   -0.7847    0.0000 H   0  0  0  0  0  0  0  0  0  0  0  0
    6.3684   -1.3392    0.0000 H   0  0  0  0  0  0  0  0  0  0  0  0
    5.8535    2.7042    0.0000 H   0  0  0  0  0  0  0  0  0  0  0  0
    6.1631   -1.9905    0.0000 H   0  0  0  0  0  0  0  0  0  0  0  0
    6.1803   -0.9307    0.0000 H   0  0  0  0  0  0  0  0  0  0  0  0
    8.0391   -0.1991    0.0000 H   0  0  0  0  0  0  0  0  0  0  0  0
    8.0219   -1.2589    0.0000 H   0  0  0  0  0  0  0  0  0  0  0  0
    5.8699    3.5017    0.0000 H   0  0  0  0  0  0  0  0  0  0  0  0
    4.0167    3.5017    0.0000 H   0  0  0  0  0  0  0  0  0  0  0  0
    4.9433    4.0367    0.0000 H   0  0  0  0  0  0  0  0  0  0  0  0
    5.7689    0.6928    0.0000 H   0  0  0  0  0  0  0  0  0  0  0  0
    6.5978    2.3504    0.0000 H   0  0  0  0  0  0  0  0  0  0  0  0
    6.6618    1.2823    0.0000 H   0  0  0  0  0  0  0  0  0  0  0  0
    5.1975   -0.8519    0.0000 H   0  0  0  0  0  0  0  0  0  0  0  0
    2.1847   -2.1932    0.0000 H   0  0  0  0  0  0  0  0  0  0  0  0
    5.1584   -2.5398    0.0000 H   0  0  0  0  0  0  0  0  0  0  0  0
    4.5295   -3.4055    0.0000 H   0  0  0  0  0  0  0  0  0  0  0  0
    4.9712   -3.9569    0.0000 H   0  0  0  0  0  0  0  0  0  0  0  0
    2.3692   -2.0664    0.0000 H   0  0  0  0  0  0  0  0  0  0  0  0
    3.8797   -5.4594    0.0000 H   0  0  0  0  0  0  0  0  0  0  0  0
    1.2776   -3.5687    0.0000 H   0  0  0  0  0  0  0  0  0  0  0  0
    2.0329   -5.2653    0.0000 H   0  0  0  0  0  0  0  0  0  0  0  0
   -3.2912    1.4416    0.0000 H   0  0  0  0  0  0  0  0  0  0  0  0
   -5.1477    2.2595    0.0000 H   0  0  0  0  0  0  0  0  0  0  0  0
   -4.2230    2.7980    0.0000 H   0  0  0  0  0  0  0  0  0  0  0  0
   -4.9251   -0.4967    0.0000 H   0  0  0  0  0  0  0  0  0  0  0  0
   -2.5326    0.8019    0.0000 H   0  0  0  0  0  0  0  0  0  0  0  0
   -1.2217    2.3266    0.0000 H   0  0  0  0  0  0  0  0  0  0  0  0
   -1.4126    4.2099    0.0000 H   0  0  0  0  0  0  0  0  0  0  0  0
   -2.7338    5.5151    0.0000 H   0  0  0  0  0  0  0  0  0  0  0  0
   -4.5245    5.0235    0.0000 H   0  0  0  0  0  0  0  0  0  0  0  0
   -4.9900    3.2119    0.0000 H   0  0  0  0  0  0  0  0  0  0  0  0
   -5.4370   -0.0507    0.0000 H   0  0  0  0  0  0  0  0  0  0  0  0
   -7.0737    1.8844    0.0000 H   0  0  0  0  0  0  0  0  0  0  0  0
   -7.2895   -0.8744    0.0000 H   0  0  0  0  0  0  0  0  0  0  0  0
   -6.3629   -1.4094    0.0000 H   0  0  0  0  0  0  0  0  0  0  0  0
   -6.3291   -2.2628    0.0000 H   0  0  0  0  0  0  0  0  0  0  0  0
   -3.3163   -0.9214    0.0000 H   0  0  0  0  0  0  0  0  0  0  0  0
   -4.3546   -2.6434    0.0000 H   0  0  0  0  0  0  0  0  0  0  0  0
   -7.6060    1.4843    0.0000 H   0  0  0  0  0  0  0  0  0  0  0  0
   -9.4683   -0.3907    0.0000 H   0  0  0  0  0  0  0  0  0  0  0  0
   -7.7912    2.4386    0.0000 H   0  0  0  0  0  0  0  0  0  0  0  0
   -8.8622    2.7599    0.0000 H   0  0  0  0  0  0  0  0  0  0  0  0
   -9.8270    2.8787    0.0000 H   0  0  0  0  0  0  0  0  0  0  0  0
  -10.4635    1.9594    0.0000 H   0  0  0  0  0  0  0  0  0  0  0  0
    7.8291    1.1744    0.0000 H   0  0  0  0  0  0  0  0  0  0  0  0
    5.4204    1.9120    0.0000 H   0  0  0  0  0  0  0  0  0  0  0  0
    5.6814    2.9993    0.0000 H   0  0  0  0  0  0  0  0  0  0  0  0
    8.1467    3.8932    0.0000 H   0  0  0  0  0  0  0  0  0  0  0  0
    7.0321    3.9809    0.0000 H   0  0  0  0  0  0  0  0  0  0  0  0
    6.0642    3.8932    0.0000 H   0  0  0  0  0  0  0  0  0  0  0  0
    7.1789    3.9809    0.0000 H   0  0  0  0  0  0  0  0  0  0  0  0
    9.2020    3.2274    0.0000 H   0  0  0  0  0  0  0  0  0  0  0  0
    9.9165    0.7604    0.0000 H   0  0  0  0  0  0  0  0  0  0  0  0
   10.8431    1.2954    0.0000 H   0  0  0  0  0  0  0  0  0  0  0  0
   11.5576    1.7079    0.0000 H   0  0  0  0  0  0  0  0  0  0  0  0
   10.6310    3.3129    0.0000 H   0  0  0  0  0  0  0  0  0  0  0  0
   11.5577    2.7779    0.0000 H   0  0  0  0  0  0  0  0  0  0  0  0
   -1.9585   -3.6059    0.0000 H   0  0  0  0  0  0  0  0  0  0  0  0
   -1.0415   -5.2164    0.0000 H   0  0  0  0  0  0  0  0  0  0  0  0
   -1.9649   -4.6759    0.0000 H   0  0  0  0  0  0  0  0  0  0  0  0
    0.3869   -5.0926    0.0000 H   0  0  0  0  0  0  0  0  0  0  0  0
   -5.2685   -3.5762    0.0000 H   0  0  0  0  0  0  0  0  0  0  0  0
   -4.3512   -5.1866    0.0000 H   0  0  0  0  0  0  0  0  0  0  0  0
   -5.2748   -4.6462    0.0000 H   0  0  0  0  0  0  0  0  0  0  0  0
   -2.9229   -5.0628    0.0000 H   0  0  0  0  0  0  0  0  0  0  0  0
  1 87  1  0  0  0  0
  3 57  1  0  0  0  0
  7  3  1  0  0  0  0
  7105  1  0  0  0  0
  8  2  1  0  0  0  0
  8  7  1  0  0  0  0
  8 32  1  0  0  0  0
  8106  1  1  0  0  0
  9  2  1  0  0  0  0
  9107  1  0  0  0  0
 10  5  1  0  0  0  0
 10108  1  0  0  0  0
 11  4  1  0  0  0  0
 11109  1  0  0  0  0
 12  6  1  0  0  0  0
 12110  1  0  0  0  0
 13  4  1  0  0  0  0
 13 10  1  0  0  0  0
 13 18  1  0  0  0  0
 13111  1  6  0  0  0
 14  5  1  0  0  0  0
 14  9  1  0  0  0  0
 14 26  1  0  0  0  0
 14112  1  6  0  0  0
 15  6  1  0  0  0  0
 15 11  1  0  0  0  0
 15 27  1  0  0  0  0
 15113  1  6  0  0  0
 16  1  1  0  0  0  0
 16 12  1  0  0  0  0
 16 39  1  0  0  0  0
 16114  1  1  0  0  0
 18 45  1  0  0  0  0
 18115  1  0  0  0  0
 18116  1  0  0  0  0
 19 17  2  0  0  0  0
 19117  1  0  0  0  0
 20  1  2  0  0  0  0
 21  2  2  0  0  0  0
 22  6  2  0  0  0  0
 23  3  2  0  0  0  0
 24  5  2  0  0  0  0
 25  4  2  0  0  0  0
 26118  1  0  0  0  0
 26119  1  0  0  0  0
 27120  1  0  0  0  0
 27121  1  0  0  0  0
 28 17  1  0  0  0  0
 28122  1  0  0  0  0
 29 17  1  0  0  0  0
 29123  1  0  0  0  0
 29124  1  0  0  0  0
 30 26  1  0  0  0  0
 32125  1  0  0  0  0
 32126  1  0  0  0  0
 33 30  1  0  0  0  0
 33127  1  0  0  0  0
 34 30  2  0  0  0  0
 34128  1  0  0  0  0
 35 31  1  0  0  0  0
 35 33  2  0  0  0  0
 35129  1  0  0  0  0
 36 31  2  0  0  0  0
 36 34  1  0  0  0  0
 36130  1  0  0  0  0
 37 31  1  0  0  0  0
 37131  1  0  0  0  0
 38 32  1  0  0  0  0
 38132  1  0  0  0  0
 39133  1  0  0  0  0
 39134  1  0  0  0  0
 40 27  1  0  0  0  0
 40135  1  0  0  0  0
 41 28  1  0  0  0  0
 41136  1  0  0  0  0
 41137  1  0  0  0  0
 42 39  1  0  0  0  0
 42 41  1  0  0  0  0
 42138  1  0  0  0  0
 42139  1  0  0  0  0
 43 40  1  0  0  0  0
 43140  1  0  0  0  0
 43141  1  0  0  0  0
 43142  1  0  0  0  0
 44 40  1  0  0  0  0
 44143  1  0  0  0  0
 44144  1  0  0  0  0
 44145  1  0  0  0  0
 45 46  1  0  0  0  0
 48 46  2  0  0  0  0
 48 47  1  0  0  0  0
 48146  1  0  0  0  0
 49 47  1  0  0  0  0
 49 45  2  0  0  0  0
 49147  1  0  0  0  0
 50 47  1  0  0  0  0
 50148  1  0  0  0  0
 50149  1  0  0  0  0
 51 50  1  0  0  0  0
 52 51  1  0  0  0  0
 52150  1  0  0  0  0
 53 51  2  0  0  0  0
 53151  1  0  0  0  0
 54 52  2  0  0  0  0
 54152  1  0  0  0  0
 55 53  1  0  0  0  0
 55153  1  0  0  0  0
 56 54  1  0  0  0  0
 56 55  2  0  0  0  0
 56154  1  0  0  0  0
 57 58  1  0  0  0  0
 57 59  1  0  0  0  0
 57155  1  6  0  0  0
 58 60  1  0  0  0  0
 58156  1  0  0  0  0
 58157  1  0  0  0  0
 59 69  1  0  0  0  0
 59158  1  0  0  0  0
 61 60  1  0  0  0  0
 61 63  2  0  0  0  0
 62 60  2  0  0  0  0
 62159  1  0  0  0  0
 63 65  1  0  0  0  0
 64 62  1  0  0  0  0
 64 63  1  0  0  0  0
 64160  1  0  0  0  0
 65161  1  0  0  0  0
 66 65  2  0  0  0  0
 66162  1  0  0  0  0
 67 66  1  0  0  0  0
 67163  1  0  0  0  0
 68 61  1  0  0  0  0
 68 67  2  0  0  0  0
 68164  1  0  0  0  0
 69 70  2  0  0  0  0
 69 71  1  0  0  0  0
 71 72  1  0  0  0  0
 71 73  1  0  0  0  0
 71165  1  1  0  0  0
 72 79  1  0  0  0  0
 72166  1  0  0  0  0
 73 74  1  0  0  0  0
 73167  1  0  0  0  0
 73168  1  0  0  0  0
 75 74  1  0  0  0  0
 76 74  2  0  0  0  0
 76169  1  0  0  0  0
 77 75  2  0  0  0  0
 77170  1  0  0  0  0
 78 76  1  0  0  0  0
 78 77  1  0  0  0  0
 78171  1  0  0  0  0
 79 80  1  0  0  0  0
 79 81  2  0  0  0  0
 80 83  1  0  0  0  0
 80172  1  6  0  0  0
 82 80  1  0  0  0  0
 82173  1  0  0  0  0
 83174  1  0  0  0  0
 83175  1  0  0  0  0
 84 82  1  0  0  0  0
 84 86  2  0  0  0  0
 85 83  1  0  0  0  0
 85 84  1  0  0  0  0
 85176  1  0  0  0  0
 85177  1  0  0  0  0
 88 87  1  0  0  0  0
 88 92  1  0  0  0  0
 88178  1  6  0  0  0
 89 87  1  0  0  0  0
 89179  1  0  0  0  0
 89180  1  0  0  0  0
 90 88  1  0  0  0  0
 90181  1  0  0  0  0
 90182  1  0  0  0  0
 91 89  1  0  0  0  0
 91 90  1  0  0  0  0
 91183  1  0  0  0  0
 91184  1  0  0  0  0
 93 92  2  0  0  0  0
 94 92  1  0  0  0  0
 94 95  1  0  0  0  0
 94185  1  0  0  0  0
 95 96  1  0  0  0  0
 95186  1  0  0  0  0
 95187  1  0  0  0  0
 96188  1  0  0  0  0
 96189  1  0  0  0  0
 96190  1  0  0  0  0
 97 98  1  0  0  0  0
 97191  1  0  0  0  0
 97192  1  0  0  0  0
 97193  1  0  0  0  0
 98 99  1  0  0  0  0
 98100  2  0  0  0  0
 99194  1  0  0  0  0
101102  1  0  0  0  0
101195  1  0  0  0  0
101196  1  0  0  0  0
101197  1  0  0  0  0
102103  1  0  0  0  0
102104  2  0  0  0  0
103198  1  0  0  0  0
M  END
>  <DRUGBANK_ID>
DB06788

>  <COMMON_NAME>
Histrelin

>  <CAS_NUMBER>
76712-82-8

>  <UNII>
H50H3S3W74

>  <SYNONYMS>
[(im-Bzl)-D-His6,Pro9-NEt]-gonadotropin releasing hormone; 5-oxo-L-prolyl-L-histidyl-L-tryptophyl-L-seryl-L-tyrosyl-1-benzyl-D-histidyl-L-leucyl-L-arginyl-N-ethyl-L-prolinamide; 5-oxo-L-prolyl-L-histidyl-L-tryptophyl-L-seryl-L-tyrosyl-Nτ-benzyl-D-histidyl-L-leucyl-L-arginyl-N-ethyl-L-prolinamide	; Histrelin; histrelina; histreline; histrelinum; L-pyroglutamyl-L-histidyl-L-tryptophyl-L-seryl-L-tyrosyl-D-Nim-benzyl-histidyl-L-leucyl-L-arginyl-L-proline ethylamide

$$$$
