
 OpenBabel10282417072D

  2  1  0  0  0  0  0  0  0  0999 V2000
    0.0000    0.0000    0.0000 Tl  0  0  0  0  0  0  0  0  0  0  0  0
    0.0000    0.0000    0.0000 H   0  0  0  0  0  0  0  0  0  0  0  0
  1  2  1  0  0  0  0
M  ISO  1   1 201
M  END
>  <DRUGBANK_ID>
DB15361

>  <COMMON_NAME>
Thallium Tl-201

>  <CAS_NUMBER>
15064-65-0

>  <UNII>
H91Z8HBK1B

>  <SYNONYMS>
THALLIUM-201

$$$$
