S5H
 OpenBabel10282417072D

 68 71  0  0  0  0  0  0  0  0999 V2000
    0.1207   -1.1614    0.0000 C   0  0  0  0  0  0  0  0  0  0  0  0
    0.8352   -1.5739    0.0000 C   0  0  0  0  0  0  0  0  0  0  0  0
    1.5496   -1.1614    0.0000 C   0  0  2  0  0  0  0  0  0  0  0  0
    2.2641   -1.5739    0.0000 O   0  0  0  0  0  0  0  0  0  0  0  0
    1.5496   -0.3364    0.0000 C   0  0  0  0  0  0  0  0  0  0  0  0
    0.8352    0.0761    0.0000 C   0  0  2  0  0  0  0  0  0  0  0  0
    0.8352    0.9011    0.0000 C   0  0  0  0  0  0  0  0  0  0  0  0
    0.1207    1.3136    0.0000 C   0  0  0  0  0  0  0  0  0  0  0  0
   -0.5938    0.9011    0.0000 C   0  0  2  0  0  0  0  0  0  0  0  0
   -0.5938    0.0761    0.0000 C   0  0  1  0  0  0  0  0  0  0  0  0
    0.1207   -0.3364    0.0000 C   0  0  1  0  0  0  0  0  0  0  0  0
   -1.3083   -0.3364    0.0000 C   0  0  0  0  0  0  0  0  0  0  0  0
   -2.0227    0.0761    0.0000 C   0  0  0  0  0  0  0  0  0  0  0  0
   -2.0227    0.9011    0.0000 C   0  0  1  0  0  0  0  0  0  0  0  0
   -1.3083    1.3136    0.0000 C   0  0  1  0  0  0  0  0  0  0  0  0
   -1.4798    2.1206    0.0000 C   0  0  0  0  0  0  0  0  0  0  0  0
   -2.3003    2.2068    0.0000 C   0  0  0  0  0  0  0  0  0  0  0  0
   -2.6358    1.4532    0.0000 C   0  0  2  0  0  0  0  0  0  0  0  0
   -2.7764    0.5656    0.0000 C   0  0  0  0  0  0  0  0  0  0  0  0
   -0.5938   -0.7489    0.0000 C   0  0  0  0  0  0  0  0  0  0  0  0
   -3.4428    1.2816    0.0000 C   0  0  0  0  0  0  0  0  0  0  0  0
   -3.9948    1.8947    0.0000 O   0  0  0  0  0  0  0  0  0  0  0  0
   -3.6977    0.4970    0.0000 C   0  0  0  0  0  0  0  0  0  0  0  0
    2.9786   -1.1614    0.0000 C   0  0  0  0  0  0  0  0  0  0  0  0
    2.9786   -0.3364    0.0000 O   0  0  0  0  0  0  0  0  0  0  0  0
    3.6930   -1.5739    0.0000 C   0  0  0  0  0  0  0  0  0  0  0  0
    4.4075   -1.1614    0.0000 C   0  0  0  0  0  0  0  0  0  0  0  0
    5.1220   -1.5739    0.0000 C   0  0  0  0  0  0  0  0  0  0  0  0
    5.8365   -1.1614    0.0000 O   0  0  0  0  0  0  0  0  0  0  0  0
    5.1220   -2.3989    0.0000 O   0  0  0  0  0  0  0  0  0  0  0  0
    1.5496   -1.7453    0.0000 H   0  0  0  0  0  0  0  0  0  0  0  0
    1.3409    0.3681    0.0000 H   0  0  0  0  0  0  0  0  0  0  0  0
   -0.5938    1.4851    0.0000 H   0  0  0  0  0  0  0  0  0  0  0  0
   -0.7935   -0.4726    0.0000 H   0  0  0  0  0  0  0  0  0  0  0  0
   -0.8358    1.6569    0.0000 H   0  0  0  0  0  0  0  0  0  0  0  0
   -2.7869    0.8891    0.0000 H   0  0  0  0  0  0  0  0  0  0  0  0
   -0.8059   -1.6964    0.0000 H   0  0  0  0  0  0  0  0  0  0  0  0
   -0.8059   -0.6264    0.0000 H   0  0  0  0  0  0  0  0  0  0  0  0
    0.8352   -2.6439    0.0000 H   0  0  0  0  0  0  0  0  0  0  0  0
    1.7619   -2.1089    0.0000 H   0  0  0  0  0  0  0  0  0  0  0  0
    2.4763    0.1986    0.0000 H   0  0  0  0  0  0  0  0  0  0  0  0
    1.5496    0.7336    0.0000 H   0  0  0  0  0  0  0  0  0  0  0  0
    1.7618    1.4361    0.0000 H   0  0  0  0  0  0  0  0  0  0  0  0
    0.8352    1.9711    0.0000 H   0  0  0  0  0  0  0  0  0  0  0  0
    0.1207    2.3836    0.0000 H   0  0  0  0  0  0  0  0  0  0  0  0
   -0.8059    1.8486    0.0000 H   0  0  0  0  0  0  0  0  0  0  0  0
   -1.3083   -1.4064    0.0000 H   0  0  0  0  0  0  0  0  0  0  0  0
   -2.2350   -0.8714    0.0000 H   0  0  0  0  0  0  0  0  0  0  0  0
   -2.9494   -0.4589    0.0000 H   0  0  0  0  0  0  0  0  0  0  0  0
   -2.9493    0.6111    0.0000 H   0  0  0  0  0  0  0  0  0  0  0  0
   -0.7638    2.9158    0.0000 H   0  0  0  0  0  0  0  0  0  0  0  0
   -1.8633    3.1195    0.0000 H   0  0  0  0  0  0  0  0  0  0  0  0
   -2.8353    3.1334    0.0000 H   0  0  0  0  0  0  0  0  0  0  0  0
   -3.3688    2.1508    0.0000 H   0  0  0  0  0  0  0  0  0  0  0  0
   -3.6420    1.1946    0.0000 H   0  0  0  0  0  0  0  0  0  0  0  0
   -2.8883   -0.4985    0.0000 H   0  0  0  0  0  0  0  0  0  0  0  0
   -3.7539    0.1305    0.0000 H   0  0  0  0  0  0  0  0  0  0  0  0
   -1.5204   -0.2139    0.0000 H   0  0  0  0  0  0  0  0  0  0  0  0
   -0.5938   -1.8189    0.0000 H   0  0  0  0  0  0  0  0  0  0  0  0
   -1.5205   -1.2839    0.0000 H   0  0  0  0  0  0  0  0  0  0  0  0
   -4.7443    0.2745    0.0000 H   0  0  0  0  0  0  0  0  0  0  0  0
   -2.9817   -0.2981    0.0000 H   0  0  0  0  0  0  0  0  0  0  0  0
   -4.0283   -0.5206    0.0000 H   0  0  0  0  0  0  0  0  0  0  0  0
    3.6930   -2.6439    0.0000 H   0  0  0  0  0  0  0  0  0  0  0  0
    4.6196   -2.1089    0.0000 H   0  0  0  0  0  0  0  0  0  0  0  0
    4.4075   -0.0914    0.0000 H   0  0  0  0  0  0  0  0  0  0  0  0
    5.3341   -0.6264    0.0000 H   0  0  0  0  0  0  0  0  0  0  0  0
    4.3105   -2.8674    0.0000 H   0  0  0  0  0  0  0  0  0  0  0  0
  1  2  1  0  0  0  0
  1 11  1  0  0  0  0
  1 37  1  0  0  0  0
  1 38  1  0  0  0  0
  2  3  1  0  0  0  0
  2 39  1  0  0  0  0
  2 40  1  0  0  0  0
  3  4  1  0  0  0  0
  3  5  1  0  0  0  0
  3 31  1  6  0  0  0
  4 24  1  0  0  0  0
  5  6  1  0  0  0  0
  5 41  1  0  0  0  0
  5 42  1  0  0  0  0
  6  7  1  0  0  0  0
  6 11  1  0  0  0  0
  6 32  1  6  0  0  0
  7  8  1  0  0  0  0
  7 43  1  0  0  0  0
  7 44  1  0  0  0  0
  8  9  1  0  0  0  0
  8 45  1  0  0  0  0
  8 46  1  0  0  0  0
  9 10  1  0  0  0  0
  9 15  1  0  0  0  0
  9 33  1  1  0  0  0
 10 11  1  0  0  0  0
 10 12  1  0  0  0  0
 10 34  1  6  0  0  0
 11 20  1  1  0  0  0
 12 13  1  0  0  0  0
 12 47  1  0  0  0  0
 12 48  1  0  0  0  0
 13 14  1  0  0  0  0
 13 49  1  0  0  0  0
 13 50  1  0  0  0  0
 14 15  1  0  0  0  0
 14 18  1  0  0  0  0
 14 19  1  1  0  0  0
 15 16  1  0  0  0  0
 15 35  1  6  0  0  0
 16 17  1  0  0  0  0
 16 51  1  0  0  0  0
 16 52  1  0  0  0  0
 17 18  1  0  0  0  0
 17 53  1  0  0  0  0
 17 54  1  0  0  0  0
 18 21  1  0  0  0  0
 18 36  1  6  0  0  0
 19 55  1  0  0  0  0
 19 56  1  0  0  0  0
 19 57  1  0  0  0  0
 20 58  1  0  0  0  0
 20 59  1  0  0  0  0
 20 60  1  0  0  0  0
 21 22  2  0  0  0  0
 21 23  1  0  0  0  0
 23 61  1  0  0  0  0
 23 62  1  0  0  0  0
 23 63  1  0  0  0  0
 24 25  2  0  0  0  0
 24 26  1  0  0  0  0
 26 27  1  0  0  0  0
 26 64  1  0  0  0  0
 26 65  1  0  0  0  0
 27 28  1  0  0  0  0
 27 66  1  0  0  0  0
 27 67  1  0  0  0  0
 28 29  2  0  0  0  0
 28 30  1  0  0  0  0
 30 68  1  0  0  0  0
M  END
>  <DRUGBANK_ID>
DB08510

>  <COMMON_NAME>
5-ALPHA-PREGNANE-3-BETA-OL-HEMISUCCINATE

$$$$
