
 OpenBabel10282417072D

 58 62  0  0  1  0  0  0  0  0999 V2000
    2.5077    1.4085    0.0000 H   0  0  0  0  0  0  0  0  0  0  0  0
    2.6391    0.5940    0.0000 C   0  0  2  0  0  0  0  0  0  0  0  0
    2.5429   -0.2609    0.0000 C   0  0  0  0  0  0  0  0  0  0  0  0
    3.1064   -0.8804    0.0000 C   0  0  0  0  0  0  0  0  0  0  0  0
    3.8256   -0.4493    0.0000 C   0  0  1  0  0  0  0  0  0  0  0  0
    4.5141   -0.9039    0.0000 C   0  0  0  0  0  0  0  0  0  0  0  0
    3.9421    0.3980    0.0000 C   0  0  2  0  0  0  0  0  0  0  0  0
    4.2932    1.1446    0.0000 H   0  0  0  0  0  0  0  0  0  0  0  0
    4.7995    0.4092    0.0000 C   0  0  0  0  0  0  0  0  0  0  0  0
    5.2883    1.0982    0.0000 C   0  0  0  0  0  0  0  0  0  0  0  0
    4.8026    1.7960    0.0000 C   0  0  1  0  0  0  0  0  0  0  0  0
    5.4880    2.2551    0.0000 C   0  0  0  0  0  0  0  0  0  0  0  0
    4.3462    2.5046    0.0000 O   0  0  0  0  0  0  0  0  0  0  0  0
    3.6200    2.0443    0.0000 O   0  0  0  0  0  0  0  0  0  0  0  0
    3.3814    1.0934    0.0000 C   0  0  1  0  0  0  0  0  0  0  0  0
    3.0379    1.8038    0.0000 C   0  0  2  0  0  0  0  0  0  0  0  0
    3.0085    2.6283    0.0000 H   0  0  0  0  0  0  0  0  0  0  0  0
    2.2230    2.0744    0.0000 O   0  0  0  0  0  0  0  0  0  0  0  0
    1.5179    1.6168    0.0000 C   0  0  2  0  0  0  0  0  0  0  0  0
    1.8064    0.8267    0.0000 C   0  0  2  0  0  0  0  0  0  0  0  0
    1.2462    0.2211    0.0000 C   0  0  0  0  0  0  0  0  0  0  0  0
    0.7354    1.8782    0.0000 N   0  0  0  0  0  0  0  0  0  0  0  0
    0.1177    1.3313    0.0000 C   0  0  0  0  0  0  0  0  0  0  0  0
   -0.6647    1.5928    0.0000 C   0  0  0  0  0  0  0  0  0  0  0  0
   -0.8295    2.4012    0.0000 S   0  0  0  0  0  0  0  0  0  0  0  0
   -1.5970    2.0985    0.0000 O   0  0  0  0  0  0  0  0  0  0  0  0
   -1.2609    3.1044    0.0000 O   0  0  0  0  0  0  0  0  0  0  0  0
   -0.2119    2.9481    0.0000 C   0  0  0  0  0  0  0  0  0  0  0  0
    0.5706    2.6866    0.0000 C   0  0  0  0  0  0  0  0  0  0  0  0
    3.9705    1.5831    0.0000 O   0  0  0  0  0  0  0  0  0  0  0  0
    1.5249   -0.5904    0.0000 H   0  0  0  0  0  0  0  0  0  0  0  0
    2.2680   -1.2950    0.0000 H   0  0  0  0  0  0  0  0  0  0  0  0
    2.9504   -1.9390    0.0000 H   0  0  0  0  0  0  0  0  0  0  0  0
    3.9964   -1.4744    0.0000 H   0  0  0  0  0  0  0  0  0  0  0  0
    3.8023   -1.5190    0.0000 H   0  0  0  0  0  0  0  0  0  0  0  0
    4.4500   -1.9720    0.0000 H   0  0  0  0  0  0  0  0  0  0  0  0
    5.4711   -0.4254    0.0000 H   0  0  0  0  0  0  0  0  0  0  0  0
    5.4070   -1.4935    0.0000 H   0  0  0  0  0  0  0  0  0  0  0  0
    5.2968   -0.5382    0.0000 H   0  0  0  0  0  0  0  0  0  0  0  0
    5.8671    0.3378    0.0000 H   0  0  0  0  0  0  0  0  0  0  0  0
    6.3583    1.0934    0.0000 H   0  0  0  0  0  0  0  0  0  0  0  0
    5.7858    2.0455    0.0000 H   0  0  0  0  0  0  0  0  0  0  0  0
    6.4482    1.7829    0.0000 H   0  0  0  0  0  0  0  0  0  0  0  0
    5.4168    3.3227    0.0000 H   0  0  0  0  0  0  0  0  0  0  0  0
    6.3770    2.8506    0.0000 H   0  0  0  0  0  0  0  0  0  0  0  0
    1.3828    2.6782    0.0000 H   0  0  0  0  0  0  0  0  0  0  0  0
    0.7573    1.0374    0.0000 H   0  0  0  0  0  0  0  0  0  0  0  0
    0.2027    0.4576    0.0000 H   0  0  0  0  0  0  0  0  0  0  0  0
    1.5631   -0.8009    0.0000 H   0  0  0  0  0  0  0  0  0  0  0  0
    0.5196   -0.5644    0.0000 H   0  0  0  0  0  0  0  0  0  0  0  0
    0.3314    0.2829    0.0000 H   0  0  0  0  0  0  0  0  0  0  0  0
   -0.6834    0.6220    0.0000 H   0  0  0  0  0  0  0  0  0  0  0  0
   -1.4658    0.8835    0.0000 H   0  0  0  0  0  0  0  0  0  0  0  0
   -1.6795    1.9319    0.0000 H   0  0  0  0  0  0  0  0  0  0  0  0
   -0.4257    3.9965    0.0000 H   0  0  0  0  0  0  0  0  0  0  0  0
    0.5892    3.6574    0.0000 H   0  0  0  0  0  0  0  0  0  0  0  0
    1.3717    3.3959    0.0000 H   0  0  0  0  0  0  0  0  0  0  0  0
    1.5854    2.3475    0.0000 H   0  0  0  0  0  0  0  0  0  0  0  0
  2  1  1  6  0  0  0
  2  3  1  0  0  0  0
  2 20  1  0  0  0  0
  3  4  1  0  0  0  0
  3 31  1  0  0  0  0
  3 32  1  0  0  0  0
  4 33  1  0  0  0  0
  4 34  1  0  0  0  0
  5  4  1  0  0  0  0
  5  6  1  0  0  0  0
  5 35  1  1  0  0  0
  6 36  1  0  0  0  0
  6 37  1  0  0  0  0
  6 38  1  0  0  0  0
  7  5  1  0  0  0  0
  7  8  1  6  0  0  0
  7  9  1  0  0  0  0
  9 10  1  0  0  0  0
  9 39  1  0  0  0  0
  9 40  1  0  0  0  0
 10 41  1  0  0  0  0
 10 42  1  0  0  0  0
 11 10  1  0  0  0  0
 11 12  1  1  0  0  0
 11 13  1  0  0  0  0
 11 30  1  0  0  0  0
 12 43  1  0  0  0  0
 12 44  1  0  0  0  0
 12 45  1  0  0  0  0
 13 14  1  0  0  0  0
 15 14  1  6  0  0  0
 15  2  1  0  0  0  0
 15  7  1  0  0  0  0
 15 16  1  0  0  0  0
 16 17  1  1  0  0  0
 16 18  1  0  0  0  0
 16 30  1  0  0  0  0
 19 18  1  0  0  0  0
 19 22  1  0  0  0  0
 19 46  1  1  0  0  0
 20 19  1  0  0  0  0
 20 21  1  0  0  0  0
 20 47  1  6  0  0  0
 21 48  1  0  0  0  0
 21 49  1  0  0  0  0
 21 50  1  0  0  0  0
 22 23  1  0  0  0  0
 22 29  1  0  0  0  0
 23 24  1  0  0  0  0
 23 51  1  0  0  0  0
 23 52  1  0  0  0  0
 24 25  1  0  0  0  0
 24 53  1  0  0  0  0
 24 54  1  0  0  0  0
 25 26  2  0  0  0  0
 25 27  2  0  0  0  0
 25 28  1  0  0  0  0
 28 29  1  0  0  0  0
 28 55  1  0  0  0  0
 28 56  1  0  0  0  0
 29 57  1  0  0  0  0
 29 58  1  0  0  0  0
M  END
>  <DRUGBANK_ID>
DB16097

>  <COMMON_NAME>
Artemisone

>  <CAS_NUMBER>
255730-18-8

>  <UNII>
796LMW5BUZ

>  <SYNONYMS>
Artemifone; Artemisone

$$$$
