
 OpenBabel10282417072D

 31 32  0  0  0  0  0  0  0  0999 V2000
    0.3152   -0.7953    0.0000 S   0  0  0  0  0  0  0  0  0  0  0  0
    1.0333   -1.2087    0.0000 N   0  0  0  0  0  0  0  0  0  0  0  0
    1.7807   -0.8538    0.0000 C   0  0  0  0  0  0  0  0  0  0  0  0
   -0.4071   -0.3820    0.0000 C   0  0  0  0  0  0  0  0  0  0  0  0
    0.3152   -1.6220    0.0000 O   0  0  0  0  0  0  0  0  0  0  0  0
    0.3069    0.0312    0.0000 O   0  0  0  0  0  0  0  0  0  0  0  0
    2.5114   -1.2546    0.0000 O   0  0  0  0  0  0  0  0  0  0  0  0
    1.7974   -0.0270    0.0000 C   0  0  0  0  0  0  0  0  0  0  0  0
   -1.1210   -0.7953    0.0000 C   0  0  0  0  0  0  0  0  0  0  0  0
   -0.4071    0.4447    0.0000 C   0  0  0  0  0  0  0  0  0  0  0  0
   -1.8350    0.4447    0.0000 C   0  0  0  0  0  0  0  0  0  0  0  0
   -2.5490    0.8580    0.0000 N   0  0  0  0  0  0  0  0  0  0  0  0
   -1.1210    0.8580    0.0000 C   0  0  0  0  0  0  0  0  0  0  0  0
   -1.8350   -0.3820    0.0000 C   0  0  0  0  0  0  0  0  0  0  0  0
    2.5239    0.3612    0.0000 C   0  0  0  0  0  0  0  0  0  0  0  0
    1.0959    0.3988    0.0000 C   0  0  0  0  0  0  0  0  0  0  0  0
    1.1168    1.2213    0.0000 C   0  0  0  0  0  0  0  0  0  0  0  0
    2.5490    1.1878    0.0000 C   0  0  0  0  0  0  0  0  0  0  0  0
    1.8475    1.6220    0.0000 C   0  0  0  0  0  0  0  0  0  0  0  0
    0.9944   -2.1924    0.0000 H   0  0  0  0  0  0  0  0  0  0  0  0
   -1.1210   -1.8273    0.0000 H   0  0  0  0  0  0  0  0  0  0  0  0
    0.4869    0.9602    0.0000 H   0  0  0  0  0  0  0  0  0  0  0  0
   -2.5479    1.8425    0.0000 H   0  0  0  0  0  0  0  0  0  0  0  0
   -3.4022    0.3667    0.0000 H   0  0  0  0  0  0  0  0  0  0  0  0
   -1.1210    1.8900    0.0000 H   0  0  0  0  0  0  0  0  0  0  0  0
   -2.7290   -0.8975    0.0000 H   0  0  0  0  0  0  0  0  0  0  0  0
    3.4009   -0.1828    0.0000 H   0  0  0  0  0  0  0  0  0  0  0  0
    0.1902   -0.0959    0.0000 H   0  0  0  0  0  0  0  0  0  0  0  0
    0.2355    1.7583    0.0000 H   0  0  0  0  0  0  0  0  0  0  0  0
    3.4581    1.6763    0.0000 H   0  0  0  0  0  0  0  0  0  0  0  0
    1.8747    2.6536    0.0000 H   0  0  0  0  0  0  0  0  0  0  0  0
  2  1  1  0  0  0  0
  2 20  1  0  0  0  0
  3  2  1  0  0  0  0
  4  1  1  0  0  0  0
  5  1  2  0  0  0  0
  6  1  2  0  0  0  0
  7  3  2  0  0  0  0
  8  3  1  0  0  0  0
  9  4  2  0  0  0  0
  9 21  1  0  0  0  0
 10  4  1  0  0  0  0
 10 22  1  0  0  0  0
 11 13  1  0  0  0  0
 11 14  2  0  0  0  0
 12 11  1  0  0  0  0
 12 23  1  0  0  0  0
 12 24  1  0  0  0  0
 13 10  2  0  0  0  0
 13 25  1  0  0  0  0
 14  9  1  0  0  0  0
 14 26  1  0  0  0  0
 15  8  2  0  0  0  0
 15 27  1  0  0  0  0
 16  8  1  0  0  0  0
 16 28  1  0  0  0  0
 17 16  2  0  0  0  0
 17 29  1  0  0  0  0
 18 15  1  0  0  0  0
 18 19  2  0  0  0  0
 18 30  1  0  0  0  0
 19 17  1  0  0  0  0
 19 31  1  0  0  0  0
M  END
>  <DRUGBANK_ID>
DB09355

>  <COMMON_NAME>
Sulfabenzamide

>  <CAS_NUMBER>
127-71-9

>  <UNII>
G58F8OPL4I

>  <SYNONYMS>
N-Benzoylsulfanilamide; N-Sulfanilylbenzamide; Sulfabenzamida; Sulfabenzamide; Sulfabenzamidum; Sulfabenzoylamide; Sulfamylbenzamide

$$$$
