MSI
 OpenBabel10282417072D

 48 51  0  0  0  0  0  0  0  0999 V2000
    0.7778   -0.6767    0.0000 S   0  0  0  0  0  0  0  0  0  0  0  0
   -2.1502   -2.1691    0.0000 N   0  0  0  0  0  0  0  0  0  0  0  0
    1.4923   -0.2642    0.0000 N   0  0  0  0  0  0  0  0  0  0  0  0
    0.1808    0.8534    0.0000 O   0  0  0  0  0  0  0  0  0  0  0  0
   -3.4601   -1.5017    0.0000 O   0  0  0  0  0  0  0  0  0  0  0  0
   -2.4052   -0.0496    0.0000 O   0  0  0  0  0  0  0  0  0  0  0  0
    1.1903   -1.3912    0.0000 O   0  0  0  0  0  0  0  0  0  0  0  0
    0.3653    0.0378    0.0000 O   0  0  0  0  0  0  0  0  0  0  0  0
   -2.6351   -1.5017    0.0000 C   0  0  0  0  0  0  0  0  0  0  0  0
   -2.1502   -0.8343    0.0000 C   0  0  0  0  0  0  0  0  0  0  0  0
   -0.6511   -0.6767    0.0000 C   0  0  0  0  0  0  0  0  0  0  0  0
    0.0633   -1.0892    0.0000 C   0  0  0  0  0  0  0  0  0  0  0  0
    0.0633   -1.9142    0.0000 C   0  0  0  0  0  0  0  0  0  0  0  0
   -0.6511   -2.3267    0.0000 C   0  0  0  0  0  0  0  0  0  0  0  0
   -1.3656   -1.9142    0.0000 C   0  0  0  0  0  0  0  0  0  0  0  0
   -1.3656   -1.0892    0.0000 C   0  0  0  0  0  0  0  0  0  0  0  0
    1.5785    0.5563    0.0000 C   0  0  1  0  0  0  0  0  0  0  0  0
    2.3855    0.7278    0.0000 C   0  0  0  0  0  0  0  0  0  0  0  0
    2.7980    0.0133    0.0000 C   0  0  0  0  0  0  0  0  0  0  0  0
    2.2460   -0.5998    0.0000 C   0  0  0  0  0  0  0  0  0  0  0  0
    0.9654    1.1083    0.0000 C   0  0  0  0  0  0  0  0  0  0  0  0
   -0.4323    1.4054    0.0000 C   0  0  0  0  0  0  0  0  0  0  0  0
   -1.2169    1.1505    0.0000 C   0  0  0  0  0  0  0  0  0  0  0  0
   -1.8300    1.7025    0.0000 C   0  0  0  0  0  0  0  0  0  0  0  0
   -1.6585    2.5095    0.0000 C   0  0  0  0  0  0  0  0  0  0  0  0
   -0.8739    2.7644    0.0000 C   0  0  0  0  0  0  0  0  0  0  0  0
   -0.2608    2.2124    0.0000 C   0  0  0  0  0  0  0  0  0  0  0  0
   -2.4052   -2.9538    0.0000 C   0  0  0  0  0  0  0  0  0  0  0  0
    1.0334    0.3470    0.0000 H   0  0  0  0  0  0  0  0  0  0  0  0
   -0.6511    0.3553    0.0000 H   0  0  0  0  0  0  0  0  0  0  0  0
    0.9570   -2.4302    0.0000 H   0  0  0  0  0  0  0  0  0  0  0  0
   -0.6511   -3.3587    0.0000 H   0  0  0  0  0  0  0  0  0  0  0  0
    2.8207    1.7053    0.0000 H   0  0  0  0  0  0  0  0  0  0  0  0
    3.4540    0.7838    0.0000 H   0  0  0  0  0  0  0  0  0  0  0  0
    3.8621   -0.0985    0.0000 H   0  0  0  0  0  0  0  0  0  0  0  0
    3.1815   -0.9856    0.0000 H   0  0  0  0  0  0  0  0  0  0  0  0
    2.4685   -1.6464    0.0000 H   0  0  0  0  0  0  0  0  0  0  0  0
    3.2795   -0.8767    0.0000 H   0  0  0  0  0  0  0  0  0  0  0  0
    1.1879    2.1549    0.0000 H   0  0  0  0  0  0  0  0  0  0  0  0
    1.9830    1.4390    0.0000 H   0  0  0  0  0  0  0  0  0  0  0  0
   -1.4315    0.1411    0.0000 H   0  0  0  0  0  0  0  0  0  0  0  0
   -2.8115    1.3836    0.0000 H   0  0  0  0  0  0  0  0  0  0  0  0
   -2.4254    3.2000    0.0000 H   0  0  0  0  0  0  0  0  0  0  0  0
   -0.6593    3.7738    0.0000 H   0  0  0  0  0  0  0  0  0  0  0  0
    0.7207    2.5313    0.0000 H   0  0  0  0  0  0  0  0  0  0  0  0
   -3.4518   -3.1762    0.0000 H   0  0  0  0  0  0  0  0  0  0  0  0
   -1.6893   -3.7490    0.0000 H   0  0  0  0  0  0  0  0  0  0  0  0
   -2.7359   -3.9714    0.0000 H   0  0  0  0  0  0  0  0  0  0  0  0
  1  3  1  0  0  0  0
  1  7  2  0  0  0  0
  1  8  2  0  0  0  0
  1 12  1  0  0  0  0
  2  9  1  0  0  0  0
  2 15  1  0  0  0  0
  2 28  1  0  0  0  0
  3 17  1  0  0  0  0
  3 20  1  0  0  0  0
  4 21  1  0  0  0  0
  4 22  1  0  0  0  0
  5  9  2  0  0  0  0
  6 10  2  0  0  0  0
  9 10  1  0  0  0  0
 10 16  1  0  0  0  0
 11 12  2  0  0  0  0
 11 16  1  0  0  0  0
 11 30  1  0  0  0  0
 12 13  1  0  0  0  0
 13 14  2  0  0  0  0
 13 31  1  0  0  0  0
 14 15  1  0  0  0  0
 14 32  1  0  0  0  0
 15 16  2  0  0  0  0
 17 18  1  0  0  0  0
 17 21  1  0  0  0  0
 17 29  1  1  0  0  0
 18 19  1  0  0  0  0
 18 33  1  0  0  0  0
 18 34  1  0  0  0  0
 19 20  1  0  0  0  0
 19 35  1  0  0  0  0
 19 36  1  0  0  0  0
 20 37  1  0  0  0  0
 20 38  1  0  0  0  0
 21 39  1  0  0  0  0
 21 40  1  0  0  0  0
 22 23  2  0  0  0  0
 22 27  1  0  0  0  0
 23 24  1  0  0  0  0
 23 41  1  0  0  0  0
 24 25  2  0  0  0  0
 24 42  1  0  0  0  0
 25 26  1  0  0  0  0
 25 43  1  0  0  0  0
 26 27  2  0  0  0  0
 26 44  1  0  0  0  0
 27 45  1  0  0  0  0
 28 46  1  0  0  0  0
 28 47  1  0  0  0  0
 28 48  1  0  0  0  0
M  END
>  <DRUGBANK_ID>
DB08213

>  <COMMON_NAME>
1-METHYL-5-(2-PHENOXYMETHYL-PYRROLIDINE-1-SULFONYL)-1H-INDOLE-2,3-DIONE

$$$$
