
 OpenBabel10282417072D

 39 42  0  0  0  0  0  0  0  0999 V2000
    2.8579    1.9335    0.0000 O   0  0  0  0  0  0  0  0  0  0  0  0
    2.1434    1.5210    0.0000 C   0  0  0  0  0  0  0  0  0  0  0  0
    0.0000    1.9335    0.0000 O   0  0  0  0  0  0  0  0  0  0  0  0
    0.7145    1.5210    0.0000 C   0  0  0  0  0  0  0  0  0  0  0  0
    1.4289    0.2835    0.0000 C   0  0  0  0  0  0  0  0  0  0  0  0
    2.1434    0.6960    0.0000 C   0  0  0  0  0  0  0  0  0  0  0  0
    0.7145    0.6960    0.0000 C   0  0  0  0  0  0  0  0  0  0  0  0
   -0.7145    0.6960    0.0000 C   0  0  0  0  0  0  0  0  0  0  0  0
   -0.7145    1.5210    0.0000 C   0  0  0  0  0  0  0  0  0  0  0  0
   -1.4289    0.2835    0.0000 C   0  0  0  0  0  0  0  0  0  0  0  0
    1.4289    1.9335    0.0000 C   0  0  0  0  0  0  0  0  0  0  0  0
   -1.4289    1.9335    0.0000 C   0  0  0  0  0  0  0  0  0  0  0  0
   -2.1434    0.6960    0.0000 C   0  0  0  0  0  0  0  0  0  0  0  0
   -2.1434    1.5210    0.0000 C   0  0  0  0  0  0  0  0  0  0  0  0
   -2.8579    1.9335    0.0000 O   0  0  0  0  0  0  0  0  0  0  0  0
    0.0000    0.2835    0.0000 C   0  0  0  0  0  0  0  0  0  0  0  0
   -0.2438   -0.5046    0.0000 C   0  0  0  0  0  0  0  0  0  0  0  0
   -1.0688   -0.5046    0.0000 C   0  0  0  0  0  0  0  0  0  0  0  0
   -1.4813   -1.2190    0.0000 C   0  0  0  0  0  0  0  0  0  0  0  0
   -1.0688   -1.9335    0.0000 C   0  0  0  0  0  0  0  0  0  0  0  0
   -0.2438   -1.9335    0.0000 C   0  0  0  0  0  0  0  0  0  0  0  0
    0.1687   -1.2190    0.0000 C   0  0  0  0  0  0  0  0  0  0  0  0
    0.9937   -1.2190    0.0000 C   0  0  0  0  0  0  0  0  0  0  0  0
    1.4061   -0.5046    0.0000 O   0  0  0  0  0  0  0  0  0  0  0  0
    1.4061   -1.9335    0.0000 O   0  0  0  0  0  0  0  0  0  0  0  0
    3.6694    1.4650    0.0000 H   0  0  0  0  0  0  0  0  0  0  0  0
    1.4289   -0.7485    0.0000 H   0  0  0  0  0  0  0  0  0  0  0  0
    3.0371    0.1800    0.0000 H   0  0  0  0  0  0  0  0  0  0  0  0
   -1.4289   -0.7485    0.0000 H   0  0  0  0  0  0  0  0  0  0  0  0
    1.4289    2.9655    0.0000 H   0  0  0  0  0  0  0  0  0  0  0  0
   -1.4289    2.9655    0.0000 H   0  0  0  0  0  0  0  0  0  0  0  0
   -3.0371    0.1800    0.0000 H   0  0  0  0  0  0  0  0  0  0  0  0
   -2.8579    2.8705    0.0000 H   0  0  0  0  0  0  0  0  0  0  0  0
    0.8363   -0.3840    0.0000 H   0  0  0  0  0  0  0  0  0  0  0  0
   -1.5848    0.3891    0.0000 H   0  0  0  0  0  0  0  0  0  0  0  0
   -2.5133   -1.2190    0.0000 H   0  0  0  0  0  0  0  0  0  0  0  0
   -1.5848   -2.8272    0.0000 H   0  0  0  0  0  0  0  0  0  0  0  0
    0.2722   -2.8272    0.0000 H   0  0  0  0  0  0  0  0  0  0  0  0
    0.9375   -2.7449    0.0000 H   0  0  0  0  0  0  0  0  0  0  0  0
  1 26  1  0  0  0  0
  2  1  1  0  0  0  0
  4  3  1  0  0  0  0
  4 11  2  0  0  0  0
  5  6  1  0  0  0  0
  5 27  1  0  0  0  0
  6  2  2  0  0  0  0
  6 28  1  0  0  0  0
  7  5  2  0  0  0  0
  7  4  1  0  0  0  0
  8  9  1  0  0  0  0
  8 10  2  0  0  0  0
  9  3  1  0  0  0  0
  9 12  2  0  0  0  0
 10 13  1  0  0  0  0
 10 29  1  0  0  0  0
 11  2  1  0  0  0  0
 11 30  1  0  0  0  0
 12 14  1  0  0  0  0
 12 31  1  0  0  0  0
 13 14  2  0  0  0  0
 13 32  1  0  0  0  0
 14 15  1  0  0  0  0
 15 33  1  0  0  0  0
 16  8  1  0  0  0  0
 16  7  1  0  0  0  0
 16 17  1  0  0  0  0
 16 34  1  0  0  0  0
 17 18  1  0  0  0  0
 18 19  2  0  0  0  0
 18 35  1  0  0  0  0
 19 20  1  0  0  0  0
 19 36  1  0  0  0  0
 20 21  2  0  0  0  0
 20 37  1  0  0  0  0
 21 22  1  0  0  0  0
 21 38  1  0  0  0  0
 22 17  2  0  0  0  0
 22 23  1  0  0  0  0
 23 25  1  0  0  0  0
 23 24  2  0  0  0  0
 25 39  1  0  0  0  0
M  END
>  <DRUGBANK_ID>
DB07764

>  <COMMON_NAME>
Fluorescin

>  <CAS_NUMBER>
518-44-5

>  <UNII>
ES5WQ31089

>  <SYNONYMS>
2-(3,6-dihydroxyxanthen-9-yl)benzoic acid

$$$$
