740
 OpenBabel10282417072D

 59 63  0  0  0  0  0  0  0  0999 V2000
   -3.1901   -1.0934    0.0000 C   0  0  0  0  0  0  0  0  0  0  0  0
   -2.6381   -1.7065    0.0000 C   0  0  0  0  0  0  0  0  0  0  0  0
   -1.8311   -1.5350    0.0000 C   0  0  0  0  0  0  0  0  0  0  0  0
   -1.5762   -0.7504    0.0000 C   0  0  0  0  0  0  0  0  0  0  0  0
   -2.1282   -0.1373    0.0000 C   0  0  0  0  0  0  0  0  0  0  0  0
   -2.9352   -0.3088    0.0000 C   0  0  0  0  0  0  0  0  0  0  0  0
   -0.7692   -0.5789    0.0000 C   0  0  0  0  0  0  0  0  0  0  0  0
   -0.5143    0.2058    0.0000 C   0  0  0  0  0  0  0  0  0  0  0  0
    0.2927    0.3773    0.0000 N   0  0  0  0  0  0  0  0  0  0  0  0
    0.5476    1.1619    0.0000 C   0  0  0  0  0  0  0  0  0  0  0  0
    0.0627    1.8293    0.0000 N   0  0  0  0  0  0  0  0  0  0  0  0
    0.5476    2.4968    0.0000 N   0  0  0  0  0  0  0  0  0  0  0  0
    1.3323    2.2418    0.0000 C   0  0  0  0  0  0  0  0  0  0  0  0
    2.0467    2.6543    0.0000 C   0  0  0  0  0  0  0  0  0  0  0  0
    2.7612    2.2418    0.0000 C   0  0  0  0  0  0  0  0  0  0  0  0
    2.7612    1.4168    0.0000 C   0  0  0  0  0  0  0  0  0  0  0  0
    2.0467    1.0043    0.0000 C   0  0  0  0  0  0  0  0  0  0  0  0
    1.3323    1.4168    0.0000 C   0  0  0  0  0  0  0  0  0  0  0  0
    3.4757    1.0043    0.0000 N   0  0  0  0  0  0  0  0  0  0  0  0
    4.2293    1.3399    0.0000 C   0  0  0  0  0  0  0  0  0  0  0  0
   -1.0663    0.8189    0.0000 O   0  0  0  0  0  0  0  0  0  0  0  0
    4.7814    0.7268    0.0000 C   0  0  0  0  0  0  0  0  0  0  0  0
    3.5619    0.1839    0.0000 S   0  0  0  0  0  0  0  0  0  0  0  0
    4.3689    0.0123    0.0000 C   0  0  0  0  0  0  0  0  0  0  0  0
    2.7568    0.0039    0.0000 O   0  0  0  0  0  0  0  0  0  0  0  0
    3.2988   -0.5980    0.0000 O   0  0  0  0  0  0  0  0  0  0  0  0
   -4.2520   -2.0496    0.0000 C   0  0  0  0  0  0  0  0  0  0  0  0
   -3.9971   -1.2650    0.0000 N   0  0  0  0  0  0  0  0  0  0  0  0
   -4.5491   -0.6519    0.0000 C   0  0  0  0  0  0  0  0  0  0  0  0
   -5.3561   -0.8234    0.0000 C   0  0  0  0  0  0  0  0  0  0  0  0
   -5.6110   -1.6080    0.0000 C   0  0  0  0  0  0  0  0  0  0  0  0
   -5.0590   -2.2211    0.0000 C   0  0  0  0  0  0  0  0  0  0  0  0
   -2.9570   -2.6880    0.0000 H   0  0  0  0  0  0  0  0  0  0  0  0
   -1.1406   -2.3019    0.0000 H   0  0  0  0  0  0  0  0  0  0  0  0
   -1.8093    0.8442    0.0000 H   0  0  0  0  0  0  0  0  0  0  0  0
   -3.6257    0.4581    0.0000 H   0  0  0  0  0  0  0  0  0  0  0  0
   -0.0532   -1.3741    0.0000 H   0  0  0  0  0  0  0  0  0  0  0  0
    0.2774   -0.3564    0.0000 H   0  0  0  0  0  0  0  0  0  0  0  0
    0.9515   -0.3543    0.0000 H   0  0  0  0  0  0  0  0  0  0  0  0
    0.2434    3.4331    0.0000 H   0  0  0  0  0  0  0  0  0  0  0  0
    2.0467    3.6863    0.0000 H   0  0  0  0  0  0  0  0  0  0  0  0
    3.6549    2.7578    0.0000 H   0  0  0  0  0  0  0  0  0  0  0  0
    2.0467   -0.0277    0.0000 H   0  0  0  0  0  0  0  0  0  0  0  0
    4.4517    2.3865    0.0000 H   0  0  0  0  0  0  0  0  0  0  0  0
    5.2628    1.6169    0.0000 H   0  0  0  0  0  0  0  0  0  0  0  0
    5.8455    0.8387    0.0000 H   0  0  0  0  0  0  0  0  0  0  0  0
    5.3642   -0.1706    0.0000 H   0  0  0  0  0  0  0  0  0  0  0  0
    4.8041   -0.9652    0.0000 H   0  0  0  0  0  0  0  0  0  0  0  0
    3.6955   -0.8192    0.0000 H   0  0  0  0  0  0  0  0  0  0  0  0
   -3.5360   -2.8448    0.0000 H   0  0  0  0  0  0  0  0  0  0  0  0
   -3.2054   -1.8271    0.0000 H   0  0  0  0  0  0  0  0  0  0  0  0
   -4.2184    0.3657    0.0000 H   0  0  0  0  0  0  0  0  0  0  0  0
   -5.2650    0.1433    0.0000 H   0  0  0  0  0  0  0  0  0  0  0  0
   -6.0721   -0.0282    0.0000 H   0  0  0  0  0  0  0  0  0  0  0  0
   -6.4027   -1.0459    0.0000 H   0  0  0  0  0  0  0  0  0  0  0  0
   -6.6576   -1.8305    0.0000 H   0  0  0  0  0  0  0  0  0  0  0  0
   -5.9417   -2.6256    0.0000 H   0  0  0  0  0  0  0  0  0  0  0  0
   -5.3897   -3.2387    0.0000 H   0  0  0  0  0  0  0  0  0  0  0  0
   -6.1056   -2.4435    0.0000 H   0  0  0  0  0  0  0  0  0  0  0  0
  1  6  2  0  0  0  0
  1  2  1  0  0  0  0
  1 28  1  0  0  0  0
  2  3  2  0  0  0  0
  2 33  1  0  0  0  0
  3  4  1  0  0  0  0
  3 34  1  0  0  0  0
  4  7  1  0  0  0  0
  4  5  2  0  0  0  0
  5  6  1  0  0  0  0
  5 35  1  0  0  0  0
  6 36  1  0  0  0  0
  7  8  1  0  0  0  0
  7 37  1  0  0  0  0
  7 38  1  0  0  0  0
  8 21  2  0  0  0  0
  8  9  1  0  0  0  0
  9 10  1  0  0  0  0
  9 39  1  0  0  0  0
 10 11  2  0  0  0  0
 10 18  1  0  0  0  0
 11 12  1  0  0  0  0
 12 13  1  0  0  0  0
 12 40  1  0  0  0  0
 13 14  1  0  0  0  0
 13 18  2  0  0  0  0
 14 15  2  0  0  0  0
 14 41  1  0  0  0  0
 15 16  1  0  0  0  0
 15 42  1  0  0  0  0
 16 17  2  0  0  0  0
 16 19  1  0  0  0  0
 17 18  1  0  0  0  0
 17 43  1  0  0  0  0
 19 20  1  0  0  0  0
 19 23  1  0  0  0  0
 20 22  1  0  0  0  0
 20 44  1  0  0  0  0
 20 45  1  0  0  0  0
 22 24  1  0  0  0  0
 22 46  1  0  0  0  0
 22 47  1  0  0  0  0
 23 24  1  0  0  0  0
 23 25  2  0  0  0  0
 23 26  2  0  0  0  0
 24 48  1  0  0  0  0
 24 49  1  0  0  0  0
 27 32  1  0  0  0  0
 27 28  1  0  0  0  0
 27 50  1  0  0  0  0
 27 51  1  0  0  0  0
 28 29  1  0  0  0  0
 29 30  1  0  0  0  0
 29 52  1  0  0  0  0
 29 53  1  0  0  0  0
 30 31  1  0  0  0  0
 30 54  1  0  0  0  0
 30 55  1  0  0  0  0
 31 32  1  0  0  0  0
 31 56  1  0  0  0  0
 31 57  1  0  0  0  0
 32 58  1  0  0  0  0
 32 59  1  0  0  0  0
M  END
>  <DRUGBANK_ID>
DB07220

>  <COMMON_NAME>
N-[5-(1,1-DIOXIDOISOTHIAZOLIDIN-2-YL)-1H-INDAZOL-3-YL]-2-(4-PIPERIDIN-1-YLPHENYL)ACETAMIDE

$$$$
