
 OpenBabel10282417072D

 22 21  0  0  1  0  0  0  0  0999 V2000
    1.7605    1.8414    0.0000 C   0  0  0  0  0  0  0  0  0  0  0  0
    2.4750    1.4289    0.0000 C   0  0  0  0  0  0  0  0  0  0  0  0
    3.9039    1.4289    0.0000 C   0  0  0  0  0  0  0  0  0  0  0  0
    4.6184    1.8414    0.0000 C   0  0  0  0  0  0  0  0  0  0  0  0
    3.1895    1.8414    0.0000 C   0  0  2  0  0  0  0  0  0  0  0  0
    5.3329    1.4289    0.0000 C   0  0  0  0  0  0  0  0  0  0  0  0
    3.1895    2.6664    0.0000 N   0  0  0  0  0  0  0  0  0  0  0  0
    6.0474    1.8414    0.0000 O   0  0  0  0  0  0  0  0  0  0  0  0
    5.3329    0.6039    0.0000 O   0  0  0  0  0  0  0  0  0  0  0  0
    3.1895    1.0164    0.0000 H   0  0  0  0  0  0  0  0  0  0  0  0
    1.7605    2.9114    0.0000 H   0  0  0  0  0  0  0  0  0  0  0  0
    0.8339    1.3064    0.0000 H   0  0  0  0  0  0  0  0  0  0  0  0
    0.8338    2.3764    0.0000 H   0  0  0  0  0  0  0  0  0  0  0  0
    2.4750    0.3589    0.0000 H   0  0  0  0  0  0  0  0  0  0  0  0
    3.4016    0.8939    0.0000 H   0  0  0  0  0  0  0  0  0  0  0  0
    3.9039    0.3589    0.0000 H   0  0  0  0  0  0  0  0  0  0  0  0
    2.9772    0.8939    0.0000 H   0  0  0  0  0  0  0  0  0  0  0  0
    4.6184    2.9114    0.0000 H   0  0  0  0  0  0  0  0  0  0  0  0
    5.5450    2.3764    0.0000 H   0  0  0  0  0  0  0  0  0  0  0  0
    4.0728    3.1764    0.0000 H   0  0  0  0  0  0  0  0  0  0  0  0
    2.3062    3.1764    0.0000 H   0  0  0  0  0  0  0  0  0  0  0  0
    4.5214    0.1354    0.0000 H   0  0  0  0  0  0  0  0  0  0  0  0
  1 11  1  0  0  0  0
  1 12  1  0  0  0  0
  1 13  1  0  0  0  0
  2  1  1  0  0  0  0
  2 14  1  0  0  0  0
  2 15  1  0  0  0  0
  3 16  1  0  0  0  0
  3 17  1  0  0  0  0
  4  3  1  0  0  0  0
  4 18  1  0  0  0  0
  4 19  1  0  0  0  0
  5  2  1  0  0  0  0
  5  3  1  0  0  0  0
  5  7  1  0  0  0  0
  5 10  1  6  0  0  0
  6  4  1  0  0  0  0
  7 20  1  0  0  0  0
  7 21  1  0  0  0  0
  8  6  2  0  0  0  0
  9  6  1  0  0  0  0
  9 22  1  0  0  0  0
M  END
>  <DRUGBANK_ID>
DB04235

>  <SECONDARY_ACCESSION_NUMBERS>
EXPT03223

>  <COMMON_NAME>
4-Amino Hexanoic Acid

>  <UNII>
R907014A4Q

$$$$
