
 OpenBabel10282417072D

 39 41  0  0  0  0  0  0  0  0999 V2000
   -1.4297    0.4118    0.0000 O   0  0  0  0  0  0  0  0  0  0  0  0
   -0.7149    0.0000    0.0000 C   0  0  0  0  0  0  0  0  0  0  0  0
    0.0000    0.4118    0.0000 C   0  0  0  0  0  0  0  0  0  0  0  0
    0.7149    0.0000    0.0000 C   0  0  0  0  0  0  0  0  0  0  0  0
    0.7149   -0.8235    0.0000 O   0  0  0  0  0  0  0  0  0  0  0  0
    1.4297    0.4118    0.0000 C   0  0  0  0  0  0  0  0  0  0  0  0
    1.4297    1.2410    0.0000 C   0  0  0  0  0  0  0  0  0  0  0  0
    0.7149    1.6528    0.0000 N   0  0  0  0  0  0  0  0  0  0  0  0
    0.7149    2.4764    0.0000 C   0  0  0  0  0  0  0  0  0  0  0  0
    0.0000    1.2410    0.0000 C   0  0  0  0  0  0  0  0  0  0  0  0
   -0.7149    1.6528    0.0000 O   0  0  0  0  0  0  0  0  0  0  0  0
    2.1447    1.6528    0.0000 C   0  0  0  0  0  0  0  0  0  0  0  0
    2.8596    1.2410    0.0000 C   0  0  0  0  0  0  0  0  0  0  0  0
    2.8596    0.4118    0.0000 C   0  0  0  0  0  0  0  0  0  0  0  0
    2.1447    0.0000    0.0000 C   0  0  0  0  0  0  0  0  0  0  0  0
   -0.7149   -0.8235    0.0000 N   0  0  0  0  0  0  0  0  0  0  0  0
   -1.4297   -1.2353    0.0000 C   0  0  0  0  0  0  0  0  0  0  0  0
   -2.1447   -0.8235    0.0000 C   0  0  0  0  0  0  0  0  0  0  0  0
   -2.8596   -1.2353    0.0000 C   0  0  0  0  0  0  0  0  0  0  0  0
   -2.8596   -2.0646    0.0000 C   0  0  0  0  0  0  0  0  0  0  0  0
   -2.1447   -2.4764    0.0000 C   0  0  0  0  0  0  0  0  0  0  0  0
   -1.4297   -2.0646    0.0000 C   0  0  0  0  0  0  0  0  0  0  0  0
    0.0000   -1.2353    0.0000 C   0  0  0  0  0  0  0  0  0  0  0  0
   -0.0966   -1.2920    0.0000 H   0  0  0  0  0  0  0  0  0  0  0  0
    1.6415    3.0114    0.0000 H   0  0  0  0  0  0  0  0  0  0  0  0
   -0.2117    3.0114    0.0000 H   0  0  0  0  0  0  0  0  0  0  0  0
    0.7149    3.5464    0.0000 H   0  0  0  0  0  0  0  0  0  0  0  0
    2.1447    2.6848    0.0000 H   0  0  0  0  0  0  0  0  0  0  0  0
    3.7531    1.7574    0.0000 H   0  0  0  0  0  0  0  0  0  0  0  0
    3.7531   -0.1046    0.0000 H   0  0  0  0  0  0  0  0  0  0  0  0
    2.1447   -1.0320    0.0000 H   0  0  0  0  0  0  0  0  0  0  0  0
   -2.1447    0.2085    0.0000 H   0  0  0  0  0  0  0  0  0  0  0  0
   -3.7531   -0.7189    0.0000 H   0  0  0  0  0  0  0  0  0  0  0  0
   -3.7531   -2.5810    0.0000 H   0  0  0  0  0  0  0  0  0  0  0  0
   -2.1447   -3.5084    0.0000 H   0  0  0  0  0  0  0  0  0  0  0  0
   -0.5362   -2.5811    0.0000 H   0  0  0  0  0  0  0  0  0  0  0  0
    0.0011   -2.3053    0.0000 H   0  0  0  0  0  0  0  0  0  0  0  0
    0.9261   -0.6994    0.0000 H   0  0  0  0  0  0  0  0  0  0  0  0
    0.9272   -1.7694    0.0000 H   0  0  0  0  0  0  0  0  0  0  0  0
  1  2  2  0  0  0  0
  2  3  1  0  0  0  0
  2 16  1  0  0  0  0
  3  4  2  0  0  0  0
  3 10  1  0  0  0  0
  4  5  1  0  0  0  0
  4  6  1  0  0  0  0
  5 24  1  0  0  0  0
  6  7  2  0  0  0  0
  6 15  1  0  0  0  0
  7  8  1  0  0  0  0
  7 12  1  0  0  0  0
  8  9  1  0  0  0  0
  8 10  1  0  0  0  0
  9 25  1  0  0  0  0
  9 26  1  0  0  0  0
  9 27  1  0  0  0  0
 10 11  2  0  0  0  0
 12 13  2  0  0  0  0
 12 28  1  0  0  0  0
 13 14  1  0  0  0  0
 13 29  1  0  0  0  0
 14 15  2  0  0  0  0
 14 30  1  0  0  0  0
 15 31  1  0  0  0  0
 16 17  1  0  0  0  0
 16 23  1  0  0  0  0
 17 18  2  0  0  0  0
 17 22  1  0  0  0  0
 18 19  1  0  0  0  0
 18 32  1  0  0  0  0
 19 20  2  0  0  0  0
 19 33  1  0  0  0  0
 20 21  1  0  0  0  0
 20 34  1  0  0  0  0
 21 22  2  0  0  0  0
 21 35  1  0  0  0  0
 22 36  1  0  0  0  0
 23 37  1  0  0  0  0
 23 38  1  0  0  0  0
 23 39  1  0  0  0  0
M  END
>  <DRUGBANK_ID>
DB11366

>  <COMMON_NAME>
Roquinimex

>  <CAS_NUMBER>
84088-42-6

>  <UNII>
372T2944C0

>  <SYNONYMS>
Linomide; Roquinimex

$$$$
