
 OpenBabel10282417072D

  3  2  0  0  0  0  0  0  0  0999 V2000
   17.9274  -10.8152    0.0000 C   0  0  0  0  0  0  0  0  0  0  0  0
   17.1024  -10.8152    0.0000 O   0  0  0  0  0  0  0  0  0  0  0  0
   18.7524  -10.8152    0.0000 O   0  0  0  0  0  0  0  0  0  0  0  0
  1  2  2  0  0  0  0
  1  3  2  0  0  0  0
M  END
>  <DRUGBANK_ID>
DB09157

>  <COMMON_NAME>
Carbon dioxide

>  <CAS_NUMBER>
124-38-9

>  <UNII>
142M471B3J

>  <SYNONYMS>
Carbon dioxide

$$$$
