CCK
 OpenBabel10282417072D

 48 51  0  0  0  0  0  0  0  0999 V2000
   -3.2545   -0.2646    0.0000 N   0  0  0  0  0  0  0  0  0  0  0  0
   -2.9996    0.5200    0.0000 C   0  0  0  0  0  0  0  0  0  0  0  0
   -2.1926    0.6916    0.0000 C   0  0  0  0  0  0  0  0  0  0  0  0
   -1.6406    0.0785    0.0000 N   0  0  0  0  0  0  0  0  0  0  0  0
   -1.8955   -0.7062    0.0000 C   0  0  0  0  0  0  0  0  0  0  0  0
   -2.7025   -0.8777    0.0000 C   0  0  0  0  0  0  0  0  0  0  0  0
   -1.9376    1.4762    0.0000 N   0  0  0  0  0  0  0  0  0  0  0  0
   -1.3435   -1.3192    0.0000 N   0  0  0  0  0  0  0  0  0  0  0  0
   -1.1530    1.7311    0.0000 C   0  0  0  0  0  0  0  0  0  0  0  0
   -1.1530    2.5561    0.0000 C   0  0  0  0  0  0  0  0  0  0  0  0
   -1.9376    2.8111    0.0000 C   0  0  0  0  0  0  0  0  0  0  0  0
   -2.4226    2.1436    0.0000 N   0  0  0  0  0  0  0  0  0  0  0  0
   -0.5230   -1.2330    0.0000 C   0  0  0  0  0  0  0  0  0  0  0  0
   -0.1874   -1.9867    0.0000 C   0  0  0  0  0  0  0  0  0  0  0  0
   -0.8005   -2.5387    0.0000 C   0  0  0  0  0  0  0  0  0  0  0  0
   -1.5150   -2.1262    0.0000 C   0  0  0  0  0  0  0  0  0  0  0  0
   -0.4386    2.9686    0.0000 C   0  0  0  0  0  0  0  0  0  0  0  0
    0.2759    2.5561    0.0000 C   0  0  0  0  0  0  0  0  0  0  0  0
    0.2759    1.7311    0.0000 C   0  0  0  0  0  0  0  0  0  0  0  0
   -0.4386    1.3186    0.0000 C   0  0  0  0  0  0  0  0  0  0  0  0
    0.9904    1.3186    0.0000 N   0  0  0  0  0  0  0  0  0  0  0  0
    1.7049    1.7311    0.0000 C   0  0  0  0  0  0  0  0  0  0  0  0
    2.4193    1.3186    0.0000 C   0  0  0  0  0  0  0  0  0  0  0  0
    1.7049    2.5561    0.0000 C   0  0  0  0  0  0  0  0  0  0  0  0
    0.6196   -2.1582    0.0000 C   0  0  0  0  0  0  0  0  0  0  0  0
    0.8745   -2.9428    0.0000 C   0  0  0  0  0  0  0  0  0  0  0  0
    1.6815   -3.1144    0.0000 O   0  0  0  0  0  0  0  0  0  0  0  0
    0.3225   -3.5559    0.0000 O   0  0  0  0  0  0  0  0  0  0  0  0
   -3.6902    1.2869    0.0000 H   0  0  0  0  0  0  0  0  0  0  0  0
   -3.0214   -1.8592    0.0000 H   0  0  0  0  0  0  0  0  0  0  0  0
   -2.2565    3.7926    0.0000 H   0  0  0  0  0  0  0  0  0  0  0  0
   -0.0070   -0.3393    0.0000 H   0  0  0  0  0  0  0  0  0  0  0  0
   -0.6926   -3.5650    0.0000 H   0  0  0  0  0  0  0  0  0  0  0  0
   -2.4578   -2.5460    0.0000 H   0  0  0  0  0  0  0  0  0  0  0  0
   -0.4386    4.0006    0.0000 H   0  0  0  0  0  0  0  0  0  0  0  0
    1.1696    3.0721    0.0000 H   0  0  0  0  0  0  0  0  0  0  0  0
   -0.4386    0.2866    0.0000 H   0  0  0  0  0  0  0  0  0  0  0  0
    0.9904    0.3341    0.0000 H   0  0  0  0  0  0  0  0  0  0  0  0
    2.6316    2.2661    0.0000 H   0  0  0  0  0  0  0  0  0  0  0  0
    2.4193    0.2486    0.0000 H   0  0  0  0  0  0  0  0  0  0  0  0
    3.3460    1.8536    0.0000 H   0  0  0  0  0  0  0  0  0  0  0  0
    3.3459    0.7836    0.0000 H   0  0  0  0  0  0  0  0  0  0  0  0
    2.6315    3.0911    0.0000 H   0  0  0  0  0  0  0  0  0  0  0  0
    0.7783    3.0911    0.0000 H   0  0  0  0  0  0  0  0  0  0  0  0
    1.7049    3.6261    0.0000 H   0  0  0  0  0  0  0  0  0  0  0  0
    1.3356   -1.3630    0.0000 H   0  0  0  0  0  0  0  0  0  0  0  0
    1.6662   -2.3807    0.0000 H   0  0  0  0  0  0  0  0  0  0  0  0
   -0.5940   -3.3611    0.0000 H   0  0  0  0  0  0  0  0  0  0  0  0
  1  2  2  0  0  0  0
  1  6  1  0  0  0  0
  2  3  1  0  0  0  0
  2 29  1  0  0  0  0
  3  4  2  0  0  0  0
  3  7  1  0  0  0  0
  4  5  1  0  0  0  0
  5  6  2  0  0  0  0
  5  8  1  0  0  0  0
  6 30  1  0  0  0  0
  7  9  1  0  0  0  0
  7 12  1  0  0  0  0
  8 13  1  0  0  0  0
  8 16  1  0  0  0  0
  9 10  2  0  0  0  0
  9 20  1  0  0  0  0
 10 11  1  0  0  0  0
 10 17  1  0  0  0  0
 11 12  2  0  0  0  0
 11 31  1  0  0  0  0
 13 14  2  0  0  0  0
 13 32  1  0  0  0  0
 14 15  1  0  0  0  0
 14 25  1  0  0  0  0
 15 16  2  0  0  0  0
 15 33  1  0  0  0  0
 16 34  1  0  0  0  0
 17 18  2  0  0  0  0
 17 35  1  0  0  0  0
 18 19  1  0  0  0  0
 18 36  1  0  0  0  0
 19 20  2  0  0  0  0
 19 21  1  0  0  0  0
 20 37  1  0  0  0  0
 21 22  1  0  0  0  0
 21 38  1  0  0  0  0
 22 23  1  0  0  0  0
 22 24  1  0  0  0  0
 22 39  1  0  0  0  0
 23 40  1  0  0  0  0
 23 41  1  0  0  0  0
 23 42  1  0  0  0  0
 24 43  1  0  0  0  0
 24 44  1  0  0  0  0
 24 45  1  0  0  0  0
 25 26  1  0  0  0  0
 25 46  1  0  0  0  0
 25 47  1  0  0  0  0
 26 27  2  0  0  0  0
 26 28  1  0  0  0  0
 28 48  1  0  0  0  0
M  END
>  <DRUGBANK_ID>
DB07546

>  <COMMON_NAME>
[1-(6-{6-[(1-methylethyl)amino]-1H-indazol-1-yl}pyrazin-2-yl)-1H-pyrrol-3-yl]acetic acid

$$$$
