
 OpenBabel10282417072D

 40 39  0  0  0  0  0  0  0  0999 V2000
   -3.5724   -0.8238    0.0000 O   0  0  0  0  0  0  0  0  0  0  0  0
   -2.8573   -0.4119    0.0000 C   0  0  0  0  0  0  0  0  0  0  0  0
   -2.1423   -0.8238    0.0000 C   0  0  1  0  0  0  0  0  0  0  0  0
   -2.1423   -1.6476    0.0000 O   0  0  0  0  0  0  0  0  0  0  0  0
   -1.4276   -0.4119    0.0000 C   0  0  1  0  0  0  0  0  0  0  0  0
   -1.4276    0.4119    0.0000 O   0  0  0  0  0  0  0  0  0  0  0  0
   -0.7125   -0.8238    0.0000 C   0  0  1  0  0  0  0  0  0  0  0  0
   -0.0022   -0.4119    0.0000 C   0  0  1  0  0  0  0  0  0  0  0  0
    0.7127   -0.8238    0.0000 C   0  0  2  0  0  0  0  0  0  0  0  0
    1.4276   -0.4119    0.0000 C   0  0  0  0  0  0  0  0  0  0  0  0
    2.1425   -0.8238    0.0000 C   0  0  0  0  0  0  0  0  0  0  0  0
    2.8575   -0.4119    0.0000 C   0  0  0  0  0  0  0  0  0  0  0  0
    3.5724   -0.8238    0.0000 O   0  0  0  0  0  0  0  0  0  0  0  0
    2.8575    0.4119    0.0000 O   0  0  0  0  0  0  0  0  0  0  0  0
    2.1425   -1.6476    0.0000 O   0  0  0  0  0  0  0  0  0  0  0  0
    0.7127   -1.6476    0.0000 O   0  0  0  0  0  0  0  0  0  0  0  0
   -0.0022    0.4119    0.0000 N   0  0  0  0  0  0  0  0  0  0  0  0
    0.7127    0.8238    0.0000 C   0  0  0  0  0  0  0  0  0  0  0  0
    1.4276    0.4119    0.0000 C   0  0  0  0  0  0  0  0  0  0  0  0
    0.7127    1.6476    0.0000 O   0  0  0  0  0  0  0  0  0  0  0  0
   -0.7125   -1.6476    0.0000 O   0  0  0  0  0  0  0  0  0  0  0  0
   -4.4120   -0.3380    0.0000 H   0  0  0  0  0  0  0  0  0  0  0  0
   -2.8573    0.6581    0.0000 H   0  0  0  0  0  0  0  0  0  0  0  0
   -1.9309    0.1235    0.0000 H   0  0  0  0  0  0  0  0  0  0  0  0
   -3.0687   -1.3592    0.0000 H   0  0  0  0  0  0  0  0  0  0  0  0
   -2.9823   -2.1326    0.0000 H   0  0  0  0  0  0  0  0  0  0  0  0
   -2.3540    0.1235    0.0000 H   0  0  0  0  0  0  0  0  0  0  0  0
   -0.5876    0.8969    0.0000 H   0  0  0  0  0  0  0  0  0  0  0  0
   -1.6389   -1.3593    0.0000 H   0  0  0  0  0  0  0  0  0  0  0  0
   -0.9294    0.1222    0.0000 H   0  0  0  0  0  0  0  0  0  0  0  0
   -0.2137   -1.3592    0.0000 H   0  0  0  0  0  0  0  0  0  0  0  0
    1.4276    0.6581    0.0000 H   0  0  0  0  0  0  0  0  0  0  0  0
    2.3540    0.1235    0.0000 H   0  0  0  0  0  0  0  0  0  0  0  0
    3.5732   -1.7608    0.0000 H   0  0  0  0  0  0  0  0  0  0  0  0
   -0.1273   -2.1326    0.0000 H   0  0  0  0  0  0  0  0  0  0  0  0
   -0.8546    0.9045    0.0000 H   0  0  0  0  0  0  0  0  0  0  0  0
    1.4286   -0.6581    0.0000 H   0  0  0  0  0  0  0  0  0  0  0  0
    2.3538    0.9477    0.0000 H   0  0  0  0  0  0  0  0  0  0  0  0
    2.3547   -0.1223    0.0000 H   0  0  0  0  0  0  0  0  0  0  0  0
   -1.5525   -2.1326    0.0000 H   0  0  0  0  0  0  0  0  0  0  0  0
  1  2  1  0  0  0  0
  1 22  1  0  0  0  0
  2  3  1  0  0  0  0
  2 23  1  0  0  0  0
  2 24  1  0  0  0  0
  3  4  1  0  0  0  0
  3  5  1  0  0  0  0
  3 25  1  1  0  0  0
  4 26  1  0  0  0  0
  5  6  1  0  0  0  0
  5  7  1  0  0  0  0
  5 27  1  6  0  0  0
  6 28  1  0  0  0  0
  7  8  1  0  0  0  0
  7 21  1  0  0  0  0
  7 29  1  6  0  0  0
  8  9  1  0  0  0  0
  8 17  1  0  0  0  0
  8 30  1  1  0  0  0
  9 10  1  0  0  0  0
  9 16  1  0  0  0  0
  9 31  1  1  0  0  0
 10 11  1  0  0  0  0
 10 32  1  0  0  0  0
 10 33  1  0  0  0  0
 11 12  1  0  0  0  0
 11 15  2  0  0  0  0
 12 13  1  0  0  0  0
 12 14  2  0  0  0  0
 13 34  1  0  0  0  0
 16 35  1  0  0  0  0
 17 18  1  0  0  0  0
 17 36  1  0  0  0  0
 18 19  1  0  0  0  0
 18 20  2  0  0  0  0
 19 37  1  0  0  0  0
 19 38  1  0  0  0  0
 19 39  1  0  0  0  0
 21 40  1  0  0  0  0
M  END
>  <DRUGBANK_ID>
DB11797

>  <COMMON_NAME>
Aceneuramic acid

>  <CAS_NUMBER>
131-48-6

>  <UNII>
GZP2782OP0

>  <SYNONYMS>
Aceneuramic acid; Acidium aceneuramicum; Acido aceneuramico

$$$$
