
 OpenBabel10282417072D

181183  0  0  0  0  0  0  0  0999 V2000
   -6.9489    2.7982    0.0000 O   0  0  0  0  0  0  0  0  0  0  0  0
   -3.7680   -5.6858    0.0000 O   0  0  0  0  0  0  0  0  0  0  0  0
   -4.0911    1.9732    0.0000 O   0  0  0  0  0  0  0  0  0  0  0  0
   -0.9101   -6.5108    0.0000 O   0  0  0  0  0  0  0  0  0  0  0  0
   -4.0911    5.2733    0.0000 O   0  0  0  0  0  0  0  0  0  0  0  0
   -0.9101   -3.2108    0.0000 O   0  0  0  0  0  0  0  0  0  0  0  0
   -1.9476    4.0358    0.0000 O   0  0  0  0  0  0  0  0  0  0  0  0
    1.2332   -4.4483    0.0000 O   0  0  0  0  0  0  0  0  0  0  0  0
   -2.6621    6.9233    0.0000 O   0  0  0  0  0  0  0  0  0  0  0  0
   -3.3766    8.1608    0.0000 O   0  0  0  0  0  0  0  0  0  0  0  0
    0.5188   -1.5608    0.0000 O   0  0  0  0  0  0  0  0  0  0  0  0
   -0.5186    6.5107    0.0000 O   0  0  0  0  0  0  0  0  0  0  0  0
    2.6622   -1.9733    0.0000 O   0  0  0  0  0  0  0  0  0  0  0  0
   -1.2331    1.9732    0.0000 O   0  0  0  0  0  0  0  0  0  0  0  0
    1.9477   -6.5108    0.0000 O   0  0  0  0  0  0  0  0  0  0  0  0
   -6.2345    1.5607    0.0000 N   0  0  0  0  0  0  0  0  0  0  0  0
   -3.0536   -6.9233    0.0000 N   0  0  0  0  0  0  0  0  0  0  0  0
   -4.8055    3.2107    0.0000 N   0  0  0  0  0  0  0  0  0  0  0  0
   -1.6246   -5.2733    0.0000 N   0  0  0  0  0  0  0  0  0  0  0  0
   -5.5199    0.3232    0.0000 N   0  0  0  0  0  0  0  0  0  0  0  0
   -2.3390   -8.1607    0.0000 N   0  0  0  0  0  0  0  0  0  0  0  0
   -6.2345    4.0358    0.0000 N   0  0  0  0  0  0  0  0  0  0  0  0
   -3.0536   -4.4483    0.0000 N   0  0  0  0  0  0  0  0  0  0  0  0
   -6.9489    0.3232    0.0000 N   0  0  0  0  0  0  0  0  0  0  0  0
   -3.7680   -8.1607    0.0000 N   0  0  0  0  0  0  0  0  0  0  0  0
   -3.3766    4.0358    0.0000 N   0  0  0  0  0  0  0  0  0  0  0  0
   -4.8055    6.5107    0.0000 N   0  0  0  0  0  0  0  0  0  0  0  0
   -0.1956   -4.4483    0.0000 N   0  0  0  0  0  0  0  0  0  0  0  0
   -1.6246   -1.9733    0.0000 N   0  0  0  0  0  0  0  0  0  0  0  0
   -6.2345    5.6857    0.0000 N   0  0  0  0  0  0  0  0  0  0  0  0
   -3.3766    5.6857    0.0000 N   0  0  0  0  0  0  0  0  0  0  0  0
   -3.0536   -2.7983    0.0000 N   0  0  0  0  0  0  0  0  0  0  0  0
   -0.1956   -2.7983    0.0000 N   0  0  0  0  0  0  0  0  0  0  0  0
   -1.2331    5.2733    0.0000 N   0  0  0  0  0  0  0  0  0  0  0  0
    1.9477   -3.2108    0.0000 N   0  0  0  0  0  0  0  0  0  0  0  0
    0.9102    6.5107    0.0000 N   0  0  0  0  0  0  0  0  0  0  0  0
    4.0911   -1.9733    0.0000 N   0  0  0  0  0  0  0  0  0  0  0  0
   -2.6621    1.9732    0.0000 N   0  0  0  0  0  0  0  0  0  0  0  0
    0.5188   -6.5108    0.0000 N   0  0  0  0  0  0  0  0  0  0  0  0
    3.7681    5.6857    0.0000 N   0  0  0  0  0  0  0  0  0  0  0  0
    6.9490   -2.7983    0.0000 N   0  0  0  0  0  0  0  0  0  0  0  0
   -1.9476    0.7358    0.0000 N   0  0  0  0  0  0  0  0  0  0  0  0
    1.2332   -7.7483    0.0000 N   0  0  0  0  0  0  0  0  0  0  0  0
   -5.5199    1.9732    0.0000 C   0  0  1  0  0  0  0  0  0  0  0  0
   -2.3390   -6.5108    0.0000 C   0  0  1  0  0  0  0  0  0  0  0  0
   -5.5199    2.7982    0.0000 C   0  0  1  0  0  0  0  0  0  0  0  0
   -2.3390   -5.6858    0.0000 C   0  0  1  0  0  0  0  0  0  0  0  0
   -4.8055    1.5607    0.0000 C   0  0  0  0  0  0  0  0  0  0  0  0
   -1.6246   -6.9233    0.0000 C   0  0  0  0  0  0  0  0  0  0  0  0
   -4.8055    0.7358    0.0000 C   0  0  0  0  0  0  0  0  0  0  0  0
   -1.6246   -7.7483    0.0000 C   0  0  0  0  0  0  0  0  0  0  0  0
   -6.2345    3.2107    0.0000 C   0  0  0  0  0  0  0  0  0  0  0  0
   -3.0536   -5.2733    0.0000 C   0  0  0  0  0  0  0  0  0  0  0  0
   -6.2345    0.7358    0.0000 C   0  0  0  0  0  0  0  0  0  0  0  0
   -3.0536   -7.7483    0.0000 C   0  0  0  0  0  0  0  0  0  0  0  0
   -5.5199    4.4483    0.0000 C   0  0  0  0  0  0  0  0  0  0  0  0
   -2.3390   -4.0358    0.0000 C   0  0  0  0  0  0  0  0  0  0  0  0
   -4.0911    2.7982    0.0000 C   0  0  0  0  0  0  0  0  0  0  0  0
   -0.9101   -5.6858    0.0000 C   0  0  0  0  0  0  0  0  0  0  0  0
   -5.5199    5.2733    0.0000 C   0  0  1  0  0  0  0  0  0  0  0  0
   -2.3390   -3.2108    0.0000 C   0  0  1  0  0  0  0  0  0  0  0  0
   -3.3766    3.2107    0.0000 C   0  0  0  0  0  0  0  0  0  0  0  0
   -0.1956   -5.2733    0.0000 C   0  0  0  0  0  0  0  0  0  0  0  0
   -2.6621    5.2733    0.0000 C   0  0  1  0  0  0  0  0  0  0  0  0
   -4.8055    5.6857    0.0000 C   0  0  0  0  0  0  0  0  0  0  0  0
    0.5188   -3.2108    0.0000 C   0  0  1  0  0  0  0  0  0  0  0  0
   -1.6246   -2.7983    0.0000 C   0  0  0  0  0  0  0  0  0  0  0  0
   -4.0911    6.9233    0.0000 C   0  0  2  0  0  0  0  0  0  0  0  0
   -0.9101   -1.5608    0.0000 C   0  0  2  0  0  0  0  0  0  0  0  0
   -1.9476    5.6857    0.0000 C   0  0  0  0  0  0  0  0  0  0  0  0
    1.2332   -2.7983    0.0000 C   0  0  0  0  0  0  0  0  0  0  0  0
   -2.6621    4.4483    0.0000 C   0  0  0  0  0  0  0  0  0  0  0  0
    0.5188   -4.0358    0.0000 C   0  0  0  0  0  0  0  0  0  0  0  0
    0.9102    5.6857    0.0000 C   0  0  1  0  0  0  0  0  0  0  0  0
    4.0911   -2.7983    0.0000 C   0  0  1  0  0  0  0  0  0  0  0  0
   -3.3766    6.5107    0.0000 C   0  0  0  0  0  0  0  0  0  0  0  0
   -0.1956   -1.9733    0.0000 C   0  0  0  0  0  0  0  0  0  0  0  0
    1.6247    5.2733    0.0000 C   0  0  0  0  0  0  0  0  0  0  0  0
    0.1957    5.2733    0.0000 C   0  0  0  0  0  0  0  0  0  0  0  0
    4.8056   -3.2108    0.0000 C   0  0  0  0  0  0  0  0  0  0  0  0
    3.3766   -3.2108    0.0000 C   0  0  0  0  0  0  0  0  0  0  0  0
   -2.6621    2.7982    0.0000 C   0  0  0  0  0  0  0  0  0  0  0  0
    0.5188   -5.6858    0.0000 C   0  0  0  0  0  0  0  0  0  0  0  0
   -4.0911    7.7483    0.0000 C   0  0  0  0  0  0  0  0  0  0  0  0
   -0.9101   -0.7358    0.0000 C   0  0  0  0  0  0  0  0  0  0  0  0
    2.3391    5.6857    0.0000 C   0  0  0  0  0  0  0  0  0  0  0  0
   -0.5186    5.6857    0.0000 C   0  0  0  0  0  0  0  0  0  0  0  0
    5.5199   -2.7983    0.0000 C   0  0  0  0  0  0  0  0  0  0  0  0
    2.6622   -2.7983    0.0000 C   0  0  0  0  0  0  0  0  0  0  0  0
    3.0536    5.2733    0.0000 C   0  0  0  0  0  0  0  0  0  0  0  0
    6.2345   -3.2108    0.0000 C   0  0  0  0  0  0  0  0  0  0  0  0
   -1.9476    1.5607    0.0000 C   0  0  0  0  0  0  0  0  0  0  0  0
    1.2332   -6.9233    0.0000 C   0  0  0  0  0  0  0  0  0  0  0  0
   -6.2345    2.3857    0.0000 H   0  0  0  0  0  0  0  0  0  0  0  0
   -3.0536   -6.0983    0.0000 H   0  0  0  0  0  0  0  0  0  0  0  0
   -4.8055    2.3857    0.0000 H   0  0  0  0  0  0  0  0  0  0  0  0
   -1.6246   -6.0983    0.0000 H   0  0  0  0  0  0  0  0  0  0  0  0
   -2.5366    7.6758    0.0000 H   0  0  0  0  0  0  0  0  0  0  0  0
   -7.0871    2.0530    0.0000 H   0  0  0  0  0  0  0  0  0  0  0  0
   -3.9062   -6.4310    0.0000 H   0  0  0  0  0  0  0  0  0  0  0  0
   -4.8055    4.1952    0.0000 H   0  0  0  0  0  0  0  0  0  0  0  0
   -1.6246   -4.2888    0.0000 H   0  0  0  0  0  0  0  0  0  0  0  0
   -7.0871    4.5281    0.0000 H   0  0  0  0  0  0  0  0  0  0  0  0
   -3.9062   -3.9560    0.0000 H   0  0  0  0  0  0  0  0  0  0  0  0
   -7.8016    0.8153    0.0000 H   0  0  0  0  0  0  0  0  0  0  0  0
   -6.9488   -0.6613    0.0000 H   0  0  0  0  0  0  0  0  0  0  0  0
   -4.6206   -7.6684    0.0000 H   0  0  0  0  0  0  0  0  0  0  0  0
   -3.7681   -9.1452    0.0000 H   0  0  0  0  0  0  0  0  0  0  0  0
   -4.2292    4.5281    0.0000 H   0  0  0  0  0  0  0  0  0  0  0  0
   -5.6581    7.0029    0.0000 H   0  0  0  0  0  0  0  0  0  0  0  0
   -1.0482   -3.9561    0.0000 H   0  0  0  0  0  0  0  0  0  0  0  0
   -2.4772   -1.4810    0.0000 H   0  0  0  0  0  0  0  0  0  0  0  0
   -6.2347    6.7057    0.0000 H   0  0  0  0  0  0  0  0  0  0  0  0
   -7.1178    5.1755    0.0000 H   0  0  0  0  0  0  0  0  0  0  0  0
   -4.2292    5.1934    0.0000 H   0  0  0  0  0  0  0  0  0  0  0  0
   -3.0537   -1.7783    0.0000 H   0  0  0  0  0  0  0  0  0  0  0  0
   -3.9369   -3.3084    0.0000 H   0  0  0  0  0  0  0  0  0  0  0  0
   -1.0482   -3.2905    0.0000 H   0  0  0  0  0  0  0  0  0  0  0  0
   -1.2331    4.2888    0.0000 H   0  0  0  0  0  0  0  0  0  0  0  0
    1.9477   -4.1953    0.0000 H   0  0  0  0  0  0  0  0  0  0  0  0
    1.7935    7.0207    0.0000 H   0  0  0  0  0  0  0  0  0  0  0  0
    0.0269    7.0207    0.0000 H   0  0  0  0  0  0  0  0  0  0  0  0
    4.9744   -1.4633    0.0000 H   0  0  0  0  0  0  0  0  0  0  0  0
    3.2078   -1.4633    0.0000 H   0  0  0  0  0  0  0  0  0  0  0  0
   -3.5147    1.4809    0.0000 H   0  0  0  0  0  0  0  0  0  0  0  0
   -0.3338   -7.0030    0.0000 H   0  0  0  0  0  0  0  0  0  0  0  0
    4.6514    5.1756    0.0000 H   0  0  0  0  0  0  0  0  0  0  0  0
    3.7682    6.7057    0.0000 H   0  0  0  0  0  0  0  0  0  0  0  0
    7.8323   -3.3083    0.0000 H   0  0  0  0  0  0  0  0  0  0  0  0
    6.9490   -1.7783    0.0000 H   0  0  0  0  0  0  0  0  0  0  0  0
   -2.8002    0.2435    0.0000 H   0  0  0  0  0  0  0  0  0  0  0  0
   -1.0950    0.2435    0.0000 H   0  0  0  0  0  0  0  0  0  0  0  0
    0.3806   -8.2406    0.0000 H   0  0  0  0  0  0  0  0  0  0  0  0
    2.0858   -8.2406    0.0000 H   0  0  0  0  0  0  0  0  0  0  0  0
   -3.8788    2.0957    0.0000 H   0  0  0  0  0  0  0  0  0  0  0  0
   -3.8789    1.0257    0.0000 H   0  0  0  0  0  0  0  0  0  0  0  0
   -0.6979   -6.3883    0.0000 H   0  0  0  0  0  0  0  0  0  0  0  0
   -0.6980   -7.4583    0.0000 H   0  0  0  0  0  0  0  0  0  0  0  0
   -3.8788    0.2009    0.0000 H   0  0  0  0  0  0  0  0  0  0  0  0
   -3.8789    1.2708    0.0000 H   0  0  0  0  0  0  0  0  0  0  0  0
   -0.6980   -8.2833    0.0000 H   0  0  0  0  0  0  0  0  0  0  0  0
   -0.6979   -7.2133    0.0000 H   0  0  0  0  0  0  0  0  0  0  0  0
   -4.5933    3.9133    0.0000 H   0  0  0  0  0  0  0  0  0  0  0  0
   -4.5932    4.9833    0.0000 H   0  0  0  0  0  0  0  0  0  0  0  0
   -1.4124   -4.5708    0.0000 H   0  0  0  0  0  0  0  0  0  0  0  0
   -1.4123   -3.5008    0.0000 H   0  0  0  0  0  0  0  0  0  0  0  0
   -6.4465    4.7382    0.0000 H   0  0  0  0  0  0  0  0  0  0  0  0
   -3.2656   -3.7458    0.0000 H   0  0  0  0  0  0  0  0  0  0  0  0
   -2.6621    6.3433    0.0000 H   0  0  0  0  0  0  0  0  0  0  0  0
    0.5188   -2.1408    0.0000 H   0  0  0  0  0  0  0  0  0  0  0  0
   -5.0178    7.4582    0.0000 H   0  0  0  0  0  0  0  0  0  0  0  0
   -1.8367   -1.0258    0.0000 H   0  0  0  0  0  0  0  0  0  0  0  0
   -1.9476    6.7557    0.0000 H   0  0  0  0  0  0  0  0  0  0  0  0
   -2.8742    6.2208    0.0000 H   0  0  0  0  0  0  0  0  0  0  0  0
    1.2332   -1.7283    0.0000 H   0  0  0  0  0  0  0  0  0  0  0  0
    0.3065   -2.2633    0.0000 H   0  0  0  0  0  0  0  0  0  0  0  0
    1.8368    6.2208    0.0000 H   0  0  0  0  0  0  0  0  0  0  0  0
    5.0177   -2.2633    0.0000 H   0  0  0  0  0  0  0  0  0  0  0  0
    1.6247    4.2033    0.0000 H   0  0  0  0  0  0  0  0  0  0  0  0
    2.5513    4.7383    0.0000 H   0  0  0  0  0  0  0  0  0  0  0  0
    0.1956    4.2033    0.0000 H   0  0  0  0  0  0  0  0  0  0  0  0
   -0.7310    4.7383    0.0000 H   0  0  0  0  0  0  0  0  0  0  0  0
    4.8057   -4.2808    0.0000 H   0  0  0  0  0  0  0  0  0  0  0  0
    5.7323   -3.7457    0.0000 H   0  0  0  0  0  0  0  0  0  0  0  0
    3.3766   -4.2808    0.0000 H   0  0  0  0  0  0  0  0  0  0  0  0
    2.4499   -3.7458    0.0000 H   0  0  0  0  0  0  0  0  0  0  0  0
   -1.7684    3.3142    0.0000 H   0  0  0  0  0  0  0  0  0  0  0  0
    1.4125   -5.1698    0.0000 H   0  0  0  0  0  0  0  0  0  0  0  0
   -5.0177    8.2833    0.0000 H   0  0  0  0  0  0  0  0  0  0  0  0
   -5.0177    7.2133    0.0000 H   0  0  0  0  0  0  0  0  0  0  0  0
    0.0165   -0.2008    0.0000 H   0  0  0  0  0  0  0  0  0  0  0  0
   -1.8367   -0.2008    0.0000 H   0  0  0  0  0  0  0  0  0  0  0  0
   -0.9101    0.3342    0.0000 H   0  0  0  0  0  0  0  0  0  0  0  0
    2.3391    6.7557    0.0000 H   0  0  0  0  0  0  0  0  0  0  0  0
    3.2657    6.2208    0.0000 H   0  0  0  0  0  0  0  0  0  0  0  0
    5.5198   -1.7283    0.0000 H   0  0  0  0  0  0  0  0  0  0  0  0
    6.4465   -2.2632    0.0000 H   0  0  0  0  0  0  0  0  0  0  0  0
    3.0536    4.2033    0.0000 H   0  0  0  0  0  0  0  0  0  0  0  0
    2.1270    4.7382    0.0000 H   0  0  0  0  0  0  0  0  0  0  0  0
    6.2345   -4.2808    0.0000 H   0  0  0  0  0  0  0  0  0  0  0  0
    5.3079   -3.7459    0.0000 H   0  0  0  0  0  0  0  0  0  0  0  0
  1 52  2  0  0  0  0
  2 53  2  0  0  0  0
  3 58  2  0  0  0  0
  4 59  2  0  0  0  0
  5 65  2  0  0  0  0
  6 67  2  0  0  0  0
  7 72  2  0  0  0  0
  8 73  2  0  0  0  0
  9 76  2  0  0  0  0
 10 84  1  0  0  0  0
 10 98  1  0  0  0  0
 11 77  2  0  0  0  0
 12 87  2  0  0  0  0
 13 89  2  0  0  0  0
 14 92  2  0  0  0  0
 15 93  2  0  0  0  0
 16 44  1  0  0  0  0
 16 54  1  0  0  0  0
 16 99  1  0  0  0  0
 17 45  1  0  0  0  0
 17 55  1  0  0  0  0
 17100  1  0  0  0  0
 18 46  1  0  0  0  0
 18 58  1  0  0  0  0
 18101  1  0  0  0  0
 19 47  1  0  0  0  0
 19 59  1  0  0  0  0
 19102  1  0  0  0  0
 20 50  1  0  0  0  0
 20 54  2  0  0  0  0
 21 51  1  0  0  0  0
 21 55  2  0  0  0  0
 22 52  1  0  0  0  0
 22 56  1  0  0  0  0
 22103  1  0  0  0  0
 23 53  1  0  0  0  0
 23 57  1  0  0  0  0
 23104  1  0  0  0  0
 24 54  1  0  0  0  0
 24105  1  0  0  0  0
 24106  1  0  0  0  0
 25 55  1  0  0  0  0
 25107  1  0  0  0  0
 25108  1  0  0  0  0
 26 62  1  0  0  0  0
 26 72  1  0  0  0  0
 26109  1  0  0  0  0
 27 65  1  0  0  0  0
 27 68  1  0  0  0  0
 27110  1  0  0  0  0
 28 63  1  0  0  0  0
 28 73  1  0  0  0  0
 28111  1  0  0  0  0
 29 67  1  0  0  0  0
 29 69  1  0  0  0  0
 29112  1  0  0  0  0
 30113  1  0  0  0  0
 30114  1  0  0  0  0
 31 64  1  0  0  0  0
 31 76  1  0  0  0  0
 31115  1  0  0  0  0
 32116  1  0  0  0  0
 32117  1  0  0  0  0
 33 66  1  0  0  0  0
 33 77  1  0  0  0  0
 33118  1  0  0  0  0
 34 70  1  0  0  0  0
 34 87  1  0  0  0  0
 34119  1  0  0  0  0
 35 71  1  0  0  0  0
 35 89  1  0  0  0  0
 35120  1  0  0  0  0
 36121  1  0  0  0  0
 36122  1  0  0  0  0
 37123  1  0  0  0  0
 37124  1  0  0  0  0
 38 82  1  0  0  0  0
 38 92  1  0  0  0  0
 38125  1  0  0  0  0
 39 83  1  0  0  0  0
 39 93  1  0  0  0  0
 39126  1  0  0  0  0
 40 90  1  0  0  0  0
 40127  1  0  0  0  0
 40128  1  0  0  0  0
 41 91  1  0  0  0  0
 41129  1  0  0  0  0
 41130  1  0  0  0  0
 42 92  1  0  0  0  0
 42131  1  0  0  0  0
 42132  1  0  0  0  0
 43 93  1  0  0  0  0
 43133  1  0  0  0  0
 43134  1  0  0  0  0
 44 46  1  0  0  0  0
 44 48  1  0  0  0  0
 44 94  1  6  0  0  0
 45 47  1  0  0  0  0
 45 49  1  0  0  0  0
 45 95  1  6  0  0  0
 46 52  1  0  0  0  0
 46 96  1  6  0  0  0
 47 53  1  0  0  0  0
 47 97  1  6  0  0  0
 48 50  1  0  0  0  0
 48135  1  0  0  0  0
 48136  1  0  0  0  0
 49 51  1  0  0  0  0
 49137  1  0  0  0  0
 49138  1  0  0  0  0
 50139  1  0  0  0  0
 50140  1  0  0  0  0
 51141  1  0  0  0  0
 51142  1  0  0  0  0
 56 60  1  0  0  0  0
 56143  1  0  0  0  0
 56144  1  0  0  0  0
 57 61  1  0  0  0  0
 57145  1  0  0  0  0
 57146  1  0  0  0  0
 58 62  1  0  0  0  0
 59 63  1  0  0  0  0
 60 30  1  0  0  0  0
 60 65  1  0  0  0  0
 60147  1  1  0  0  0
 61 32  1  0  0  0  0
 61 67  1  0  0  0  0
 61148  1  1  0  0  0
 62 82  2  0  0  0  0
 63 83  2  0  0  0  0
 64 70  1  0  0  0  0
 64 72  1  0  0  0  0
 64149  1  6  0  0  0
 66 71  1  0  0  0  0
 66 73  1  0  0  0  0
 66150  1  6  0  0  0
 68 76  1  0  0  0  0
 68 84  1  0  0  0  0
 68151  1  6  0  0  0
 69 77  1  0  0  0  0
 69 85  1  0  0  0  0
 69152  1  6  0  0  0
 70153  1  0  0  0  0
 70154  1  0  0  0  0
 71155  1  0  0  0  0
 71156  1  0  0  0  0
 74 36  1  0  0  0  0
 74 78  1  0  0  0  0
 74 79  1  0  0  0  0
 74157  1  6  0  0  0
 75 37  1  0  0  0  0
 75 80  1  0  0  0  0
 75 81  1  0  0  0  0
 75158  1  6  0  0  0
 78 86  1  0  0  0  0
 78159  1  0  0  0  0
 78160  1  0  0  0  0
 79 87  1  0  0  0  0
 79161  1  0  0  0  0
 79162  1  0  0  0  0
 80 88  1  0  0  0  0
 80163  1  0  0  0  0
 80164  1  0  0  0  0
 81 89  1  0  0  0  0
 81165  1  0  0  0  0
 81166  1  0  0  0  0
 82167  1  0  0  0  0
 83168  1  0  0  0  0
 84169  1  0  0  0  0
 84170  1  0  0  0  0
 85171  1  0  0  0  0
 85172  1  0  0  0  0
 85173  1  0  0  0  0
 86 90  1  0  0  0  0
 86174  1  0  0  0  0
 86175  1  0  0  0  0
 88 91  1  0  0  0  0
 88176  1  0  0  0  0
 88177  1  0  0  0  0
 90178  1  0  0  0  0
 90179  1  0  0  0  0
 91180  1  0  0  0  0
 91181  1  0  0  0  0
M  END
>  <DRUGBANK_ID>
DB00314

>  <SECONDARY_ACCESSION_NUMBERS>
APRD00844

>  <COMMON_NAME>
Capreomycin

>  <CAS_NUMBER>
11003-38-6

>  <UNII>
232HYX66HC

>  <SYNONYMS>
Capreomicina; Capreomycin

$$$$
