
 OpenBabel10282417072D

 28 29  0  0  0  0  0  0  0  0999 V2000
   -0.2549    0.7846    0.0000 C   0  0  0  0  0  0  0  0  0  0  0  0
   -0.0000   -0.0000    0.0000 N   0  0  0  0  0  0  0  0  0  0  0  0
   -0.4849   -0.6674    0.0000 C   0  0  0  0  0  0  0  0  0  0  0  0
   -1.3099   -0.6674    0.0000 O   0  0  0  0  0  0  0  0  0  0  0  0
   -0.0000   -1.3349    0.0000 N   0  0  0  0  0  0  0  0  0  0  0  0
    0.7846   -1.0799    0.0000 C   0  0  2  0  0  0  0  0  0  0  0  0
    0.7846   -0.2549    0.0000 C   0  0  1  0  0  0  0  0  0  0  0  0
    1.5692    0.0000    0.0000 N   0  0  0  0  0  0  0  0  0  0  0  0
    2.0542   -0.6674    0.0000 C   0  0  0  0  0  0  0  0  0  0  0  0
    2.8792   -0.6674    0.0000 O   0  0  0  0  0  0  0  0  0  0  0  0
    1.5692   -1.3349    0.0000 N   0  0  0  0  0  0  0  0  0  0  0  0
    1.8242   -2.1195    0.0000 C   0  0  0  0  0  0  0  0  0  0  0  0
    1.8242    0.7846    0.0000 C   0  0  0  0  0  0  0  0  0  0  0  0
   -0.2549   -2.1195    0.0000 C   0  0  0  0  0  0  0  0  0  0  0  0
    0.4611    1.5797    0.0000 H   0  0  0  0  0  0  0  0  0  0  0  0
   -1.3015    1.0071    0.0000 H   0  0  0  0  0  0  0  0  0  0  0  0
   -0.5855    1.8022    0.0000 H   0  0  0  0  0  0  0  0  0  0  0  0
   -0.0811   -0.4510    0.0000 H   0  0  0  0  0  0  0  0  0  0  0  0
   -0.0810   -0.8838    0.0000 H   0  0  0  0  0  0  0  0  0  0  0  0
    1.1083   -2.9147    0.0000 H   0  0  0  0  0  0  0  0  0  0  0  0
    2.8708   -2.3419    0.0000 H   0  0  0  0  0  0  0  0  0  0  0  0
    2.1549   -3.1371    0.0000 H   0  0  0  0  0  0  0  0  0  0  0  0
    2.8708    1.0070    0.0000 H   0  0  0  0  0  0  0  0  0  0  0  0
    1.1083    1.5798    0.0000 H   0  0  0  0  0  0  0  0  0  0  0  0
    2.1549    1.8022    0.0000 H   0  0  0  0  0  0  0  0  0  0  0  0
   -1.3015   -2.3420    0.0000 H   0  0  0  0  0  0  0  0  0  0  0  0
    0.4611   -2.9146    0.0000 H   0  0  0  0  0  0  0  0  0  0  0  0
   -0.5855   -3.1371    0.0000 H   0  0  0  0  0  0  0  0  0  0  0  0
  1  2  1  0  0  0  0
  1 15  1  0  0  0  0
  1 16  1  0  0  0  0
  1 17  1  0  0  0  0
  2  3  1  0  0  0  0
  3  4  2  0  0  0  0
  3  5  1  0  0  0  0
  5 14  1  0  0  0  0
  6  5  1  0  0  0  0
  6  7  1  0  0  0  0
  6 11  1  0  0  0  0
  6 18  1  1  0  0  0
  7  2  1  0  0  0  0
  7  8  1  0  0  0  0
  7 19  1  1  0  0  0
  8  9  1  0  0  0  0
  8 13  1  0  0  0  0
  9 10  2  0  0  0  0
  9 11  1  0  0  0  0
 11 12  1  0  0  0  0
 12 20  1  0  0  0  0
 12 21  1  0  0  0  0
 12 22  1  0  0  0  0
 13 23  1  0  0  0  0
 13 24  1  0  0  0  0
 13 25  1  0  0  0  0
 14 26  1  0  0  0  0
 14 27  1  0  0  0  0
 14 28  1  0  0  0  0
M  END
>  <DRUGBANK_ID>
DB13522

>  <COMMON_NAME>
Mebicar

>  <CAS_NUMBER>
10095-06-4

>  <UNII>
55FE6NPG89

>  <SYNONYMS>
Tetramethylglycoluril

$$$$
