
 OpenBabel10282417072D

 42 41  0  0  0  0  0  0  0  0999 V2000
    2.2539    2.8874    0.0000 C   0  0  0  0  0  0  0  0  0  0  0  0
    1.5395    2.4749    0.0000 C   0  0  0  0  0  0  0  0  0  0  0  0
    1.5395    1.6500    0.0000 C   0  0  0  0  0  0  0  0  0  0  0  0
    0.8250    1.2374    0.0000 C   0  0  0  0  0  0  0  0  0  0  0  0
    0.8250    0.4125    0.0000 C   0  0  0  0  0  0  0  0  0  0  0  0
    0.1105    0.0000    0.0000 N   0  0  0  0  0  0  0  0  0  0  0  0
    0.1105   -0.8250    0.0000 C   0  0  0  0  0  0  0  0  0  0  0  0
   -0.6039   -1.2375    0.0000 C   0  0  0  0  0  0  0  0  0  0  0  0
   -0.6039   -2.0625    0.0000 C   0  0  0  0  0  0  0  0  0  0  0  0
   -0.6039    0.4125    0.0000 C   0  0  0  0  0  0  0  0  0  0  0  0
   -0.6039   -2.8875    0.0000 O   0  0  0  0  0  0  0  0  0  0  0  0
    0.2210   -2.0625    0.0000 P   0  0  0  0  0  0  0  0  0  0  0  0
   -1.4289   -2.0625    0.0000 P   0  0  0  0  0  0  0  0  0  0  0  0
    1.0460   -2.0625    0.0000 O   0  0  0  0  0  0  0  0  0  0  0  0
    0.2210   -2.8875    0.0000 O   0  0  0  0  0  0  0  0  0  0  0  0
    0.2210   -1.2375    0.0000 O   0  0  0  0  0  0  0  0  0  0  0  0
   -1.4289   -2.8875    0.0000 O   0  0  0  0  0  0  0  0  0  0  0  0
   -2.2539   -2.0625    0.0000 O   0  0  0  0  0  0  0  0  0  0  0  0
   -1.4289   -1.2375    0.0000 O   0  0  0  0  0  0  0  0  0  0  0  0
    3.1806    2.3524    0.0000 H   0  0  0  0  0  0  0  0  0  0  0  0
    2.2539    3.9574    0.0000 H   0  0  0  0  0  0  0  0  0  0  0  0
    3.1805    3.4224    0.0000 H   0  0  0  0  0  0  0  0  0  0  0  0
    0.6128    3.0099    0.0000 H   0  0  0  0  0  0  0  0  0  0  0  0
    1.5395    3.5449    0.0000 H   0  0  0  0  0  0  0  0  0  0  0  0
    2.4662    1.1150    0.0000 H   0  0  0  0  0  0  0  0  0  0  0  0
    1.5396    0.5800    0.0000 H   0  0  0  0  0  0  0  0  0  0  0  0
   -0.1017    1.7724    0.0000 H   0  0  0  0  0  0  0  0  0  0  0  0
   -0.1016    0.7024    0.0000 H   0  0  0  0  0  0  0  0  0  0  0  0
    1.7516   -0.1225    0.0000 H   0  0  0  0  0  0  0  0  0  0  0  0
    1.7516    0.9475    0.0000 H   0  0  0  0  0  0  0  0  0  0  0  0
    1.0372   -1.3600    0.0000 H   0  0  0  0  0  0  0  0  0  0  0  0
    0.1105   -1.8950    0.0000 H   0  0  0  0  0  0  0  0  0  0  0  0
   -1.5306   -0.7025    0.0000 H   0  0  0  0  0  0  0  0  0  0  0  0
   -1.5305   -1.7725    0.0000 H   0  0  0  0  0  0  0  0  0  0  0  0
   -0.6039    1.4825    0.0000 H   0  0  0  0  0  0  0  0  0  0  0  0
   -1.5306   -0.1225    0.0000 H   0  0  0  0  0  0  0  0  0  0  0  0
   -1.5305    0.9475    0.0000 H   0  0  0  0  0  0  0  0  0  0  0  0
   -1.4439   -3.3725    0.0000 H   0  0  0  0  0  0  0  0  0  0  0  0
    1.5310   -2.9025    0.0000 H   0  0  0  0  0  0  0  0  0  0  0  0
   -0.6190   -3.3725    0.0000 H   0  0  0  0  0  0  0  0  0  0  0  0
   -2.2689   -3.3725    0.0000 H   0  0  0  0  0  0  0  0  0  0  0  0
   -2.7389   -1.2225    0.0000 H   0  0  0  0  0  0  0  0  0  0  0  0
  1  2  1  0  0  0  0
  1 20  1  0  0  0  0
  1 21  1  0  0  0  0
  1 22  1  0  0  0  0
  2  3  1  0  0  0  0
  2 23  1  0  0  0  0
  2 24  1  0  0  0  0
  3  4  1  0  0  0  0
  3 25  1  0  0  0  0
  3 26  1  0  0  0  0
  4  5  1  0  0  0  0
  4 27  1  0  0  0  0
  4 28  1  0  0  0  0
  5  6  1  0  0  0  0
  5 29  1  0  0  0  0
  5 30  1  0  0  0  0
  6 10  1  0  0  0  0
  6  7  1  0  0  0  0
  7  8  1  0  0  0  0
  7 31  1  0  0  0  0
  7 32  1  0  0  0  0
  8  9  1  0  0  0  0
  8 33  1  0  0  0  0
  8 34  1  0  0  0  0
  9 11  1  0  0  0  0
  9 12  1  0  0  0  0
  9 13  1  0  0  0  0
 10 35  1  0  0  0  0
 10 36  1  0  0  0  0
 10 37  1  0  0  0  0
 11 38  1  0  0  0  0
 12 14  1  0  0  0  0
 12 15  1  0  0  0  0
 12 16  2  0  0  0  0
 13 17  1  0  0  0  0
 13 18  1  0  0  0  0
 13 19  2  0  0  0  0
 14 39  1  0  0  0  0
 15 40  1  0  0  0  0
 17 41  1  0  0  0  0
 18 42  1  0  0  0  0
M  END
>  <DRUGBANK_ID>
DB00710

>  <SECONDARY_ACCESSION_NUMBERS>
APRD00231; DB04635

>  <COMMON_NAME>
Ibandronate

>  <CAS_NUMBER>
114084-78-5

>  <UNII>
UMD7G2653W

>  <SYNONYMS>
ácido ibandrónico; Ibandronic acid

$$$$
