
 OpenBabel10282417072D

 22 23  0  0  0  0  0  0  0  0999 V2000
   -0.1637    1.6642    0.0000 O   0  0  0  0  0  0  0  0  0  0  0  0
   -0.1637   -0.8107    0.0000 N   0  0  0  0  0  0  0  0  0  0  0  0
   -0.8782    0.4267    0.0000 N   0  0  0  0  0  0  0  0  0  0  0  0
   -1.5927   -0.8107    0.0000 N   0  0  0  0  0  0  0  0  0  0  0  0
    0.5506   -0.3982    0.0000 C   0  0  0  0  0  0  0  0  0  0  0  0
    0.5506    0.4267    0.0000 C   0  0  0  0  0  0  0  0  0  0  0  0
    1.2882   -0.8393    0.0000 C   0  0  0  0  0  0  0  0  0  0  0  0
    1.2882    0.8679    0.0000 C   0  0  0  0  0  0  0  0  0  0  0  0
    2.0356   -0.4153    0.0000 C   0  0  0  0  0  0  0  0  0  0  0  0
   -0.1637    0.8392    0.0000 C   0  0  0  0  0  0  0  0  0  0  0  0
    2.0356    0.4439    0.0000 C   0  0  0  0  0  0  0  0  0  0  0  0
    1.2786   -1.6642    0.0000 C   0  0  0  0  0  0  0  0  0  0  0  0
   -0.8782   -0.3982    0.0000 C   0  0  0  0  0  0  0  0  0  0  0  0
   -0.1637   -1.3222    0.0000 H   0  0  0  0  0  0  0  0  0  0  0  0
   -1.5927   -1.3222    0.0000 H   0  0  0  0  0  0  0  0  0  0  0  0
   -2.0356   -0.5549    0.0000 H   0  0  0  0  0  0  0  0  0  0  0  0
    1.2763    1.8998    0.0000 H   0  0  0  0  0  0  0  0  0  0  0  0
    2.9274   -0.9347    0.0000 H   0  0  0  0  0  0  0  0  0  0  0  0
    2.9274    0.9633    0.0000 H   0  0  0  0  0  0  0  0  0  0  0  0
    0.3458   -2.1884    0.0000 H   0  0  0  0  0  0  0  0  0  0  0  0
    2.1990   -2.2099    0.0000 H   0  0  0  0  0  0  0  0  0  0  0  0
    1.2661   -2.7341    0.0000 H   0  0  0  0  0  0  0  0  0  0  0  0
  1 10  2  0  0  0  0
  2  5  1  0  0  0  0
  2 13  1  0  0  0  0
  2 14  1  0  0  0  0
  3 10  1  0  0  0  0
  3 13  2  0  0  0  0
  4 13  1  0  0  0  0
  4 15  1  0  0  0  0
  4 16  1  0  0  0  0
  5  6  1  0  0  0  0
  5  7  2  0  0  0  0
  6  8  2  0  0  0  0
  6 10  1  0  0  0  0
  7  9  1  0  0  0  0
  7 12  1  0  0  0  0
  8 11  1  0  0  0  0
  8 17  1  0  0  0  0
  9 11  2  0  0  0  0
  9 18  1  0  0  0  0
 11 19  1  0  0  0  0
 12 20  1  0  0  0  0
 12 21  1  0  0  0  0
 12 22  1  0  0  0  0
M  END
>  <DRUGBANK_ID>
DB01825

>  <SECONDARY_ACCESSION_NUMBERS>
EXPT02114

>  <COMMON_NAME>
2-amino-8-methyl-4(1H)-quinazolinone

>  <CAS_NUMBER>
116836-27-2

>  <UNII>
X6X2DD92TW

$$$$
