
 OpenBabel10282417072D

 51 53  0  0  0  0  0  0  0  0999 V2000
   -1.8297    0.2575    0.0000 O   0  5  0  0  0  0  0  0  0  0  0  0
   -1.1153   -0.1550    0.0000 N   0  3  0  0  0  0  0  0  0  0  0  0
   -0.4008    0.2575    0.0000 O   0  0  0  0  0  0  0  0  0  0  0  0
   -1.1153   -0.9800    0.0000 C   0  0  0  0  0  0  0  0  0  0  0  0
   -0.4008   -1.3925    0.0000 C   0  0  0  0  0  0  0  0  0  0  0  0
   -0.4008   -2.2175    0.0000 C   0  0  0  0  0  0  0  0  0  0  0  0
    0.3137   -2.6300    0.0000 C   0  0  0  0  0  0  0  0  0  0  0  0
    1.0281   -2.2175    0.0000 C   0  0  0  0  0  0  0  0  0  0  0  0
    0.9665   -1.3948    0.0000 C   0  0  0  0  0  0  0  0  0  0  0  0
    1.5713   -0.8337    0.0000 N   0  0  0  0  0  0  0  0  0  0  0  0
    2.3870   -0.9567    0.0000 C   0  0  0  0  0  0  0  0  0  0  0  0
    2.7995   -1.6711    0.0000 C   0  0  0  0  0  0  0  0  0  0  0  0
    2.4981   -2.4391    0.0000 C   0  0  0  0  0  0  0  0  0  0  0  0
    3.0593   -3.0439    0.0000 C   0  0  0  0  0  0  0  0  0  0  0  0
    3.8636   -2.8603    0.0000 C   0  0  0  0  0  0  0  0  0  0  0  0
    4.1068   -2.0719    0.0000 C   0  0  0  0  0  0  0  0  0  0  0  0
    4.9111   -1.8884    0.0000 C   0  0  0  0  0  0  0  0  0  0  0  0
    5.4722   -2.4931    0.0000 C   0  0  0  0  0  0  0  0  0  0  0  0
    6.2765   -2.3096    0.0000 F   0  0  0  0  0  0  0  0  0  0  0  0
    5.2291   -3.2815    0.0000 C   0  0  0  0  0  0  0  0  0  0  0  0
    4.4247   -3.4651    0.0000 C   0  0  0  0  0  0  0  0  0  0  0  0
    5.1543   -1.1000    0.0000 N   0  3  0  0  0  0  0  0  0  0  0  0
    5.9586   -0.9164    0.0000 O   0  5  0  0  0  0  0  0  0  0  0  0
    4.5931   -0.4953    0.0000 O   0  0  0  0  0  0  0  0  0  0  0  0
    1.7098   -2.6823    0.0000 C   0  0  0  0  0  0  0  0  0  0  0  0
    1.5868   -3.4981    0.0000 O   0  0  0  0  0  0  0  0  0  0  0  0
    1.3281   -0.0454    0.0000 C   0  0  0  0  0  0  0  0  0  0  0  0
    1.8892    0.5594    0.0000 O   0  0  0  0  0  0  0  0  0  0  0  0
    0.5238    0.1382    0.0000 C   0  0  0  0  0  0  0  0  0  0  0  0
    0.2806    0.9266    0.0000 C   0  0  0  0  0  0  0  0  0  0  0  0
   -1.1153   -2.6300    0.0000 C   0  0  0  0  0  0  0  0  0  0  0  0
   -1.8297   -2.2175    0.0000 C   0  0  0  0  0  0  0  0  0  0  0  0
   -1.8297   -1.3925    0.0000 C   0  0  0  0  0  0  0  0  0  0  0  0
   -2.5442   -0.9800    0.0000 F   0  0  0  0  0  0  0  0  0  0  0  0
    0.4929   -0.8765    0.0000 H   0  0  0  0  0  0  0  0  0  0  0  0
    0.3137   -3.6620    0.0000 H   0  0  0  0  0  0  0  0  0  0  0  0
   -0.0295   -1.0038    0.0000 H   0  0  0  0  0  0  0  0  0  0  0  0
    0.7676   -0.3434    0.0000 H   0  0  0  0  0  0  0  0  0  0  0  0
    2.9898   -0.0726    0.0000 H   0  0  0  0  0  0  0  0  0  0  0  0
    3.4563   -0.9967    0.0000 H   0  0  0  0  0  0  0  0  0  0  0  0
    3.8665   -1.5911    0.0000 H   0  0  0  0  0  0  0  0  0  0  0  0
    3.4349   -2.5320    0.0000 H   0  0  0  0  0  0  0  0  0  0  0  0
    2.7551   -4.0301    0.0000 H   0  0  0  0  0  0  0  0  0  0  0  0
    3.4049   -1.3154    0.0000 H   0  0  0  0  0  0  0  0  0  0  0  0
    5.9311   -4.0380    0.0000 H   0  0  0  0  0  0  0  0  0  0  0  0
    4.1205   -4.4512    0.0000 H   0  0  0  0  0  0  0  0  0  0  0  0
   -0.1781   -0.6183    0.0000 H   0  0  0  0  0  0  0  0  0  0  0  0
    0.9825    1.6831    0.0000 H   0  0  0  0  0  0  0  0  0  0  0  0
   -0.7255    1.1562    0.0000 H   0  0  0  0  0  0  0  0  0  0  0  0
   -1.1153   -3.6620    0.0000 H   0  0  0  0  0  0  0  0  0  0  0  0
   -2.7234   -2.7335    0.0000 H   0  0  0  0  0  0  0  0  0  0  0  0
  1  2  1  0  0  0  0
  2  3  2  0  0  0  0
  2  4  1  0  0  0  0
  4  5  2  0  0  0  0
  4 33  1  0  0  0  0
  5  6  1  0  0  0  0
  5 35  1  0  0  0  0
  6  7  1  0  0  0  0
  6 31  2  0  0  0  0
  7  8  2  0  0  0  0
  7 36  1  0  0  0  0
  8  9  1  0  0  0  0
  8 25  1  0  0  0  0
  9 10  1  0  0  0  0
  9 37  1  0  0  0  0
  9 38  1  0  0  0  0
 10 11  1  0  0  0  0
 10 27  1  0  0  0  0
 11 12  1  0  0  0  0
 11 39  1  0  0  0  0
 11 40  1  0  0  0  0
 12 13  1  0  0  0  0
 12 41  1  0  0  0  0
 12 42  1  0  0  0  0
 13 14  2  0  0  0  0
 13 25  1  0  0  0  0
 14 15  1  0  0  0  0
 14 43  1  0  0  0  0
 15 16  2  0  0  0  0
 15 21  1  0  0  0  0
 16 17  1  0  0  0  0
 16 44  1  0  0  0  0
 17 18  2  0  0  0  0
 17 22  1  0  0  0  0
 18 19  1  0  0  0  0
 18 20  1  0  0  0  0
 20 21  2  0  0  0  0
 20 45  1  0  0  0  0
 21 46  1  0  0  0  0
 22 23  1  0  0  0  0
 22 24  2  0  0  0  0
 25 26  2  0  0  0  0
 27 28  2  0  0  0  0
 27 29  1  0  0  0  0
 29 30  2  0  0  0  0
 29 47  1  0  0  0  0
 30 48  1  0  0  0  0
 30 49  1  0  0  0  0
 31 32  1  0  0  0  0
 31 50  1  0  0  0  0
 32 33  2  0  0  0  0
 32 51  1  0  0  0  0
 33 34  1  0  0  0  0
M  CHG  4   1  -1   2   1  22   1  23  -1
M  END
>  <DRUGBANK_ID>
DB16030

>  <COMMON_NAME>
VLX-1570

>  <CAS_NUMBER>
1956378-23-6

>  <UNII>
K6067N5M6N

>  <SYNONYMS>
(3E,5E)-3,5-Bis[(4-Fluoro-3-Nitrophenyl)Methylidene]-1-(Prop-2-Enoyl)Azepan-4-0Ne

$$$$
