
 OpenBabel10282417072D

 32 33  0  0  1  0  0  0  0  0999 V2000
   16.7212  -13.4281    0.0000 C   0  0  0  0  0  0  0  0  0  0  0  0
   16.7212  -12.5957    0.0000 C   0  0  0  0  0  0  0  0  0  0  0  0
   16.0019  -13.8495    0.0000 N   0  0  0  0  0  0  0  0  0  0  0  0
   17.4407  -13.8392    0.0000 N   0  0  0  0  0  0  0  0  0  0  0  0
   15.9950  -12.1812    0.0000 N   0  0  0  0  0  0  0  0  0  0  0  0
   17.4407  -12.1777    0.0000 C   0  0  0  0  0  0  0  0  0  0  0  0
   15.2756  -13.4349    0.0000 C   0  0  0  0  0  0  0  0  0  0  0  0
   18.1463  -13.4281    0.0000 C   0  0  0  0  0  0  0  0  0  0  0  0
   15.2619  -12.6025    0.0000 C   0  0  2  0  0  0  0  0  0  0  0  0
   18.1463  -12.5957    0.0000 N   0  0  0  0  0  0  0  0  0  0  0  0
   17.4407  -11.3590    0.0000 O   0  0  0  0  0  0  0  0  0  0  0  0
   18.8590  -13.8392    0.0000 N   0  0  0  0  0  0  0  0  0  0  0  0
   14.5699  -12.2359    0.0000 C   0  0  2  0  0  0  0  0  0  0  0  0
   13.8676  -12.6607    0.0000 C   0  0  2  0  0  0  0  0  0  0  0  0
   14.5597  -11.4172    0.0000 O   0  0  0  0  0  0  0  0  0  0  0  0
   13.1516  -12.2600    0.0000 C   0  0  0  0  0  0  0  0  0  0  0  0
   13.8848  -13.4796    0.0000 O   0  0  0  0  0  0  0  0  0  0  0  0
   15.2619  -11.7775    0.0000 H   0  0  0  0  0  0  0  0  0  0  0  0
   16.0074  -14.8340    0.0000 H   0  0  0  0  0  0  0  0  0  0  0  0
   15.9936  -11.1967    0.0000 H   0  0  0  0  0  0  0  0  0  0  0  0
   14.3547  -13.9798    0.0000 H   0  0  0  0  0  0  0  0  0  0  0  0
   14.3418  -12.9125    0.0000 H   0  0  0  0  0  0  0  0  0  0  0  0
   19.0016  -12.1082    0.0000 H   0  0  0  0  0  0  0  0  0  0  0  0
   18.8594  -14.8237    0.0000 H   0  0  0  0  0  0  0  0  0  0  0  0
   19.7114  -13.3466    0.0000 H   0  0  0  0  0  0  0  0  0  0  0  0
   15.4832  -11.6784    0.0000 H   0  0  0  0  0  0  0  0  0  0  0  0
   14.8051  -13.1764    0.0000 H   0  0  0  0  0  0  0  0  0  0  0  0
   15.3936  -10.9218    0.0000 H   0  0  0  0  0  0  0  0  0  0  0  0
   13.1373  -11.1901    0.0000 H   0  0  0  0  0  0  0  0  0  0  0  0
   12.2322  -12.8074    0.0000 H   0  0  0  0  0  0  0  0  0  0  0  0
   12.2179  -11.7375    0.0000 H   0  0  0  0  0  0  0  0  0  0  0  0
   13.0551  -13.9821    0.0000 H   0  0  0  0  0  0  0  0  0  0  0  0
  1  2  2  0  0  0  0
  1  3  1  0  0  0  0
  1  4  1  0  0  0  0
  2  5  1  0  0  0  0
  2  6  1  0  0  0  0
  3  7  1  0  0  0  0
  3 19  1  0  0  0  0
  4  8  2  0  0  0  0
  5  9  1  0  0  0  0
  5 20  1  0  0  0  0
  6 10  1  0  0  0  0
  6 11  2  0  0  0  0
  7  9  1  0  0  0  0
  7 21  1  0  0  0  0
  7 22  1  0  0  0  0
  8 12  1  0  0  0  0
  8 10  1  0  0  0  0
  9 13  1  0  0  0  0
  9 18  1  1  0  0  0
 10 23  1  0  0  0  0
 12 24  1  0  0  0  0
 12 25  1  0  0  0  0
 13 14  1  0  0  0  0
 13 15  1  0  0  0  0
 13 26  1  1  0  0  0
 14 16  1  0  0  0  0
 14 17  1  0  0  0  0
 14 27  1  6  0  0  0
 15 28  1  0  0  0  0
 16 29  1  0  0  0  0
 16 30  1  0  0  0  0
 16 31  1  0  0  0  0
 17 32  1  0  0  0  0
M  END
>  <DRUGBANK_ID>
DB00360

>  <SECONDARY_ACCESSION_NUMBERS>
APRD01297; EXPT00691; DB02692

>  <COMMON_NAME>
Sapropterin

>  <CAS_NUMBER>
62989-33-7

>  <UNII>
EGX657432I

>  <SYNONYMS>
(âˆ’)-(6R)-2-amino-6-((1R,2S)-1,2-dihydroxypropyl)-5,6,7,8-tetrahydro-4(3H)-pteridinone; (6R)-L-erythro-5,6,7,8-tetrahydrobiopterin; (6R)-L-erythro-tetrahydrobiopterin; 2-Amino-6-(1,2-dihydroxypropyl)-5,6,7,8-tetrahydoro-4(1H)-pteridinone; 5,6,7,8-Tetrahydrobiopterin; 6R-5,6,7,8-tetrahydrobiopterin; 6R-BH4; 6R-L-5,6,7,8-tetrahydrobiopterin; R-THBP; Sapropterin; Sapropterina; sapropterinum; Tetrahydrobiopterin

$$$$
