
 OpenBabel10282417072D

 33 34  0  0  0  0  0  0  0  0999 V2000
    3.7935    0.9644    0.0000 O   0  0  0  0  0  0  0  0  0  0  0  0
    9.2617   -0.5750    0.0000 O   0  0  0  0  0  0  0  0  0  0  0  0
    8.0241   -1.2896    0.0000 O   0  0  0  0  0  0  0  0  0  0  0  0
    6.7176    0.8033    0.0000 N   0  0  0  0  0  0  0  0  0  0  0  0
    6.7176   -0.5245    0.0000 N   0  0  0  0  0  0  0  0  0  0  0  0
    8.0241    0.1394    0.0000 N   0  0  0  0  0  0  0  0  0  0  0  0
    5.9370    0.5519    0.0000 C   0  0  0  0  0  0  0  0  0  0  0  0
    5.9370   -0.2731    0.0000 C   0  0  0  0  0  0  0  0  0  0  0  0
    4.5080    0.5519    0.0000 C   0  0  0  0  0  0  0  0  0  0  0  0
    5.2224    0.9644    0.0000 C   0  0  0  0  0  0  0  0  0  0  0  0
    5.2224   -0.6856    0.0000 C   0  0  0  0  0  0  0  0  0  0  0  0
    7.1991    0.1394    0.0000 C   0  0  0  0  0  0  0  0  0  0  0  0
    3.0791    0.5519    0.0000 C   0  0  0  0  0  0  0  0  0  0  0  0
    4.5080   -0.2731    0.0000 C   0  0  0  0  0  0  0  0  0  0  0  0
    2.3645    0.9644    0.0000 C   0  0  0  0  0  0  0  0  0  0  0  0
    1.6500    0.5519    0.0000 C   0  0  0  0  0  0  0  0  0  0  0  0
    8.4366   -0.5750    0.0000 C   0  0  0  0  0  0  0  0  0  0  0  0
    9.6742   -1.2896    0.0000 C   0  0  0  0  0  0  0  0  0  0  0  0
    7.0234    1.7391    0.0000 H   0  0  0  0  0  0  0  0  0  0  0  0
    8.5163    0.9920    0.0000 H   0  0  0  0  0  0  0  0  0  0  0  0
    5.2223    1.9964    0.0000 H   0  0  0  0  0  0  0  0  0  0  0  0
    5.2223   -1.7176    0.0000 H   0  0  0  0  0  0  0  0  0  0  0  0
    3.0792   -0.5181    0.0000 H   0  0  0  0  0  0  0  0  0  0  0  0
    2.1525    0.0168    0.0000 H   0  0  0  0  0  0  0  0  0  0  0  0
    3.6143   -0.7891    0.0000 H   0  0  0  0  0  0  0  0  0  0  0  0
    2.3645    2.0344    0.0000 H   0  0  0  0  0  0  0  0  0  0  0  0
    1.4378    1.4994    0.0000 H   0  0  0  0  0  0  0  0  0  0  0  0
    0.7234    1.0869    0.0000 H   0  0  0  0  0  0  0  0  0  0  0  0
    1.6500   -0.5181    0.0000 H   0  0  0  0  0  0  0  0  0  0  0  0
    0.7233    0.0169    0.0000 H   0  0  0  0  0  0  0  0  0  0  0  0
    9.1391   -2.2162    0.0000 H   0  0  0  0  0  0  0  0  0  0  0  0
   10.7442   -1.2897    0.0000 H   0  0  0  0  0  0  0  0  0  0  0  0
   10.2091   -2.2163    0.0000 H   0  0  0  0  0  0  0  0  0  0  0  0
  1  9  1  0  0  0  0
  1 13  1  0  0  0  0
  2 17  1  0  0  0  0
  2 18  1  0  0  0  0
  3 17  2  0  0  0  0
  4  7  1  0  0  0  0
  4 12  1  0  0  0  0
  4 19  1  0  0  0  0
  5  8  1  0  0  0  0
  5 12  2  0  0  0  0
  6 12  1  0  0  0  0
  6 17  1  0  0  0  0
  6 20  1  0  0  0  0
  7  8  2  0  0  0  0
  7 10  1  0  0  0  0
  8 11  1  0  0  0  0
  9 10  2  0  0  0  0
  9 14  1  0  0  0  0
 10 21  1  0  0  0  0
 11 14  2  0  0  0  0
 11 22  1  0  0  0  0
 13 15  1  0  0  0  0
 13 23  1  0  0  0  0
 13 24  1  0  0  0  0
 14 25  1  0  0  0  0
 15 16  1  0  0  0  0
 15 26  1  0  0  0  0
 15 27  1  0  0  0  0
 16 28  1  0  0  0  0
 16 29  1  0  0  0  0
 16 30  1  0  0  0  0
 18 31  1  0  0  0  0
 18 32  1  0  0  0  0
 18 33  1  0  0  0  0
M  END
>  <DRUGBANK_ID>
DB04910

>  <COMMON_NAME>
Oxibendazole

>  <CAS_NUMBER>
20559-55-1

>  <UNII>
022N12KJ0X

>  <SYNONYMS>
5-Propoxy-2-benzimidazolecarbamic acid methyl ester; Methyl 5-n-propoxy-2-benzimidazole carbamate; Methyl 5-propoxy-2-benzimidazolecarbamate; Oxibendazole; Oxibendazolo; Oxibendazolum

$$$$
