
 OpenBabel10282417072D

 81 83  0  0  0  0  0  0  0  0999 V2000
   -4.6771    1.8625    0.0000 C   0  0  1  0  0  0  0  0  0  0  0  0
   -4.6771    1.0375    0.0000 C   0  0  0  0  0  0  0  0  0  0  0  0
   -3.9650    0.6291    0.0000 C   0  0  1  0  0  0  0  0  0  0  0  0
   -3.2530    1.0375    0.0000 C   0  0  0  0  0  0  0  0  0  0  0  0
   -3.2530    1.8625    0.0000 C   0  0  0  0  0  0  0  0  0  0  0  0
   -3.9650    2.2791    0.0000 C   0  0  0  0  0  0  0  0  0  0  0  0
   -5.3937    2.2750    0.0000 O   0  0  0  0  0  0  0  0  0  0  0  0
   -3.9729   -0.1958    0.0000 O   0  0  0  0  0  0  0  0  0  0  0  0
   -2.5437    0.6250    0.0000 C   0  0  0  0  0  0  0  0  0  0  0  0
   -2.4312    1.8625    0.0000 C   0  0  0  0  0  0  0  0  0  0  0  0
   -1.7187    1.4500    0.0000 C   0  0  0  0  0  0  0  0  0  0  0  0
   -1.7229    0.6250    0.0000 C   0  0  0  0  0  0  0  0  0  0  0  0
   -2.4413    0.2173    0.0000 C   0  0  0  0  0  0  0  0  0  0  0  0
   -2.4474   -0.6040    0.0000 C   0  0  0  0  0  0  0  0  0  0  0  0
   -1.7369   -1.0239    0.0000 C   0  0  0  0  0  0  0  0  0  0  0  0
   -1.0106    0.2112    0.0000 C   0  0  1  0  0  0  0  0  0  0  0  0
   -1.0188   -0.6166    0.0000 C   0  0  1  0  0  0  0  0  0  0  0  0
    0.4106   -0.6306    0.0000 C   0  0  2  0  0  0  0  0  0  0  0  0
    0.4187    0.1972    0.0000 C   0  0  0  0  0  0  0  0  0  0  0  0
   -0.2941    0.6228    0.0000 C   0  0  0  0  0  0  0  0  0  0  0  0
   -1.0187    1.0375    0.0000 H   0  0  0  0  0  0  0  0  0  0  0  0
   -1.0271   -1.4416    0.0000 C   0  0  0  0  0  0  0  0  0  0  0  0
    1.1228   -1.0416    0.0000 C   0  0  1  0  0  0  0  0  0  0  0  0
    1.8353   -0.6249    0.0000 C   0  0  0  0  0  0  0  0  0  0  0  0
    0.1937   -1.4249    0.0000 H   0  0  0  0  0  0  0  0  0  0  0  0
    1.1187   -1.8666    0.0000 O   0  0  0  0  0  0  0  0  0  0  0  0
    1.8312   -2.2791    0.0000 C   0  0  0  0  0  0  0  0  0  0  0  0
    2.5437   -1.8624    0.0000 C   0  0  0  0  0  0  0  0  0  0  0  0
    3.2562   -2.2749    0.0000 C   0  0  0  0  0  0  0  0  0  0  0  0
    3.9687   -1.8583    0.0000 C   0  0  0  0  0  0  0  0  0  0  0  0
    4.6812   -2.2708    0.0000 C   0  0  0  0  0  0  0  0  0  0  0  0
    5.3937   -1.8541    0.0000 C   0  0  0  0  0  0  0  0  0  0  0  0
    3.5520   -1.1416    0.0000 O   0  0  0  0  0  0  0  0  0  0  0  0
    4.3770   -1.1416    0.0000 C   0  0  0  0  0  0  0  0  0  0  0  0
    5.0895   -0.7249    0.0000 C   0  0  0  0  0  0  0  0  0  0  0  0
   -4.6809    2.9325    0.0000 H   0  0  0  0  0  0  0  0  0  0  0  0
   -5.6030    0.5012    0.0000 H   0  0  0  0  0  0  0  0  0  0  0  0
   -5.6041    1.5718    0.0000 H   0  0  0  0  0  0  0  0  0  0  0  0
   -4.8934    0.0972    0.0000 H   0  0  0  0  0  0  0  0  0  0  0  0
   -3.9650    3.3491    0.0000 H   0  0  0  0  0  0  0  0  0  0  0  0
   -3.0368    2.8114    0.0000 H   0  0  0  0  0  0  0  0  0  0  0  0
   -5.3949    3.2450    0.0000 H   0  0  0  0  0  0  0  0  0  0  0  0
   -4.8176   -0.6727    0.0000 H   0  0  0  0  0  0  0  0  0  0  0  0
   -2.5470   -0.4070    0.0000 H   0  0  0  0  0  0  0  0  0  0  0  0
   -1.6483    1.1382    0.0000 H   0  0  0  0  0  0  0  0  0  0  0  0
   -2.1635    2.8592    0.0000 H   0  0  0  0  0  0  0  0  0  0  0  0
   -0.8233    1.9632    0.0000 H   0  0  0  0  0  0  0  0  0  0  0  0
   -3.3640    0.7592    0.0000 H   0  0  0  0  0  0  0  0  0  0  0  0
   -3.3719   -0.3108    0.0000 H   0  0  0  0  0  0  0  0  0  0  0  0
   -3.3787   -1.1308    0.0000 H   0  0  0  0  0  0  0  0  0  0  0  0
   -2.4575   -1.6740    0.0000 H   0  0  0  0  0  0  0  0  0  0  0  0
   -1.7464   -2.0939    0.0000 H   0  0  0  0  0  0  0  0  0  0  0  0
   -0.8147   -1.5666    0.0000 H   0  0  0  0  0  0  0  0  0  0  0  0
    1.3518    0.7208    0.0000 H   0  0  0  0  0  0  0  0  0  0  0  0
    0.4331    1.2671    0.0000 H   0  0  0  0  0  0  0  0  0  0  0  0
   -0.2851    1.6928    0.0000 H   0  0  0  0  0  0  0  0  0  0  0  0
   -1.2179    1.1627    0.0000 H   0  0  0  0  0  0  0  0  0  0  0  0
   -1.9591   -1.9673    0.0000 H   0  0  0  0  0  0  0  0  0  0  0  0
   -0.1059   -1.9859    0.0000 H   0  0  0  0  0  0  0  0  0  0  0  0
   -1.0379   -2.5115    0.0000 H   0  0  0  0  0  0  0  0  0  0  0  0
    0.1949   -1.5744    0.0000 H   0  0  0  0  0  0  0  0  0  0  0  0
    2.7649   -1.1547    0.0000 H   0  0  0  0  0  0  0  0  0  0  0  0
    1.8293    0.4451    0.0000 H   0  0  0  0  0  0  0  0  0  0  0  0
    2.7589   -0.0847    0.0000 H   0  0  0  0  0  0  0  0  0  0  0  0
    1.8336   -3.3491    0.0000 H   0  0  0  0  0  0  0  0  0  0  0  0
    2.7599   -2.8105    0.0000 H   0  0  0  0  0  0  0  0  0  0  0  0
    2.5413   -0.7924    0.0000 H   0  0  0  0  0  0  0  0  0  0  0  0
    3.4701   -1.3269    0.0000 H   0  0  0  0  0  0  0  0  0  0  0  0
    3.2585   -3.3449    0.0000 H   0  0  0  0  0  0  0  0  0  0  0  0
    4.1849   -2.8064    0.0000 H   0  0  0  0  0  0  0  0  0  0  0  0
    4.6836   -3.3408    0.0000 H   0  0  0  0  0  0  0  0  0  0  0  0
    5.6099   -2.8022    0.0000 H   0  0  0  0  0  0  0  0  0  0  0  0
    6.3233   -2.3839    0.0000 H   0  0  0  0  0  0  0  0  0  0  0  0
    5.3877   -0.7841    0.0000 H   0  0  0  0  0  0  0  0  0  0  0  0
    6.3173   -1.3139    0.0000 H   0  0  0  0  0  0  0  0  0  0  0  0
    4.0344   -0.3001    0.0000 H   0  0  0  0  0  0  0  0  0  0  0  0
    3.6161   -0.3893    0.0000 H   0  0  0  0  0  0  0  0  0  0  0  0
    4.5107   -0.0800    0.0000 H   0  0  0  0  0  0  0  0  0  0  0  0
    6.0191   -1.2547    0.0000 H   0  0  0  0  0  0  0  0  0  0  0  0
    5.0835    0.3451    0.0000 H   0  0  0  0  0  0  0  0  0  0  0  0
    6.0131   -0.1847    0.0000 H   0  0  0  0  0  0  0  0  0  0  0  0
  1  6  1  0  0  0  0
  1  7  1  0  0  0  0
  1  2  1  0  0  0  0
  1 36  1  1  0  0  0
  2  3  1  0  0  0  0
  2 37  1  0  0  0  0
  2 38  1  0  0  0  0
  3  8  1  0  0  0  0
  3  4  1  0  0  0  0
  3 39  1  6  0  0  0
  4  9  2  0  0  0  0
  4  5  1  0  0  0  0
  5 10  2  0  0  0  0
  5  6  1  0  0  0  0
  6 40  1  0  0  0  0
  6 41  1  0  0  0  0
  7 42  1  0  0  0  0
  8 43  1  0  0  0  0
  9 44  1  0  0  0  0
  9 45  1  0  0  0  0
 10 11  1  0  0  0  0
 10 46  1  0  0  0  0
 11 12  2  0  0  0  0
 11 47  1  0  0  0  0
 12 13  1  0  0  0  0
 12 16  1  0  0  0  0
 13 14  1  0  0  0  0
 13 48  1  0  0  0  0
 13 49  1  0  0  0  0
 14 15  1  0  0  0  0
 14 50  1  0  0  0  0
 14 51  1  0  0  0  0
 15 17  1  0  0  0  0
 15 52  1  0  0  0  0
 15 53  1  0  0  0  0
 16 21  1  1  0  0  0
 16 17  1  0  0  0  0
 17 18  1  0  0  0  0
 17 22  1  6  0  0  0
 18 19  1  0  0  0  0
 18 23  1  0  0  0  0
 18 25  1  1  0  0  0
 19 20  1  0  0  0  0
 19 54  1  0  0  0  0
 19 55  1  0  0  0  0
 20 16  1  0  0  0  0
 20 56  1  0  0  0  0
 20 57  1  0  0  0  0
 22 58  1  0  0  0  0
 22 59  1  0  0  0  0
 22 60  1  0  0  0  0
 23 24  1  0  0  0  0
 23 26  1  0  0  0  0
 23 61  1  6  0  0  0
 24 62  1  0  0  0  0
 24 63  1  0  0  0  0
 24 64  1  0  0  0  0
 26 27  1  0  0  0  0
 27 28  1  0  0  0  0
 27 65  1  0  0  0  0
 27 66  1  0  0  0  0
 28 29  1  0  0  0  0
 28 67  1  0  0  0  0
 28 68  1  0  0  0  0
 29 30  1  0  0  0  0
 29 69  1  0  0  0  0
 29 70  1  0  0  0  0
 30 31  1  0  0  0  0
 30 33  1  0  0  0  0
 30 34  1  0  0  0  0
 31 32  1  0  0  0  0
 31 71  1  0  0  0  0
 31 72  1  0  0  0  0
 32 73  1  0  0  0  0
 32 74  1  0  0  0  0
 32 75  1  0  0  0  0
 33 76  1  0  0  0  0
 34 35  1  0  0  0  0
 34 77  1  0  0  0  0
 34 78  1  0  0  0  0
 35 79  1  0  0  0  0
 35 80  1  0  0  0  0
 35 81  1  0  0  0  0
M  END
>  <DRUGBANK_ID>
DB03451

>  <SECONDARY_ACCESSION_NUMBERS>
EXPT01970

>  <COMMON_NAME>
Lexacalcitol

>  <CAS_NUMBER>
131875-08-6

>  <UNII>
9G3DCA3958

>  <SYNONYMS>
Lexacalcitol

$$$$
