
 OpenBabel10282417072D

 65 69  0  0  1  0  0  0  0  0999 V2000
    5.7076    2.4249    0.0000 C   0  0  0  0  0  0  0  0  0  0  0  0
    5.1436    3.0270    0.0000 O   0  0  0  0  0  0  0  0  0  0  0  0
    4.3402    2.8396    0.0000 C   0  0  0  0  0  0  0  0  0  0  0  0
    4.1008    2.0501    0.0000 N   0  0  0  0  0  0  0  0  0  0  0  0
    3.2973    1.8627    0.0000 C   0  0  0  0  0  0  0  0  0  0  0  0
    3.0579    1.0732    0.0000 O   0  0  0  0  0  0  0  0  0  0  0  0
    3.6219    0.4712    0.0000 C   0  0  0  0  0  0  0  0  0  0  0  0
    2.7333    2.4648    0.0000 C   0  0  0  0  0  0  0  0  0  0  0  0
    2.9727    3.2543    0.0000 C   0  0  0  0  0  0  0  0  0  0  0  0
    2.2959    3.7260    0.0000 O   0  0  0  0  0  0  0  0  0  0  0  0
    1.6381    3.2280    0.0000 C   0  0  1  0  0  0  0  0  0  0  0  0
    0.8133    3.2118    0.0000 C   0  0  1  0  0  0  0  0  0  0  0  0
    0.5739    2.4223    0.0000 C   0  0  1  0  0  0  0  0  0  0  0  0
   -0.2056    2.1519    0.0000 C   0  0  0  0  0  0  0  0  0  0  0  0
   -0.3612    1.3417    0.0000 N   0  0  0  0  0  0  0  0  0  0  0  0
    0.2627    0.8019    0.0000 C   0  0  0  0  0  0  0  0  0  0  0  0
   -1.1406    1.0713    0.0000 C   0  0  0  0  0  0  0  0  0  0  0  0
    1.2507    1.9506    0.0000 C   0  0  1  0  0  0  0  0  0  0  0  0
    1.2670    1.1257    0.0000 O   0  0  0  0  0  0  0  0  0  0  0  0
    1.9085    2.4486    0.0000 C   0  0  1  0  0  0  0  0  0  0  0  0
    2.1788    1.6691    0.0000 O   0  0  0  0  0  0  0  0  0  0  0  0
    0.1364    3.6834    0.0000 C   0  0  0  0  0  0  0  0  0  0  0  0
   -0.6105    3.3331    0.0000 C   0  0  0  0  0  0  0  0  0  0  0  0
   -1.2874    3.8047    0.0000 C   0  0  0  0  0  0  0  0  0  0  0  0
   -1.2173    4.6268    0.0000 C   0  0  0  0  0  0  0  0  0  0  0  0
   -0.4704    4.9771    0.0000 C   0  0  0  0  0  0  0  0  0  0  0  0
    0.2065    4.5054    0.0000 C   0  0  0  0  0  0  0  0  0  0  0  0
    1.3678    4.0075    0.0000 C   0  0  0  0  0  0  0  0  0  0  0  0
    0.5576    4.1630    0.0000 C   0  0  0  0  0  0  0  0  0  0  0  0
    0.2872    4.9425    0.0000 C   0  0  0  0  0  0  0  0  0  0  0  0
    0.8270    5.5663    0.0000 C   0  0  0  0  0  0  0  0  0  0  0  0
    1.6372    5.4108    0.0000 C   0  0  0  0  0  0  0  0  0  0  0  0
    1.9076    4.6313    0.0000 C   0  0  0  0  0  0  0  0  0  0  0  0
    0.5567    6.3458    0.0000 C   0  0  0  0  0  0  0  0  0  0  0  0
    0.2863    7.1252    0.0000 N   0  0  0  0  0  0  0  0  0  0  0  0
    3.7762    3.4417    0.0000 C   0  0  0  0  0  0  0  0  0  0  0  0
    5.3971    1.4010    0.0000 H   0  0  0  0  0  0  0  0  0  0  0  0
    6.7496    2.6679    0.0000 H   0  0  0  0  0  0  0  0  0  0  0  0
    6.4391    1.6440    0.0000 H   0  0  0  0  0  0  0  0  0  0  0  0
    3.3114   -0.5528    0.0000 H   0  0  0  0  0  0  0  0  0  0  0  0
    4.6639    0.7143    0.0000 H   0  0  0  0  0  0  0  0  0  0  0  0
    4.3535   -0.3096    0.0000 H   0  0  0  0  0  0  0  0  0  0  0  0
    1.1238    4.2358    0.0000 H   0  0  0  0  0  0  0  0  0  0  0  0
   -0.1975    3.1638    0.0000 H   0  0  0  0  0  0  0  0  0  0  0  0
   -1.0147    2.8521    0.0000 H   0  0  0  0  0  0  0  0  0  0  0  0
   -1.2165    1.8013    0.0000 H   0  0  0  0  0  0  0  0  0  0  0  0
    0.0610   -0.2489    0.0000 H   0  0  0  0  0  0  0  0  0  0  0  0
    1.2736    1.1526    0.0000 H   0  0  0  0  0  0  0  0  0  0  0  0
    1.0719    0.1018    0.0000 H   0  0  0  0  0  0  0  0  0  0  0  0
   -1.9498    1.7714    0.0000 H   0  0  0  0  0  0  0  0  0  0  0  0
   -1.3423    0.0205    0.0000 H   0  0  0  0  0  0  0  0  0  0  0  0
   -2.1515    0.7206    0.0000 H   0  0  0  0  0  0  0  0  0  0  0  0
    0.3071    1.4461    0.0000 H   0  0  0  0  0  0  0  0  0  0  0  0
    0.4367    0.6242    0.0000 H   0  0  0  0  0  0  0  0  0  0  0  0
    1.5440    0.9357    0.0000 H   0  0  0  0  0  0  0  0  0  0  0  0
   -0.6981    2.3048    0.0000 H   0  0  0  0  0  0  0  0  0  0  0  0
   -2.2217    3.3664    0.0000 H   0  0  0  0  0  0  0  0  0  0  0  0
   -2.0640    5.2169    0.0000 H   0  0  0  0  0  0  0  0  0  0  0  0
   -0.3828    6.0054    0.0000 H   0  0  0  0  0  0  0  0  0  0  0  0
    1.1408    4.9436    0.0000 H   0  0  0  0  0  0  0  0  0  0  0  0
   -0.1176    3.3826    0.0000 H   0  0  0  0  0  0  0  0  0  0  0  0
   -0.7263    5.1371    0.0000 H   0  0  0  0  0  0  0  0  0  0  0  0
    2.3124    6.1912    0.0000 H   0  0  0  0  0  0  0  0  0  0  0  0
    2.9211    4.4367    0.0000 H   0  0  0  0  0  0  0  0  0  0  0  0
    4.0757    4.4293    0.0000 H   0  0  0  0  0  0  0  0  0  0  0  0
  1  2  1  0  0  0  0
  1 37  1  0  0  0  0
  1 38  1  0  0  0  0
  1 39  1  0  0  0  0
  2  3  1  0  0  0  0
  3  4  2  0  0  0  0
  3 36  1  0  0  0  0
  4  5  1  0  0  0  0
  5  6  1  0  0  0  0
  5  8  2  0  0  0  0
  6  7  1  0  0  0  0
  7 40  1  0  0  0  0
  7 41  1  0  0  0  0
  7 42  1  0  0  0  0
  8  9  1  0  0  0  0
  9 10  1  0  0  0  0
  9 36  2  0  0  0  0
 11 10  1  0  0  0  0
 11 12  1  0  0  0  0
 11 20  1  0  0  0  0
 11 28  1  1  0  0  0
 12 13  1  0  0  0  0
 12 22  1  0  0  0  0
 12 43  1  6  0  0  0
 13 14  1  0  0  0  0
 13 18  1  0  0  0  0
 13 44  1  1  0  0  0
 14 15  1  0  0  0  0
 14 45  1  0  0  0  0
 14 46  1  0  0  0  0
 15 16  1  0  0  0  0
 15 17  1  0  0  0  0
 16 47  1  0  0  0  0
 16 48  1  0  0  0  0
 16 49  1  0  0  0  0
 17 50  1  0  0  0  0
 17 51  1  0  0  0  0
 17 52  1  0  0  0  0
 18 19  1  0  0  0  0
 18 53  1  1  0  0  0
 19 54  1  0  0  0  0
 20 18  1  0  0  0  0
 20  8  1  0  0  0  0
 20 21  1  1  0  0  0
 21 55  1  0  0  0  0
 22 23  2  0  0  0  0
 22 27  1  0  0  0  0
 23 24  1  0  0  0  0
 23 56  1  0  0  0  0
 24 25  2  0  0  0  0
 24 57  1  0  0  0  0
 25 26  1  0  0  0  0
 25 58  1  0  0  0  0
 26 27  2  0  0  0  0
 26 59  1  0  0  0  0
 27 60  1  0  0  0  0
 28 29  2  0  0  0  0
 28 33  1  0  0  0  0
 29 30  1  0  0  0  0
 29 61  1  0  0  0  0
 30 31  2  0  0  0  0
 30 62  1  0  0  0  0
 31 32  1  0  0  0  0
 31 34  1  0  0  0  0
 32 33  2  0  0  0  0
 32 63  1  0  0  0  0
 33 64  1  0  0  0  0
 34 35  3  0  0  0  0
 36 65  1  0  0  0  0
M  END
>  <DRUGBANK_ID>
DB16408

>  <COMMON_NAME>
Zotatifin

>  <CAS_NUMBER>
2098191-53-6

>  <UNII>
2EWN8Z05CN

>  <SYNONYMS>
Zotatifin

$$$$
