
 OpenBabel10282417072D

 54 58  0  0  0  0  0  0  0  0999 V2000
   -3.0987   -0.8891    0.0000 C   0  0  0  0  0  0  0  0  0  0  0  0
    4.9992    1.3832    0.0000 C   0  0  0  0  0  0  0  0  0  0  0  0
    4.8445    2.1935    0.0000 C   0  0  0  0  0  0  0  0  0  0  0  0
    4.3748    0.8440    0.0000 C   0  0  0  0  0  0  0  0  0  0  0  0
    4.0654    2.4647    0.0000 C   0  0  0  0  0  0  0  0  0  0  0  0
    3.8483   -1.7317    0.0000 C   0  0  0  0  0  0  0  0  0  0  0  0
    3.0283   -1.6407    0.0000 C   0  0  0  0  0  0  0  0  0  0  0  0
   -2.1649   -1.9707    0.0000 C   0  0  0  0  0  0  0  0  0  0  0  0
   -1.6951   -0.6211    0.0000 C   0  0  0  0  0  0  0  0  0  0  0  0
   -1.3857   -2.2419    0.0000 C   0  0  0  0  0  0  0  0  0  0  0  0
   -0.9160   -0.8923    0.0000 C   0  0  0  0  0  0  0  0  0  0  0  0
    4.0060   -0.3115    0.0000 C   0  0  0  0  0  0  0  0  0  0  0  0
    1.4857    0.5180    0.0000 C   0  0  0  0  0  0  0  0  0  0  0  0
    0.0179   -1.9739    0.0000 C   0  0  0  0  0  0  0  0  0  0  0  0
    4.3371   -1.0671    0.0000 C   0  0  0  0  0  0  0  0  0  0  0  0
    3.5956    1.1152    0.0000 C   0  0  0  0  0  0  0  0  0  0  0  0
    3.1860   -0.2205    0.0000 C   0  0  0  0  0  0  0  0  0  0  0  0
    3.4409    1.9256    0.0000 C   0  0  0  0  0  0  0  0  0  0  0  0
    0.6423   -1.4348    0.0000 C   0  0  0  0  0  0  0  0  0  0  0  0
    2.6972   -0.8851    0.0000 C   0  0  0  0  0  0  0  0  0  0  0  0
    1.3337   -0.2928    0.0000 C   0  0  0  0  0  0  0  0  0  0  0  0
    2.9712    0.5760    0.0000 C   0  0  0  0  0  0  0  0  0  0  0  0
    1.4456   -1.6230    0.0000 C   0  0  0  0  0  0  0  0  0  0  0  0
    2.6618    2.1968    0.0000 Cl  0  0  0  0  0  0  0  0  0  0  0  0
    2.2145    0.9047    0.0000 N   0  0  0  0  0  0  0  0  0  0  0  0
    0.5732   -0.6127    0.0000 N   0  0  0  0  0  0  0  0  0  0  0  0
   -2.3196   -1.1603    0.0000 N   0  0  0  0  0  0  0  0  0  0  0  0
   -0.7613   -1.7027    0.0000 N   0  0  0  0  0  0  0  0  0  0  0  0
    1.8728   -0.9173    0.0000 N   0  0  0  0  0  0  0  0  0  0  0  0
    5.1571   -1.1582    0.0000 N   0  0  0  0  0  0  0  0  0  0  0  0
    1.7654   -2.3835    0.0000 O   0  0  0  0  0  0  0  0  0  0  0  0
    5.6459   -0.4936    0.0000 O   0  0  0  0  0  0  0  0  0  0  0  0
    5.4882   -1.9138    0.0000 O   0  0  0  0  0  0  0  0  0  0  0  0
    0.1726   -2.7843    0.0000 H   0  0  0  0  0  0  0  0  0  0  0  0
   -3.2993    0.1619    0.0000 H   0  0  0  0  0  0  0  0  0  0  0  0
   -3.9086   -1.5884    0.0000 H   0  0  0  0  0  0  0  0  0  0  0  0
   -4.1092   -0.5373    0.0000 H   0  0  0  0  0  0  0  0  0  0  0  0
    5.9739    1.0440    0.0000 H   0  0  0  0  0  0  0  0  0  0  0  0
    5.6256    2.8679    0.0000 H   0  0  0  0  0  0  0  0  0  0  0  0
    4.5684   -0.1697    0.0000 H   0  0  0  0  0  0  0  0  0  0  0  0
    3.8719    3.4784    0.0000 H   0  0  0  0  0  0  0  0  0  0  0  0
    4.2626   -2.6769    0.0000 H   0  0  0  0  0  0  0  0  0  0  0  0
    2.4168   -2.4720    0.0000 H   0  0  0  0  0  0  0  0  0  0  0  0
   -2.9748   -2.6700    0.0000 H   0  0  0  0  0  0  0  0  0  0  0  0
   -3.1754   -1.6190    0.0000 H   0  0  0  0  0  0  0  0  0  0  0  0
   -1.8957    0.4299    0.0000 H   0  0  0  0  0  0  0  0  0  0  0  0
   -2.7056   -0.2693    0.0000 H   0  0  0  0  0  0  0  0  0  0  0  0
   -1.1850   -3.2929    0.0000 H   0  0  0  0  0  0  0  0  0  0  0  0
   -0.3751   -2.5936    0.0000 H   0  0  0  0  0  0  0  0  0  0  0  0
   -0.1061   -0.1930    0.0000 H   0  0  0  0  0  0  0  0  0  0  0  0
    0.0945   -1.2441    0.0000 H   0  0  0  0  0  0  0  0  0  0  0  0
    4.6175    0.5198    0.0000 H   0  0  0  0  0  0  0  0  0  0  0  0
    0.6237    1.1520    0.0000 H   0  0  0  0  0  0  0  0  0  0  0  0
    1.5639    1.5851    0.0000 H   0  0  0  0  0  0  0  0  0  0  0  0
  1 35  1  0  0  0  0
  1 36  1  0  0  0  0
  1 37  1  0  0  0  0
  2 38  1  0  0  0  0
  3  2  2  0  0  0  0
  3 39  1  0  0  0  0
  4  2  1  0  0  0  0
  4 40  1  0  0  0  0
  5  3  1  0  0  0  0
  5 41  1  0  0  0  0
  6 42  1  0  0  0  0
  7  6  2  0  0  0  0
  7 43  1  0  0  0  0
  8 44  1  0  0  0  0
  8 45  1  0  0  0  0
  9 46  1  0  0  0  0
  9 47  1  0  0  0  0
 10  8  1  0  0  0  0
 10 48  1  0  0  0  0
 10 49  1  0  0  0  0
 11  9  1  0  0  0  0
 11 50  1  0  0  0  0
 11 51  1  0  0  0  0
 12 52  1  0  0  0  0
 13 53  1  0  0  0  0
 13 54  1  0  0  0  0
 15  6  1  0  0  0  0
 15 12  2  0  0  0  0
 16  4  2  0  0  0  0
 17 12  1  0  0  0  0
 18  5  2  0  0  0  0
 18 16  1  0  0  0  0
 19 14  2  0  0  0  0
 20  7  1  0  0  0  0
 20 17  2  0  0  0  0
 21 13  1  0  0  0  0
 22 16  1  0  0  0  0
 22 17  1  0  0  0  0
 23 19  1  0  0  0  0
 24 18  1  0  0  0  0
 25 13  1  0  0  0  0
 25 22  2  0  0  0  0
 26 19  1  0  0  0  0
 26 21  2  0  0  0  0
 27  1  1  0  0  0  0
 27  8  1  0  0  0  0
 27  9  1  0  0  0  0
 28 10  1  0  0  0  0
 28 11  1  0  0  0  0
 28 14  1  0  0  0  0
 29 20  1  0  0  0  0
 29 21  1  0  0  0  0
 29 23  1  0  0  0  0
 30 15  1  0  0  0  0
 31 23  2  0  0  0  0
 32 30  2  0  0  0  0
 33 30  2  0  0  0  0
 34 14  1  0  0  0  0
M  END
>  <DRUGBANK_ID>
DB13643

>  <COMMON_NAME>
Loprazolam

>  <CAS_NUMBER>
61197-73-7

>  <UNII>
759N8462G8

>  <SYNONYMS>
Loprazolam; Triazulenone

$$$$
