
 OpenBabel10282417072D

 43 46  0  0  0  0  0  0  0  0999 V2000
   -3.2169   -0.6945    0.0000 C   0  0  0  0  0  0  0  0  0  0  0  0
   -2.5025   -0.2819    0.0000 C   0  0  0  0  0  0  0  0  0  0  0  0
   -1.7880   -0.6945    0.0000 C   0  0  0  0  0  0  0  0  0  0  0  0
   -1.7880   -1.5195    0.0000 C   0  0  0  0  0  0  0  0  0  0  0  0
   -2.5025   -1.9320    0.0000 C   0  0  0  0  0  0  0  0  0  0  0  0
   -3.2169   -1.5195    0.0000 C   0  0  0  0  0  0  0  0  0  0  0  0
   -2.5025   -2.7571    0.0000 Cl  0  0  0  0  0  0  0  0  0  0  0  0
   -1.1429   -2.0339    0.0000 C   0  0  0  0  0  0  0  0  0  0  0  0
   -0.3386   -1.8504    0.0000 N   0  0  0  0  0  0  0  0  0  0  0  0
    0.0193   -1.1070    0.0000 C   0  0  0  0  0  0  0  0  0  0  0  0
   -0.3386   -0.3637    0.0000 C   0  0  0  0  0  0  0  0  0  0  0  0
   -1.1429   -0.1801    0.0000 N   0  0  0  0  0  0  0  0  0  0  0  0
   -1.2168    0.6416    0.0000 C   0  0  0  0  0  0  0  0  0  0  0  0
   -0.4582    0.9658    0.0000 N   0  0  0  0  0  0  0  0  0  0  0  0
    0.0845    0.3445    0.0000 C   0  0  0  0  0  0  0  0  0  0  0  0
    0.9063    0.4184    0.0000 C   0  0  0  0  0  0  0  0  0  0  0  0
    1.4490   -0.2028    0.0000 N   0  0  0  0  0  0  0  0  0  0  0  0
    2.2077    0.1214    0.0000 O   0  0  0  0  0  0  0  0  0  0  0  0
    2.1337    0.9431    0.0000 C   0  0  0  0  0  0  0  0  0  0  0  0
    1.3294    1.1267    0.0000 N   0  0  0  0  0  0  0  0  0  0  0  0
    2.7551    1.4859    0.0000 C   0  0  0  0  0  0  0  0  0  0  0  0
    2.5956    2.2954    0.0000 N   0  0  0  0  0  0  0  0  0  0  0  0
    3.2169    2.8382    0.0000 C   0  0  0  0  0  0  0  0  0  0  0  0
    1.8149    2.5621    0.0000 C   0  0  0  0  0  0  0  0  0  0  0  0
    0.2447   -2.4337    0.0000 C   0  0  0  0  0  0  0  0  0  0  0  0
   -1.3265   -2.8382    0.0000 O   0  0  0  0  0  0  0  0  0  0  0  0
   -4.1107   -0.1786    0.0000 H   0  0  0  0  0  0  0  0  0  0  0  0
   -2.5025    0.7501    0.0000 H   0  0  0  0  0  0  0  0  0  0  0  0
   -4.1106   -2.0355    0.0000 H   0  0  0  0  0  0  0  0  0  0  0  0
    1.0893   -1.1070    0.0000 H   0  0  0  0  0  0  0  0  0  0  0  0
    0.5886   -0.2010    0.0000 H   0  0  0  0  0  0  0  0  0  0  0  0
   -2.1027    1.1710    0.0000 H   0  0  0  0  0  0  0  0  0  0  0  0
    3.7677    1.1401    0.0000 H   0  0  0  0  0  0  0  0  0  0  0  0
    3.5609    2.1899    0.0000 H   0  0  0  0  0  0  0  0  0  0  0  0
    4.2295    2.4924    0.0000 H   0  0  0  0  0  0  0  0  0  0  0  0
    3.0101    3.8880    0.0000 H   0  0  0  0  0  0  0  0  0  0  0  0
    4.0227    3.5422    0.0000 H   0  0  0  0  0  0  0  0  0  0  0  0
    1.6082    3.6119    0.0000 H   0  0  0  0  0  0  0  0  0  0  0  0
    1.0091    1.8582    0.0000 H   0  0  0  0  0  0  0  0  0  0  0  0
    0.8024    2.9080    0.0000 H   0  0  0  0  0  0  0  0  0  0  0  0
   -0.0322   -3.4672    0.0000 H   0  0  0  0  0  0  0  0  0  0  0  0
    1.2782   -2.1568    0.0000 H   0  0  0  0  0  0  0  0  0  0  0  0
    1.0013   -3.1903    0.0000 H   0  0  0  0  0  0  0  0  0  0  0  0
  1  6  1  0  0  0  0
  1 27  1  0  0  0  0
  2  1  2  0  0  0  0
  2 28  1  0  0  0  0
  3  2  1  0  0  0  0
  3 12  1  0  0  0  0
  4  3  2  0  0  0  0
  4  8  1  0  0  0  0
  5  4  1  0  0  0  0
  5  7  1  0  0  0  0
  6  5  2  0  0  0  0
  6 29  1  0  0  0  0
  8  9  1  0  0  0  0
  8 26  2  0  0  0  0
  9 25  1  0  0  0  0
 10  9  1  0  0  0  0
 10 30  1  0  0  0  0
 10 31  1  0  0  0  0
 11 10  1  0  0  0  0
 11 15  2  0  0  0  0
 12 11  1  0  0  0  0
 12 13  1  0  0  0  0
 13 32  1  0  0  0  0
 14 13  2  0  0  0  0
 15 14  1  0  0  0  0
 15 16  1  0  0  0  0
 17 16  2  0  0  0  0
 17 18  1  0  0  0  0
 18 19  1  0  0  0  0
 19 20  2  0  0  0  0
 19 21  1  0  0  0  0
 20 16  1  0  0  0  0
 21 22  1  0  0  0  0
 21 33  1  0  0  0  0
 21 34  1  0  0  0  0
 22 23  1  0  0  0  0
 22 24  1  0  0  0  0
 23 35  1  0  0  0  0
 23 36  1  0  0  0  0
 23 37  1  0  0  0  0
 24 38  1  0  0  0  0
 24 39  1  0  0  0  0
 24 40  1  0  0  0  0
 25 41  1  0  0  0  0
 25 42  1  0  0  0  0
 25 43  1  0  0  0  0
M  END
>  <DRUGBANK_ID>
DB05721

>  <COMMON_NAME>
EVT 201

>  <CAS_NUMBER>
308239-86-3

>  <UNII>
6J8AF7CLE4

$$$$
