434
 OpenBabel10282417072D

 43 46  0  0  0  0  0  0  0  0999 V2000
    4.0285   -1.7286    0.0000 N   0  0  0  0  0  0  0  0  0  0  0  0
    4.0285   -0.0786    0.0000 C   0  0  0  0  0  0  0  0  0  0  0  0
    4.7429   -0.4911    0.0000 C   0  0  0  0  0  0  0  0  0  0  0  0
    3.3140   -0.4911    0.0000 C   0  0  0  0  0  0  0  0  0  0  0  0
    4.7429   -1.3161    0.0000 C   0  0  0  0  0  0  0  0  0  0  0  0
    3.3139   -1.3161    0.0000 C   0  0  0  0  0  0  0  0  0  0  0  0
    4.0285    0.7464    0.0000 C   0  0  0  0  0  0  0  0  0  0  0  0
    4.7718    1.1043    0.0000 C   0  0  0  0  0  0  0  0  0  0  0  0
    3.2852    1.1043    0.0000 C   0  0  0  0  0  0  0  0  0  0  0  0
    4.0285   -2.5536    0.0000 C   0  0  0  0  0  0  0  0  0  0  0  0
    4.9554    1.9086    0.0000 C   0  0  0  0  0  0  0  0  0  0  0  0
    3.1016    1.9086    0.0000 C   0  0  0  0  0  0  0  0  0  0  0  0
    5.3926    0.5102    0.0000 C   0  0  0  0  0  0  0  0  0  0  0  0
    2.6643    0.5102    0.0000 C   0  0  0  0  0  0  0  0  0  0  0  0
    4.4410    2.5536    0.0000 C   0  0  0  0  0  0  0  0  0  0  0  0
    3.6160    2.5536    0.0000 C   0  0  0  0  0  0  0  0  0  0  0  0
    5.7725    2.1745    0.0000 C   0  0  0  0  0  0  0  0  0  0  0  0
    2.2844    2.1745    0.0000 C   0  0  0  0  0  0  0  0  0  0  0  0
    6.2157    0.7571    0.0000 C   0  0  0  0  0  0  0  0  0  0  0  0
    1.8412    0.7571    0.0000 C   0  0  0  0  0  0  0  0  0  0  0  0
    6.4070    1.5949    0.0000 C   0  0  0  0  0  0  0  0  0  0  0  0
    1.6500    1.5950    0.0000 C   0  0  0  0  0  0  0  0  0  0  0  0
    5.6696    0.0439    0.0000 H   0  0  0  0  0  0  0  0  0  0  0  0
    5.6695   -1.0261    0.0000 H   0  0  0  0  0  0  0  0  0  0  0  0
    2.3874    0.0440    0.0000 H   0  0  0  0  0  0  0  0  0  0  0  0
    2.3873   -1.0260    0.0000 H   0  0  0  0  0  0  0  0  0  0  0  0
    5.6696   -1.8511    0.0000 H   0  0  0  0  0  0  0  0  0  0  0  0
    5.6695   -0.7811    0.0000 H   0  0  0  0  0  0  0  0  0  0  0  0
    2.3872   -1.8511    0.0000 H   0  0  0  0  0  0  0  0  0  0  0  0
    2.3873   -0.7810    0.0000 H   0  0  0  0  0  0  0  0  0  0  0  0
    3.1019   -3.0886    0.0000 H   0  0  0  0  0  0  0  0  0  0  0  0
    4.9551   -3.0886    0.0000 H   0  0  0  0  0  0  0  0  0  0  0  0
    4.0285   -3.6236    0.0000 H   0  0  0  0  0  0  0  0  0  0  0  0
    5.1513   -0.4932    0.0000 H   0  0  0  0  0  0  0  0  0  0  0  0
    2.9056   -0.4932    0.0000 H   0  0  0  0  0  0  0  0  0  0  0  0
    4.8888    3.4834    0.0000 H   0  0  0  0  0  0  0  0  0  0  0  0
    3.1682    3.4834    0.0000 H   0  0  0  0  0  0  0  0  0  0  0  0
    5.9905    3.1832    0.0000 H   0  0  0  0  0  0  0  0  0  0  0  0
    2.0664    3.1832    0.0000 H   0  0  0  0  0  0  0  0  0  0  0  0
    6.9694    0.0522    0.0000 H   0  0  0  0  0  0  0  0  0  0  0  0
    1.0874    0.0522    0.0000 H   0  0  0  0  0  0  0  0  0  0  0  0
    7.3920    1.9029    0.0000 H   0  0  0  0  0  0  0  0  0  0  0  0
    0.6650    1.9031    0.0000 H   0  0  0  0  0  0  0  0  0  0  0  0
  1  5  1  0  0  0  0
  1  6  1  0  0  0  0
  1 10  1  0  0  0  0
  2  3  1  0  0  0  0
  2  4  1  0  0  0  0
  2  7  2  0  0  0  0
  3  5  1  0  0  0  0
  3 23  1  0  0  0  0
  3 24  1  0  0  0  0
  4  6  1  0  0  0  0
  4 25  1  0  0  0  0
  4 26  1  0  0  0  0
  5 27  1  0  0  0  0
  5 28  1  0  0  0  0
  6 29  1  0  0  0  0
  6 30  1  0  0  0  0
  7  8  1  0  0  0  0
  7  9  1  0  0  0  0
  8 11  1  0  0  0  0
  8 13  2  0  0  0  0
  9 12  1  0  0  0  0
  9 14  2  0  0  0  0
 10 31  1  0  0  0  0
 10 32  1  0  0  0  0
 10 33  1  0  0  0  0
 11 15  1  0  0  0  0
 11 17  2  0  0  0  0
 12 16  1  0  0  0  0
 12 18  2  0  0  0  0
 13 19  1  0  0  0  0
 13 34  1  0  0  0  0
 14 20  1  0  0  0  0
 14 35  1  0  0  0  0
 15 16  2  0  0  0  0
 15 36  1  0  0  0  0
 16 37  1  0  0  0  0
 17 21  1  0  0  0  0
 17 38  1  0  0  0  0
 18 22  1  0  0  0  0
 18 39  1  0  0  0  0
 19 21  2  0  0  0  0
 19 40  1  0  0  0  0
 20 22  2  0  0  0  0
 20 41  1  0  0  0  0
 21 42  1  0  0  0  0
 22 43  1  0  0  0  0
M  END
>  <DRUGBANK_ID>
DB00434

>  <SECONDARY_ACCESSION_NUMBERS>
APRD00033

>  <COMMON_NAME>
Cyproheptadine

>  <CAS_NUMBER>
129-03-3

>  <UNII>
2YHB6175DO

>  <SYNONYMS>
1-methyl-4-(5-dibenzo(a,e)cycloheptatrienylidene)piperidine; 1-Methyl-4-(5H-dibenzo(a,d)cycloheptenylidene)piperidine; 4-(5-dibenzo(a,d)cyclohepten-5-ylidine)-1-methylpiperidine; 4-(5H-dibenzo(a,d)cyclohepten-5-ylidene)-1-methylpiperidine; 4-Dibenzo[a,d]cyclohepten-5-ylidene-1-methyl-piperidine; 5-(1-methylpiperidylidene-4)-5H-dibenzo(a,d)cyclopheptene; Ciproheptadina; Cyproheptadin; Cyproheptadine; Cyproheptadinum

$$$$
