
 OpenBabel10282417072D

 60 59  0  0  0  0  0  0  0  0999 V2000
    5.0015   -0.2062    0.0000 C   0  0  0  0  0  0  0  0  0  0  0  0
    4.2870   -0.6187    0.0000 C   0  0  0  0  0  0  0  0  0  0  0  0
    5.0015    0.6187    0.0000 O   0  0  0  0  0  0  0  0  0  0  0  0
    3.5725   -0.2062    0.0000 C   0  0  0  0  0  0  0  0  0  0  0  0
    2.8580   -0.6187    0.0000 C   0  0  0  0  0  0  0  0  0  0  0  0
    2.1435   -0.2062    0.0000 C   0  0  0  0  0  0  0  0  0  0  0  0
    1.4290   -0.6187    0.0000 C   0  0  0  0  0  0  0  0  0  0  0  0
    0.7145   -0.2062    0.0000 C   0  0  0  0  0  0  0  0  0  0  0  0
    0.0000   -0.6187    0.0000 C   0  0  0  0  0  0  0  0  0  0  0  0
   -0.7144   -0.2062    0.0000 C   0  0  0  0  0  0  0  0  0  0  0  0
   -1.4290   -0.6187    0.0000 C   0  0  0  0  0  0  0  0  0  0  0  0
   -2.1435   -0.2062    0.0000 C   0  0  0  0  0  0  0  0  0  0  0  0
   -2.8580   -0.6187    0.0000 C   0  0  0  0  0  0  0  0  0  0  0  0
   -3.5725   -0.2062    0.0000 C   0  0  0  0  0  0  0  0  0  0  0  0
   -4.2870   -0.6187    0.0000 C   0  0  0  0  0  0  0  0  0  0  0  0
   -5.0015   -0.2062    0.0000 C   0  0  0  0  0  0  0  0  0  0  0  0
   -5.7160   -0.6187    0.0000 C   0  0  0  0  0  0  0  0  0  0  0  0
   -6.4305   -0.2062    0.0000 C   0  0  0  0  0  0  0  0  0  0  0  0
   -7.1450   -0.6187    0.0000 C   0  0  0  0  0  0  0  0  0  0  0  0
    5.7160   -0.6187    0.0000 O   0  0  0  0  0  0  0  0  0  0  0  0
    6.4305    0.6187    0.0000 O   0  0  0  0  0  0  0  0  0  0  0  0
    6.4305   -0.2062    0.0000 Al  0  0  0  0  0  0  0  0  0  0  0  0
    7.1450   -0.6187    0.0000 O   0  0  0  0  0  0  0  0  0  0  0  0
    4.2870   -1.6887    0.0000 H   0  0  0  0  0  0  0  0  0  0  0  0
    3.3604   -1.1537    0.0000 H   0  0  0  0  0  0  0  0  0  0  0  0
    3.5725    0.8638    0.0000 H   0  0  0  0  0  0  0  0  0  0  0  0
    2.6459    0.3288    0.0000 H   0  0  0  0  0  0  0  0  0  0  0  0
    2.8580   -1.6887    0.0000 H   0  0  0  0  0  0  0  0  0  0  0  0
    1.9314   -1.1537    0.0000 H   0  0  0  0  0  0  0  0  0  0  0  0
    2.1435    0.8638    0.0000 H   0  0  0  0  0  0  0  0  0  0  0  0
    1.2169    0.3288    0.0000 H   0  0  0  0  0  0  0  0  0  0  0  0
    1.4290   -1.6887    0.0000 H   0  0  0  0  0  0  0  0  0  0  0  0
    0.5024   -1.1537    0.0000 H   0  0  0  0  0  0  0  0  0  0  0  0
    0.7145    0.8638    0.0000 H   0  0  0  0  0  0  0  0  0  0  0  0
   -0.2121    0.3288    0.0000 H   0  0  0  0  0  0  0  0  0  0  0  0
   -0.0000   -1.6887    0.0000 H   0  0  0  0  0  0  0  0  0  0  0  0
   -0.9267   -1.1537    0.0000 H   0  0  0  0  0  0  0  0  0  0  0  0
   -0.7143    0.8638    0.0000 H   0  0  0  0  0  0  0  0  0  0  0  0
   -1.6410    0.3289    0.0000 H   0  0  0  0  0  0  0  0  0  0  0  0
   -1.4290   -1.6887    0.0000 H   0  0  0  0  0  0  0  0  0  0  0  0
   -2.3557   -1.1537    0.0000 H   0  0  0  0  0  0  0  0  0  0  0  0
   -2.1435    0.8638    0.0000 H   0  0  0  0  0  0  0  0  0  0  0  0
   -3.0701    0.3288    0.0000 H   0  0  0  0  0  0  0  0  0  0  0  0
   -2.8580   -1.6887    0.0000 H   0  0  0  0  0  0  0  0  0  0  0  0
   -3.7846   -1.1537    0.0000 H   0  0  0  0  0  0  0  0  0  0  0  0
   -3.5725    0.8638    0.0000 H   0  0  0  0  0  0  0  0  0  0  0  0
   -4.4991    0.3288    0.0000 H   0  0  0  0  0  0  0  0  0  0  0  0
   -4.2870   -1.6887    0.0000 H   0  0  0  0  0  0  0  0  0  0  0  0
   -5.2136   -1.1537    0.0000 H   0  0  0  0  0  0  0  0  0  0  0  0
   -5.0015    0.8638    0.0000 H   0  0  0  0  0  0  0  0  0  0  0  0
   -5.9281    0.3288    0.0000 H   0  0  0  0  0  0  0  0  0  0  0  0
   -5.7160   -1.6887    0.0000 H   0  0  0  0  0  0  0  0  0  0  0  0
   -6.6426   -1.1537    0.0000 H   0  0  0  0  0  0  0  0  0  0  0  0
   -6.4305    0.8638    0.0000 H   0  0  0  0  0  0  0  0  0  0  0  0
   -7.3571    0.3288    0.0000 H   0  0  0  0  0  0  0  0  0  0  0  0
   -8.0716   -0.0837    0.0000 H   0  0  0  0  0  0  0  0  0  0  0  0
   -7.1450   -1.6887    0.0000 H   0  0  0  0  0  0  0  0  0  0  0  0
   -8.0717   -1.1537    0.0000 H   0  0  0  0  0  0  0  0  0  0  0  0
    7.2705    1.1037    0.0000 H   0  0  0  0  0  0  0  0  0  0  0  0
    7.1450   -1.5887    0.0000 H   0  0  0  0  0  0  0  0  0  0  0  0
  1  2  1  0  0  0  0
  1  3  2  0  0  0  0
  1 20  1  0  0  0  0
  2  4  1  0  0  0  0
  2 24  1  0  0  0  0
  2 25  1  0  0  0  0
  4  5  1  0  0  0  0
  4 26  1  0  0  0  0
  4 27  1  0  0  0  0
  5  6  1  0  0  0  0
  5 28  1  0  0  0  0
  5 29  1  0  0  0  0
  6  7  1  0  0  0  0
  6 30  1  0  0  0  0
  6 31  1  0  0  0  0
  7  8  1  0  0  0  0
  7 32  1  0  0  0  0
  7 33  1  0  0  0  0
  8  9  1  0  0  0  0
  8 34  1  0  0  0  0
  8 35  1  0  0  0  0
  9 10  1  0  0  0  0
  9 36  1  0  0  0  0
  9 37  1  0  0  0  0
 10 11  1  0  0  0  0
 10 38  1  0  0  0  0
 10 39  1  0  0  0  0
 11 40  1  0  0  0  0
 11 41  1  0  0  0  0
 12 11  1  0  0  0  0
 12 42  1  0  0  0  0
 12 43  1  0  0  0  0
 13 12  1  0  0  0  0
 13 44  1  0  0  0  0
 13 45  1  0  0  0  0
 14 13  1  0  0  0  0
 14 46  1  0  0  0  0
 14 47  1  0  0  0  0
 15 14  1  0  0  0  0
 15 48  1  0  0  0  0
 15 49  1  0  0  0  0
 16 15  1  0  0  0  0
 16 50  1  0  0  0  0
 16 51  1  0  0  0  0
 17 16  1  0  0  0  0
 17 52  1  0  0  0  0
 17 53  1  0  0  0  0
 18 17  1  0  0  0  0
 18 54  1  0  0  0  0
 18 55  1  0  0  0  0
 19 18  1  0  0  0  0
 19 56  1  0  0  0  0
 19 57  1  0  0  0  0
 19 58  1  0  0  0  0
 20 22  1  0  0  0  0
 21 59  1  0  0  0  0
 22 21  1  0  0  0  0
 22 23  1  0  0  0  0
 23 60  1  0  0  0  0
M  END
>  <DRUGBANK_ID>
DB01375

>  <COMMON_NAME>
Aluminium monostearate

>  <CAS_NUMBER>
7047-84-9

>  <UNII>
P9BC99461E

>  <SYNONYMS>
Aluminium, dihydroxide stearate; Aluminum monostearate; Aluminum stearate 300; Dibasic aluminium stearate; Dibasic aluminum stearate; Dihydroxy(stearato)aluminium; Dihydroxy(stearato)aluminum; Dihydroxyaluminum stearate

$$$$
