
 OpenBabel10282417072D

 68 71  0  0  0  0  0  0  0  0999 V2000
   -2.5345   -0.3005    0.0000 C   0  0  0  0  0  0  0  0  0  0  0  0
   -3.2544   -0.7036    0.0000 C   0  0  0  0  0  0  0  0  0  0  0  0
   -3.2652   -1.5286    0.0000 C   0  0  2  0  0  0  0  0  0  0  0  0
   -2.5562   -1.9504    0.0000 C   0  0  0  0  0  0  0  0  0  0  0  0
   -1.8364   -1.5473    0.0000 C   0  0  2  0  0  0  0  0  0  0  0  0
   -1.8255   -0.7223    0.0000 C   0  0  1  0  0  0  0  0  0  0  0  0
   -1.1057   -0.3192    0.0000 C   0  0  2  0  0  0  0  0  0  0  0  0
   -1.1274   -1.9691    0.0000 C   0  0  2  0  0  0  0  0  0  0  0  0
   -0.4075   -1.5660    0.0000 C   0  0  0  0  0  0  0  0  0  0  0  0
   -0.3967   -0.7411    0.0000 C   0  0  1  0  0  0  0  0  0  0  0  0
   -0.3751    0.9087    0.0000 C   0  0  0  0  0  0  0  0  0  0  0  0
   -1.0949    0.5056    0.0000 C   0  0  0  0  0  0  0  0  0  0  0  0
    0.3230   -0.3379    0.0000 C   0  0  1  0  0  0  0  0  0  0  0  0
    0.3338    0.4869    0.0000 C   0  0  1  0  0  0  0  0  0  0  0  0
    1.1217    0.7316    0.0000 C   0  0  2  0  0  0  0  0  0  0  0  0
    1.1042   -0.6031    0.0000 C   0  0  0  0  0  0  0  0  0  0  0  0
    1.5978    0.0578    0.0000 C   0  0  0  0  0  0  0  0  0  0  0  0
   -3.9796   -1.9411    0.0000 O   0  0  0  0  0  0  0  0  0  0  0  0
   -1.1274   -2.7941    0.0000 O   0  0  0  0  0  0  0  0  0  0  0  0
   -1.1057   -1.1442    0.0000 H   0  0  0  0  0  0  0  0  0  0  0  0
   -1.8364   -2.3723    0.0000 H   0  0  0  0  0  0  0  0  0  0  0  0
   -0.3967    0.0838    0.0000 H   0  0  0  0  0  0  0  0  0  0  0  0
   -1.8255    0.1026    0.0000 C   0  0  0  0  0  0  0  0  0  0  0  0
    0.3338    1.3119    0.0000 C   0  0  0  0  0  0  0  0  0  0  0  0
    0.3230   -1.1629    0.0000 H   0  0  0  0  0  0  0  0  0  0  0  0
    1.1217    1.5566    0.0000 C   0  0  1  0  0  0  0  0  0  0  0  0
    1.8361    1.9691    0.0000 C   0  0  0  0  0  0  0  0  0  0  0  0
    2.5506    1.5566    0.0000 C   0  0  0  0  0  0  0  0  0  0  0  0
    3.2651    1.9691    0.0000 C   0  0  0  0  0  0  0  0  0  0  0  0
    3.9796    1.5566    0.0000 O   0  0  0  0  0  0  0  0  0  0  0  0
    3.2651    2.7941    0.0000 O   0  0  0  0  0  0  0  0  0  0  0  0
    0.4072    1.9691    0.0000 C   0  0  0  0  0  0  0  0  0  0  0  0
    1.8361    1.1441    0.0000 H   0  0  0  0  0  0  0  0  0  0  0  0
   -2.5205    0.7694    0.0000 H   0  0  0  0  0  0  0  0  0  0  0  0
   -1.6009    0.2223    0.0000 H   0  0  0  0  0  0  0  0  0  0  0  0
   -4.1739   -0.1565    0.0000 H   0  0  0  0  0  0  0  0  0  0  0  0
   -4.1880   -1.2264    0.0000 H   0  0  0  0  0  0  0  0  0  0  0  0
   -4.1883   -0.9876    0.0000 H   0  0  0  0  0  0  0  0  0  0  0  0
   -2.5702   -3.0203    0.0000 H   0  0  0  0  0  0  0  0  0  0  0  0
   -1.6366   -2.4975    0.0000 H   0  0  0  0  0  0  0  0  0  0  0  0
   -2.0575   -2.4980    0.0000 H   0  0  0  0  0  0  0  0  0  0  0  0
    0.5120   -2.1131    0.0000 H   0  0  0  0  0  0  0  0  0  0  0  0
    0.5261   -1.0432    0.0000 H   0  0  0  0  0  0  0  0  0  0  0  0
   -0.3611    1.9786    0.0000 H   0  0  0  0  0  0  0  0  0  0  0  0
    0.5585    1.4315    0.0000 H   0  0  0  0  0  0  0  0  0  0  0  0
   -2.0145    1.0527    0.0000 H   0  0  0  0  0  0  0  0  0  0  0  0
   -1.0809    1.5755    0.0000 H   0  0  0  0  0  0  0  0  0  0  0  0
    1.4214   -1.6250    0.0000 H   0  0  0  0  0  0  0  0  0  0  0  0
    2.1587   -0.7844    0.0000 H   0  0  0  0  0  0  0  0  0  0  0  0
    2.6677    0.0437    0.0000 H   0  0  0  0  0  0  0  0  0  0  0  0
    2.0961    1.0047    0.0000 H   0  0  0  0  0  0  0  0  0  0  0  0
   -4.8197   -1.4561    0.0000 H   0  0  0  0  0  0  0  0  0  0  0  0
   -1.9674   -3.2791    0.0000 H   0  0  0  0  0  0  0  0  0  0  0  0
   -0.8989    0.6376    0.0000 H   0  0  0  0  0  0  0  0  0  0  0  0
   -2.7521    0.6376    0.0000 H   0  0  0  0  0  0  0  0  0  0  0  0
   -1.8255    1.1726    0.0000 H   0  0  0  0  0  0  0  0  0  0  0  0
    1.2604    1.8469    0.0000 H   0  0  0  0  0  0  0  0  0  0  0  0
   -0.5928    1.8469    0.0000 H   0  0  0  0  0  0  0  0  0  0  0  0
    0.3338    2.3819    0.0000 H   0  0  0  0  0  0  0  0  0  0  0  0
    0.1951    1.0216    0.0000 H   0  0  0  0  0  0  0  0  0  0  0  0
    1.8361    3.0391    0.0000 H   0  0  0  0  0  0  0  0  0  0  0  0
    2.7627    2.5041    0.0000 H   0  0  0  0  0  0  0  0  0  0  0  0
    2.5506    0.4866    0.0000 H   0  0  0  0  0  0  0  0  0  0  0  0
    3.4772    1.0216    0.0000 H   0  0  0  0  0  0  0  0  0  0  0  0
    3.9796    0.6196    0.0000 H   0  0  0  0  0  0  0  0  0  0  0  0
    0.4072    3.0391    0.0000 H   0  0  0  0  0  0  0  0  0  0  0  0
   -0.5194    1.4341    0.0000 H   0  0  0  0  0  0  0  0  0  0  0  0
   -0.5195    2.5041    0.0000 H   0  0  0  0  0  0  0  0  0  0  0  0
  1  2  1  0  0  0  0
  1  6  1  0  0  0  0
  1 34  1  0  0  0  0
  1 35  1  0  0  0  0
  2  3  1  0  0  0  0
  2 36  1  0  0  0  0
  2 37  1  0  0  0  0
  3  4  1  0  0  0  0
  3 18  1  0  0  0  0
  3 38  1  1  0  0  0
  4  5  1  0  0  0  0
  4 39  1  0  0  0  0
  4 40  1  0  0  0  0
  5  8  1  0  0  0  0
  5 21  1  1  0  0  0
  6  5  1  0  0  0  0
  6 23  1  1  0  0  0
  7  6  1  0  0  0  0
  7 10  1  0  0  0  0
  7 20  1  6  0  0  0
  8  9  1  0  0  0  0
  8 19  1  0  0  0  0
  8 41  1  1  0  0  0
  9 10  1  0  0  0  0
  9 42  1  0  0  0  0
  9 43  1  0  0  0  0
 10 13  1  0  0  0  0
 10 22  1  1  0  0  0
 11 12  1  0  0  0  0
 11 14  1  0  0  0  0
 11 44  1  0  0  0  0
 11 45  1  0  0  0  0
 12  7  1  0  0  0  0
 12 46  1  0  0  0  0
 12 47  1  0  0  0  0
 13 16  1  0  0  0  0
 13 25  1  6  0  0  0
 14 13  1  0  0  0  0
 14 24  1  1  0  0  0
 15 14  1  0  0  0  0
 15 17  1  0  0  0  0
 15 26  1  0  0  0  0
 15 33  1  6  0  0  0
 16 17  1  0  0  0  0
 16 48  1  0  0  0  0
 16 49  1  0  0  0  0
 17 50  1  0  0  0  0
 17 51  1  0  0  0  0
 18 52  1  0  0  0  0
 19 53  1  0  0  0  0
 23 54  1  0  0  0  0
 23 55  1  0  0  0  0
 23 56  1  0  0  0  0
 24 57  1  0  0  0  0
 24 58  1  0  0  0  0
 24 59  1  0  0  0  0
 26 27  1  0  0  0  0
 26 32  1  0  0  0  0
 26 60  1  1  0  0  0
 27 28  1  0  0  0  0
 27 61  1  0  0  0  0
 27 62  1  0  0  0  0
 28 29  1  0  0  0  0
 28 63  1  0  0  0  0
 28 64  1  0  0  0  0
 29 30  1  0  0  0  0
 29 31  2  0  0  0  0
 30 65  1  0  0  0  0
 32 66  1  0  0  0  0
 32 67  1  0  0  0  0
 32 68  1  0  0  0  0
M  END
>  <DRUGBANK_ID>
DB11789

>  <COMMON_NAME>
Hyodeoxycholic Acid

>  <CAS_NUMBER>
83-49-8

>  <UNII>
7A33Y6EHYK

$$$$
