
 OpenBabel10282417072D

 69 72  0  0  0  0  0  0  0  0999 V2000
    2.3280    3.4478    0.0000 Cl  0  0  0  0  0  0  0  0  0  0  0  0
    3.2978    4.7826    0.0000 Cl  0  0  0  0  0  0  0  0  0  0  0  0
   -1.8688   -2.1868    0.0000 O   0  0  0  0  0  0  0  0  0  0  0  0
    0.9890   -1.3618    0.0000 O   0  0  0  0  0  0  0  0  0  0  0  0
    0.2745   -0.1243    0.0000 N   0  0  0  0  0  0  0  0  0  0  0  0
   -0.4399   -3.8368    0.0000 N   0  0  0  0  0  0  0  0  0  0  0  0
   -0.4399   -2.1868    0.0000 N   0  0  0  0  0  0  0  0  0  0  0  0
   -0.3929    2.8356    0.0000 N   0  0  0  0  0  0  0  0  0  0  0  0
   -0.1379    3.6202    0.0000 N   0  0  0  0  0  0  0  0  0  0  0  0
    0.7975   -4.5513    0.0000 N   0  0  0  0  0  0  0  0  0  0  0  0
   -0.4399   -5.2658    0.0000 N   0  0  0  0  0  0  0  0  0  0  0  0
   -1.8688   -3.8368    0.0000 C   0  0  0  0  0  0  0  0  0  0  0  0
   -2.5834   -3.4243    0.0000 C   0  0  0  0  0  0  0  0  0  0  0  0
   -1.8688   -4.6619    0.0000 C   0  0  0  0  0  0  0  0  0  0  0  0
   -3.2978   -3.8368    0.0000 C   0  0  0  0  0  0  0  0  0  0  0  0
   -2.5834   -5.0744    0.0000 C   0  0  0  0  0  0  0  0  0  0  0  0
   -3.2978   -4.6619    0.0000 C   0  0  0  0  0  0  0  0  0  0  0  0
   -1.1543   -3.4243    0.0000 C   0  0  2  0  0  0  0  0  0  0  0  0
    0.2745    1.5256    0.0000 C   0  0  3  0  0  0  0  0  0  0  0  0
   -0.4399    1.1131    0.0000 C   0  0  0  0  0  0  0  0  0  0  0  0
    0.9890    1.1131    0.0000 C   0  0  0  0  0  0  0  0  0  0  0  0
   -0.4399    0.2881    0.0000 C   0  0  0  0  0  0  0  0  0  0  0  0
    0.9890    0.2881    0.0000 C   0  0  0  0  0  0  0  0  0  0  0  0
   -1.1543   -2.5993    0.0000 C   0  0  0  0  0  0  0  0  0  0  0  0
    0.2745    2.3507    0.0000 C   0  0  0  0  0  0  0  0  0  0  0  0
    0.2745   -0.9493    0.0000 C   0  0  0  0  0  0  0  0  0  0  0  0
   -0.4399   -1.3618    0.0000 C   0  0  0  0  0  0  0  0  0  0  0  0
    0.9419    2.8356    0.0000 C   0  0  0  0  0  0  0  0  0  0  0  0
    0.6870    3.6202    0.0000 C   0  0  0  0  0  0  0  0  0  0  0  0
   -0.0273   -4.5513    0.0000 C   0  0  0  0  0  0  0  0  0  0  0  0
    1.1719    4.2876    0.0000 C   0  0  0  0  0  0  0  0  0  0  0  0
    1.9924    4.2014    0.0000 C   0  0  0  0  0  0  0  0  0  0  0  0
    0.8364    5.0414    0.0000 C   0  0  0  0  0  0  0  0  0  0  0  0
    2.4773    4.8688    0.0000 C   0  0  0  0  0  0  0  0  0  0  0  0
    1.3213    5.7088    0.0000 C   0  0  0  0  0  0  0  0  0  0  0  0
    2.1418    5.6226    0.0000 C   0  0  0  0  0  0  0  0  0  0  0  0
    0.0030   -2.4426    0.0000 H   0  0  0  0  0  0  0  0  0  0  0  0
   -0.8793    2.6775    0.0000 H   0  0  0  0  0  0  0  0  0  0  0  0
    1.0533   -4.1083    0.0000 H   0  0  0  0  0  0  0  0  0  0  0  0
    1.0533   -4.9943    0.0000 H   0  0  0  0  0  0  0  0  0  0  0  0
   -0.9514   -5.2658    0.0000 H   0  0  0  0  0  0  0  0  0  0  0  0
   -0.1841   -5.7088    0.0000 H   0  0  0  0  0  0  0  0  0  0  0  0
   -0.9422   -4.3718    0.0000 H   0  0  0  0  0  0  0  0  0  0  0  0
   -2.5835   -2.3543    0.0000 H   0  0  0  0  0  0  0  0  0  0  0  0
   -3.5101   -2.8893    0.0000 H   0  0  0  0  0  0  0  0  0  0  0  0
   -0.9422   -5.1969    0.0000 H   0  0  0  0  0  0  0  0  0  0  0  0
   -1.8689   -5.7319    0.0000 H   0  0  0  0  0  0  0  0  0  0  0  0
   -4.2245   -3.3018    0.0000 H   0  0  0  0  0  0  0  0  0  0  0  0
   -4.2244   -4.3718    0.0000 H   0  0  0  0  0  0  0  0  0  0  0  0
   -2.5835   -6.1444    0.0000 H   0  0  0  0  0  0  0  0  0  0  0  0
   -3.5101   -5.6094    0.0000 H   0  0  0  0  0  0  0  0  0  0  0  0
   -4.2245   -5.1969    0.0000 H   0  0  0  0  0  0  0  0  0  0  0  0
   -3.2978   -5.7319    0.0000 H   0  0  0  0  0  0  0  0  0  0  0  0
   -1.1543   -4.4943    0.0000 H   0  0  0  0  0  0  0  0  0  0  0  0
    0.2745    0.4556    0.0000 H   0  0  0  0  0  0  0  0  0  0  0  0
   -1.3666    1.6481    0.0000 H   0  0  0  0  0  0  0  0  0  0  0  0
   -1.3665    0.5781    0.0000 H   0  0  0  0  0  0  0  0  0  0  0  0
    1.9156    1.6481    0.0000 H   0  0  0  0  0  0  0  0  0  0  0  0
    1.9156    0.5781    0.0000 H   0  0  0  0  0  0  0  0  0  0  0  0
   -1.3665   -0.2469    0.0000 H   0  0  0  0  0  0  0  0  0  0  0  0
   -1.3666    0.8231    0.0000 H   0  0  0  0  0  0  0  0  0  0  0  0
    1.9156   -0.2470    0.0000 H   0  0  0  0  0  0  0  0  0  0  0  0
    1.9157    0.8231    0.0000 H   0  0  0  0  0  0  0  0  0  0  0  0
   -1.3666   -0.8268    0.0000 H   0  0  0  0  0  0  0  0  0  0  0  0
   -0.4399   -0.2918    0.0000 H   0  0  0  0  0  0  0  0  0  0  0  0
    1.9234    2.5167    0.0000 H   0  0  0  0  0  0  0  0  0  0  0  0
   -0.1899    5.1493    0.0000 H   0  0  0  0  0  0  0  0  0  0  0  0
    0.9015    6.6516    0.0000 H   0  0  0  0  0  0  0  0  0  0  0  0
    2.7484    6.4575    0.0000 H   0  0  0  0  0  0  0  0  0  0  0  0
  1 32  1  0  0  0  0
  2 34  1  0  0  0  0
  3 24  2  0  0  0  0
  4 26  2  0  0  0  0
  5 22  1  0  0  0  0
  5 23  1  0  0  0  0
  5 26  1  0  0  0  0
  6 30  2  0  0  0  0
  7 24  1  0  0  0  0
  7 27  1  0  0  0  0
  7 37  1  0  0  0  0
  8  9  1  0  0  0  0
  8 25  1  0  0  0  0
  8 38  1  0  0  0  0
  9 29  2  0  0  0  0
 10 30  1  0  0  0  0
 10 39  1  0  0  0  0
 10 40  1  0  0  0  0
 11 30  1  0  0  0  0
 11 41  1  0  0  0  0
 11 42  1  0  0  0  0
 12 13  1  0  0  0  0
 12 14  1  0  0  0  0
 12 18  1  0  0  0  0
 12 43  1  0  0  0  0
 13 15  1  0  0  0  0
 13 44  1  0  0  0  0
 13 45  1  0  0  0  0
 14 16  1  0  0  0  0
 14 46  1  0  0  0  0
 14 47  1  0  0  0  0
 15 17  1  0  0  0  0
 15 48  1  0  0  0  0
 15 49  1  0  0  0  0
 16 17  1  0  0  0  0
 16 50  1  0  0  0  0
 16 51  1  0  0  0  0
 17 52  1  0  0  0  0
 17 53  1  0  0  0  0
 18  6  1  0  0  0  0
 18 24  1  0  0  0  0
 18 54  1  1  0  0  0
 19 20  1  0  0  0  0
 19 21  1  0  0  0  0
 19 25  1  0  0  0  0
 19 55  1  0  0  0  0
 20 22  1  0  0  0  0
 20 56  1  0  0  0  0
 20 57  1  0  0  0  0
 21 23  1  0  0  0  0
 21 58  1  0  0  0  0
 21 59  1  0  0  0  0
 22 60  1  0  0  0  0
 22 61  1  0  0  0  0
 23 62  1  0  0  0  0
 23 63  1  0  0  0  0
 25 28  2  0  0  0  0
 26 27  1  0  0  0  0
 27 64  1  0  0  0  0
 27 65  1  0  0  0  0
 28 29  1  0  0  0  0
 28 66  1  0  0  0  0
 29 31  1  0  0  0  0
 31 32  2  0  0  0  0
 31 33  1  0  0  0  0
 32 34  1  0  0  0  0
 33 35  2  0  0  0  0
 33 67  1  0  0  0  0
 34 36  2  0  0  0  0
 35 36  1  0  0  0  0
 35 68  1  0  0  0  0
 36 69  1  0  0  0  0
M  END
>  <DRUGBANK_ID>
DB03957

>  <SECONDARY_ACCESSION_NUMBERS>
EXPT01488

>  <COMMON_NAME>
SP2456

>  <SYNONYMS>
(2R)-2-Cyclohexyl-2-(diaminomethylideneamino)-N-[2-[4-[3-(2,3-dichlorophenyl)-1H-pyrazol-5-yl]piperidin-1-yl]-2-oxoethyl]acetamide

$$$$
