[NO NAME]
 OpenBabel10282417072D
Created with ChemWriter - http://chemwriter.com
 33 34  0  0  0  0  0  0  0  0999 V2000
    1.6500    0.1658    0.0000 O   0  0  0  0  0  0  0  0  0  0  0  0
    4.5080    0.1658    0.0000 O   0  0  0  0  0  0  0  0  0  0  0  0
    3.0791   -2.3092    0.0000 O   0  0  0  0  0  0  0  0  0  0  0  0
    2.3645   -1.0717    0.0000 N   0  0  0  0  0  0  0  0  0  0  0  0
    3.7935   -1.0717    0.0000 N   0  0  0  0  0  0  0  0  0  0  0  0
    2.3645   -0.2467    0.0000 C   0  0  0  0  0  0  0  0  0  0  0  0
    3.7935   -0.2467    0.0000 C   0  0  0  0  0  0  0  0  0  0  0  0
    3.0791   -1.4842    0.0000 C   0  0  0  0  0  0  0  0  0  0  0  0
    1.6500   -1.4842    0.0000 C   0  0  0  0  0  0  0  0  0  0  0  0
    3.0791    0.9908    0.0000 C   0  0  0  0  0  0  0  0  0  0  0  0
    3.7937    1.4033    0.0000 C   0  0  0  0  0  0  0  0  0  0  0  0
    3.7937    2.2283    0.0000 C   0  0  0  0  0  0  0  0  0  0  0  0
    3.0792    2.6408    0.0000 C   0  0  0  0  0  0  0  0  0  0  0  0
    2.3647    2.2284    0.0000 C   0  0  0  0  0  0  0  0  0  0  0  0
    2.3647    1.4034    0.0000 C   0  0  0  0  0  0  0  0  0  0  0  0
    3.0791    0.1658    0.0000 C   0  0  3  0  0  0  0  0  0  0  0  0
    2.4447    0.7448    0.0000 C   0  0  0  0  0  0  0  0  0  0  0  0
    4.6461   -1.5639    0.0000 H   0  0  0  0  0  0  0  0  0  0  0  0
    0.7234   -0.9492    0.0000 H   0  0  0  0  0  0  0  0  0  0  0  0
    1.6500   -2.5542    0.0000 H   0  0  0  0  0  0  0  0  0  0  0  0
    0.7233   -2.0192    0.0000 H   0  0  0  0  0  0  0  0  0  0  0  0
    4.6874    0.8873    0.0000 H   0  0  0  0  0  0  0  0  0  0  0  0
    4.7203    2.7633    0.0000 H   0  0  0  0  0  0  0  0  0  0  0  0
    3.7937    3.2983    0.0000 H   0  0  0  0  0  0  0  0  0  0  0  0
    3.0793    3.7108    0.0000 H   0  0  0  0  0  0  0  0  0  0  0  0
    2.1526    3.1759    0.0000 H   0  0  0  0  0  0  0  0  0  0  0  0
    1.4381    2.7635    0.0000 H   0  0  0  0  0  0  0  0  0  0  0  0
    1.4380    1.6934    0.0000 H   0  0  0  0  0  0  0  0  0  0  0  0
    1.4380    0.8685    0.0000 H   0  0  0  0  0  0  0  0  0  0  0  0
    2.3646    0.3334    0.0000 H   0  0  0  0  0  0  0  0  0  0  0  0
    2.6742    1.7899    0.0000 H   0  0  0  0  0  0  0  0  0  0  0  0
    1.4249    0.4210    0.0000 H   0  0  0  0  0  0  0  0  0  0  0  0
    1.6544    1.4661    0.0000 H   0  0  0  0  0  0  0  0  0  0  0  0
  1  6  2  0  0  0  0
  2  7  2  0  0  0  0
  3  8  2  0  0  0  0
  4  6  1  0  0  0  0
  4  8  1  0  0  0  0
  4  9  1  0  0  0  0
  5  7  1  0  0  0  0
  5  8  1  0  0  0  0
  5 18  1  0  0  0  0
  9 19  1  0  0  0  0
  9 20  1  0  0  0  0
  9 21  1  0  0  0  0
 10 11  2  0  0  0  0
 11 12  1  0  0  0  0
 11 22  1  0  0  0  0
 12 13  1  0  0  0  0
 12 23  1  0  0  0  0
 12 24  1  0  0  0  0
 13 14  1  0  0  0  0
 13 25  1  0  0  0  0
 13 26  1  0  0  0  0
 14 15  1  0  0  0  0
 14 27  1  0  0  0  0
 14 28  1  0  0  0  0
 15 10  1  0  0  0  0
 15 29  1  0  0  0  0
 15 30  1  0  0  0  0
 16 10  1  0  0  0  0
 16  7  1  0  0  0  0
 16  6  1  0  0  0  0
 16 17  1  0  0  0  0
 17 31  1  0  0  0  0
 17 32  1  0  0  0  0
 17 33  1  0  0  0  0
M  END
>  <DRUGBANK_ID>
DB01355

>  <SECONDARY_ACCESSION_NUMBERS>
EXPT03301

>  <COMMON_NAME>
Hexobarbital

>  <CAS_NUMBER>
56-29-1

>  <UNII>
AL8Z8K3P6S

>  <SYNONYMS>
5-(1-cyclohexen-1-yl)-1,5-dimethyl-2,4,6(1H,3H,5H)-pyrimidinetrione; 5-(1-cyclohexen-1-yl)-1,5-dimethylbarbituric acid; 5-Cyclohex-1-enyl-1,5-dimethyl-pyrimidine-2,4,6-trione; Hexobarbital; Hexobarbitone; Methexenyl; Methylhexabital

$$$$
