
 OpenBabel10282417072D

 22 22  0  0  0  0  0  0  0  0999 V2000
   -0.7141   -0.9373    0.0000 C   0  0  0  0  0  0  0  0  0  0  0  0
   -1.4287   -0.5250    0.0000 C   0  0  0  0  0  0  0  0  0  0  0  0
   -1.4287    0.2996    0.0000 C   0  0  0  0  0  0  0  0  0  0  0  0
   -0.7141    0.7119    0.0000 C   0  0  0  0  0  0  0  0  0  0  0  0
    0.0007    0.2996    0.0000 C   0  0  0  0  0  0  0  0  0  0  0  0
    0.0007   -0.5250    0.0000 C   0  0  0  0  0  0  0  0  0  0  0  0
   -2.1419   -0.9373    0.0000 O   0  0  0  0  0  0  0  0  0  0  0  0
    2.1419    0.7133    0.0000 N   0  0  0  0  0  0  0  0  0  0  0  0
    1.4287    0.3009    0.0000 C   0  0  0  0  0  0  0  0  0  0  0  0
    0.7140    0.7133    0.0000 C   0  0  3  0  0  0  0  0  0  0  0  0
    0.7140    1.5379    0.0000 O   0  0  0  0  0  0  0  0  0  0  0  0
   -0.7142   -1.9693    0.0000 H   0  0  0  0  0  0  0  0  0  0  0  0
   -2.3224    0.8157    0.0000 H   0  0  0  0  0  0  0  0  0  0  0  0
   -0.7142    1.7439    0.0000 H   0  0  0  0  0  0  0  0  0  0  0  0
    0.8943   -1.0412    0.0000 H   0  0  0  0  0  0  0  0  0  0  0  0
   -2.9536   -0.4693    0.0000 H   0  0  0  0  0  0  0  0  0  0  0  0
    3.0256    0.2039    0.0000 H   0  0  0  0  0  0  0  0  0  0  0  0
    2.1412    1.7333    0.0000 H   0  0  0  0  0  0  0  0  0  0  0  0
    1.4292   -0.7691    0.0000 H   0  0  0  0  0  0  0  0  0  0  0  0
    0.5022   -0.2344    0.0000 H   0  0  0  0  0  0  0  0  0  0  0  0
    0.7152   -0.3567    0.0000 H   0  0  0  0  0  0  0  0  0  0  0  0
    1.5540    2.0229    0.0000 H   0  0  0  0  0  0  0  0  0  0  0  0
  1  2  2  0  0  0  0
  1  6  1  0  0  0  0
  1 12  1  0  0  0  0
  2  3  1  0  0  0  0
  2  7  1  0  0  0  0
  3  4  2  0  0  0  0
  3 13  1  0  0  0  0
  4  5  1  0  0  0  0
  4 14  1  0  0  0  0
  5  6  2  0  0  0  0
  5 10  1  0  0  0  0
  6 15  1  0  0  0  0
  7 16  1  0  0  0  0
  8  9  1  0  0  0  0
  8 17  1  0  0  0  0
  8 18  1  0  0  0  0
  9 10  1  0  0  0  0
  9 19  1  0  0  0  0
  9 20  1  0  0  0  0
 10 11  1  0  0  0  0
 10 21  1  0  0  0  0
 11 22  1  0  0  0  0
M  END
>  <DRUGBANK_ID>
DB13251

>  <COMMON_NAME>
Octopamine

>  <CAS_NUMBER>
104-14-3

>  <UNII>
14O50WS8JD

>  <SYNONYMS>
Octopamine

$$$$
