
 OpenBabel10282417072D

 93 97  0  0  1  0  0  0  0  0999 V2000
    0.0684   -1.9740    0.0000 H   0  0  0  0  0  0  0  0  0  0  0  0
   -0.6667   -2.3486    0.0000 C   0  0  2  0  0  0  0  0  0  0  0  0
   -0.6667   -1.5236    0.0000 O   0  0  0  0  0  0  0  0  0  0  0  0
    0.0478   -1.1111    0.0000 C   0  0  2  0  0  0  0  0  0  0  0  0
    0.7623   -1.5236    0.0000 C   0  0  1  0  0  0  0  0  0  0  0  0
    0.8055   -0.6997    0.0000 H   0  0  0  0  0  0  0  0  0  0  0  0
    0.8485   -2.3441    0.0000 O   0  0  0  0  0  0  0  0  0  0  0  0
    1.6555   -2.5156    0.0000 C   0  0  2  0  0  0  0  0  0  0  0  0
    2.0680   -1.8011    0.0000 C   0  0  2  0  0  0  0  0  0  0  0  0
    2.8885   -1.7149    0.0000 O   0  0  0  0  0  0  0  0  0  0  0  0
    1.5160   -1.1880    0.0000 C   0  0  2  0  0  0  0  0  0  0  0  0
    1.6875   -0.3811    0.0000 O   0  0  0  0  0  0  0  0  0  0  0  0
    1.9910   -3.2693    0.0000 N   0  0  0  0  0  0  0  0  0  0  0  0
    2.8115   -3.3555    0.0000 C   0  0  0  0  0  0  0  0  0  0  0  0
    3.1471   -4.1092    0.0000 C   0  0  0  0  0  0  0  0  0  0  0  0
    2.6622   -4.7766    0.0000 C   0  0  0  0  0  0  0  0  0  0  0  0
    2.9977   -5.5303    0.0000 O   0  0  0  0  0  0  0  0  0  0  0  0
    1.8417   -4.6904    0.0000 N   0  0  0  0  0  0  0  0  0  0  0  0
    1.5061   -3.9367    0.0000 C   0  0  0  0  0  0  0  0  0  0  0  0
    0.6856   -3.8505    0.0000 O   0  0  0  0  0  0  0  0  0  0  0  0
    0.0478   -0.2861    0.0000 C   0  0  2  0  0  0  0  0  0  0  0  0
    0.0478    0.5389    0.0000 H   0  0  0  0  0  0  0  0  0  0  0  0
   -0.6955    0.0719    0.0000 N   0  0  0  0  0  0  0  0  0  0  0  0
   -1.3405   -0.4425    0.0000 C   0  0  0  0  0  0  0  0  0  0  0  0
   -0.8791    0.8762    0.0000 C   0  0  0  0  0  0  0  0  0  0  0  0
   -0.3647    1.5212    0.0000 C   0  0  0  0  0  0  0  0  0  0  0  0
    0.4603    1.5212    0.0000 C   0  0  0  0  0  0  0  0  0  0  0  0
    0.9747    0.8762    0.0000 N   0  0  0  0  0  0  0  0  0  0  0  0
    1.7790    1.0598    0.0000 C   0  0  0  0  0  0  0  0  0  0  0  0
    0.7911    0.0719    0.0000 C   0  0  0  0  0  0  0  0  0  0  0  0
    1.6153    0.0349    0.0000 O   0  0  0  0  0  0  0  0  0  0  0  0
    0.8183    2.2645    0.0000 C   0  0  0  0  0  0  0  0  0  0  0  0
    1.6410    2.3261    0.0000 O   0  0  0  0  0  0  0  0  0  0  0  0
    0.3535    2.9461    0.0000 N   0  0  0  0  0  0  0  0  0  0  0  0
    0.7115    3.6894    0.0000 C   0  0  0  0  0  0  0  0  0  0  0  0
    0.2467    4.3711    0.0000 C   0  0  0  0  0  0  0  0  0  0  0  0
    0.6047    5.1144    0.0000 C   0  0  0  0  0  0  0  0  0  0  0  0
    1.4274    5.1760    0.0000 C   0  0  0  0  0  0  0  0  0  0  0  0
    1.7853    5.9193    0.0000 C   0  0  0  0  0  0  0  0  0  0  0  0
    1.3206    6.6010    0.0000 C   0  0  0  0  0  0  0  0  0  0  0  0
    1.6786    7.3443    0.0000 C   0  0  0  0  0  0  0  0  0  0  0  0
    1.2138    8.0259    0.0000 C   0  0  0  0  0  0  0  0  0  0  0  0
    1.8921    4.4944    0.0000 C   0  0  0  0  0  0  0  0  0  0  0  0
    1.5342    3.7511    0.0000 C   0  0  0  0  0  0  0  0  0  0  0  0
   -1.3341   -2.8335    0.0000 O   0  0  0  0  0  0  0  0  0  0  0  0
   -1.0792   -3.6181    0.0000 C   0  0  2  0  0  0  0  0  0  0  0  0
   -1.5641   -4.2856    0.0000 C   0  0  0  0  0  0  0  0  0  0  0  0
   -2.3846   -4.1993    0.0000 N   0  0  0  0  0  0  0  0  0  0  0  0
   -0.2542   -3.6181    0.0000 C   0  0  1  0  0  0  0  0  0  0  0  0
    0.2308   -4.2856    0.0000 O   0  0  0  0  0  0  0  0  0  0  0  0
    0.0008   -2.8335    0.0000 C   0  0  1  0  0  0  0  0  0  0  0  0
    0.8258   -2.8335    0.0000 O   0  0  0  0  0  0  0  0  0  0  0  0
    0.0478   -2.1811    0.0000 H   0  0  0  0  0  0  0  0  0  0  0  0
    0.9821   -3.3471    0.0000 H   0  0  0  0  0  0  0  0  0  0  0  0
    2.6508   -2.6985    0.0000 H   0  0  0  0  0  0  0  0  0  0  0  0
    3.4586   -2.4997    0.0000 H   0  0  0  0  0  0  0  0  0  0  0  0
    2.5495   -0.9111    0.0000 H   0  0  0  0  0  0  0  0  0  0  0  0
    2.6100   -0.0813    0.0000 H   0  0  0  0  0  0  0  0  0  0  0  0
    3.4181   -2.5206    0.0000 H   0  0  0  0  0  0  0  0  0  0  0  0
    4.1734   -4.2171    0.0000 H   0  0  0  0  0  0  0  0  0  0  0  0
    1.2631   -5.4869    0.0000 H   0  0  0  0  0  0  0  0  0  0  0  0
   -2.3365   -0.0516    0.0000 H   0  0  0  0  0  0  0  0  0  0  0  0
   -1.1810   -1.5005    0.0000 H   0  0  0  0  0  0  0  0  0  0  0  0
   -2.1770   -1.1097    0.0000 H   0  0  0  0  0  0  0  0  0  0  0  0
   -1.9223    1.1143    0.0000 H   0  0  0  0  0  0  0  0  0  0  0  0
   -1.2325    1.8862    0.0000 H   0  0  0  0  0  0  0  0  0  0  0  0
   -0.8125    2.4510    0.0000 H   0  0  0  0  0  0  0  0  0  0  0  0
    2.5068    0.2755    0.0000 H   0  0  0  0  0  0  0  0  0  0  0  0
    2.0944    2.0823    0.0000 H   0  0  0  0  0  0  0  0  0  0  0  0
    2.8222    1.2979    0.0000 H   0  0  0  0  0  0  0  0  0  0  0  0
   -0.6282    2.8725    0.0000 H   0  0  0  0  0  0  0  0  0  0  0  0
   -0.7824    4.2940    0.0000 H   0  0  0  0  0  0  0  0  0  0  0  0
    0.0234    5.9671    0.0000 H   0  0  0  0  0  0  0  0  0  0  0  0
    2.8523    5.9993    0.0000 H   0  0  0  0  0  0  0  0  0  0  0  0
    2.2496    6.8833    0.0000 H   0  0  0  0  0  0  0  0  0  0  0  0
    0.2536    6.5211    0.0000 H   0  0  0  0  0  0  0  0  0  0  0  0
    0.7179    7.4851    0.0000 H   0  0  0  0  0  0  0  0  0  0  0  0
    2.7456    7.4243    0.0000 H   0  0  0  0  0  0  0  0  0  0  0  0
    2.1428    8.3084    0.0000 H   0  0  0  0  0  0  0  0  0  0  0  0
    1.6780    8.9900    0.0000 H   0  0  0  0  0  0  0  0  0  0  0  0
    0.1468    7.9458    0.0000 H   0  0  0  0  0  0  0  0  0  0  0  0
    0.6110    8.9099    0.0000 H   0  0  0  0  0  0  0  0  0  0  0  0
    2.9212    4.5715    0.0000 H   0  0  0  0  0  0  0  0  0  0  0  0
    2.1156    2.8985    0.0000 H   0  0  0  0  0  0  0  0  0  0  0  0
   -2.1360   -3.4507    0.0000 H   0  0  0  0  0  0  0  0  0  0  0  0
   -1.1289   -5.2631    0.0000 H   0  0  0  0  0  0  0  0  0  0  0  0
   -2.1931   -5.1512    0.0000 H   0  0  0  0  0  0  0  0  0  0  0  0
   -2.7994   -3.2675    0.0000 H   0  0  0  0  0  0  0  0  0  0  0  0
   -2.9842   -5.0245    0.0000 H   0  0  0  0  0  0  0  0  0  0  0  0
   -0.7400   -4.5715    0.0000 H   0  0  0  0  0  0  0  0  0  0  0  0
   -0.1637   -5.1718    0.0000 H   0  0  0  0  0  0  0  0  0  0  0  0
    0.6297   -3.6992    0.0000 H   0  0  0  0  0  0  0  0  0  0  0  0
    1.3108   -3.6735    0.0000 H   0  0  0  0  0  0  0  0  0  0  0  0
  2  1  1  6  0  0  0
  2  3  1  0  0  0  0
  2 45  1  0  0  0  0
  4  3  1  0  0  0  0
  4  5  1  0  0  0  0
  4 21  1  0  0  0  0
  4 53  1  6  0  0  0
  5  6  1  1  0  0  0
  5  7  1  0  0  0  0
  5 11  1  0  0  0  0
  8  7  1  0  0  0  0
  8 13  1  0  0  0  0
  8 54  1  1  0  0  0
  9  8  1  0  0  0  0
  9 10  1  0  0  0  0
  9 55  1  6  0  0  0
 10 56  1  0  0  0  0
 11  9  1  0  0  0  0
 11 12  1  0  0  0  0
 11 57  1  6  0  0  0
 12 58  1  0  0  0  0
 13 14  1  0  0  0  0
 13 19  1  0  0  0  0
 14 15  2  0  0  0  0
 14 59  1  0  0  0  0
 15 16  1  0  0  0  0
 15 60  1  0  0  0  0
 16 17  2  0  0  0  0
 16 18  1  0  0  0  0
 18 19  1  0  0  0  0
 18 61  1  0  0  0  0
 19 20  2  0  0  0  0
 21 22  1  1  0  0  0
 21 23  1  0  0  0  0
 21 30  1  0  0  0  0
 23 24  1  0  0  0  0
 23 25  1  0  0  0  0
 24 62  1  0  0  0  0
 24 63  1  0  0  0  0
 24 64  1  0  0  0  0
 25 26  1  0  0  0  0
 25 65  1  0  0  0  0
 25 66  1  0  0  0  0
 26 27  2  0  0  0  0
 26 67  1  0  0  0  0
 27 28  1  0  0  0  0
 27 32  1  0  0  0  0
 28 29  1  0  0  0  0
 28 30  1  0  0  0  0
 29 68  1  0  0  0  0
 29 69  1  0  0  0  0
 29 70  1  0  0  0  0
 30 31  2  0  0  0  0
 32 33  2  0  0  0  0
 32 34  1  0  0  0  0
 34 35  1  0  0  0  0
 34 71  1  0  0  0  0
 35 36  2  0  0  0  0
 35 44  1  0  0  0  0
 36 37  1  0  0  0  0
 36 72  1  0  0  0  0
 37 38  2  0  0  0  0
 37 73  1  0  0  0  0
 38 39  1  0  0  0  0
 38 43  1  0  0  0  0
 39 40  1  0  0  0  0
 39 74  1  0  0  0  0
 39 75  1  0  0  0  0
 40 41  1  0  0  0  0
 40 76  1  0  0  0  0
 40 77  1  0  0  0  0
 41 42  1  0  0  0  0
 41 78  1  0  0  0  0
 41 79  1  0  0  0  0
 42 80  1  0  0  0  0
 42 81  1  0  0  0  0
 42 82  1  0  0  0  0
 43 44  2  0  0  0  0
 43 83  1  0  0  0  0
 44 84  1  0  0  0  0
 46 45  1  0  0  0  0
 46 47  1  0  0  0  0
 46 85  1  6  0  0  0
 47 48  1  0  0  0  0
 47 86  1  0  0  0  0
 47 87  1  0  0  0  0
 48 88  1  0  0  0  0
 48 89  1  0  0  0  0
 49 46  1  0  0  0  0
 49 50  1  0  0  0  0
 49 51  1  0  0  0  0
 49 90  1  1  0  0  0
 50 91  1  0  0  0  0
 51  2  1  0  0  0  0
 51 52  1  0  0  0  0
 51 92  1  1  0  0  0
 52 93  1  0  0  0  0
M  END
>  <DRUGBANK_ID>
DB18077

>  <COMMON_NAME>
CPZEN-45

>  <CAS_NUMBER>
737759-36-3

>  <UNII>
LLP2Z9Z2EK

>  <SYNONYMS>
5-{[(5-amino-3,3-dihydroxyoxolan-2-yl)oxy][5-(2,4-dioxo-1,2,3,4-tetrahydropyrimidin-1-yl)-3,4-dihydroxyoxolan-2-yl]methyl}-N-(4-butylphenyl)-4,7-dimethyl-6-oxocyclohept-1-ene-1-carboxamide; Uridine, 5'-o-(5-amino-5-deoxy-.beta.-d-ribofuranosyl)-5'-c-((2s)-5-(((4-butylphenyl)amino)carbonyl)-2,3,4,7-tetrahydro-1,4-dimethyl-3-oxo-1h-1,4-diazepin-2-yl)-, (5's)-

$$$$
