MUV
 OpenBabel10282417072D

 64 66  0  0  0  0  0  0  0  0999 V2000
   -4.0441    1.2662    0.0000 O   0  0  0  0  0  0  0  0  0  0  0  0
   -4.0441    0.4412    0.0000 C   0  0  0  0  0  0  0  0  0  0  0  0
   -4.7585    0.0287    0.0000 N   0  0  0  0  0  0  0  0  0  0  0  0
   -5.4730    0.4412    0.0000 C   0  0  0  0  0  0  0  0  0  0  0  0
   -3.3296    0.0287    0.0000 C   0  0  0  0  0  0  0  0  0  0  0  0
   -2.6151    0.4412    0.0000 C   0  0  0  0  0  0  0  0  0  0  0  0
   -1.9007    0.0287    0.0000 C   0  0  0  0  0  0  0  0  0  0  0  0
   -1.9007   -0.7963    0.0000 O   0  0  0  0  0  0  0  0  0  0  0  0
   -1.1862    0.4412    0.0000 N   0  0  0  0  0  0  0  0  0  0  0  0
   -0.4717    0.0287    0.0000 C   0  0  1  0  0  0  0  0  0  0  0  0
   -0.4717   -0.7963    0.0000 C   0  0  0  0  0  0  0  0  0  0  0  0
    0.2428   -1.2088    0.0000 C   0  0  0  0  0  0  0  0  0  0  0  0
    0.9572   -0.7963    0.0000 C   0  0  0  0  0  0  0  0  0  0  0  0
    1.6717   -1.2088    0.0000 C   0  0  0  0  0  0  0  0  0  0  0  0
    1.6717   -2.0338    0.0000 C   0  0  0  0  0  0  0  0  0  0  0  0
    0.9572   -2.4463    0.0000 C   0  0  0  0  0  0  0  0  0  0  0  0
    0.2428   -2.0338    0.0000 C   0  0  0  0  0  0  0  0  0  0  0  0
    0.2428    0.4412    0.0000 C   0  0  2  0  0  0  0  0  0  0  0  0
    0.2428    1.2662    0.0000 O   0  0  0  0  0  0  0  0  0  0  0  0
    0.9572    0.0287    0.0000 C   0  0  0  0  0  0  0  0  0  0  0  0
    1.6717    0.4412    0.0000 N   0  0  0  0  0  0  0  0  0  0  0  0
    1.6717    1.2662    0.0000 C   0  0  0  0  0  0  0  0  0  0  0  0
    2.3862    1.6787    0.0000 C   0  0  0  0  0  0  0  0  0  0  0  0
    2.7987    2.3931    0.0000 C   0  0  0  0  0  0  0  0  0  0  0  0
    3.2112    1.6787    0.0000 C   0  0  0  0  0  0  0  0  0  0  0  0
    2.3862    0.0287    0.0000 S   0  0  0  0  0  0  0  0  0  0  0  0
    1.9737   -0.6858    0.0000 O   0  0  0  0  0  0  0  0  0  0  0  0
    2.7987    0.7431    0.0000 O   0  0  0  0  0  0  0  0  0  0  0  0
    3.1006   -0.3838    0.0000 C   0  0  0  0  0  0  0  0  0  0  0  0
    3.8543   -0.0483    0.0000 O   0  0  0  0  0  0  0  0  0  0  0  0
    4.4063   -0.6614    0.0000 C   0  0  0  0  0  0  0  0  0  0  0  0
    3.9938   -1.3759    0.0000 C   0  0  0  0  0  0  0  0  0  0  0  0
    3.1869   -1.2043    0.0000 C   0  0  0  0  0  0  0  0  0  0  0  0
   -0.9774   -0.2633    0.0000 H   0  0  0  0  0  0  0  0  0  0  0  0
    0.2428   -0.1428    0.0000 H   0  0  0  0  0  0  0  0  0  0  0  0
   -4.7585   -0.9558    0.0000 H   0  0  0  0  0  0  0  0  0  0  0  0
   -5.4730    1.5112    0.0000 H   0  0  0  0  0  0  0  0  0  0  0  0
   -6.3996   -0.0938    0.0000 H   0  0  0  0  0  0  0  0  0  0  0  0
   -6.3997    0.9762    0.0000 H   0  0  0  0  0  0  0  0  0  0  0  0
   -3.3296   -1.0413    0.0000 H   0  0  0  0  0  0  0  0  0  0  0  0
   -2.4030   -0.5063    0.0000 H   0  0  0  0  0  0  0  0  0  0  0  0
   -2.6151    1.5112    0.0000 H   0  0  0  0  0  0  0  0  0  0  0  0
   -1.6884    0.9762    0.0000 H   0  0  0  0  0  0  0  0  0  0  0  0
   -1.1862    1.4257    0.0000 H   0  0  0  0  0  0  0  0  0  0  0  0
   -1.3983   -1.3313    0.0000 H   0  0  0  0  0  0  0  0  0  0  0  0
   -0.4717   -1.8663    0.0000 H   0  0  0  0  0  0  0  0  0  0  0  0
    0.9572    0.2357    0.0000 H   0  0  0  0  0  0  0  0  0  0  0  0
    2.5654   -0.6928    0.0000 H   0  0  0  0  0  0  0  0  0  0  0  0
    2.5654   -2.5498    0.0000 H   0  0  0  0  0  0  0  0  0  0  0  0
    0.9572   -3.4783    0.0000 H   0  0  0  0  0  0  0  0  0  0  0  0
   -0.6509   -2.5498    0.0000 H   0  0  0  0  0  0  0  0  0  0  0  0
    1.0828    1.7512    0.0000 H   0  0  0  0  0  0  0  0  0  0  0  0
    0.9572   -1.0413    0.0000 H   0  0  0  0  0  0  0  0  0  0  0  0
    1.8838   -0.5063    0.0000 H   0  0  0  0  0  0  0  0  0  0  0  0
    0.7451    1.8012    0.0000 H   0  0  0  0  0  0  0  0  0  0  0  0
    1.6717    2.3362    0.0000 H   0  0  0  0  0  0  0  0  0  0  0  0
    3.3129    2.2137    0.0000 H   0  0  0  0  0  0  0  0  0  0  0  0
    2.7987    3.4631    0.0000 H   0  0  0  0  0  0  0  0  0  0  0  0
    3.8322    2.6701    0.0000 H   0  0  0  0  0  0  0  0  0  0  0  0
    4.1379    1.1437    0.0000 H   0  0  0  0  0  0  0  0  0  0  0  0
    3.9678    2.4353    0.0000 H   0  0  0  0  0  0  0  0  0  0  0  0
    5.4326   -0.5535    0.0000 H   0  0  0  0  0  0  0  0  0  0  0  0
    4.4135   -2.3187    0.0000 H   0  0  0  0  0  0  0  0  0  0  0  0
    2.4200   -1.8948    0.0000 H   0  0  0  0  0  0  0  0  0  0  0  0
  1  2  2  0  0  0  0
  2  3  1  0  0  0  0
  2  5  1  0  0  0  0
  3  4  1  0  0  0  0
  3 36  1  0  0  0  0
  4 37  1  0  0  0  0
  4 38  1  0  0  0  0
  4 39  1  0  0  0  0
  5  6  1  0  0  0  0
  5 40  1  0  0  0  0
  5 41  1  0  0  0  0
  6  7  1  0  0  0  0
  6 42  1  0  0  0  0
  6 43  1  0  0  0  0
  7  8  2  0  0  0  0
  7  9  1  0  0  0  0
  9 44  1  0  0  0  0
 10  9  1  0  0  0  0
 10 11  1  0  0  0  0
 10 18  1  0  0  0  0
 10 34  1  1  0  0  0
 11 12  1  0  0  0  0
 11 45  1  0  0  0  0
 11 46  1  0  0  0  0
 12 13  2  0  0  0  0
 12 17  1  0  0  0  0
 13 14  1  0  0  0  0
 13 47  1  0  0  0  0
 14 15  2  0  0  0  0
 14 48  1  0  0  0  0
 15 16  1  0  0  0  0
 15 49  1  0  0  0  0
 16 17  2  0  0  0  0
 16 50  1  0  0  0  0
 17 51  1  0  0  0  0
 18 20  1  0  0  0  0
 18 19  1  0  0  0  0
 18 35  1  1  0  0  0
 19 52  1  0  0  0  0
 20 21  1  0  0  0  0
 20 53  1  0  0  0  0
 20 54  1  0  0  0  0
 21 26  1  0  0  0  0
 21 22  1  0  0  0  0
 22 23  1  0  0  0  0
 22 55  1  0  0  0  0
 22 56  1  0  0  0  0
 23 24  1  0  0  0  0
 23 25  1  0  0  0  0
 23 57  1  0  0  0  0
 24 25  1  0  0  0  0
 24 58  1  0  0  0  0
 24 59  1  0  0  0  0
 25 60  1  0  0  0  0
 25 61  1  0  0  0  0
 26 27  2  0  0  0  0
 26 28  2  0  0  0  0
 26 29  1  0  0  0  0
 29 30  1  0  0  0  0
 29 33  2  0  0  0  0
 30 31  1  0  0  0  0
 31 32  2  0  0  0  0
 31 62  1  0  0  0  0
 32 33  1  0  0  0  0
 32 63  1  0  0  0  0
 33 64  1  0  0  0  0
M  END
>  <DRUGBANK_ID>
DB08223

>  <COMMON_NAME>
N-{(1S,2R)-1-BENZYL-3-[(CYCLOPROPYLMETHYL)(2-FURYLSULFONYL)AMINO]-2-HYDROXYPROPYL}-N'-METHYLSUCCINAMIDE

$$$$
