
 OpenBabel10282417072D

 56 59  0  0  0  0  0  0  0  0999 V2000
    0.3221   -1.5712    0.0000 C   0  0  0  0  0  0  0  0  0  0  0  0
    0.3221   -0.7462    0.0000 C   0  0  2  0  0  0  0  0  0  0  0  0
   -1.1068   -1.5712    0.0000 C   0  0  0  0  0  0  0  0  0  0  0  0
   -0.3923   -1.9837    0.0000 C   0  0  0  0  0  0  0  0  0  0  0  0
   -0.3923   -0.3337    0.0000 C   0  0  1  0  0  0  0  0  0  0  0  0
   -1.1068   -0.7462    0.0000 C   0  0  1  0  0  0  0  0  0  0  0  0
   -2.5357   -0.7462    0.0000 C   0  0  0  0  0  0  0  0  0  0  0  0
   -2.5357   -1.5712    0.0000 C   0  0  0  0  0  0  0  0  0  0  0  0
   -1.8212   -1.9837    0.0000 C   0  0  0  0  0  0  0  0  0  0  0  0
   -1.8212   -0.3337    0.0000 C   0  0  0  0  0  0  0  0  0  0  0  0
    0.3221    0.9038    0.0000 C   0  0  0  0  0  0  0  0  0  0  0  0
   -0.3923    0.4913    0.0000 C   0  0  2  0  0  0  0  0  0  0  0  0
    1.8212   -0.5885    0.0000 C   0  0  0  0  0  0  0  0  0  0  0  0
    2.3062    0.0787    0.0000 C   0  0  2  0  0  0  0  0  0  0  0  0
    1.8212    0.7462    0.0000 C   0  0  1  0  0  0  0  0  0  0  0  0
   -3.2502   -1.9837    0.0000 O   0  0  0  0  0  0  0  0  0  0  0  0
   -0.3923   -1.1587    0.0000 Cl  0  0  0  0  0  0  0  0  0  0  0  0
    0.3221    0.0787    0.0000 H   0  0  0  0  0  0  0  0  0  0  0  0
    1.0366    0.4913    0.0000 C   0  0  1  0  0  0  0  0  0  0  0  0
    1.0366    1.3162    0.0000 C   0  0  0  0  0  0  0  0  0  0  0  0
    1.0366   -0.3337    0.0000 C   0  0  2  0  0  0  0  0  0  0  0  0
    1.0366   -1.1587    0.0000 H   0  0  0  0  0  0  0  0  0  0  0  0
   -1.1068    0.0787    0.0000 C   0  0  0  0  0  0  0  0  0  0  0  0
   -1.1068    0.9038    0.0000 O   0  0  0  0  0  0  0  0  0  0  0  0
    3.1311    0.0787    0.0000 C   0  0  0  0  0  0  0  0  0  0  0  0
    1.8212    1.5712    0.0000 C   0  0  0  0  0  0  0  0  0  0  0  0
    2.5358    1.9837    0.0000 C   0  0  0  0  0  0  0  0  0  0  0  0
    3.2502    1.5712    0.0000 Cl  0  0  0  0  0  0  0  0  0  0  0  0
    1.1068    1.9837    0.0000 O   0  0  0  0  0  0  0  0  0  0  0  0
    2.5358    1.1587    0.0000 O   0  0  0  0  0  0  0  0  0  0  0  0
    1.2488   -2.1062    0.0000 H   0  0  0  0  0  0  0  0  0  0  0  0
    0.3221   -2.6412    0.0000 H   0  0  0  0  0  0  0  0  0  0  0  0
   -0.3923   -3.0537    0.0000 H   0  0  0  0  0  0  0  0  0  0  0  0
    0.5344   -2.5187    0.0000 H   0  0  0  0  0  0  0  0  0  0  0  0
   -3.4294   -0.2302    0.0000 H   0  0  0  0  0  0  0  0  0  0  0  0
   -1.8212   -3.0157    0.0000 H   0  0  0  0  0  0  0  0  0  0  0  0
   -1.8212    0.6983    0.0000 H   0  0  0  0  0  0  0  0  0  0  0  0
    0.3221    1.9738    0.0000 H   0  0  0  0  0  0  0  0  0  0  0  0
   -0.6046    1.4388    0.0000 H   0  0  0  0  0  0  0  0  0  0  0  0
   -1.3189   -0.0437    0.0000 H   0  0  0  0  0  0  0  0  0  0  0  0
    2.1518   -1.6061    0.0000 H   0  0  0  0  0  0  0  0  0  0  0  0
    2.8780   -0.7560    0.0000 H   0  0  0  0  0  0  0  0  0  0  0  0
    2.7919   -0.8747    0.0000 H   0  0  0  0  0  0  0  0  0  0  0  0
    1.9632    1.8512    0.0000 H   0  0  0  0  0  0  0  0  0  0  0  0
    0.1100    1.8512    0.0000 H   0  0  0  0  0  0  0  0  0  0  0  0
    1.0366    2.3862    0.0000 H   0  0  0  0  0  0  0  0  0  0  0  0
   -0.1802    0.6137    0.0000 H   0  0  0  0  0  0  0  0  0  0  0  0
   -2.0334    0.6137    0.0000 H   0  0  0  0  0  0  0  0  0  0  0  0
   -1.1068    1.1487    0.0000 H   0  0  0  0  0  0  0  0  0  0  0  0
   -1.1068    1.8738    0.0000 H   0  0  0  0  0  0  0  0  0  0  0  0
    3.6661   -0.8479    0.0000 H   0  0  0  0  0  0  0  0  0  0  0  0
    3.6661    1.0053    0.0000 H   0  0  0  0  0  0  0  0  0  0  0  0
    4.2011    0.0787    0.0000 H   0  0  0  0  0  0  0  0  0  0  0  0
    2.5359    3.0537    0.0000 H   0  0  0  0  0  0  0  0  0  0  0  0
    3.4625    2.5187    0.0000 H   0  0  0  0  0  0  0  0  0  0  0  0
    3.3758    0.6736    0.0000 H   0  0  0  0  0  0  0  0  0  0  0  0
  1 31  1  0  0  0  0
  1 32  1  0  0  0  0
  2  1  1  0  0  0  0
  2 18  1  1  0  0  0
  2  5  1  0  0  0  0
  3  4  1  0  0  0  0
  4  1  1  0  0  0  0
  4 33  1  0  0  0  0
  4 34  1  0  0  0  0
  5 12  1  0  0  0  0
  5 17  1  6  0  0  0
  5  6  1  0  0  0  0
  6  3  1  0  0  0  0
  6 10  1  0  0  0  0
  6 23  1  1  0  0  0
  7  8  1  0  0  0  0
  7 10  2  0  0  0  0
  7 35  1  0  0  0  0
  8  9  1  0  0  0  0
  8 16  2  0  0  0  0
  9  3  2  0  0  0  0
  9 36  1  0  0  0  0
 10 37  1  0  0  0  0
 11 12  1  0  0  0  0
 11 38  1  0  0  0  0
 11 39  1  0  0  0  0
 12 24  1  0  0  0  0
 12 40  1  6  0  0  0
 13 14  1  0  0  0  0
 13 41  1  0  0  0  0
 13 42  1  0  0  0  0
 14 25  1  0  0  0  0
 14 43  1  1  0  0  0
 15 14  1  0  0  0  0
 15 26  1  1  0  0  0
 15 30  1  0  0  0  0
 19 11  1  0  0  0  0
 19 15  1  0  0  0  0
 19 20  1  1  0  0  0
 20 44  1  0  0  0  0
 20 45  1  0  0  0  0
 20 46  1  0  0  0  0
 21  2  1  0  0  0  0
 21 13  1  0  0  0  0
 21 19  1  0  0  0  0
 21 22  1  6  0  0  0
 23 47  1  0  0  0  0
 23 48  1  0  0  0  0
 23 49  1  0  0  0  0
 24 50  1  0  0  0  0
 25 51  1  0  0  0  0
 25 52  1  0  0  0  0
 25 53  1  0  0  0  0
 26 27  1  0  0  0  0
 26 29  2  0  0  0  0
 27 28  1  0  0  0  0
 27 54  1  0  0  0  0
 27 55  1  0  0  0  0
 30 56  1  0  0  0  0
M  END
>  <DRUGBANK_ID>
DB00764

>  <SECONDARY_ACCESSION_NUMBERS>
APRD00289

>  <COMMON_NAME>
Mometasone

>  <CAS_NUMBER>
105102-22-5

>  <UNII>
8HR4QJ6DW8

>  <SYNONYMS>
(+)-Mometasone; Mometason; Mometasona; Mom√©tasone; Mometasone; Mometasonum

$$$$
