
 OpenBabel10282417072D

 31 32  0  0  1  0  0  0  0  0999 V2000
    4.5621    1.8437    0.0000 N   0  0  0  0  0  0  0  0  0  0  0  0
    3.7738    2.0868    0.0000 C   0  0  1  0  0  0  0  0  0  0  0  0
    3.1690    1.5257    0.0000 C   0  0  0  0  0  0  0  0  0  0  0  0
    3.3526    0.7214    0.0000 C   0  0  0  0  0  0  0  0  0  0  0  0
    4.1569    0.5378    0.0000 C   0  0  0  0  0  0  0  0  0  0  0  0
    4.5149   -0.2055    0.0000 C   0  0  0  0  0  0  0  0  0  0  0  0
    4.1569   -0.9488    0.0000 C   0  0  0  0  0  0  0  0  0  0  0  0
    3.3526   -1.1324    0.0000 C   0  0  0  0  0  0  0  0  0  0  0  0
    2.7076   -0.6180    0.0000 C   0  0  0  0  0  0  0  0  0  0  0  0
    2.7076    0.2070    0.0000 C   0  0  0  0  0  0  0  0  0  0  0  0
    1.9230    0.4619    0.0000 C   0  0  0  0  0  0  0  0  0  0  0  0
    1.6680    1.2466    0.0000 O   0  0  0  0  0  0  0  0  0  0  0  0
    1.4380   -0.2055    0.0000 N   0  0  0  0  0  0  0  0  0  0  0  0
    1.9230   -0.8729    0.0000 O   0  0  0  0  0  0  0  0  0  0  0  0
    3.5902    2.8912    0.0000 C   0  0  0  0  0  0  0  0  0  0  0  0
    2.8019    3.1343    0.0000 O   0  0  0  0  0  0  0  0  0  0  0  0
    4.1950    3.4523    0.0000 O   0  0  0  0  0  0  0  0  0  0  0  0
    4.7891    0.8493    0.0000 H   0  0  0  0  0  0  0  0  0  0  0  0
    5.3098    2.5375    0.0000 H   0  0  0  0  0  0  0  0  0  0  0  0
    4.0119    1.0436    0.0000 H   0  0  0  0  0  0  0  0  0  0  0  0
    2.1465    1.8411    0.0000 H   0  0  0  0  0  0  0  0  0  0  0  0
    2.3846    0.7979    0.0000 H   0  0  0  0  0  0  0  0  0  0  0  0
    4.8003    1.3447    0.0000 H   0  0  0  0  0  0  0  0  0  0  0  0
    5.5849   -0.2055    0.0000 H   0  0  0  0  0  0  0  0  0  0  0  0
    5.0842   -1.1115    0.0000 H   0  0  0  0  0  0  0  0  0  0  0  0
    4.8240   -1.7854    0.0000 H   0  0  0  0  0  0  0  0  0  0  0  0
    3.8035   -1.9588    0.0000 H   0  0  0  0  0  0  0  0  0  0  0  0
    3.1145   -2.1756    0.0000 H   0  0  0  0  0  0  0  0  0  0  0  0
    2.3426   -1.4858    0.0000 H   0  0  0  0  0  0  0  0  0  0  0  0
    0.4535   -0.2055    0.0000 H   0  0  0  0  0  0  0  0  0  0  0  0
    2.5933    4.0478    0.0000 H   0  0  0  0  0  0  0  0  0  0  0  0
  1 18  1  0  0  0  0
  1 19  1  0  0  0  0
  2  1  1  0  0  0  0
  2  3  1  0  0  0  0
  2 15  1  0  0  0  0
  2 20  1  6  0  0  0
  3  4  1  0  0  0  0
  3 21  1  0  0  0  0
  3 22  1  0  0  0  0
  4  5  2  0  0  0  0
  4 10  1  0  0  0  0
  5  6  1  0  0  0  0
  5 23  1  0  0  0  0
  6  7  1  0  0  0  0
  6 24  1  0  0  0  0
  6 25  1  0  0  0  0
  7  8  1  0  0  0  0
  7 26  1  0  0  0  0
  7 27  1  0  0  0  0
  8  9  1  0  0  0  0
  8 28  1  0  0  0  0
  8 29  1  0  0  0  0
  9 10  2  0  0  0  0
  9 14  1  0  0  0  0
 10 11  1  0  0  0  0
 11 12  2  0  0  0  0
 11 13  1  0  0  0  0
 13 14  1  0  0  0  0
 13 30  1  0  0  0  0
 15 16  1  0  0  0  0
 15 17  2  0  0  0  0
 16 31  1  0  0  0  0
M  END
>  <DRUGBANK_ID>
DB04152

>  <SECONDARY_ACCESSION_NUMBERS>
EXPT01825

>  <COMMON_NAME>
2-Amino-3-(3-Hydroxy-7,8-Dihydro-6h-Cyclohepta[D]-4-Isoxazolyl)Propionic Acid

$$$$
