
 OpenBabel10282417072D

 63 64  0  0  0  0  0  0  0  0999 V2000
    3.9295    0.6184    0.0000 O   0  0  0  0  0  0  0  0  0  0  0  0
    3.2138   -0.6210    0.0000 O   0  0  0  0  0  0  0  0  0  0  0  0
    2.4997    1.4411    0.0000 C   0  0  0  0  0  0  0  0  0  0  0  0
    2.4996    0.6164    0.0000 C   0  0  1  0  0  0  0  0  0  0  0  0
    3.2128    0.2017    0.0000 C   0  0  0  0  0  0  0  0  0  0  0  0
    3.2118    2.6827    0.0000 C   0  0  0  0  0  0  0  0  0  0  0  0
    3.9335    3.0908    0.0000 C   0  0  0  0  0  0  0  0  0  0  0  0
    4.6502    2.6740    0.0000 C   0  0  0  0  0  0  0  0  0  0  0  0
    4.6454    1.8491    0.0000 C   0  0  0  0  0  0  0  0  0  0  0  0
    3.9308    1.4367    0.0000 C   0  0  0  0  0  0  0  0  0  0  0  0
    3.2141    1.8535    0.0000 C   0  0  0  0  0  0  0  0  0  0  0  0
    5.3664    3.0833    0.0000 F   0  0  0  0  0  0  0  0  0  0  0  0
    1.7841    0.2018    0.0000 N   0  0  0  0  0  0  0  0  0  0  0  0
    1.0709    1.4414    0.0000 O   0  0  0  0  0  0  0  0  0  0  0  0
   -0.3567    0.6187    0.0000 C   0  0  0  0  0  0  0  0  0  0  0  0
    0.3565    0.2040    0.0000 C   0  0  1  0  0  0  0  0  0  0  0  0
    1.0709    0.6165    0.0000 C   0  0  0  0  0  0  0  0  0  0  0  0
   -1.0698   -0.6248    0.0000 C   0  0  0  0  0  0  0  0  0  0  0  0
   -1.7915   -1.0330    0.0000 C   0  0  0  0  0  0  0  0  0  0  0  0
   -2.5083   -0.6162    0.0000 C   0  0  0  0  0  0  0  0  0  0  0  0
   -2.5034    0.2086    0.0000 C   0  0  0  0  0  0  0  0  0  0  0  0
   -1.7891    0.6210    0.0000 C   0  0  0  0  0  0  0  0  0  0  0  0
   -1.0722    0.2042    0.0000 C   0  0  0  0  0  0  0  0  0  0  0  0
   -3.2246   -1.0253    0.0000 N   0  0  0  0  0  0  0  0  0  0  0  0
   -2.5195   -3.0908    0.0000 Cl  0  0  0  0  0  0  0  0  0  0  0  0
   -2.5152   -2.2649    0.0000 C   0  0  0  0  0  0  0  0  0  0  0  0
   -3.2283   -1.8503    0.0000 C   0  0  0  0  0  0  0  0  0  0  0  0
   -4.6532   -1.0190    0.0000 C   0  0  0  0  0  0  0  0  0  0  0  0
   -3.9376   -0.6108    0.0000 C   0  0  0  0  0  0  0  0  0  0  0  0
   -5.3664   -0.6043    0.0000 Cl  0  0  0  0  0  0  0  0  0  0  0  0
    0.3565   -0.6207    0.0000 N   0  0  0  0  0  0  0  0  0  0  0  0
    5.3571    0.6161    0.0000 C   0  0  0  0  0  0  0  0  0  0  0  0
    4.6427    0.2037    0.0000 C   0  0  0  0  0  0  0  0  0  0  0  0
    1.5731    1.9762    0.0000 H   0  0  0  0  0  0  0  0  0  0  0  0
    1.5730    0.9062    0.0000 H   0  0  0  0  0  0  0  0  0  0  0  0
    2.4988   -0.4536    0.0000 H   0  0  0  0  0  0  0  0  0  0  0  0
    2.3197    3.2015    0.0000 H   0  0  0  0  0  0  0  0  0  0  0  0
    3.9397    4.1228    0.0000 H   0  0  0  0  0  0  0  0  0  0  0  0
    5.5376    1.3304    0.0000 H   0  0  0  0  0  0  0  0  0  0  0  0
    3.9291    0.4047    0.0000 H   0  0  0  0  0  0  0  0  0  0  0  0
    1.7834   -0.7827    0.0000 H   0  0  0  0  0  0  0  0  0  0  0  0
   -0.3558    1.6887    0.0000 H   0  0  0  0  0  0  0  0  0  0  0  0
    0.5710    1.1519    0.0000 H   0  0  0  0  0  0  0  0  0  0  0  0
   -0.5710   -0.3296    0.0000 H   0  0  0  0  0  0  0  0  0  0  0  0
   -0.1776   -1.1435    0.0000 H   0  0  0  0  0  0  0  0  0  0  0  0
   -1.7977   -2.0650    0.0000 H   0  0  0  0  0  0  0  0  0  0  0  0
   -3.3956    0.7273    0.0000 H   0  0  0  0  0  0  0  0  0  0  0  0
   -1.7875    1.6530    0.0000 H   0  0  0  0  0  0  0  0  0  0  0  0
   -1.5864   -1.7337    0.0000 H   0  0  0  0  0  0  0  0  0  0  0  0
   -1.5911   -2.8042    0.0000 H   0  0  0  0  0  0  0  0  0  0  0  0
   -4.1570   -2.3818    0.0000 H   0  0  0  0  0  0  0  0  0  0  0  0
   -3.2319   -2.9203    0.0000 H   0  0  0  0  0  0  0  0  0  0  0  0
   -4.6576   -2.0890    0.0000 H   0  0  0  0  0  0  0  0  0  0  0  0
   -3.7291   -1.5583    0.0000 H   0  0  0  0  0  0  0  0  0  0  0  0
   -3.9332    0.4592    0.0000 H   0  0  0  0  0  0  0  0  0  0  0  0
   -4.8617   -0.0715    0.0000 H   0  0  0  0  0  0  0  0  0  0  0  0
   -0.5268   -1.1307    0.0000 H   0  0  0  0  0  0  0  0  0  0  0  0
    1.2398   -1.1307    0.0000 H   0  0  0  0  0  0  0  0  0  0  0  0
    6.2837    0.0810    0.0000 H   0  0  0  0  0  0  0  0  0  0  0  0
    5.3572    1.6861    0.0000 H   0  0  0  0  0  0  0  0  0  0  0  0
    6.2838    1.1510    0.0000 H   0  0  0  0  0  0  0  0  0  0  0  0
    4.6410   -0.8663    0.0000 H   0  0  0  0  0  0  0  0  0  0  0  0
    5.5689   -0.3321    0.0000 H   0  0  0  0  0  0  0  0  0  0  0  0
  3 34  1  0  0  0  0
  3 35  1  0  0  0  0
  4  3  1  0  0  0  0
  4  5  1  0  0  0  0
  4 36  1  6  0  0  0
  5  1  1  0  0  0  0
  5  2  2  0  0  0  0
  6 37  1  0  0  0  0
  7  6  2  0  0  0  0
  7 38  1  0  0  0  0
  8  7  1  0  0  0  0
  9  8  2  0  0  0  0
  9 39  1  0  0  0  0
 10  9  1  0  0  0  0
 10 40  1  0  0  0  0
 11  3  1  0  0  0  0
 11  6  1  0  0  0  0
 11 10  2  0  0  0  0
 12  8  1  0  0  0  0
 13  4  1  0  0  0  0
 13 41  1  0  0  0  0
 15 42  1  0  0  0  0
 15 43  1  0  0  0  0
 16 31  1  0  0  0  0
 16 15  1  0  0  0  0
 16 44  1  6  0  0  0
 17 13  1  0  0  0  0
 17 14  2  0  0  0  0
 17 16  1  0  0  0  0
 18 45  1  0  0  0  0
 19 18  2  0  0  0  0
 19 46  1  0  0  0  0
 20 19  1  0  0  0  0
 21 20  2  0  0  0  0
 21 47  1  0  0  0  0
 22 21  1  0  0  0  0
 22 48  1  0  0  0  0
 23 15  1  0  0  0  0
 23 18  1  0  0  0  0
 23 22  2  0  0  0  0
 24 20  1  0  0  0  0
 26 25  1  0  0  0  0
 26 49  1  0  0  0  0
 26 50  1  0  0  0  0
 27 24  1  0  0  0  0
 27 26  1  0  0  0  0
 27 51  1  0  0  0  0
 27 52  1  0  0  0  0
 28 53  1  0  0  0  0
 28 54  1  0  0  0  0
 29 24  1  0  0  0  0
 29 28  1  0  0  0  0
 29 55  1  0  0  0  0
 29 56  1  0  0  0  0
 30 28  1  0  0  0  0
 31 57  1  0  0  0  0
 31 58  1  0  0  0  0
 32 59  1  0  0  0  0
 32 60  1  0  0  0  0
 32 61  1  0  0  0  0
 33  1  1  0  0  0  0
 33 32  1  0  0  0  0
 33 62  1  0  0  0  0
 33 63  1  0  0  0  0
M  END
>  <DRUGBANK_ID>
DB16627

>  <COMMON_NAME>
Melphalan flufenamide

>  <CAS_NUMBER>
380449-51-4

>  <UNII>
F70C5K4786

>  <SYNONYMS>
Melflufen; Melphalan flufenamide; MFF

$$$$
