
 OpenBabel10282417072D

 33 35  0  0  0  0  0  0  0  0999 V2000
    0.0133   -1.0240    0.0000 C   0  0  1  0  0  0  0  0  0  0  0  0
   -0.2474   -1.8068    0.0000 C   0  0  1  0  0  0  0  0  0  0  0  0
   -0.6649   -0.5545    0.0000 O   0  0  0  0  0  0  0  0  0  0  0  0
   -1.1084   -1.8068    0.0000 C   0  0  1  0  0  0  0  0  0  0  0  0
   -1.3172   -1.0216    0.0000 C   0  0  1  0  0  0  0  0  0  0  0  0
   -1.6042   -2.4590    0.0000 O   0  0  0  0  0  0  0  0  0  0  0  0
    0.0131   -0.1971    0.0000 N   0  0  0  0  0  0  0  0  0  0  0  0
    0.6807    0.2876    0.0000 C   0  0  0  0  0  0  0  0  0  0  0  0
   -0.6541    0.2879    0.0000 C   0  0  0  0  0  0  0  0  0  0  0  0
    0.4259    1.0722    0.0000 C   0  0  0  0  0  0  0  0  0  0  0  0
   -0.3991    1.0725    0.0000 C   0  0  0  0  0  0  0  0  0  0  0  0
    1.4877    0.1159    0.0000 N   0  0  0  0  0  0  0  0  0  0  0  0
    2.0397    0.7289    0.0000 C   0  0  0  0  0  0  0  0  0  0  0  0
    0.9780    1.6852    0.0000 C   0  0  0  0  0  0  0  0  0  0  0  0
    1.7849    1.5136    0.0000 N   0  0  0  0  0  0  0  0  0  0  0  0
    0.7151    2.4759    0.0000 N   0  0  0  0  0  0  0  0  0  0  0  0
   -1.3156   -0.1878    0.0000 C   0  0  0  0  0  0  0  0  0  0  0  0
   -2.0397    0.2243    0.0000 O   0  0  0  0  0  0  0  0  0  0  0  0
    0.2346   -2.4759    0.0000 O   0  0  0  0  0  0  0  0  0  0  0  0
   -1.0429   -0.8529    0.0000 H   0  0  0  0  0  0  0  0  0  0  0  0
    0.8104   -1.6454    0.0000 H   0  0  0  0  0  0  0  0  0  0  0  0
   -0.6330   -2.7654    0.0000 H   0  0  0  0  0  0  0  0  0  0  0  0
   -0.8272   -0.0704    0.0000 H   0  0  0  0  0  0  0  0  0  0  0  0
   -2.5665   -2.3367    0.0000 H   0  0  0  0  0  0  0  0  0  0  0  0
   -1.6356   -0.0308    0.0000 H   0  0  0  0  0  0  0  0  0  0  0  0
   -1.0055    1.9075    0.0000 H   0  0  0  0  0  0  0  0  0  0  0  0
    3.0491    0.5142    0.0000 H   0  0  0  0  0  0  0  0  0  0  0  0
    1.3688    3.2120    0.0000 H   0  0  0  0  0  0  0  0  0  0  0  0
   -0.2493    2.6740    0.0000 H   0  0  0  0  0  0  0  0  0  0  0  0
   -0.3901    0.3492    0.0000 H   0  0  0  0  0  0  0  0  0  0  0  0
   -1.3201    0.8822    0.0000 H   0  0  0  0  0  0  0  0  0  0  0  0
   -2.0457    1.1943    0.0000 H   0  0  0  0  0  0  0  0  0  0  0  0
   -0.1635   -3.3604    0.0000 H   0  0  0  0  0  0  0  0  0  0  0  0
  1  7  1  0  0  0  0
  1 20  1  6  0  0  0
  2  1  1  0  0  0  0
  2 19  1  0  0  0  0
  2 21  1  1  0  0  0
  3  1  1  0  0  0  0
  4  2  1  0  0  0  0
  4  6  1  0  0  0  0
  4 22  1  1  0  0  0
  5  3  1  0  0  0  0
  5  4  1  0  0  0  0
  5 17  1  0  0  0  0
  5 23  1  6  0  0  0
  6 24  1  0  0  0  0
  8  7  1  0  0  0  0
  9  7  1  0  0  0  0
  9 25  1  0  0  0  0
 10  8  2  0  0  0  0
 11  9  2  0  0  0  0
 11 10  1  0  0  0  0
 11 26  1  0  0  0  0
 12  8  1  0  0  0  0
 13 12  2  0  0  0  0
 13 27  1  0  0  0  0
 14 10  1  0  0  0  0
 14 16  1  0  0  0  0
 15 13  1  0  0  0  0
 15 14  2  0  0  0  0
 16 28  1  0  0  0  0
 16 29  1  0  0  0  0
 17 18  1  0  0  0  0
 17 30  1  0  0  0  0
 17 31  1  0  0  0  0
 18 32  1  0  0  0  0
 19 33  1  0  0  0  0
M  END
>  <DRUGBANK_ID>
DB03172

>  <SECONDARY_ACCESSION_NUMBERS>
EXPT03017

>  <COMMON_NAME>
Tubercidin

>  <CAS_NUMBER>
69-33-0

>  <UNII>
M351LCX45Y

>  <SYNONYMS>
7-deazaadenosine; Sparsomycin A; Tubercidine

$$$$
