
 OpenBabel10282417072D

 67 70  0  0  1  0  0  0  0  0999 V2000
    4.5627   -4.7185    0.0000 C   0  0  0  0  0  0  0  0  0  0  0  0
    5.2772   -5.1310    0.0000 C   0  0  0  0  0  0  0  0  0  0  0  0
    5.9916   -4.7185    0.0000 C   0  0  0  0  0  0  0  0  0  0  0  0
    5.2772   -5.9560    0.0000 C   0  0  0  0  0  0  0  0  0  0  0  0
    5.9916   -6.3685    0.0000 C   0  0  0  0  0  0  0  0  0  0  0  0
    5.9916   -7.1935    0.0000 C   0  0  0  0  0  0  0  0  0  0  0  0
    6.7061   -7.6060    0.0000 C   0  0  0  0  0  0  0  0  0  0  0  0
    6.7061   -8.4310    0.0000 C   0  0  0  0  0  0  0  0  0  0  0  0
    7.4206   -8.8435    0.0000 C   0  0  0  0  0  0  0  0  0  0  0  0
    8.1351   -8.4310    0.0000 C   0  0  0  0  0  0  0  0  0  0  0  0
    7.4206   -9.6685    0.0000 C   0  0  0  0  0  0  0  0  0  0  0  0
    6.7061  -10.0810    0.0000 C   0  0  0  0  0  0  0  0  0  0  0  0
    6.7061  -10.9060    0.0000 O   0  0  0  0  0  0  0  0  0  0  0  0
    7.4206  -11.3185    0.0000 C   0  0  0  0  0  0  0  0  0  0  0  0
    7.4206  -12.1435    0.0000 P   0  0  1  0  0  0  0  0  0  0  0  0
    6.6081  -12.0003    0.0000 O   0  0  0  0  0  0  0  0  0  0  0  0
    8.2331  -12.0003    0.0000 O   0  0  0  0  0  0  0  0  0  0  0  0
    8.7634  -12.6322    0.0000 C   0  0  0  0  0  0  0  0  0  0  0  0
    8.4812  -13.4075    0.0000 C   0  0  0  0  0  0  0  0  0  0  0  0
    7.6687  -13.5507    0.0000 C   0  0  2  0  0  0  0  0  0  0  0  0
    7.1384  -12.9188    0.0000 O   0  0  0  0  0  0  0  0  0  0  0  0
    7.3866  -14.3260    0.0000 C   0  0  0  0  0  0  0  0  0  0  0  0
    7.9169  -14.9580    0.0000 C   0  0  0  0  0  0  0  0  0  0  0  0
    7.6347  -15.7332    0.0000 C   0  0  0  0  0  0  0  0  0  0  0  0
    6.8222  -15.8765    0.0000 C   0  0  0  0  0  0  0  0  0  0  0  0
    6.2919  -15.2445    0.0000 C   0  0  0  0  0  0  0  0  0  0  0  0
    5.4795  -15.3878    0.0000 Cl  0  0  0  0  0  0  0  0  0  0  0  0
    6.5741  -14.4693    0.0000 C   0  0  0  0  0  0  0  0  0  0  0  0
    5.9916   -9.6685    0.0000 C   0  0  0  0  0  0  0  0  0  0  0  0
    5.9916   -8.8435    0.0000 C   0  0  0  0  0  0  0  0  0  0  0  0
    5.2772   -8.4310    0.0000 C   0  0  0  0  0  0  0  0  0  0  0  0
    5.2772   -7.6060    0.0000 C   0  0  0  0  0  0  0  0  0  0  0  0
    4.5627   -7.1935    0.0000 C   0  0  0  0  0  0  0  0  0  0  0  0
    4.5627   -6.3685    0.0000 C   0  0  0  0  0  0  0  0  0  0  0  0
    3.8482   -5.9560    0.0000 O   0  0  0  0  0  0  0  0  0  0  0  0
    4.5627   -3.6485    0.0000 H   0  0  0  0  0  0  0  0  0  0  0  0
    3.6361   -5.2535    0.0000 H   0  0  0  0  0  0  0  0  0  0  0  0
    3.6360   -4.1835    0.0000 H   0  0  0  0  0  0  0  0  0  0  0  0
    6.2039   -5.6660    0.0000 H   0  0  0  0  0  0  0  0  0  0  0  0
    6.9183   -5.2535    0.0000 H   0  0  0  0  0  0  0  0  0  0  0  0
    5.9916   -3.6485    0.0000 H   0  0  0  0  0  0  0  0  0  0  0  0
    6.9182   -4.1835    0.0000 H   0  0  0  0  0  0  0  0  0  0  0  0
    6.8853   -5.8525    0.0000 H   0  0  0  0  0  0  0  0  0  0  0  0
    7.6327   -7.0710    0.0000 H   0  0  0  0  0  0  0  0  0  0  0  0
    7.6327   -8.1410    0.0000 H   0  0  0  0  0  0  0  0  0  0  0  0
    9.0617   -8.9660    0.0000 H   0  0  0  0  0  0  0  0  0  0  0  0
    8.1351   -7.3610    0.0000 H   0  0  0  0  0  0  0  0  0  0  0  0
    9.0618   -7.8960    0.0000 H   0  0  0  0  0  0  0  0  0  0  0  0
    8.3143  -10.1845    0.0000 H   0  0  0  0  0  0  0  0  0  0  0  0
    8.3472  -10.7835    0.0000 H   0  0  0  0  0  0  0  0  0  0  0  0
    8.3472  -11.8535    0.0000 H   0  0  0  0  0  0  0  0  0  0  0  0
    9.8171  -12.4464    0.0000 H   0  0  0  0  0  0  0  0  0  0  0  0
    9.4512  -13.4519    0.0000 H   0  0  0  0  0  0  0  0  0  0  0  0
    9.1689  -14.2272    0.0000 H   0  0  0  0  0  0  0  0  0  0  0  0
    8.1152  -14.4129    0.0000 H   0  0  0  0  0  0  0  0  0  0  0  0
    8.3565  -14.3704    0.0000 H   0  0  0  0  0  0  0  0  0  0  0  0
    8.9332  -14.7788    0.0000 H   0  0  0  0  0  0  0  0  0  0  0  0
    8.2981  -16.5238    0.0000 H   0  0  0  0  0  0  0  0  0  0  0  0
    6.4693  -16.8463    0.0000 H   0  0  0  0  0  0  0  0  0  0  0  0
    5.9107  -13.6787    0.0000 H   0  0  0  0  0  0  0  0  0  0  0  0
    5.0979  -10.1845    0.0000 H   0  0  0  0  0  0  0  0  0  0  0  0
    5.2772   -7.3610    0.0000 H   0  0  0  0  0  0  0  0  0  0  0  0
    4.3505   -8.9660    0.0000 H   0  0  0  0  0  0  0  0  0  0  0  0
    4.3506   -7.8960    0.0000 H   0  0  0  0  0  0  0  0  0  0  0  0
    5.2772   -8.6380    0.0000 H   0  0  0  0  0  0  0  0  0  0  0  0
    3.6690   -7.7095    0.0000 H   0  0  0  0  0  0  0  0  0  0  0  0
    3.8482   -5.0190    0.0000 H   0  0  0  0  0  0  0  0  0  0  0  0
  1  2  1  0  0  0  0
  1 36  1  0  0  0  0
  1 37  1  0  0  0  0
  1 38  1  0  0  0  0
  2  3  1  0  0  0  0
  2  4  1  0  0  0  0
  2 39  1  0  0  0  0
  3 40  1  0  0  0  0
  3 41  1  0  0  0  0
  3 42  1  0  0  0  0
  4  5  2  0  0  0  0
  4 34  1  0  0  0  0
  5  6  1  0  0  0  0
  5 43  1  0  0  0  0
  6  7  1  0  0  0  0
  6 32  2  0  0  0  0
  7  8  1  0  0  0  0
  7 44  1  0  0  0  0
  7 45  1  0  0  0  0
  8  9  2  0  0  0  0
  8 30  1  0  0  0  0
  9 10  1  0  0  0  0
  9 11  1  0  0  0  0
 10 46  1  0  0  0  0
 10 47  1  0  0  0  0
 10 48  1  0  0  0  0
 11 12  2  0  0  0  0
 11 49  1  0  0  0  0
 12 13  1  0  0  0  0
 12 29  1  0  0  0  0
 13 14  1  0  0  0  0
 14 50  1  0  0  0  0
 14 51  1  0  0  0  0
 15 14  1  0  0  0  0
 15 16  2  6  0  0  0
 15 17  1  0  0  0  0
 15 21  1  0  0  0  0
 17 18  1  0  0  0  0
 18 19  1  0  0  0  0
 18 52  1  0  0  0  0
 18 53  1  0  0  0  0
 19 54  1  0  0  0  0
 19 55  1  0  0  0  0
 20 19  1  0  0  0  0
 20 21  1  0  0  0  0
 20 22  1  0  0  0  0
 20 56  1  6  0  0  0
 22 23  2  0  0  0  0
 22 28  1  0  0  0  0
 23 24  1  0  0  0  0
 23 57  1  0  0  0  0
 24 25  2  0  0  0  0
 24 58  1  0  0  0  0
 25 26  1  0  0  0  0
 25 59  1  0  0  0  0
 26 27  1  0  0  0  0
 26 28  2  0  0  0  0
 28 60  1  0  0  0  0
 29 30  2  0  0  0  0
 29 61  1  0  0  0  0
 30 31  1  0  0  0  0
 31 62  1  0  0  0  0
 31 63  1  0  0  0  0
 31 64  1  0  0  0  0
 32 33  1  0  0  0  0
 32 65  1  0  0  0  0
 33 34  2  0  0  0  0
 33 66  1  0  0  0  0
 34 35  1  0  0  0  0
 35 67  1  0  0  0  0
M  END
>  <DRUGBANK_ID>
DB15137

>  <COMMON_NAME>
VK-2809

>  <CAS_NUMBER>
852948-13-1

>  <UNII>
3Z11398FNQ

$$$$
