NB1
 OpenBabel10282417072D

 33 34  0  0  0  0  0  0  0  0999 V2000
    0.3846   -1.1322    0.0000 C   0  0  2  0  0  0  0  0  0  0  0  0
    0.3846   -0.3072    0.0000 C   0  0  1  0  0  0  0  0  0  0  0  0
    1.0991    0.1053    0.0000 C   0  0  2  0  0  0  0  0  0  0  0  0
    1.8135   -0.3072    0.0000 C   0  0  1  0  0  0  0  0  0  0  0  0
    1.8135   -1.1322    0.0000 C   0  0  1  0  0  0  0  0  0  0  0  0
    2.5280   -1.5447    0.0000 C   0  0  0  0  0  0  0  0  0  0  0  0
   -0.8850   -0.7197    0.0000 C   0  0  0  0  0  0  0  0  0  0  0  0
   -1.7100   -0.7197    0.0000 C   0  0  0  0  0  0  0  0  0  0  0  0
   -2.9475   -0.0052    0.0000 C   0  0  0  0  0  0  0  0  0  0  0  0
   -0.4000   -0.0522    0.0000 N   0  0  0  0  0  0  0  0  0  0  0  0
    1.0991    0.9303    0.0000 O   0  0  0  0  0  0  0  0  0  0  0  0
    2.5280    0.1053    0.0000 O   0  0  0  0  0  0  0  0  0  0  0  0
    1.0991   -1.5447    0.0000 O   0  0  0  0  0  0  0  0  0  0  0  0
    3.2425   -1.1322    0.0000 O   0  0  0  0  0  0  0  0  0  0  0  0
   -0.4000   -1.3871    0.0000 S   0  0  0  0  0  0  0  0  0  0  0  0
   -2.1225   -0.0052    0.0000 C   0  0  0  0  0  0  0  0  0  0  0  0
    0.3235   -1.7129    0.0000 H   0  0  0  0  0  0  0  0  0  0  0  0
    0.3235    0.2736    0.0000 H   0  0  0  0  0  0  0  0  0  0  0  0
    0.5934    0.3973    0.0000 H   0  0  0  0  0  0  0  0  0  0  0  0
    1.8135    0.2768    0.0000 H   0  0  0  0  0  0  0  0  0  0  0  0
    2.3192   -0.8402    0.0000 H   0  0  0  0  0  0  0  0  0  0  0  0
    2.5280   -2.6147    0.0000 H   0  0  0  0  0  0  0  0  0  0  0  0
    3.4546   -2.0797    0.0000 H   0  0  0  0  0  0  0  0  0  0  0  0
   -2.2450   -1.6463    0.0000 H   0  0  0  0  0  0  0  0  0  0  0  0
   -2.7800   -0.7197    0.0000 H   0  0  0  0  0  0  0  0  0  0  0  0
   -3.4825    0.9214    0.0000 H   0  0  0  0  0  0  0  0  0  0  0  0
   -3.4825   -0.9318    0.0000 H   0  0  0  0  0  0  0  0  0  0  0  0
   -4.0175   -0.0052    0.0000 H   0  0  0  0  0  0  0  0  0  0  0  0
    1.9391    1.4153    0.0000 H   0  0  0  0  0  0  0  0  0  0  0  0
    3.3680   -0.3797    0.0000 H   0  0  0  0  0  0  0  0  0  0  0  0
    4.0825   -1.6172    0.0000 H   0  0  0  0  0  0  0  0  0  0  0  0
   -1.5875    0.9214    0.0000 H   0  0  0  0  0  0  0  0  0  0  0  0
   -2.6575    0.9214    0.0000 H   0  0  0  0  0  0  0  0  0  0  0  0
  1  2  1  0  0  0  0
  1 13  1  0  0  0  0
  1 15  1  0  0  0  0
  1 17  1  1  0  0  0
  2  3  1  0  0  0  0
  2 10  1  0  0  0  0
  2 18  1  1  0  0  0
  3  4  1  0  0  0  0
  3 11  1  0  0  0  0
  3 19  1  6  0  0  0
  4  5  1  0  0  0  0
  4 12  1  0  0  0  0
  4 20  1  1  0  0  0
  5  6  1  0  0  0  0
  5 13  1  0  0  0  0
  5 21  1  6  0  0  0
  6 14  1  0  0  0  0
  6 22  1  0  0  0  0
  6 23  1  0  0  0  0
  7  8  1  0  0  0  0
  7 10  2  0  0  0  0
  7 15  1  0  0  0  0
  8 16  1  0  0  0  0
  8 24  1  0  0  0  0
  8 25  1  0  0  0  0
  9 16  1  0  0  0  0
  9 26  1  0  0  0  0
  9 27  1  0  0  0  0
  9 28  1  0  0  0  0
 11 29  1  0  0  0  0
 12 30  1  0  0  0  0
 14 31  1  0  0  0  0
 16 32  1  0  0  0  0
 16 33  1  0  0  0  0
M  END
>  <DRUGBANK_ID>
DB08255

>  <COMMON_NAME>
(3AR,5R,6S,7R,7AR)-5-(HYDROXYMETHYL)-2-PROPYL-5,6,7,7A-TETRAHYDRO-3AH-PYRANO[3,2-D][1,3]THIAZOLE-6,7-DIOL

$$$$
