
 OpenBabel10282417072D

 57 60  0  0  0  0  0  0  0  0999 V2000
   -2.4545   -0.3505    0.0000 C   0  0  0  0  0  0  0  0  0  0  0  0
   -2.4545   -1.1756    0.0000 C   0  0  0  0  0  0  0  0  0  0  0  0
   -1.7532   -1.5469    0.0000 C   0  0  0  0  0  0  0  0  0  0  0  0
   -1.0519   -1.1756    0.0000 C   0  0  0  0  0  0  0  0  0  0  0  0
   -1.0519   -0.3505    0.0000 C   0  0  2  0  0  0  0  0  0  0  0  0
   -1.7532    0.0619    0.0000 C   0  0  0  0  0  0  0  0  0  0  0  0
   -0.3506   -1.5469    0.0000 C   0  0  2  0  0  0  0  0  0  0  0  0
    0.3918   -1.1756    0.0000 C   0  0  0  0  0  0  0  0  0  0  0  0
    0.3918   -0.3505    0.0000 C   0  0  2  0  0  0  0  0  0  0  0  0
   -0.3506    0.0619    0.0000 C   0  0  2  0  0  0  0  0  0  0  0  0
    1.0932    0.0619    0.0000 C   0  0  1  0  0  0  0  0  0  0  0  0
    1.0932    0.8870    0.0000 C   0  0  2  0  0  0  0  0  0  0  0  0
    0.3918    1.2995    0.0000 C   0  0  0  0  0  0  0  0  0  0  0  0
   -0.3506    0.8870    0.0000 C   0  0  2  0  0  0  0  0  0  0  0  0
    1.8357   -0.1855    0.0000 C   0  0  0  0  0  0  0  0  0  0  0  0
    2.3308    0.4744    0.0000 C   0  0  2  0  0  0  0  0  0  0  0  0
    1.8357    1.1345    0.0000 C   0  0  2  0  0  0  0  0  0  0  0  0
   -3.1558   -1.5469    0.0000 O   0  0  0  0  0  0  0  0  0  0  0  0
   -1.0519    0.4744    0.0000 C   0  0  0  0  0  0  0  0  0  0  0  0
    0.3918    0.4744    0.0000 H   0  0  0  0  0  0  0  0  0  0  0  0
   -1.0519    1.2995    0.0000 O   0  0  0  0  0  0  0  0  0  0  0  0
    1.0932    1.7120    0.0000 C   0  0  0  0  0  0  0  0  0  0  0  0
   -0.3506   -0.7631    0.0000 F   0  0  0  0  0  0  0  0  0  0  0  0
    1.0932   -0.7631    0.0000 H   0  0  0  0  0  0  0  0  0  0  0  0
   -0.3506   -2.3720    0.0000 F   0  0  0  0  0  0  0  0  0  0  0  0
    3.1558    0.4744    0.0000 C   0  0  0  0  0  0  0  0  0  0  0  0
    1.8357    1.9595    0.0000 C   0  0  0  0  0  0  0  0  0  0  0  0
    1.1213    2.3721    0.0000 S   0  0  0  0  0  0  0  0  0  0  0  0
    2.5503    2.3721    0.0000 O   0  0  0  0  0  0  0  0  0  0  0  0
    2.5503    1.5470    0.0000 O   0  0  0  0  0  0  0  0  0  0  0  0
    0.4067    1.9595    0.0000 C   0  0  0  0  0  0  0  0  0  0  0  0
   -0.3077    2.3721    0.0000 F   0  0  0  0  0  0  0  0  0  0  0  0
   -3.3503    0.1619    0.0000 H   0  0  0  0  0  0  0  0  0  0  0  0
   -1.7532   -2.5789    0.0000 H   0  0  0  0  0  0  0  0  0  0  0  0
   -1.7532    1.0939    0.0000 H   0  0  0  0  0  0  0  0  0  0  0  0
   -1.2673   -2.0988    0.0000 H   0  0  0  0  0  0  0  0  0  0  0  0
    1.3020   -1.7381    0.0000 H   0  0  0  0  0  0  0  0  0  0  0  0
    1.3263   -0.6545    0.0000 H   0  0  0  0  0  0  0  0  0  0  0  0
    0.4049    2.3694    0.0000 H   0  0  0  0  0  0  0  0  0  0  0  0
   -0.5271    1.8477    0.0000 H   0  0  0  0  0  0  0  0  0  0  0  0
   -0.3375    1.9569    0.0000 H   0  0  0  0  0  0  0  0  0  0  0  0
    2.1547   -1.2068    0.0000 H   0  0  0  0  0  0  0  0  0  0  0  0
    2.8902   -0.3670    0.0000 H   0  0  0  0  0  0  0  0  0  0  0  0
    2.8092   -0.4827    0.0000 H   0  0  0  0  0  0  0  0  0  0  0  0
   -0.1253    1.0094    0.0000 H   0  0  0  0  0  0  0  0  0  0  0  0
   -1.9785    1.0094    0.0000 H   0  0  0  0  0  0  0  0  0  0  0  0
   -1.0519    1.5444    0.0000 H   0  0  0  0  0  0  0  0  0  0  0  0
   -1.0440    2.2695    0.0000 H   0  0  0  0  0  0  0  0  0  0  0  0
    2.0198    2.2470    0.0000 H   0  0  0  0  0  0  0  0  0  0  0  0
    0.1666    2.2470    0.0000 H   0  0  0  0  0  0  0  0  0  0  0  0
    1.0932    2.7820    0.0000 H   0  0  0  0  0  0  0  0  0  0  0  0
    3.6908   -0.4522    0.0000 H   0  0  0  0  0  0  0  0  0  0  0  0
    3.6908    1.4010    0.0000 H   0  0  0  0  0  0  0  0  0  0  0  0
    4.2258    0.4744    0.0000 H   0  0  0  0  0  0  0  0  0  0  0  0
    3.3903    1.0619    0.0000 H   0  0  0  0  0  0  0  0  0  0  0  0
    0.4066    0.8895    0.0000 H   0  0  0  0  0  0  0  0  0  0  0  0
   -0.5200    1.4246    0.0000 H   0  0  0  0  0  0  0  0  0  0  0  0
  1  2  1  0  0  0  0
  1  6  2  0  0  0  0
  1 33  1  0  0  0  0
  2  3  1  0  0  0  0
  2 18  2  0  0  0  0
  3  4  2  0  0  0  0
  3 34  1  0  0  0  0
  4  5  1  0  0  0  0
  4  7  1  0  0  0  0
  5  6  1  0  0  0  0
  5 10  1  0  0  0  0
  5 19  1  1  0  0  0
  6 35  1  0  0  0  0
  7  8  1  0  0  0  0
  7 25  1  0  0  0  0
  7 36  1  1  0  0  0
  8  9  1  0  0  0  0
  8 37  1  0  0  0  0
  8 38  1  0  0  0  0
  9 10  1  0  0  0  0
  9 11  1  0  0  0  0
  9 20  1  1  0  0  0
 10 14  1  0  0  0  0
 10 23  1  6  0  0  0
 11 12  1  0  0  0  0
 11 15  1  0  0  0  0
 11 24  1  6  0  0  0
 12 13  1  0  0  0  0
 12 17  1  0  0  0  0
 12 22  1  1  0  0  0
 13 14  1  0  0  0  0
 13 39  1  0  0  0  0
 13 40  1  0  0  0  0
 14 21  1  0  0  0  0
 14 41  1  6  0  0  0
 15 16  1  0  0  0  0
 15 42  1  0  0  0  0
 15 43  1  0  0  0  0
 16 17  1  0  0  0  0
 16 26  1  0  0  0  0
 16 44  1  1  0  0  0
 17 27  1  1  0  0  0
 17 30  1  0  0  0  0
 19 45  1  0  0  0  0
 19 46  1  0  0  0  0
 19 47  1  0  0  0  0
 21 48  1  0  0  0  0
 22 49  1  0  0  0  0
 22 50  1  0  0  0  0
 22 51  1  0  0  0  0
 26 52  1  0  0  0  0
 26 53  1  0  0  0  0
 26 54  1  0  0  0  0
 27 28  1  0  0  0  0
 27 29  2  0  0  0  0
 28 31  1  0  0  0  0
 30 55  1  0  0  0  0
 31 32  1  0  0  0  0
 31 56  1  0  0  0  0
 31 57  1  0  0  0  0
M  END
>  <DRUGBANK_ID>
DB13867

>  <COMMON_NAME>
Fluticasone

>  <CAS_NUMBER>
90566-53-3

>  <UNII>
CUT2W21N7U

>  <SYNONYMS>
Fluticason; Fluticasona; Fluticasone; Fluticasonum

$$$$
