
 OpenBabel10282417072D

209223  0  0  0  0  0  0  0  0999 V2000
   -0.3218   -0.0528    0.0000 Co  0  7  0  0  0  0  0  0  0  0  0  0
   -1.0291   -1.7548    0.0000 C   0  0  0  0  0  0  0  0  0  0  0  0
   -1.1410   -0.9514    0.0000 N   0  0  0  0  0  0  0  0  0  0  0  0
   -1.1410    0.7467    0.0000 N   0  3  0  0  0  0  0  0  0  0  0  0
   -1.0291    1.5502    0.0000 C   0  0  0  0  0  0  0  0  0  0  0  0
   -1.7415    1.9269    0.0000 C   0  0  2  0  0  0  0  0  0  0  0  0
    0.4120    1.5502    0.0000 C   0  0  0  0  0  0  0  0  0  0  0  0
    0.5363    0.7467    0.0000 N   0  3  0  0  0  0  0  0  0  0  0  0
    1.3605    0.5976    0.0000 C   0  0  0  0  0  0  0  0  0  0  0  0
    1.7746   -0.1024    0.0000 C   0  0  0  0  0  0  0  0  0  0  0  0
    1.3605   -0.8064    0.0000 C   0  0  0  0  0  0  0  0  0  0  0  0
    0.5363   -0.9514    0.0000 N   0  3  0  0  0  0  0  0  0  0  0  0
    0.4120   -1.7548    0.0000 C   0  0  0  0  0  0  0  0  0  0  0  0
    1.1493   -2.1358    0.0000 C   0  0  1  0  0  0  0  0  0  0  0  0
    1.2716   -2.9518    0.0000 C   0  0  0  0  0  0  0  0  0  0  0  0
    2.0394   -3.2536    0.0000 C   0  0  0  0  0  0  0  0  0  0  0  0
    2.1618   -4.0695    0.0000 C   0  0  0  0  0  0  0  0  0  0  0  0
    1.7415   -1.5561    0.0000 C   0  0  0  0  0  0  0  0  0  0  0  0
    2.3797   -2.0789    0.0000 C   0  0  0  0  0  0  0  0  0  0  0  0
    2.5134   -1.2648    0.0000 C   0  0  0  0  0  0  0  0  0  0  0  0
    1.9001    2.2689    0.0000 C   0  0  0  0  0  0  0  0  0  0  0  0
   -0.2919    1.9600    0.0000 C   0  0  0  0  0  0  0  0  0  0  0  0
   -0.2919    2.7850    0.0000 C   0  0  0  0  0  0  0  0  0  0  0  0
   -0.2919   -2.1690    0.0000 C   0  0  0  0  0  0  0  0  0  0  0  0
   -0.2919   -2.9940    0.0000 C   0  0  0  0  0  0  0  0  0  0  0  0
   -1.9527   -0.8064    0.0000 C   0  0  1  0  0  0  0  0  0  0  0  0
   -2.7496   -0.5929    0.0000 H   0  0  0  0  0  0  0  0  0  0  0  0
   -1.9527    0.6224    0.0000 C   0  0  2  0  0  0  0  0  0  0  0  0
   -2.7496    0.4089    0.0000 C   0  0  0  0  0  0  0  0  0  0  0  0
   -1.7415   -2.9608    0.0000 C   0  0  0  0  0  0  0  0  0  0  0  0
    1.7415    1.3471    0.0000 C   0  0  1  0  0  0  0  0  0  0  0  0
    2.4560    1.7597    0.0000 C   0  0  0  0  0  0  0  0  0  0  0  0
    3.1704    1.3471    0.0000 C   0  0  0  0  0  0  0  0  0  0  0  0
    3.8849    1.7597    0.0000 C   0  0  0  0  0  0  0  0  0  0  0  0
    3.8849    2.5847    0.0000 O   0  0  0  0  0  0  0  0  0  0  0  0
    4.5994    1.3471    0.0000 N   0  0  0  0  0  0  0  0  0  0  0  0
    1.1493    2.7519    0.0000 C   0  0  0  0  0  0  0  0  0  0  0  0
    1.8638    3.1645    0.0000 C   0  0  0  0  0  0  0  0  0  0  0  0
    1.8638    3.9895    0.0000 O   0  0  0  0  0  0  0  0  0  0  0  0
    2.5782    2.7519    0.0000 N   0  0  0  0  0  0  0  0  0  0  0  0
    1.1493    1.9269    0.0000 C   0  0  2  0  0  0  0  0  0  0  0  0
   -3.0482    0.9347    0.0000 C   0  0  0  0  0  0  0  0  0  0  0  0
   -3.7626    1.3471    0.0000 C   0  0  0  0  0  0  0  0  0  0  0  0
   -3.7626    2.1722    0.0000 O   0  0  0  0  0  0  0  0  0  0  0  0
   -4.4771    0.9347    0.0000 N   0  0  0  0  0  0  0  0  0  0  0  0
   -2.3337   -1.5561    0.0000 C   0  0  2  0  0  0  0  0  0  0  0  0
   -3.0482   -1.9685    0.0000 C   0  0  0  0  0  0  0  0  0  0  0  0
   -3.7626   -1.5561    0.0000 C   0  0  0  0  0  0  0  0  0  0  0  0
   -3.7626   -0.7310    0.0000 O   0  0  0  0  0  0  0  0  0  0  0  0
   -4.4771   -1.9685    0.0000 N   0  0  0  0  0  0  0  0  0  0  0  0
    1.6816   -6.5338    0.0000 C   0  0  0  0  0  0  0  0  0  0  0  0
    0.6016   -5.7491    0.0000 C   0  0  0  0  0  0  0  0  0  0  0  0
    1.0141   -7.0187    0.0000 C   0  0  0  0  0  0  0  0  0  0  0  0
    1.4266   -5.7491    0.0000 N   0  3  0  0  0  0  0  0  0  0  0  0
    0.3466   -6.5338    0.0000 N   0  0  0  0  0  0  0  0  0  0  0  0
   -0.4379   -6.7887    0.0000 C   0  0  1  0  0  0  0  0  0  0  0  0
   -0.6928   -7.5734    0.0000 O   0  0  0  0  0  0  0  0  0  0  0  0
   -1.5178   -7.5734    0.0000 C   0  0  2  0  0  0  0  0  0  0  0  0
   -2.0027   -8.2409    0.0000 C   0  0  0  0  0  0  0  0  0  0  0  0
   -1.6672   -8.9945    0.0000 O   0  0  0  0  0  0  0  0  0  0  0  0
   -1.1053   -6.3038    0.0000 C   0  0  2  0  0  0  0  0  0  0  0  0
   -1.1053   -5.4788    0.0000 O   0  0  0  0  0  0  0  0  0  0  0  0
   -1.7728   -6.7887    0.0000 C   0  0  2  0  0  0  0  0  0  0  0  0
   -2.5574   -6.5338    0.0000 O   0  0  0  0  0  0  0  0  0  0  0  0
   -2.4560   -3.3734    0.0000 C   0  0  0  0  0  0  0  0  0  0  0  0
   -3.1704   -3.7859    0.0000 C   0  0  0  0  0  0  0  0  0  0  0  0
   -3.8849   -3.3734    0.0000 O   0  0  0  0  0  0  0  0  0  0  0  0
   -3.1704   -4.6109    0.0000 N   0  0  0  0  0  0  0  0  0  0  0  0
   -3.8849   -5.0233    0.0000 C   0  0  0  0  0  0  0  0  0  0  0  0
   -2.4560   -2.5484    0.0000 C   0  0  0  0  0  0  0  0  0  0  0  0
   -1.7415   -2.1358    0.0000 C   0  0  1  0  0  0  0  0  0  0  0  0
   -3.8849   -5.8483    0.0000 C   0  0  2  0  0  0  0  0  0  0  0  0
   -3.1705   -6.2609    0.0000 O   0  0  0  0  0  0  0  0  0  0  0  0
   -4.5994   -6.2609    0.0000 C   0  0  0  0  0  0  0  0  0  0  0  0
   -3.9955   -7.0859    0.0000 O   0  0  0  0  0  0  0  0  0  0  0  0
   -3.1705   -7.0859    0.0000 P   0  0  3  0  0  0  0  0  0  0  0  0
   -2.7580   -7.8004    0.0000 O   0  5  0  0  0  0  0  0  0  0  0  0
    1.5163   -4.5834    0.0000 O   0  0  0  0  0  0  0  0  0  0  0  0
    2.9294   -4.3716    0.0000 N   0  0  0  0  0  0  0  0  0  0  0  0
   -2.3337    1.3471    0.0000 C   0  0  1  0  0  0  0  0  0  0  0  0
   -2.5472    2.1440    0.0000 C   0  0  0  0  0  0  0  0  0  0  0  0
    1.1003   -7.8392    0.0000 C   0  0  0  0  0  0  0  0  0  0  0  0
    2.5214   -7.6899    0.0000 C   0  0  0  0  0  0  0  0  0  0  0  0
   -1.8599    2.7434    0.0000 C   0  0  0  0  0  0  0  0  0  0  0  0
   -2.6261    3.0492    0.0000 C   0  0  0  0  0  0  0  0  0  0  0  0
   -2.7446    3.8657    0.0000 C   0  0  0  0  0  0  0  0  0  0  0  0
   -3.5109    4.1713    0.0000 O   0  0  0  0  0  0  0  0  0  0  0  0
   -2.0967    4.3765    0.0000 N   0  0  0  0  0  0  0  0  0  0  0  0
   -1.2629    3.7237    0.0000 C   0  0  0  0  0  0  0  0  0  0  0  0
    0.0496    8.9953    0.0000 N   0  0  0  0  0  0  0  0  0  0  0  0
   -0.3628    8.2808    0.0000 C   0  0  0  0  0  0  0  0  0  0  0  0
   -1.1878    8.2808    0.0000 N   0  0  0  0  0  0  0  0  0  0  0  0
   -1.6003    7.5663    0.0000 C   0  0  0  0  0  0  0  0  0  0  0  0
   -1.1878    6.8519    0.0000 N   0  0  0  0  0  0  0  0  0  0  0  0
   -0.3628    6.8519    0.0000 C   0  0  0  0  0  0  0  0  0  0  0  0
    0.0496    7.5664    0.0000 C   0  0  0  0  0  0  0  0  0  0  0  0
    0.8564    7.3948    0.0000 N   0  0  0  0  0  0  0  0  0  0  0  0
    0.9427    6.5743    0.0000 C   0  0  0  0  0  0  0  0  0  0  0  0
    0.1891    6.2388    0.0000 N   0  0  0  0  0  0  0  0  0  0  0  0
    0.0176    5.4318    0.0000 C   0  0  2  0  0  0  0  0  0  0  0  0
   -0.7360    5.0961    0.0000 O   0  0  0  0  0  0  0  0  0  0  0  0
   -0.6498    4.2756    0.0000 C   0  0  1  0  0  0  0  0  0  0  0  0
    0.1571    4.1042    0.0000 C   0  0  1  0  0  0  0  0  0  0  0  0
    0.4927    3.3505    0.0000 O   0  0  0  0  0  0  0  0  0  0  0  0
    0.5696    4.8187    0.0000 C   0  0  1  0  0  0  0  0  0  0  0  0
    1.3900    4.9049    0.0000 O   0  0  0  0  0  0  0  0  0  0  0  0
    1.8541   -8.1748    0.0000 C   0  0  0  0  0  0  0  0  0  0  0  0
    2.4352   -6.8694    0.0000 C   0  0  0  0  0  0  0  0  0  0  0  0
    1.9403   -8.9953    0.0000 C   0  0  0  0  0  0  0  0  0  0  0  0
    3.2750   -8.0255    0.0000 C   0  0  0  0  0  0  0  0  0  0  0  0
   -0.8671    2.5435    0.0000 H   0  0  0  0  0  0  0  0  0  0  0  0
    2.8066   -0.1011    0.0000 H   0  0  0  0  0  0  0  0  0  0  0  0
    0.2793   -2.7586    0.0000 H   0  0  0  0  0  0  0  0  0  0  0  0
    0.4346   -3.6184    0.0000 H   0  0  0  0  0  0  0  0  0  0  0  0
    1.4304   -4.0099    0.0000 H   0  0  0  0  0  0  0  0  0  0  0  0
    2.8764   -2.5870    0.0000 H   0  0  0  0  0  0  0  0  0  0  0  0
    3.0352   -3.6452    0.0000 H   0  0  0  0  0  0  0  0  0  0  0  0
    2.2063   -3.1348    0.0000 H   0  0  0  0  0  0  0  0  0  0  0  0
    3.3808   -1.7011    0.0000 H   0  0  0  0  0  0  0  0  0  0  0  0
    3.2074   -2.7570    0.0000 H   0  0  0  0  0  0  0  0  0  0  0  0
    3.3411   -1.9429    0.0000 H   0  0  0  0  0  0  0  0  0  0  0  0
    2.6868   -0.2089    0.0000 H   0  0  0  0  0  0  0  0  0  0  0  0
    3.5145   -0.8870    0.0000 H   0  0  0  0  0  0  0  0  0  0  0  0
    2.7711    1.6474    0.0000 H   0  0  0  0  0  0  0  0  0  0  0  0
    2.0028    3.3340    0.0000 H   0  0  0  0  0  0  0  0  0  0  0  0
    2.8738    2.7125    0.0000 H   0  0  0  0  0  0  0  0  0  0  0  0
    0.6347    3.3200    0.0000 H   0  0  0  0  0  0  0  0  0  0  0  0
   -1.2185    3.3200    0.0000 H   0  0  0  0  0  0  0  0  0  0  0  0
   -0.2919    3.8550    0.0000 H   0  0  0  0  0  0  0  0  0  0  0  0
   -1.2185   -3.5290    0.0000 H   0  0  0  0  0  0  0  0  0  0  0  0
    0.6347   -3.5290    0.0000 H   0  0  0  0  0  0  0  0  0  0  0  0
   -0.2919   -4.0640    0.0000 H   0  0  0  0  0  0  0  0  0  0  0  0
   -3.5062    1.1655    0.0000 H   0  0  0  0  0  0  0  0  0  0  0  0
   -3.0266   -0.6246    0.0000 H   0  0  0  0  0  0  0  0  0  0  0  0
   -3.7831    0.1320    0.0000 H   0  0  0  0  0  0  0  0  0  0  0  0
   -2.6681   -3.4958    0.0000 H   0  0  0  0  0  0  0  0  0  0  0  0
   -0.8149   -3.4958    0.0000 H   0  0  0  0  0  0  0  0  0  0  0  0
   -1.7415   -4.0308    0.0000 H   0  0  0  0  0  0  0  0  0  0  0  0
    2.5180    0.6110    0.0000 H   0  0  0  0  0  0  0  0  0  0  0  0
    2.4560    2.8297    0.0000 H   0  0  0  0  0  0  0  0  0  0  0  0
    3.3827    2.2946    0.0000 H   0  0  0  0  0  0  0  0  0  0  0  0
    3.1704    0.2771    0.0000 H   0  0  0  0  0  0  0  0  0  0  0  0
    4.0971    0.8121    0.0000 H   0  0  0  0  0  0  0  0  0  0  0  0
    4.5993    0.3626    0.0000 H   0  0  0  0  0  0  0  0  0  0  0  0
    5.4520    1.8393    0.0000 H   0  0  0  0  0  0  0  0  0  0  0  0
    0.2226    3.2869    0.0000 H   0  0  0  0  0  0  0  0  0  0  0  0
    0.2227    2.2169    0.0000 H   0  0  0  0  0  0  0  0  0  0  0  0
    2.5781    1.7674    0.0000 H   0  0  0  0  0  0  0  0  0  0  0  0
    3.4309    3.2440    0.0000 H   0  0  0  0  0  0  0  0  0  0  0  0
   -3.0482   -0.1353    0.0000 H   0  0  0  0  0  0  0  0  0  0  0  0
   -3.9748    0.3997    0.0000 H   0  0  0  0  0  0  0  0  0  0  0  0
   -5.3296    1.4271    0.0000 H   0  0  0  0  0  0  0  0  0  0  0  0
   -4.4772   -0.0498    0.0000 H   0  0  0  0  0  0  0  0  0  0  0  0
   -3.1102   -0.8199    0.0000 H   0  0  0  0  0  0  0  0  0  0  0  0
   -3.0482   -3.0385    0.0000 H   0  0  0  0  0  0  0  0  0  0  0  0
   -3.9748   -2.5035    0.0000 H   0  0  0  0  0  0  0  0  0  0  0  0
   -5.3296   -1.4761    0.0000 H   0  0  0  0  0  0  0  0  0  0  0  0
   -4.4772   -2.9530    0.0000 H   0  0  0  0  0  0  0  0  0  0  0  0
   -0.0050   -4.9142    0.0000 H   0  0  0  0  0  0  0  0  0  0  0  0
   -0.2705   -5.7319    0.0000 H   0  0  0  0  0  0  0  0  0  0  0  0
   -1.0320   -8.5268    0.0000 H   0  0  0  0  0  0  0  0  0  0  0  0
   -3.0668   -8.1291    0.0000 H   0  0  0  0  0  0  0  0  0  0  0  0
   -2.6316   -9.1065    0.0000 H   0  0  0  0  0  0  0  0  0  0  0  0
   -2.2374   -9.7792    0.0000 H   0  0  0  0  0  0  0  0  0  0  0  0
   -0.1519   -5.8180    0.0000 H   0  0  0  0  0  0  0  0  0  0  0  0
   -0.2653   -4.9938    0.0000 H   0  0  0  0  0  0  0  0  0  0  0  0
   -2.5294   -7.5453    0.0000 H   0  0  0  0  0  0  0  0  0  0  0  0
   -1.5293   -3.9084    0.0000 H   0  0  0  0  0  0  0  0  0  0  0  0
   -2.4560   -4.4434    0.0000 H   0  0  0  0  0  0  0  0  0  0  0  0
   -2.3178   -5.1032    0.0000 H   0  0  0  0  0  0  0  0  0  0  0  0
   -4.8115   -4.4882    0.0000 H   0  0  0  0  0  0  0  0  0  0  0  0
   -4.8116   -5.5583    0.0000 H   0  0  0  0  0  0  0  0  0  0  0  0
   -3.3827   -2.0134    0.0000 H   0  0  0  0  0  0  0  0  0  0  0  0
   -2.4561   -1.4784    0.0000 H   0  0  0  0  0  0  0  0  0  0  0  0
   -4.8116   -5.3133    0.0000 H   0  0  0  0  0  0  0  0  0  0  0  0
   -5.5261   -5.7260    0.0000 H   0  0  0  0  0  0  0  0  0  0  0  0
   -4.5993   -7.3309    0.0000 H   0  0  0  0  0  0  0  0  0  0  0  0
   -5.5260   -6.7960    0.0000 H   0  0  0  0  0  0  0  0  0  0  0  0
    3.0752   -5.3452    0.0000 H   0  0  0  0  0  0  0  0  0  0  0  0
    3.6997   -3.7585    0.0000 H   0  0  0  0  0  0  0  0  0  0  0  0
   -1.7906    2.9006    0.0000 H   0  0  0  0  0  0  0  0  0  0  0  0
   -3.5807    2.4210    0.0000 H   0  0  0  0  0  0  0  0  0  0  0  0
   -2.8241    3.1775    0.0000 H   0  0  0  0  0  0  0  0  0  0  0  0
    0.2654   -8.4458    0.0000 H   0  0  0  0  0  0  0  0  0  0  0  0
   -1.0196    3.4058    0.0000 H   0  0  0  0  0  0  0  0  0  0  0  0
   -2.0133    3.8023    0.0000 H   0  0  0  0  0  0  0  0  0  0  0  0
   -3.4664    2.3868    0.0000 H   0  0  0  0  0  0  0  0  0  0  0  0
   -3.6200    3.4456    0.0000 H   0  0  0  0  0  0  0  0  0  0  0  0
   -1.1823    4.0117    0.0000 H   0  0  0  0  0  0  0  0  0  0  0  0
   -2.2380    5.3508    0.0000 H   0  0  0  0  0  0  0  0  0  0  0  0
   -2.2861    4.0367    0.0000 H   0  0  0  0  0  0  0  0  0  0  0  0
   -1.4944    4.7684    0.0000 H   0  0  0  0  0  0  0  0  0  0  0  0
    1.0341    8.9954    0.0000 H   0  0  0  0  0  0  0  0  0  0  0  0
   -0.4428    9.8478    0.0000 H   0  0  0  0  0  0  0  0  0  0  0  0
   -2.6323    7.5663    0.0000 H   0  0  0  0  0  0  0  0  0  0  0  0
    1.8365    6.0583    0.0000 H   0  0  0  0  0  0  0  0  0  0  0  0
   -0.8140    6.1051    0.0000 H   0  0  0  0  0  0  0  0  0  0  0  0
   -1.6487    4.6591    0.0000 H   0  0  0  0  0  0  0  0  0  0  0  0
   -0.5162    3.2726    0.0000 H   0  0  0  0  0  0  0  0  0  0  0  0
   -0.0774    2.5657    0.0000 H   0  0  0  0  0  0  0  0  0  0  0  0
    0.9531    5.8176    0.0000 H   0  0  0  0  0  0  0  0  0  0  0  0
    1.9601    4.1201    0.0000 H   0  0  0  0  0  0  0  0  0  0  0  0
    3.2701   -6.2629    0.0000 H   0  0  0  0  0  0  0  0  0  0  0  0
    1.0746   -9.6242    0.0000 H   0  0  0  0  0  0  0  0  0  0  0  0
    2.9178   -9.4306    0.0000 H   0  0  0  0  0  0  0  0  0  0  0  0
    2.0521  -10.0594    0.0000 H   0  0  0  0  0  0  0  0  0  0  0  0
    3.3868   -9.0896    0.0000 H   0  0  0  0  0  0  0  0  0  0  0  0
    4.1407   -7.3966    0.0000 H   0  0  0  0  0  0  0  0  0  0  0  0
    4.2525   -8.4608    0.0000 H   0  0  0  0  0  0  0  0  0  0  0  0
  2  3  1  0  0  0  0
  3  1  1  0  0  0  0
  4  5  2  0  0  0  0
  4  1  1  0  0  0  0
  5 22  1  0  0  0  0
  6  5  1  0  0  0  0
  6 84  1  0  0  0  0
  6111  1  1  0  0  0
  7  8  1  0  0  0  0
  8  9  2  0  0  0  0
  8  1  1  0  0  0  0
  9 10  1  0  0  0  0
 10 11  2  0  0  0  0
 10112  1  0  0  0  0
 11 12  1  0  0  0  0
 11 18  1  0  0  0  0
 12 13  2  0  0  0  0
 12  1  1  0  0  0  0
 13 14  1  0  0  0  0
 14 15  1  0  0  0  0
 14 18  1  0  0  0  0
 14113  1  1  0  0  0
 15 16  1  0  0  0  0
 15114  1  0  0  0  0
 15115  1  0  0  0  0
 16 17  1  0  0  0  0
 16116  1  0  0  0  0
 16117  1  0  0  0  0
 17 78  2  0  0  0  0
 17 79  1  0  0  0  0
 18 19  1  0  0  0  0
 18 20  1  0  0  0  0
 19118  1  0  0  0  0
 19119  1  0  0  0  0
 19120  1  0  0  0  0
 20121  1  0  0  0  0
 20122  1  0  0  0  0
 20123  1  0  0  0  0
 21124  1  0  0  0  0
 21125  1  0  0  0  0
 21126  1  0  0  0  0
 22  7  2  0  0  0  0
 22 23  1  0  0  0  0
 23127  1  0  0  0  0
 23128  1  0  0  0  0
 23129  1  0  0  0  0
 24  2  2  0  0  0  0
 24 13  1  0  0  0  0
 24 25  1  0  0  0  0
 25130  1  0  0  0  0
 25131  1  0  0  0  0
 25132  1  0  0  0  0
 26  3  1  0  0  0  0
 26 46  1  0  0  0  0
 26 28  1  0  0  0  0
 26 27  1  1  0  0  0
 28  4  1  0  0  0  0
 28 80  1  0  0  0  0
 28 29  1  6  0  0  0
 29133  1  0  0  0  0
 29134  1  0  0  0  0
 29135  1  0  0  0  0
 30136  1  0  0  0  0
 30137  1  0  0  0  0
 30138  1  0  0  0  0
 31  9  1  0  0  0  0
 31 41  1  0  0  0  0
 31 32  1  0  0  0  0
 31139  1  1  0  0  0
 32 33  1  0  0  0  0
 32140  1  0  0  0  0
 32141  1  0  0  0  0
 33 34  1  0  0  0  0
 33142  1  0  0  0  0
 33143  1  0  0  0  0
 34 35  2  0  0  0  0
 34 36  1  0  0  0  0
 36144  1  0  0  0  0
 36145  1  0  0  0  0
 37 38  1  0  0  0  0
 37146  1  0  0  0  0
 37147  1  0  0  0  0
 38 40  1  0  0  0  0
 38 39  2  0  0  0  0
 40148  1  0  0  0  0
 40149  1  0  0  0  0
 41  7  1  0  0  0  0
 41 21  1  6  0  0  0
 41 37  1  0  0  0  0
 42 43  1  0  0  0  0
 42150  1  0  0  0  0
 42151  1  0  0  0  0
 43 44  2  0  0  0  0
 43 45  1  0  0  0  0
 45152  1  0  0  0  0
 45153  1  0  0  0  0
 46 71  1  0  0  0  0
 46 47  1  0  0  0  0
 46154  1  6  0  0  0
 47 48  1  0  0  0  0
 47155  1  0  0  0  0
 47156  1  0  0  0  0
 48 49  2  0  0  0  0
 48 50  1  0  0  0  0
 50157  1  0  0  0  0
 50158  1  0  0  0  0
 51 54  1  0  0  0  0
 51 53  1  0  0  0  0
 52 55  1  0  0  0  0
 52 54  2  0  0  0  0
 52159  1  0  0  0  0
 53 82  2  0  0  0  0
 54  1  1  0  0  0  0
 55 53  1  0  0  0  0
 56 55  1  0  0  0  0
 56 61  1  0  0  0  0
 56 57  1  0  0  0  0
 56160  1  6  0  0  0
 58 57  1  0  0  0  0
 58 59  1  0  0  0  0
 58161  1  1  0  0  0
 59 60  1  0  0  0  0
 59162  1  0  0  0  0
 59163  1  0  0  0  0
 60164  1  0  0  0  0
 61 63  1  0  0  0  0
 61 62  1  0  0  0  0
 61165  1  6  0  0  0
 62166  1  0  0  0  0
 63 58  1  0  0  0  0
 63 64  1  0  0  0  0
 63167  1  6  0  0  0
 65 66  1  0  0  0  0
 65168  1  0  0  0  0
 65169  1  0  0  0  0
 66 67  2  0  0  0  0
 66 68  1  0  0  0  0
 68170  1  0  0  0  0
 69 68  1  0  0  0  0
 69171  1  0  0  0  0
 69172  1  0  0  0  0
 70 65  1  0  0  0  0
 70173  1  0  0  0  0
 70174  1  0  0  0  0
 71  2  1  0  0  0  0
 71 30  1  1  0  0  0
 71 70  1  0  0  0  0
 72 69  1  0  0  0  0
 72 73  1  0  0  0  0
 72 74  1  0  0  0  0
 72175  1  1  0  0  0
 74176  1  0  0  0  0
 74177  1  0  0  0  0
 74178  1  0  0  0  0
 76 64  1  0  0  0  0
 76 73  1  0  0  0  0
 76 75  2  0  0  0  0
 76 77  1  0  0  0  0
 79179  1  0  0  0  0
 79180  1  0  0  0  0
 80  6  1  0  0  0  0
 80 42  1  1  0  0  0
 80 81  1  0  0  0  0
 81181  1  0  0  0  0
 81182  1  0  0  0  0
 81183  1  0  0  0  0
 82107  1  0  0  0  0
 82184  1  0  0  0  0
 83110  1  0  0  0  0
 84 85  1  0  0  0  0
 84185  1  0  0  0  0
 84186  1  0  0  0  0
 85 86  1  0  0  0  0
 85187  1  0  0  0  0
 85188  1  0  0  0  0
 86 88  1  0  0  0  0
 86 87  2  0  0  0  0
 88189  1  0  0  0  0
 88190  1  0  0  0  0
 89  1  1  0  0  0  0
 89191  1  0  0  0  0
 89192  1  0  0  0  0
 90 91  1  0  0  0  0
 90193  1  0  0  0  0
 90194  1  0  0  0  0
 91 92  2  0  0  0  0
 91 96  1  0  0  0  0
 92 93  1  0  0  0  0
 93 94  2  0  0  0  0
 93195  1  0  0  0  0
 94 95  1  0  0  0  0
 95 96  2  0  0  0  0
 95 99  1  0  0  0  0
 96 97  1  0  0  0  0
 97 98  2  0  0  0  0
 98 99  1  0  0  0  0
 98196  1  0  0  0  0
100 99  1  0  0  0  0
100101  1  0  0  0  0
100105  1  0  0  0  0
100197  1  6  0  0  0
101102  1  0  0  0  0
102 89  1  0  0  0  0
102103  1  0  0  0  0
102198  1  6  0  0  0
103104  1  0  0  0  0
103105  1  0  0  0  0
103199  1  1  0  0  0
104200  1  0  0  0  0
105106  1  0  0  0  0
105201  1  1  0  0  0
106202  1  0  0  0  0
107 83  2  0  0  0  0
107109  1  0  0  0  0
108 51  2  0  0  0  0
108 83  1  0  0  0  0
108203  1  0  0  0  0
109204  1  0  0  0  0
109205  1  0  0  0  0
109206  1  0  0  0  0
110207  1  0  0  0  0
110208  1  0  0  0  0
110209  1  0  0  0  0
M  CHG  6   1  -3   4   1   8   1  12   1  54   1  77  -1
M  END
>  <DRUGBANK_ID>
DB11191

>  <COMMON_NAME>
Cobamamide

>  <CAS_NUMBER>
13870-90-1

>  <UNII>
F0R1QK73KB

>  <SYNONYMS>
(5,6-Dimethylbenzimidazolyl)cobamide coenzyme; 5'-Deoxy-5'-adenosylcobalamin; Adenosylcob(III)alamin; Adenosylcobalamin; cobamamida; Cobamamide; cobamamidum; Cobanamida; Coenzyme B-12; Coenzyme B12; Vitamin B12 coenzyme

$$$$
