
 OpenBabel10282417072D

 62 66  0  0  0  0  0  0  0  0999 V2000
   -1.2566    1.6199    0.0000 P   0  0  3  0  0  0  0  0  0  0  0  0
   -1.7886   -1.2288    0.0000 O   0  0  0  0  0  0  0  0  0  0  0  0
   -0.4120    4.2356    0.0000 O   0  0  0  0  0  0  0  0  0  0  0  0
   -1.5102    2.4049    0.0000 O   0  0  0  0  0  0  0  0  0  0  0  0
   -1.0030    0.8348    0.0000 O   0  0  0  0  0  0  0  0  0  0  0  0
    0.1498   -0.3347    0.0000 O   0  0  0  0  0  0  0  0  0  0  0  0
   -1.9651    4.9818    0.0000 O   0  0  0  0  0  0  0  0  0  0  0  0
   -0.4715    1.8735    0.0000 O   0  0  0  0  0  0  0  0  0  0  0  0
   -2.0416    1.3664    0.0000 O   0  0  0  0  0  0  0  0  0  0  0  0
    0.7126    5.2508    0.0000 O   0  0  0  0  0  0  0  0  0  0  0  0
   -1.5611   -2.6812    0.0000 N   0  0  0  0  0  0  0  0  0  0  0  0
    1.0073    3.8526    0.0000 N   0  0  0  0  0  0  0  0  0  0  0  0
   -1.5611   -4.0090    0.0000 N   0  0  0  0  0  0  0  0  0  0  0  0
   -3.0562   -2.5201    0.0000 N   0  0  0  0  0  0  0  0  0  0  0  0
    2.0708    4.8069    0.0000 N   0  0  0  0  0  0  0  0  0  0  0  0
   -3.7706   -3.7576    0.0000 N   0  0  0  0  0  0  0  0  0  0  0  0
   -3.0562   -4.9951    0.0000 N   0  0  0  0  0  0  0  0  0  0  0  0
    3.4290    4.3630    0.0000 N   0  0  0  0  0  0  0  0  0  0  0  0
   -0.9570    3.0171    0.0000 C   0  0  2  0  0  0  0  0  0  0  0  0
   -1.3025   -0.5622    0.0000 C   0  0  1  0  0  0  0  0  0  0  0  0
   -0.5183   -0.8185    0.0000 C   0  0  2  0  0  0  0  0  0  0  0  0
   -1.1272    3.8243    0.0000 C   0  0  1  0  0  0  0  0  0  0  0  0
   -0.1367    2.9294    0.0000 C   0  0  0  0  0  0  0  0  0  0  0  0
   -0.5198   -1.6435    0.0000 C   0  0  0  0  0  0  0  0  0  0  0  0
   -1.3048   -1.8971    0.0000 C   0  0  1  0  0  0  0  0  0  0  0  0
    0.2000    3.6825    0.0000 C   0  0  1  0  0  0  0  0  0  0  0  0
   -1.5560    0.2227    0.0000 C   0  0  0  0  0  0  0  0  0  0  0  0
   -1.8803    4.1612    0.0000 C   0  0  0  0  0  0  0  0  0  0  0  0
   -2.3417   -2.9326    0.0000 C   0  0  0  0  0  0  0  0  0  0  0  0
   -1.0796   -3.3451    0.0000 C   0  0  0  0  0  0  0  0  0  0  0  0
    1.5583    3.2386    0.0000 C   0  0  0  0  0  0  0  0  0  0  0  0
    1.2636    4.6368    0.0000 C   0  0  0  0  0  0  0  0  0  0  0  0
   -2.3417   -3.7576    0.0000 C   0  0  0  0  0  0  0  0  0  0  0  0
    2.3655    3.4087    0.0000 C   0  0  0  0  0  0  0  0  0  0  0  0
   -3.0562   -4.1701    0.0000 C   0  0  0  0  0  0  0  0  0  0  0  0
    2.6218    4.1929    0.0000 C   0  0  0  0  0  0  0  0  0  0  0  0
   -3.7706   -2.9326    0.0000 C   0  0  0  0  0  0  0  0  0  0  0  0
   -2.6132   -5.2508    0.0000 H   0  0  0  0  0  0  0  0  0  0  0  0
   -3.4991   -5.2508    0.0000 H   0  0  0  0  0  0  0  0  0  0  0  0
    3.7706    3.9823    0.0000 H   0  0  0  0  0  0  0  0  0  0  0  0
    3.5879    4.8492    0.0000 H   0  0  0  0  0  0  0  0  0  0  0  0
    1.0353   -0.7306    0.0000 H   0  0  0  0  0  0  0  0  0  0  0  0
   -1.1794    5.5506    0.0000 H   0  0  0  0  0  0  0  0  0  0  0  0
    0.2482    1.2232    0.0000 H   0  0  0  0  0  0  0  0  0  0  0  0
   -1.9901    3.2958    0.0000 H   0  0  0  0  0  0  0  0  0  0  0  0
   -2.3590   -0.3930    0.0000 H   0  0  0  0  0  0  0  0  0  0  0  0
   -0.6839    0.2386    0.0000 H   0  0  0  0  0  0  0  0  0  0  0  0
   -1.1813    4.8929    0.0000 H   0  0  0  0  0  0  0  0  0  0  0  0
    0.3968    2.0019    0.0000 H   0  0  0  0  0  0  0  0  0  0  0  0
    0.9319    2.9837    0.0000 H   0  0  0  0  0  0  0  0  0  0  0  0
    0.3447   -2.2739    0.0000 H   0  0  0  0  0  0  0  0  0  0  0  0
   -0.6890   -2.7000    0.0000 H   0  0  0  0  0  0  0  0  0  0  0  0
   -2.3619   -2.0626    0.0000 H   0  0  0  0  0  0  0  0  0  0  0  0
    0.4788    4.7155    0.0000 H   0  0  0  0  0  0  0  0  0  0  0  0
   -2.6022    0.4470    0.0000 H   0  0  0  0  0  0  0  0  0  0  0  0
   -2.2734   -0.5712    0.0000 H   0  0  0  0  0  0  0  0  0  0  0  0
   -2.7471    3.5338    0.0000 H   0  0  0  0  0  0  0  0  0  0  0  0
   -1.7703    3.0969    0.0000 H   0  0  0  0  0  0  0  0  0  0  0  0
   -0.0476   -3.3451    0.0000 H   0  0  0  0  0  0  0  0  0  0  0  0
    1.2377    2.2577    0.0000 H   0  0  0  0  0  0  0  0  0  0  0  0
    3.0547    2.6406    0.0000 H   0  0  0  0  0  0  0  0  0  0  0  0
   -4.6643   -2.4166    0.0000 H   0  0  0  0  0  0  0  0  0  0  0  0
  1  4  1  0  0  0  0
  1  5  1  0  0  0  0
  1  8  1  0  0  0  0
  1  9  2  0  0  0  0
  2 20  1  0  0  0  0
  2 25  1  0  0  0  0
  3 22  1  0  0  0  0
  3 26  1  0  0  0  0
  5 27  1  0  0  0  0
  6 42  1  0  0  0  0
  7 28  1  0  0  0  0
  7 43  1  0  0  0  0
  8 44  1  0  0  0  0
 10 32  2  0  0  0  0
 11 29  1  0  0  0  0
 11 30  1  0  0  0  0
 12 31  1  0  0  0  0
 12 32  1  0  0  0  0
 13 30  2  0  0  0  0
 13 33  1  0  0  0  0
 14 29  2  0  0  0  0
 14 37  1  0  0  0  0
 15 32  1  0  0  0  0
 15 36  2  0  0  0  0
 16 35  1  0  0  0  0
 16 37  2  0  0  0  0
 17 35  1  0  0  0  0
 17 38  1  0  0  0  0
 17 39  1  0  0  0  0
 18 36  1  0  0  0  0
 18 40  1  0  0  0  0
 18 41  1  0  0  0  0
 19  4  1  0  0  0  0
 19 22  1  0  0  0  0
 19 23  1  0  0  0  0
 19 45  1  1  0  0  0
 20 21  1  0  0  0  0
 20 27  1  0  0  0  0
 20 46  1  1  0  0  0
 21  6  1  0  0  0  0
 21 24  1  0  0  0  0
 21 47  1  6  0  0  0
 22 28  1  0  0  0  0
 22 48  1  6  0  0  0
 23 26  1  0  0  0  0
 23 49  1  0  0  0  0
 23 50  1  0  0  0  0
 24 25  1  0  0  0  0
 24 51  1  0  0  0  0
 24 52  1  0  0  0  0
 25 11  1  0  0  0  0
 25 53  1  1  0  0  0
 26 12  1  0  0  0  0
 26 54  1  6  0  0  0
 27 55  1  0  0  0  0
 27 56  1  0  0  0  0
 28 57  1  0  0  0  0
 28 58  1  0  0  0  0
 29 33  1  0  0  0  0
 30 59  1  0  0  0  0
 31 34  2  0  0  0  0
 31 60  1  0  0  0  0
 33 35  2  0  0  0  0
 34 36  1  0  0  0  0
 34 61  1  0  0  0  0
 37 62  1  0  0  0  0
M  END
>  <DRUGBANK_ID>
DB02573

>  <SECONDARY_ACCESSION_NUMBERS>
EXPT00997

>  <COMMON_NAME>
2'-deoxycytidine-2'-deoxyadenosine-3',5'-monophosphate

$$$$
