1156
 OpenBabel10282417072D

 34 34  0  0  1  0  0  0  0  0999 V2000
    1.6500   -2.4198    0.0000 Cl  0  0  0  0  0  0  0  0  0  0  0  0
    2.3645    0.4678    0.0000 O   0  0  0  0  0  0  0  0  0  0  0  0
    3.7935    1.2928    0.0000 N   0  0  0  0  0  0  0  0  0  0  0  0
    4.5080    1.7053    0.0000 C   0  0  0  0  0  0  0  0  0  0  0  0
    3.7935    0.4678    0.0000 C   0  0  3  0  0  0  0  0  0  0  0  0
    5.2224    2.1178    0.0000 C   0  0  0  0  0  0  0  0  0  0  0  0
    4.0955    2.4198    0.0000 C   0  0  0  0  0  0  0  0  0  0  0  0
    4.9205    0.9908    0.0000 C   0  0  0  0  0  0  0  0  0  0  0  0
    4.5080    0.0553    0.0000 C   0  0  0  0  0  0  0  0  0  0  0  0
    3.0791    0.0553    0.0000 C   0  0  0  0  0  0  0  0  0  0  0  0
    3.0791   -0.7697    0.0000 C   0  0  0  0  0  0  0  0  0  0  0  0
    2.3645   -1.1823    0.0000 C   0  0  0  0  0  0  0  0  0  0  0  0
    3.7935   -1.1823    0.0000 C   0  0  0  0  0  0  0  0  0  0  0  0
    2.3645   -2.0073    0.0000 C   0  0  0  0  0  0  0  0  0  0  0  0
    3.7935   -2.0073    0.0000 C   0  0  0  0  0  0  0  0  0  0  0  0
    3.0791   -2.4198    0.0000 C   0  0  0  0  0  0  0  0  0  0  0  0
    2.9102    1.8028    0.0000 H   0  0  0  0  0  0  0  0  0  0  0  0
    4.7201    1.0028    0.0000 H   0  0  0  0  0  0  0  0  0  0  0  0
    6.1491    1.5828    0.0000 H   0  0  0  0  0  0  0  0  0  0  0  0
    5.2224    3.1878    0.0000 H   0  0  0  0  0  0  0  0  0  0  0  0
    6.1490    2.6528    0.0000 H   0  0  0  0  0  0  0  0  0  0  0  0
    4.6305    3.3464    0.0000 H   0  0  0  0  0  0  0  0  0  0  0  0
    3.0255    2.4198    0.0000 H   0  0  0  0  0  0  0  0  0  0  0  0
    3.5605    3.3465    0.0000 H   0  0  0  0  0  0  0  0  0  0  0  0
    4.3855    0.0642    0.0000 H   0  0  0  0  0  0  0  0  0  0  0  0
    5.9905    0.9908    0.0000 H   0  0  0  0  0  0  0  0  0  0  0  0
    5.4555    0.0641    0.0000 H   0  0  0  0  0  0  0  0  0  0  0  0
    4.5080   -1.0147    0.0000 H   0  0  0  0  0  0  0  0  0  0  0  0
    5.4346    0.5903    0.0000 H   0  0  0  0  0  0  0  0  0  0  0  0
    5.4347   -0.4797    0.0000 H   0  0  0  0  0  0  0  0  0  0  0  0
    1.4708   -0.6663    0.0000 H   0  0  0  0  0  0  0  0  0  0  0  0
    4.6873   -0.6664    0.0000 H   0  0  0  0  0  0  0  0  0  0  0  0
    4.6872   -2.5233    0.0000 H   0  0  0  0  0  0  0  0  0  0  0  0
    3.0792   -3.4518    0.0000 H   0  0  0  0  0  0  0  0  0  0  0  0
  1 14  1  0  0  0  0
  2 10  2  0  0  0  0
  3  4  1  0  0  0  0
  3  5  1  0  0  0  0
  3 17  1  0  0  0  0
  4  6  1  0  0  0  0
  4  7  1  0  0  0  0
  4  8  1  0  0  0  0
  5  9  1  0  0  0  0
  5 10  1  0  0  0  0
  5 18  1  0  0  0  0
  6 19  1  0  0  0  0
  6 20  1  0  0  0  0
  6 21  1  0  0  0  0
  7 22  1  0  0  0  0
  7 23  1  0  0  0  0
  7 24  1  0  0  0  0
  8 25  1  0  0  0  0
  8 26  1  0  0  0  0
  8 27  1  0  0  0  0
  9 28  1  0  0  0  0
  9 29  1  0  0  0  0
  9 30  1  0  0  0  0
 10 11  1  0  0  0  0
 11 12  2  0  0  0  0
 11 13  1  0  0  0  0
 12 14  1  0  0  0  0
 12 31  1  0  0  0  0
 13 15  2  0  0  0  0
 13 32  1  0  0  0  0
 14 16  2  0  0  0  0
 15 16  1  0  0  0  0
 15 33  1  0  0  0  0
 16 34  1  0  0  0  0
M  END
>  <DRUGBANK_ID>
DB01156

>  <SECONDARY_ACCESSION_NUMBERS>
APRD00621

>  <COMMON_NAME>
Bupropion

>  <CAS_NUMBER>
34911-55-2

>  <UNII>
01ZG3TPX31

>  <SYNONYMS>
Amfebutamone; Bupropion

$$$$
