
 OpenBabel10282417072D

 88 91  0  0  0  0  0  0  0  0999 V2000
   -3.8718   -1.6564    0.0000 C   0  0  1  0  0  0  0  0  0  0  0  0
   -3.8718   -2.4846    0.0000 C   0  0  2  0  0  0  0  0  0  0  0  0
   -3.1264   -2.8987    0.0000 C   0  0  1  0  0  0  0  0  0  0  0  0
   -2.4225   -2.4846    0.0000 C   0  0  2  0  0  0  0  0  0  0  0  0
   -2.4225   -1.6564    0.0000 C   0  0  2  0  0  0  0  0  0  0  0  0
   -3.1264   -1.2423    0.0000 O   0  0  0  0  0  0  0  0  0  0  0  0
   -1.7184   -1.2423    0.0000 O   0  0  0  0  0  0  0  0  0  0  0  0
   -0.3933   -0.5797    0.0000 C   0  0  1  0  0  0  0  0  0  0  0  0
   -0.1449    0.2070    0.0000 C   0  0  1  0  0  0  0  0  0  0  0  0
   -0.8075    0.6626    0.0000 O   0  0  0  0  0  0  0  0  0  0  0  0
   -1.4700    0.2070    0.0000 C   0  0  1  0  0  0  0  0  0  0  0  0
   -1.2215   -0.5797    0.0000 C   0  0  1  0  0  0  0  0  0  0  0  0
    0.8075    0.4555    0.0000 O   0  0  0  0  0  0  0  0  0  0  0  0
    1.0560   -1.1594    0.0000 O   0  0  0  0  0  0  0  0  0  0  0  0
    1.7600   -0.7453    0.0000 C   0  0  1  0  0  0  0  0  0  0  0  0
    2.4638   -1.1594    0.0000 C   0  0  1  0  0  0  0  0  0  0  0  0
    3.1679   -0.7453    0.0000 C   0  0  0  0  0  0  0  0  0  0  0  0
    3.1679    0.0414    0.0000 C   0  0  1  0  0  0  0  0  0  0  0  0
    2.4638    0.4555    0.0000 C   0  0  2  0  0  0  0  0  0  0  0  0
    1.7600    0.0414    0.0000 C   0  0  2  0  0  0  0  0  0  0  0  0
    2.4638   -1.9877    0.0000 N   0  0  0  0  0  0  0  0  0  0  0  0
    3.8718    0.4555    0.0000 N   0  0  0  0  0  0  0  0  0  0  0  0
    2.4638    1.2837    0.0000 O   0  0  0  0  0  0  0  0  0  0  0  0
    3.1679    1.6978    0.0000 C   0  0  1  0  0  0  0  0  0  0  0  0
    3.8718    1.2837    0.0000 O   0  0  0  0  0  0  0  0  0  0  0  0
    4.5344    1.6978    0.0000 C   0  0  1  0  0  0  0  0  0  0  0  0
    4.5344    2.5261    0.0000 C   0  0  2  0  0  0  0  0  0  0  0  0
    3.8718    2.9401    0.0000 C   0  0  1  0  0  0  0  0  0  0  0  0
    3.1679    2.5261    0.0000 C   0  0  1  0  0  0  0  0  0  0  0  0
    5.2798    1.3251    0.0000 C   0  0  0  0  0  0  0  0  0  0  0  0
    5.2798    0.4969    0.0000 N   0  0  0  0  0  0  0  0  0  0  0  0
    2.4225    2.9401    0.0000 N   0  0  0  0  0  0  0  0  0  0  0  0
    3.8718    3.7269    0.0000 O   0  0  0  0  0  0  0  0  0  0  0  0
    5.2798    2.9815    0.0000 O   0  0  0  0  0  0  0  0  0  0  0  0
   -2.2568    0.4555    0.0000 C   0  0  0  0  0  0  0  0  0  0  0  0
    0.1035   -1.2423    0.0000 O   0  0  0  0  0  0  0  0  0  0  0  0
   -2.8780   -0.1242    0.0000 O   0  0  0  0  0  0  0  0  0  0  0  0
   -4.5344   -1.2423    0.0000 C   0  0  0  0  0  0  0  0  0  0  0  0
   -4.5344   -2.8987    0.0000 O   0  0  0  0  0  0  0  0  0  0  0  0
   -1.7184   -2.8987    0.0000 N   0  0  0  0  0  0  0  0  0  0  0  0
   -3.1264   -3.7269    0.0000 O   0  0  0  0  0  0  0  0  0  0  0  0
   -5.2798   -1.6564    0.0000 N   0  0  0  0  0  0  0  0  0  0  0  0
   -4.8077   -2.1751    0.0000 H   0  0  0  0  0  0  0  0  0  0  0  0
   -4.8077   -1.9659    0.0000 H   0  0  0  0  0  0  0  0  0  0  0  0
   -4.0486   -3.4413    0.0000 H   0  0  0  0  0  0  0  0  0  0  0  0
   -2.4224   -3.5546    0.0000 H   0  0  0  0  0  0  0  0  0  0  0  0
   -1.4937   -2.1877    0.0000 H   0  0  0  0  0  0  0  0  0  0  0  0
    0.6615   -0.4000    0.0000 H   0  0  0  0  0  0  0  0  0  0  0  0
    0.5923   -0.5685    0.0000 H   0  0  0  0  0  0  0  0  0  0  0  0
   -1.6280    1.2653    0.0000 H   0  0  0  0  0  0  0  0  0  0  0  0
   -2.2763   -0.4000    0.0000 H   0  0  0  0  0  0  0  0  0  0  0  0
    0.2121   -0.6812    0.0000 H   0  0  0  0  0  0  0  0  0  0  0  0
    1.7599   -1.8153    0.0000 H   0  0  0  0  0  0  0  0  0  0  0  0
    1.5350   -1.6906    0.0000 H   0  0  0  0  0  0  0  0  0  0  0  0
    4.0967   -1.2766    0.0000 H   0  0  0  0  0  0  0  0  0  0  0  0
    4.0935   -0.2084    0.0000 H   0  0  0  0  0  0  0  0  0  0  0  0
    4.0967   -0.4898    0.0000 H   0  0  0  0  0  0  0  0  0  0  0  0
    3.3926    0.9868    0.0000 H   0  0  0  0  0  0  0  0  0  0  0  0
    1.6949    1.1094    0.0000 H   0  0  0  0  0  0  0  0  0  0  0  0
    1.5805   -2.4977    0.0000 H   0  0  0  0  0  0  0  0  0  0  0  0
    3.3471   -2.4977    0.0000 H   0  0  0  0  0  0  0  0  0  0  0  0
    4.7593   -0.0473    0.0000 H   0  0  0  0  0  0  0  0  0  0  0  0
    3.8635    1.4755    0.0000 H   0  0  0  0  0  0  0  0  0  0  0  0
    2.2391    2.2291    0.0000 H   0  0  0  0  0  0  0  0  0  0  0  0
    4.5852    0.6290    0.0000 H   0  0  0  0  0  0  0  0  0  0  0  0
    5.4676    2.0026    0.0000 H   0  0  0  0  0  0  0  0  0  0  0  0
    4.8076    3.4589    0.0000 H   0  0  0  0  0  0  0  0  0  0  0  0
    3.1547    3.5960    0.0000 H   0  0  0  0  0  0  0  0  0  0  0  0
    6.1900    1.8876    0.0000 H   0  0  0  0  0  0  0  0  0  0  0  0
    6.2144    0.8040    0.0000 H   0  0  0  0  0  0  0  0  0  0  0  0
    4.3965   -0.0131    0.0000 H   0  0  0  0  0  0  0  0  0  0  0  0
    6.1631   -0.0131    0.0000 H   0  0  0  0  0  0  0  0  0  0  0  0
    2.4056    3.9600    0.0000 H   0  0  0  0  0  0  0  0  0  0  0  0
    1.5477    2.4155    0.0000 H   0  0  0  0  0  0  0  0  0  0  0  0
    4.7118    4.2119    0.0000 H   0  0  0  0  0  0  0  0  0  0  0  0
    6.1316    2.5175    0.0000 H   0  0  0  0  0  0  0  0  0  0  0  0
   -2.4929    1.4991    0.0000 H   0  0  0  0  0  0  0  0  0  0  0  0
   -3.2794    0.7704    0.0000 H   0  0  0  0  0  0  0  0  0  0  0  0
   -0.2777   -2.1343    0.0000 H   0  0  0  0  0  0  0  0  0  0  0  0
   -3.8057    0.1591    0.0000 H   0  0  0  0  0  0  0  0  0  0  0  0
   -4.5069   -0.1727    0.0000 H   0  0  0  0  0  0  0  0  0  0  0  0
   -5.4495   -0.6878    0.0000 H   0  0  0  0  0  0  0  0  0  0  0  0
   -5.3909   -2.4434    0.0000 H   0  0  0  0  0  0  0  0  0  0  0  0
   -1.7266   -3.9187    0.0000 H   0  0  0  0  0  0  0  0  0  0  0  0
   -0.8310   -2.3958    0.0000 H   0  0  0  0  0  0  0  0  0  0  0  0
   -3.9664   -4.2119    0.0000 H   0  0  0  0  0  0  0  0  0  0  0  0
   -6.1546   -1.1319    0.0000 H   0  0  0  0  0  0  0  0  0  0  0  0
   -5.2966   -2.6763    0.0000 H   0  0  0  0  0  0  0  0  0  0  0  0
  1  2  1  0  0  0  0
  1 38  1  0  0  0  0
  1 43  1  1  0  0  0
  2  3  1  0  0  0  0
  2 39  1  0  0  0  0
  2 44  1  1  0  0  0
  3  4  1  0  0  0  0
  3 41  1  0  0  0  0
  3 45  1  6  0  0  0
  4 40  1  0  0  0  0
  4  5  1  0  0  0  0
  4 46  1  1  0  0  0
  5  7  1  0  0  0  0
  5  6  1  0  0  0  0
  5 47  1  1  0  0  0
  6  1  1  0  0  0  0
  8 36  1  0  0  0  0
  8  9  1  0  0  0  0
  8 48  1  1  0  0  0
  9 10  1  0  0  0  0
  9 13  1  0  0  0  0
  9 49  1  6  0  0  0
 10 11  1  0  0  0  0
 11 35  1  0  0  0  0
 11 12  1  0  0  0  0
 11 50  1  6  0  0  0
 12  7  1  0  0  0  0
 12  8  1  0  0  0  0
 12 51  1  1  0  0  0
 14 52  1  0  0  0  0
 15 14  1  0  0  0  0
 15 16  1  0  0  0  0
 15 53  1  1  0  0  0
 16 17  1  0  0  0  0
 16 21  1  0  0  0  0
 16 54  1  6  0  0  0
 17 18  1  0  0  0  0
 17 55  1  0  0  0  0
 17 56  1  0  0  0  0
 18 19  1  0  0  0  0
 18 22  1  0  0  0  0
 18 57  1  6  0  0  0
 19 20  1  0  0  0  0
 19 23  1  0  0  0  0
 19 58  1  1  0  0  0
 20 15  1  0  0  0  0
 20 13  1  0  0  0  0
 20 59  1  6  0  0  0
 21 60  1  0  0  0  0
 21 61  1  0  0  0  0
 22 62  1  0  0  0  0
 22 63  1  0  0  0  0
 24 23  1  0  0  0  0
 24 25  1  0  0  0  0
 24 64  1  1  0  0  0
 25 26  1  0  0  0  0
 26 27  1  0  0  0  0
 26 30  1  0  0  0  0
 26 65  1  6  0  0  0
 27 28  1  0  0  0  0
 27 34  1  0  0  0  0
 27 66  1  1  0  0  0
 28 29  1  0  0  0  0
 28 33  1  0  0  0  0
 28 67  1  6  0  0  0
 29 24  1  0  0  0  0
 29 32  1  0  0  0  0
 29 68  1  1  0  0  0
 30 31  1  0  0  0  0
 30 69  1  0  0  0  0
 30 70  1  0  0  0  0
 31 71  1  0  0  0  0
 31 72  1  0  0  0  0
 32 73  1  0  0  0  0
 32 74  1  0  0  0  0
 33 75  1  0  0  0  0
 34 76  1  0  0  0  0
 35 37  1  0  0  0  0
 35 77  1  0  0  0  0
 35 78  1  0  0  0  0
 36 79  1  0  0  0  0
 37 80  1  0  0  0  0
 38 42  1  0  0  0  0
 38 81  1  0  0  0  0
 38 82  1  0  0  0  0
 39 83  1  0  0  0  0
 40 84  1  0  0  0  0
 40 85  1  0  0  0  0
 41 86  1  0  0  0  0
 42 87  1  0  0  0  0
 42 88  1  0  0  0  0
M  END
>  <DRUGBANK_ID>
DB00452

>  <SECONDARY_ACCESSION_NUMBERS>
APRD00618

>  <COMMON_NAME>
Framycetin

>  <CAS_NUMBER>
119-04-0

>  <UNII>
4BOC774388

>  <SYNONYMS>
Fradiomycin B; Framicetina; Framycetin; Framyc√©tine; Framycetinum; Neomycin B

$$$$
