
 OpenBabel10282417072D

 47 50  0  0  1  0  0  0  0  0999 V2000
   -2.5855   -1.0164    0.0000 C   0  0  0  0  0  0  0  0  0  0  0  0
   -2.1730   -1.7309    0.0000 C   0  0  0  0  0  0  0  0  0  0  0  0
   -2.1730   -0.3020    0.0000 C   0  0  0  0  0  0  0  0  0  0  0  0
    4.0145    0.4125    0.0000 C   0  0  0  0  0  0  0  0  0  0  0  0
    3.6020   -0.3020    0.0000 C   0  0  0  0  0  0  0  0  0  0  0  0
    3.6020    1.1270    0.0000 C   0  0  0  0  0  0  0  0  0  0  0  0
   -1.3480   -1.7309    0.0000 C   0  0  0  0  0  0  0  0  0  0  0  0
   -1.3480   -0.3020    0.0000 C   0  0  0  0  0  0  0  0  0  0  0  0
    2.7770   -0.3020    0.0000 C   0  0  0  0  0  0  0  0  0  0  0  0
    2.3645    1.8414    0.0000 C   0  0  0  0  0  0  0  0  0  0  0  0
    1.5395    1.8414    0.0000 C   0  0  0  0  0  0  0  0  0  0  0  0
    1.1270   -0.3020    0.0000 C   0  0  0  0  0  0  0  0  0  0  0  0
   -0.1105    0.4125    0.0000 C   0  0  0  0  0  0  0  0  0  0  0  0
    2.7770    1.1270    0.0000 C   0  0  0  0  0  0  0  0  0  0  0  0
   -0.9355   -1.0164    0.0000 C   0  0  0  0  0  0  0  0  0  0  0  0
    2.3645    0.4125    0.0000 C   0  0  0  0  0  0  0  0  0  0  0  0
    1.5395    0.4125    0.0000 C   0  0  1  0  0  0  0  0  0  0  0  0
    0.3020    1.1270    0.0000 C   0  0  0  0  0  0  0  0  0  0  0  0
   -0.1105   -1.0164    0.0000 C   0  0  0  0  0  0  0  0  0  0  0  0
    0.3020   -0.3020    0.0000 N   0  0  0  0  0  0  0  0  0  0  0  0
    1.1270    1.1270    0.0000 N   0  0  0  0  0  0  0  0  0  0  0  0
   -0.1105    1.8414    0.0000 O   0  0  0  0  0  0  0  0  0  0  0  0
    0.3020   -1.7309    0.0000 O   0  0  0  0  0  0  0  0  0  0  0  0
    1.9520   -0.3020    0.0000 H   0  0  0  0  0  0  0  0  0  0  0  0
   -3.6555   -1.0164    0.0000 H   0  0  0  0  0  0  0  0  0  0  0  0
   -3.1205   -0.0897    0.0000 H   0  0  0  0  0  0  0  0  0  0  0  0
   -2.7080   -2.6575    0.0000 H   0  0  0  0  0  0  0  0  0  0  0  0
   -1.6380   -2.6575    0.0000 H   0  0  0  0  0  0  0  0  0  0  0  0
   -2.7080    0.6247    0.0000 H   0  0  0  0  0  0  0  0  0  0  0  0
   -1.6380    0.6246    0.0000 H   0  0  0  0  0  0  0  0  0  0  0  0
    5.0465    0.4125    0.0000 H   0  0  0  0  0  0  0  0  0  0  0  0
    4.1180   -1.1957    0.0000 H   0  0  0  0  0  0  0  0  0  0  0  0
    4.1180    2.0207    0.0000 H   0  0  0  0  0  0  0  0  0  0  0  0
   -0.8130   -2.6575    0.0000 H   0  0  0  0  0  0  0  0  0  0  0  0
   -0.2780   -1.7309    0.0000 H   0  0  0  0  0  0  0  0  0  0  0  0
   -0.8130    0.6247    0.0000 H   0  0  0  0  0  0  0  0  0  0  0  0
   -0.2780   -0.3020    0.0000 H   0  0  0  0  0  0  0  0  0  0  0  0
    2.2610   -1.1957    0.0000 H   0  0  0  0  0  0  0  0  0  0  0  0
    2.8995    2.7681    0.0000 H   0  0  0  0  0  0  0  0  0  0  0  0
    3.4345    1.8414    0.0000 H   0  0  0  0  0  0  0  0  0  0  0  0
    1.0045    2.7681    0.0000 H   0  0  0  0  0  0  0  0  0  0  0  0
    0.4695    1.8414    0.0000 H   0  0  0  0  0  0  0  0  0  0  0  0
    1.6620   -1.2286    0.0000 H   0  0  0  0  0  0  0  0  0  0  0  0
    0.5920   -1.2286    0.0000 H   0  0  0  0  0  0  0  0  0  0  0  0
   -1.1805    0.4125    0.0000 H   0  0  0  0  0  0  0  0  0  0  0  0
   -0.6455   -0.5141    0.0000 H   0  0  0  0  0  0  0  0  0  0  0  0
   -0.4005   -0.0897    0.0000 H   0  0  0  0  0  0  0  0  0  0  0  0
  1 25  1  0  0  0  0
  1 26  1  0  0  0  0
  2  1  1  0  0  0  0
  2 27  1  0  0  0  0
  2 28  1  0  0  0  0
  3  1  1  0  0  0  0
  3 29  1  0  0  0  0
  3 30  1  0  0  0  0
  4 31  1  0  0  0  0
  5  4  2  0  0  0  0
  5 32  1  0  0  0  0
  6  4  1  0  0  0  0
  6 33  1  0  0  0  0
  7  2  1  0  0  0  0
  7 34  1  0  0  0  0
  7 35  1  0  0  0  0
  8  3  1  0  0  0  0
  8 36  1  0  0  0  0
  8 37  1  0  0  0  0
  9  5  1  0  0  0  0
  9 38  1  0  0  0  0
 10 39  1  0  0  0  0
 10 40  1  0  0  0  0
 11 10  1  0  0  0  0
 11 41  1  0  0  0  0
 11 42  1  0  0  0  0
 12 43  1  0  0  0  0
 12 44  1  0  0  0  0
 13 45  1  0  0  0  0
 13 46  1  0  0  0  0
 14  6  2  0  0  0  0
 14 10  1  0  0  0  0
 15  7  1  0  0  0  0
 15  8  1  0  0  0  0
 15 47  1  0  0  0  0
 16  9  2  0  0  0  0
 16 14  1  0  0  0  0
 17 12  1  0  0  0  0
 17 16  1  0  0  0  0
 17 24  1  1  0  0  0
 18 13  1  0  0  0  0
 19 15  1  0  0  0  0
 20 12  1  0  0  0  0
 20 13  1  0  0  0  0
 20 19  1  0  0  0  0
 21 11  1  0  0  0  0
 21 17  1  0  0  0  0
 21 18  1  0  0  0  0
 22 18  2  0  0  0  0
 23 19  2  0  0  0  0
M  END
>  <DRUGBANK_ID>
DB11749

>  <COMMON_NAME>
(R)-Praziquantel

>  <CAS_NUMBER>
57452-98-9

>  <UNII>
WF15T5925V

>  <SYNONYMS>
(-)-praziquantel; (R)-(-)-praziquantel; L-praziquantel; L-PZQ

$$$$
