
 OpenBabel10282417072D

 55 58  0  0  0  0  0  0  0  0999 V2000
    7.6391    0.2854    0.0000 C   0  0  0  0  0  0  0  0  0  0  0  0
    6.9246    0.6979    0.0000 C   0  0  0  0  0  0  0  0  0  0  0  0
    7.3371    1.4124    0.0000 C   0  0  0  0  0  0  0  0  0  0  0  0
    6.5121   -0.0165    0.0000 O   0  0  0  0  0  0  0  0  0  0  0  0
    6.2102    1.1104    0.0000 C   0  0  1  0  0  0  0  0  0  0  0  0
    5.4957    0.6979    0.0000 C   0  0  0  0  0  0  0  0  0  0  0  0
    4.7812    1.1104    0.0000 C   0  0  0  0  0  0  0  0  0  0  0  0
    4.7812    1.9354    0.0000 C   0  0  1  0  0  0  0  0  0  0  0  0
    5.4957    2.3479    0.0000 C   0  0  0  0  0  0  0  0  0  0  0  0
    6.2102    1.9354    0.0000 C   0  0  0  0  0  0  0  0  0  0  0  0
    4.0668    2.3479    0.0000 N   0  0  0  0  0  0  0  0  0  0  0  0
    3.3523    1.9354    0.0000 C   0  0  0  0  0  0  0  0  0  0  0  0
    3.3523    1.1104    0.0000 C   0  0  0  0  0  0  0  0  0  0  0  0
    2.6378    0.6979    0.0000 C   0  0  0  0  0  0  0  0  0  0  0  0
    1.9233    1.1104    0.0000 C   0  0  0  0  0  0  0  0  0  0  0  0
    1.1387    0.8555    0.0000 N   0  0  0  0  0  0  0  0  0  0  0  0
    0.6538    1.5229    0.0000 C   0  0  0  0  0  0  0  0  0  0  0  0
    1.1387    2.1904    0.0000 C   0  0  0  0  0  0  0  0  0  0  0  0
    0.8838    2.9750    0.0000 C   0  0  0  0  0  0  0  0  0  0  0  0
    0.0768    3.1465    0.0000 C   0  0  0  0  0  0  0  0  0  0  0  0
   -0.1781    3.9312    0.0000 C   0  0  0  0  0  0  0  0  0  0  0  0
    0.3739    4.5442    0.0000 C   0  0  0  0  0  0  0  0  0  0  0  0
    1.1809    4.3727    0.0000 C   0  0  0  0  0  0  0  0  0  0  0  0
    1.4358    3.5881    0.0000 C   0  0  0  0  0  0  0  0  0  0  0  0
    1.7329    4.9858    0.0000 C   0  0  0  0  0  0  0  0  0  0  0  0
    2.2849    5.5989    0.0000 F   0  0  0  0  0  0  0  0  0  0  0  0
    2.3460    4.4338    0.0000 F   0  0  0  0  0  0  0  0  0  0  0  0
    1.1198    5.5378    0.0000 F   0  0  0  0  0  0  0  0  0  0  0  0
    1.9233    1.9354    0.0000 N   0  0  0  0  0  0  0  0  0  0  0  0
    2.6378    2.3479    0.0000 N   0  0  0  0  0  0  0  0  0  0  0  0
    7.6391   -0.7846    0.0000 H   0  0  0  0  0  0  0  0  0  0  0  0
    8.5657    0.8204    0.0000 H   0  0  0  0  0  0  0  0  0  0  0  0
    8.5658   -0.2496    0.0000 H   0  0  0  0  0  0  0  0  0  0  0  0
    8.4071    1.4124    0.0000 H   0  0  0  0  0  0  0  0  0  0  0  0
    6.8021    2.3390    0.0000 H   0  0  0  0  0  0  0  0  0  0  0  0
    7.8721    2.3391    0.0000 H   0  0  0  0  0  0  0  0  0  0  0  0
    5.5421   -0.0165    0.0000 H   0  0  0  0  0  0  0  0  0  0  0  0
    6.2102    0.0404    0.0000 H   0  0  0  0  0  0  0  0  0  0  0  0
    5.4957   -0.3721    0.0000 H   0  0  0  0  0  0  0  0  0  0  0  0
    4.5691    0.1629    0.0000 H   0  0  0  0  0  0  0  0  0  0  0  0
    3.8546    0.5754    0.0000 H   0  0  0  0  0  0  0  0  0  0  0  0
    3.8546    1.6454    0.0000 H   0  0  0  0  0  0  0  0  0  0  0  0
    3.8545    1.4004    0.0000 H   0  0  0  0  0  0  0  0  0  0  0  0
    5.4957    3.4179    0.0000 H   0  0  0  0  0  0  0  0  0  0  0  0
    6.4223    2.8829    0.0000 H   0  0  0  0  0  0  0  0  0  0  0  0
    7.1368    2.4704    0.0000 H   0  0  0  0  0  0  0  0  0  0  0  0
    7.1368    1.4004    0.0000 H   0  0  0  0  0  0  0  0  0  0  0  0
    4.0668    3.3324    0.0000 H   0  0  0  0  0  0  0  0  0  0  0  0
    4.2460    0.5944    0.0000 H   0  0  0  0  0  0  0  0  0  0  0  0
    2.6378   -0.3341    0.0000 H   0  0  0  0  0  0  0  0  0  0  0  0
   -0.3782    1.5229    0.0000 H   0  0  0  0  0  0  0  0  0  0  0  0
   -0.6138    2.3796    0.0000 H   0  0  0  0  0  0  0  0  0  0  0  0
   -1.1875    4.1458    0.0000 H   0  0  0  0  0  0  0  0  0  0  0  0
    0.0550    5.5257    0.0000 H   0  0  0  0  0  0  0  0  0  0  0  0
    2.4452    3.3735    0.0000 H   0  0  0  0  0  0  0  0  0  0  0  0
  1  2  1  0  0  0  0
  1 31  1  0  0  0  0
  1 32  1  0  0  0  0
  1 33  1  0  0  0  0
  2  3  1  0  0  0  0
  2  4  1  0  0  0  0
  3 34  1  0  0  0  0
  3 35  1  0  0  0  0
  3 36  1  0  0  0  0
  4 37  1  0  0  0  0
  5  2  1  0  0  0  0
  5  6  1  0  0  0  0
  5 10  1  0  0  0  0
  5 38  1  6  0  0  0
  6  7  1  0  0  0  0
  6 39  1  0  0  0  0
  6 40  1  0  0  0  0
  7 41  1  0  0  0  0
  7 42  1  0  0  0  0
  8  7  1  0  0  0  0
  8  9  1  0  0  0  0
  8 11  1  0  0  0  0
  8 43  1  1  0  0  0
  9 10  1  0  0  0  0
  9 44  1  0  0  0  0
  9 45  1  0  0  0  0
 10 46  1  0  0  0  0
 10 47  1  0  0  0  0
 11 12  1  0  0  0  0
 11 48  1  0  0  0  0
 12 13  1  0  0  0  0
 12 30  2  0  0  0  0
 13 14  2  0  0  0  0
 13 49  1  0  0  0  0
 14 15  1  0  0  0  0
 14 50  1  0  0  0  0
 15 16  2  0  0  0  0
 15 29  1  0  0  0  0
 16 17  1  0  0  0  0
 17 18  2  0  0  0  0
 17 51  1  0  0  0  0
 18 19  1  0  0  0  0
 18 29  1  0  0  0  0
 19 20  2  0  0  0  0
 19 24  1  0  0  0  0
 20 21  1  0  0  0  0
 20 52  1  0  0  0  0
 21 22  2  0  0  0  0
 21 53  1  0  0  0  0
 22 23  1  0  0  0  0
 22 54  1  0  0  0  0
 23 24  2  0  0  0  0
 23 25  1  0  0  0  0
 24 55  1  0  0  0  0
 25 26  1  0  0  0  0
 25 27  1  0  0  0  0
 25 28  1  0  0  0  0
 29 30  1  0  0  0  0
M  END
>  <DRUGBANK_ID>
DB18109

>  <COMMON_NAME>
TP-3654

>  <CAS_NUMBER>
1361951-15-6

>  <UNII>
EOB0N7BOY4

>  <SYNONYMS>
2-(4-((3-(3-(trifluoromethyl)phenyl)imidazo(1,2-b)pyridazin-6-yl)amino)cyclohexyl)propan-2-ol; 2-(trans-4-((3-(3-(trifluoromethyl)phenyl)imidazo[1,2-b]pyridazin6-yl)amino)cyclohexyl)propan-2-ol hydrochloride; 4-((3-(3-(trifluoromethyl)phenyl)imidazo(1,2-b)pyridazin-6-yl)amino) -trans-cyclohexyl)propan-2-ol

$$$$
