
 OpenBabel10282417072D

 40 41  0  0  0  0  0  0  0  0999 V2000
   -2.5006    0.4125    0.0000 C   0  0  0  0  0  0  0  0  0  0  0  0
   -2.5006   -0.4125    0.0000 C   0  0  0  0  0  0  0  0  0  0  0  0
   -1.7860    0.8250    0.0000 N   0  3  0  0  0  0  0  0  0  0  0  0
   -3.2151    0.8250    0.0000 C   0  0  0  0  0  0  0  0  0  0  0  0
   -1.7860   -0.8250    0.0000 C   0  0  0  0  0  0  0  0  0  0  0  0
   -3.2151   -0.8250    0.0000 C   0  0  0  0  0  0  0  0  0  0  0  0
   -1.0716    0.4125    0.0000 C   0  0  0  0  0  0  0  0  0  0  0  0
   -1.7860    1.6500    0.0000 O   0  5  0  0  0  0  0  0  0  0  0  0
   -3.9296    0.4125    0.0000 C   0  0  0  0  0  0  0  0  0  0  0  0
   -1.0716   -0.4125    0.0000 C   0  0  0  0  0  0  0  0  0  0  0  0
   -1.7860   -1.6500    0.0000 O   0  0  0  0  0  0  0  0  0  0  0  0
   -3.9296   -0.4125    0.0000 C   0  0  0  0  0  0  0  0  0  0  0  0
   -0.3571    0.8250    0.0000 C   0  0  0  0  0  0  0  0  0  0  0  0
    0.3573    0.4125    0.0000 C   0  0  0  0  0  0  0  0  0  0  0  0
    1.0717    0.8250    0.0000 C   0  0  0  0  0  0  0  0  0  0  0  0
    1.7862    0.4125    0.0000 C   0  0  0  0  0  0  0  0  0  0  0  0
    2.5007    0.8250    0.0000 C   0  0  0  0  0  0  0  0  0  0  0  0
    3.2151    0.4125    0.0000 C   0  0  0  0  0  0  0  0  0  0  0  0
    3.9296    0.8250    0.0000 C   0  0  0  0  0  0  0  0  0  0  0  0
   -3.2151    1.8570    0.0000 H   0  0  0  0  0  0  0  0  0  0  0  0
   -3.2151   -1.8570    0.0000 H   0  0  0  0  0  0  0  0  0  0  0  0
   -4.8233    0.9285    0.0000 H   0  0  0  0  0  0  0  0  0  0  0  0
   -0.1779   -0.9285    0.0000 H   0  0  0  0  0  0  0  0  0  0  0  0
   -2.5975   -2.1185    0.0000 H   0  0  0  0  0  0  0  0  0  0  0  0
   -4.8233   -0.9285    0.0000 H   0  0  0  0  0  0  0  0  0  0  0  0
   -0.3571    1.8950    0.0000 H   0  0  0  0  0  0  0  0  0  0  0  0
    0.5696    1.3600    0.0000 H   0  0  0  0  0  0  0  0  0  0  0  0
    0.3573   -0.6575    0.0000 H   0  0  0  0  0  0  0  0  0  0  0  0
    1.2840   -0.1225    0.0000 H   0  0  0  0  0  0  0  0  0  0  0  0
    1.0717    1.8950    0.0000 H   0  0  0  0  0  0  0  0  0  0  0  0
    1.9983    1.3600    0.0000 H   0  0  0  0  0  0  0  0  0  0  0  0
    1.7862   -0.6575    0.0000 H   0  0  0  0  0  0  0  0  0  0  0  0
    2.7128   -0.1225    0.0000 H   0  0  0  0  0  0  0  0  0  0  0  0
    2.5007    1.8950    0.0000 H   0  0  0  0  0  0  0  0  0  0  0  0
    3.4274    1.3600    0.0000 H   0  0  0  0  0  0  0  0  0  0  0  0
    3.2151   -0.6575    0.0000 H   0  0  0  0  0  0  0  0  0  0  0  0
    4.1417   -0.1225    0.0000 H   0  0  0  0  0  0  0  0  0  0  0  0
    4.8562    0.2900    0.0000 H   0  0  0  0  0  0  0  0  0  0  0  0
    3.9296    1.8950    0.0000 H   0  0  0  0  0  0  0  0  0  0  0  0
    4.8563    1.3600    0.0000 H   0  0  0  0  0  0  0  0  0  0  0  0
  1  2  1  0  0  0  0
  1  3  1  0  0  0  0
  1  4  2  0  0  0  0
  2  5  1  0  0  0  0
  2  6  2  0  0  0  0
  3  7  2  0  0  0  0
  3  8  1  0  0  0  0
  4  9  1  0  0  0  0
  4 20  1  0  0  0  0
  5 10  2  0  0  0  0
  5 11  1  0  0  0  0
  6 12  1  0  0  0  0
  6 21  1  0  0  0  0
  7 13  1  0  0  0  0
  7 10  1  0  0  0  0
  9 12  2  0  0  0  0
  9 22  1  0  0  0  0
 10 23  1  0  0  0  0
 11 24  1  0  0  0  0
 12 25  1  0  0  0  0
 13 14  1  0  0  0  0
 13 26  1  0  0  0  0
 13 27  1  0  0  0  0
 14 15  1  0  0  0  0
 14 28  1  0  0  0  0
 14 29  1  0  0  0  0
 15 16  1  0  0  0  0
 15 30  1  0  0  0  0
 15 31  1  0  0  0  0
 16 17  1  0  0  0  0
 16 32  1  0  0  0  0
 16 33  1  0  0  0  0
 17 18  1  0  0  0  0
 17 34  1  0  0  0  0
 17 35  1  0  0  0  0
 18 19  1  0  0  0  0
 18 36  1  0  0  0  0
 18 37  1  0  0  0  0
 19 38  1  0  0  0  0
 19 39  1  0  0  0  0
 19 40  1  0  0  0  0
M  CHG  2   3   1   8  -1
M  END
>  <DRUGBANK_ID>
DB07918

>  <COMMON_NAME>
2-heptyl-4-hydroxyquinoline N-oxide

>  <CAS_NUMBER>
341-88-8

>  <UNII>
1FU5S5CG6A

>  <SYNONYMS>
2-(n-heptyl)-4-hydroxyquinoline N-oxide; 2-heptyl-4-hydroxyquinoline N-oxide; 2-heptyl-4-hydroxyquinoline-N-oxide; 2-heptyl-4-quinolinol 1-oxide; HOQNO; HQNO

$$$$
