
 OpenBabel10282417072D

 57 59  0  0  0  0  0  0  0  0999 V2000
   -3.9295   -2.6814    0.0000 N   0  0  0  0  0  0  0  0  0  0  0  0
   -3.2151   -2.2689    0.0000 C   0  0  0  0  0  0  0  0  0  0  0  0
   -3.2151   -1.4439    0.0000 C   0  0  0  0  0  0  0  0  0  0  0  0
   -2.5006   -1.0314    0.0000 N   0  0  0  0  0  0  0  0  0  0  0  0
   -2.5006   -2.6814    0.0000 N   0  0  0  0  0  0  0  0  0  0  0  0
   -4.6440   -1.4439    0.0000 N   0  0  0  0  0  0  0  0  0  0  0  0
   -1.7861   -2.2689    0.0000 C   0  0  0  0  0  0  0  0  0  0  0  0
   -1.7861   -1.4439    0.0000 C   0  0  2  0  0  0  0  0  0  0  0  0
   -1.0716   -1.0314    0.0000 C   0  0  0  0  0  0  0  0  0  0  0  0
    0.3573   -1.0312    0.0000 C   0  0  0  0  0  0  0  0  0  0  0  0
    1.7861   -1.0312    0.0000 C   0  0  0  0  0  0  0  0  0  0  0  0
    1.0716   -1.4437    0.0000 C   0  0  0  0  0  0  0  0  0  0  0  0
    0.3573   -0.2062    0.0000 C   0  0  0  0  0  0  0  0  0  0  0  0
    1.0716    0.2063    0.0000 C   0  0  0  0  0  0  0  0  0  0  0  0
    1.7861   -0.2062    0.0000 C   0  0  0  0  0  0  0  0  0  0  0  0
    2.5006    0.2063    0.0000 C   0  0  0  0  0  0  0  0  0  0  0  0
    2.5006    1.0313    0.0000 O   0  0  0  0  0  0  0  0  0  0  0  0
    3.2151   -0.2062    0.0000 N   0  0  0  0  0  0  0  0  0  0  0  0
    3.9295    2.6813    0.0000 O   0  0  0  0  0  0  0  0  0  0  0  0
    3.9295    0.2063    0.0000 C   0  0  2  0  0  0  0  0  0  0  0  0
    5.3584    0.2063    0.0000 O   0  0  0  0  0  0  0  0  0  0  0  0
    4.6438   -0.2062    0.0000 C   0  0  0  0  0  0  0  0  0  0  0  0
    4.6438   -1.0312    0.0000 O   0  0  0  0  0  0  0  0  0  0  0  0
    3.9295    1.0313    0.0000 C   0  0  0  0  0  0  0  0  0  0  0  0
    4.6440    1.4436    0.0000 C   0  0  0  0  0  0  0  0  0  0  0  0
    4.6440    2.2687    0.0000 C   0  0  0  0  0  0  0  0  0  0  0  0
    5.3584    2.6813    0.0000 O   0  0  0  0  0  0  0  0  0  0  0  0
   -3.9295   -1.0314    0.0000 C   0  0  0  0  0  0  0  0  0  0  0  0
   -3.9295   -0.2063    0.0000 O   0  0  0  0  0  0  0  0  0  0  0  0
   -4.6440   -2.2689    0.0000 C   0  0  0  0  0  0  0  0  0  0  0  0
   -5.3584   -2.6814    0.0000 N   0  0  0  0  0  0  0  0  0  0  0  0
   -0.3572   -1.4439    0.0000 N   0  0  0  0  0  0  0  0  0  0  0  0
   -2.5005   -0.2063    0.0000 C   0  0  0  0  0  0  0  0  0  0  0  0
   -1.7860    0.2061    0.0000 O   0  0  0  0  0  0  0  0  0  0  0  0
   -5.4966   -0.9516    0.0000 H   0  0  0  0  0  0  0  0  0  0  0  0
   -0.8924   -2.7849    0.0000 H   0  0  0  0  0  0  0  0  0  0  0  0
   -1.7861   -0.3739    0.0000 H   0  0  0  0  0  0  0  0  0  0  0  0
   -1.0716    0.0386    0.0000 H   0  0  0  0  0  0  0  0  0  0  0  0
   -0.1449   -0.4964    0.0000 H   0  0  0  0  0  0  0  0  0  0  0  0
    2.6798   -1.5472    0.0000 H   0  0  0  0  0  0  0  0  0  0  0  0
    1.0715   -2.4757    0.0000 H   0  0  0  0  0  0  0  0  0  0  0  0
   -0.5365    0.3098    0.0000 H   0  0  0  0  0  0  0  0  0  0  0  0
    1.0715    1.2383    0.0000 H   0  0  0  0  0  0  0  0  0  0  0  0
    3.2151   -1.1907    0.0000 H   0  0  0  0  0  0  0  0  0  0  0  0
    3.0028    0.7413    0.0000 H   0  0  0  0  0  0  0  0  0  0  0  0
    6.1698   -0.2623    0.0000 H   0  0  0  0  0  0  0  0  0  0  0  0
    3.0029    1.5664    0.0000 H   0  0  0  0  0  0  0  0  0  0  0  0
    3.9297    2.1013    0.0000 H   0  0  0  0  0  0  0  0  0  0  0  0
    5.5706    0.9085    0.0000 H   0  0  0  0  0  0  0  0  0  0  0  0
    5.5707    1.9785    0.0000 H   0  0  0  0  0  0  0  0  0  0  0  0
    6.1699    2.2129    0.0000 H   0  0  0  0  0  0  0  0  0  0  0  0
   -6.2110   -2.1892    0.0000 H   0  0  0  0  0  0  0  0  0  0  0  0
   -5.3584   -3.6659    0.0000 H   0  0  0  0  0  0  0  0  0  0  0  0
   -0.3571   -2.4284    0.0000 H   0  0  0  0  0  0  0  0  0  0  0  0
   -3.4271    0.3288    0.0000 H   0  0  0  0  0  0  0  0  0  0  0  0
   -2.5004    0.8637    0.0000 H   0  0  0  0  0  0  0  0  0  0  0  0
   -0.9460   -0.2790    0.0000 H   0  0  0  0  0  0  0  0  0  0  0  0
  1  2  1  0  0  0  0
  2  3  2  0  0  0  0
  2  5  1  0  0  0  0
  3  4  1  0  0  0  0
  3 28  1  0  0  0  0
  4  8  1  0  0  0  0
  4 33  1  0  0  0  0
  6 35  1  0  0  0  0
  7  5  2  0  0  0  0
  7  8  1  0  0  0  0
  7 36  1  0  0  0  0
  8  9  1  0  0  0  0
  8 37  1  6  0  0  0
  9 32  1  0  0  0  0
  9 38  1  0  0  0  0
  9 39  1  0  0  0  0
 10 13  1  0  0  0  0
 11 12  1  0  0  0  0
 11 15  2  0  0  0  0
 11 40  1  0  0  0  0
 12 10  2  0  0  0  0
 12 41  1  0  0  0  0
 13 14  2  0  0  0  0
 13 42  1  0  0  0  0
 14 15  1  0  0  0  0
 14 43  1  0  0  0  0
 15 16  1  0  0  0  0
 16 18  1  0  0  0  0
 16 17  2  0  0  0  0
 18 44  1  0  0  0  0
 20 18  1  0  0  0  0
 20 24  1  0  0  0  0
 20 22  1  0  0  0  0
 20 45  1  6  0  0  0
 21 46  1  0  0  0  0
 22 21  1  0  0  0  0
 22 23  2  0  0  0  0
 24 25  1  0  0  0  0
 24 47  1  0  0  0  0
 24 48  1  0  0  0  0
 25 26  1  0  0  0  0
 25 49  1  0  0  0  0
 25 50  1  0  0  0  0
 26 19  2  0  0  0  0
 26 27  1  0  0  0  0
 27 51  1  0  0  0  0
 28  6  1  0  0  0  0
 28 29  2  0  0  0  0
 30  1  2  0  0  0  0
 30  6  1  0  0  0  0
 30 31  1  0  0  0  0
 31 52  1  0  0  0  0
 31 53  1  0  0  0  0
 32 10  1  0  0  0  0
 32 54  1  0  0  0  0
 33 34  1  0  0  0  0
 33 55  1  0  0  0  0
 33 56  1  0  0  0  0
 34 57  1  0  0  0  0
M  END
>  <DRUGBANK_ID>
DB02800

>  <SECONDARY_ACCESSION_NUMBERS>
EXPT03049

>  <COMMON_NAME>
5-hydroxymethyl-5,6-dihydrofolic acid

$$$$
