
 OpenBabel10282417072D

 33 33  0  0  0  0  0  0  0  0999 V2000
    0.9729    2.4918    0.0000 O   0  0  0  0  0  0  0  0  0  0  0  0
    1.4248    1.6495    0.0000 S   0  0  0  0  0  0  0  0  0  0  0  0
    2.1477    2.0659    0.0000 O   0  0  0  0  0  0  0  0  0  0  0  0
    1.8412    0.9265    0.0000 O   0  0  0  0  0  0  0  0  0  0  0  0
    0.7125    1.2343    0.0000 C   0  0  0  0  0  0  0  0  0  0  0  0
    0.7144    0.4049    0.0000 C   0  0  0  0  0  0  0  0  0  0  0  0
    0.0016   -0.0074    0.0000 C   0  0  0  0  0  0  0  0  0  0  0  0
    0.0026   -0.8361    0.0000 N   0  0  0  0  0  0  0  0  0  0  0  0
   -0.7214   -1.2538    0.0000 C   0  0  0  0  0  0  0  0  0  0  0  0
   -1.4333   -0.8412    0.0000 C   0  0  0  0  0  0  0  0  0  0  0  0
   -2.1477   -1.2538    0.0000 C   0  0  0  0  0  0  0  0  0  0  0  0
   -2.1477   -2.0791    0.0000 C   0  0  0  0  0  0  0  0  0  0  0  0
   -1.4333   -2.4918    0.0000 C   0  0  0  0  0  0  0  0  0  0  0  0
   -0.7214   -2.0791    0.0000 C   0  0  0  0  0  0  0  0  0  0  0  0
    1.3553    0.0870    0.0000 H   0  0  0  0  0  0  0  0  0  0  0  0
   -0.2159    1.7663    0.0000 H   0  0  0  0  0  0  0  0  0  0  0  0
   -0.2127    0.6967    0.0000 H   0  0  0  0  0  0  0  0  0  0  0  0
    1.6419   -0.1287    0.0000 H   0  0  0  0  0  0  0  0  0  0  0  0
    0.7157   -0.6651    0.0000 H   0  0  0  0  0  0  0  0  0  0  0  0
   -0.9256    0.5267    0.0000 H   0  0  0  0  0  0  0  0  0  0  0  0
   -0.9245   -0.5434    0.0000 H   0  0  0  0  0  0  0  0  0  0  0  0
    0.8862   -1.3457    0.0000 H   0  0  0  0  0  0  0  0  0  0  0  0
   -1.6485   -1.7880    0.0000 H   0  0  0  0  0  0  0  0  0  0  0  0
   -1.4325    0.2288    0.0000 H   0  0  0  0  0  0  0  0  0  0  0  0
   -2.3598   -0.3059    0.0000 H   0  0  0  0  0  0  0  0  0  0  0  0
   -3.0744   -0.7189    0.0000 H   0  0  0  0  0  0  0  0  0  0  0  0
   -3.0743   -1.7888    0.0000 H   0  0  0  0  0  0  0  0  0  0  0  0
   -3.0744   -2.6140    0.0000 H   0  0  0  0  0  0  0  0  0  0  0  0
   -2.1479   -3.1491    0.0000 H   0  0  0  0  0  0  0  0  0  0  0  0
   -1.4325   -3.5618    0.0000 H   0  0  0  0  0  0  0  0  0  0  0  0
   -0.5060   -3.0256    0.0000 H   0  0  0  0  0  0  0  0  0  0  0  0
    0.2057   -2.6133    0.0000 H   0  0  0  0  0  0  0  0  0  0  0  0
    0.2050   -1.5437    0.0000 H   0  0  0  0  0  0  0  0  0  0  0  0
  1  2  2  0  0  0  0
  2  3  2  0  0  0  0
  2  4  1  0  0  0  0
  2  5  1  0  0  0  0
  4 15  1  0  0  0  0
  5  6  1  0  0  0  0
  5 16  1  0  0  0  0
  5 17  1  0  0  0  0
  6  7  1  0  0  0  0
  6 18  1  0  0  0  0
  6 19  1  0  0  0  0
  7  8  1  0  0  0  0
  7 20  1  0  0  0  0
  7 21  1  0  0  0  0
  8  9  1  0  0  0  0
  8 22  1  0  0  0  0
  9 10  1  0  0  0  0
  9 23  1  0  0  0  0
 10 11  1  0  0  0  0
 10 24  1  0  0  0  0
 10 25  1  0  0  0  0
 11 12  1  0  0  0  0
 11 26  1  0  0  0  0
 11 27  1  0  0  0  0
 12 13  1  0  0  0  0
 12 28  1  0  0  0  0
 12 29  1  0  0  0  0
 13 14  1  0  0  0  0
 13 30  1  0  0  0  0
 13 31  1  0  0  0  0
 14  9  1  0  0  0  0
 14 32  1  0  0  0  0
 14 33  1  0  0  0  0
M  END
>  <DRUGBANK_ID>
DB02219

>  <SECONDARY_ACCESSION_NUMBERS>
EXPT01070

>  <COMMON_NAME>
3-(cyclohexylamino)propanesulfonic acid

>  <CAS_NUMBER>
1135-40-6

>  <UNII>
4W981O1LXP

>  <SYNONYMS>
3-(Cyclohexylamino)-1-propanesulfonic acid; 3-Cyclohexylaminopropane-1-sulphonic acid; CAPS

$$$$
