
 OpenBabel10282417072D

 29 28  0  0  0  0  0  0  0  0999 V2000
    3.9039    0.6039    0.0000 C   0  0  0  0  0  0  0  0  0  0  0  0
    3.9039    1.4289    0.0000 C   0  0  3  0  0  0  0  0  0  0  0  0
    3.1895    1.8414    0.0000 C   0  0  0  0  0  0  0  0  0  0  0  0
    2.4750    1.4289    0.0000 N   0  3  0  0  0  0  0  0  0  0  0  0
    1.7605    1.0164    0.0000 C   0  0  0  0  0  0  0  0  0  0  0  0
    2.8875    0.7145    0.0000 C   0  0  0  0  0  0  0  0  0  0  0  0
    2.0625    2.1434    0.0000 C   0  0  0  0  0  0  0  0  0  0  0  0
    4.6184    1.8414    0.0000 O   0  0  0  0  0  0  0  0  0  0  0  0
    5.3329    1.4289    0.0000 C   0  0  0  0  0  0  0  0  0  0  0  0
    6.0474    1.8414    0.0000 O   0  0  0  0  0  0  0  0  0  0  0  0
    5.3329    0.6039    0.0000 C   0  0  0  0  0  0  0  0  0  0  0  0
    2.9773    0.0689    0.0000 H   0  0  0  0  0  0  0  0  0  0  0  0
    4.8305    0.0689    0.0000 H   0  0  0  0  0  0  0  0  0  0  0  0
    3.9039   -0.4661    0.0000 H   0  0  0  0  0  0  0  0  0  0  0  0
    2.9772    0.8939    0.0000 H   0  0  0  0  0  0  0  0  0  0  0  0
    3.1895    2.9114    0.0000 H   0  0  0  0  0  0  0  0  0  0  0  0
    2.2629    2.3764    0.0000 H   0  0  0  0  0  0  0  0  0  0  0  0
    0.8339    1.5514    0.0000 H   0  0  0  0  0  0  0  0  0  0  0  0
    1.7605   -0.0536    0.0000 H   0  0  0  0  0  0  0  0  0  0  0  0
    0.8338    0.4814    0.0000 H   0  0  0  0  0  0  0  0  0  0  0  0
    2.3525   -0.2122    0.0000 H   0  0  0  0  0  0  0  0  0  0  0  0
    3.9575    0.7145    0.0000 H   0  0  0  0  0  0  0  0  0  0  0  0
    3.4225   -0.2121    0.0000 H   0  0  0  0  0  0  0  0  0  0  0  0
    2.5975    3.0700    0.0000 H   0  0  0  0  0  0  0  0  0  0  0  0
    0.9925    2.1434    0.0000 H   0  0  0  0  0  0  0  0  0  0  0  0
    1.5275    3.0701    0.0000 H   0  0  0  0  0  0  0  0  0  0  0  0
    4.4063    0.0689    0.0000 H   0  0  0  0  0  0  0  0  0  0  0  0
    6.2595    0.0689    0.0000 H   0  0  0  0  0  0  0  0  0  0  0  0
    5.3329   -0.4661    0.0000 H   0  0  0  0  0  0  0  0  0  0  0  0
  1  2  1  0  0  0  0
  1 12  1  0  0  0  0
  1 13  1  0  0  0  0
  1 14  1  0  0  0  0
  2  3  1  0  0  0  0
  2  8  1  0  0  0  0
  2 15  1  0  0  0  0
  3  4  1  0  0  0  0
  3 16  1  0  0  0  0
  3 17  1  0  0  0  0
  4  5  1  0  0  0  0
  4  6  1  0  0  0  0
  4  7  1  0  0  0  0
  5 18  1  0  0  0  0
  5 19  1  0  0  0  0
  5 20  1  0  0  0  0
  6 21  1  0  0  0  0
  6 22  1  0  0  0  0
  6 23  1  0  0  0  0
  7 24  1  0  0  0  0
  7 25  1  0  0  0  0
  7 26  1  0  0  0  0
  8  9  1  0  0  0  0
  9 10  2  0  0  0  0
  9 11  1  0  0  0  0
 11 27  1  0  0  0  0
 11 28  1  0  0  0  0
 11 29  1  0  0  0  0
M  CHG  1   4   1
M  END
>  <DRUGBANK_ID>
DB06709

>  <COMMON_NAME>
Methacholine

>  <CAS_NUMBER>
55-92-5

>  <UNII>
03V657ZD3V

>  <SYNONYMS>
Acetyl-beta-methylcholine; Acetylmethylcholine; beta-Methylacetylcholine; MCh; Methacholine; Methacholinum

$$$$
