
 OpenBabel10282417072D

 88 90  0  0  0  0  0  0  0  0999 V2000
    2.2791    5.5687    0.0000 P   0  0  0  0  0  0  0  0  0  0  0  0
    1.5646   -5.5687    0.0000 P   0  0  0  0  0  0  0  0  0  0  0  0
    1.4541    4.7437    0.0000 F   0  0  0  0  0  0  0  0  0  0  0  0
    3.1041    4.7437    0.0000 F   0  0  0  0  0  0  0  0  0  0  0  0
    2.3896   -4.7437    0.0000 F   0  0  0  0  0  0  0  0  0  0  0  0
    0.7396   -4.7437    0.0000 F   0  0  0  0  0  0  0  0  0  0  0  0
    0.8502   -0.2062    0.0000 O   0  0  0  0  0  0  0  0  0  0  0  0
    0.1357    0.2062    0.0000 O   0  0  0  0  0  0  0  0  0  0  0  0
    2.9936   -2.2687    0.0000 O   0  0  0  0  0  0  0  0  0  0  0  0
   -2.0076    2.2687    0.0000 O   0  0  0  0  0  0  0  0  0  0  0  0
   -2.0076    3.9187    0.0000 O   0  0  0  0  0  0  0  0  0  0  0  0
    2.2791    6.3937    0.0000 O   0  0  0  0  0  0  0  0  0  0  0  0
    3.1041    5.5687    0.0000 O   0  0  0  0  0  0  0  0  0  0  0  0
   -0.5787    3.9187    0.0000 O   0  0  0  0  0  0  0  0  0  0  0  0
    1.4541    5.5687    0.0000 O   0  0  0  0  0  0  0  0  0  0  0  0
    1.5646   -6.3937    0.0000 O   0  0  0  0  0  0  0  0  0  0  0  0
    0.7396   -5.5687    0.0000 O   0  0  0  0  0  0  0  0  0  0  0  0
    2.3896   -5.5687    0.0000 O   0  0  0  0  0  0  0  0  0  0  0  0
    0.8502    1.4437    0.0000 N   0  0  0  0  0  0  0  0  0  0  0  0
    2.2791   -0.2062    0.0000 N   0  0  0  0  0  0  0  0  0  0  0  0
   -1.2931    1.0312    0.0000 N   0  0  0  0  0  0  0  0  0  0  0  0
    3.7081   -1.0312    0.0000 N   0  0  0  0  0  0  0  0  0  0  0  0
    1.5646    1.0312    0.0000 C   0  0  1  0  0  0  0  0  0  0  0  0
    2.2791    1.4437    0.0000 C   0  0  0  0  0  0  0  0  0  0  0  0
    2.2791   -1.0312    0.0000 C   0  0  1  0  0  0  0  0  0  0  0  0
   -0.5787    1.4437    0.0000 C   0  0  2  0  0  0  0  0  0  0  0  0
    1.5646    0.2062    0.0000 C   0  0  0  0  0  0  0  0  0  0  0  0
    1.5646   -1.4437    0.0000 C   0  0  0  0  0  0  0  0  0  0  0  0
    2.2791    2.2687    0.0000 C   0  0  0  0  0  0  0  0  0  0  0  0
    0.1357    1.0312    0.0000 C   0  0  0  0  0  0  0  0  0  0  0  0
   -0.5787    2.2687    0.0000 C   0  0  0  0  0  0  0  0  0  0  0  0
    1.5646   -2.2687    0.0000 C   0  0  0  0  0  0  0  0  0  0  0  0
    1.5646    2.6812    0.0000 C   0  0  0  0  0  0  0  0  0  0  0  0
    2.9936    2.6812    0.0000 C   0  0  0  0  0  0  0  0  0  0  0  0
   -1.2931    2.6812    0.0000 C   0  0  0  0  0  0  0  0  0  0  0  0
    2.9936   -1.4437    0.0000 C   0  0  0  0  0  0  0  0  0  0  0  0
    2.2791    3.9187    0.0000 C   0  0  0  0  0  0  0  0  0  0  0  0
    1.5646    3.5062    0.0000 C   0  0  0  0  0  0  0  0  0  0  0  0
    2.9936    3.5062    0.0000 C   0  0  0  0  0  0  0  0  0  0  0  0
    0.8502   -2.6812    0.0000 C   0  0  0  0  0  0  0  0  0  0  0  0
    2.2791   -2.6812    0.0000 C   0  0  0  0  0  0  0  0  0  0  0  0
    2.2791    4.7437    0.0000 C   0  0  0  0  0  0  0  0  0  0  0  0
    1.5646   -3.9187    0.0000 C   0  0  0  0  0  0  0  0  0  0  0  0
    0.8502   -3.5062    0.0000 C   0  0  0  0  0  0  0  0  0  0  0  0
    2.2791   -3.5062    0.0000 C   0  0  0  0  0  0  0  0  0  0  0  0
   -2.0076    1.4437    0.0000 C   0  0  0  0  0  0  0  0  0  0  0  0
    1.5646   -4.7437    0.0000 C   0  0  0  0  0  0  0  0  0  0  0  0
   -1.2931    3.5062    0.0000 C   0  0  0  0  0  0  0  0  0  0  0  0
   -2.7220    1.0312    0.0000 C   0  0  0  0  0  0  0  0  0  0  0  0
   -2.7220    0.2062    0.0000 C   0  0  0  0  0  0  0  0  0  0  0  0
   -3.4366    1.4437    0.0000 C   0  0  0  0  0  0  0  0  0  0  0  0
   -3.4366   -0.2062    0.0000 C   0  0  0  0  0  0  0  0  0  0  0  0
   -4.1510    1.0312    0.0000 C   0  0  0  0  0  0  0  0  0  0  0  0
   -4.1510    0.2062    0.0000 C   0  0  0  0  0  0  0  0  0  0  0  0
    0.8502    1.9552    0.0000 H   0  0  0  0  0  0  0  0  0  0  0  0
    2.7221    0.0495    0.0000 H   0  0  0  0  0  0  0  0  0  0  0  0
   -1.2931    0.5197    0.0000 H   0  0  0  0  0  0  0  0  0  0  0  0
    3.7081   -0.5197    0.0000 H   0  0  0  0  0  0  0  0  0  0  0  0
    4.1510   -1.2870    0.0000 H   0  0  0  0  0  0  0  0  0  0  0  0
   -2.0076    4.8557    0.0000 H   0  0  0  0  0  0  0  0  0  0  0  0
    3.1191    6.8787    0.0000 H   0  0  0  0  0  0  0  0  0  0  0  0
    3.5891    4.7287    0.0000 H   0  0  0  0  0  0  0  0  0  0  0  0
    0.7246   -6.8787    0.0000 H   0  0  0  0  0  0  0  0  0  0  0  0
    0.2546   -4.7287    0.0000 H   0  0  0  0  0  0  0  0  0  0  0  0
    1.5646    2.1012    0.0000 H   0  0  0  0  0  0  0  0  0  0  0  0
    3.2057    0.9087    0.0000 H   0  0  0  0  0  0  0  0  0  0  0  0
    3.2057    1.9787    0.0000 H   0  0  0  0  0  0  0  0  0  0  0  0
    1.3525   -0.4962    0.0000 H   0  0  0  0  0  0  0  0  0  0  0  0
   -0.5787    0.3737    0.0000 H   0  0  0  0  0  0  0  0  0  0  0  0
    0.6380   -0.9087    0.0000 H   0  0  0  0  0  0  0  0  0  0  0  0
    0.6380   -1.9787    0.0000 H   0  0  0  0  0  0  0  0  0  0  0  0
    0.3480    2.8037    0.0000 H   0  0  0  0  0  0  0  0  0  0  0  0
   -0.5787    3.3387    0.0000 H   0  0  0  0  0  0  0  0  0  0  0  0
    0.6709    2.1652    0.0000 H   0  0  0  0  0  0  0  0  0  0  0  0
    3.8873    2.1652    0.0000 H   0  0  0  0  0  0  0  0  0  0  0  0
   -2.2198    2.1462    0.0000 H   0  0  0  0  0  0  0  0  0  0  0  0
   -2.2197    3.2162    0.0000 H   0  0  0  0  0  0  0  0  0  0  0  0
    0.6709    4.0222    0.0000 H   0  0  0  0  0  0  0  0  0  0  0  0
    3.8873    4.0222    0.0000 H   0  0  0  0  0  0  0  0  0  0  0  0
   -0.0435   -2.1652    0.0000 H   0  0  0  0  0  0  0  0  0  0  0  0
    3.1728   -2.1652    0.0000 H   0  0  0  0  0  0  0  0  0  0  0  0
   -0.0435   -4.0222    0.0000 H   0  0  0  0  0  0  0  0  0  0  0  0
    3.1728   -4.0222    0.0000 H   0  0  0  0  0  0  0  0  0  0  0  0
   -1.8283   -0.3099    0.0000 H   0  0  0  0  0  0  0  0  0  0  0  0
   -3.4367    2.4757    0.0000 H   0  0  0  0  0  0  0  0  0  0  0  0
   -3.4367   -1.2382    0.0000 H   0  0  0  0  0  0  0  0  0  0  0  0
   -5.0447    1.5472    0.0000 H   0  0  0  0  0  0  0  0  0  0  0  0
   -5.0447   -0.3098    0.0000 H   0  0  0  0  0  0  0  0  0  0  0  0
  1 12  1  0  0  0  0
  1 13  1  0  0  0  0
  1 15  2  0  0  0  0
  1 42  1  0  0  0  0
  2 16  1  0  0  0  0
  2 17  1  0  0  0  0
  2 18  2  0  0  0  0
  2 47  1  0  0  0  0
  3 42  1  0  0  0  0
  4 42  1  0  0  0  0
  5 47  1  0  0  0  0
  6 47  1  0  0  0  0
  7 27  2  0  0  0  0
  8 30  2  0  0  0  0
  9 36  2  0  0  0  0
 10 46  2  0  0  0  0
 11 48  1  0  0  0  0
 11 60  1  0  0  0  0
 12 61  1  0  0  0  0
 13 62  1  0  0  0  0
 14 48  2  0  0  0  0
 16 63  1  0  0  0  0
 17 64  1  0  0  0  0
 19 30  1  0  0  0  0
 19 55  1  0  0  0  0
 20 27  1  0  0  0  0
 20 56  1  0  0  0  0
 21 46  1  0  0  0  0
 21 57  1  0  0  0  0
 22 36  1  0  0  0  0
 22 58  1  0  0  0  0
 22 59  1  0  0  0  0
 23 19  1  0  0  0  0
 23 24  1  0  0  0  0
 23 27  1  0  0  0  0
 23 65  1  6  0  0  0
 24 29  1  0  0  0  0
 24 66  1  0  0  0  0
 24 67  1  0  0  0  0
 25 20  1  0  0  0  0
 25 28  1  0  0  0  0
 25 36  1  0  0  0  0
 25 68  1  1  0  0  0
 26 21  1  0  0  0  0
 26 30  1  0  0  0  0
 26 31  1  0  0  0  0
 26 69  1  6  0  0  0
 28 32  1  0  0  0  0
 28 70  1  0  0  0  0
 28 71  1  0  0  0  0
 29 33  2  0  0  0  0
 29 34  1  0  0  0  0
 31 35  1  0  0  0  0
 31 72  1  0  0  0  0
 31 73  1  0  0  0  0
 32 40  2  0  0  0  0
 32 41  1  0  0  0  0
 33 38  1  0  0  0  0
 33 74  1  0  0  0  0
 34 39  2  0  0  0  0
 34 75  1  0  0  0  0
 35 48  1  0  0  0  0
 35 76  1  0  0  0  0
 35 77  1  0  0  0  0
 37 38  2  0  0  0  0
 37 39  1  0  0  0  0
 37 42  1  0  0  0  0
 38 78  1  0  0  0  0
 39 79  1  0  0  0  0
 40 44  1  0  0  0  0
 40 80  1  0  0  0  0
 41 45  2  0  0  0  0
 41 81  1  0  0  0  0
 43 44  2  0  0  0  0
 43 45  1  0  0  0  0
 43 47  1  0  0  0  0
 44 82  1  0  0  0  0
 45 83  1  0  0  0  0
 46 49  1  0  0  0  0
 49 50  2  0  0  0  0
 49 51  1  0  0  0  0
 50 52  1  0  0  0  0
 50 84  1  0  0  0  0
 51 53  2  0  0  0  0
 51 85  1  0  0  0  0
 52 54  2  0  0  0  0
 52 86  1  0  0  0  0
 53 54  1  0  0  0  0
 53 87  1  0  0  0  0
 54 88  1  0  0  0  0
M  END
>  <DRUGBANK_ID>
DB03483

>  <SECONDARY_ACCESSION_NUMBERS>
EXPT00686

>  <COMMON_NAME>
(4S)-5-[[(2S)-1-[[(2S)-1-Amino-3-[4-[difluoro(phosphono)methyl]phenyl]-1-oxopropan-2-yl]amino]-3-[4-[difluoro(phosphono)methyl]phenyl]-1-oxopropan-2-yl]amino]-4-benzamido-5-oxopentanoic acid

$$$$
