
 OpenBabel10282417072D

 44 47  0  0  0  0  0  0  0  0999 V2000
    0.7757   -0.2133    0.0000 C   0  0  2  0  0  0  0  0  0  0  0  0
   -0.6609   -0.2057    0.0000 C   0  0  0  0  0  0  0  0  0  0  0  0
    2.1974   -0.2207    0.0000 C   0  0  0  0  0  0  0  0  0  0  0  0
    0.0548   -0.6172    0.0000 C   0  0  0  0  0  0  0  0  0  0  0  0
    1.4865   -0.6248    0.0000 C   0  0  0  0  0  0  0  0  0  0  0  0
   -1.3793   -0.6172    0.0000 C   0  0  0  0  0  0  0  0  0  0  0  0
    2.2049    0.6098    0.0000 C   0  0  0  0  0  0  0  0  0  0  0  0
   -2.0901   -0.1982    0.0000 C   0  0  0  0  0  0  0  0  0  0  0  0
    0.7757    0.6172    0.0000 C   0  0  2  0  0  0  0  0  0  0  0  0
   -0.6609    0.6248    0.0000 C   0  0  2  0  0  0  0  0  0  0  0  0
   -2.0901    0.5724    0.0000 C   0  0  0  0  0  0  0  0  0  0  0  0
    2.8784   -0.5026    0.0000 C   0  0  0  0  0  0  0  0  0  0  0  0
    1.4940    1.0288    0.0000 C   0  0  0  0  0  0  0  0  0  0  0  0
    0.0623    1.0313    0.0000 C   0  0  0  0  0  0  0  0  0  0  0  0
   -1.3718    1.0389    0.0000 C   0  0  0  0  0  0  0  0  0  0  0  0
    1.4865   -1.4554    0.0000 O   0  0  0  0  0  0  0  0  0  0  0  0
   -1.3793   -1.4404    0.0000 O   0  0  0  0  0  0  0  0  0  0  0  0
   -2.7636   -0.5849    0.0000 C   0  0  0  0  0  0  0  0  0  0  0  0
    2.8784   -1.1685    0.0000 O   0  0  0  0  0  0  0  0  0  0  0  0
    0.0548   -1.4479    0.0000 O   0  0  0  0  0  0  0  0  0  0  0  0
    2.7138    0.9316    0.0000 O   0  0  0  0  0  0  0  0  0  0  0  0
    3.4246   -0.1159    0.0000 N   0  0  0  0  0  0  0  0  0  0  0  0
   -2.7562    0.9640    0.0000 C   0  0  0  0  0  0  0  0  0  0  0  0
   -2.7636   -1.4080    0.0000 O   0  0  0  0  0  0  0  0  0  0  0  0
   -3.4246    0.5799    0.0000 C   0  0  0  0  0  0  0  0  0  0  0  0
   -3.4246   -0.1907    0.0000 C   0  0  0  0  0  0  0  0  0  0  0  0
   -0.6634    1.4554    0.0000 H   0  0  0  0  0  0  0  0  0  0  0  0
    0.7732    1.4479    0.0000 H   0  0  0  0  0  0  0  0  0  0  0  0
    0.7732   -1.0389    0.0000 O   0  0  0  0  0  0  0  0  0  0  0  0
    1.5005    2.0988    0.0000 H   0  0  0  0  0  0  0  0  0  0  0  0
    0.5699    1.5681    0.0000 H   0  0  0  0  0  0  0  0  0  0  0  0
    0.0697    2.1013    0.0000 H   0  0  0  0  0  0  0  0  0  0  0  0
    0.9914    1.5620    0.0000 H   0  0  0  0  0  0  0  0  0  0  0  0
   -1.3978    2.1086    0.0000 H   0  0  0  0  0  0  0  0  0  0  0  0
   -0.4507    1.5833    0.0000 H   0  0  0  0  0  0  0  0  0  0  0  0
   -0.7567   -1.9164    0.0000 H   0  0  0  0  0  0  0  0  0  0  0  0
    3.5435    0.4961    0.0000 H   0  0  0  0  0  0  0  0  0  0  0  0
    4.3190   -0.5273    0.0000 H   0  0  0  0  0  0  0  0  0  0  0  0
    3.3337    0.8644    0.0000 H   0  0  0  0  0  0  0  0  0  0  0  0
   -2.7511    1.9960    0.0000 H   0  0  0  0  0  0  0  0  0  0  0  0
   -3.5751   -1.8765    0.0000 H   0  0  0  0  0  0  0  0  0  0  0  0
   -4.3178    1.0968    0.0000 H   0  0  0  0  0  0  0  0  0  0  0  0
   -4.3220   -0.7004    0.0000 H   0  0  0  0  0  0  0  0  0  0  0  0
   -0.0683   -1.5214    0.0000 H   0  0  0  0  0  0  0  0  0  0  0  0
  1 29  1  6  0  0  0
  2 10  1  0  0  0  0
  2  4  2  0  0  0  0
  3  5  1  0  0  0  0
  4  1  1  0  0  0  0
  5  1  1  0  0  0  0
  6  2  1  0  0  0  0
  7 13  1  0  0  0  0
  7  3  2  0  0  0  0
  8  6  1  0  0  0  0
  8 11  2  0  0  0  0
  9  1  1  0  0  0  0
  9 28  1  6  0  0  0
 10 14  1  0  0  0  0
 10 27  1  6  0  0  0
 11 15  1  0  0  0  0
 12  3  1  0  0  0  0
 13  9  1  0  0  0  0
 13 30  1  0  0  0  0
 13 31  1  0  0  0  0
 14  9  1  0  0  0  0
 14 32  1  0  0  0  0
 14 33  1  0  0  0  0
 15 10  1  0  0  0  0
 15 34  1  0  0  0  0
 15 35  1  0  0  0  0
 16  5  2  0  0  0  0
 17  6  2  0  0  0  0
 18  8  1  0  0  0  0
 19 12  2  0  0  0  0
 20  4  1  0  0  0  0
 20 36  1  0  0  0  0
 21  7  1  0  0  0  0
 21 37  1  0  0  0  0
 22 12  1  0  0  0  0
 22 38  1  0  0  0  0
 22 39  1  0  0  0  0
 23 11  1  0  0  0  0
 23 40  1  0  0  0  0
 24 18  1  0  0  0  0
 24 41  1  0  0  0  0
 25 23  2  0  0  0  0
 25 42  1  0  0  0  0
 26 18  2  0  0  0  0
 26 25  1  0  0  0  0
 26 43  1  0  0  0  0
 29 44  1  0  0  0  0
M  END
>  <DRUGBANK_ID>
DB11647

>  <COMMON_NAME>
Incyclinide

>  <CAS_NUMBER>
15866-90-7

>  <UNII>
21G64WZQ4I

>  <SYNONYMS>
Incyclinide

$$$$
