3BM
 OpenBabel10282417072D

 40 41  0  0  0  0  0  0  0  0999 V2000
   -2.9234   -0.9946    0.0000 C   0  0  0  0  0  0  0  0  0  0  0  0
   -3.6379   -0.5821    0.0000 C   0  0  0  0  0  0  0  0  0  0  0  0
   -4.3524   -0.9946    0.0000 C   0  0  0  0  0  0  0  0  0  0  0  0
   -4.3524   -1.8196    0.0000 C   0  0  0  0  0  0  0  0  0  0  0  0
   -3.6379   -2.2321    0.0000 C   0  0  0  0  0  0  0  0  0  0  0  0
   -2.9234   -1.8196    0.0000 C   0  0  0  0  0  0  0  0  0  0  0  0
   -2.2090   -0.5821    0.0000 N   0  0  0  0  0  0  0  0  0  0  0  0
   -2.2090    0.2429    0.0000 C   0  0  0  0  0  0  0  0  0  0  0  0
   -1.4945    0.6554    0.0000 C   0  0  0  0  0  0  0  0  0  0  0  0
   -1.4945    1.4804    0.0000 C   0  0  0  0  0  0  0  0  0  0  0  0
   -2.2090    1.8929    0.0000 C   0  0  0  0  0  0  0  0  0  0  0  0
   -2.9234    1.4804    0.0000 C   0  0  0  0  0  0  0  0  0  0  0  0
   -2.9234    0.6554    0.0000 C   0  0  0  0  0  0  0  0  0  0  0  0
   -0.7800    0.2429    0.0000 C   0  0  0  0  0  0  0  0  0  0  0  0
   -0.0656    0.6554    0.0000 N   0  0  0  0  0  0  0  0  0  0  0  0
   -0.7800   -0.5821    0.0000 O   0  0  0  0  0  0  0  0  0  0  0  0
    0.6489    0.2429    0.0000 O   0  0  0  0  0  0  0  0  0  0  0  0
    1.3634    0.6554    0.0000 C   0  0  0  0  0  0  0  0  0  0  0  0
    2.0778    0.2429    0.0000 C   0  0  1  0  0  0  0  0  0  0  0  0
    2.7923    0.6554    0.0000 C   0  0  0  0  0  0  0  0  0  0  0  0
    2.0778   -0.5821    0.0000 O   0  0  0  0  0  0  0  0  0  0  0  0
    3.5068    0.2429    0.0000 O   0  0  0  0  0  0  0  0  0  0  0  0
   -5.0669   -2.2321    0.0000 I   0  0  0  0  0  0  0  0  0  0  0  0
   -2.2090   -2.2321    0.0000 Cl  0  0  0  0  0  0  0  0  0  0  0  0
   -3.6379    0.2429    0.0000 F   0  0  0  0  0  0  0  0  0  0  0  0
   -3.6379    1.8929    0.0000 F   0  0  0  0  0  0  0  0  0  0  0  0
    2.0778    0.8268    0.0000 H   0  0  0  0  0  0  0  0  0  0  0  0
   -3.6379    0.4499    0.0000 H   0  0  0  0  0  0  0  0  0  0  0  0
   -5.2461   -0.4786    0.0000 H   0  0  0  0  0  0  0  0  0  0  0  0
   -3.6379   -3.2641    0.0000 H   0  0  0  0  0  0  0  0  0  0  0  0
   -1.3564   -1.0743    0.0000 H   0  0  0  0  0  0  0  0  0  0  0  0
   -0.6008    1.9964    0.0000 H   0  0  0  0  0  0  0  0  0  0  0  0
   -2.2090    2.9249    0.0000 H   0  0  0  0  0  0  0  0  0  0  0  0
   -0.0656    1.6399    0.0000 H   0  0  0  0  0  0  0  0  0  0  0  0
    1.3634    1.7254    0.0000 H   0  0  0  0  0  0  0  0  0  0  0  0
    2.2901    1.1904    0.0000 H   0  0  0  0  0  0  0  0  0  0  0  0
    2.7923    1.7254    0.0000 H   0  0  0  0  0  0  0  0  0  0  0  0
    3.7189    1.1904    0.0000 H   0  0  0  0  0  0  0  0  0  0  0  0
    1.2378   -1.0671    0.0000 H   0  0  0  0  0  0  0  0  0  0  0  0
    3.5068   -0.7271    0.0000 H   0  0  0  0  0  0  0  0  0  0  0  0
  1  7  1  0  0  0  0
  1  6  1  0  0  0  0
  2  1  2  0  0  0  0
  2 28  1  0  0  0  0
  3  2  1  0  0  0  0
  3  4  2  0  0  0  0
  3 29  1  0  0  0  0
  4  5  1  0  0  0  0
  5  6  2  0  0  0  0
  5 30  1  0  0  0  0
  6 24  1  0  0  0  0
  7 31  1  0  0  0  0
  8  7  1  0  0  0  0
  9  8  1  0  0  0  0
  9 14  1  0  0  0  0
 10  9  2  0  0  0  0
 10 32  1  0  0  0  0
 11 10  1  0  0  0  0
 11 12  2  0  0  0  0
 11 33  1  0  0  0  0
 12 13  1  0  0  0  0
 13  8  2  0  0  0  0
 13 25  1  0  0  0  0
 14 16  2  0  0  0  0
 15 14  1  0  0  0  0
 15 17  1  0  0  0  0
 15 34  1  0  0  0  0
 17 18  1  0  0  0  0
 18 19  1  0  0  0  0
 18 35  1  0  0  0  0
 18 36  1  0  0  0  0
 19 20  1  0  0  0  0
 19 21  1  0  0  0  0
 19 27  1  6  0  0  0
 20 22  1  0  0  0  0
 20 37  1  0  0  0  0
 20 38  1  0  0  0  0
 21 39  1  0  0  0  0
 22 40  1  0  0  0  0
 23  4  1  0  0  0  0
 26 12  1  0  0  0  0
M  END
>  <DRUGBANK_ID>
DB07046

>  <COMMON_NAME>
2-[(2-chloro-4-iodophenyl)amino]-N-{[(2R)-2,3-dihydroxypropyl]oxy}-3,4-difluorobenzamide

$$$$
