
 OpenBabel10282417072D

103105  0  0  0  0  0  0  0  0999 V2000
   -6.0730   -0.6312    0.0000 C   0  0  0  0  0  0  0  0  0  0  0  0
    0.3571   -1.0437    0.0000 C   0  0  0  0  0  0  0  0  0  0  0  0
   -5.3585   -1.0437    0.0000 O   0  0  0  0  0  0  0  0  0  0  0  0
   -4.6441   -0.6312    0.0000 C   0  0  0  0  0  0  0  0  0  0  0  0
   -4.6441    0.1937    0.0000 O   0  0  0  0  0  0  0  0  0  0  0  0
   -2.5006   -1.0437    0.0000 C   0  0  0  0  0  0  0  0  0  0  0  0
   -2.5006   -1.8687    0.0000 O   0  0  0  0  0  0  0  0  0  0  0  0
   -3.9296   -1.0437    0.0000 N   0  0  0  0  0  0  0  0  0  0  0  0
   -1.7862   -0.6312    0.0000 N   0  0  0  0  0  0  0  0  0  0  0  0
    1.7861   -1.0437    0.0000 N   0  0  0  0  0  0  0  0  0  0  0  0
    3.9296   -0.6312    0.0000 N   0  0  0  0  0  0  0  0  0  0  0  0
    6.0729   -1.0437    0.0000 C   0  0  0  0  0  0  0  0  0  0  0  0
    5.3584   -0.6312    0.0000 O   0  0  0  0  0  0  0  0  0  0  0  0
    4.6440   -1.0437    0.0000 C   0  0  0  0  0  0  0  0  0  0  0  0
    4.6440   -1.8687    0.0000 O   0  0  0  0  0  0  0  0  0  0  0  0
    2.5006   -0.6312    0.0000 C   0  0  0  0  0  0  0  0  0  0  0  0
    2.5006    0.1937    0.0000 O   0  0  0  0  0  0  0  0  0  0  0  0
   -0.3572   -0.6312    0.0000 C   0  0  1  0  0  0  0  0  0  0  0  0
   -3.2151   -0.6312    0.0000 C   0  0  1  0  0  0  0  0  0  0  0  0
    3.2150   -1.0437    0.0000 C   0  0  2  0  0  0  0  0  0  0  0  0
   -1.0717   -1.0437    0.0000 C   0  0  2  0  0  0  0  0  0  0  0  0
   -0.3572    0.1937    0.0000 O   0  0  0  0  0  0  0  0  0  0  0  0
   -1.0717   -1.8687    0.0000 C   0  0  0  0  0  0  0  0  0  0  0  0
   -0.3572   -2.2812    0.0000 C   0  0  0  0  0  0  0  0  0  0  0  0
    0.3571   -1.8687    0.0000 C   0  0  0  0  0  0  0  0  0  0  0  0
   -0.3572   -3.1063    0.0000 C   0  0  0  0  0  0  0  0  0  0  0  0
    0.3571   -3.5188    0.0000 C   0  0  0  0  0  0  0  0  0  0  0  0
    1.0716   -3.1063    0.0000 C   0  0  0  0  0  0  0  0  0  0  0  0
    1.0716   -2.2812    0.0000 C   0  0  0  0  0  0  0  0  0  0  0  0
    1.0716   -0.6312    0.0000 N   0  0  0  0  0  0  0  0  0  0  0  0
    1.0716    0.6312    0.0000 C   0  0  0  0  0  0  0  0  0  0  0  0
    1.7861    1.0437    0.0000 C   0  0  0  0  0  0  0  0  0  0  0  0
    2.5005    2.2813    0.0000 C   0  0  0  0  0  0  0  0  0  0  0  0
    1.7861    1.8687    0.0000 C   0  0  0  0  0  0  0  0  0  0  0  0
    2.5005    0.6311    0.0000 C   0  0  0  0  0  0  0  0  0  0  0  0
    3.2150    1.0437    0.0000 C   0  0  0  0  0  0  0  0  0  0  0  0
    3.2150    1.8687    0.0000 C   0  0  0  0  0  0  0  0  0  0  0  0
    3.9296    2.2813    0.0000 C   0  0  0  0  0  0  0  0  0  0  0  0
    4.6439    3.5188    0.0000 C   0  0  0  0  0  0  0  0  0  0  0  0
    3.9296    3.1062    0.0000 C   0  0  0  0  0  0  0  0  0  0  0  0
    5.3584    2.2813    0.0000 C   0  0  0  0  0  0  0  0  0  0  0  0
    5.3584    3.1062    0.0000 C   0  0  0  0  0  0  0  0  0  0  0  0
    4.6439    1.8687    0.0000 N   0  0  0  0  0  0  0  0  0  0  0  0
    3.2150   -1.8687    0.0000 C   0  0  0  0  0  0  0  0  0  0  0  0
   -3.2151    0.1937    0.0000 C   0  0  0  0  0  0  0  0  0  0  0  0
   -2.5006    0.6062    0.0000 C   0  0  0  0  0  0  0  0  0  0  0  0
   -3.9296    0.6062    0.0000 C   0  0  0  0  0  0  0  0  0  0  0  0
   -3.2151    1.0188    0.0000 C   0  0  0  0  0  0  0  0  0  0  0  0
    3.9294   -2.2812    0.0000 C   0  0  0  0  0  0  0  0  0  0  0  0
    2.5005   -2.2812    0.0000 C   0  0  0  0  0  0  0  0  0  0  0  0
    3.2150   -2.6937    0.0000 C   0  0  0  0  0  0  0  0  0  0  0  0
   -6.0730    0.4388    0.0000 H   0  0  0  0  0  0  0  0  0  0  0  0
   -6.9996   -1.1662    0.0000 H   0  0  0  0  0  0  0  0  0  0  0  0
   -6.9997   -0.0962    0.0000 H   0  0  0  0  0  0  0  0  0  0  0  0
    0.3570   -2.1137    0.0000 H   0  0  0  0  0  0  0  0  0  0  0  0
    1.2837   -1.5787    0.0000 H   0  0  0  0  0  0  0  0  0  0  0  0
   -3.9296   -2.0282    0.0000 H   0  0  0  0  0  0  0  0  0  0  0  0
   -1.7862    0.3533    0.0000 H   0  0  0  0  0  0  0  0  0  0  0  0
    1.7861   -2.0282    0.0000 H   0  0  0  0  0  0  0  0  0  0  0  0
    3.9297    0.3533    0.0000 H   0  0  0  0  0  0  0  0  0  0  0  0
    6.0729   -2.1137    0.0000 H   0  0  0  0  0  0  0  0  0  0  0  0
    6.9995   -0.5087    0.0000 H   0  0  0  0  0  0  0  0  0  0  0  0
    6.9996   -1.5787    0.0000 H   0  0  0  0  0  0  0  0  0  0  0  0
   -1.2838   -0.0962    0.0000 H   0  0  0  0  0  0  0  0  0  0  0  0
   -4.1417   -0.0962    0.0000 H   0  0  0  0  0  0  0  0  0  0  0  0
    2.2883   -1.5787    0.0000 H   0  0  0  0  0  0  0  0  0  0  0  0
   -1.9983   -1.5787    0.0000 H   0  0  0  0  0  0  0  0  0  0  0  0
    0.4828    0.6787    0.0000 H   0  0  0  0  0  0  0  0  0  0  0  0
   -1.9983   -2.4037    0.0000 H   0  0  0  0  0  0  0  0  0  0  0  0
   -1.0717   -2.9387    0.0000 H   0  0  0  0  0  0  0  0  0  0  0  0
    0.3570   -0.8367    0.0000 H   0  0  0  0  0  0  0  0  0  0  0  0
   -1.2510   -3.6223    0.0000 H   0  0  0  0  0  0  0  0  0  0  0  0
    0.3570   -4.5508    0.0000 H   0  0  0  0  0  0  0  0  0  0  0  0
    1.9653   -3.6223    0.0000 H   0  0  0  0  0  0  0  0  0  0  0  0
    1.9653   -1.7652    0.0000 H   0  0  0  0  0  0  0  0  0  0  0  0
    0.1450    1.1662    0.0000 H   0  0  0  0  0  0  0  0  0  0  0  0
    1.0716    1.7012    0.0000 H   0  0  0  0  0  0  0  0  0  0  0  0
    2.5005    3.3133    0.0000 H   0  0  0  0  0  0  0  0  0  0  0  0
    0.8923    2.3846    0.0000 H   0  0  0  0  0  0  0  0  0  0  0  0
    2.5005   -0.4009    0.0000 H   0  0  0  0  0  0  0  0  0  0  0  0
    4.1088    0.5277    0.0000 H   0  0  0  0  0  0  0  0  0  0  0  0
    4.6438    4.5508    0.0000 H   0  0  0  0  0  0  0  0  0  0  0  0
    3.0358    3.6221    0.0000 H   0  0  0  0  0  0  0  0  0  0  0  0
    6.2522    1.7653    0.0000 H   0  0  0  0  0  0  0  0  0  0  0  0
    6.2522    3.6222    0.0000 H   0  0  0  0  0  0  0  0  0  0  0  0
   -1.5740    0.0712    0.0000 H   0  0  0  0  0  0  0  0  0  0  0  0
   -2.5006    1.6762    0.0000 H   0  0  0  0  0  0  0  0  0  0  0  0
   -1.5739    1.1412    0.0000 H   0  0  0  0  0  0  0  0  0  0  0  0
   -3.9296    1.6762    0.0000 H   0  0  0  0  0  0  0  0  0  0  0  0
   -4.8562    0.0712    0.0000 H   0  0  0  0  0  0  0  0  0  0  0  0
   -4.8563    1.1412    0.0000 H   0  0  0  0  0  0  0  0  0  0  0  0
   -2.2885    1.5538    0.0000 H   0  0  0  0  0  0  0  0  0  0  0  0
   -4.1417    1.5538    0.0000 H   0  0  0  0  0  0  0  0  0  0  0  0
   -3.2151    2.0888    0.0000 H   0  0  0  0  0  0  0  0  0  0  0  0
    3.9294   -3.3512    0.0000 H   0  0  0  0  0  0  0  0  0  0  0  0
    4.8561   -1.7462    0.0000 H   0  0  0  0  0  0  0  0  0  0  0  0
    4.8560   -2.8162    0.0000 H   0  0  0  0  0  0  0  0  0  0  0  0
    1.5739   -1.7462    0.0000 H   0  0  0  0  0  0  0  0  0  0  0  0
    2.5005   -3.3512    0.0000 H   0  0  0  0  0  0  0  0  0  0  0  0
    1.5738   -2.8162    0.0000 H   0  0  0  0  0  0  0  0  0  0  0  0
    2.2884   -3.2287    0.0000 H   0  0  0  0  0  0  0  0  0  0  0  0
    4.1416   -3.2287    0.0000 H   0  0  0  0  0  0  0  0  0  0  0  0
    3.2150   -3.7637    0.0000 H   0  0  0  0  0  0  0  0  0  0  0  0
  1  3  1  0  0  0  0
  1 52  1  0  0  0  0
  1 53  1  0  0  0  0
  1 54  1  0  0  0  0
  2 30  1  0  0  0  0
  2 55  1  0  0  0  0
  2 56  1  0  0  0  0
  3  4  1  0  0  0  0
  4  8  1  0  0  0  0
  4  5  2  0  0  0  0
  6  9  1  0  0  0  0
  6  7  2  0  0  0  0
  8 19  1  0  0  0  0
  8 57  1  0  0  0  0
  9 21  1  0  0  0  0
  9 58  1  0  0  0  0
 10 16  1  0  0  0  0
 10 59  1  0  0  0  0
 11 14  1  0  0  0  0
 11 60  1  0  0  0  0
 12 61  1  0  0  0  0
 12 62  1  0  0  0  0
 12 63  1  0  0  0  0
 13 12  1  0  0  0  0
 14 13  1  0  0  0  0
 14 15  2  0  0  0  0
 16 20  1  0  0  0  0
 16 17  2  0  0  0  0
 18  2  1  0  0  0  0
 18 22  1  0  0  0  0
 18 64  1  6  0  0  0
 19  6  1  0  0  0  0
 19 45  1  0  0  0  0
 19 65  1  6  0  0  0
 20 11  1  0  0  0  0
 20 44  1  0  0  0  0
 20 66  1  6  0  0  0
 21 18  1  0  0  0  0
 21 23  1  0  0  0  0
 21 67  1  1  0  0  0
 22 68  1  0  0  0  0
 23 24  1  0  0  0  0
 23 69  1  0  0  0  0
 23 70  1  0  0  0  0
 24 26  1  0  0  0  0
 25 24  2  0  0  0  0
 25 29  1  0  0  0  0
 25 71  1  0  0  0  0
 26 27  2  0  0  0  0
 26 72  1  0  0  0  0
 27 28  1  0  0  0  0
 27 73  1  0  0  0  0
 28 29  2  0  0  0  0
 28 74  1  0  0  0  0
 29 75  1  0  0  0  0
 30 10  1  0  0  0  0
 30 31  1  0  0  0  0
 31 32  1  0  0  0  0
 31 76  1  0  0  0  0
 31 77  1  0  0  0  0
 32 35  1  0  0  0  0
 33 34  1  0  0  0  0
 33 37  2  0  0  0  0
 33 78  1  0  0  0  0
 34 32  2  0  0  0  0
 34 79  1  0  0  0  0
 35 36  2  0  0  0  0
 35 80  1  0  0  0  0
 36 37  1  0  0  0  0
 36 81  1  0  0  0  0
 37 38  1  0  0  0  0
 38 43  1  0  0  0  0
 39 40  1  0  0  0  0
 39 42  2  0  0  0  0
 39 82  1  0  0  0  0
 40 38  2  0  0  0  0
 40 83  1  0  0  0  0
 41 42  1  0  0  0  0
 41 84  1  0  0  0  0
 42 85  1  0  0  0  0
 43 41  2  0  0  0  0
 44 49  1  0  0  0  0
 44 50  1  0  0  0  0
 44 51  1  0  0  0  0
 45 46  1  0  0  0  0
 45 47  1  0  0  0  0
 45 48  1  0  0  0  0
 46 86  1  0  0  0  0
 46 87  1  0  0  0  0
 46 88  1  0  0  0  0
 47 89  1  0  0  0  0
 47 90  1  0  0  0  0
 47 91  1  0  0  0  0
 48 92  1  0  0  0  0
 48 93  1  0  0  0  0
 48 94  1  0  0  0  0
 49 95  1  0  0  0  0
 49 96  1  0  0  0  0
 49 97  1  0  0  0  0
 50 98  1  0  0  0  0
 50 99  1  0  0  0  0
 50100  1  0  0  0  0
 51101  1  0  0  0  0
 51102  1  0  0  0  0
 51103  1  0  0  0  0
M  END
>  <DRUGBANK_ID>
DB01072

>  <SECONDARY_ACCESSION_NUMBERS>
APRD00804

>  <COMMON_NAME>
Atazanavir

>  <CAS_NUMBER>
198904-31-3

>  <UNII>
QZU4H47A3S

>  <SYNONYMS>
Atazanavir; Atazanavirum; ATZ

$$$$
