MYE
 OpenBabel10282417072D

 56 56  0  0  0  0  0  0  0  0999 V2000
   -4.1650   -1.3011    0.0000 C   0  0  0  0  0  0  0  0  0  0  0  0
   -3.4506   -1.7136    0.0000 C   0  0  0  0  0  0  0  0  0  0  0  0
   -2.7361   -1.3011    0.0000 C   0  0  0  0  0  0  0  0  0  0  0  0
   -2.0216   -1.7136    0.0000 C   0  0  2  0  0  0  0  0  0  0  0  0
   -1.3072   -1.3011    0.0000 N   0  0  0  0  0  0  0  0  0  0  0  0
   -0.5927   -1.7136    0.0000 C   0  0  0  0  0  0  0  0  0  0  0  0
   -0.5927   -2.5386    0.0000 O   0  0  0  0  0  0  0  0  0  0  0  0
    0.1218   -1.3011    0.0000 C   0  0  2  0  0  0  0  0  0  0  0  0
    0.1218   -0.4761    0.0000 C   0  0  0  0  0  0  0  0  0  0  0  0
   -0.5927   -0.0636    0.0000 C   0  0  0  0  0  0  0  0  0  0  0  0
   -1.3072   -0.4761    0.0000 C   0  0  0  0  0  0  0  0  0  0  0  0
   -0.5927    0.7614    0.0000 C   0  0  0  0  0  0  0  0  0  0  0  0
    0.8363   -1.7136    0.0000 N   0  0  0  0  0  0  0  0  0  0  0  0
    1.5507   -1.3011    0.0000 C   0  0  0  0  0  0  0  0  0  0  0  0
    1.5507   -0.4761    0.0000 O   0  0  0  0  0  0  0  0  0  0  0  0
    2.2652   -1.7136    0.0000 O   0  0  0  0  0  0  0  0  0  0  0  0
    2.9797   -1.3011    0.0000 C   0  0  0  0  0  0  0  0  0  0  0  0
    3.6941   -1.7136    0.0000 C   0  0  0  0  0  0  0  0  0  0  0  0
    4.4086   -1.3011    0.0000 C   0  0  0  0  0  0  0  0  0  0  0  0
    5.1231   -1.7136    0.0000 C   0  0  0  0  0  0  0  0  0  0  0  0
    5.1231   -2.5386    0.0000 C   0  0  0  0  0  0  0  0  0  0  0  0
    5.8375   -2.9511    0.0000 Br  0  0  0  0  0  0  0  0  0  0  0  0
    4.4086   -2.9511    0.0000 C   0  0  0  0  0  0  0  0  0  0  0  0
    3.6941   -2.5386    0.0000 C   0  0  0  0  0  0  0  0  0  0  0  0
   -2.0216   -2.5386    0.0000 C   0  0  0  0  0  0  0  0  0  0  0  0
   -1.3072   -2.9511    0.0000 O   0  0  0  0  0  0  0  0  0  0  0  0
   -4.8795   -1.7136    0.0000 C   0  0  0  0  0  0  0  0  0  0  0  0
   -2.0216   -1.1297    0.0000 H   0  0  0  0  0  0  0  0  0  0  0  0
   -0.3839   -1.0092    0.0000 H   0  0  0  0  0  0  0  0  0  0  0  0
   -4.1650   -0.2311    0.0000 H   0  0  0  0  0  0  0  0  0  0  0  0
   -5.0916   -0.7661    0.0000 H   0  0  0  0  0  0  0  0  0  0  0  0
   -3.4506   -2.7836    0.0000 H   0  0  0  0  0  0  0  0  0  0  0  0
   -2.5240   -2.2486    0.0000 H   0  0  0  0  0  0  0  0  0  0  0  0
   -2.7361   -0.2311    0.0000 H   0  0  0  0  0  0  0  0  0  0  0  0
   -1.8095   -0.7661    0.0000 H   0  0  0  0  0  0  0  0  0  0  0  0
   -1.3072   -0.3166    0.0000 H   0  0  0  0  0  0  0  0  0  0  0  0
    1.0484    0.0589    0.0000 H   0  0  0  0  0  0  0  0  0  0  0  0
    0.1218    0.5939    0.0000 H   0  0  0  0  0  0  0  0  0  0  0  0
   -1.5193    0.4714    0.0000 H   0  0  0  0  0  0  0  0  0  0  0  0
   -2.2338    0.0589    0.0000 H   0  0  0  0  0  0  0  0  0  0  0  0
   -1.3072   -1.5461    0.0000 H   0  0  0  0  0  0  0  0  0  0  0  0
   -2.2339   -1.0111    0.0000 H   0  0  0  0  0  0  0  0  0  0  0  0
    0.3339    1.2964    0.0000 H   0  0  0  0  0  0  0  0  0  0  0  0
   -1.5193    1.2964    0.0000 H   0  0  0  0  0  0  0  0  0  0  0  0
   -0.5927    1.8314    0.0000 H   0  0  0  0  0  0  0  0  0  0  0  0
    0.8363   -2.6981    0.0000 H   0  0  0  0  0  0  0  0  0  0  0  0
    2.9797   -0.2311    0.0000 H   0  0  0  0  0  0  0  0  0  0  0  0
    3.9064   -0.7661    0.0000 H   0  0  0  0  0  0  0  0  0  0  0  0
    4.4086   -0.2691    0.0000 H   0  0  0  0  0  0  0  0  0  0  0  0
    6.0168   -1.1976    0.0000 H   0  0  0  0  0  0  0  0  0  0  0  0
    4.4086   -3.9831    0.0000 H   0  0  0  0  0  0  0  0  0  0  0  0
    2.8004   -3.0546    0.0000 H   0  0  0  0  0  0  0  0  0  0  0  0
   -2.9153   -3.0546    0.0000 H   0  0  0  0  0  0  0  0  0  0  0  0
   -5.8061   -1.1786    0.0000 H   0  0  0  0  0  0  0  0  0  0  0  0
   -4.8795   -2.7836    0.0000 H   0  0  0  0  0  0  0  0  0  0  0  0
   -5.8062   -2.2486    0.0000 H   0  0  0  0  0  0  0  0  0  0  0  0
  1  2  1  0  0  0  0
  1 27  1  0  0  0  0
  1 30  1  0  0  0  0
  1 31  1  0  0  0  0
  2  3  1  0  0  0  0
  2 32  1  0  0  0  0
  2 33  1  0  0  0  0
  3  4  1  0  0  0  0
  3 34  1  0  0  0  0
  3 35  1  0  0  0  0
  4  5  1  0  0  0  0
  4 25  1  0  0  0  0
  4 28  1  1  0  0  0
  5  6  1  0  0  0  0
  5 36  1  0  0  0  0
  6  7  2  0  0  0  0
  6  8  1  0  0  0  0
  8  9  1  0  0  0  0
  8 13  1  0  0  0  0
  8 29  1  1  0  0  0
  9 10  1  0  0  0  0
  9 37  1  0  0  0  0
  9 38  1  0  0  0  0
 10 11  1  0  0  0  0
 10 12  1  0  0  0  0
 10 39  1  0  0  0  0
 11 40  1  0  0  0  0
 11 41  1  0  0  0  0
 11 42  1  0  0  0  0
 12 43  1  0  0  0  0
 12 44  1  0  0  0  0
 12 45  1  0  0  0  0
 13 14  1  0  0  0  0
 13 46  1  0  0  0  0
 14 15  2  0  0  0  0
 14 16  1  0  0  0  0
 16 17  1  0  0  0  0
 17 18  1  0  0  0  0
 17 47  1  0  0  0  0
 17 48  1  0  0  0  0
 18 19  2  0  0  0  0
 18 24  1  0  0  0  0
 19 20  1  0  0  0  0
 19 49  1  0  0  0  0
 20 21  2  0  0  0  0
 20 50  1  0  0  0  0
 21 22  1  0  0  0  0
 21 23  1  0  0  0  0
 23 24  2  0  0  0  0
 23 51  1  0  0  0  0
 24 52  1  0  0  0  0
 25 26  2  0  0  0  0
 25 53  1  0  0  0  0
 27 54  1  0  0  0  0
 27 55  1  0  0  0  0
 27 56  1  0  0  0  0
M  END
>  <DRUGBANK_ID>
DB04234

>  <SECONDARY_ACCESSION_NUMBERS>
EXPT02267

>  <COMMON_NAME>
N2-({[(4-Bromophenyl)Methyl]Oxy}Carbonyl)-N1-[(1s)-1-Formylpentyl]-L-Leucinamide

$$$$
