NBF
 OpenBabel10282417072D

 36 37  0  0  0  0  0  0  0  0999 V2000
   -3.0410   -0.0416    0.0000 C   0  0  0  0  0  0  0  0  0  0  0  0
   -2.3265    0.3709    0.0000 C   0  0  0  0  0  0  0  0  0  0  0  0
   -1.6120   -0.0416    0.0000 O   0  0  0  0  0  0  0  0  0  0  0  0
   -0.8975    0.3709    0.0000 C   0  0  0  0  0  0  0  0  0  0  0  0
   -0.1831   -0.0416    0.0000 C   0  0  0  0  0  0  0  0  0  0  0  0
   -0.1831   -0.8666    0.0000 C   0  0  0  0  0  0  0  0  0  0  0  0
   -0.8975   -1.2791    0.0000 O   0  0  0  0  0  0  0  0  0  0  0  0
    0.5314   -1.2791    0.0000 N   0  0  0  0  0  0  0  0  0  0  0  0
    1.2459   -0.8666    0.0000 C   0  0  0  0  0  0  0  0  0  0  0  0
    1.9603   -1.2791    0.0000 B   0  0  0  0  0  0  0  0  0  0  0  0
    2.6748   -0.8666    0.0000 O   0  0  0  0  0  0  0  0  0  0  0  0
    1.9603   -2.1041    0.0000 O   0  0  0  0  0  0  0  0  0  0  0  0
    0.5314    0.3709    0.0000 C   0  0  0  0  0  0  0  0  0  0  0  0
    0.5314    1.1959    0.0000 C   0  0  0  0  0  0  0  0  0  0  0  0
    1.2459    1.6084    0.0000 C   0  0  0  0  0  0  0  0  0  0  0  0
    1.9603    1.1959    0.0000 C   0  0  0  0  0  0  0  0  0  0  0  0
    1.9603    0.3709    0.0000 C   0  0  0  0  0  0  0  0  0  0  0  0
    1.2459   -0.0416    0.0000 C   0  0  0  0  0  0  0  0  0  0  0  0
   -0.1831    1.6084    0.0000 C   0  0  0  0  0  0  0  0  0  0  0  0
   -0.8975    1.1959    0.0000 C   0  0  0  0  0  0  0  0  0  0  0  0
   -3.9676    0.4934    0.0000 H   0  0  0  0  0  0  0  0  0  0  0  0
   -3.0410   -1.1116    0.0000 H   0  0  0  0  0  0  0  0  0  0  0  0
   -3.9677   -0.5766    0.0000 H   0  0  0  0  0  0  0  0  0  0  0  0
   -2.3265    1.4409    0.0000 H   0  0  0  0  0  0  0  0  0  0  0  0
   -1.3999    0.9059    0.0000 H   0  0  0  0  0  0  0  0  0  0  0  0
    0.5314   -2.2636    0.0000 H   0  0  0  0  0  0  0  0  0  0  0  0
    1.2459    0.2034    0.0000 H   0  0  0  0  0  0  0  0  0  0  0  0
    2.1726   -0.3316    0.0000 H   0  0  0  0  0  0  0  0  0  0  0  0
    3.5148   -1.3516    0.0000 H   0  0  0  0  0  0  0  0  0  0  0  0
    1.1203   -2.5891    0.0000 H   0  0  0  0  0  0  0  0  0  0  0  0
    1.2459    2.6404    0.0000 H   0  0  0  0  0  0  0  0  0  0  0  0
    2.8540    1.7119    0.0000 H   0  0  0  0  0  0  0  0  0  0  0  0
    2.8540   -0.1451    0.0000 H   0  0  0  0  0  0  0  0  0  0  0  0
    1.2459   -1.0736    0.0000 H   0  0  0  0  0  0  0  0  0  0  0  0
   -0.1831    2.6404    0.0000 H   0  0  0  0  0  0  0  0  0  0  0  0
   -1.7912    1.7119    0.0000 H   0  0  0  0  0  0  0  0  0  0  0  0
  1  2  1  0  0  0  0
  1 21  1  0  0  0  0
  1 22  1  0  0  0  0
  1 23  1  0  0  0  0
  2  3  1  0  0  0  0
  2 24  1  0  0  0  0
  2 25  1  0  0  0  0
  3  4  1  0  0  0  0
  4  5  2  0  0  0  0
  4 20  1  0  0  0  0
  5  6  1  0  0  0  0
  5 13  1  0  0  0  0
  6  7  2  0  0  0  0
  6  8  1  0  0  0  0
  8  9  1  0  0  0  0
  8 26  1  0  0  0  0
  9 10  1  0  0  0  0
  9 27  1  0  0  0  0
  9 28  1  0  0  0  0
 10 11  1  0  0  0  0
 10 12  1  0  0  0  0
 11 29  1  0  0  0  0
 12 30  1  0  0  0  0
 13 14  2  0  0  0  0
 13 18  1  0  0  0  0
 14 15  1  0  0  0  0
 14 19  1  0  0  0  0
 15 16  2  0  0  0  0
 15 31  1  0  0  0  0
 16 17  1  0  0  0  0
 16 32  1  0  0  0  0
 17 18  2  0  0  0  0
 17 33  1  0  0  0  0
 18 34  1  0  0  0  0
 19 20  2  0  0  0  0
 19 35  1  0  0  0  0
 20 36  1  0  0  0  0
M  END
>  <DRUGBANK_ID>
DB02841

>  <SECONDARY_ACCESSION_NUMBERS>
EXPT02299

>  <COMMON_NAME>
[(2-Ethoxy-1-Naphthoyl)Amino]Methylboronic Acid

$$$$
