
 OpenBabel10282417072D

118126  0  0  0  0  0  0  0  0999 V2000
    2.2812   -0.3020    0.0000 C   0  0  2  0  0  0  0  0  0  0  0  0
    3.0057    0.1112    0.0000 C   0  0  2  0  0  0  0  0  0  0  0  0
    2.2812   -1.1290    0.0000 C   0  0  2  0  0  0  0  0  0  0  0  0
    0.8538   -0.3020    0.0000 C   0  0  0  0  0  0  0  0  0  0  0  0
    1.7029    0.4516    0.0000 C   0  0  0  0  0  0  0  0  0  0  0  0
    3.7267   -0.3020    0.0000 C   0  0  2  0  0  0  0  0  0  0  0  0
    3.0057    0.9421    0.0000 N   0  0  3  0  0  0  0  0  0  0  0  0
    3.0057   -1.5134    0.0000 C   0  0  2  0  0  0  0  0  0  0  0  0
    1.5712   -1.5134    0.0000 N   0  0  0  0  0  0  0  0  0  0  0  0
    0.8538   -1.1290    0.0000 C   0  0  0  0  0  0  0  0  0  0  0  0
    0.1256    0.1112    0.0000 C   0  0  0  0  0  0  0  0  0  0  0  0
    2.1712    1.2750    0.0000 C   0  0  0  0  0  0  0  0  0  0  0  0
    3.7267   -1.1290    0.0000 C   0  0  2  0  0  0  0  0  0  0  0  0
    4.4073    0.1112    0.0000 C   0  0  0  0  0  0  0  0  0  0  0  0
    4.4073   -0.7082    0.0000 C   0  0  0  0  0  0  0  0  0  0  0  0
    3.7267    1.3885    0.0000 C   0  0  0  0  0  0  0  0  0  0  0  0
    2.6690   -2.7063    0.0000 C   0  0  0  0  0  0  0  0  0  0  0  0
    3.5656   -2.0183    0.0000 O   0  0  0  0  0  0  0  0  0  0  0  0
    1.5712   -2.3477    0.0000 C   0  0  0  0  0  0  0  0  0  0  0  0
    0.1256   -1.5134    0.0000 C   0  0  0  0  0  0  0  0  0  0  0  0
   -0.5804   -0.3020    0.0000 C   0  0  0  0  0  0  0  0  0  0  0  0
    4.4950   -1.5683    0.0000 O   0  0  0  0  0  0  0  0  0  0  0  0
    4.4073    0.9421    0.0000 C   0  0  0  0  0  0  0  0  0  0  0  0
    5.2490   -0.4924    0.0000 C   0  0  0  0  0  0  0  0  0  0  0  0
    1.9955   -3.0979    0.0000 O   0  0  0  0  0  0  0  0  0  0  0  0
    3.2216   -3.2332    0.0000 O   0  0  0  0  0  0  0  0  0  0  0  0
   -0.5804   -1.1290    0.0000 C   0  0  0  0  0  0  0  0  0  0  0  0
   -1.7471    0.5800    0.0000 C   0  0  2  0  0  0  0  0  0  0  0  0
    4.4950   -2.3989    0.0000 C   0  0  0  0  0  0  0  0  0  0  0  0
    1.9955   -3.8517    0.0000 C   0  0  0  0  0  0  0  0  0  0  0  0
   -1.2796   -1.5134    0.0000 O   0  0  0  0  0  0  0  0  0  0  0  0
   -2.4496    1.0560    0.0000 C   0  0  0  0  0  0  0  0  0  0  0  0
   -0.9676    1.0413    0.0000 C   0  0  0  0  0  0  0  0  0  0  0  0
   -2.0130   -0.1835    0.0000 C   0  0  0  0  0  0  0  0  0  0  0  0
    5.1868   -2.8454    0.0000 C   0  0  0  0  0  0  0  0  0  0  0  0
    4.0597   -2.8345    0.0000 O   0  0  0  0  0  0  0  0  0  0  0  0
   -1.2796   -2.3147    0.0000 C   0  0  0  0  0  0  0  0  0  0  0  0
   -2.4496    1.8865    0.0000 C   0  0  0  0  0  0  0  0  0  0  0  0
   -3.1414    0.6350    0.0000 N   0  0  0  0  0  0  0  0  0  0  0  0
   -0.9676    1.8354    0.0000 C   0  0  1  0  0  0  0  0  0  0  0  0
   -2.9131   -0.4490    0.0000 O   0  0  0  0  0  0  0  0  0  0  0  0
   -1.6422   -0.7658    0.0000 O   0  0  0  0  0  0  0  0  0  0  0  0
   -3.8805    1.8865    0.0000 C   0  0  0  0  0  0  0  0  0  0  0  0
   -2.7921    2.5614    0.0000 C   0  0  0  0  0  0  0  0  0  0  0  0
   -3.8805    1.0560    0.0000 C   0  0  0  0  0  0  0  0  0  0  0  0
   -1.6666    2.2159    0.0000 C   0  0  0  0  0  0  0  0  0  0  0  0
   -0.2540    2.3367    0.0000 C   0  0  0  0  0  0  0  0  0  0  0  0
   -3.0140   -1.2694    0.0000 C   0  0  0  0  0  0  0  0  0  0  0  0
   -4.5832    2.2965    0.0000 C   0  0  0  0  0  0  0  0  0  0  0  0
   -2.3699    3.2596    0.0000 C   0  0  0  0  0  0  0  0  0  0  0  0
   -4.5832    0.6350    0.0000 C   0  0  0  0  0  0  0  0  0  0  0  0
   -1.6666    2.9809    0.0000 N   0  3  3  0  0  0  0  0  0  0  0  0
   -0.2723    3.0465    0.0000 C   0  0  2  0  0  0  0  0  0  0  0  0
   -5.2490    1.8865    0.0000 C   0  0  0  0  0  0  0  0  0  0  0  0
   -5.2490    1.0560    0.0000 C   0  0  0  0  0  0  0  0  0  0  0  0
   -0.9713    3.4456    0.0000 C   0  0  0  0  0  0  0  0  0  0  0  0
    0.6571    2.7209    0.0000 C   0  0  0  0  0  0  0  0  0  0  0  0
    0.2436    3.8517    0.0000 O   0  0  0  0  0  0  0  0  0  0  0  0
    1.3129    3.1151    0.0000 C   0  0  0  0  0  0  0  0  0  0  0  0
    3.0093   -0.5746    0.0000 H   0  0  0  0  0  0  0  0  0  0  0  0
    2.3078   -1.8276    0.0000 H   0  0  0  0  0  0  0  0  0  0  0  0
   -0.3564    1.5975    0.0000 H   0  0  0  0  0  0  0  0  0  0  0  0
   -1.7548    3.8103    0.0000 O   0  5  0  0  0  0  0  0  0  0  0  0
    0.6354    0.3781    0.0000 H   0  0  0  0  0  0  0  0  0  0  0  0
    1.1334    1.3575    0.0000 H   0  0  0  0  0  0  0  0  0  0  0  0
    0.1187    1.1432    0.0000 H   0  0  0  0  0  0  0  0  0  0  0  0
    1.8173    2.2848    0.0000 H   0  0  0  0  0  0  0  0  0  0  0  0
    2.9437    2.0153    0.0000 H   0  0  0  0  0  0  0  0  0  0  0  0
    4.6522   -0.5921    0.0000 H   0  0  0  0  0  0  0  0  0  0  0  0
    5.3067   -0.3949    0.0000 H   0  0  0  0  0  0  0  0  0  0  0  0
    4.2542   -1.7672    0.0000 H   0  0  0  0  0  0  0  0  0  0  0  0
    5.2034   -1.4231    0.0000 H   0  0  0  0  0  0  0  0  0  0  0  0
    3.7407    2.4584    0.0000 H   0  0  0  0  0  0  0  0  0  0  0  0
    4.6715    1.8908    0.0000 H   0  0  0  0  0  0  0  0  0  0  0  0
    3.3632   -2.9670    0.0000 H   0  0  0  0  0  0  0  0  0  0  0  0
    0.6446   -2.8827    0.0000 H   0  0  0  0  0  0  0  0  0  0  0  0
    2.4978   -2.8827    0.0000 H   0  0  0  0  0  0  0  0  0  0  0  0
    1.5712   -3.4177    0.0000 H   0  0  0  0  0  0  0  0  0  0  0  0
    0.1189   -2.5454    0.0000 H   0  0  0  0  0  0  0  0  0  0  0  0
    5.3154    1.4325    0.0000 H   0  0  0  0  0  0  0  0  0  0  0  0
    5.9974   -1.2571    0.0000 H   0  0  0  0  0  0  0  0  0  0  0  0
    5.5371    0.5381    0.0000 H   0  0  0  0  0  0  0  0  0  0  0  0
    6.2855   -0.2267    0.0000 H   0  0  0  0  0  0  0  0  0  0  0  0
    1.0689   -4.3867    0.0000 H   0  0  0  0  0  0  0  0  0  0  0  0
    2.9221   -4.3867    0.0000 H   0  0  0  0  0  0  0  0  0  0  0  0
    1.9955   -4.9217    0.0000 H   0  0  0  0  0  0  0  0  0  0  0  0
   -0.0381    0.5113    0.0000 H   0  0  0  0  0  0  0  0  0  0  0  0
   -0.0424    1.5788    0.0000 H   0  0  0  0  0  0  0  0  0  0  0  0
    5.1338   -3.9141    0.0000 H   0  0  0  0  0  0  0  0  0  0  0  0
    6.1388   -2.3570    0.0000 H   0  0  0  0  0  0  0  0  0  0  0  0
    6.0858   -3.4256    0.0000 H   0  0  0  0  0  0  0  0  0  0  0  0
   -2.2062   -2.8497    0.0000 H   0  0  0  0  0  0  0  0  0  0  0  0
   -0.3530   -2.8497    0.0000 H   0  0  0  0  0  0  0  0  0  0  0  0
   -1.2796   -3.3847    0.0000 H   0  0  0  0  0  0  0  0  0  0  0  0
   -3.1272   -0.3494    0.0000 H   0  0  0  0  0  0  0  0  0  0  0  0
   -3.8614    2.6011    0.0000 H   0  0  0  0  0  0  0  0  0  0  0  0
   -3.3003    3.5030    0.0000 H   0  0  0  0  0  0  0  0  0  0  0  0
   -2.5865    1.6693    0.0000 H   0  0  0  0  0  0  0  0  0  0  0  0
   -2.5966    2.7451    0.0000 H   0  0  0  0  0  0  0  0  0  0  0  0
    0.7018    1.8556    0.0000 H   0  0  0  0  0  0  0  0  0  0  0  0
    0.6496    2.9097    0.0000 H   0  0  0  0  0  0  0  0  0  0  0  0
   -3.9990   -1.6873    0.0000 H   0  0  0  0  0  0  0  0  0  0  0  0
   -2.1596   -1.9135    0.0000 H   0  0  0  0  0  0  0  0  0  0  0  0
   -3.1446   -2.3314    0.0000 H   0  0  0  0  0  0  0  0  0  0  0  0
   -4.5955    3.3284    0.0000 H   0  0  0  0  0  0  0  0  0  0  0  0
   -2.7114    4.2736    0.0000 H   0  0  0  0  0  0  0  0  0  0  0  0
   -1.5937    3.9961    0.0000 H   0  0  0  0  0  0  0  0  0  0  0  0
   -4.5956   -0.3969    0.0000 H   0  0  0  0  0  0  0  0  0  0  0  0
   -6.1500    2.3898    0.0000 H   0  0  0  0  0  0  0  0  0  0  0  0
   -6.1529    0.5581    0.0000 H   0  0  0  0  0  0  0  0  0  0  0  0
   -1.0089    4.5149    0.0000 H   0  0  0  0  0  0  0  0  0  0  0  0
   -0.0555    3.9990    0.0000 H   0  0  0  0  0  0  0  0  0  0  0  0
    0.7662    1.6565    0.0000 H   0  0  0  0  0  0  0  0  0  0  0  0
    1.6141    2.2423    0.0000 H   0  0  0  0  0  0  0  0  0  0  0  0
    1.2126    3.8069    0.0000 H   0  0  0  0  0  0  0  0  0  0  0  0
    2.2488    2.5965    0.0000 H   0  0  0  0  0  0  0  0  0  0  0  0
    1.2940    4.1849    0.0000 H   0  0  0  0  0  0  0  0  0  0  0  0
    2.2300    3.6664    0.0000 H   0  0  0  0  0  0  0  0  0  0  0  0
  1  2  1  0  0  0  0
  1  3  1  0  0  0  0
  1  4  1  6  0  0  0
  1  5  1  0  0  0  0
  2  6  1  0  0  0  0
  2  7  1  0  0  0  0
  2 60  1  6  0  0  0
  3  8  1  0  0  0  0
  3  9  1  0  0  0  0
  3 61  1  1  0  0  0
  4 10  1  0  0  0  0
  4 11  2  0  0  0  0
  5 12  1  0  0  0  0
  5 64  1  0  0  0  0
  5 65  1  0  0  0  0
  6 13  1  0  0  0  0
  6 14  1  0  0  0  0
  6 15  1  6  0  0  0
  7 16  1  0  0  0  0
  7 12  1  0  0  0  0
  8 17  1  6  0  0  0
  8 18  1  0  0  0  0
  8 13  1  0  0  0  0
  9 19  1  0  0  0  0
  9 10  1  0  0  0  0
 10 20  2  0  0  0  0
 11 21  1  0  0  0  0
 11 66  1  0  0  0  0
 12 67  1  0  0  0  0
 12 68  1  0  0  0  0
 13 22  1  0  0  0  0
 13 69  1  6  0  0  0
 14 23  2  0  0  0  0
 14 70  1  0  0  0  0
 15 24  1  0  0  0  0
 15 71  1  0  0  0  0
 15 72  1  0  0  0  0
 16 23  1  0  0  0  0
 16 73  1  0  0  0  0
 16 74  1  0  0  0  0
 17 25  1  0  0  0  0
 17 26  2  0  0  0  0
 18 75  1  0  0  0  0
 19 76  1  0  0  0  0
 19 77  1  0  0  0  0
 19 78  1  0  0  0  0
 20 27  1  0  0  0  0
 20 79  1  0  0  0  0
 21 27  2  0  0  0  0
 22 29  1  0  0  0  0
 23 80  1  0  0  0  0
 24 81  1  0  0  0  0
 24 82  1  0  0  0  0
 24 83  1  0  0  0  0
 25 30  1  0  0  0  0
 27 31  1  0  0  0  0
 28 21  1  0  0  0  0
 28 32  1  0  0  0  0
 28 33  1  0  0  0  0
 28 34  1  1  0  0  0
 29 35  1  0  0  0  0
 29 36  2  0  0  0  0
 30 84  1  0  0  0  0
 30 85  1  0  0  0  0
 30 86  1  0  0  0  0
 31 37  1  0  0  0  0
 32 38  2  0  0  0  0
 32 39  1  0  0  0  0
 33 40  1  0  0  0  0
 33 87  1  0  0  0  0
 33 88  1  0  0  0  0
 34 41  1  0  0  0  0
 34 42  2  0  0  0  0
 35 89  1  0  0  0  0
 35 90  1  0  0  0  0
 35 91  1  0  0  0  0
 37 92  1  0  0  0  0
 37 93  1  0  0  0  0
 37 94  1  0  0  0  0
 38 43  1  0  0  0  0
 38 44  1  0  0  0  0
 39 45  1  0  0  0  0
 39 95  1  0  0  0  0
 40 46  1  0  0  0  0
 40 47  1  0  0  0  0
 40 62  1  6  0  0  0
 41 48  1  0  0  0  0
 43 49  1  0  0  0  0
 43 45  2  0  0  0  0
 44 50  1  0  0  0  0
 44 96  1  0  0  0  0
 44 97  1  0  0  0  0
 45 51  1  0  0  0  0
 46 52  1  0  0  0  0
 46 98  1  0  0  0  0
 46 99  1  0  0  0  0
 47 53  1  0  0  0  0
 47100  1  0  0  0  0
 47101  1  0  0  0  0
 48102  1  0  0  0  0
 48103  1  0  0  0  0
 48104  1  0  0  0  0
 49 54  2  0  0  0  0
 49105  1  0  0  0  0
 50 52  1  0  0  0  0
 50106  1  0  0  0  0
 50107  1  0  0  0  0
 51 55  2  0  0  0  0
 51108  1  0  0  0  0
 52 56  1  0  0  0  0
 52 63  1  0  0  0  0
 53 57  1  0  0  0  0
 53 58  1  1  0  0  0
 53 56  1  0  0  0  0
 54 55  1  0  0  0  0
 54109  1  0  0  0  0
 55110  1  0  0  0  0
 56111  1  0  0  0  0
 56112  1  0  0  0  0
 57 59  1  0  0  0  0
 57113  1  0  0  0  0
 57114  1  0  0  0  0
 58115  1  0  0  0  0
 59116  1  0  0  0  0
 59117  1  0  0  0  0
 59118  1  0  0  0  0
M  CHG  2  52   1  63  -1
M  END
>  <DRUGBANK_ID>
DB17390

>  <COMMON_NAME>
Vinblastine N-oxide

>  <CAS_NUMBER>
61936-68-3

>  <UNII>
PN45E4NV2N

>  <SYNONYMS>
Vinblastine N-oxide

$$$$
