1620
 OpenBabel10282417072D

 38 39  0  0  1  0  0  0  0  0999 V2000
    2.3645    1.6500    0.0000 N   0  0  0  0  0  0  0  0  0  0  0  0
    5.2224    0.0000    0.0000 N   0  0  0  0  0  0  0  0  0  0  0  0
    3.7935    0.0000    0.0000 C   0  0  3  0  0  0  0  0  0  0  0  0
    3.0791    0.4125    0.0000 C   0  0  0  0  0  0  0  0  0  0  0  0
    3.0791    1.2375    0.0000 C   0  0  0  0  0  0  0  0  0  0  0  0
    3.7935   -0.8250    0.0000 C   0  0  0  0  0  0  0  0  0  0  0  0
    4.5080    0.4125    0.0000 C   0  0  0  0  0  0  0  0  0  0  0  0
    4.5080   -1.2375    0.0000 C   0  0  0  0  0  0  0  0  0  0  0  0
    3.0791   -1.2375    0.0000 C   0  0  0  0  0  0  0  0  0  0  0  0
    4.5080    1.2375    0.0000 C   0  0  0  0  0  0  0  0  0  0  0  0
    2.3645    2.4751    0.0000 C   0  0  0  0  0  0  0  0  0  0  0  0
    1.6500    1.2375    0.0000 C   0  0  0  0  0  0  0  0  0  0  0  0
    4.5080   -2.0625    0.0000 C   0  0  0  0  0  0  0  0  0  0  0  0
    3.0791   -2.0625    0.0000 C   0  0  0  0  0  0  0  0  0  0  0  0
    5.2224    1.6500    0.0000 C   0  0  0  0  0  0  0  0  0  0  0  0
    3.7935   -2.4751    0.0000 C   0  0  0  0  0  0  0  0  0  0  0  0
    5.9370    0.4125    0.0000 C   0  0  0  0  0  0  0  0  0  0  0  0
    5.9370    1.2375    0.0000 C   0  0  0  0  0  0  0  0  0  0  0  0
    2.8668   -0.5350    0.0000 H   0  0  0  0  0  0  0  0  0  0  0  0
    2.1524   -0.1225    0.0000 H   0  0  0  0  0  0  0  0  0  0  0  0
    2.1525    0.9475    0.0000 H   0  0  0  0  0  0  0  0  0  0  0  0
    4.0057    1.7725    0.0000 H   0  0  0  0  0  0  0  0  0  0  0  0
    4.0058    0.7025    0.0000 H   0  0  0  0  0  0  0  0  0  0  0  0
    5.4017   -0.7215    0.0000 H   0  0  0  0  0  0  0  0  0  0  0  0
    2.1854   -0.7215    0.0000 H   0  0  0  0  0  0  0  0  0  0  0  0
    3.6143    1.7535    0.0000 H   0  0  0  0  0  0  0  0  0  0  0  0
    3.2911    3.0101    0.0000 H   0  0  0  0  0  0  0  0  0  0  0  0
    1.4379    3.0101    0.0000 H   0  0  0  0  0  0  0  0  0  0  0  0
    2.3645    3.5451    0.0000 H   0  0  0  0  0  0  0  0  0  0  0  0
    0.7234    1.7725    0.0000 H   0  0  0  0  0  0  0  0  0  0  0  0
    1.6500    0.1675    0.0000 H   0  0  0  0  0  0  0  0  0  0  0  0
    0.7233    0.7025    0.0000 H   0  0  0  0  0  0  0  0  0  0  0  0
    5.4018   -2.5785    0.0000 H   0  0  0  0  0  0  0  0  0  0  0  0
    2.1853   -2.5784    0.0000 H   0  0  0  0  0  0  0  0  0  0  0  0
    5.2223    2.6820    0.0000 H   0  0  0  0  0  0  0  0  0  0  0  0
    3.7935   -3.5071    0.0000 H   0  0  0  0  0  0  0  0  0  0  0  0
    6.8307   -0.1035    0.0000 H   0  0  0  0  0  0  0  0  0  0  0  0
    6.8307    1.7535    0.0000 H   0  0  0  0  0  0  0  0  0  0  0  0
  1  5  1  0  0  0  0
  1 11  1  0  0  0  0
  1 12  1  0  0  0  0
  2  7  1  0  0  0  0
  2 17  2  0  0  0  0
  3  4  1  0  0  0  0
  3  6  1  0  0  0  0
  3  7  1  0  0  0  0
  3 19  1  0  0  0  0
  4  5  1  0  0  0  0
  4 20  1  0  0  0  0
  4 21  1  0  0  0  0
  5 22  1  0  0  0  0
  5 23  1  0  0  0  0
  6  8  2  0  0  0  0
  6  9  1  0  0  0  0
  7 10  2  0  0  0  0
  8 13  1  0  0  0  0
  8 24  1  0  0  0  0
  9 14  2  0  0  0  0
  9 25  1  0  0  0  0
 10 15  1  0  0  0  0
 10 26  1  0  0  0  0
 11 27  1  0  0  0  0
 11 28  1  0  0  0  0
 11 29  1  0  0  0  0
 12 30  1  0  0  0  0
 12 31  1  0  0  0  0
 12 32  1  0  0  0  0
 13 16  2  0  0  0  0
 13 33  1  0  0  0  0
 14 16  1  0  0  0  0
 14 34  1  0  0  0  0
 15 18  2  0  0  0  0
 15 35  1  0  0  0  0
 16 36  1  0  0  0  0
 17 18  1  0  0  0  0
 17 37  1  0  0  0  0
 18 38  1  0  0  0  0
M  END
>  <DRUGBANK_ID>
DB01620

>  <COMMON_NAME>
Pheniramine

>  <CAS_NUMBER>
86-21-5

>  <UNII>
134FM9ZZ6M

>  <SYNONYMS>
Feniramina; Pheniramine; Pheniraminum

$$$$
