
 OpenBabel10282417072D

 77 79  0  0  0  0  0  0  0  0999 V2000
    0.3706    1.8638    0.0000 O   0  0  0  0  0  0  0  0  0  0  0  0
    1.0871    1.4431    0.0000 C   0  0  1  0  0  0  0  0  0  0  0  0
    0.3706    1.0308    0.0000 C   0  0  2  0  0  0  0  0  0  0  0  0
    3.2195   -1.4474    0.0000 C   0  0  0  0  0  0  0  0  0  0  0  0
    2.5115   -1.0350    0.0000 C   0  0  0  0  0  0  0  0  0  0  0  0
    3.9317   -1.0433    0.0000 C   0  0  1  0  0  0  0  0  0  0  0  0
   -3.2654   -0.1104    0.0000 N   0  0  0  0  0  0  0  0  0  0  0  0
   -0.3623   -1.0308    0.0000 N   0  0  0  0  0  0  0  0  0  0  0  0
    0.3748   -1.4349    0.0000 C   0  0  0  0  0  0  0  0  0  0  0  0
   -0.3498   -0.1978    0.0000 C   0  0  1  0  0  0  0  0  0  0  0  0
   -2.5032    0.2269    0.0000 C   0  0  0  0  0  0  0  0  0  0  0  0
    1.7992   -1.4431    0.0000 C   0  0  2  0  0  0  0  0  0  0  0  0
    0.3623    0.2061    0.0000 C   0  0  0  0  0  0  0  0  0  0  0  0
    1.0871   -1.0225    0.0000 C   0  0  0  0  0  0  0  0  0  0  0  0
   -1.7867   -0.1978    0.0000 C   0  0  0  0  0  0  0  0  0  0  0  0
   -1.0662    0.2144    0.0000 C   0  0  0  0  0  0  0  0  0  0  0  0
    3.9359   -0.2228    0.0000 C   0  0  2  0  0  0  0  0  0  0  0  0
   -3.8235    0.5143    0.0000 C   0  0  0  0  0  0  0  0  0  0  0  0
   -3.3986    1.2265    0.0000 S   0  0  0  0  0  0  0  0  0  0  0  0
   -2.5865    1.0516    0.0000 C   0  0  0  0  0  0  0  0  0  0  0  0
    3.2112   -2.2678    0.0000 O   0  0  0  0  0  0  0  0  0  0  0  0
    0.3706   -2.2553    0.0000 O   0  0  0  0  0  0  0  0  0  0  0  0
    3.2237    0.1936    0.0000 C   0  0  2  0  0  0  0  0  0  0  0  0
    1.7992    1.0266    0.0000 C   0  0  0  0  0  0  0  0  0  0  0  0
    4.6481    0.1894    0.0000 O   0  0  0  0  0  0  0  0  0  0  0  0
    1.7951   -2.2595    0.0000 O   0  0  0  0  0  0  0  0  0  0  0  0
    1.0953    2.2678    0.0000 C   0  0  0  0  0  0  0  0  0  0  0  0
    3.0820   -0.4602    0.0000 C   0  0  0  0  0  0  0  0  0  0  0  0
    1.9325   -0.4560    0.0000 C   0  0  0  0  0  0  0  0  0  0  0  0
    4.6356   -1.4556    0.0000 C   0  0  0  0  0  0  0  0  0  0  0  0
   -1.0620    1.0433    0.0000 C   0  0  0  0  0  0  0  0  0  0  0  0
   -4.6481    0.4269    0.0000 C   0  0  0  0  0  0  0  0  0  0  0  0
    2.5197    1.4389    0.0000 C   0  0  0  0  0  0  0  0  0  0  0  0
    3.2320    1.0183    0.0000 C   0  0  0  0  0  0  0  0  0  0  0  0
    2.5115   -0.2104    0.0000 C   0  0  0  0  0  0  0  0  0  0  0  0
   -0.6289    1.0358    0.0000 H   0  0  0  0  0  0  0  0  0  0  0  0
    3.9243   -2.1133    0.0000 H   0  0  0  0  0  0  0  0  0  0  0  0
   -1.2131   -1.5261    0.0000 H   0  0  0  0  0  0  0  0  0  0  0  0
   -1.2800   -0.7265    0.0000 H   0  0  0  0  0  0  0  0  0  0  0  0
    2.7236   -1.9820    0.0000 H   0  0  0  0  0  0  0  0  0  0  0  0
    1.2842   -0.3371    0.0000 H   0  0  0  0  0  0  0  0  0  0  0  0
    1.2940    0.7323    0.0000 H   0  0  0  0  0  0  0  0  0  0  0  0
    1.0918    0.0475    0.0000 H   0  0  0  0  0  0  0  0  0  0  0  0
    0.1613   -0.4860    0.0000 H   0  0  0  0  0  0  0  0  0  0  0  0
   -1.7947   -1.2298    0.0000 H   0  0  0  0  0  0  0  0  0  0  0  0
    4.8615   -0.7597    0.0000 H   0  0  0  0  0  0  0  0  0  0  0  0
   -1.8173    1.7396    0.0000 H   0  0  0  0  0  0  0  0  0  0  0  0
    3.2167   -0.8764    0.0000 H   0  0  0  0  0  0  0  0  0  0  0  0
    1.7941   -0.0434    0.0000 H   0  0  0  0  0  0  0  0  0  0  0  0
    2.7235    0.4876    0.0000 H   0  0  0  0  0  0  0  0  0  0  0  0
    5.4887   -0.2947    0.0000 H   0  0  0  0  0  0  0  0  0  0  0  0
    0.9526   -2.7403    0.0000 H   0  0  0  0  0  0  0  0  0  0  0  0
    2.0272    2.7936    0.0000 H   0  0  0  0  0  0  0  0  0  0  0  0
    0.1740    2.8120    0.0000 H   0  0  0  0  0  0  0  0  0  0  0  0
    1.1059    3.3377    0.0000 H   0  0  0  0  0  0  0  0  0  0  0  0
    4.1166   -0.7333    0.0000 H   0  0  0  0  0  0  0  0  0  0  0  0
    2.8012    0.5723    0.0000 H   0  0  0  0  0  0  0  0  0  0  0  0
    3.8358    0.2992    0.0000 H   0  0  0  0  0  0  0  0  0  0  0  0
    2.2094    0.5775    0.0000 H   0  0  0  0  0  0  0  0  0  0  0  0
    0.8990   -0.7329    0.0000 H   0  0  0  0  0  0  0  0  0  0  0  0
    1.1759    0.3006    0.0000 H   0  0  0  0  0  0  0  0  0  0  0  0
    4.6289   -2.5256    0.0000 H   0  0  0  0  0  0  0  0  0  0  0  0
    5.5656   -0.9264    0.0000 H   0  0  0  0  0  0  0  0  0  0  0  0
    5.5589   -1.9964    0.0000 H   0  0  0  0  0  0  0  0  0  0  0  0
   -0.1327    1.5736    0.0000 H   0  0  0  0  0  0  0  0  0  0  0  0
   -1.9859    1.5830    0.0000 H   0  0  0  0  0  0  0  0  0  0  0  0
   -1.0566    2.1133    0.0000 H   0  0  0  0  0  0  0  0  0  0  0  0
   -5.2778    1.2920    0.0000 H   0  0  0  0  0  0  0  0  0  0  0  0
   -5.0825   -0.5510    0.0000 H   0  0  0  0  0  0  0  0  0  0  0  0
   -5.7121    0.3141    0.0000 H   0  0  0  0  0  0  0  0  0  0  0  0
    2.5270    2.5089    0.0000 H   0  0  0  0  0  0  0  0  0  0  0  0
    3.4508    1.9662    0.0000 H   0  0  0  0  0  0  0  0  0  0  0  0
    4.1639    1.5441    0.0000 H   0  0  0  0  0  0  0  0  0  0  0  0
    3.2426    2.0882    0.0000 H   0  0  0  0  0  0  0  0  0  0  0  0
    1.5889    0.3316    0.0000 H   0  0  0  0  0  0  0  0  0  0  0  0
    2.5034   -1.2804    0.0000 H   0  0  0  0  0  0  0  0  0  0  0  0
    1.5808   -0.7383    0.0000 H   0  0  0  0  0  0  0  0  0  0  0  0
  2  1  1  0  0  0  0
  2 27  1  1  0  0  0
  2  3  1  0  0  0  0
  3  1  1  0  0  0  0
  3 36  1  1  0  0  0
  4  6  1  0  0  0  0
  5 12  1  0  0  0  0
  5  4  1  0  0  0  0
  6 17  1  0  0  0  0
  6 30  1  0  0  0  0
  6 37  1  6  0  0  0
  7 11  1  0  0  0  0
  8 10  1  0  0  0  0
  8 38  1  0  0  0  0
  9  8  1  0  0  0  0
 10 13  1  0  0  0  0
 10 16  1  0  0  0  0
 10 39  1  1  0  0  0
 11 15  1  0  0  0  0
 12 14  1  0  0  0  0
 12 26  1  0  0  0  0
 12 40  1  6  0  0  0
 13  3  1  0  0  0  0
 13 41  1  0  0  0  0
 13 42  1  0  0  0  0
 14  9  1  0  0  0  0
 14 43  1  0  0  0  0
 14 44  1  0  0  0  0
 15 16  2  0  0  0  0
 15 45  1  0  0  0  0
 17 23  1  0  0  0  0
 17 25  1  0  0  0  0
 17 46  1  1  0  0  0
 18  7  2  0  0  0  0
 18 19  1  0  0  0  0
 19 20  1  0  0  0  0
 20 11  2  0  0  0  0
 20 47  1  0  0  0  0
 21  4  2  0  0  0  0
 22  9  2  0  0  0  0
 23 34  1  0  0  0  0
 23 35  1  0  0  0  0
 23 48  1  6  0  0  0
 24  2  1  0  0  0  0
 24 49  1  0  0  0  0
 24 50  1  0  0  0  0
 25 51  1  0  0  0  0
 26 52  1  0  0  0  0
 27 53  1  0  0  0  0
 27 54  1  0  0  0  0
 27 55  1  0  0  0  0
 28  5  1  0  0  0  0
 28 56  1  0  0  0  0
 28 57  1  0  0  0  0
 28 58  1  0  0  0  0
 29  5  1  0  0  0  0
 29 59  1  0  0  0  0
 29 60  1  0  0  0  0
 29 61  1  0  0  0  0
 30 62  1  0  0  0  0
 30 63  1  0  0  0  0
 30 64  1  0  0  0  0
 31 16  1  0  0  0  0
 31 65  1  0  0  0  0
 31 66  1  0  0  0  0
 31 67  1  0  0  0  0
 32 18  1  0  0  0  0
 32 68  1  0  0  0  0
 32 69  1  0  0  0  0
 32 70  1  0  0  0  0
 33 24  1  0  0  0  0
 33 71  1  0  0  0  0
 33 72  1  0  0  0  0
 34 33  1  0  0  0  0
 34 73  1  0  0  0  0
 34 74  1  0  0  0  0
 35 75  1  0  0  0  0
 35 76  1  0  0  0  0
 35 77  1  0  0  0  0
M  END
>  <DRUGBANK_ID>
DB04845

>  <COMMON_NAME>
Ixabepilone

>  <CAS_NUMBER>
219989-84-1

>  <UNII>
K27005NP0A

>  <SYNONYMS>
Aza-epothilone B; Azaepothilone B; Ixabepilone

$$$$
