1563
 OpenBabel10282417072D

 10  9  0  0  0  0  0  0  0  0999 V2000
    1.6500   -0.8019    0.0000 Cl  0  0  0  0  0  0  0  0  0  0  0  0
    1.9520    0.3251    0.0000 Cl  0  0  0  0  0  0  0  0  0  0  0  0
    2.7770   -1.1039    0.0000 Cl  0  0  0  0  0  0  0  0  0  0  0  0
    3.7935   -0.3894    0.0000 O   0  0  0  0  0  0  0  0  0  0  0  0
    3.0791    0.8481    0.0000 O   0  0  0  0  0  0  0  0  0  0  0  0
    3.0791    0.0231    0.0000 C   0  0  0  0  0  0  0  0  0  0  0  0
    2.3645   -0.3894    0.0000 C   0  0  0  0  0  0  0  0  0  0  0  0
    3.7935   -1.3264    0.0000 H   0  0  0  0  0  0  0  0  0  0  0  0
    3.8906    1.3166    0.0000 H   0  0  0  0  0  0  0  0  0  0  0  0
    2.1525    0.5581    0.0000 H   0  0  0  0  0  0  0  0  0  0  0  0
  1  7  1  0  0  0  0
  2  7  1  0  0  0  0
  3  7  1  0  0  0  0
  4  6  1  0  0  0  0
  4  8  1  0  0  0  0
  5  6  1  0  0  0  0
  5  9  1  0  0  0  0
  6  7  1  0  0  0  0
  6 10  1  0  0  0  0
M  END
>  <DRUGBANK_ID>
DB01563

>  <COMMON_NAME>
Chloral hydrate

>  <CAS_NUMBER>
302-17-0

>  <UNII>
418M5916WG

>  <SYNONYMS>
1,1,1-trichloro-2,2-dihydroxyethane; 1,1,1-trichloro-2,2-ethanediol; 2,2,2-trichloro-1,1-ethanediol; Chloral hydrate; chloral monohydrate; Chloralhydrat; Trichloracetaldehyd-hydrat; trichloroacetaldehyde hydrate

$$$$
