
 OpenBabel10282417072D

 36 38  0  0  0  0  0  0  0  0999 V2000
    5.7904    2.6586    0.0000 C   0  0  0  0  0  0  0  0  0  0  0  0
    4.9654    2.6586    0.0000 C   0  0  0  0  0  0  0  0  0  0  0  0
    4.5529    3.3731    0.0000 O   0  0  0  0  0  0  0  0  0  0  0  0
    4.5529    1.9441    0.0000 O   0  0  0  0  0  0  0  0  0  0  0  0
    3.7279    1.9441    0.0000 C   0  0  3  0  0  0  0  0  0  0  0  0
    3.3700    1.2008    0.0000 N   0  0  0  0  0  0  0  0  0  0  0  0
    2.5656    1.0173    0.0000 C   0  0  0  0  0  0  0  0  0  0  0  0
    2.3821    0.2130    0.0000 C   0  0  0  0  0  0  0  0  0  0  0  0
    2.9868   -0.3482    0.0000 C   0  0  0  0  0  0  0  0  0  0  0  0
    2.8032   -1.1525    0.0000 C   0  0  0  0  0  0  0  0  0  0  0  0
    2.0149   -1.3957    0.0000 C   0  0  0  0  0  0  0  0  0  0  0  0
    1.4101   -0.8345    0.0000 C   0  0  0  0  0  0  0  0  0  0  0  0
    1.5937   -0.0302    0.0000 C   0  0  0  0  0  0  0  0  0  0  0  0
    1.9206    1.5316    0.0000 C   0  0  0  0  0  0  0  0  0  0  0  0
    1.2062    1.1191    0.0000 C   0  0  0  0  0  0  0  0  0  0  0  0
    0.4917    1.5316    0.0000 C   0  0  0  0  0  0  0  0  0  0  0  0
   -0.2228    1.1191    0.0000 Cl  0  0  0  0  0  0  0  0  0  0  0  0
    0.4917    2.3566    0.0000 C   0  0  0  0  0  0  0  0  0  0  0  0
    1.2062    2.7691    0.0000 C   0  0  0  0  0  0  0  0  0  0  0  0
    1.9206    2.3566    0.0000 C   0  0  0  0  0  0  0  0  0  0  0  0
    2.5656    2.8710    0.0000 N   0  0  0  0  0  0  0  0  0  0  0  0
    3.3700    2.6874    0.0000 C   0  0  0  0  0  0  0  0  0  0  0  0
    3.8843    3.3325    0.0000 O   0  0  0  0  0  0  0  0  0  0  0  0
    6.3254    1.7320    0.0000 H   0  0  0  0  0  0  0  0  0  0  0  0
    6.3254    3.5852    0.0000 H   0  0  0  0  0  0  0  0  0  0  0  0
    6.8604    2.6586    0.0000 H   0  0  0  0  0  0  0  0  0  0  0  0
    4.2972    1.0381    0.0000 H   0  0  0  0  0  0  0  0  0  0  0  0
    3.9730   -0.0441    0.0000 H   0  0  0  0  0  0  0  0  0  0  0  0
    3.5597   -1.8544    0.0000 H   0  0  0  0  0  0  0  0  0  0  0  0
    1.7853   -2.4018    0.0000 H   0  0  0  0  0  0  0  0  0  0  0  0
    0.4239   -1.1387    0.0000 H   0  0  0  0  0  0  0  0  0  0  0  0
    0.8372    0.6717    0.0000 H   0  0  0  0  0  0  0  0  0  0  0  0
    1.2062    0.0871    0.0000 H   0  0  0  0  0  0  0  0  0  0  0  0
   -0.4020    2.8726    0.0000 H   0  0  0  0  0  0  0  0  0  0  0  0
    1.2062    3.8011    0.0000 H   0  0  0  0  0  0  0  0  0  0  0  0
    2.3465    3.8308    0.0000 H   0  0  0  0  0  0  0  0  0  0  0  0
  1  2  1  0  0  0  0
  1 24  1  0  0  0  0
  1 25  1  0  0  0  0
  1 26  1  0  0  0  0
  2  3  2  0  0  0  0
  2  4  1  0  0  0  0
  4  5  1  0  0  0  0
  5  6  1  0  0  0  0
  5 22  1  0  0  0  0
  5 27  1  0  0  0  0
  6  7  2  0  0  0  0
  7  8  1  0  0  0  0
  7 14  1  0  0  0  0
  8  9  2  0  0  0  0
  8 13  1  0  0  0  0
  9 10  1  0  0  0  0
  9 28  1  0  0  0  0
 10 11  2  0  0  0  0
 10 29  1  0  0  0  0
 11 12  1  0  0  0  0
 11 30  1  0  0  0  0
 12 13  2  0  0  0  0
 12 31  1  0  0  0  0
 13 32  1  0  0  0  0
 14 15  2  0  0  0  0
 14 20  1  0  0  0  0
 15 16  1  0  0  0  0
 15 33  1  0  0  0  0
 16 17  1  0  0  0  0
 16 18  2  0  0  0  0
 18 19  1  0  0  0  0
 18 34  1  0  0  0  0
 19 20  2  0  0  0  0
 19 35  1  0  0  0  0
 20 21  1  0  0  0  0
 21 22  1  0  0  0  0
 21 36  1  0  0  0  0
 22 23  2  0  0  0  0
M  END
>  <DRUGBANK_ID>
DB14672

>  <SECONDARY_ACCESSION_NUMBERS>
DBSALT002278

>  <COMMON_NAME>
Oxazepam acetate

>  <CAS_NUMBER>
1824-74-4

>  <UNII>
611V4315UA

>  <SYNONYMS>
(+/-)-oxazepam 3-acetate; (+/-)-oxazepam acetate

$$$$
