0MO
 OpenBabel10282417072D

 42 43  0  0  0  0  0  0  0  0999 V2000
    3.7234   -0.0816    0.0000 C   0  0  0  0  0  0  0  0  0  0  0  0
   -1.5798   -2.1762    0.0000 N   0  0  0  0  0  0  0  0  0  0  0  0
    0.8655   -0.0816    0.0000 O   0  0  0  0  0  0  0  0  0  0  0  0
    3.0089    0.3309    0.0000 C   0  0  0  0  0  0  0  0  0  0  0  0
   -2.6598   -1.3915    0.0000 N   0  0  0  0  0  0  0  0  0  0  0  0
    0.8655    1.5684    0.0000 O   0  0  0  0  0  0  0  0  0  0  0  0
    2.2945   -0.0816    0.0000 C   0  0  0  0  0  0  0  0  0  0  0  0
   -2.8898   -2.8436    0.0000 O   0  0  0  0  0  0  0  0  0  0  0  0
    1.5800    0.3309    0.0000 C   0  0  0  0  0  0  0  0  0  0  0  0
    0.1511    0.3309    0.0000 C   0  0  0  0  0  0  0  0  0  0  0  0
    0.1511    1.1559    0.0000 C   0  0  0  0  0  0  0  0  0  0  0  0
    0.8655    2.3934    0.0000 C   0  0  0  0  0  0  0  0  0  0  0  0
   -0.5634    1.5684    0.0000 C   0  0  0  0  0  0  0  0  0  0  0  0
   -1.2779    1.1559    0.0000 C   0  0  0  0  0  0  0  0  0  0  0  0
   -1.2779    0.3309    0.0000 C   0  0  0  0  0  0  0  0  0  0  0  0
   -1.9923   -0.0816    0.0000 C   0  0  0  0  0  0  0  0  0  0  0  0
   -1.9923   -0.9066    0.0000 C   0  0  2  0  0  0  0  0  0  0  0  0
   -1.3249   -1.3915    0.0000 C   0  0  0  0  0  0  0  0  0  0  0  0
   -2.4048   -2.1762    0.0000 C   0  0  0  0  0  0  0  0  0  0  0  0
   -0.5634   -0.0816    0.0000 C   0  0  0  0  0  0  0  0  0  0  0  0
   -2.5126   -0.6415    0.0000 H   0  0  0  0  0  0  0  0  0  0  0  0
    3.7234   -1.1516    0.0000 H   0  0  0  0  0  0  0  0  0  0  0  0
    4.6500    0.4534    0.0000 H   0  0  0  0  0  0  0  0  0  0  0  0
    4.6501   -0.6166    0.0000 H   0  0  0  0  0  0  0  0  0  0  0  0
   -1.0011   -2.9727    0.0000 H   0  0  0  0  0  0  0  0  0  0  0  0
    3.0089    1.4009    0.0000 H   0  0  0  0  0  0  0  0  0  0  0  0
    2.0822    0.8659    0.0000 H   0  0  0  0  0  0  0  0  0  0  0  0
   -3.5961   -1.0873    0.0000 H   0  0  0  0  0  0  0  0  0  0  0  0
    2.2945   -1.1516    0.0000 H   0  0  0  0  0  0  0  0  0  0  0  0
    1.3679   -0.6166    0.0000 H   0  0  0  0  0  0  0  0  0  0  0  0
    1.5800    1.4009    0.0000 H   0  0  0  0  0  0  0  0  0  0  0  0
    2.5066    0.8659    0.0000 H   0  0  0  0  0  0  0  0  0  0  0  0
    1.7921    2.9284    0.0000 H   0  0  0  0  0  0  0  0  0  0  0  0
   -0.0611    2.9284    0.0000 H   0  0  0  0  0  0  0  0  0  0  0  0
    0.8655    3.4634    0.0000 H   0  0  0  0  0  0  0  0  0  0  0  0
   -0.5634    2.6004    0.0000 H   0  0  0  0  0  0  0  0  0  0  0  0
   -2.1716    1.6719    0.0000 H   0  0  0  0  0  0  0  0  0  0  0  0
   -2.9190    0.4534    0.0000 H   0  0  0  0  0  0  0  0  0  0  0  0
   -2.9189   -0.6166    0.0000 H   0  0  0  0  0  0  0  0  0  0  0  0
   -0.3073   -1.0608    0.0000 H   0  0  0  0  0  0  0  0  0  0  0  0
   -0.5683   -2.1481    0.0000 H   0  0  0  0  0  0  0  0  0  0  0  0
   -0.5634   -1.1136    0.0000 H   0  0  0  0  0  0  0  0  0  0  0  0
  1 22  1  0  0  0  0
  1 23  1  0  0  0  0
  1 24  1  0  0  0  0
  2 19  1  0  0  0  0
  2 25  1  0  0  0  0
  3 10  1  0  0  0  0
  3  9  1  0  0  0  0
  4  1  1  0  0  0  0
  4  7  1  0  0  0  0
  4 26  1  0  0  0  0
  4 27  1  0  0  0  0
  5 19  1  0  0  0  0
  5 28  1  0  0  0  0
  6 11  1  0  0  0  0
  7  9  1  0  0  0  0
  7 29  1  0  0  0  0
  7 30  1  0  0  0  0
  9 31  1  0  0  0  0
  9 32  1  0  0  0  0
 10 20  1  0  0  0  0
 11 10  2  0  0  0  0
 11 13  1  0  0  0  0
 12  6  1  0  0  0  0
 12 33  1  0  0  0  0
 12 34  1  0  0  0  0
 12 35  1  0  0  0  0
 13 14  2  0  0  0  0
 13 36  1  0  0  0  0
 14 15  1  0  0  0  0
 14 37  1  0  0  0  0
 15 16  1  0  0  0  0
 16 38  1  0  0  0  0
 16 39  1  0  0  0  0
 17 16  1  0  0  0  0
 17  5  1  0  0  0  0
 17 18  1  0  0  0  0
 17 21  1  1  0  0  0
 18  2  1  0  0  0  0
 18 40  1  0  0  0  0
 18 41  1  0  0  0  0
 19  8  2  0  0  0  0
 20 15  2  0  0  0  0
 20 42  1  0  0  0  0
M  END
>  <DRUGBANK_ID>
DB06842

>  <COMMON_NAME>
(4R)-4-(3-butoxy-4-methoxybenzyl)imidazolidin-2-one

$$$$
