
 OpenBabel10282417072D

 44 44  0  0  0  0  0  0  0  0999 V2000
    3.5724   -4.5375    0.0000 C   0  0  0  0  0  0  0  0  0  0  0  0
    2.1434    1.2375    0.0000 C   0  0  0  0  0  0  0  0  0  0  0  0
    5.0013    0.4125    0.0000 C   0  0  0  0  0  0  0  0  0  0  0  0
    3.5724   -3.7125    0.0000 C   0  0  0  0  0  0  0  0  0  0  0  0
    2.1434    0.4125    0.0000 C   0  0  0  0  0  0  0  0  0  0  0  0
    4.2868    0.0000    0.0000 C   0  0  0  0  0  0  0  0  0  0  0  0
    0.7145   -2.0625    0.0000 C   0  0  0  0  0  0  0  0  0  0  0  0
    0.0000   -2.4750    0.0000 C   0  0  0  0  0  0  0  0  0  0  0  0
    2.1434   -1.2375    0.0000 C   0  0  0  0  0  0  0  0  0  0  0  0
    3.5724   -2.0625    0.0000 C   0  0  0  0  0  0  0  0  0  0  0  0
    2.1434   -2.0625    0.0000 C   0  0  0  0  0  0  0  0  0  0  0  0
    1.4289   -2.4750    0.0000 C   0  0  0  0  0  0  0  0  0  0  0  0
    2.8579   -2.4750    0.0000 C   0  0  0  0  0  0  0  0  0  0  0  0
    2.8579   -0.8250    0.0000 C   0  0  0  0  0  0  0  0  0  0  0  0
    3.5724   -1.2375    0.0000 C   0  0  0  0  0  0  0  0  0  0  0  0
   -0.7145   -2.0625    0.0000 C   0  0  0  0  0  0  0  0  0  0  0  0
    1.4289   -3.3000    0.0000 O   0  0  0  0  0  0  0  0  0  0  0  0
   -1.4289   -2.4750    0.0000 O   0  0  0  0  0  0  0  0  0  0  0  0
   -0.7145   -1.2375    0.0000 O   0  0  0  0  0  0  0  0  0  0  0  0
    2.8579   -3.3000    0.0000 O   0  0  0  0  0  0  0  0  0  0  0  0
    2.8579    0.0000    0.0000 O   0  0  0  0  0  0  0  0  0  0  0  0
    4.2868   -0.8250    0.0000 O   0  0  0  0  0  0  0  0  0  0  0  0
    2.6458   -5.0725    0.0000 H   0  0  0  0  0  0  0  0  0  0  0  0
    4.4990   -5.0725    0.0000 H   0  0  0  0  0  0  0  0  0  0  0  0
    3.5724   -5.6075    0.0000 H   0  0  0  0  0  0  0  0  0  0  0  0
    3.0700    1.7725    0.0000 H   0  0  0  0  0  0  0  0  0  0  0  0
    1.2168    1.7725    0.0000 H   0  0  0  0  0  0  0  0  0  0  0  0
    2.1434    2.3075    0.0000 H   0  0  0  0  0  0  0  0  0  0  0  0
    5.9279   -0.1225    0.0000 H   0  0  0  0  0  0  0  0  0  0  0  0
    5.0013    1.4825    0.0000 H   0  0  0  0  0  0  0  0  0  0  0  0
    5.9280    0.9475    0.0000 H   0  0  0  0  0  0  0  0  0  0  0  0
    4.4990   -3.1775    0.0000 H   0  0  0  0  0  0  0  0  0  0  0  0
    3.5724   -2.6425    0.0000 H   0  0  0  0  0  0  0  0  0  0  0  0
    1.2168   -0.1225    0.0000 H   0  0  0  0  0  0  0  0  0  0  0  0
    2.1434   -0.6575    0.0000 H   0  0  0  0  0  0  0  0  0  0  0  0
    3.3602    0.5350    0.0000 H   0  0  0  0  0  0  0  0  0  0  0  0
    3.3602   -0.5350    0.0000 H   0  0  0  0  0  0  0  0  0  0  0  0
    0.7145   -0.9925    0.0000 H   0  0  0  0  0  0  0  0  0  0  0  0
    1.6412   -1.5275    0.0000 H   0  0  0  0  0  0  0  0  0  0  0  0
    0.0000   -3.5450    0.0000 H   0  0  0  0  0  0  0  0  0  0  0  0
   -0.9266   -3.0100    0.0000 H   0  0  0  0  0  0  0  0  0  0  0  0
    1.2497   -0.7215    0.0000 H   0  0  0  0  0  0  0  0  0  0  0  0
    4.4661   -2.5785    0.0000 H   0  0  0  0  0  0  0  0  0  0  0  0
    0.0970   -0.7690    0.0000 H   0  0  0  0  0  0  0  0  0  0  0  0
  1 23  1  0  0  0  0
  1 24  1  0  0  0  0
  1 25  1  0  0  0  0
  2 26  1  0  0  0  0
  2 27  1  0  0  0  0
  2 28  1  0  0  0  0
  3 29  1  0  0  0  0
  3 30  1  0  0  0  0
  3 31  1  0  0  0  0
  4  1  1  0  0  0  0
  4 32  1  0  0  0  0
  4 33  1  0  0  0  0
  5  2  1  0  0  0  0
  5 34  1  0  0  0  0
  5 35  1  0  0  0  0
  6  3  1  0  0  0  0
  6 36  1  0  0  0  0
  6 37  1  0  0  0  0
  7 38  1  0  0  0  0
  7 39  1  0  0  0  0
  8  7  1  0  0  0  0
  8 40  1  0  0  0  0
  8 41  1  0  0  0  0
  9 42  1  0  0  0  0
 10 43  1  0  0  0  0
 11  9  2  0  0  0  0
 12  7  1  0  0  0  0
 12 11  1  0  0  0  0
 13 10  2  0  0  0  0
 13 11  1  0  0  0  0
 14  9  1  0  0  0  0
 15 10  1  0  0  0  0
 15 14  2  0  0  0  0
 16  8  1  0  0  0  0
 17 12  2  0  0  0  0
 18 16  2  0  0  0  0
 19 16  1  0  0  0  0
 19 44  1  0  0  0  0
 20  4  1  0  0  0  0
 20 13  1  0  0  0  0
 21  5  1  0  0  0  0
 21 14  1  0  0  0  0
 22  6  1  0  0  0  0
 22 15  1  0  0  0  0
M  END
>  <DRUGBANK_ID>
DB13311

>  <COMMON_NAME>
Trepibutone

>  <CAS_NUMBER>
41826-92-0

>  <UNII>
H1187LU49Q

>  <SYNONYMS>
Trepibutone

$$$$
