
 OpenBabel10282417072D

 55 58  0  0  0  0  0  0  0  0999 V2000
   -3.6980   -1.0179    0.0000 C   0  0  0  0  0  0  0  0  0  0  0  0
   -3.6991   -1.8430    0.0000 C   0  0  0  0  0  0  0  0  0  0  0  0
   -2.9863   -2.2548    0.0000 C   0  0  0  0  0  0  0  0  0  0  0  0
   -2.9881   -0.6063    0.0000 C   0  0  0  0  0  0  0  0  0  0  0  0
   -2.2746   -1.0142    0.0000 C   0  0  0  0  0  0  0  0  0  0  0  0
   -2.2712   -1.8405    0.0000 C   0  0  0  0  0  0  0  0  0  0  0  0
   -1.5577   -2.2485    0.0000 C   0  0  0  0  0  0  0  0  0  0  0  0
   -0.8432   -1.8346    0.0000 C   0  0  0  0  0  0  0  0  0  0  0  0
   -1.5645   -0.5960    0.0000 C   0  0  2  0  0  0  0  0  0  0  0  0
   -0.8473   -1.0121    0.0000 C   0  0  2  0  0  0  0  0  0  0  0  0
   -0.8452    0.6434    0.0000 C   0  0  0  0  0  0  0  0  0  0  0  0
   -1.5666    0.2310    0.0000 C   0  0  0  0  0  0  0  0  0  0  0  0
   -0.1279    0.2272    0.0000 C   0  0  1  0  0  0  0  0  0  0  0  0
   -0.1354   -0.5979    0.0000 C   0  0  1  0  0  0  0  0  0  0  0  0
    0.6469   -0.8598    0.0000 C   0  0  0  0  0  0  0  0  0  0  0  0
    1.1378   -0.1967    0.0000 C   0  0  0  0  0  0  0  0  0  0  0  0
    0.6590    0.4752    0.0000 C   0  0  2  0  0  0  0  0  0  0  0  0
   -0.8540   -0.1867    0.0000 H   0  0  0  0  0  0  0  0  0  0  0  0
   -1.5688   -1.4168    0.0000 H   0  0  0  0  0  0  0  0  0  0  0  0
   -0.1435   -1.4252    0.0000 H   0  0  0  0  0  0  0  0  0  0  0  0
   -0.1351    1.0515    0.0000 C   0  0  0  0  0  0  0  0  0  0  0  0
    0.9937    1.4119    0.0000 O   0  0  0  0  0  0  0  0  0  0  0  0
   -4.4120   -2.2539    0.0000 O   0  0  0  0  0  0  0  0  0  0  0  0
    1.8118    1.5025    0.0000 C   0  0  0  0  0  0  0  0  0  0  0  0
    2.2937    0.8377    0.0000 C   0  0  0  0  0  0  0  0  0  0  0  0
    2.1449    2.2548    0.0000 O   0  0  0  0  0  0  0  0  0  0  0  0
    3.1120    0.9283    0.0000 C   0  0  0  0  0  0  0  0  0  0  0  0
    3.5938    0.2634    0.0000 C   0  0  0  0  0  0  0  0  0  0  0  0
    3.2553   -0.4865    0.0000 O   0  0  0  0  0  0  0  0  0  0  0  0
    4.4120    0.3540    0.0000 O   0  0  0  0  0  0  0  0  0  0  0  0
   -4.5919   -0.5021    0.0000 H   0  0  0  0  0  0  0  0  0  0  0  0
   -2.9857   -3.2868    0.0000 H   0  0  0  0  0  0  0  0  0  0  0  0
   -2.9912    0.4257    0.0000 H   0  0  0  0  0  0  0  0  0  0  0  0
   -1.5547   -3.3185    0.0000 H   0  0  0  0  0  0  0  0  0  0  0  0
   -0.6299   -2.7815    0.0000 H   0  0  0  0  0  0  0  0  0  0  0  0
    0.0852   -2.3666    0.0000 H   0  0  0  0  0  0  0  0  0  0  0  0
    0.0812   -1.2958    0.0000 H   0  0  0  0  0  0  0  0  0  0  0  0
   -0.8418    1.7134    0.0000 H   0  0  0  0  0  0  0  0  0  0  0  0
   -1.7698    1.1819    0.0000 H   0  0  0  0  0  0  0  0  0  0  0  0
   -2.4928    0.7668    0.0000 H   0  0  0  0  0  0  0  0  0  0  0  0
   -1.5638    1.3010    0.0000 H   0  0  0  0  0  0  0  0  0  0  0  0
    0.9685   -1.8803    0.0000 H   0  0  0  0  0  0  0  0  0  0  0  0
   -0.1164   -1.6096    0.0000 H   0  0  0  0  0  0  0  0  0  0  0  0
    2.2078   -0.2064    0.0000 H   0  0  0  0  0  0  0  0  0  0  0  0
    1.6322    0.7522    0.0000 H   0  0  0  0  0  0  0  0  0  0  0  0
    1.7188    0.6224    0.0000 H   0  0  0  0  0  0  0  0  0  0  0  0
    0.7868    1.5946    0.0000 H   0  0  0  0  0  0  0  0  0  0  0  0
   -1.0664    1.5784    0.0000 H   0  0  0  0  0  0  0  0  0  0  0  0
   -0.1444    2.1215    0.0000 H   0  0  0  0  0  0  0  0  0  0  0  0
   -5.2231   -1.7848    0.0000 H   0  0  0  0  0  0  0  0  0  0  0  0
    1.8607   -0.1408    0.0000 H   0  0  0  0  0  0  0  0  0  0  0  0
    2.9260   -0.0255    0.0000 H   0  0  0  0  0  0  0  0  0  0  0  0
    3.5451    1.9067    0.0000 H   0  0  0  0  0  0  0  0  0  0  0  0
    4.1761    1.0406    0.0000 H   0  0  0  0  0  0  0  0  0  0  0  0
    4.9670   -0.4010    0.0000 H   0  0  0  0  0  0  0  0  0  0  0  0
  1  2  2  0  0  0  0
  1 31  1  0  0  0  0
  2 23  1  0  0  0  0
  2  3  1  0  0  0  0
  3  6  2  0  0  0  0
  3 32  1  0  0  0  0
  4  1  1  0  0  0  0
  4 33  1  0  0  0  0
  5  9  1  0  0  0  0
  5  4  2  0  0  0  0
  5  6  1  0  0  0  0
  6  7  1  0  0  0  0
  7  8  1  0  0  0  0
  7 34  1  0  0  0  0
  7 35  1  0  0  0  0
  8 10  1  0  0  0  0
  8 36  1  0  0  0  0
  8 37  1  0  0  0  0
  9 19  1  6  0  0  0
  9 10  1  0  0  0  0
  9 12  1  0  0  0  0
 10 18  1  1  0  0  0
 10 14  1  0  0  0  0
 11 12  1  0  0  0  0
 11 38  1  0  0  0  0
 11 39  1  0  0  0  0
 12 40  1  0  0  0  0
 12 41  1  0  0  0  0
 13 21  1  1  0  0  0
 13 11  1  0  0  0  0
 13 14  1  0  0  0  0
 14 15  1  0  0  0  0
 14 20  1  6  0  0  0
 15 16  1  0  0  0  0
 15 42  1  0  0  0  0
 15 43  1  0  0  0  0
 16 17  1  0  0  0  0
 16 44  1  0  0  0  0
 16 45  1  0  0  0  0
 17 13  1  0  0  0  0
 17 22  1  0  0  0  0
 17 46  1  6  0  0  0
 21 47  1  0  0  0  0
 21 48  1  0  0  0  0
 21 49  1  0  0  0  0
 22 24  1  0  0  0  0
 23 50  1  0  0  0  0
 24 25  1  0  0  0  0
 24 26  2  0  0  0  0
 25 27  1  0  0  0  0
 25 51  1  0  0  0  0
 25 52  1  0  0  0  0
 27 28  1  0  0  0  0
 27 53  1  0  0  0  0
 27 54  1  0  0  0  0
 28 29  2  0  0  0  0
 28 30  1  0  0  0  0
 30 55  1  0  0  0  0
M  END
>  <DRUGBANK_ID>
DB07891

>  <COMMON_NAME>
Estradiol hemisuccinate

>  <CAS_NUMBER>
7698-93-3

>  <UNII>
VQV5064VG6

>  <SYNONYMS>
17beta-Estradiol hemisuccinate; beta-Estradiol-17-beta-hemisuccinate; beta-Estradiol-17beta-hemisuccinate

$$$$
