
 OpenBabel10282417072D

 53 56  0  0  1  0  0  0  0  0999 V2000
   -0.3141    5.1188    0.0000 C   0  0  0  0  0  0  0  0  0  0  0  0
   -0.0592    4.3342    0.0000 O   0  0  0  0  0  0  0  0  0  0  0  0
   -0.6112    3.7211    0.0000 C   0  0  0  0  0  0  0  0  0  0  0  0
   -0.3563    2.9365    0.0000 C   0  0  0  0  0  0  0  0  0  0  0  0
   -0.9083    2.3234    0.0000 C   0  0  0  0  0  0  0  0  0  0  0  0
   -1.7153    2.4949    0.0000 C   0  0  0  0  0  0  0  0  0  0  0  0
   -1.9702    3.2795    0.0000 C   0  0  0  0  0  0  0  0  0  0  0  0
   -2.7772    3.4510    0.0000 O   0  0  0  0  0  0  0  0  0  0  0  0
   -3.0321    4.2357    0.0000 C   0  0  0  0  0  0  0  0  0  0  0  0
   -1.4182    3.8926    0.0000 C   0  0  0  0  0  0  0  0  0  0  0  0
   -0.6534    1.5387    0.0000 C   0  0  0  0  0  0  0  0  0  0  0  0
   -0.3984    0.7541    0.0000 C   0  0  0  0  0  0  0  0  0  0  0  0
   -0.1435   -0.0305    0.0000 C   0  0  0  0  0  0  0  0  0  0  0  0
   -0.6284   -0.6979    0.0000 N   0  0  0  0  0  0  0  0  0  0  0  0
   -0.1435   -1.3654    0.0000 N   0  0  0  0  0  0  0  0  0  0  0  0
   -0.3984   -2.1500    0.0000 C   0  0  1  0  0  0  0  0  0  0  0  0
    0.0865   -2.8174    0.0000 C   0  0  0  0  0  0  0  0  0  0  0  0
   -0.3984   -3.4849    0.0000 C   0  0  0  0  0  0  0  0  0  0  0  0
   -1.1831   -3.2299    0.0000 N   0  0  0  0  0  0  0  0  0  0  0  0
   -1.1831   -2.4049    0.0000 C   0  0  0  0  0  0  0  0  0  0  0  0
   -1.8505   -3.7149    0.0000 C   0  0  0  0  0  0  0  0  0  0  0  0
   -1.7643   -4.5353    0.0000 O   0  0  0  0  0  0  0  0  0  0  0  0
   -2.6042   -3.3793    0.0000 C   0  0  0  0  0  0  0  0  0  0  0  0
   -3.2716   -3.8642    0.0000 C   0  0  0  0  0  0  0  0  0  0  0  0
    0.6411   -1.1104    0.0000 C   0  0  0  0  0  0  0  0  0  0  0  0
    0.6411   -0.2854    0.0000 C   0  0  0  0  0  0  0  0  0  0  0  0
    1.3556    0.1271    0.0000 C   0  0  0  0  0  0  0  0  0  0  0  0
    1.3556    0.9521    0.0000 N   0  0  0  0  0  0  0  0  0  0  0  0
    2.0701   -0.2854    0.0000 N   0  0  0  0  0  0  0  0  0  0  0  0
    2.0701   -1.1104    0.0000 C   0  0  0  0  0  0  0  0  0  0  0  0
    1.3556   -1.5229    0.0000 N   0  0  0  0  0  0  0  0  0  0  0  0
    0.4019    5.9139    0.0000 H   0  0  0  0  0  0  0  0  0  0  0  0
   -1.3607    5.3413    0.0000 H   0  0  0  0  0  0  0  0  0  0  0  0
   -0.6447    6.1364    0.0000 H   0  0  0  0  0  0  0  0  0  0  0  0
    0.6531    2.7219    0.0000 H   0  0  0  0  0  0  0  0  0  0  0  0
   -2.4058    1.7280    0.0000 H   0  0  0  0  0  0  0  0  0  0  0  0
   -2.3161    5.0308    0.0000 H   0  0  0  0  0  0  0  0  0  0  0  0
   -4.0787    4.4582    0.0000 H   0  0  0  0  0  0  0  0  0  0  0  0
   -3.3627    5.2534    0.0000 H   0  0  0  0  0  0  0  0  0  0  0  0
   -1.7371    4.8741    0.0000 H   0  0  0  0  0  0  0  0  0  0  0  0
    0.6584   -1.9826    0.0000 H   0  0  0  0  0  0  0  0  0  0  0  0
    1.1565   -2.8174    0.0000 H   0  0  0  0  0  0  0  0  0  0  0  0
    0.5723   -3.7708    0.0000 H   0  0  0  0  0  0  0  0  0  0  0  0
   -0.0677   -4.5025    0.0000 H   0  0  0  0  0  0  0  0  0  0  0  0
   -1.1550   -4.2415    0.0000 H   0  0  0  0  0  0  0  0  0  0  0  0
   -2.0487   -1.7759    0.0000 H   0  0  0  0  0  0  0  0  0  0  0  0
   -1.0157   -1.3481    0.0000 H   0  0  0  0  0  0  0  0  0  0  0  0
   -2.7121   -2.3530    0.0000 H   0  0  0  0  0  0  0  0  0  0  0  0
   -4.2144   -3.4445    0.0000 H   0  0  0  0  0  0  0  0  0  0  0  0
   -3.1637   -4.8905    0.0000 H   0  0  0  0  0  0  0  0  0  0  0  0
    2.2082    1.4444    0.0000 H   0  0  0  0  0  0  0  0  0  0  0  0
    0.5030    1.4444    0.0000 H   0  0  0  0  0  0  0  0  0  0  0  0
    2.9638   -1.6264    0.0000 H   0  0  0  0  0  0  0  0  0  0  0  0
  1  2  1  0  0  0  0
  1 32  1  0  0  0  0
  1 33  1  0  0  0  0
  1 34  1  0  0  0  0
  2  3  1  0  0  0  0
  3  4  2  0  0  0  0
  3 10  1  0  0  0  0
  4  5  1  0  0  0  0
  4 35  1  0  0  0  0
  5  6  2  0  0  0  0
  5 11  1  0  0  0  0
  6  7  1  0  0  0  0
  6 36  1  0  0  0  0
  7  8  1  0  0  0  0
  7 10  2  0  0  0  0
  8  9  1  0  0  0  0
  9 37  1  0  0  0  0
  9 38  1  0  0  0  0
  9 39  1  0  0  0  0
 10 40  1  0  0  0  0
 11 12  3  0  0  0  0
 12 13  1  0  0  0  0
 13 14  2  0  0  0  0
 13 26  1  0  0  0  0
 14 15  1  0  0  0  0
 15 25  1  0  0  0  0
 16 15  1  0  0  0  0
 16 17  1  0  0  0  0
 16 20  1  0  0  0  0
 16 41  1  6  0  0  0
 17 18  1  0  0  0  0
 17 42  1  0  0  0  0
 17 43  1  0  0  0  0
 18 19  1  0  0  0  0
 18 44  1  0  0  0  0
 18 45  1  0  0  0  0
 19 20  1  0  0  0  0
 19 21  1  0  0  0  0
 20 46  1  0  0  0  0
 20 47  1  0  0  0  0
 21 22  2  0  0  0  0
 21 23  1  0  0  0  0
 23 24  2  0  0  0  0
 23 48  1  0  0  0  0
 24 49  1  0  0  0  0
 24 50  1  0  0  0  0
 25 26  2  0  0  0  0
 25 31  1  0  0  0  0
 26 27  1  0  0  0  0
 27 28  1  0  0  0  0
 27 29  2  0  0  0  0
 28 51  1  0  0  0  0
 28 52  1  0  0  0  0
 29 30  1  0  0  0  0
 30 31  2  0  0  0  0
 30 53  1  0  0  0  0
M  END
>  <DRUGBANK_ID>
DB15149

>  <COMMON_NAME>
Futibatinib

>  <CAS_NUMBER>
1448169-71-8

>  <UNII>
4B93MGE4AL

>  <SYNONYMS>
1-((3S)-(4-amino-3-((3,5-dimethoxyphenyl)ethynyl)-1H-pyrazolo(3, 4-d) pyrimidin-1-yl)-1-pyrrolidinyl)-2-propen-1-one; 1-[(3S)-3-{4-amino-3-[(3,5-dimethoxyphenyl)ethynyl]-1H-pyrazolo[3,4-d]pyrimidin-1-yl}pyrrolidin-1-yl]prop-2-en-1-one; Futibatinib

$$$$
