
 OpenBabel10282417072D

 51 53  0  0  1  0  0  0  0  0999 V2000
    4.5080   -0.5082    0.0000 O   0  0  0  0  0  0  0  0  0  0  0  0
    3.3810    0.0148    0.0000 O   0  0  0  0  0  0  0  0  0  0  0  0
    5.2224    0.7293    0.0000 O   0  0  0  0  0  0  0  0  0  0  0  0
    5.9370   -2.1582    0.0000 N   0  3  0  0  0  0  0  0  0  0  0  0
    5.2224   -1.7457    0.0000 C   0  0  0  0  0  0  0  0  0  0  0  0
    6.6515   -1.7457    0.0000 C   0  0  0  0  0  0  0  0  0  0  0  0
    5.2224   -0.9207    0.0000 C   0  0  3  0  0  0  0  0  0  0  0  0
    6.6515   -0.9207    0.0000 C   0  0  0  0  0  0  0  0  0  0  0  0
    5.9370   -0.5082    0.0000 C   0  0  0  0  0  0  0  0  0  0  0  0
    5.5245   -2.8728    0.0000 C   0  0  0  0  0  0  0  0  0  0  0  0
    6.3495   -2.8728    0.0000 C   0  0  0  0  0  0  0  0  0  0  0  0
    4.5080    0.3168    0.0000 C   0  0  0  0  0  0  0  0  0  0  0  0
    3.7935    0.7293    0.0000 C   0  0  0  0  0  0  0  0  0  0  0  0
    3.0791    1.1418    0.0000 C   0  0  0  0  0  0  0  0  0  0  0  0
    4.2060    1.4438    0.0000 C   0  0  0  0  0  0  0  0  0  0  0  0
    2.3645    0.7293    0.0000 C   0  0  0  0  0  0  0  0  0  0  0  0
    3.7935    2.1582    0.0000 C   0  0  0  0  0  0  0  0  0  0  0  0
    3.0791    1.9668    0.0000 C   0  0  0  0  0  0  0  0  0  0  0  0
    5.0310    1.4438    0.0000 C   0  0  0  0  0  0  0  0  0  0  0  0
    1.6500    1.1418    0.0000 C   0  0  0  0  0  0  0  0  0  0  0  0
    4.2060    2.8728    0.0000 C   0  0  0  0  0  0  0  0  0  0  0  0
    2.3645    2.3794    0.0000 C   0  0  0  0  0  0  0  0  0  0  0  0
    5.4436    2.1582    0.0000 C   0  0  0  0  0  0  0  0  0  0  0  0
    1.6500    1.9668    0.0000 C   0  0  0  0  0  0  0  0  0  0  0  0
    5.0310    2.8728    0.0000 C   0  0  0  0  0  0  0  0  0  0  0  0
    2.4110    0.0148    0.0000 H   0  0  0  0  0  0  0  0  0  0  0  0
    4.2958   -2.2807    0.0000 H   0  0  0  0  0  0  0  0  0  0  0  0
    4.2957   -1.2107    0.0000 H   0  0  0  0  0  0  0  0  0  0  0  0
    7.5781   -2.2807    0.0000 H   0  0  0  0  0  0  0  0  0  0  0  0
    7.5781   -1.2107    0.0000 H   0  0  0  0  0  0  0  0  0  0  0  0
    4.2957   -1.4557    0.0000 H   0  0  0  0  0  0  0  0  0  0  0  0
    7.5781   -0.3857    0.0000 H   0  0  0  0  0  0  0  0  0  0  0  0
    6.6515    0.1493    0.0000 H   0  0  0  0  0  0  0  0  0  0  0  0
    5.9370    0.5618    0.0000 H   0  0  0  0  0  0  0  0  0  0  0  0
    6.8637    0.0268    0.0000 H   0  0  0  0  0  0  0  0  0  0  0  0
    4.4545   -2.8729    0.0000 H   0  0  0  0  0  0  0  0  0  0  0  0
    6.0596   -3.7994    0.0000 H   0  0  0  0  0  0  0  0  0  0  0  0
    4.9896   -3.7995    0.0000 H   0  0  0  0  0  0  0  0  0  0  0  0
    5.8144   -3.7994    0.0000 H   0  0  0  0  0  0  0  0  0  0  0  0
    7.4195   -2.8729    0.0000 H   0  0  0  0  0  0  0  0  0  0  0  0
    6.8844   -3.7995    0.0000 H   0  0  0  0  0  0  0  0  0  0  0  0
    2.3645   -0.3027    0.0000 H   0  0  0  0  0  0  0  0  0  0  0  0
    2.7615    2.1581    0.0000 H   0  0  0  0  0  0  0  0  0  0  0  0
    3.9728    2.4828    0.0000 H   0  0  0  0  0  0  0  0  0  0  0  0
    5.5469    0.5500    0.0000 H   0  0  0  0  0  0  0  0  0  0  0  0
    0.7563    0.6258    0.0000 H   0  0  0  0  0  0  0  0  0  0  0  0
    3.6900    3.7665    0.0000 H   0  0  0  0  0  0  0  0  0  0  0  0
    2.3645    3.4114    0.0000 H   0  0  0  0  0  0  0  0  0  0  0  0
    6.4756    2.1581    0.0000 H   0  0  0  0  0  0  0  0  0  0  0  0
    0.7562    2.4828    0.0000 H   0  0  0  0  0  0  0  0  0  0  0  0
    5.5470    3.7665    0.0000 H   0  0  0  0  0  0  0  0  0  0  0  0
  1  7  1  0  0  0  0
  1 12  1  0  0  0  0
  2 13  1  0  0  0  0
  2 26  1  0  0  0  0
  3 12  2  0  0  0  0
  4  5  1  0  0  0  0
  4  6  1  0  0  0  0
  4 10  1  0  0  0  0
  4 11  1  0  0  0  0
  5  7  1  0  0  0  0
  5 27  1  0  0  0  0
  5 28  1  0  0  0  0
  6  8  1  0  0  0  0
  6 29  1  0  0  0  0
  6 30  1  0  0  0  0
  7  9  1  0  0  0  0
  7 31  1  0  0  0  0
  8  9  1  0  0  0  0
  8 32  1  0  0  0  0
  8 33  1  0  0  0  0
  9 34  1  0  0  0  0
  9 35  1  0  0  0  0
 10 36  1  0  0  0  0
 10 37  1  0  0  0  0
 10 38  1  0  0  0  0
 11 39  1  0  0  0  0
 11 40  1  0  0  0  0
 11 41  1  0  0  0  0
 12 13  1  0  0  0  0
 13 14  1  0  0  0  0
 13 15  1  0  0  0  0
 14 16  2  0  0  0  0
 14 18  1  0  0  0  0
 15 17  2  0  0  0  0
 15 19  1  0  0  0  0
 16 20  1  0  0  0  0
 16 42  1  0  0  0  0
 17 21  1  0  0  0  0
 17 43  1  0  0  0  0
 18 22  2  0  0  0  0
 18 44  1  0  0  0  0
 19 23  2  0  0  0  0
 19 45  1  0  0  0  0
 20 24  2  0  0  0  0
 20 46  1  0  0  0  0
 21 25  2  0  0  0  0
 21 47  1  0  0  0  0
 22 24  1  0  0  0  0
 22 48  1  0  0  0  0
 23 25  1  0  0  0  0
 23 49  1  0  0  0  0
 24 50  1  0  0  0  0
 25 51  1  0  0  0  0
M  CHG  1   4   1
M  END
>  <DRUGBANK_ID>
DB04843

>  <COMMON_NAME>
Mepenzolate

>  <CAS_NUMBER>
25990-43-6

>  <UNII>
ONW3LB39P7

>  <SYNONYMS>
Mepenzolate; Mepenzolic acid

$$$$
