
 OpenBabel10282417072D

 66 68  0  0  0  0  0  0  0  0999 V2000
    0.4645   -5.4627    0.0000 C   0  0  0  0  0  0  0  0  0  0  0  0
   -0.0499   -4.8177    0.0000 C   0  0  0  0  0  0  0  0  0  0  0  0
    0.2515   -4.0497    0.0000 N   0  3  0  0  0  0  0  0  0  0  0  0
    1.0195   -4.3511    0.0000 C   0  0  0  0  0  0  0  0  0  0  0  0
   -0.5164   -3.7483    0.0000 C   0  0  0  0  0  0  0  0  0  0  0  0
   -0.6394   -2.9325    0.0000 C   0  0  0  0  0  0  0  0  0  0  0  0
    0.5529   -3.2817    0.0000 C   0  0  0  0  0  0  0  0  0  0  0  0
    0.0386   -2.6367    0.0000 C   0  0  0  0  0  0  0  0  0  0  0  0
    0.3400   -1.8687    0.0000 S   0  0  0  0  0  0  0  0  0  0  0  0
   -0.1744   -1.2237    0.0000 C   0  0  0  0  0  0  0  0  0  0  0  0
   -0.9787   -1.4073    0.0000 N   0  0  0  0  0  0  0  0  0  0  0  0
   -1.6237   -0.8929    0.0000 C   0  0  0  0  0  0  0  0  0  0  0  0
   -2.3382   -1.3054    0.0000 C   0  0  0  0  0  0  0  0  0  0  0  0
   -3.0527   -0.8929    0.0000 C   0  0  0  0  0  0  0  0  0  0  0  0
   -3.0527   -0.0679    0.0000 C   0  0  0  0  0  0  0  0  0  0  0  0
   -2.3382    0.3446    0.0000 C   0  0  0  0  0  0  0  0  0  0  0  0
   -1.6237   -0.0679    0.0000 C   0  0  0  0  0  0  0  0  0  0  0  0
   -0.9787    0.4465    0.0000 N   0  0  0  0  0  0  0  0  0  0  0  0
   -0.1744    0.2629    0.0000 C   0  0  0  0  0  0  0  0  0  0  0  0
    0.1835   -0.4804    0.0000 C   0  0  0  0  0  0  0  0  0  0  0  0
    0.3400    0.9079    0.0000 C   0  0  0  0  0  0  0  0  0  0  0  0
    0.0386    1.6759    0.0000 C   0  0  0  0  0  0  0  0  0  0  0  0
    0.5529    2.3209    0.0000 C   0  0  0  0  0  0  0  0  0  0  0  0
    1.3687    2.1979    0.0000 C   0  0  0  0  0  0  0  0  0  0  0  0
    1.6701    1.4299    0.0000 C   0  0  0  0  0  0  0  0  0  0  0  0
    1.1557    0.7849    0.0000 C   0  0  0  0  0  0  0  0  0  0  0  0
    1.8831    2.8429    0.0000 S   0  0  0  0  0  0  0  0  0  0  0  0
    1.5817    3.6109    0.0000 C   0  0  0  0  0  0  0  0  0  0  0  0
    0.7659    3.7339    0.0000 C   0  0  0  0  0  0  0  0  0  0  0  0
    0.4645    4.5018    0.0000 C   0  0  0  0  0  0  0  0  0  0  0  0
    0.9789    5.1468    0.0000 C   0  0  0  0  0  0  0  0  0  0  0  0
    1.7947    5.0239    0.0000 C   0  0  0  0  0  0  0  0  0  0  0  0
    2.0961    4.2559    0.0000 C   0  0  0  0  0  0  0  0  0  0  0  0
    4.3354    0.0000    0.0000 I   0  5  0  0  0  0  0  0  0  0  0  0
    0.0736   -6.4587    0.0000 H   0  0  0  0  0  0  0  0  0  0  0  0
    1.5225   -5.3032    0.0000 H   0  0  0  0  0  0  0  0  0  0  0  0
    1.1317   -6.2992    0.0000 H   0  0  0  0  0  0  0  0  0  0  0  0
   -1.1079   -4.9772    0.0000 H   0  0  0  0  0  0  0  0  0  0  0  0
   -0.7171   -3.9812    0.0000 H   0  0  0  0  0  0  0  0  0  0  0  0
    1.1790   -5.4091    0.0000 H   0  0  0  0  0  0  0  0  0  0  0  0
    1.8560   -3.6839    0.0000 H   0  0  0  0  0  0  0  0  0  0  0  0
    2.0155   -4.7420    0.0000 H   0  0  0  0  0  0  0  0  0  0  0  0
   -1.3530   -4.4154    0.0000 H   0  0  0  0  0  0  0  0  0  0  0  0
   -1.5124   -3.3574    0.0000 H   0  0  0  0  0  0  0  0  0  0  0  0
    0.1971   -2.2653    0.0000 H   0  0  0  0  0  0  0  0  0  0  0  0
   -1.6355   -2.5416    0.0000 H   0  0  0  0  0  0  0  0  0  0  0  0
   -0.7989   -1.8745    0.0000 H   0  0  0  0  0  0  0  0  0  0  0  0
    1.6110   -3.1222    0.0000 H   0  0  0  0  0  0  0  0  0  0  0  0
    0.9439   -2.2857    0.0000 H   0  0  0  0  0  0  0  0  0  0  0  0
   -1.0195   -2.7962    0.0000 H   0  0  0  0  0  0  0  0  0  0  0  0
   -0.6285   -1.8001    0.0000 H   0  0  0  0  0  0  0  0  0  0  0  0
   -2.3382   -2.3374    0.0000 H   0  0  0  0  0  0  0  0  0  0  0  0
   -3.9464   -1.4089    0.0000 H   0  0  0  0  0  0  0  0  0  0  0  0
   -3.9464    0.4481    0.0000 H   0  0  0  0  0  0  0  0  0  0  0  0
   -2.3382    1.3766    0.0000 H   0  0  0  0  0  0  0  0  0  0  0  0
    1.2535   -0.4804    0.0000 H   0  0  0  0  0  0  0  0  0  0  0  0
    0.7528   -1.3864    0.0000 H   0  0  0  0  0  0  0  0  0  0  0  0
   -0.9819    1.8297    0.0000 H   0  0  0  0  0  0  0  0  0  0  0  0
    0.1759    3.2816    0.0000 H   0  0  0  0  0  0  0  0  0  0  0  0
    2.6906    1.2761    0.0000 H   0  0  0  0  0  0  0  0  0  0  0  0
    1.5327   -0.1758    0.0000 H   0  0  0  0  0  0  0  0  0  0  0  0
    0.1224    2.9271    0.0000 H   0  0  0  0  0  0  0  0  0  0  0  0
   -0.5560    4.6556    0.0000 H   0  0  0  0  0  0  0  0  0  0  0  0
    0.6018    6.1075    0.0000 H   0  0  0  0  0  0  0  0  0  0  0  0
    2.4381    5.8308    0.0000 H   0  0  0  0  0  0  0  0  0  0  0  0
    3.1166    4.1021    0.0000 H   0  0  0  0  0  0  0  0  0  0  0  0
  1  2  1  0  0  0  0
  1 35  1  0  0  0  0
  1 36  1  0  0  0  0
  1 37  1  0  0  0  0
  2  3  1  0  0  0  0
  2 38  1  0  0  0  0
  2 39  1  0  0  0  0
  3  4  1  0  0  0  0
  3  5  1  0  0  0  0
  3  7  1  0  0  0  0
  4 40  1  0  0  0  0
  4 41  1  0  0  0  0
  4 42  1  0  0  0  0
  5  6  1  0  0  0  0
  5 43  1  0  0  0  0
  5 44  1  0  0  0  0
  6 45  1  0  0  0  0
  6 46  1  0  0  0  0
  6 47  1  0  0  0  0
  7  8  1  0  0  0  0
  7 48  1  0  0  0  0
  7 49  1  0  0  0  0
  8  9  1  0  0  0  0
  8 50  1  0  0  0  0
  8 51  1  0  0  0  0
  9 10  1  0  0  0  0
 10 11  2  0  0  0  0
 10 20  1  0  0  0  0
 11 12  1  0  0  0  0
 12 13  2  0  0  0  0
 12 17  1  0  0  0  0
 13 14  1  0  0  0  0
 13 52  1  0  0  0  0
 14 15  2  0  0  0  0
 14 53  1  0  0  0  0
 15 16  1  0  0  0  0
 15 54  1  0  0  0  0
 16 17  2  0  0  0  0
 16 55  1  0  0  0  0
 17 18  1  0  0  0  0
 18 19  2  0  0  0  0
 19 20  1  0  0  0  0
 19 21  1  0  0  0  0
 20 56  1  0  0  0  0
 20 57  1  0  0  0  0
 21 22  2  0  0  0  0
 21 26  1  0  0  0  0
 22 23  1  0  0  0  0
 22 58  1  0  0  0  0
 23 24  2  0  0  0  0
 23 59  1  0  0  0  0
 24 25  1  0  0  0  0
 24 27  1  0  0  0  0
 25 26  2  0  0  0  0
 25 60  1  0  0  0  0
 26 61  1  0  0  0  0
 27 28  1  0  0  0  0
 28 29  2  0  0  0  0
 28 33  1  0  0  0  0
 29 30  1  0  0  0  0
 29 62  1  0  0  0  0
 30 31  2  0  0  0  0
 30 63  1  0  0  0  0
 31 32  1  0  0  0  0
 31 64  1  0  0  0  0
 32 33  2  0  0  0  0
 32 65  1  0  0  0  0
 33 66  1  0  0  0  0
M  CHG  2   3   1  34  -1
M  END
>  <DRUGBANK_ID>
DB13702

>  <COMMON_NAME>
Tibezonium iodide

>  <CAS_NUMBER>
54663-47-7

>  <UNII>
E9P274AJEW

>  <SYNONYMS>
Tibezonium iodide

$$$$
