
 OpenBabel10282417072D

107111  0  0  1  0  0  0  0  0999 V2000
   -6.3235   -1.4223    0.0000 N   0  0  0  0  0  0  0  0  0  0  0  0
   -6.3235   -0.5973    0.0000 C   0  0  0  0  0  0  0  0  0  0  0  0
   -5.6091   -0.1848    0.0000 C   0  0  2  0  0  0  0  0  0  0  0  0
   -4.8946   -0.5973    0.0000 O   0  0  0  0  0  0  0  0  0  0  0  0
   -4.1801   -0.1848    0.0000 C   0  0  2  0  0  0  0  0  0  0  0  0
   -3.4656   -0.5973    0.0000 O   0  0  0  0  0  0  0  0  0  0  0  0
   -3.4656   -1.4223    0.0000 C   0  0  2  0  0  0  0  0  0  0  0  0
   -4.1331   -1.9072    0.0000 C   0  0  1  0  0  0  0  0  0  0  0  0
   -4.9177   -1.6523    0.0000 C   0  0  0  0  0  0  0  0  0  0  0  0
   -5.5308   -2.2043    0.0000 O   0  0  0  0  0  0  0  0  0  0  0  0
   -3.8781   -2.6919    0.0000 O   0  0  0  0  0  0  0  0  0  0  0  0
   -3.0531   -2.6919    0.0000 C   0  0  1  0  0  0  0  0  0  0  0  0
   -2.5682   -3.3593    0.0000 O   0  0  0  0  0  0  0  0  0  0  0  0
   -2.9038   -4.1130    0.0000 C   0  0  2  0  0  0  0  0  0  0  0  0
   -2.4189   -4.7804    0.0000 C   0  0  1  0  0  0  0  0  0  0  0  0
   -1.5984   -4.6942    0.0000 O   0  0  0  0  0  0  0  0  0  0  0  0
   -2.7544   -5.5341    0.0000 C   0  0  2  0  0  0  0  0  0  0  0  0
   -2.2695   -6.2015    0.0000 N   0  0  0  0  0  0  0  0  0  0  0  0
   -3.5749   -5.6203    0.0000 C   0  0  0  0  0  0  0  0  0  0  0  0
   -4.0598   -4.9529    0.0000 C   0  0  2  0  0  0  0  0  0  0  0  0
   -4.8803   -5.0391    0.0000 N   0  0  0  0  0  0  0  0  0  0  0  0
   -3.7243   -4.1992    0.0000 C   0  0  1  0  0  0  0  0  0  0  0  0
   -4.2092   -3.5318    0.0000 O   0  0  0  0  0  0  0  0  0  0  0  0
   -5.0297   -3.6180    0.0000 C   0  0  1  0  0  0  0  0  0  0  0  0
   -5.3652   -4.3717    0.0000 O   0  0  0  0  0  0  0  0  0  0  0  0
   -6.1857   -4.4579    0.0000 C   0  0  2  0  0  0  0  0  0  0  0  0
   -6.5213   -5.2116    0.0000 C   0  0  0  0  0  0  0  0  0  0  0  0
   -7.3417   -5.2978    0.0000 O   0  0  0  0  0  0  0  0  0  0  0  0
   -6.6706   -3.7905    0.0000 C   0  0  1  0  0  0  0  0  0  0  0  0
   -7.4911   -3.8767    0.0000 O   0  0  0  0  0  0  0  0  0  0  0  0
   -6.3351   -3.0368    0.0000 C   0  0  0  0  0  0  0  0  0  0  0  0
   -5.5146   -2.9506    0.0000 C   0  0  1  0  0  0  0  0  0  0  0  0
   -5.1790   -2.1969    0.0000 N   0  0  0  0  0  0  0  0  0  0  0  0
   -2.7982   -1.9072    0.0000 C   0  0  2  0  0  0  0  0  0  0  0  0
   -2.0136   -1.6523    0.0000 O   0  0  0  0  0  0  0  0  0  0  0  0
   -4.1801    0.6402    0.0000 C   0  0  2  0  0  0  0  0  0  0  0  0
   -3.4656    1.0527    0.0000 N   0  0  0  0  0  0  0  0  0  0  0  0
   -4.8946    1.0527    0.0000 C   0  0  1  0  0  0  0  0  0  0  0  0
   -4.8946    1.8777    0.0000 O   0  0  0  0  0  0  0  0  0  0  0  0
   -5.6091    0.6402    0.0000 C   0  0  2  0  0  0  0  0  0  0  0  0
   -6.3235    1.0527    0.0000 O   0  0  0  0  0  0  0  0  0  0  0  0
   -7.0380    0.6402    0.0000 C   0  0  1  0  0  0  0  0  0  0  0  0
   -7.0380   -0.1848    0.0000 O   0  0  0  0  0  0  0  0  0  0  0  0
   -7.7525   -0.5973    0.0000 C   0  0  2  0  0  0  0  0  0  0  0  0
   -7.7525   -1.4223    0.0000 C   0  0  0  0  0  0  0  0  0  0  0  0
   -8.4669   -1.8348    0.0000 O   0  0  0  0  0  0  0  0  0  0  0  0
   -8.4669   -0.1848    0.0000 C   0  0  1  0  0  0  0  0  0  0  0  0
   -9.1814   -0.5973    0.0000 O   0  0  0  0  0  0  0  0  0  0  0  0
   -8.4669    0.6402    0.0000 C   0  0  2  0  0  0  0  0  0  0  0  0
   -9.1814    1.0527    0.0000 O   0  0  0  0  0  0  0  0  0  0  0  0
   -7.7525    1.0527    0.0000 C   0  0  2  0  0  0  0  0  0  0  0  0
   -7.7525    1.8777    0.0000 O   0  0  0  0  0  0  0  0  0  0  0  0
   -7.2068   -1.9323    0.0000 H   0  0  0  0  0  0  0  0  0  0  0  0
   -5.4402   -1.9323    0.0000 H   0  0  0  0  0  0  0  0  0  0  0  0
   -7.2502   -0.0623    0.0000 H   0  0  0  0  0  0  0  0  0  0  0  0
   -6.3235    0.4727    0.0000 H   0  0  0  0  0  0  0  0  0  0  0  0
   -5.6091   -1.2548    0.0000 H   0  0  0  0  0  0  0  0  0  0  0  0
   -4.1801   -1.2548    0.0000 H   0  0  0  0  0  0  0  0  0  0  0  0
   -4.4190   -0.9365    0.0000 H   0  0  0  0  0  0  0  0  0  0  0  0
   -4.3005   -0.8504    0.0000 H   0  0  0  0  0  0  0  0  0  0  0  0
   -5.1402   -0.6057    0.0000 H   0  0  0  0  0  0  0  0  0  0  0  0
   -5.9353   -1.3216    0.0000 H   0  0  0  0  0  0  0  0  0  0  0  0
   -6.4533   -1.9045    0.0000 H   0  0  0  0  0  0  0  0  0  0  0  0
   -3.5389   -3.6453    0.0000 H   0  0  0  0  0  0  0  0  0  0  0  0
   -1.8397   -4.0012    0.0000 H   0  0  0  0  0  0  0  0  0  0  0  0
   -1.9837   -3.8029    0.0000 H   0  0  0  0  0  0  0  0  0  0  0  0
   -1.0283   -5.4790    0.0000 H   0  0  0  0  0  0  0  0  0  0  0  0
   -1.6903   -5.4222    0.0000 H   0  0  0  0  0  0  0  0  0  0  0  0
   -2.6844   -7.1333    0.0000 H   0  0  0  0  0  0  0  0  0  0  0  0
   -1.2551   -6.0949    0.0000 H   0  0  0  0  0  0  0  0  0  0  0  0
   -4.0101   -6.5978    0.0000 H   0  0  0  0  0  0  0  0  0  0  0  0
   -4.6390   -5.7321    0.0000 H   0  0  0  0  0  0  0  0  0  0  0  0
   -4.4950   -5.9304    0.0000 H   0  0  0  0  0  0  0  0  0  0  0  0
   -5.4798   -4.2139    0.0000 H   0  0  0  0  0  0  0  0  0  0  0  0
   -5.2952   -5.9709    0.0000 H   0  0  0  0  0  0  0  0  0  0  0  0
   -4.7884   -4.3111    0.0000 H   0  0  0  0  0  0  0  0  0  0  0  0
   -4.4008   -4.4836    0.0000 H   0  0  0  0  0  0  0  0  0  0  0  0
   -5.5568   -5.3236    0.0000 H   0  0  0  0  0  0  0  0  0  0  0  0
   -5.8924   -6.0773    0.0000 H   0  0  0  0  0  0  0  0  0  0  0  0
   -6.9565   -6.1891    0.0000 H   0  0  0  0  0  0  0  0  0  0  0  0
   -7.9118   -4.5130    0.0000 H   0  0  0  0  0  0  0  0  0  0  0  0
   -7.1058   -4.7680    0.0000 H   0  0  0  0  0  0  0  0  0  0  0  0
   -8.0612   -3.0919    0.0000 H   0  0  0  0  0  0  0  0  0  0  0  0
   -6.9640   -2.1712    0.0000 H   0  0  0  0  0  0  0  0  0  0  0  0
   -5.8999   -2.0593    0.0000 H   0  0  0  0  0  0  0  0  0  0  0  0
   -6.1435   -2.0849    0.0000 H   0  0  0  0  0  0  0  0  0  0  0  0
   -4.1646   -2.0903    0.0000 H   0  0  0  0  0  0  0  0  0  0  0  0
   -5.7785   -1.3717    0.0000 H   0  0  0  0  0  0  0  0  0  0  0  0
   -2.0416   -2.6638    0.0000 H   0  0  0  0  0  0  0  0  0  0  0  0
   -1.2928   -2.3014    0.0000 H   0  0  0  0  0  0  0  0  0  0  0  0
   -3.2535    0.1052    0.0000 H   0  0  0  0  0  0  0  0  0  0  0  0
   -2.5823    0.5427    0.0000 H   0  0  0  0  0  0  0  0  0  0  0  0
   -3.4656    2.0727    0.0000 H   0  0  0  0  0  0  0  0  0  0  0  0
   -3.9680    1.5877    0.0000 H   0  0  0  0  0  0  0  0  0  0  0  0
   -4.0546    2.3627    0.0000 H   0  0  0  0  0  0  0  0  0  0  0  0
   -5.6091    1.7102    0.0000 H   0  0  0  0  0  0  0  0  0  0  0  0
   -6.1114    0.1052    0.0000 H   0  0  0  0  0  0  0  0  0  0  0  0
   -6.8259   -1.1323    0.0000 H   0  0  0  0  0  0  0  0  0  0  0  0
   -6.8258   -1.9573    0.0000 H   0  0  0  0  0  0  0  0  0  0  0  0
   -7.7525   -2.4923    0.0000 H   0  0  0  0  0  0  0  0  0  0  0  0
   -9.3070   -1.3498    0.0000 H   0  0  0  0  0  0  0  0  0  0  0  0
   -8.4669   -1.2548    0.0000 H   0  0  0  0  0  0  0  0  0  0  0  0
  -10.0214   -0.1123    0.0000 H   0  0  0  0  0  0  0  0  0  0  0  0
   -9.3935    0.1052    0.0000 H   0  0  0  0  0  0  0  0  0  0  0  0
   -9.1814    2.0227    0.0000 H   0  0  0  0  0  0  0  0  0  0  0  0
   -8.6792    1.5877    0.0000 H   0  0  0  0  0  0  0  0  0  0  0  0
   -6.9125    2.3627    0.0000 H   0  0  0  0  0  0  0  0  0  0  0  0
  1  2  1  0  0  0  0
  1 53  1  0  0  0  0
  1 54  1  0  0  0  0
  2 55  1  0  0  0  0
  2 56  1  0  0  0  0
  3  2  1  0  0  0  0
  3  4  1  0  0  0  0
  3 40  1  0  0  0  0
  3 57  1  6  0  0  0
  4  5  1  0  0  0  0
  5  6  1  0  0  0  0
  5 36  1  0  0  0  0
  5 58  1  6  0  0  0
  7  6  1  0  0  0  0
  7  8  1  0  0  0  0
  7 34  1  0  0  0  0
  7 59  1  6  0  0  0
  8  9  1  0  0  0  0
  8 11  1  0  0  0  0
  8 60  1  1  0  0  0
  9 10  1  0  0  0  0
  9 61  1  0  0  0  0
  9 62  1  0  0  0  0
 10 63  1  0  0  0  0
 11 12  1  0  0  0  0
 12 13  1  0  0  0  0
 12 34  1  0  0  0  0
 12 64  1  1  0  0  0
 14 13  1  0  0  0  0
 14 15  1  0  0  0  0
 14 22  1  0  0  0  0
 14 65  1  1  0  0  0
 15 16  1  0  0  0  0
 15 17  1  0  0  0  0
 15 66  1  6  0  0  0
 16 67  1  0  0  0  0
 17 18  1  0  0  0  0
 17 19  1  0  0  0  0
 17 68  1  1  0  0  0
 18 69  1  0  0  0  0
 18 70  1  0  0  0  0
 19 20  1  0  0  0  0
 19 71  1  0  0  0  0
 19 72  1  0  0  0  0
 20 21  1  0  0  0  0
 20 22  1  0  0  0  0
 20 73  1  1  0  0  0
 21 74  1  0  0  0  0
 21 75  1  0  0  0  0
 22 23  1  0  0  0  0
 22 76  1  6  0  0  0
 24 23  1  0  0  0  0
 24 25  1  0  0  0  0
 24 32  1  0  0  0  0
 24 77  1  6  0  0  0
 25 26  1  0  0  0  0
 26 27  1  0  0  0  0
 26 29  1  0  0  0  0
 26 78  1  1  0  0  0
 27 28  1  0  0  0  0
 27 79  1  0  0  0  0
 27 80  1  0  0  0  0
 28 81  1  0  0  0  0
 29 30  1  0  0  0  0
 29 31  1  0  0  0  0
 29 82  1  6  0  0  0
 30 83  1  0  0  0  0
 31 32  1  0  0  0  0
 31 84  1  0  0  0  0
 31 85  1  0  0  0  0
 32 33  1  0  0  0  0
 32 86  1  6  0  0  0
 33 87  1  0  0  0  0
 33 88  1  0  0  0  0
 34 35  1  0  0  0  0
 34 89  1  6  0  0  0
 35 90  1  0  0  0  0
 36 37  1  0  0  0  0
 36 38  1  0  0  0  0
 36 91  1  6  0  0  0
 37 92  1  0  0  0  0
 37 93  1  0  0  0  0
 38 39  1  0  0  0  0
 38 40  1  0  0  0  0
 38 94  1  1  0  0  0
 39 95  1  0  0  0  0
 40 41  1  0  0  0  0
 40 96  1  6  0  0  0
 42 41  1  0  0  0  0
 42 43  1  0  0  0  0
 42 51  1  0  0  0  0
 42 97  1  6  0  0  0
 43 44  1  0  0  0  0
 44 45  1  0  0  0  0
 44 47  1  0  0  0  0
 44 98  1  1  0  0  0
 45 46  1  0  0  0  0
 45 99  1  0  0  0  0
 45100  1  0  0  0  0
 46101  1  0  0  0  0
 47 48  1  0  0  0  0
 47 49  1  0  0  0  0
 47102  1  6  0  0  0
 48103  1  0  0  0  0
 49 50  1  0  0  0  0
 49 51  1  0  0  0  0
 49104  1  1  0  0  0
 50105  1  0  0  0  0
 51 52  1  0  0  0  0
 51106  1  1  0  0  0
 52107  1  0  0  0  0
M  END
>  <DRUGBANK_ID>
DB04728

>  <COMMON_NAME>
Lividomycin A

>  <CAS_NUMBER>
36441-41-5

>  <UNII>
A606AJ494W

>  <SYNONYMS>
lividomicina

$$$$
