
 OpenBabel10282417072D

 18 19  0  0  0  0  0  0  0  0999 V2000
   -1.0717    0.4125    0.0000 C   0  0  0  0  0  0  0  0  0  0  0  0
   -1.0717   -0.4125    0.0000 C   0  0  0  0  0  0  0  0  0  0  0  0
   -0.3572   -0.8250    0.0000 C   0  0  0  0  0  0  0  0  0  0  0  0
    0.3572   -0.4125    0.0000 C   0  0  0  0  0  0  0  0  0  0  0  0
    0.3572    0.4125    0.0000 C   0  0  0  0  0  0  0  0  0  0  0  0
   -0.3572    0.8250    0.0000 C   0  0  0  0  0  0  0  0  0  0  0  0
    1.0717   -0.8250    0.0000 C   0  0  0  0  0  0  0  0  0  0  0  0
    1.7861   -0.4125    0.0000 C   0  0  0  0  0  0  0  0  0  0  0  0
    1.7861    0.4125    0.0000 C   0  0  0  0  0  0  0  0  0  0  0  0
    1.0717    0.8250    0.0000 N   0  0  0  0  0  0  0  0  0  0  0  0
   -0.3572    1.6498    0.0000 O   0  0  0  0  0  0  0  0  0  0  0  0
   -1.7861    0.8250    0.0000 I   0  0  0  0  0  0  0  0  0  0  0  0
   -0.3572   -1.6498    0.0000 I   0  0  0  0  0  0  0  0  0  0  0  0
   -1.9654   -0.9285    0.0000 H   0  0  0  0  0  0  0  0  0  0  0  0
    1.0717   -1.8570    0.0000 H   0  0  0  0  0  0  0  0  0  0  0  0
    2.6798   -0.9285    0.0000 H   0  0  0  0  0  0  0  0  0  0  0  0
    2.6798    0.9285    0.0000 H   0  0  0  0  0  0  0  0  0  0  0  0
    0.4543    2.1183    0.0000 H   0  0  0  0  0  0  0  0  0  0  0  0
  1  2  2  0  0  0  0
  1  6  1  0  0  0  0
  1 12  1  0  0  0  0
  2  3  1  0  0  0  0
  2 14  1  0  0  0  0
  3  4  2  0  0  0  0
  3 13  1  0  0  0  0
  4  5  1  0  0  0  0
  4  7  1  0  0  0  0
  5  6  2  0  0  0  0
  5 10  1  0  0  0  0
  6 11  1  0  0  0  0
  7  8  2  0  0  0  0
  7 15  1  0  0  0  0
  8  9  1  0  0  0  0
  8 16  1  0  0  0  0
  9 10  2  0  0  0  0
  9 17  1  0  0  0  0
 11 18  1  0  0  0  0
M  END
>  <DRUGBANK_ID>
DB09115

>  <COMMON_NAME>
Diiodohydroxyquinoline

>  <CAS_NUMBER>
83-73-8

>  <UNII>
63W7IE88K8

>  <SYNONYMS>
Diiodohydroxyquin; Diiodohydroxyquinoline; Iodoquinol; Ioquin

$$$$
