
 OpenBabel10282417072D

 40 41  0  0  1  0  0  0  0  0999 V2000
   -2.8579    6.6000    0.0000 C   0  0  0  0  0  0  0  0  0  0  0  0
    0.7145   -0.4125    0.0000 C   0  0  0  0  0  0  0  0  0  0  0  0
   -2.8579    5.7750    0.0000 C   0  0  0  0  0  0  0  0  0  0  0  0
   -2.1434    7.0125    0.0000 C   0  0  0  0  0  0  0  0  0  0  0  0
    1.4289    0.0000    0.0000 C   0  0  0  0  0  0  0  0  0  0  0  0
   -0.0000    0.0000    0.0000 C   0  0  0  0  0  0  0  0  0  0  0  0
   -2.1434    5.3625    0.0000 C   0  0  0  0  0  0  0  0  0  0  0  0
   -1.4289    6.6000    0.0000 C   0  0  0  0  0  0  0  0  0  0  0  0
    1.4289    0.8250    0.0000 C   0  0  0  0  0  0  0  0  0  0  0  0
    0.0000    0.8250    0.0000 C   0  0  0  0  0  0  0  0  0  0  0  0
   -0.7145    5.3625    0.0000 C   0  0  0  0  0  0  0  0  0  0  0  0
   -0.7145    4.5375    0.0000 C   0  0  0  0  0  0  0  0  0  0  0  0
    0.0000    3.3000    0.0000 C   0  0  0  0  0  0  0  0  0  0  0  0
    0.7145    2.8875    0.0000 C   0  0  0  0  0  0  0  0  0  0  0  0
   -1.4289    5.7750    0.0000 C   0  0  0  0  0  0  0  0  0  0  0  0
    0.0000    4.1250    0.0000 C   0  0  1  0  0  0  0  0  0  0  0  0
    0.7145    1.2375    0.0000 C   0  0  0  0  0  0  0  0  0  0  0  0
    0.7145    4.5375    0.0000 N   0  0  0  0  0  0  0  0  0  0  0  0
   -0.1105    2.0625    0.0000 O   0  0  0  0  0  0  0  0  0  0  0  0
    1.5395    2.0625    0.0000 O   0  0  0  0  0  0  0  0  0  0  0  0
    0.7145    2.0625    0.0000 S   0  0  0  0  0  0  0  0  0  0  0  0
   -0.7145    3.7125    0.0000 H   0  0  0  0  0  0  0  0  0  0  0  0
   -3.7516    7.1160    0.0000 H   0  0  0  0  0  0  0  0  0  0  0  0
    0.7145   -1.4445    0.0000 H   0  0  0  0  0  0  0  0  0  0  0  0
   -3.7516    5.2590    0.0000 H   0  0  0  0  0  0  0  0  0  0  0  0
   -2.1434    8.0445    0.0000 H   0  0  0  0  0  0  0  0  0  0  0  0
    2.3226   -0.5160    0.0000 H   0  0  0  0  0  0  0  0  0  0  0  0
   -0.8937   -0.5160    0.0000 H   0  0  0  0  0  0  0  0  0  0  0  0
   -2.1434    4.3305    0.0000 H   0  0  0  0  0  0  0  0  0  0  0  0
   -0.5352    7.1160    0.0000 H   0  0  0  0  0  0  0  0  0  0  0  0
    2.3226    1.3410    0.0000 H   0  0  0  0  0  0  0  0  0  0  0  0
   -0.8937    1.3410    0.0000 H   0  0  0  0  0  0  0  0  0  0  0  0
    0.2122    5.8975    0.0000 H   0  0  0  0  0  0  0  0  0  0  0  0
   -0.7145    6.4325    0.0000 H   0  0  0  0  0  0  0  0  0  0  0  0
   -1.6411    4.0025    0.0000 H   0  0  0  0  0  0  0  0  0  0  0  0
   -0.7145    3.4675    0.0000 H   0  0  0  0  0  0  0  0  0  0  0  0
   -0.8937    2.7840    0.0000 H   0  0  0  0  0  0  0  0  0  0  0  0
    1.6082    3.4035    0.0000 H   0  0  0  0  0  0  0  0  0  0  0  0
    1.5978    4.0275    0.0000 H   0  0  0  0  0  0  0  0  0  0  0  0
    0.7145    5.5575    0.0000 H   0  0  0  0  0  0  0  0  0  0  0  0
  1 23  1  0  0  0  0
  2 24  1  0  0  0  0
  3  1  2  0  0  0  0
  3 25  1  0  0  0  0
  4  1  1  0  0  0  0
  4 26  1  0  0  0  0
  5  2  2  0  0  0  0
  5 27  1  0  0  0  0
  6  2  1  0  0  0  0
  6 28  1  0  0  0  0
  7  3  1  0  0  0  0
  7 29  1  0  0  0  0
  8  4  2  0  0  0  0
  8 30  1  0  0  0  0
  9  5  1  0  0  0  0
  9 31  1  0  0  0  0
 10  6  2  0  0  0  0
 10 32  1  0  0  0  0
 11 33  1  0  0  0  0
 11 34  1  0  0  0  0
 12 11  1  0  0  0  0
 12 35  1  0  0  0  0
 12 36  1  0  0  0  0
 13 37  1  0  0  0  0
 14 13  2  3  0  0  0
 14 21  1  0  0  0  0
 14 38  1  0  0  0  0
 15  7  2  0  0  0  0
 15  8  1  0  0  0  0
 15 11  1  0  0  0  0
 16 12  1  0  0  0  0
 16 13  1  0  0  0  0
 16 18  1  0  0  0  0
 16 22  1  1  0  0  0
 17  9  2  0  0  0  0
 17 10  1  0  0  0  0
 18 39  1  0  0  0  0
 18 40  1  0  0  0  0
 21 17  1  0  0  0  0
 21 19  2  0  0  0  0
 21 20  2  0  0  0  0
M  END
>  <DRUGBANK_ID>
DB02869

>  <SECONDARY_ACCESSION_NUMBERS>
EXPT02332

>  <COMMON_NAME>
3-amino-5-phenylpentane

$$$$
