
 OpenBabel10282417072D

 40 43  0  0  1  0  0  0  0  0999 V2000
   -3.6632   -2.2348    0.0000 C   0  0  0  0  0  0  0  0  0  0  0  0
   -4.3551   -1.7855    0.0000 N   0  0  0  0  0  0  0  0  0  0  0  0
   -4.1415   -0.9886    0.0000 N   0  0  0  0  0  0  0  0  0  0  0  0
   -3.3177   -0.9455    0.0000 N   0  0  0  0  0  0  0  0  0  0  0  0
   -3.0220   -1.7157    0.0000 N   0  0  0  0  0  0  0  0  0  0  0  0
   -2.2251   -1.9292    0.0000 C   0  0  0  0  0  0  0  0  0  0  0  0
   -1.6418   -1.3458    0.0000 C   0  0  0  0  0  0  0  0  0  0  0  0
   -1.8553   -0.5489    0.0000 O   0  0  0  0  0  0  0  0  0  0  0  0
   -0.8449   -1.5593    0.0000 N   0  0  0  0  0  0  0  0  0  0  0  0
   -0.2615   -0.9760    0.0000 C   0  0  1  0  0  0  0  0  0  0  0  0
    0.5635   -0.9760    0.0000 C   0  0  2  0  0  0  0  0  0  0  0  0
    0.5635   -0.1510    0.0000 N   0  0  0  0  0  0  0  0  0  0  0  0
   -0.2615   -0.1510    0.0000 C   0  0  0  0  0  0  0  0  0  0  0  0
   -0.8449    0.4324    0.0000 O   0  0  0  0  0  0  0  0  0  0  0  0
    1.2780    0.2615    0.0000 C   0  0  0  0  0  0  0  0  0  0  0  0
    1.9924   -0.1510    0.0000 C   0  0  0  0  0  0  0  0  0  0  0  0
    1.9924   -0.9760    0.0000 C   0  0  0  0  0  0  0  0  0  0  0  0
    1.2780   -1.3885    0.0000 S   0  0  0  0  0  0  0  0  0  0  0  0
    2.7069    0.2615    0.0000 C   0  0  0  0  0  0  0  0  0  0  0  0
    2.7069    1.0865    0.0000 S   0  0  0  0  0  0  0  0  0  0  0  0
    3.4214    1.4990    0.0000 C   0  0  0  0  0  0  0  0  0  0  0  0
    3.5076    2.3195    0.0000 N   0  0  0  0  0  0  0  0  0  0  0  0
    4.3146    2.4910    0.0000 N   0  0  0  0  0  0  0  0  0  0  0  0
    4.7271    1.7766    0.0000 C   0  0  0  0  0  0  0  0  0  0  0  0
    4.1750    1.1635    0.0000 S   0  0  0  0  0  0  0  0  0  0  0  0
    1.2780    1.0865    0.0000 C   0  0  0  0  0  0  0  0  0  0  0  0
    1.9924    1.4990    0.0000 O   0  0  0  0  0  0  0  0  0  0  0  0
    0.5635    1.4990    0.0000 O   0  0  0  0  0  0  0  0  0  0  0  0
   -3.6092   -3.2654    0.0000 H   0  0  0  0  0  0  0  0  0  0  0  0
   -1.9481   -2.9627    0.0000 H   0  0  0  0  0  0  0  0  0  0  0  0
   -1.1915   -2.2061    0.0000 H   0  0  0  0  0  0  0  0  0  0  0  0
   -0.5901   -2.5103    0.0000 H   0  0  0  0  0  0  0  0  0  0  0  0
    0.1479   -1.9646    0.0000 H   0  0  0  0  0  0  0  0  0  0  0  0
   -0.1931   -0.2194    0.0000 H   0  0  0  0  0  0  0  0  0  0  0  0
    2.9191   -1.5110    0.0000 H   0  0  0  0  0  0  0  0  0  0  0  0
    1.9924   -2.0460    0.0000 H   0  0  0  0  0  0  0  0  0  0  0  0
    3.6335   -0.2735    0.0000 H   0  0  0  0  0  0  0  0  0  0  0  0
    3.6335    0.7965    0.0000 H   0  0  0  0  0  0  0  0  0  0  0  0
    5.7534    1.6687    0.0000 H   0  0  0  0  0  0  0  0  0  0  0  0
    0.5635    2.4360    0.0000 H   0  0  0  0  0  0  0  0  0  0  0  0
  1  2  2  0  0  0  0
  1  5  1  0  0  0  0
  1 29  1  0  0  0  0
  2  3  1  0  0  0  0
  3  4  2  0  0  0  0
  4  5  1  0  0  0  0
  5  6  1  0  0  0  0
  6  7  1  0  0  0  0
  6 30  1  0  0  0  0
  6 31  1  0  0  0  0
  7  8  2  0  0  0  0
  7  9  1  0  0  0  0
  9 32  1  0  0  0  0
 10  9  1  0  0  0  0
 10 11  1  0  0  0  0
 10 13  1  0  0  0  0
 10 33  1  1  0  0  0
 11 12  1  0  0  0  0
 11 18  1  0  0  0  0
 11 34  1  1  0  0  0
 12 13  1  0  0  0  0
 12 15  1  0  0  0  0
 13 14  2  0  0  0  0
 15 16  2  0  0  0  0
 15 26  1  0  0  0  0
 16 17  1  0  0  0  0
 16 19  1  0  0  0  0
 17 18  1  0  0  0  0
 17 35  1  0  0  0  0
 17 36  1  0  0  0  0
 19 20  1  0  0  0  0
 19 37  1  0  0  0  0
 19 38  1  0  0  0  0
 20 21  1  0  0  0  0
 21 22  2  0  0  0  0
 21 25  1  0  0  0  0
 22 23  1  0  0  0  0
 23 24  2  0  0  0  0
 24 25  1  0  0  0  0
 24 39  1  0  0  0  0
 26 27  2  0  0  0  0
 26 28  1  0  0  0  0
 28 40  1  0  0  0  0
M  END
>  <DRUGBANK_ID>
DB13821

>  <COMMON_NAME>
Ceftezole

>  <CAS_NUMBER>
26973-24-0

>  <UNII>
2Z86SYP11W

>  <SYNONYMS>
ceftezol; Ceftezole

$$$$
