
 OpenBabel10282417072D

 32 32  0  0  0  0  0  0  0  0999 V2000
   -1.7834   -0.8248    0.0000 C   0  0  0  0  0  0  0  0  0  0  0  0
   -1.0690   -0.4123    0.0000 C   0  0  0  0  0  0  0  0  0  0  0  0
   -0.3545   -0.8248    0.0000 C   0  0  0  0  0  0  0  0  0  0  0  0
    0.3598   -0.4123    0.0000 C   0  0  0  0  0  0  0  0  0  0  0  0
   -1.7834   -1.6500    0.0000 F   0  0  0  0  0  0  0  0  0  0  0  0
   -2.4980   -0.4123    0.0000 F   0  0  0  0  0  0  0  0  0  0  0  0
    1.0743   -0.8248    0.0000 C   0  0  0  0  0  0  0  0  0  0  0  0
    1.7888    0.4125    0.0000 N   0  0  0  0  0  0  0  0  0  0  0  0
   -1.0690    0.4125    0.0000 C   0  0  0  0  0  0  0  0  0  0  0  0
    1.7888   -0.4123    0.0000 C   0  0  3  0  0  0  0  0  0  0  0  0
   -0.3545    0.8250    0.0000 C   0  0  0  0  0  0  0  0  0  0  0  0
    0.3598    0.4125    0.0000 C   0  0  0  0  0  0  0  0  0  0  0  0
    2.5034   -0.8248    0.0000 C   0  0  0  0  0  0  0  0  0  0  0  0
   -2.5034   -1.2442    0.0000 F   0  0  0  0  0  0  0  0  0  0  0  0
    1.0743    0.8250    0.0000 C   0  0  0  0  0  0  0  0  0  0  0  0
    1.0743    1.6500    0.0000 C   0  0  0  0  0  0  0  0  0  0  0  0
   -0.3544   -1.8568    0.0000 H   0  0  0  0  0  0  0  0  0  0  0  0
    1.0743   -1.8948    0.0000 H   0  0  0  0  0  0  0  0  0  0  0  0
    2.0009   -1.3598    0.0000 H   0  0  0  0  0  0  0  0  0  0  0  0
    2.6721    0.9225    0.0000 H   0  0  0  0  0  0  0  0  0  0  0  0
   -1.9627    0.9285    0.0000 H   0  0  0  0  0  0  0  0  0  0  0  0
    0.8622    0.1227    0.0000 H   0  0  0  0  0  0  0  0  0  0  0  0
   -0.3544    1.8570    0.0000 H   0  0  0  0  0  0  0  0  0  0  0  0
    1.2536    0.9285    0.0000 H   0  0  0  0  0  0  0  0  0  0  0  0
    2.5035   -1.8948    0.0000 H   0  0  0  0  0  0  0  0  0  0  0  0
    3.4300   -0.2897    0.0000 H   0  0  0  0  0  0  0  0  0  0  0  0
    3.4301   -1.3597    0.0000 H   0  0  0  0  0  0  0  0  0  0  0  0
    0.1477    0.2900    0.0000 H   0  0  0  0  0  0  0  0  0  0  0  0
    0.1477    1.3600    0.0000 H   0  0  0  0  0  0  0  0  0  0  0  0
    2.0009    2.1850    0.0000 H   0  0  0  0  0  0  0  0  0  0  0  0
    0.1477    2.1850    0.0000 H   0  0  0  0  0  0  0  0  0  0  0  0
    1.0743    2.7200    0.0000 H   0  0  0  0  0  0  0  0  0  0  0  0
  1 14  1  0  0  0  0
  2  1  1  0  0  0  0
  3  2  2  0  0  0  0
  3 17  1  0  0  0  0
  4  3  1  0  0  0  0
  5  1  1  0  0  0  0
  6  1  1  0  0  0  0
  7  4  1  0  0  0  0
  7 18  1  0  0  0  0
  7 19  1  0  0  0  0
  8 15  1  0  0  0  0
  8 20  1  0  0  0  0
  9  2  1  0  0  0  0
  9 21  1  0  0  0  0
 10  7  1  0  0  0  0
 10  8  1  0  0  0  0
 10 22  1  0  0  0  0
 11  9  2  0  0  0  0
 11 23  1  0  0  0  0
 12  4  2  0  0  0  0
 12 11  1  0  0  0  0
 12 24  1  0  0  0  0
 13 10  1  0  0  0  0
 13 25  1  0  0  0  0
 13 26  1  0  0  0  0
 13 27  1  0  0  0  0
 15 16  1  0  0  0  0
 15 28  1  0  0  0  0
 15 29  1  0  0  0  0
 16 30  1  0  0  0  0
 16 31  1  0  0  0  0
 16 32  1  0  0  0  0
M  END
>  <DRUGBANK_ID>
DB00574

>  <SECONDARY_ACCESSION_NUMBERS>
APRD00319

>  <COMMON_NAME>
Fenfluramine

>  <CAS_NUMBER>
458-24-2

>  <UNII>
2DS058H2CF

>  <SYNONYMS>
(Â±)-fenfluramine; 1-(m-trifluoromethyl-phenyl)-2-ethylaminopropane; DL-Fenfluramine; Fenfluramina; Fenfluramine; Fenfluraminum

$$$$
