F19
 OpenBabel10282417072D

 35 36  0  0  0  0  0  0  0  0999 V2000
   -1.7849   -1.2813    0.0000 C   0  0  0  0  0  0  0  0  0  0  0  0
   -1.0705   -0.8688    0.0000 C   0  0  0  0  0  0  0  0  0  0  0  0
   -1.0705   -0.0437    0.0000 C   0  0  0  0  0  0  0  0  0  0  0  0
   -1.7849    0.3688    0.0000 C   0  0  0  0  0  0  0  0  0  0  0  0
   -2.4995   -0.0437    0.0000 C   0  0  0  0  0  0  0  0  0  0  0  0
   -2.4995   -0.8688    0.0000 C   0  0  0  0  0  0  0  0  0  0  0  0
   -3.2140   -1.2813    0.0000 C   0  0  0  0  0  0  0  0  0  0  0  0
   -3.9285   -0.8688    0.0000 C   0  0  0  0  0  0  0  0  0  0  0  0
   -3.9285   -0.0437    0.0000 C   0  0  0  0  0  0  0  0  0  0  0  0
   -3.2140    0.3688    0.0000 C   0  0  0  0  0  0  0  0  0  0  0  0
   -0.3559    0.3688    0.0000 S   0  0  0  0  0  0  0  0  0  0  0  0
    0.0566   -0.3457    0.0000 O   0  0  0  0  0  0  0  0  0  0  0  0
   -0.7685    1.0833    0.0000 O   0  0  0  0  0  0  0  0  0  0  0  0
    1.7876    0.7814    0.0000 C   0  0  0  0  0  0  0  0  0  0  0  0
    2.5022    0.3688    0.0000 O   0  0  0  0  0  0  0  0  0  0  0  0
    1.0732    0.3688    0.0000 C   0  0  0  0  0  0  0  0  0  0  0  0
    0.3586    0.7814    0.0000 N   0  0  0  0  0  0  0  0  0  0  0  0
    3.9312    1.1939    0.0000 O   0  0  0  0  0  0  0  0  0  0  0  0
    3.6293    0.0668    0.0000 O   0  0  0  0  0  0  0  0  0  0  0  0
    3.2167    0.7814    0.0000 P   0  0  0  0  0  0  0  0  0  0  0  0
    2.8042    1.4958    0.0000 O   0  0  0  0  0  0  0  0  0  0  0  0
   -1.7848   -2.3133    0.0000 H   0  0  0  0  0  0  0  0  0  0  0  0
   -0.1768   -1.3848    0.0000 H   0  0  0  0  0  0  0  0  0  0  0  0
   -1.7848    1.4008    0.0000 H   0  0  0  0  0  0  0  0  0  0  0  0
   -3.2140   -2.3133    0.0000 H   0  0  0  0  0  0  0  0  0  0  0  0
   -4.8222   -1.3848    0.0000 H   0  0  0  0  0  0  0  0  0  0  0  0
   -4.8222    0.4723    0.0000 H   0  0  0  0  0  0  0  0  0  0  0  0
   -3.2140    1.4008    0.0000 H   0  0  0  0  0  0  0  0  0  0  0  0
    1.7875    1.8514    0.0000 H   0  0  0  0  0  0  0  0  0  0  0  0
    0.8609    1.3163    0.0000 H   0  0  0  0  0  0  0  0  0  0  0  0
    1.0733   -0.7012    0.0000 H   0  0  0  0  0  0  0  0  0  0  0  0
    0.1466   -0.1662    0.0000 H   0  0  0  0  0  0  0  0  0  0  0  0
    0.3586    1.8014    0.0000 H   0  0  0  0  0  0  0  0  0  0  0  0
    3.1443   -0.7733    0.0000 H   0  0  0  0  0  0  0  0  0  0  0  0
    3.2892    2.3359    0.0000 H   0  0  0  0  0  0  0  0  0  0  0  0
  1  2  2  0  0  0  0
  1  6  1  0  0  0  0
  1 22  1  0  0  0  0
  2  3  1  0  0  0  0
  2 23  1  0  0  0  0
  3  4  2  0  0  0  0
  3 11  1  0  0  0  0
  4  5  1  0  0  0  0
  4 24  1  0  0  0  0
  5  6  2  0  0  0  0
  5 10  1  0  0  0  0
  6  7  1  0  0  0  0
  7  8  2  0  0  0  0
  7 25  1  0  0  0  0
  8  9  1  0  0  0  0
  8 26  1  0  0  0  0
  9 10  2  0  0  0  0
  9 27  1  0  0  0  0
 10 28  1  0  0  0  0
 11 12  2  0  0  0  0
 11 13  2  0  0  0  0
 11 17  1  0  0  0  0
 14 15  1  0  0  0  0
 14 16  1  0  0  0  0
 14 29  1  0  0  0  0
 14 30  1  0  0  0  0
 15 20  1  0  0  0  0
 16 17  1  0  0  0  0
 16 31  1  0  0  0  0
 16 32  1  0  0  0  0
 17 33  1  0  0  0  0
 18 20  2  0  0  0  0
 19 20  1  0  0  0  0
 19 34  1  0  0  0  0
 20 21  1  0  0  0  0
 21 35  1  0  0  0  0
M  END
>  <DRUGBANK_ID>
DB07732

>  <COMMON_NAME>
2-[(2-NAPHTHYLSULFONYL)AMINO]ETHYL DIHYDROGEN PHOSPHATE

$$$$
