
 OpenBabel10282417072D

 35 36  0  0  1  0  0  0  0  0999 V2000
    3.1879   -2.1190    0.0000 C   0  0  0  0  0  0  0  0  0  0  0  0
    2.5559   -2.6493    0.0000 C   0  0  0  0  0  0  0  0  0  0  0  0
    1.9239   -2.1190    0.0000 C   0  0  0  0  0  0  0  0  0  0  0  0
    2.9684   -3.3638    0.0000 C   0  0  2  0  0  0  0  0  0  0  0  0
    3.6829   -3.7763    0.0000 C   0  0  0  0  0  0  0  0  0  0  0  0
    3.6829   -4.6013    0.0000 C   0  0  0  0  0  0  0  0  0  0  0  0
    4.3974   -5.0138    0.0000 Cl  0  0  0  0  0  0  0  0  0  0  0  0
    2.9684   -5.0138    0.0000 Cl  0  0  0  0  0  0  0  0  0  0  0  0
    2.1434   -3.3638    0.0000 C   0  0  1  0  0  0  0  0  0  0  0  0
    1.4289   -3.7763    0.0000 C   0  0  0  0  0  0  0  0  0  0  0  0
    1.4289   -4.6013    0.0000 O   0  0  0  0  0  0  0  0  0  0  0  0
    0.7145   -3.3638    0.0000 O   0  0  0  0  0  0  0  0  0  0  0  0
    0.0000   -3.7763    0.0000 C   0  0  0  0  0  0  0  0  0  0  0  0
   -0.7145   -3.3638    0.0000 C   0  0  0  0  0  0  0  0  0  0  0  0
   -1.4289   -3.7763    0.0000 C   0  0  0  0  0  0  0  0  0  0  0  0
   -1.4289   -4.6013    0.0000 F   0  0  0  0  0  0  0  0  0  0  0  0
   -2.1434   -3.3638    0.0000 C   0  0  0  0  0  0  0  0  0  0  0  0
   -2.8579   -3.7763    0.0000 F   0  0  0  0  0  0  0  0  0  0  0  0
   -2.1434   -2.5388    0.0000 C   0  0  0  0  0  0  0  0  0  0  0  0
   -1.4289   -2.1263    0.0000 C   0  0  0  0  0  0  0  0  0  0  0  0
   -1.4289   -1.3013    0.0000 F   0  0  0  0  0  0  0  0  0  0  0  0
   -0.7145   -2.5388    0.0000 C   0  0  0  0  0  0  0  0  0  0  0  0
    0.0000   -2.1263    0.0000 F   0  0  0  0  0  0  0  0  0  0  0  0
    4.1934   -2.4850    0.0000 H   0  0  0  0  0  0  0  0  0  0  0  0
    3.0021   -1.0653    0.0000 H   0  0  0  0  0  0  0  0  0  0  0  0
    4.0076   -1.4312    0.0000 H   0  0  0  0  0  0  0  0  0  0  0  0
    2.1097   -1.0653    0.0000 H   0  0  0  0  0  0  0  0  0  0  0  0
    0.9184   -2.4850    0.0000 H   0  0  0  0  0  0  0  0  0  0  0  0
    1.1042   -1.4312    0.0000 H   0  0  0  0  0  0  0  0  0  0  0  0
    3.7250   -2.6072    0.0000 H   0  0  0  0  0  0  0  0  0  0  0  0
    4.5766   -3.2603    0.0000 H   0  0  0  0  0  0  0  0  0  0  0  0
    2.4203   -4.3973    0.0000 H   0  0  0  0  0  0  0  0  0  0  0  0
    0.0000   -4.8463    0.0000 H   0  0  0  0  0  0  0  0  0  0  0  0
   -0.9266   -4.3113    0.0000 H   0  0  0  0  0  0  0  0  0  0  0  0
   -3.0371   -2.0228    0.0000 H   0  0  0  0  0  0  0  0  0  0  0  0
  1  2  1  0  0  0  0
  1 24  1  0  0  0  0
  1 25  1  0  0  0  0
  1 26  1  0  0  0  0
  2  3  1  0  0  0  0
  3 27  1  0  0  0  0
  3 28  1  0  0  0  0
  3 29  1  0  0  0  0
  4  2  1  0  0  0  0
  4  5  1  0  0  0  0
  4  9  1  0  0  0  0
  4 30  1  1  0  0  0
  5  6  2  0  0  0  0
  5 31  1  0  0  0  0
  6  7  1  0  0  0  0
  6  8  1  0  0  0  0
  9  2  1  0  0  0  0
  9 10  1  0  0  0  0
  9 32  1  6  0  0  0
 10 11  2  0  0  0  0
 10 12  1  0  0  0  0
 12 13  1  0  0  0  0
 13 14  1  0  0  0  0
 13 33  1  0  0  0  0
 13 34  1  0  0  0  0
 14 15  2  0  0  0  0
 14 22  1  0  0  0  0
 15 16  1  0  0  0  0
 15 17  1  0  0  0  0
 17 18  1  0  0  0  0
 17 19  2  0  0  0  0
 19 20  1  0  0  0  0
 19 35  1  0  0  0  0
 20 21  1  0  0  0  0
 20 22  2  0  0  0  0
 22 23  1  0  0  0  0
M  END
>  <DRUGBANK_ID>
DB15117

>  <COMMON_NAME>
Transfluthrin

>  <CAS_NUMBER>
118712-89-3

>  <UNII>
QWL3SKA6EG

>  <SYNONYMS>
Transfluthrin

$$$$
