
 OpenBabel10282417072D

 37 38  0  0  0  0  0  0  0  0999 V2000
    1.2999    1.9481    0.0000 O   0  0  0  0  0  0  0  0  0  0  0  0
   -0.0349    1.9481    0.0000 O   0  0  0  0  0  0  0  0  0  0  0  0
    1.1944    4.1540    0.0000 O   0  0  0  0  0  0  0  0  0  0  0  0
   -0.0820   -3.0745    0.0000 N   0  0  0  0  0  0  0  0  0  0  0  0
   -0.7965   -4.3121    0.0000 N   0  0  0  0  0  0  0  0  0  0  0  0
   -1.5110   -3.0745    0.0000 N   0  0  0  0  0  0  0  0  0  0  0  0
    1.0450    2.7328    0.0000 C   0  0  1  0  0  0  0  0  0  0  0  0
    0.2199    2.7328    0.0000 C   0  0  0  0  0  0  0  0  0  0  0  0
    0.6324    0.6381    0.0000 C   0  0  0  0  0  0  0  0  0  0  0  0
    1.5299    3.4003    0.0000 C   0  0  0  0  0  0  0  0  0  0  0  0
    0.6324   -1.0119    0.0000 C   0  0  0  0  0  0  0  0  0  0  0  0
    0.6324   -1.8369    0.0000 C   0  0  0  0  0  0  0  0  0  0  0  0
    1.3469    0.2256    0.0000 C   0  0  0  0  0  0  0  0  0  0  0  0
   -0.0820    0.2256    0.0000 C   0  0  0  0  0  0  0  0  0  0  0  0
    1.3469   -0.5993    0.0000 C   0  0  0  0  0  0  0  0  0  0  0  0
   -0.0820   -0.5993    0.0000 C   0  0  0  0  0  0  0  0  0  0  0  0
   -0.0820   -2.2494    0.0000 C   0  0  0  0  0  0  0  0  0  0  0  0
   -0.7965   -3.4870    0.0000 C   0  0  0  0  0  0  0  0  0  0  0  0
    0.6324    1.4632    0.0000 B   0  0  0  0  0  0  0  0  0  0  0  0
    1.7646    4.9387    0.0000 H   0  0  0  0  0  0  0  0  0  0  0  0
   -1.6491   -4.8044    0.0000 H   0  0  0  0  0  0  0  0  0  0  0  0
    0.0561   -4.8043    0.0000 H   0  0  0  0  0  0  0  0  0  0  0  0
   -1.5110   -2.0900    0.0000 H   0  0  0  0  0  0  0  0  0  0  0  0
   -2.3636   -3.5668    0.0000 H   0  0  0  0  0  0  0  0  0  0  0  0
    2.1018    2.5654    0.0000 H   0  0  0  0  0  0  0  0  0  0  0  0
   -0.4091    3.5984    0.0000 H   0  0  0  0  0  0  0  0  0  0  0  0
    0.7056    3.6862    0.0000 H   0  0  0  0  0  0  0  0  0  0  0  0
    2.5940    3.2884    0.0000 H   0  0  0  0  0  0  0  0  0  0  0  0
    1.9651    2.4228    0.0000 H   0  0  0  0  0  0  0  0  0  0  0  0
    1.5591   -2.3719    0.0000 H   0  0  0  0  0  0  0  0  0  0  0  0
    0.6324   -2.9069    0.0000 H   0  0  0  0  0  0  0  0  0  0  0  0
    2.2406    0.7416    0.0000 H   0  0  0  0  0  0  0  0  0  0  0  0
   -0.9757    0.7416    0.0000 H   0  0  0  0  0  0  0  0  0  0  0  0
    2.2407   -1.1153    0.0000 H   0  0  0  0  0  0  0  0  0  0  0  0
   -0.9758   -1.1152    0.0000 H   0  0  0  0  0  0  0  0  0  0  0  0
   -1.0087   -1.7144    0.0000 H   0  0  0  0  0  0  0  0  0  0  0  0
   -0.0820   -1.1794    0.0000 H   0  0  0  0  0  0  0  0  0  0  0  0
  1  7  1  0  0  0  0
  1 19  1  0  0  0  0
  2  8  1  0  0  0  0
  2 19  1  0  0  0  0
  3 10  1  0  0  0  0
  3 20  1  0  0  0  0
  4 17  1  0  0  0  0
  4 18  2  0  0  0  0
  5 18  1  0  0  0  0
  5 21  1  0  0  0  0
  5 22  1  0  0  0  0
  6 18  1  0  0  0  0
  6 23  1  0  0  0  0
  6 24  1  0  0  0  0
  7  8  1  0  0  0  0
  7 10  1  0  0  0  0
  7 25  1  6  0  0  0
  8 26  1  0  0  0  0
  8 27  1  0  0  0  0
  9 13  2  0  0  0  0
  9 14  1  0  0  0  0
  9 19  1  0  0  0  0
 10 28  1  0  0  0  0
 10 29  1  0  0  0  0
 11 12  1  0  0  0  0
 11 15  2  0  0  0  0
 11 16  1  0  0  0  0
 12 17  1  0  0  0  0
 12 30  1  0  0  0  0
 12 31  1  0  0  0  0
 13 15  1  0  0  0  0
 13 32  1  0  0  0  0
 14 16  2  0  0  0  0
 14 33  1  0  0  0  0
 15 34  1  0  0  0  0
 16 35  1  0  0  0  0
 17 36  1  0  0  0  0
 17 37  1  0  0  0  0
M  END
>  <DRUGBANK_ID>
DB07071

>  <COMMON_NAME>
(R)-1-(4-(4-(Hydroxymethyl)-1,3,2-dioxaborolan-2-YL)phenethyl)guanidine

$$$$
