HM5
 OpenBabel10282417072D

 37 38  0  0  0  0  0  0  0  0999 V2000
    2.9845    3.2622    0.0000 S   0  0  0  0  0  0  0  0  0  0  0  0
    4.0644    2.4775    0.0000 N   0  0  0  0  0  0  0  0  0  0  0  0
    2.7545    1.8101    0.0000 N   0  0  0  0  0  0  0  0  0  0  0  0
    2.9407   -0.3647    0.0000 N   0  0  0  0  0  0  0  0  0  0  0  0
    1.4491    1.2289    0.0000 N   0  0  0  0  0  0  0  0  0  0  0  0
    3.6519    3.7471    0.0000 C   0  0  0  0  0  0  0  0  0  0  0  0
    4.3194    3.2622    0.0000 C   0  0  0  0  0  0  0  0  0  0  0  0
    3.2394    2.4775    0.0000 C   0  0  0  0  0  0  0  0  0  0  0  0
    3.0900    1.0564    0.0000 C   0  0  0  0  0  0  0  0  0  0  0  0
    2.6051    0.3890    0.0000 C   0  0  0  0  0  0  0  0  0  0  0  0
    2.4558   -1.0321    0.0000 C   0  0  0  0  0  0  0  0  0  0  0  0
    1.6353   -0.9459    0.0000 C   0  0  0  0  0  0  0  0  0  0  0  0
    1.2997   -0.1922    0.0000 C   0  0  0  0  0  0  0  0  0  0  0  0
    1.7846    0.4752    0.0000 C   0  0  0  0  0  0  0  0  0  0  0  0
    0.6286    1.3151    0.0000 C   0  0  0  0  0  0  0  0  0  0  0  0
    0.1437    0.6477    0.0000 C   0  0  0  0  0  0  0  0  0  0  0  0
   -0.3412   -0.0197    0.0000 C   0  0  0  0  0  0  0  0  0  0  0  0
   -0.5238    1.1326    0.0000 C   0  0  0  0  0  0  0  0  0  0  0  0
    0.8111    0.1628    0.0000 C   0  0  0  0  0  0  0  0  0  0  0  0
    3.9105    0.9702    0.0000 O   0  0  0  0  0  0  0  0  0  0  0  0
    0.2930    2.0688    0.0000 O   0  0  0  0  0  0  0  0  0  0  0  0
    1.7754    1.9130    0.0000 H   0  0  0  0  0  0  0  0  0  0  0  0
    2.0278    2.0254    0.0000 H   0  0  0  0  0  0  0  0  0  0  0  0
    3.6519    4.7791    0.0000 H   0  0  0  0  0  0  0  0  0  0  0  0
    5.3009    3.5811    0.0000 H   0  0  0  0  0  0  0  0  0  0  0  0
    2.8756   -1.9749    0.0000 H   0  0  0  0  0  0  0  0  0  0  0  0
    1.0287   -1.7808    0.0000 H   0  0  0  0  0  0  0  0  0  0  0  0
    0.2734   -0.0843    0.0000 H   0  0  0  0  0  0  0  0  0  0  0  0
   -1.4053    0.0922    0.0000 H   0  0  0  0  0  0  0  0  0  0  0  0
    0.0940   -0.9972    0.0000 H   0  0  0  0  0  0  0  0  0  0  0  0
   -0.9701   -0.8853    0.0000 H   0  0  0  0  0  0  0  0  0  0  0  0
   -0.4120    2.1967    0.0000 H   0  0  0  0  0  0  0  0  0  0  0  0
   -1.5013    0.6973    0.0000 H   0  0  0  0  0  0  0  0  0  0  0  0
   -1.3895    1.7615    0.0000 H   0  0  0  0  0  0  0  0  0  0  0  0
    0.6992   -0.9013    0.0000 H   0  0  0  0  0  0  0  0  0  0  0  0
    1.7886    0.5980    0.0000 H   0  0  0  0  0  0  0  0  0  0  0  0
    1.6767   -0.4661    0.0000 H   0  0  0  0  0  0  0  0  0  0  0  0
  1  8  1  0  0  0  0
  1  6  1  0  0  0  0
  2  8  2  0  0  0  0
  2  7  1  0  0  0  0
  3  9  1  0  0  0  0
  3  8  1  0  0  0  0
  3 22  1  0  0  0  0
  4 11  2  0  0  0  0
  4 10  1  0  0  0  0
  5 14  1  0  0  0  0
  5 15  1  0  0  0  0
  5 23  1  0  0  0  0
  6  7  2  0  0  0  0
  6 24  1  0  0  0  0
  7 25  1  0  0  0  0
  9 10  1  0  0  0  0
  9 20  2  0  0  0  0
 10 14  2  0  0  0  0
 11 12  1  0  0  0  0
 11 26  1  0  0  0  0
 12 13  2  0  0  0  0
 12 27  1  0  0  0  0
 13 14  1  0  0  0  0
 13 28  1  0  0  0  0
 15 21  2  0  0  0  0
 15 16  1  0  0  0  0
 16 18  1  0  0  0  0
 16 17  1  0  0  0  0
 16 19  1  0  0  0  0
 17 29  1  0  0  0  0
 17 30  1  0  0  0  0
 17 31  1  0  0  0  0
 18 32  1  0  0  0  0
 18 33  1  0  0  0  0
 18 34  1  0  0  0  0
 19 35  1  0  0  0  0
 19 36  1  0  0  0  0
 19 37  1  0  0  0  0
M  END
>  <DRUGBANK_ID>
DB07903

>  <COMMON_NAME>
3-[(2,2-DIMETHYLPROPANOYL)AMINO]-N-1,3-THIAZOL-2-YLPYRIDINE-2-CARBOXAMIDE

$$$$
