
 OpenBabel10282417072D

 62 65  0  0  0  0  0  0  0  0999 V2000
    2.2933   -0.8465    0.0000 C   0  0  0  0  0  0  0  0  0  0  0  0
    0.7942   -1.8292    0.0000 C   0  0  0  0  0  0  0  0  0  0  0  0
    2.2933    0.4882    0.0000 C   0  0  1  0  0  0  0  0  0  0  0  0
    0.7942    0.6457    0.0000 C   0  0  0  0  0  0  0  0  0  0  0  0
    2.7782   -0.1792    0.0000 C   0  0  0  0  0  0  0  0  0  0  0  0
   -0.6347   -1.0042    0.0000 C   0  0  2  0  0  0  0  0  0  0  0  0
    0.0797    0.2332    0.0000 C   0  0  0  0  0  0  0  0  0  0  0  0
    0.0797   -2.2417    0.0000 C   0  0  0  0  0  0  0  0  0  0  0  0
   -0.6347   -1.8292    0.0000 C   0  0  1  0  0  0  0  0  0  0  0  0
   -1.3493   -0.5917    0.0000 C   0  0  0  0  0  0  0  0  0  0  0  0
   -1.3493   -2.2417    0.0000 C   0  0  0  0  0  0  0  0  0  0  0  0
   -2.0637   -1.0042    0.0000 C   0  0  2  0  0  0  0  0  0  0  0  0
    0.7942   -1.0042    0.0000 C   0  0  2  0  0  0  0  0  0  0  0  0
    0.7942   -0.1792    0.0000 H   0  0  0  0  0  0  0  0  0  0  0  0
    0.0797   -0.5917    0.0000 C   0  0  1  0  0  0  0  0  0  0  0  0
    0.0797   -1.4167    0.0000 H   0  0  0  0  0  0  0  0  0  0  0  0
    1.5087    0.2332    0.0000 C   0  0  2  0  0  0  0  0  0  0  0  0
    1.5087    1.0582    0.0000 C   0  0  0  0  0  0  0  0  0  0  0  0
    1.5087   -0.5917    0.0000 C   0  0  1  0  0  0  0  0  0  0  0  0
    1.5087   -1.4167    0.0000 H   0  0  0  0  0  0  0  0  0  0  0  0
   -2.7782   -2.2417    0.0000 O   0  0  0  0  0  0  0  0  0  0  0  0
   -2.0637   -1.8292    0.0000 C   0  0  0  0  0  0  0  0  0  0  0  0
   -0.6347   -0.1792    0.0000 C   0  0  0  0  0  0  0  0  0  0  0  0
    2.4648    1.2952    0.0000 O   0  0  0  0  0  0  0  0  0  0  0  0
   -2.7782   -0.5917    0.0000 C   0  0  0  0  0  0  0  0  0  0  0  0
    1.8517    1.8472    0.0000 C   0  0  0  0  0  0  0  0  0  0  0  0
    1.0671    1.5923    0.0000 C   0  0  0  0  0  0  0  0  0  0  0  0
    0.4540    2.1443    0.0000 C   0  0  0  0  0  0  0  0  0  0  0  0
    2.0232    2.6542    0.0000 O   0  0  0  0  0  0  0  0  0  0  0  0
   -0.6347   -2.6542    0.0000 H   0  0  0  0  0  0  0  0  0  0  0  0
    2.6240   -1.8641    0.0000 H   0  0  0  0  0  0  0  0  0  0  0  0
    3.3501   -1.0139    0.0000 H   0  0  0  0  0  0  0  0  0  0  0  0
    1.7208   -2.3642    0.0000 H   0  0  0  0  0  0  0  0  0  0  0  0
    0.7942   -2.8992    0.0000 H   0  0  0  0  0  0  0  0  0  0  0  0
    1.4981    1.2041    0.0000 H   0  0  0  0  0  0  0  0  0  0  0  0
    0.7942    1.7157    0.0000 H   0  0  0  0  0  0  0  0  0  0  0  0
   -0.1324    1.1807    0.0000 H   0  0  0  0  0  0  0  0  0  0  0  0
    3.8482   -0.1792    0.0000 H   0  0  0  0  0  0  0  0  0  0  0  0
    3.2640    0.7742    0.0000 H   0  0  0  0  0  0  0  0  0  0  0  0
   -0.8469    0.7682    0.0000 H   0  0  0  0  0  0  0  0  0  0  0  0
    0.0797    1.3032    0.0000 H   0  0  0  0  0  0  0  0  0  0  0  0
    0.0797   -3.3117    0.0000 H   0  0  0  0  0  0  0  0  0  0  0  0
   -0.8470   -2.7767    0.0000 H   0  0  0  0  0  0  0  0  0  0  0  0
   -1.3494    0.4783    0.0000 H   0  0  0  0  0  0  0  0  0  0  0  0
   -2.2760   -0.0567    0.0000 H   0  0  0  0  0  0  0  0  0  0  0  0
   -1.3494   -3.3117    0.0000 H   0  0  0  0  0  0  0  0  0  0  0  0
   -2.2760   -2.7767    0.0000 H   0  0  0  0  0  0  0  0  0  0  0  0
   -2.0637    0.0658    0.0000 H   0  0  0  0  0  0  0  0  0  0  0  0
    2.4353    1.5932    0.0000 H   0  0  0  0  0  0  0  0  0  0  0  0
    0.5821    1.5932    0.0000 H   0  0  0  0  0  0  0  0  0  0  0  0
    1.5087    2.1282    0.0000 H   0  0  0  0  0  0  0  0  0  0  0  0
    0.2919    0.3558    0.0000 H   0  0  0  0  0  0  0  0  0  0  0  0
   -1.5613    0.3558    0.0000 H   0  0  0  0  0  0  0  0  0  0  0  0
   -0.6347    0.8908    0.0000 H   0  0  0  0  0  0  0  0  0  0  0  0
   -2.7782    0.4783    0.0000 H   0  0  0  0  0  0  0  0  0  0  0  0
   -3.7048   -1.1267    0.0000 H   0  0  0  0  0  0  0  0  0  0  0  0
   -3.7049   -0.0567    0.0000 H   0  0  0  0  0  0  0  0  0  0  0  0
    0.8446    0.5457    0.0000 H   0  0  0  0  0  0  0  0  0  0  0  0
    0.0495    1.2616    0.0000 H   0  0  0  0  0  0  0  0  0  0  0  0
    0.6764    3.1909    0.0000 H   0  0  0  0  0  0  0  0  0  0  0  0
   -0.5636    1.8136    0.0000 H   0  0  0  0  0  0  0  0  0  0  0  0
   -0.3412    2.8602    0.0000 H   0  0  0  0  0  0  0  0  0  0  0  0
  1 31  1  0  0  0  0
  1 32  1  0  0  0  0
  2  8  1  0  0  0  0
  2 33  1  0  0  0  0
  2 34  1  0  0  0  0
  3  5  1  0  0  0  0
  3 24  1  0  0  0  0
  3 35  1  6  0  0  0
  4  7  1  0  0  0  0
  4 36  1  0  0  0  0
  4 37  1  0  0  0  0
  5  1  1  0  0  0  0
  5 38  1  0  0  0  0
  5 39  1  0  0  0  0
  6  9  1  0  0  0  0
  6 10  1  0  0  0  0
  6 23  1  1  0  0  0
  7 40  1  0  0  0  0
  7 41  1  0  0  0  0
  8  9  1  0  0  0  0
  8 42  1  0  0  0  0
  8 43  1  0  0  0  0
  9 11  1  0  0  0  0
  9 30  1  6  0  0  0
 10 12  1  0  0  0  0
 10 44  1  0  0  0  0
 10 45  1  0  0  0  0
 11 22  1  0  0  0  0
 11 46  1  0  0  0  0
 11 47  1  0  0  0  0
 12 22  1  0  0  0  0
 12 25  1  0  0  0  0
 12 48  1  1  0  0  0
 13 15  1  0  0  0  0
 13  2  1  0  0  0  0
 13 14  1  1  0  0  0
 15  6  1  0  0  0  0
 15  7  1  0  0  0  0
 15 16  1  6  0  0  0
 17  3  1  0  0  0  0
 17  4  1  0  0  0  0
 17 18  1  1  0  0  0
 18 49  1  0  0  0  0
 18 50  1  0  0  0  0
 18 51  1  0  0  0  0
 19 13  1  0  0  0  0
 19 17  1  0  0  0  0
 19  1  1  0  0  0  0
 19 20  1  6  0  0  0
 22 21  2  0  0  0  0
 23 52  1  0  0  0  0
 23 53  1  0  0  0  0
 23 54  1  0  0  0  0
 24 26  1  0  0  0  0
 25 55  1  0  0  0  0
 25 56  1  0  0  0  0
 25 57  1  0  0  0  0
 26 27  1  0  0  0  0
 26 29  2  0  0  0  0
 27 28  1  0  0  0  0
 27 58  1  0  0  0  0
 27 59  1  0  0  0  0
 28 60  1  0  0  0  0
 28 61  1  0  0  0  0
 28 62  1  0  0  0  0
M  END
>  <DRUGBANK_ID>
DB14655

>  <SECONDARY_ACCESSION_NUMBERS>
DBSALT001342

>  <COMMON_NAME>
Drostanolone propionate

>  <CAS_NUMBER>
521-12-0

>  <UNII>
X20UZ57G4O

>  <SYNONYMS>
17β-Hydroxy-2α-methyl-5α-androstan-3-one propionate; 2M-DHTP; 2MDTP; 2α-Methyl-4,5-dihydrotestosterone propionate; Blackburn Compound; Dromostanolone propionate; Drostanolone propionate; Emdisterone; Testosterone, 4,5α-dihydro-2α-methyl-, propionate

$$$$
