
 OpenBabel10282417072D

 40 41  0  0  0  0  0  0  0  0999 V2000
   -0.0272    2.6802    0.0000 C   0  0  0  0  0  0  0  0  0  0  0  0
   -0.6404    2.1282    0.0000 C   0  0  0  0  0  0  0  0  0  0  0  0
   -0.1864   -2.0447    0.0000 C   0  0  0  0  0  0  0  0  0  0  0  0
   -0.6714   -2.7121    0.0000 C   0  0  0  0  0  0  0  0  0  0  0  0
   -1.4919   -2.6259    0.0000 C   0  0  0  0  0  0  0  0  0  0  0  0
   -1.8275   -1.8722    0.0000 C   0  0  0  0  0  0  0  0  0  0  0  0
   -1.3426   -1.2047    0.0000 C   0  0  0  0  0  0  0  0  0  0  0  0
   -0.5220   -1.2910    0.0000 C   0  0  0  0  0  0  0  0  0  0  0  0
   -0.3726    0.1301    0.0000 N   0  0  0  0  0  0  0  0  0  0  0  0
   -0.0370   -0.6235    0.0000 C   0  0  1  0  0  0  0  0  0  0  0  0
    0.1122    0.7976    0.0000 C   0  0  0  0  0  0  0  0  0  0  0  0
   -0.1426    1.5822    0.0000 S   0  0  0  0  0  0  0  0  0  0  0  0
    0.5247    2.0671    0.0000 C   0  0  2  0  0  0  0  0  0  0  0  0
    1.1922    1.5822    0.0000 C   0  0  0  0  0  0  0  0  0  0  0  0
    0.9372    0.7976    0.0000 N   0  0  0  0  0  0  0  0  0  0  0  0
    1.9768    1.8371    0.0000 O   0  0  0  0  0  0  0  0  0  0  0  0
    1.0768    2.6802    0.0000 C   0  0  0  0  0  0  0  0  0  0  0  0
   -1.9768   -3.2933    0.0000 F   0  0  0  0  0  0  0  0  0  0  0  0
    0.7833   -0.7098    0.0000 C   0  0  0  0  0  0  0  0  0  0  0  0
    0.5858    3.2322    0.0000 O   0  0  0  0  0  0  0  0  0  0  0  0
   -0.5793    3.2933    0.0000 C   0  0  0  0  0  0  0  0  0  0  0  0
   -1.6580    2.4590    0.0000 H   0  0  0  0  0  0  0  0  0  0  0  0
   -0.4181    1.0816    0.0000 H   0  0  0  0  0  0  0  0  0  0  0  0
   -1.4356    1.4123    0.0000 H   0  0  0  0  0  0  0  0  0  0  0  0
    0.8399   -2.1526    0.0000 H   0  0  0  0  0  0  0  0  0  0  0  0
   -0.2517   -3.6549    0.0000 H   0  0  0  0  0  0  0  0  0  0  0  0
   -2.8539   -1.7644    0.0000 H   0  0  0  0  0  0  0  0  0  0  0  0
   -1.7624   -0.2619    0.0000 H   0  0  0  0  0  0  0  0  0  0  0  0
   -1.3517    0.2329    0.0000 H   0  0  0  0  0  0  0  0  0  0  0  0
    0.3981   -1.6010    0.0000 H   0  0  0  0  0  0  0  0  0  0  0  0
    2.1234    2.4577    0.0000 H   0  0  0  0  0  0  0  0  0  0  0  0
    0.7462    3.6978    0.0000 H   0  0  0  0  0  0  0  0  0  0  0  0
    1.7928    3.4753    0.0000 H   0  0  0  0  0  0  0  0  0  0  0  0
    1.2184   -1.6873    0.0000 H   0  0  0  0  0  0  0  0  0  0  0  0
    1.4123    0.1558    0.0000 H   0  0  0  0  0  0  0  0  0  0  0  0
    1.8474   -0.8218    0.0000 H   0  0  0  0  0  0  0  0  0  0  0  0
    1.5083    2.9325    0.0000 H   0  0  0  0  0  0  0  0  0  0  0  0
   -0.2487    4.3109    0.0000 H   0  0  0  0  0  0  0  0  0  0  0  0
   -1.6259    3.0708    0.0000 H   0  0  0  0  0  0  0  0  0  0  0  0
   -1.2953    4.0884    0.0000 H   0  0  0  0  0  0  0  0  0  0  0  0
  1  2  1  0  0  0  0
  1 20  1  0  0  0  0
  1 21  1  0  0  0  0
  2 22  1  0  0  0  0
  2 23  1  0  0  0  0
  2 24  1  0  0  0  0
  3  4  2  0  0  0  0
  3  8  1  0  0  0  0
  3 25  1  0  0  0  0
  4  5  1  0  0  0  0
  4 26  1  0  0  0  0
  5  6  2  0  0  0  0
  5 18  1  0  0  0  0
  6  7  1  0  0  0  0
  6 27  1  0  0  0  0
  7  8  2  0  0  0  0
  7 28  1  0  0  0  0
  9 29  1  0  0  0  0
 10  8  1  0  0  0  0
 10  9  1  0  0  0  0
 10 19  1  0  0  0  0
 10 30  1  6  0  0  0
 11  9  1  0  0  0  0
 11 12  1  0  0  0  0
 11 15  2  0  0  0  0
 13  1  1  1  0  0  0
 13 12  1  0  0  0  0
 13 14  1  0  0  0  0
 13 17  1  0  0  0  0
 14 15  1  0  0  0  0
 14 16  2  0  0  0  0
 17 31  1  0  0  0  0
 17 32  1  0  0  0  0
 17 33  1  0  0  0  0
 19 34  1  0  0  0  0
 19 35  1  0  0  0  0
 19 36  1  0  0  0  0
 20 37  1  0  0  0  0
 21 38  1  0  0  0  0
 21 39  1  0  0  0  0
 21 40  1  0  0  0  0
M  END
>  <DRUGBANK_ID>
DB07017

>  <COMMON_NAME>
(5S)-2-{[(1S)-1-(4-Fluorophenyl)ethyl]amino}-5-(2-hydroxy-2-propanyl)-5-methyl-1,3-thiazol-4(5H)-one

$$$$
