640
 OpenBabel10282417072D

 32 34  0  0  1  0  0  0  0  0999 V2000
    4.9010    0.6808    0.0000 O   0  0  0  0  0  0  0  0  0  0  0  0
    2.8071    1.0969    0.0000 O   0  0  0  0  0  0  0  0  0  0  0  0
    3.8647    2.5471    0.0000 O   0  0  0  0  0  0  0  0  0  0  0  0
    6.3238    1.6527    0.0000 O   0  0  0  0  0  0  0  0  0  0  0  0
    3.8597   -0.3570    0.0000 N   0  0  0  0  0  0  0  0  0  0  0  0
    3.8597   -1.6848    0.0000 N   0  0  0  0  0  0  0  0  0  0  0  0
    2.3645   -0.1959    0.0000 N   0  0  0  0  0  0  0  0  0  0  0  0
    1.6500   -1.4335    0.0000 N   0  0  0  0  0  0  0  0  0  0  0  0
    2.3645   -2.6710    0.0000 N   0  0  0  0  0  0  0  0  0  0  0  0
    3.6321    1.0955    0.0000 C   0  0  1  0  0  0  0  0  0  0  0  0
    4.1159    0.4272    0.0000 C   0  0  1  0  0  0  0  0  0  0  0  0
    4.1182    1.7621    0.0000 C   0  0  1  0  0  0  0  0  0  0  0  0
    4.9025    1.5058    0.0000 C   0  0  1  0  0  0  0  0  0  0  0  0
    5.5707    1.9896    0.0000 C   0  0  0  0  0  0  0  0  0  0  0  0
    3.0790   -0.6084    0.0000 C   0  0  0  0  0  0  0  0  0  0  0  0
    4.3411   -1.0210    0.0000 C   0  0  0  0  0  0  0  0  0  0  0  0
    3.0790   -1.4335    0.0000 C   0  0  0  0  0  0  0  0  0  0  0  0
    2.3645   -1.8460    0.0000 C   0  0  0  0  0  0  0  0  0  0  0  0
    1.6500   -0.6084    0.0000 C   0  0  0  0  0  0  0  0  0  0  0  0
    2.3235    1.9378    0.0000 H   0  0  0  0  0  0  0  0  0  0  0  0
    4.5151    3.2668    0.0000 H   0  0  0  0  0  0  0  0  0  0  0  0
    6.4235    0.6878    0.0000 H   0  0  0  0  0  0  0  0  0  0  0  0
    1.5119   -3.1632    0.0000 H   0  0  0  0  0  0  0  0  0  0  0  0
    3.2171   -3.1632    0.0000 H   0  0  0  0  0  0  0  0  0  0  0  0
    3.1447    0.1430    0.0000 H   0  0  0  0  0  0  0  0  0  0  0  0
    4.8712   -0.3307    0.0000 H   0  0  0  0  0  0  0  0  0  0  0  0
    3.0617    1.9314    0.0000 H   0  0  0  0  0  0  0  0  0  0  0  0
    5.8550    1.0184    0.0000 H   0  0  0  0  0  0  0  0  0  0  0  0
    5.4607    3.0539    0.0000 H   0  0  0  0  0  0  0  0  0  0  0  0
    4.5939    2.4264    0.0000 H   0  0  0  0  0  0  0  0  0  0  0  0
    5.3731   -1.0211    0.0000 H   0  0  0  0  0  0  0  0  0  0  0  0
    0.7563   -0.0924    0.0000 H   0  0  0  0  0  0  0  0  0  0  0  0
  1 11  1  0  0  0  0
  1 13  1  0  0  0  0
  2 20  1  0  0  0  0
  3 21  1  0  0  0  0
  4 14  1  0  0  0  0
  4 22  1  0  0  0  0
  5 15  1  0  0  0  0
  5 16  1  0  0  0  0
  6 16  2  0  0  0  0
  6 17  1  0  0  0  0
  7 15  2  0  0  0  0
  7 19  1  0  0  0  0
  8 18  1  0  0  0  0
  8 19  2  0  0  0  0
  9 18  1  0  0  0  0
  9 23  1  0  0  0  0
  9 24  1  0  0  0  0
 10  2  1  0  0  0  0
 10 11  1  0  0  0  0
 10 12  1  0  0  0  0
 10 25  1  1  0  0  0
 11  5  1  0  0  0  0
 11 26  1  6  0  0  0
 12  3  1  0  0  0  0
 12 13  1  0  0  0  0
 12 27  1  1  0  0  0
 13 14  1  0  0  0  0
 13 28  1  6  0  0  0
 14 29  1  0  0  0  0
 14 30  1  0  0  0  0
 15 17  1  0  0  0  0
 16 31  1  0  0  0  0
 17 18  2  0  0  0  0
 19 32  1  0  0  0  0
M  END
>  <DRUGBANK_ID>
DB00640

>  <SECONDARY_ACCESSION_NUMBERS>
APRD00132; DB06639

>  <COMMON_NAME>
Adenosine

>  <CAS_NUMBER>
58-61-7

>  <UNII>
K72T3FS567

>  <SYNONYMS>
(2R,3R,4S,5R)-2-(6-aminopurin-9-yl)-5-(hydroxymethyl)oxolane-3,4-diol; 6-Amino-9-beta-D-ribofuranosyl-9H-purine; 9-beta-D-Ribofuranosidoadenine; 9-beta-D-Ribofuranosyl-9H-purin-6-amine; 9-β-D-ribofuranosyl-9H-purin-6-amine; Ade-Rib; Adenin riboside; Adenine Deoxyribonucleoside; Adenogesic; Adenosin; Adenosina; Adénosine; Adenosine; Adenosinum; Ado; beta-D-Adenosine

$$$$
