1347
 OpenBabel10282417072D

 60 64  0  0  0  0  0  0  0  0999 V2000
    8.4248    2.0791    0.0000 Br  0  0  0  0  0  0  0  0  0  0  0  0
    9.8876   -1.5124    0.0000 S   0  0  0  0  0  0  0  0  0  0  0  0
   11.0146   -1.8144    0.0000 F   0  0  0  0  0  0  0  0  0  0  0  0
    9.5856   -2.6394    0.0000 F   0  0  0  0  0  0  0  0  0  0  0  0
   10.7126   -2.9414    0.0000 F   0  0  0  0  0  0  0  0  0  0  0  0
    4.2178    2.7382    0.0000 O   0  0  0  0  0  0  0  0  0  0  0  0
    8.1686   -0.0328    0.0000 O   0  0  0  0  0  0  0  0  0  0  0  0
   10.6021   -1.0999    0.0000 O   0  0  0  0  0  0  0  0  0  0  0  0
    9.1730   -1.9249    0.0000 O   0  0  0  0  0  0  0  0  0  0  0  0
    4.5299    1.0436    0.0000 N   0  0  0  0  0  0  0  0  0  0  0  0
    3.6368    0.0516    0.0000 N   0  0  0  0  0  0  0  0  0  0  0  0
    2.8201    2.4411    0.0000 N   0  0  0  0  0  0  0  0  0  0  0  0
    9.4751   -0.7980    0.0000 N   0  0  0  0  0  0  0  0  0  0  0  0
    2.4037    0.8522    0.0000 C   0  0  0  0  0  0  0  0  0  0  0  0
    1.6500    0.5167    0.0000 C   0  0  0  0  0  0  0  0  0  0  0  0
    1.7363    1.3372    0.0000 C   0  0  0  0  0  0  0  0  0  0  0  0
    3.2243    0.7660    0.0000 C   0  0  0  0  0  0  0  0  0  0  0  0
    3.7763    1.3791    0.0000 C   0  0  0  0  0  0  0  0  0  0  0  0
    4.4437    0.2231    0.0000 C   0  0  0  0  0  0  0  0  0  0  0  0
    5.2445    1.4561    0.0000 C   0  0  0  0  0  0  0  0  0  0  0  0
    5.0569   -0.3290    0.0000 C   0  0  0  0  0  0  0  0  0  0  0  0
    3.6048    2.1861    0.0000 C   0  0  0  0  0  0  0  0  0  0  0  0
    5.9589    1.0436    0.0000 C   0  0  0  0  0  0  0  0  0  0  0  0
    4.8853   -1.1360    0.0000 C   0  0  0  0  0  0  0  0  0  0  0  0
    6.6734    1.4561    0.0000 C   0  0  0  0  0  0  0  0  0  0  0  0
    5.9589    0.2185    0.0000 C   0  0  0  0  0  0  0  0  0  0  0  0
    7.3879    1.0436    0.0000 C   0  0  0  0  0  0  0  0  0  0  0  0
    7.3879    0.2185    0.0000 C   0  0  0  0  0  0  0  0  0  0  0  0
    6.6734   -0.1940    0.0000 C   0  0  0  0  0  0  0  0  0  0  0  0
    8.1686    1.2949    0.0000 C   0  0  0  0  0  0  0  0  0  0  0  0
    8.6501    0.6311    0.0000 C   0  0  0  0  0  0  0  0  0  0  0  0
    9.4751    0.6311    0.0000 C   0  0  0  0  0  0  0  0  0  0  0  0
    9.8876   -0.0834    0.0000 C   0  0  0  0  0  0  0  0  0  0  0  0
    9.8876    1.3455    0.0000 C   0  0  0  0  0  0  0  0  0  0  0  0
   10.7126   -0.0834    0.0000 C   0  0  0  0  0  0  0  0  0  0  0  0
   10.7126    1.3455    0.0000 C   0  0  0  0  0  0  0  0  0  0  0  0
   11.1251    0.6311    0.0000 C   0  0  0  0  0  0  0  0  0  0  0  0
   10.3001   -2.2269    0.0000 C   0  0  0  0  0  0  0  0  0  0  0  0
    2.6155    3.4041    0.0000 H   0  0  0  0  0  0  0  0  0  0  0  0
    2.0884    1.7824    0.0000 H   0  0  0  0  0  0  0  0  0  0  0  0
    8.4906   -0.7981    0.0000 H   0  0  0  0  0  0  0  0  0  0  0  0
    2.7872    1.8511    0.0000 H   0  0  0  0  0  0  0  0  0  0  0  0
    1.0210   -0.3489    0.0000 H   0  0  0  0  0  0  0  0  0  0  0  0
    0.6511    0.9002    0.0000 H   0  0  0  0  0  0  0  0  0  0  0  0
    1.3012    2.3147    0.0000 H   0  0  0  0  0  0  0  0  0  0  0  0
    0.6795    1.1699    0.0000 H   0  0  0  0  0  0  0  0  0  0  0  0
    5.2446    2.5261    0.0000 H   0  0  0  0  0  0  0  0  0  0  0  0
    6.1712    1.9911    0.0000 H   0  0  0  0  0  0  0  0  0  0  0  0
    6.0745    0.0016    0.0000 H   0  0  0  0  0  0  0  0  0  0  0  0
    5.8520   -1.0450    0.0000 H   0  0  0  0  0  0  0  0  0  0  0  0
    3.8676   -1.4666    0.0000 H   0  0  0  0  0  0  0  0  0  0  0  0
    5.6804   -1.8520    0.0000 H   0  0  0  0  0  0  0  0  0  0  0  0
    4.6628   -2.1826    0.0000 H   0  0  0  0  0  0  0  0  0  0  0  0
    6.6734    2.4881    0.0000 H   0  0  0  0  0  0  0  0  0  0  0  0
    5.0652   -0.2975    0.0000 H   0  0  0  0  0  0  0  0  0  0  0  0
    6.6734   -1.2260    0.0000 H   0  0  0  0  0  0  0  0  0  0  0  0
    9.3716    2.2392    0.0000 H   0  0  0  0  0  0  0  0  0  0  0  0
   11.2286   -0.9771    0.0000 H   0  0  0  0  0  0  0  0  0  0  0  0
   11.2286    2.2392    0.0000 H   0  0  0  0  0  0  0  0  0  0  0  0
   12.1571    0.6311    0.0000 H   0  0  0  0  0  0  0  0  0  0  0  0
  1 30  1  0  0  0  0
  2  8  2  0  0  0  0
  2  9  2  0  0  0  0
  2 13  1  0  0  0  0
  2 38  1  0  0  0  0
  3 38  1  0  0  0  0
  4 38  1  0  0  0  0
  5 38  1  0  0  0  0
  6 22  2  0  0  0  0
  7 28  1  0  0  0  0
  7 31  1  0  0  0  0
 10 18  1  0  0  0  0
 10 19  1  0  0  0  0
 10 20  1  0  0  0  0
 11 17  1  0  0  0  0
 11 19  2  0  0  0  0
 12 22  1  0  0  0  0
 12 39  1  0  0  0  0
 12 40  1  0  0  0  0
 13 33  1  0  0  0  0
 13 41  1  0  0  0  0
 14 15  1  0  0  0  0
 14 16  1  0  0  0  0
 14 17  1  0  0  0  0
 14 42  1  0  0  0  0
 15 16  1  0  0  0  0
 15 43  1  0  0  0  0
 15 44  1  0  0  0  0
 16 45  1  0  0  0  0
 16 46  1  0  0  0  0
 17 18  2  0  0  0  0
 18 22  1  0  0  0  0
 19 21  1  0  0  0  0
 20 23  1  0  0  0  0
 20 47  1  0  0  0  0
 20 48  1  0  0  0  0
 21 24  1  0  0  0  0
 21 49  1  0  0  0  0
 21 50  1  0  0  0  0
 23 25  2  0  0  0  0
 23 26  1  0  0  0  0
 24 51  1  0  0  0  0
 24 52  1  0  0  0  0
 24 53  1  0  0  0  0
 25 27  1  0  0  0  0
 25 54  1  0  0  0  0
 26 29  2  0  0  0  0
 26 55  1  0  0  0  0
 27 28  2  0  0  0  0
 27 30  1  0  0  0  0
 28 29  1  0  0  0  0
 29 56  1  0  0  0  0
 30 31  2  0  0  0  0
 31 32  1  0  0  0  0
 32 33  1  0  0  0  0
 32 34  2  0  0  0  0
 33 35  2  0  0  0  0
 34 36  1  0  0  0  0
 34 57  1  0  0  0  0
 35 37  1  0  0  0  0
 35 58  1  0  0  0  0
 36 37  2  0  0  0  0
 36 59  1  0  0  0  0
 37 60  1  0  0  0  0
M  END
>  <DRUGBANK_ID>
DB01347

>  <COMMON_NAME>
Saprisartan

>  <CAS_NUMBER>
146623-69-0

>  <UNII>
HS64NG1G69

>  <SYNONYMS>
Saprisartan

$$$$
