
 OpenBabel10282417072D

 74 77  0  0  0  0  0  0  0  0999 V2000
   -2.5357   -0.1274    0.0000 C   0  0  0  0  0  0  0  0  0  0  0  0
   -3.2502   -0.5399    0.0000 C   0  0  0  0  0  0  0  0  0  0  0  0
   -2.5357   -1.7774    0.0000 C   0  0  0  0  0  0  0  0  0  0  0  0
   -1.1067   -1.7774    0.0000 C   0  0  1  0  0  0  0  0  0  0  0  0
   -1.8212   -0.5399    0.0000 C   0  0  2  0  0  0  0  0  0  0  0  0
   -1.1067    0.6975    0.0000 C   0  0  0  0  0  0  0  0  0  0  0  0
   -0.3923    1.1100    0.0000 C   0  0  0  0  0  0  0  0  0  0  0  0
    1.1067   -0.3823    0.0000 C   0  0  0  0  0  0  0  0  0  0  0  0
    1.5917    0.2850    0.0000 C   0  0  0  0  0  0  0  0  0  0  0  0
   -1.8212    0.2850    0.0000 C   0  0  0  0  0  0  0  0  0  0  0  0
   -1.1067   -0.1274    0.0000 C   0  0  1  0  0  0  0  0  0  0  0  0
   -1.1067   -0.9524    0.0000 H   0  0  0  0  0  0  0  0  0  0  0  0
   -0.3923   -0.5399    0.0000 C   0  0  2  0  0  0  0  0  0  0  0  0
   -0.3923    0.2850    0.0000 H   0  0  0  0  0  0  0  0  0  0  0  0
    0.3221   -0.1274    0.0000 C   0  0  1  0  0  0  0  0  0  0  0  0
    0.3221    0.6975    0.0000 C   0  0  2  0  0  0  0  0  0  0  0  0
    0.3221    1.5225    0.0000 C   0  0  0  0  0  0  0  0  0  0  0  0
    0.3221   -0.9524    0.0000 H   0  0  0  0  0  0  0  0  0  0  0  0
    2.5357    1.7774    0.0000 C   0  0  0  0  0  0  0  0  0  0  0  0
    1.8212    2.1900    0.0000 C   0  0  0  0  0  0  0  0  0  0  0  0
    0.3922    2.1900    0.0000 C   0  0  0  0  0  0  0  0  0  0  0  0
    1.1067    1.7774    0.0000 C   0  0  1  0  0  0  0  0  0  0  0  0
    1.1067    0.9524    0.0000 C   0  0  1  0  0  0  0  0  0  0  0  0
    1.8212    1.3649    0.0000 H   0  0  0  0  0  0  0  0  0  0  0  0
   -3.2502   -1.3650    0.0000 C   0  0  2  0  0  0  0  0  0  0  0  0
   -3.9646   -1.7774    0.0000 O   0  0  0  0  0  0  0  0  0  0  0  0
   -0.3923   -1.3650    0.0000 C   0  0  2  0  0  0  0  0  0  0  0  0
    0.3221   -1.7774    0.0000 O   0  0  0  0  0  0  0  0  0  0  0  0
   -1.8212   -1.3650    0.0000 C   0  0  1  0  0  0  0  0  0  0  0  0
   -1.8212   -2.1899    0.0000 H   0  0  0  0  0  0  0  0  0  0  0  0
    3.2501    2.1900    0.0000 C   0  0  0  0  0  0  0  0  0  0  0  0
    3.2501    3.0149    0.0000 O   0  0  0  0  0  0  0  0  0  0  0  0
    3.9646    1.7774    0.0000 O   0  0  0  0  0  0  0  0  0  0  0  0
   -1.1066   -2.6024    0.0000 C   0  0  0  0  0  0  0  0  0  0  0  0
   -0.3922   -3.0149    0.0000 C   0  0  0  0  0  0  0  0  0  0  0  0
   -2.5357    0.9426    0.0000 H   0  0  0  0  0  0  0  0  0  0  0  0
   -3.4623    0.4076    0.0000 H   0  0  0  0  0  0  0  0  0  0  0  0
   -4.1768   -0.0049    0.0000 H   0  0  0  0  0  0  0  0  0  0  0  0
   -4.1768   -1.0749    0.0000 H   0  0  0  0  0  0  0  0  0  0  0  0
   -2.5357   -2.8474    0.0000 H   0  0  0  0  0  0  0  0  0  0  0  0
   -3.4623   -2.3125    0.0000 H   0  0  0  0  0  0  0  0  0  0  0  0
   -0.1800   -2.3124    0.0000 H   0  0  0  0  0  0  0  0  0  0  0  0
   -2.0334    1.2325    0.0000 H   0  0  0  0  0  0  0  0  0  0  0  0
   -1.1067    1.7675    0.0000 H   0  0  0  0  0  0  0  0  0  0  0  0
   -0.3923    2.1800    0.0000 H   0  0  0  0  0  0  0  0  0  0  0  0
   -1.3190    1.6450    0.0000 H   0  0  0  0  0  0  0  0  0  0  0  0
    1.4373   -1.4000    0.0000 H   0  0  0  0  0  0  0  0  0  0  0  0
    2.1635   -0.5498    0.0000 H   0  0  0  0  0  0  0  0  0  0  0  0
    2.6617    0.2850    0.0000 H   0  0  0  0  0  0  0  0  0  0  0  0
    2.0774   -0.6684    0.0000 H   0  0  0  0  0  0  0  0  0  0  0  0
   -0.8946    0.8200    0.0000 H   0  0  0  0  0  0  0  0  0  0  0  0
   -2.7478    0.8200    0.0000 H   0  0  0  0  0  0  0  0  0  0  0  0
   -1.8212    1.3550    0.0000 H   0  0  0  0  0  0  0  0  0  0  0  0
    1.2487    2.0575    0.0000 H   0  0  0  0  0  0  0  0  0  0  0  0
   -0.6045    2.0575    0.0000 H   0  0  0  0  0  0  0  0  0  0  0  0
    0.3221    2.5925    0.0000 H   0  0  0  0  0  0  0  0  0  0  0  0
    2.5357    0.7074    0.0000 H   0  0  0  0  0  0  0  0  0  0  0  0
    3.4624    1.2425    0.0000 H   0  0  0  0  0  0  0  0  0  0  0  0
    1.8212    3.2600    0.0000 H   0  0  0  0  0  0  0  0  0  0  0  0
    0.8945    2.7250    0.0000 H   0  0  0  0  0  0  0  0  0  0  0  0
    0.3923    3.2600    0.0000 H   0  0  0  0  0  0  0  0  0  0  0  0
   -0.5345    1.6551    0.0000 H   0  0  0  0  0  0  0  0  0  0  0  0
   -0.5344    2.7251    0.0000 H   0  0  0  0  0  0  0  0  0  0  0  0
    1.1067    2.8474    0.0000 H   0  0  0  0  0  0  0  0  0  0  0  0
   -3.2502   -2.4350    0.0000 H   0  0  0  0  0  0  0  0  0  0  0  0
   -4.8046   -1.2923    0.0000 H   0  0  0  0  0  0  0  0  0  0  0  0
    0.5343   -0.8300    0.0000 H   0  0  0  0  0  0  0  0  0  0  0  0
    0.3222   -2.7474    0.0000 H   0  0  0  0  0  0  0  0  0  0  0  0
    3.9645    0.8404    0.0000 H   0  0  0  0  0  0  0  0  0  0  0  0
   -2.0332   -3.1374    0.0000 H   0  0  0  0  0  0  0  0  0  0  0  0
   -1.1066   -3.6724    0.0000 H   0  0  0  0  0  0  0  0  0  0  0  0
   -0.3922   -4.0849    0.0000 H   0  0  0  0  0  0  0  0  0  0  0  0
    0.5345   -2.4799    0.0000 H   0  0  0  0  0  0  0  0  0  0  0  0
    0.5344   -3.5499    0.0000 H   0  0  0  0  0  0  0  0  0  0  0  0
  1 36  1  0  0  0  0
  1 37  1  0  0  0  0
  2  1  1  0  0  0  0
  2 38  1  0  0  0  0
  2 39  1  0  0  0  0
  3 40  1  0  0  0  0
  3 41  1  0  0  0  0
  4 27  1  0  0  0  0
  4 34  1  0  0  0  0
  4 42  1  1  0  0  0
  5 11  1  0  0  0  0
  5 10  1  1  0  0  0
  5  1  1  0  0  0  0
  6  7  1  0  0  0  0
  6 43  1  0  0  0  0
  6 44  1  0  0  0  0
  7 45  1  0  0  0  0
  7 46  1  0  0  0  0
  8 47  1  0  0  0  0
  8 48  1  0  0  0  0
  9  8  1  0  0  0  0
  9 49  1  0  0  0  0
  9 50  1  0  0  0  0
 10 51  1  0  0  0  0
 10 52  1  0  0  0  0
 10 53  1  0  0  0  0
 11  6  1  0  0  0  0
 11 13  1  0  0  0  0
 11 12  1  6  0  0  0
 13 15  1  0  0  0  0
 13 27  1  0  0  0  0
 13 14  1  1  0  0  0
 15 16  1  0  0  0  0
 15  8  1  0  0  0  0
 15 18  1  6  0  0  0
 16 23  1  0  0  0  0
 16  7  1  0  0  0  0
 16 17  1  1  0  0  0
 17 54  1  0  0  0  0
 17 55  1  0  0  0  0
 17 56  1  0  0  0  0
 19 20  1  0  0  0  0
 19 31  1  0  0  0  0
 19 57  1  0  0  0  0
 19 58  1  0  0  0  0
 20 59  1  0  0  0  0
 20 60  1  0  0  0  0
 21 61  1  0  0  0  0
 21 62  1  0  0  0  0
 21 63  1  0  0  0  0
 22 20  1  0  0  0  0
 22 21  1  0  0  0  0
 22 64  1  1  0  0  0
 23  9  1  0  0  0  0
 23 22  1  0  0  0  0
 23 24  1  6  0  0  0
 25  3  1  0  0  0  0
 25  2  1  0  0  0  0
 25 26  1  0  0  0  0
 25 65  1  1  0  0  0
 26 66  1  0  0  0  0
 27 28  1  0  0  0  0
 27 67  1  1  0  0  0
 28 68  1  0  0  0  0
 29  5  1  0  0  0  0
 29  3  1  0  0  0  0
 29  4  1  0  0  0  0
 29 30  1  1  0  0  0
 31 33  1  0  0  0  0
 31 32  2  0  0  0  0
 33 69  1  0  0  0  0
 34 35  1  0  0  0  0
 34 70  1  0  0  0  0
 34 71  1  0  0  0  0
 35 72  1  0  0  0  0
 35 73  1  0  0  0  0
 35 74  1  0  0  0  0
M  END
>  <DRUGBANK_ID>
DB05990

>  <COMMON_NAME>
Obeticholic acid

>  <CAS_NUMBER>
459789-99-2

>  <UNII>
0462Z4S4OZ

>  <SYNONYMS>
(3α,5β,6α,7α)-6-ethyl-3,7-dihydroxycholan-24-oic acid; 6-alpha-ethylchenodeoxycholic acid; 6-ECDCA; 6-Ethyl-CDCA; 6-ethylchenodeoxycholic acid; 6alpha-Ethyl-chenodeoxycholic acid; 6α-ethylchenodeoxycholic acid; Obeticholic acid

$$$$
