4823
 OpenBabel10282417072D

 39 42  0  0  0  0  0  0  0  0999 V2000
    5.1662   -1.2245    0.0000 O   0  0  0  0  0  0  0  0  0  0  0  0
    2.3154    2.3559    0.0000 O   0  0  0  0  0  0  0  0  0  0  0  0
    6.5328    1.3746    0.0000 O   0  0  0  0  0  0  0  0  0  0  0  0
    3.8597   -1.8884    0.0000 N   0  0  0  0  0  0  0  0  0  0  0  0
    3.8597   -0.5606    0.0000 C   0  0  0  0  0  0  0  0  0  0  0  0
    3.0790   -0.8120    0.0000 C   0  0  0  0  0  0  0  0  0  0  0  0
    4.3411   -1.2245    0.0000 C   0  0  0  0  0  0  0  0  0  0  0  0
    3.4736    0.1686    0.0000 C   0  0  0  0  0  0  0  0  0  0  0  0
    4.5279   -0.0768    0.0000 C   0  0  0  0  0  0  0  0  0  0  0  0
    3.0790   -1.6370    0.0000 C   0  0  0  0  0  0  0  0  0  0  0  0
    2.3645   -0.3995    0.0000 C   0  0  0  0  0  0  0  0  0  0  0  0
    2.3645   -2.0495    0.0000 C   0  0  0  0  0  0  0  0  0  0  0  0
    2.6491    0.1987    0.0000 C   0  0  0  0  0  0  0  0  0  0  0  0
    4.4431    0.7438    0.0000 C   0  0  0  0  0  0  0  0  0  0  0  0
    3.9120    0.8674    0.0000 C   0  0  0  0  0  0  0  0  0  0  0  0
    5.2810   -0.4137    0.0000 C   0  0  0  0  0  0  0  0  0  0  0  0
    1.6500   -0.8120    0.0000 C   0  0  0  0  0  0  0  0  0  0  0  0
    1.6500   -1.6370    0.0000 C   0  0  0  0  0  0  0  0  0  0  0  0
    2.2631    0.9279    0.0000 C   0  0  0  0  0  0  0  0  0  0  0  0
    5.1114    1.2276    0.0000 C   0  0  0  0  0  0  0  0  0  0  0  0
    3.5259    1.5966    0.0000 C   0  0  0  0  0  0  0  0  0  0  0  0
    5.9493    0.0701    0.0000 C   0  0  0  0  0  0  0  0  0  0  0  0
    2.7014    1.6268    0.0000 C   0  0  0  0  0  0  0  0  0  0  0  0
    5.8645    0.8908    0.0000 C   0  0  0  0  0  0  0  0  0  0  0  0
    2.8134    3.1496    0.0000 H   0  0  0  0  0  0  0  0  0  0  0  0
    7.3881    0.9920    0.0000 H   0  0  0  0  0  0  0  0  0  0  0  0
    4.1656   -2.8242    0.0000 H   0  0  0  0  0  0  0  0  0  0  0  0
    2.3645    0.6325    0.0000 H   0  0  0  0  0  0  0  0  0  0  0  0
    2.3645   -3.0815    0.0000 H   0  0  0  0  0  0  0  0  0  0  0  0
    2.1007   -0.6755    0.0000 H   0  0  0  0  0  0  0  0  0  0  0  0
    3.5010    1.1652    0.0000 H   0  0  0  0  0  0  0  0  0  0  0  0
    4.9433    0.8296    0.0000 H   0  0  0  0  0  0  0  0  0  0  0  0
    5.3871   -1.4402    0.0000 H   0  0  0  0  0  0  0  0  0  0  0  0
    0.7563   -0.2960    0.0000 H   0  0  0  0  0  0  0  0  0  0  0  0
    0.7563   -2.1530    0.0000 H   0  0  0  0  0  0  0  0  0  0  0  0
    1.2318    0.9657    0.0000 H   0  0  0  0  0  0  0  0  0  0  0  0
    5.0053    2.2541    0.0000 H   0  0  0  0  0  0  0  0  0  0  0  0
    4.0743    2.4708    0.0000 H   0  0  0  0  0  0  0  0  0  0  0  0
    6.8913   -0.3513    0.0000 H   0  0  0  0  0  0  0  0  0  0  0  0
  1  7  2  0  0  0  0
  2 23  1  0  0  0  0
  2 25  1  0  0  0  0
  3 24  1  0  0  0  0
  3 26  1  0  0  0  0
  4  7  1  0  0  0  0
  4 10  1  0  0  0  0
  4 27  1  0  0  0  0
  5  6  1  0  0  0  0
  5  7  1  0  0  0  0
  5  8  1  0  0  0  0
  5  9  1  0  0  0  0
  6 10  1  0  0  0  0
  6 11  2  0  0  0  0
  8 13  2  0  0  0  0
  8 15  1  0  0  0  0
  9 14  2  0  0  0  0
  9 16  1  0  0  0  0
 10 12  2  0  0  0  0
 11 17  1  0  0  0  0
 11 28  1  0  0  0  0
 12 18  1  0  0  0  0
 12 29  1  0  0  0  0
 13 19  1  0  0  0  0
 13 30  1  0  0  0  0
 14 20  1  0  0  0  0
 14 31  1  0  0  0  0
 15 21  2  0  0  0  0
 15 32  1  0  0  0  0
 16 22  2  0  0  0  0
 16 33  1  0  0  0  0
 17 18  2  0  0  0  0
 17 34  1  0  0  0  0
 18 35  1  0  0  0  0
 19 23  2  0  0  0  0
 19 36  1  0  0  0  0
 20 24  2  0  0  0  0
 20 37  1  0  0  0  0
 21 23  1  0  0  0  0
 21 38  1  0  0  0  0
 22 24  1  0  0  0  0
 22 39  1  0  0  0  0
M  END
>  <DRUGBANK_ID>
DB04823

>  <COMMON_NAME>
Oxyphenisatin

>  <CAS_NUMBER>
125-13-3

>  <UNII>
3BT0VQG2GQ

>  <SYNONYMS>
1,3-Dihydro-3,3-bis(4-hydroxyphenyl)-2H-indol-2-one; 3,3-Bis(4-hydroxyphenyl)oxindole; 3,3-Bis(p-hydroxyphenyl)-2-indolinone; 3,3-Bis(p-hydroxyphenyl)oxindole; 4,4'-Dihydroxydiphenylisatin; Dihydroxyphenoloxindol; Oxifenisatina; Oxyphenisatine; Oxyphenisatinum

$$$$
