
 OpenBabel10282417072D

 29 28  0  0  0  0  0  0  0  0999 V2000
   -3.2151    0.2062    0.0000 O   0  0  0  0  0  0  0  0  0  0  0  0
   -2.5006   -0.2062    0.0000 C   0  0  0  0  0  0  0  0  0  0  0  0
   -1.7861    0.2062    0.0000 C   0  0  1  0  0  0  0  0  0  0  0  0
   -1.0717   -0.2062    0.0000 C   0  0  2  0  0  0  0  0  0  0  0  0
   -0.3572    0.2062    0.0000 C   0  0  1  0  0  0  0  0  0  0  0  0
    0.3572   -0.2062    0.0000 C   0  0  1  0  0  0  0  0  0  0  0  0
    1.0716    0.2062    0.0000 C   0  0  0  0  0  0  0  0  0  0  0  0
    1.7861   -0.2062    0.0000 O   0  0  0  0  0  0  0  0  0  0  0  0
    2.5006    0.2062    0.0000 P   0  0  0  0  0  0  0  0  0  0  0  0
    3.2151   -0.2062    0.0000 O   0  0  0  0  0  0  0  0  0  0  0  0
   -2.5006   -1.0312    0.0000 H   0  0  0  0  0  0  0  0  0  0  0  0
   -1.7861    1.0312    0.0000 O   0  0  0  0  0  0  0  0  0  0  0  0
   -1.0717   -1.0312    0.0000 O   0  0  0  0  0  0  0  0  0  0  0  0
   -0.3572    1.0312    0.0000 O   0  0  0  0  0  0  0  0  0  0  0  0
    0.3572   -1.0312    0.0000 O   0  0  0  0  0  0  0  0  0  0  0  0
    2.5006    1.0312    0.0000 O   0  0  0  0  0  0  0  0  0  0  0  0
    2.5006   -0.6187    0.0000 O   0  0  0  0  0  0  0  0  0  0  0  0
   -2.7127    0.7413    0.0000 H   0  0  0  0  0  0  0  0  0  0  0  0
   -1.9983   -0.7412    0.0000 H   0  0  0  0  0  0  0  0  0  0  0  0
   -1.2838    0.7413    0.0000 H   0  0  0  0  0  0  0  0  0  0  0  0
   -0.5694   -0.7412    0.0000 H   0  0  0  0  0  0  0  0  0  0  0  0
    1.0716    1.2762    0.0000 H   0  0  0  0  0  0  0  0  0  0  0  0
    1.9982    0.7413    0.0000 H   0  0  0  0  0  0  0  0  0  0  0  0
    3.2152   -1.1762    0.0000 H   0  0  0  0  0  0  0  0  0  0  0  0
   -0.9461    1.5162    0.0000 H   0  0  0  0  0  0  0  0  0  0  0  0
   -1.9117   -1.5162    0.0000 H   0  0  0  0  0  0  0  0  0  0  0  0
    0.4828    1.5162    0.0000 H   0  0  0  0  0  0  0  0  0  0  0  0
   -0.4828   -1.5162    0.0000 H   0  0  0  0  0  0  0  0  0  0  0  0
    1.6606   -1.1037    0.0000 H   0  0  0  0  0  0  0  0  0  0  0  0
  1  2  2  0  0  0  0
  2  3  1  0  0  0  0
  2 11  1  0  0  0  0
  3  4  1  0  0  0  0
  3 12  1  0  0  0  0
  3 18  1  1  0  0  0
  4  5  1  0  0  0  0
  4 13  1  0  0  0  0
  4 19  1  1  0  0  0
  5  6  1  0  0  0  0
  5 14  1  0  0  0  0
  5 20  1  1  0  0  0
  6  7  1  0  0  0  0
  6 15  1  0  0  0  0
  6 21  1  6  0  0  0
  7  8  1  0  0  0  0
  7 22  1  0  0  0  0
  7 23  1  0  0  0  0
  8  9  1  0  0  0  0
  9 10  1  0  0  0  0
  9 16  2  0  0  0  0
  9 17  1  0  0  0  0
 10 24  1  0  0  0  0
 12 25  1  0  0  0  0
 13 26  1  0  0  0  0
 14 27  1  0  0  0  0
 15 28  1  0  0  0  0
 17 29  1  0  0  0  0
M  END
>  <DRUGBANK_ID>
DB03581

>  <SECONDARY_ACCESSION_NUMBERS>
EXPT01538

>  <COMMON_NAME>
Glucose-6-Phosphate

>  <CAS_NUMBER>
56-73-5

>  <UNII>
375AW34SQA

$$$$
