
 OpenBabel10282417072D

 53 55  0  0  0  0  0  0  0  0999 V2000
    0.3571    2.2686    0.0000 N   0  0  0  0  0  0  0  0  0  0  0  0
    1.0717    2.6811    0.0000 C   0  0  0  0  0  0  0  0  0  0  0  0
    0.3571   -0.2062    0.0000 N   0  0  0  0  0  0  0  0  0  0  0  0
    0.3571    1.4437    0.0000 C   0  0  0  0  0  0  0  0  0  0  0  0
    1.0717    1.0311    0.0000 C   0  0  0  0  0  0  0  0  0  0  0  0
   -0.3571    1.0311    0.0000 C   0  0  0  0  0  0  0  0  0  0  0  0
    1.0717    3.5061    0.0000 O   0  0  0  0  0  0  0  0  0  0  0  0
   -0.3571    2.6811    0.0000 C   0  0  0  0  0  0  0  0  0  0  0  0
   -0.3571    0.2061    0.0000 C   0  0  0  0  0  0  0  0  0  0  0  0
    1.0717    0.2061    0.0000 C   0  0  0  0  0  0  0  0  0  0  0  0
    0.3571   -1.0312    0.0000 C   0  0  0  0  0  0  0  0  0  0  0  0
    1.0717   -1.4438    0.0000 C   0  0  0  0  0  0  0  0  0  0  0  0
    1.0717   -2.2687    0.0000 C   0  0  0  0  0  0  0  0  0  0  0  0
    1.7861    2.2686    0.0000 C   0  0  0  0  0  0  0  0  0  0  0  0
   -1.0716    2.2686    0.0000 C   0  0  0  0  0  0  0  0  0  0  0  0
   -0.3571    3.5061    0.0000 C   0  0  0  0  0  0  0  0  0  0  0  0
    1.7861   -2.6812    0.0000 C   0  0  0  0  0  0  0  0  0  0  0  0
    0.3571   -2.6812    0.0000 C   0  0  0  0  0  0  0  0  0  0  0  0
   -1.7861    2.6811    0.0000 C   0  0  0  0  0  0  0  0  0  0  0  0
   -1.0716    3.9186    0.0000 C   0  0  0  0  0  0  0  0  0  0  0  0
    1.7861   -3.5062    0.0000 C   0  0  0  0  0  0  0  0  0  0  0  0
    0.3571   -3.5062    0.0000 C   0  0  0  0  0  0  0  0  0  0  0  0
   -1.7861    3.5061    0.0000 C   0  0  0  0  0  0  0  0  0  0  0  0
    1.0717   -3.9187    0.0000 C   0  0  0  0  0  0  0  0  0  0  0  0
    2.5006    2.6811    0.0000 C   0  0  0  0  0  0  0  0  0  0  0  0
   -2.5006    3.9187    0.0000 F   0  0  0  0  0  0  0  0  0  0  0  0
    0.3572    0.3737    0.0000 H   0  0  0  0  0  0  0  0  0  0  0  0
    1.9984    1.5661    0.0000 H   0  0  0  0  0  0  0  0  0  0  0  0
    1.9983    0.4961    0.0000 H   0  0  0  0  0  0  0  0  0  0  0  0
   -1.2838    1.5660    0.0000 H   0  0  0  0  0  0  0  0  0  0  0  0
   -1.2837    0.4960    0.0000 H   0  0  0  0  0  0  0  0  0  0  0  0
   -1.2837   -0.3289    0.0000 H   0  0  0  0  0  0  0  0  0  0  0  0
   -1.2838    0.7411    0.0000 H   0  0  0  0  0  0  0  0  0  0  0  0
    1.9983   -0.3290    0.0000 H   0  0  0  0  0  0  0  0  0  0  0  0
    1.9984    0.7410    0.0000 H   0  0  0  0  0  0  0  0  0  0  0  0
   -0.5696   -1.5662    0.0000 H   0  0  0  0  0  0  0  0  0  0  0  0
    0.3571   -2.1012    0.0000 H   0  0  0  0  0  0  0  0  0  0  0  0
    1.9984   -0.9088    0.0000 H   0  0  0  0  0  0  0  0  0  0  0  0
    1.9983   -1.9788    0.0000 H   0  0  0  0  0  0  0  0  0  0  0  0
    1.7861    1.1986    0.0000 H   0  0  0  0  0  0  0  0  0  0  0  0
    2.7127    1.7336    0.0000 H   0  0  0  0  0  0  0  0  0  0  0  0
   -1.0716    1.2366    0.0000 H   0  0  0  0  0  0  0  0  0  0  0  0
    0.5366    4.0221    0.0000 H   0  0  0  0  0  0  0  0  0  0  0  0
    2.6798   -2.1652    0.0000 H   0  0  0  0  0  0  0  0  0  0  0  0
   -0.5366   -2.1652    0.0000 H   0  0  0  0  0  0  0  0  0  0  0  0
   -2.6798    2.1651    0.0000 H   0  0  0  0  0  0  0  0  0  0  0  0
   -1.0716    4.9506    0.0000 H   0  0  0  0  0  0  0  0  0  0  0  0
    2.6798   -4.0222    0.0000 H   0  0  0  0  0  0  0  0  0  0  0  0
   -0.5366   -4.0222    0.0000 H   0  0  0  0  0  0  0  0  0  0  0  0
    1.0718   -4.9507    0.0000 H   0  0  0  0  0  0  0  0  0  0  0  0
    3.4272    2.1461    0.0000 H   0  0  0  0  0  0  0  0  0  0  0  0
    2.5006    3.7511    0.0000 H   0  0  0  0  0  0  0  0  0  0  0  0
    3.4273    3.2161    0.0000 H   0  0  0  0  0  0  0  0  0  0  0  0
  2  1  1  0  0  0  0
  4  1  1  0  0  0  0
  4 27  1  0  0  0  0
  5  4  1  0  0  0  0
  5 28  1  0  0  0  0
  5 29  1  0  0  0  0
  6  4  1  0  0  0  0
  6 30  1  0  0  0  0
  6 31  1  0  0  0  0
  7  2  2  0  0  0  0
  8  1  1  0  0  0  0
  9  3  1  0  0  0  0
  9  6  1  0  0  0  0
  9 32  1  0  0  0  0
  9 33  1  0  0  0  0
 10  3  1  0  0  0  0
 10  5  1  0  0  0  0
 10 34  1  0  0  0  0
 10 35  1  0  0  0  0
 11  3  1  0  0  0  0
 11 36  1  0  0  0  0
 11 37  1  0  0  0  0
 12 11  1  0  0  0  0
 12 38  1  0  0  0  0
 12 39  1  0  0  0  0
 13 12  1  0  0  0  0
 14  2  1  0  0  0  0
 14 25  1  0  0  0  0
 14 40  1  0  0  0  0
 14 41  1  0  0  0  0
 15  8  1  0  0  0  0
 15 42  1  0  0  0  0
 16  8  2  0  0  0  0
 16 43  1  0  0  0  0
 17 13  1  0  0  0  0
 17 44  1  0  0  0  0
 18 13  2  0  0  0  0
 18 45  1  0  0  0  0
 19 15  2  0  0  0  0
 19 46  1  0  0  0  0
 20 16  1  0  0  0  0
 20 47  1  0  0  0  0
 21 17  2  0  0  0  0
 21 48  1  0  0  0  0
 22 18  1  0  0  0  0
 22 49  1  0  0  0  0
 23 19  1  0  0  0  0
 23 20  2  0  0  0  0
 23 26  1  0  0  0  0
 24 21  1  0  0  0  0
 24 22  2  0  0  0  0
 24 50  1  0  0  0  0
 25 51  1  0  0  0  0
 25 52  1  0  0  0  0
 25 53  1  0  0  0  0
M  END
>  <DRUGBANK_ID>
DB09177

>  <COMMON_NAME>
p-Fluorofentanyl

>  <CAS_NUMBER>
90736-23-5

>  <UNII>
I45R05QM0Z

>  <SYNONYMS>
4-Fluorofentanyl; Parafluorofentanyl

$$$$
