
 OpenBabel10282417072D

 45 48  0  0  0  0  0  0  0  0999 V2000
    1.9174    0.8110    0.0000 N   0  0  0  0  0  0  0  0  0  0  0  0
    1.5684    1.5585    0.0000 C   0  0  0  0  0  0  0  0  0  0  0  0
    0.7663    1.7517    0.0000 C   0  0  0  0  0  0  0  0  0  0  0  0
    0.1152    1.2451    0.0000 C   0  0  0  0  0  0  0  0  0  0  0  0
    0.1054    0.4201    0.0000 C   0  0  0  0  0  0  0  0  0  0  0  0
    0.7442   -0.1018    0.0000 C   0  0  2  0  0  0  0  0  0  0  0  0
    1.5506    0.0720    0.0000 C   0  0  0  0  0  0  0  0  0  0  0  0
   -0.6139    0.0161    0.0000 C   0  0  0  0  0  0  0  0  0  0  0  0
   -1.3234    0.4371    0.0000 C   0  0  0  0  0  0  0  0  0  0  0  0
   -1.3135    1.2621    0.0000 C   0  0  0  0  0  0  0  0  0  0  0  0
   -0.5942    1.6660    0.0000 C   0  0  0  0  0  0  0  0  0  0  0  0
   -2.0427    0.0332    0.0000 O   0  0  0  0  0  0  0  0  0  0  0  0
   -2.0230    1.6831    0.0000 N   0  3  0  0  0  0  0  0  0  0  0  0
   -2.0132    2.5080    0.0000 O   0  0  0  0  0  0  0  0  0  0  0  0
   -2.7424    1.2791    0.0000 O   0  5  0  0  0  0  0  0  0  0  0  0
    2.7424    0.8012    0.0000 C   0  0  0  0  0  0  0  0  0  0  0  0
   -0.9432   -0.7061    0.0000 O   0  0  0  0  0  0  0  0  0  0  0  0
   -1.5709   -1.2414    0.0000 C   0  0  0  0  0  0  0  0  0  0  0  0
   -1.2557   -2.0039    0.0000 C   0  0  0  0  0  0  0  0  0  0  0  0
   -0.4332   -1.9397    0.0000 C   0  0  0  0  0  0  0  0  0  0  0  0
   -0.2401   -1.1377    0.0000 C   0  0  0  0  0  0  0  0  0  0  0  0
    0.1647   -2.5080    0.0000 C   0  0  0  0  0  0  0  0  0  0  0  0
    0.9559   -2.2743    0.0000 C   0  0  0  0  0  0  0  0  0  0  0  0
    1.1491   -1.4722    0.0000 C   0  0  0  0  0  0  0  0  0  0  0  0
    0.5510   -0.9039    0.0000 C   0  0  0  0  0  0  0  0  0  0  0  0
    2.2455    2.3870    0.0000 H   0  0  0  0  0  0  0  0  0  0  0  0
    1.2271    2.5726    0.0000 H   0  0  0  0  0  0  0  0  0  0  0  0
    0.5407    2.7976    0.0000 H   0  0  0  0  0  0  0  0  0  0  0  0
   -0.2394    2.1172    0.0000 H   0  0  0  0  0  0  0  0  0  0  0  0
   -0.2699   -0.4432    0.0000 H   0  0  0  0  0  0  0  0  0  0  0  0
    2.2076   -0.7725    0.0000 H   0  0  0  0  0  0  0  0  0  0  0  0
    2.6152    0.1791    0.0000 H   0  0  0  0  0  0  0  0  0  0  0  0
   -0.6262   -1.0158    0.0000 H   0  0  0  0  0  0  0  0  0  0  0  0
   -0.5819    2.6979    0.0000 H   0  0  0  0  0  0  0  0  0  0  0  0
   -2.8485    0.5114    0.0000 H   0  0  0  0  0  0  0  0  0  0  0  0
    3.2664   -0.1317    0.0000 H   0  0  0  0  0  0  0  0  0  0  0  0
    3.2884    1.7214    0.0000 H   0  0  0  0  0  0  0  0  0  0  0  0
    3.8123    0.7885    0.0000 H   0  0  0  0  0  0  0  0  0  0  0  0
   -2.6112   -0.9909    0.0000 H   0  0  0  0  0  0  0  0  0  0  0  0
   -2.2664   -2.0545    0.0000 H   0  0  0  0  0  0  0  0  0  0  0  0
   -1.8154   -2.9158    0.0000 H   0  0  0  0  0  0  0  0  0  0  0  0
   -0.6972   -2.9166    0.0000 H   0  0  0  0  0  0  0  0  0  0  0  0
   -0.0770   -3.5113    0.0000 H   0  0  0  0  0  0  0  0  0  0  0  0
    1.7039   -2.9852    0.0000 H   0  0  0  0  0  0  0  0  0  0  0  0
    2.1388   -1.1798    0.0000 H   0  0  0  0  0  0  0  0  0  0  0  0
  1  2  1  0  0  0  0
  1  7  1  0  0  0  0
  1 16  1  0  0  0  0
  2  3  1  0  0  0  0
  2 26  1  0  0  0  0
  2 27  1  0  0  0  0
  3  4  1  0  0  0  0
  3 28  1  0  0  0  0
  3 29  1  0  0  0  0
  4  5  1  0  0  0  0
  4 11  2  0  0  0  0
  5  6  1  0  0  0  0
  5  8  2  0  0  0  0
  6  7  1  0  0  0  0
  6 25  1  0  0  0  0
  6 30  1  1  0  0  0
  7 31  1  0  0  0  0
  7 32  1  0  0  0  0
  8  9  1  0  0  0  0
  8 33  1  0  0  0  0
  9 10  2  0  0  0  0
  9 12  1  0  0  0  0
 10 11  1  0  0  0  0
 10 13  1  0  0  0  0
 11 34  1  0  0  0  0
 12 35  1  0  0  0  0
 13 14  2  0  0  0  0
 13 15  1  0  0  0  0
 16 36  1  0  0  0  0
 16 37  1  0  0  0  0
 16 38  1  0  0  0  0
 17 18  1  0  0  0  0
 17 21  1  0  0  0  0
 18 19  1  0  0  0  0
 18 39  1  0  0  0  0
 18 40  1  0  0  0  0
 19 20  1  0  0  0  0
 19 41  1  0  0  0  0
 19 42  1  0  0  0  0
 20 21  1  0  0  0  0
 20 22  2  0  0  0  0
 21 25  2  0  0  0  0
 22 23  1  0  0  0  0
 22 43  1  0  0  0  0
 23 24  2  0  0  0  0
 23 44  1  0  0  0  0
 24 25  1  0  0  0  0
 24 45  1  0  0  0  0
M  CHG  2  13   1  15  -1
M  END
>  <DRUGBANK_ID>
DB05419

>  <COMMON_NAME>
ADX-10061

>  <CAS_NUMBER>
128022-68-4

>  <UNII>
K389NU4SEV

$$$$
