
 OpenBabel10282417072D

 30 32  0  0  0  0  0  0  0  0999 V2000
    0.7761    1.3602    0.0000 C   0  0  0  0  0  0  0  0  0  0  0  0
    0.8623    2.1807    0.0000 N   0  0  0  0  0  0  0  0  0  0  0  0
    1.6693    2.3522    0.0000 C   0  0  0  0  0  0  0  0  0  0  0  0
    2.0818    1.6377    0.0000 C   0  0  0  0  0  0  0  0  0  0  0  0
    1.5298    1.0246    0.0000 N   0  0  0  0  0  0  0  0  0  0  0  0
    0.0615    0.9477    0.0000 C   0  0  0  0  0  0  0  0  0  0  0  0
    0.0615    0.1227    0.0000 C   0  0  0  0  0  0  0  0  0  0  0  0
    0.7761   -0.2897    0.0000 C   0  0  0  0  0  0  0  0  0  0  0  0
    0.7761   -1.1147    0.0000 C   0  0  0  0  0  0  0  0  0  0  0  0
    0.0615   -1.5272    0.0000 C   0  0  0  0  0  0  0  0  0  0  0  0
   -0.6528   -1.1147    0.0000 C   0  0  0  0  0  0  0  0  0  0  0  0
   -1.3673   -1.5272    0.0000 C   0  0  0  0  0  0  0  0  0  0  0  0
   -2.0818   -1.1147    0.0000 C   0  0  0  0  0  0  0  0  0  0  0  0
   -2.0818   -0.2897    0.0000 C   0  0  0  0  0  0  0  0  0  0  0  0
   -1.3673    0.1227    0.0000 C   0  0  0  0  0  0  0  0  0  0  0  0
   -0.6528   -0.2897    0.0000 C   0  0  0  0  0  0  0  0  0  0  0  0
    0.0615   -2.3522    0.0000 Cl  0  0  0  0  0  0  0  0  0  0  0  0
    2.1045    3.3297    0.0000 H   0  0  0  0  0  0  0  0  0  0  0  0
    2.7378    2.4082    0.0000 H   0  0  0  0  0  0  0  0  0  0  0  0
    3.1459    1.5259    0.0000 H   0  0  0  0  0  0  0  0  0  0  0  0
    2.4653    0.6388    0.0000 H   0  0  0  0  0  0  0  0  0  0  0  0
    1.7345    0.0616    0.0000 H   0  0  0  0  0  0  0  0  0  0  0  0
   -0.8651    1.4827    0.0000 H   0  0  0  0  0  0  0  0  0  0  0  0
    0.0616    2.0177    0.0000 H   0  0  0  0  0  0  0  0  0  0  0  0
    1.6698    0.2264    0.0000 H   0  0  0  0  0  0  0  0  0  0  0  0
    1.6698   -1.6307    0.0000 H   0  0  0  0  0  0  0  0  0  0  0  0
   -1.3673   -2.5592    0.0000 H   0  0  0  0  0  0  0  0  0  0  0  0
   -2.9755   -1.6307    0.0000 H   0  0  0  0  0  0  0  0  0  0  0  0
   -2.9755    0.2264    0.0000 H   0  0  0  0  0  0  0  0  0  0  0  0
   -1.3673    1.1547    0.0000 H   0  0  0  0  0  0  0  0  0  0  0  0
  1  2  2  0  0  0  0
  1  5  1  0  0  0  0
  1  6  1  0  0  0  0
  2  3  1  0  0  0  0
  3  4  1  0  0  0  0
  3 18  1  0  0  0  0
  3 19  1  0  0  0  0
  4  5  1  0  0  0  0
  4 20  1  0  0  0  0
  4 21  1  0  0  0  0
  5 22  1  0  0  0  0
  6  7  1  0  0  0  0
  6 23  1  0  0  0  0
  6 24  1  0  0  0  0
  7  8  1  0  0  0  0
  7 16  2  0  0  0  0
  8  9  2  0  0  0  0
  8 25  1  0  0  0  0
  9 10  1  0  0  0  0
  9 26  1  0  0  0  0
 10 11  2  0  0  0  0
 10 17  1  0  0  0  0
 11 12  1  0  0  0  0
 11 16  1  0  0  0  0
 12 13  2  0  0  0  0
 12 27  1  0  0  0  0
 13 14  1  0  0  0  0
 13 28  1  0  0  0  0
 14 15  2  0  0  0  0
 14 29  1  0  0  0  0
 15 16  1  0  0  0  0
 15 30  1  0  0  0  0
M  END
>  <DRUGBANK_ID>
DB15881

>  <COMMON_NAME>
Clonazoline

>  <CAS_NUMBER>
17692-28-3

>  <UNII>
YH9K692U9S

>  <SYNONYMS>
Clonazolina; Clonazoline; Clonazolinum

$$$$
