5IG
 OpenBabel10282417072D

 55 57  0  0  0  0  0  0  0  0999 V2000
   -1.8389    2.0981    0.0000 C   0  0  0  0  0  0  0  0  0  0  0  0
   -1.8389    2.9231    0.0000 N   0  0  0  0  0  0  0  0  0  0  0  0
   -1.1245    3.3356    0.0000 C   0  0  0  0  0  0  0  0  0  0  0  0
   -0.4100    2.9231    0.0000 N   0  0  0  0  0  0  0  0  0  0  0  0
   -0.4100    2.0981    0.0000 C   0  0  0  0  0  0  0  0  0  0  0  0
   -1.1245    1.6856    0.0000 C   0  0  0  0  0  0  0  0  0  0  0  0
   -2.5534    1.6856    0.0000 N   0  0  0  0  0  0  0  0  0  0  0  0
   -1.1245    4.1606    0.0000 N   0  0  0  0  0  0  0  0  0  0  0  0
    0.3045    1.6856    0.0000 C   0  0  0  0  0  0  0  0  0  0  0  0
   -1.8389    0.4481    0.0000 C   0  0  0  0  0  0  0  0  0  0  0  0
   -1.8389   -0.3769    0.0000 C   0  0  0  0  0  0  0  0  0  0  0  0
   -1.1245   -0.7894    0.0000 C   0  0  0  0  0  0  0  0  0  0  0  0
   -0.4100   -0.3769    0.0000 C   0  0  0  0  0  0  0  0  0  0  0  0
   -0.4100    0.4481    0.0000 C   0  0  0  0  0  0  0  0  0  0  0  0
   -1.1245    0.8606    0.0000 C   0  0  0  0  0  0  0  0  0  0  0  0
   -1.1245   -1.6144    0.0000 O   0  0  0  0  0  0  0  0  0  0  0  0
   -0.4100   -2.0269    0.0000 C   0  0  0  0  0  0  0  0  0  0  0  0
    0.3045   -1.6144    0.0000 C   0  0  0  0  0  0  0  0  0  0  0  0
    0.3045   -0.7894    0.0000 N   0  0  0  0  0  0  0  0  0  0  0  0
    1.0190   -0.3769    0.0000 C   0  0  0  0  0  0  0  0  0  0  0  0
    1.7334   -0.7894    0.0000 C   0  0  0  0  0  0  0  0  0  0  0  0
    2.4479   -0.3769    0.0000 C   0  0  0  0  0  0  0  0  0  0  0  0
    3.1624   -0.7894    0.0000 O   0  0  0  0  0  0  0  0  0  0  0  0
    3.8768   -0.3769    0.0000 C   0  0  0  0  0  0  0  0  0  0  0  0
   -0.7973   -2.7554    0.0000 C   0  0  0  0  0  0  0  0  0  0  0  0
   -0.0227   -2.7554    0.0000 C   0  0  0  0  0  0  0  0  0  0  0  0
    1.0190   -2.0269    0.0000 O   0  0  0  0  0  0  0  0  0  0  0  0
    0.3045    0.8606    0.0000 C   0  0  0  0  0  0  0  0  0  0  0  0
   -3.4060    2.1779    0.0000 H   0  0  0  0  0  0  0  0  0  0  0  0
   -2.5534    0.7011    0.0000 H   0  0  0  0  0  0  0  0  0  0  0  0
   -0.2719    4.6528    0.0000 H   0  0  0  0  0  0  0  0  0  0  0  0
   -1.9771    4.6528    0.0000 H   0  0  0  0  0  0  0  0  0  0  0  0
    1.2311    2.2206    0.0000 H   0  0  0  0  0  0  0  0  0  0  0  0
    1.2311    1.1506    0.0000 H   0  0  0  0  0  0  0  0  0  0  0  0
   -2.7326    0.9641    0.0000 H   0  0  0  0  0  0  0  0  0  0  0  0
   -2.7326   -0.8929    0.0000 H   0  0  0  0  0  0  0  0  0  0  0  0
    0.4837    0.9641    0.0000 H   0  0  0  0  0  0  0  0  0  0  0  0
    1.0190    0.6931    0.0000 H   0  0  0  0  0  0  0  0  0  0  0  0
    1.9457    0.1581    0.0000 H   0  0  0  0  0  0  0  0  0  0  0  0
    1.7334   -1.8594    0.0000 H   0  0  0  0  0  0  0  0  0  0  0  0
    2.6600   -1.3244    0.0000 H   0  0  0  0  0  0  0  0  0  0  0  0
    2.4479    0.6931    0.0000 H   0  0  0  0  0  0  0  0  0  0  0  0
    3.3745    0.1581    0.0000 H   0  0  0  0  0  0  0  0  0  0  0  0
    4.8035   -0.9119    0.0000 H   0  0  0  0  0  0  0  0  0  0  0  0
    3.8768    0.6931    0.0000 H   0  0  0  0  0  0  0  0  0  0  0  0
    4.8034    0.1581    0.0000 H   0  0  0  0  0  0  0  0  0  0  0  0
   -1.8666   -2.7928    0.0000 H   0  0  0  0  0  0  0  0  0  0  0  0
   -0.2302   -3.6628    0.0000 H   0  0  0  0  0  0  0  0  0  0  0  0
   -1.2996   -3.7002    0.0000 H   0  0  0  0  0  0  0  0  0  0  0  0
   -0.5898   -3.6628    0.0000 H   0  0  0  0  0  0  0  0  0  0  0  0
    1.0466   -2.7928    0.0000 H   0  0  0  0  0  0  0  0  0  0  0  0
    0.4796   -3.7002    0.0000 H   0  0  0  0  0  0  0  0  0  0  0  0
   -0.6221    0.3256    0.0000 H   0  0  0  0  0  0  0  0  0  0  0  0
    1.2311    0.3256    0.0000 H   0  0  0  0  0  0  0  0  0  0  0  0
    0.3045   -0.2094    0.0000 H   0  0  0  0  0  0  0  0  0  0  0  0
  1  2  2  0  0  0  0
  1  6  1  0  0  0  0
  1  7  1  0  0  0  0
  2  3  1  0  0  0  0
  3  4  2  0  0  0  0
  3  8  1  0  0  0  0
  4  5  1  0  0  0  0
  5  6  2  0  0  0  0
  5  9  1  0  0  0  0
  6 15  1  0  0  0  0
  7 29  1  0  0  0  0
  7 30  1  0  0  0  0
  8 31  1  0  0  0  0
  8 32  1  0  0  0  0
  9 28  1  0  0  0  0
  9 33  1  0  0  0  0
  9 34  1  0  0  0  0
 10 11  1  0  0  0  0
 10 15  2  0  0  0  0
 10 35  1  0  0  0  0
 11 12  2  0  0  0  0
 11 36  1  0  0  0  0
 12 13  1  0  0  0  0
 12 16  1  0  0  0  0
 13 14  2  0  0  0  0
 13 19  1  0  0  0  0
 14 15  1  0  0  0  0
 14 37  1  0  0  0  0
 16 17  1  0  0  0  0
 17 18  1  0  0  0  0
 17 25  1  0  0  0  0
 17 26  1  0  0  0  0
 18 19  1  0  0  0  0
 18 27  2  0  0  0  0
 19 20  1  0  0  0  0
 20 21  1  0  0  0  0
 20 38  1  0  0  0  0
 20 39  1  0  0  0  0
 21 22  1  0  0  0  0
 21 40  1  0  0  0  0
 21 41  1  0  0  0  0
 22 23  1  0  0  0  0
 22 42  1  0  0  0  0
 22 43  1  0  0  0  0
 23 24  1  0  0  0  0
 24 44  1  0  0  0  0
 24 45  1  0  0  0  0
 24 46  1  0  0  0  0
 25 47  1  0  0  0  0
 25 48  1  0  0  0  0
 25 49  1  0  0  0  0
 26 50  1  0  0  0  0
 26 51  1  0  0  0  0
 26 52  1  0  0  0  0
 28 53  1  0  0  0  0
 28 54  1  0  0  0  0
 28 55  1  0  0  0  0
M  END
>  <DRUGBANK_ID>
DB07174

>  <COMMON_NAME>
6-(2,4-DIAMINO-6-ETHYLPYRIMIDIN-5-YL)-4-(3-METHOXYPROPYL)-2,2-DIMETHYL-2H-1,4-BENZOXAZIN-3(4H)-ONE

$$$$
