
 OpenBabel10282417072D

 50 54  0  0  0  0  0  0  0  0999 V2000
   -3.3597    0.6618    0.0000 N   0  0  0  0  0  0  0  0  0  0  0  0
   -3.7722    1.3762    0.0000 C   0  0  0  0  0  0  0  0  0  0  0  0
   -3.3597    2.0907    0.0000 C   0  0  0  0  0  0  0  0  0  0  0  0
   -2.5347    2.0907    0.0000 C   0  0  0  0  0  0  0  0  0  0  0  0
   -2.1222    1.3763    0.0000 C   0  0  2  0  0  0  0  0  0  0  0  0
   -2.5347    0.6618    0.0000 C   0  0  1  0  0  0  0  0  0  0  0  0
   -1.9827    0.0487    0.0000 C   0  0  0  0  0  0  0  0  0  0  0  0
   -1.3152    1.2047    0.0000 C   0  0  0  0  0  0  0  0  0  0  0  0
   -1.2290    0.3843    0.0000 N   0  0  0  0  0  0  0  0  0  0  0  0
   -0.5145   -0.0281    0.0000 C   0  0  0  0  0  0  0  0  0  0  0  0
    0.1998   -1.2656    0.0000 C   0  0  0  0  0  0  0  0  0  0  0  0
   -0.5145   -0.8531    0.0000 C   0  0  0  0  0  0  0  0  0  0  0  0
    0.1998    0.3843    0.0000 C   0  0  0  0  0  0  0  0  0  0  0  0
    0.9143   -0.0281    0.0000 C   0  0  0  0  0  0  0  0  0  0  0  0
    0.9143   -0.8531    0.0000 C   0  0  0  0  0  0  0  0  0  0  0  0
    2.3433   -0.8532    0.0000 C   0  0  0  0  0  0  0  0  0  0  0  0
    1.6288   -1.2656    0.0000 C   0  0  0  0  0  0  0  0  0  0  0  0
    1.6288    0.3843    0.0000 N   0  0  0  0  0  0  0  0  0  0  0  0
    2.3433   -0.0282    0.0000 C   0  0  0  0  0  0  0  0  0  0  0  0
   -1.2290   -1.2656    0.0000 F   0  0  0  0  0  0  0  0  0  0  0  0
    1.6288   -2.0906    0.0000 O   0  0  0  0  0  0  0  0  0  0  0  0
    3.0577   -1.2657    0.0000 C   0  0  0  0  0  0  0  0  0  0  0  0
    3.7722   -0.8532    0.0000 O   0  0  0  0  0  0  0  0  0  0  0  0
    3.0577   -2.0907    0.0000 O   0  0  0  0  0  0  0  0  0  0  0  0
    1.6288    1.2093    0.0000 C   0  0  0  0  0  0  0  0  0  0  0  0
    1.1690    1.8132    0.0000 C   0  0  0  0  0  0  0  0  0  0  0  0
    1.9322    1.8338    0.0000 C   0  0  0  0  0  0  0  0  0  0  0  0
    0.1998    1.2093    0.0000 C   0  0  0  0  0  0  0  0  0  0  0  0
    0.2125    1.8930    0.0000 N   0  0  0  0  0  0  0  0  0  0  0  0
   -2.9472   -0.0526    0.0000 H   0  0  0  0  0  0  0  0  0  0  0  0
   -1.7097    2.0907    0.0000 H   0  0  0  0  0  0  0  0  0  0  0  0
   -3.8697   -0.2216    0.0000 H   0  0  0  0  0  0  0  0  0  0  0  0
   -4.8422    1.3762    0.0000 H   0  0  0  0  0  0  0  0  0  0  0  0
   -4.3072    2.3028    0.0000 H   0  0  0  0  0  0  0  0  0  0  0  0
   -3.8947    3.0173    0.0000 H   0  0  0  0  0  0  0  0  0  0  0  0
   -2.8247    3.0173    0.0000 H   0  0  0  0  0  0  0  0  0  0  0  0
   -1.9997    3.0174    0.0000 H   0  0  0  0  0  0  0  0  0  0  0  0
   -1.4647    2.0907    0.0000 H   0  0  0  0  0  0  0  0  0  0  0  0
   -2.2052   -0.9979    0.0000 H   0  0  0  0  0  0  0  0  0  0  0  0
   -1.1511   -0.6247    0.0000 H   0  0  0  0  0  0  0  0  0  0  0  0
   -0.5200    1.9206    0.0000 H   0  0  0  0  0  0  0  0  0  0  0  0
   -0.3163    0.8212    0.0000 H   0  0  0  0  0  0  0  0  0  0  0  0
    0.1997   -2.2976    0.0000 H   0  0  0  0  0  0  0  0  0  0  0  0
    3.2370    0.4878    0.0000 H   0  0  0  0  0  0  0  0  0  0  0  0
    4.5837   -1.3217    0.0000 H   0  0  0  0  0  0  0  0  0  0  0  0
    1.5228    2.2740    0.0000 H   0  0  0  0  0  0  0  0  0  0  0  0
    0.2039    2.2753    0.0000 H   0  0  0  0  0  0  0  0  0  0  0  0
    1.3918    2.8597    0.0000 H   0  0  0  0  0  0  0  0  0  0  0  0
    2.8314    2.4137    0.0000 H   0  0  0  0  0  0  0  0  0  0  0  0
    2.7330    1.1241    0.0000 H   0  0  0  0  0  0  0  0  0  0  0  0
  1  2  1  0  0  0  0
  1  6  1  0  0  0  0
  1 32  1  0  0  0  0
  2  3  1  0  0  0  0
  2 33  1  0  0  0  0
  2 34  1  0  0  0  0
  3  4  1  0  0  0  0
  3 35  1  0  0  0  0
  3 36  1  0  0  0  0
  4  5  1  0  0  0  0
  4 37  1  0  0  0  0
  4 38  1  0  0  0  0
  5  8  1  0  0  0  0
  5 31  1  6  0  0  0
  6  5  1  0  0  0  0
  6 30  1  6  0  0  0
  7  6  1  0  0  0  0
  7  9  1  0  0  0  0
  7 39  1  0  0  0  0
  7 40  1  0  0  0  0
  8  9  1  0  0  0  0
  8 41  1  0  0  0  0
  8 42  1  0  0  0  0
  9 10  1  0  0  0  0
 10 13  1  0  0  0  0
 11 12  1  0  0  0  0
 11 15  2  0  0  0  0
 11 43  1  0  0  0  0
 12 10  2  0  0  0  0
 12 20  1  0  0  0  0
 13 14  2  0  0  0  0
 13 28  1  0  0  0  0
 14 18  1  0  0  0  0
 15 14  1  0  0  0  0
 16 17  1  0  0  0  0
 16 19  2  0  0  0  0
 16 22  1  0  0  0  0
 17 15  1  0  0  0  0
 17 21  2  0  0  0  0
 18 19  1  0  0  0  0
 18 25  1  0  0  0  0
 19 44  1  0  0  0  0
 22 23  1  0  0  0  0
 22 24  2  0  0  0  0
 23 45  1  0  0  0  0
 25 26  1  0  0  0  0
 25 27  1  0  0  0  0
 25 46  1  0  0  0  0
 26 27  1  0  0  0  0
 26 47  1  0  0  0  0
 26 48  1  0  0  0  0
 27 49  1  0  0  0  0
 27 50  1  0  0  0  0
 28 29  3  0  0  0  0
M  END
>  <DRUGBANK_ID>
DB11453

>  <COMMON_NAME>
Pradofloxacin

>  <CAS_NUMBER>
195532-12-8

>  <UNII>
6O0T5E048I

>  <SYNONYMS>
Pradofloxacin

$$$$
