
 OpenBabel10282417072D

 38 40  0  0  0  0  0  0  0  0999 V2000
   -0.1981    1.0476    0.0000 C   0  0  1  0  0  0  0  0  0  0  0  0
    0.5985    0.8661    0.0000 C   0  0  1  0  0  0  0  0  0  0  0  0
    0.9593    0.1129    0.0000 C   0  0  0  0  0  0  0  0  0  0  0  0
    0.6014   -0.6229    0.0000 C   0  0  0  0  0  0  0  0  0  0  0  0
   -0.1995   -0.8076    0.0000 N   0  0  0  0  0  0  0  0  0  0  0  0
   -0.8437   -0.2923    0.0000 C   0  0  0  0  0  0  0  0  0  0  0  0
   -0.8400    0.5336    0.0000 C   0  0  0  0  0  0  0  0  0  0  0  0
   -1.5531    0.9462    0.0000 C   0  0  0  0  0  0  0  0  0  0  0  0
   -2.2703    0.5343    0.0000 C   0  0  0  0  0  0  0  0  0  0  0  0
   -2.2700   -0.2946    0.0000 C   0  0  0  0  0  0  0  0  0  0  0  0
   -1.3772   -1.5127    0.0000 N   0  0  0  0  0  0  0  0  0  0  0  0
   -0.4896   -1.5752    0.0000 C   0  0  0  0  0  0  0  0  0  0  0  0
   -1.5548   -0.7076    0.0000 C   0  0  0  0  0  0  0  0  0  0  0  0
   -0.0447   -2.2700    0.0000 O   0  0  0  0  0  0  0  0  0  0  0  0
   -0.3826    1.8517    0.0000 O   0  0  0  0  0  0  0  0  0  0  0  0
    1.0219    1.5744    0.0000 N   0  0  0  0  0  0  0  0  0  0  0  0
    1.8470    1.5619    0.0000 C   0  0  0  0  0  0  0  0  0  0  0  0
    2.2703    2.2700    0.0000 C   0  0  0  0  0  0  0  0  0  0  0  0
    2.2486    0.8410    0.0000 C   0  0  0  0  0  0  0  0  0  0  0  0
   -1.2086    1.3994    0.0000 H   0  0  0  0  0  0  0  0  0  0  0  0
    1.6674    0.8169    0.0000 H   0  0  0  0  0  0  0  0  0  0  0  0
    2.0293    0.1097    0.0000 H   0  0  0  0  0  0  0  0  0  0  0  0
    1.5254   -0.7951    0.0000 H   0  0  0  0  0  0  0  0  0  0  0  0
    1.2678   -1.4600    0.0000 H   0  0  0  0  0  0  0  0  0  0  0  0
    1.6650   -0.5056    0.0000 H   0  0  0  0  0  0  0  0  0  0  0  0
   -1.5514    1.9782    0.0000 H   0  0  0  0  0  0  0  0  0  0  0  0
   -3.1635    1.0512    0.0000 H   0  0  0  0  0  0  0  0  0  0  0  0
   -3.1637   -0.8107    0.0000 H   0  0  0  0  0  0  0  0  0  0  0  0
   -2.0204   -2.2580    0.0000 H   0  0  0  0  0  0  0  0  0  0  0  0
    0.3277    2.5123    0.0000 H   0  0  0  0  0  0  0  0  0  0  0  0
    0.5254    2.4654    0.0000 H   0  0  0  0  0  0  0  0  0  0  0  0
    2.9169    1.5456    0.0000 H   0  0  0  0  0  0  0  0  0  0  0  0
    3.3402    2.2537    0.0000 H   0  0  0  0  0  0  0  0  0  0  0  0
    1.7494    3.2047    0.0000 H   0  0  0  0  0  0  0  0  0  0  0  0
    2.8193    3.1884    0.0000 H   0  0  0  0  0  0  0  0  0  0  0  0
    1.6995   -0.0773    0.0000 H   0  0  0  0  0  0  0  0  0  0  0  0
    3.3185    0.8246    0.0000 H   0  0  0  0  0  0  0  0  0  0  0  0
    2.7693   -0.0937    0.0000 H   0  0  0  0  0  0  0  0  0  0  0  0
  1 15  1  0  0  0  0
  1  7  1  0  0  0  0
  1  2  1  0  0  0  0
  1 20  1  6  0  0  0
  2  3  1  0  0  0  0
  2 16  1  0  0  0  0
  2 21  1  1  0  0  0
  3  4  1  0  0  0  0
  3 22  1  0  0  0  0
  3 23  1  0  0  0  0
  4  5  1  0  0  0  0
  4 24  1  0  0  0  0
  4 25  1  0  0  0  0
  5  6  1  0  0  0  0
  6  7  2  0  0  0  0
  7  8  1  0  0  0  0
  8  9  2  0  0  0  0
  8 26  1  0  0  0  0
  9 10  1  0  0  0  0
  9 27  1  0  0  0  0
 10 13  2  0  0  0  0
 10 28  1  0  0  0  0
 11 12  1  0  0  0  0
 11 29  1  0  0  0  0
 12  5  1  0  0  0  0
 12 14  2  0  0  0  0
 13  6  1  0  0  0  0
 13 11  1  0  0  0  0
 15 30  1  0  0  0  0
 16 17  1  0  0  0  0
 16 31  1  0  0  0  0
 17 18  1  0  0  0  0
 17 19  1  0  0  0  0
 17 32  1  0  0  0  0
 18 33  1  0  0  0  0
 18 34  1  0  0  0  0
 18 35  1  0  0  0  0
 19 36  1  0  0  0  0
 19 37  1  0  0  0  0
 19 38  1  0  0  0  0
M  END
>  <DRUGBANK_ID>
DB11479

>  <COMMON_NAME>
Zilpaterol

>  <CAS_NUMBER>
119520-05-7

>  <UNII>
S384A1Y12J

>  <SYNONYMS>
Zilpaterol

$$$$
