
 OpenBabel10282417072D

 24 23  0  0  0  0  0  0  0  0999 V2000
    0.0000    0.2062    0.0000 C   0  0  0  0  0  0  0  0  0  0  0  0
    0.0000    1.0312    0.0000 O   0  0  0  0  0  0  0  0  0  0  0  0
    0.7144   -0.2062    0.0000 O   0  0  0  0  0  0  0  0  0  0  0  0
   -0.7144   -0.2062    0.0000 N   0  0  0  0  0  0  0  0  0  0  0  0
   -1.4289    0.2062    0.0000 C   0  0  0  0  0  0  0  0  0  0  0  0
   -2.1433   -0.2062    0.0000 C   0  0  0  0  0  0  0  0  0  0  0  0
   -2.8578    0.2062    0.0000 C   0  0  0  0  0  0  0  0  0  0  0  0
   -3.5723   -0.2062    0.0000 C   0  0  0  0  0  0  0  0  0  0  0  0
    1.4289    0.2062    0.0000 C   0  0  0  0  0  0  0  0  0  0  0  0
    2.1433   -0.2062    0.0000 C   0  0  0  0  0  0  0  0  0  0  0  0
    2.8579   -0.6187    0.0000 C   0  0  0  0  0  0  0  0  0  0  0  0
    3.5723   -1.0312    0.0000 I   0  0  0  0  0  0  0  0  0  0  0  0
   -0.7144   -1.1907    0.0000 H   0  0  0  0  0  0  0  0  0  0  0  0
   -1.4289    1.2762    0.0000 H   0  0  0  0  0  0  0  0  0  0  0  0
   -2.3555    0.7412    0.0000 H   0  0  0  0  0  0  0  0  0  0  0  0
   -2.1433   -1.2762    0.0000 H   0  0  0  0  0  0  0  0  0  0  0  0
   -3.0699   -0.7413    0.0000 H   0  0  0  0  0  0  0  0  0  0  0  0
   -2.8578    1.2762    0.0000 H   0  0  0  0  0  0  0  0  0  0  0  0
   -3.7844    0.7413    0.0000 H   0  0  0  0  0  0  0  0  0  0  0  0
   -4.4989    0.3289    0.0000 H   0  0  0  0  0  0  0  0  0  0  0  0
   -3.5724   -1.2762    0.0000 H   0  0  0  0  0  0  0  0  0  0  0  0
   -4.4990   -0.7411    0.0000 H   0  0  0  0  0  0  0  0  0  0  0  0
    1.4289    1.2762    0.0000 H   0  0  0  0  0  0  0  0  0  0  0  0
    2.3555    0.7412    0.0000 H   0  0  0  0  0  0  0  0  0  0  0  0
  2  1  2  0  0  0  0
  3  1  1  0  0  0  0
  4  1  1  0  0  0  0
  4 13  1  0  0  0  0
  5  4  1  0  0  0  0
  5 14  1  0  0  0  0
  5 15  1  0  0  0  0
  6  5  1  0  0  0  0
  6 16  1  0  0  0  0
  6 17  1  0  0  0  0
  7  6  1  0  0  0  0
  7 18  1  0  0  0  0
  7 19  1  0  0  0  0
  8  7  1  0  0  0  0
  8 20  1  0  0  0  0
  8 21  1  0  0  0  0
  8 22  1  0  0  0  0
  9  3  1  0  0  0  0
  9 23  1  0  0  0  0
  9 24  1  0  0  0  0
 10  9  1  0  0  0  0
 11 10  3  0  0  0  0
 12 11  1  0  0  0  0
M  END
>  <DRUGBANK_ID>
DB15666

>  <COMMON_NAME>
Iodopropynyl butylcarbamate

>  <CAS_NUMBER>
55406-53-6

>  <UNII>
603P14DHEB

>  <SYNONYMS>
3-iodo-2-propyn-1-yl N-butylcarbamate; 3-iodo-2-propynyl butylcarbamate; 3-iodoprop-2-yn-1-yl butylcarbamate; 3-iodoprop-2-ynyl butylcarbamate; butyl-3-iodo-2-propynylcarbamate; Iodocarbe; Iodopropynyl butyl carbamate; IPBC

$$$$
