1600
 OpenBabel10282417072D

 30 31  0  0  1  0  0  0  0  0999 V2000
    3.1652    0.9447    0.0000 S   0  0  0  0  0  0  0  0  0  0  0  0
    5.4638    2.7098    0.0000 O   0  0  0  0  0  0  0  0  0  0  0  0
    1.6500    0.1242    0.0000 O   0  0  0  0  0  0  0  0  0  0  0  0
    5.6132    1.2888    0.0000 O   0  0  0  0  0  0  0  0  0  0  0  0
    4.3078    1.8699    0.0000 C   0  0  3  0  0  0  0  0  0  0  0  0
    3.9722    1.1162    0.0000 C   0  0  0  0  0  0  0  0  0  0  0  0
    3.0790    0.1242    0.0000 C   0  0  0  0  0  0  0  0  0  0  0  0
    4.3847    0.4018    0.0000 C   0  0  0  0  0  0  0  0  0  0  0  0
    3.8229    2.5374    0.0000 C   0  0  0  0  0  0  0  0  0  0  0  0
    3.8327   -0.2114    0.0000 C   0  0  0  0  0  0  0  0  0  0  0  0
    2.3645   -0.2883    0.0000 C   0  0  0  0  0  0  0  0  0  0  0  0
    5.1283    1.9562    0.0000 C   0  0  0  0  0  0  0  0  0  0  0  0
    2.3645   -1.1133    0.0000 C   0  0  0  0  0  0  0  0  0  0  0  0
    3.0790   -1.5258    0.0000 C   0  0  0  0  0  0  0  0  0  0  0  0
    1.6500   -1.5258    0.0000 C   0  0  0  0  0  0  0  0  0  0  0  0
    3.0790   -2.3508    0.0000 C   0  0  0  0  0  0  0  0  0  0  0  0
    1.6500   -2.3508    0.0000 C   0  0  0  0  0  0  0  0  0  0  0  0
    2.3645   -2.7633    0.0000 C   0  0  0  0  0  0  0  0  0  0  0  0
    6.3957    2.8078    0.0000 H   0  0  0  0  0  0  0  0  0  0  0  0
    3.2437    1.7581    0.0000 H   0  0  0  0  0  0  0  0  0  0  0  0
    5.4111    0.2940    0.0000 H   0  0  0  0  0  0  0  0  0  0  0  0
    4.2582    3.5149    0.0000 H   0  0  0  0  0  0  0  0  0  0  0  0
    2.7588    2.4256    0.0000 H   0  0  0  0  0  0  0  0  0  0  0  0
    3.1940    3.4031    0.0000 H   0  0  0  0  0  0  0  0  0  0  0  0
    4.0473   -1.2208    0.0000 H   0  0  0  0  0  0  0  0  0  0  0  0
    3.9727   -1.0098    0.0000 H   0  0  0  0  0  0  0  0  0  0  0  0
    0.7563   -1.0098    0.0000 H   0  0  0  0  0  0  0  0  0  0  0  0
    3.9727   -2.8668    0.0000 H   0  0  0  0  0  0  0  0  0  0  0  0
    0.7563   -2.8668    0.0000 H   0  0  0  0  0  0  0  0  0  0  0  0
    2.3645   -3.7953    0.0000 H   0  0  0  0  0  0  0  0  0  0  0  0
  1  6  1  0  0  0  0
  1  7  1  0  0  0  0
  2 12  1  0  0  0  0
  2 19  1  0  0  0  0
  3 11  2  0  0  0  0
  4 12  2  0  0  0  0
  5  6  1  0  0  0  0
  5  9  1  0  0  0  0
  5 12  1  0  0  0  0
  5 20  1  0  0  0  0
  6  8  2  0  0  0  0
  7 10  2  0  0  0  0
  7 11  1  0  0  0  0
  8 10  1  0  0  0  0
  8 21  1  0  0  0  0
  9 22  1  0  0  0  0
  9 23  1  0  0  0  0
  9 24  1  0  0  0  0
 10 25  1  0  0  0  0
 11 13  1  0  0  0  0
 13 14  2  0  0  0  0
 13 15  1  0  0  0  0
 14 16  1  0  0  0  0
 14 26  1  0  0  0  0
 15 17  2  0  0  0  0
 15 27  1  0  0  0  0
 16 18  2  0  0  0  0
 16 28  1  0  0  0  0
 17 18  1  0  0  0  0
 17 29  1  0  0  0  0
 18 30  1  0  0  0  0
M  END
>  <DRUGBANK_ID>
DB01600

>  <COMMON_NAME>
Tiaprofenic acid

>  <CAS_NUMBER>
33005-95-7

>  <UNII>
1LS1T6R34C

>  <SYNONYMS>
2-(5-Benzoyl-thiophen-2-yl)-propionic acid; 2-(5-Benzyl-2-thienyl)propionsäure; 5-benzoyl-α-methyl-2-thiopheneacetic acid; 5-benzoyl-α-methylthiophene-2-acetic acid; Acide tiaprofenique; Acido tiaprofenico; Acidum tiaprofenicum; Tiaprofenic acid; Tiaprofensäure; α-methyl-5-benzoyl-2-thienylacetic acid

$$$$
