
 OpenBabel10282417072D

 33 34  0  0  0  0  0  0  0  0999 V2000
   -0.5317   -1.1682    0.0000 O   0  0  0  0  0  0  0  0  0  0  0  0
    1.5846   -1.4195    0.0000 O   0  0  0  0  0  0  0  0  0  0  0  0
    1.0293   -2.6192    0.0000 O   0  0  0  0  0  0  0  0  0  0  0  0
   -1.5846   -2.5353    0.0000 O   0  0  0  0  0  0  0  0  0  0  0  0
   -1.2965    0.1414    0.0000 O   0  0  0  0  0  0  0  0  0  0  0  0
    0.1335    0.1414    0.0000 N   0  0  0  0  0  0  0  0  0  0  0  0
   -0.5787    1.3829    0.0000 N   0  0  0  0  0  0  0  0  0  0  0  0
    0.1335    2.6192    0.0000 N   0  0  0  0  0  0  0  0  0  0  0  0
    0.7988   -1.1682    0.0000 C   0  0  2  0  0  0  0  0  0  0  0  0
    0.5473   -1.9539    0.0000 C   0  0  1  0  0  0  0  0  0  0  0  0
    0.1335   -0.6810    0.0000 C   0  0  1  0  0  0  0  0  0  0  0  0
   -0.2802   -1.9539    0.0000 C   0  0  1  0  0  0  0  0  0  0  0  0
    1.2860   -0.4976    0.0000 C   0  0  0  0  0  0  0  0  0  0  0  0
   -0.7621   -2.6192    0.0000 C   0  0  0  0  0  0  0  0  0  0  0  0
    0.8460    0.5552    0.0000 C   0  0  0  0  0  0  0  0  0  0  0  0
   -0.5787    0.5552    0.0000 C   0  0  0  0  0  0  0  0  0  0  0  0
    0.8460    1.3829    0.0000 C   0  0  0  0  0  0  0  0  0  0  0  0
    0.1335    1.7916    0.0000 C   0  0  0  0  0  0  0  0  0  0  0  0
    1.7907   -2.3674    0.0000 H   0  0  0  0  0  0  0  0  0  0  0  0
    0.6336   -3.5048    0.0000 H   0  0  0  0  0  0  0  0  0  0  0  0
   -1.9818   -1.6504    0.0000 H   0  0  0  0  0  0  0  0  0  0  0  0
    0.9861    3.1115    0.0000 H   0  0  0  0  0  0  0  0  0  0  0  0
   -0.7191    3.1115    0.0000 H   0  0  0  0  0  0  0  0  0  0  0  0
    1.6039   -1.7849    0.0000 H   0  0  0  0  0  0  0  0  0  0  0  0
   -0.8208   -0.1971    0.0000 H   0  0  0  0  0  0  0  0  0  0  0  0
   -1.3368   -1.7850    0.0000 H   0  0  0  0  0  0  0  0  0  0  0  0
    2.3501   -0.6094    0.0000 H   0  0  0  0  0  0  0  0  0  0  0  0
    0.8508    0.4799    0.0000 H   0  0  0  0  0  0  0  0  0  0  0  0
    1.9149    0.3681    0.0000 H   0  0  0  0  0  0  0  0  0  0  0  0
   -0.3247   -3.5957    0.0000 H   0  0  0  0  0  0  0  0  0  0  0  0
    0.3022   -2.7291    0.0000 H   0  0  0  0  0  0  0  0  0  0  0  0
    1.7404    0.0403    0.0000 H   0  0  0  0  0  0  0  0  0  0  0  0
    1.7390    1.9002    0.0000 H   0  0  0  0  0  0  0  0  0  0  0  0
  1 11  1  0  0  0  0
  1 12  1  0  0  0  0
  2 19  1  0  0  0  0
  3 20  1  0  0  0  0
  4 14  1  0  0  0  0
  4 21  1  0  0  0  0
  5 16  2  0  0  0  0
  6 15  1  0  0  0  0
  6 16  1  0  0  0  0
  7 16  1  0  0  0  0
  7 18  2  0  0  0  0
  8 18  1  0  0  0  0
  8 22  1  0  0  0  0
  8 23  1  0  0  0  0
  9  2  1  6  0  0  0
  9 10  1  0  0  0  0
  9 11  1  0  0  0  0
  9 13  1  0  0  0  0
 10  3  1  0  0  0  0
 10 12  1  0  0  0  0
 10 24  1  1  0  0  0
 11  6  1  0  0  0  0
 11 25  1  6  0  0  0
 12 14  1  0  0  0  0
 12 26  1  6  0  0  0
 13 27  1  0  0  0  0
 13 28  1  0  0  0  0
 13 29  1  0  0  0  0
 14 30  1  0  0  0  0
 14 31  1  0  0  0  0
 15 17  2  0  0  0  0
 15 32  1  0  0  0  0
 17 18  1  0  0  0  0
 17 33  1  0  0  0  0
M  END
>  <DRUGBANK_ID>
DB13921

>  <COMMON_NAME>
2'-C-methylcytidine

>  <CAS_NUMBER>
20724-73-6

>  <UNII>
27FS20C1D8

>  <SYNONYMS>
2'-C-Mecytosin; 2'C-Me-C

$$$$
