
 OpenBabel10282417072D

 83 87  0  0  1  0  0  0  0  0999 V2000
   -2.1594  -13.9660    0.0000 C   0  0  0  0  0  0  0  0  0  0  0  0
   -1.4450  -13.5535    0.0000 C   0  0  1  0  0  0  0  0  0  0  0  0
   -0.7305  -13.9660    0.0000 C   0  0  0  0  0  0  0  0  0  0  0  0
   -0.7305  -14.7910    0.0000 O   0  0  0  0  0  0  0  0  0  0  0  0
   -0.0160  -13.5535    0.0000 N   0  0  0  0  0  0  0  0  0  0  0  0
    0.6985  -13.9660    0.0000 C   0  0  1  0  0  0  0  0  0  0  0  0
    0.6985  -14.7910    0.0000 C   0  0  0  0  0  0  0  0  0  0  0  0
    1.4129  -13.5535    0.0000 C   0  0  0  0  0  0  0  0  0  0  0  0
    1.4129  -12.7285    0.0000 O   0  0  0  0  0  0  0  0  0  0  0  0
    2.1274  -13.9660    0.0000 O   0  0  0  0  0  0  0  0  0  0  0  0
    2.8419  -13.5535    0.0000 C   0  0  0  0  0  0  0  0  0  0  0  0
    3.5563  -13.9660    0.0000 C   0  0  0  0  0  0  0  0  0  0  0  0
    4.2708  -13.5535    0.0000 O   0  0  0  0  0  0  0  0  0  0  0  0
    4.9853  -13.9660    0.0000 C   0  0  0  0  0  0  0  0  0  0  0  0
    5.6998  -13.5535    0.0000 C   0  0  0  0  0  0  0  0  0  0  0  0
    6.4142  -13.9660    0.0000 C   0  0  0  0  0  0  0  0  0  0  0  0
    6.4142  -14.7910    0.0000 C   0  0  0  0  0  0  0  0  0  0  0  0
    5.6998  -15.2035    0.0000 C   0  0  0  0  0  0  0  0  0  0  0  0
    4.9853  -14.7910    0.0000 C   0  0  0  0  0  0  0  0  0  0  0  0
    7.1287  -15.2035    0.0000 C   0  0  0  0  0  0  0  0  0  0  0  0
    7.8432  -14.7910    0.0000 C   0  0  0  0  0  0  0  0  0  0  0  0
    8.5576  -15.2035    0.0000 C   0  0  0  0  0  0  0  0  0  0  0  0
    8.5576  -16.0285    0.0000 N   0  0  0  0  0  0  0  0  0  0  0  0
    7.8432  -16.4410    0.0000 C   0  0  0  0  0  0  0  0  0  0  0  0
    7.1287  -16.0285    0.0000 C   0  0  0  0  0  0  0  0  0  0  0  0
    6.4142  -16.4410    0.0000 C   0  0  0  0  0  0  0  0  0  0  0  0
    5.6998  -16.8535    0.0000 N   0  0  0  0  0  0  0  0  0  0  0  0
    7.8432  -17.2660    0.0000 S   0  0  0  0  0  0  0  0  0  0  0  0
    8.5576  -17.6785    0.0000 C   0  0  0  0  0  0  0  0  0  0  0  0
    9.2721  -17.2660    0.0000 C   0  0  0  0  0  0  0  0  0  0  0  0
    9.3583  -16.4455    0.0000 C   0  0  0  0  0  0  0  0  0  0  0  0
   10.1653  -16.2740    0.0000 S   0  0  0  0  0  0  0  0  0  0  0  0
   10.5778  -16.9884    0.0000 C   0  0  0  0  0  0  0  0  0  0  0  0
   10.0258  -17.6015    0.0000 N   0  0  0  0  0  0  0  0  0  0  0  0
   11.3983  -17.0747    0.0000 C   0  0  0  0  0  0  0  0  0  0  0  0
   11.8832  -16.4072    0.0000 C   0  0  0  0  0  0  0  0  0  0  0  0
   12.7037  -16.4935    0.0000 C   0  0  0  0  0  0  0  0  0  0  0  0
   13.0393  -17.2471    0.0000 C   0  0  0  0  0  0  0  0  0  0  0  0
   12.5543  -17.9146    0.0000 C   0  0  0  0  0  0  0  0  0  0  0  0
   11.7339  -17.8283    0.0000 C   0  0  0  0  0  0  0  0  0  0  0  0
   13.8597  -17.3334    0.0000 Cl  0  0  0  0  0  0  0  0  0  0  0  0
    9.2721  -14.7910    0.0000 N   0  0  0  0  0  0  0  0  0  0  0  0
    9.3583  -13.9705    0.0000 C   0  0  0  0  0  0  0  0  0  0  0  0
   10.1653  -13.7990    0.0000 C   0  0  0  0  0  0  0  0  0  0  0  0
   10.5778  -14.5134    0.0000 C   0  0  0  0  0  0  0  0  0  0  0  0
   10.0258  -15.1265    0.0000 C   0  0  0  0  0  0  0  0  0  0  0  0
    7.8432  -13.9660    0.0000 C   0  0  0  0  0  0  0  0  0  0  0  0
    7.8432  -13.1410    0.0000 N   0  0  0  0  0  0  0  0  0  0  0  0
   -1.4450  -12.7285    0.0000 N   0  0  0  0  0  0  0  0  0  0  0  0
   -3.0861  -13.4310    0.0000 H   0  0  0  0  0  0  0  0  0  0  0  0
   -2.1594  -15.0360    0.0000 H   0  0  0  0  0  0  0  0  0  0  0  0
   -3.0860  -14.5010    0.0000 H   0  0  0  0  0  0  0  0  0  0  0  0
   -2.3717  -13.0185    0.0000 H   0  0  0  0  0  0  0  0  0  0  0  0
   -0.0160  -12.5690    0.0000 H   0  0  0  0  0  0  0  0  0  0  0  0
   -0.2281  -14.5010    0.0000 H   0  0  0  0  0  0  0  0  0  0  0  0
   -0.2281  -15.3260    0.0000 H   0  0  0  0  0  0  0  0  0  0  0  0
    1.6251  -15.3260    0.0000 H   0  0  0  0  0  0  0  0  0  0  0  0
    0.6985  -15.8610    0.0000 H   0  0  0  0  0  0  0  0  0  0  0  0
    2.8419  -12.4835    0.0000 H   0  0  0  0  0  0  0  0  0  0  0  0
    3.7686  -13.0185    0.0000 H   0  0  0  0  0  0  0  0  0  0  0  0
    3.5563  -15.0360    0.0000 H   0  0  0  0  0  0  0  0  0  0  0  0
    4.4829  -14.5010    0.0000 H   0  0  0  0  0  0  0  0  0  0  0  0
    5.6998  -12.5215    0.0000 H   0  0  0  0  0  0  0  0  0  0  0  0
    7.3079  -13.4500    0.0000 H   0  0  0  0  0  0  0  0  0  0  0  0
    5.6998  -16.2355    0.0000 H   0  0  0  0  0  0  0  0  0  0  0  0
    4.0916  -15.3070    0.0000 H   0  0  0  0  0  0  0  0  0  0  0  0
    8.5576  -18.7485    0.0000 H   0  0  0  0  0  0  0  0  0  0  0  0
    9.4842  -18.2135    0.0000 H   0  0  0  0  0  0  0  0  0  0  0  0
    8.5914  -15.7550    0.0000 H   0  0  0  0  0  0  0  0  0  0  0  0
   11.4635  -15.4644    0.0000 H   0  0  0  0  0  0  0  0  0  0  0  0
   13.3103  -15.6586    0.0000 H   0  0  0  0  0  0  0  0  0  0  0  0
   12.9740  -18.8574    0.0000 H   0  0  0  0  0  0  0  0  0  0  0  0
   11.1273  -18.6632    0.0000 H   0  0  0  0  0  0  0  0  0  0  0  0
    8.5631  -13.2545    0.0000 H   0  0  0  0  0  0  0  0  0  0  0  0
    9.6353  -12.9370    0.0000 H   0  0  0  0  0  0  0  0  0  0  0  0
   10.6005  -12.8215    0.0000 H   0  0  0  0  0  0  0  0  0  0  0  0
   11.2338  -13.7430    0.0000 H   0  0  0  0  0  0  0  0  0  0  0  0
   11.6419  -14.6252    0.0000 H   0  0  0  0  0  0  0  0  0  0  0  0
   10.9613  -15.5123    0.0000 H   0  0  0  0  0  0  0  0  0  0  0  0
   10.2483  -16.1731    0.0000 H   0  0  0  0  0  0  0  0  0  0  0  0
    9.1943  -15.7999    0.0000 H   0  0  0  0  0  0  0  0  0  0  0  0
   -0.5617  -12.2185    0.0000 H   0  0  0  0  0  0  0  0  0  0  0  0
   -2.3283  -12.2185    0.0000 H   0  0  0  0  0  0  0  0  0  0  0  0
  1  2  1  0  0  0  0
  1 50  1  0  0  0  0
  1 51  1  0  0  0  0
  1 52  1  0  0  0  0
  2  3  1  0  0  0  0
  2 49  1  0  0  0  0
  2 53  1  1  0  0  0
  3  4  2  0  0  0  0
  3  5  1  0  0  0  0
  5  6  1  0  0  0  0
  5 54  1  0  0  0  0
  6  7  1  0  0  0  0
  6  8  1  0  0  0  0
  6 55  1  1  0  0  0
  7 56  1  0  0  0  0
  7 57  1  0  0  0  0
  7 58  1  0  0  0  0
  8  9  2  0  0  0  0
  8 10  1  0  0  0  0
 10 11  1  0  0  0  0
 11 12  1  0  0  0  0
 11 59  1  0  0  0  0
 11 60  1  0  0  0  0
 12 13  1  0  0  0  0
 12 61  1  0  0  0  0
 12 62  1  0  0  0  0
 13 14  1  0  0  0  0
 14 15  2  0  0  0  0
 14 19  1  0  0  0  0
 15 16  1  0  0  0  0
 15 63  1  0  0  0  0
 16 17  2  0  0  0  0
 16 64  1  0  0  0  0
 17 18  1  0  0  0  0
 17 20  1  0  0  0  0
 18 19  2  0  0  0  0
 18 65  1  0  0  0  0
 19 66  1  0  0  0  0
 20 21  2  0  0  0  0
 20 25  1  0  0  0  0
 21 22  1  0  0  0  0
 21 47  1  0  0  0  0
 22 23  2  0  0  0  0
 22 42  1  0  0  0  0
 23 24  1  0  0  0  0
 24 25  2  0  0  0  0
 24 28  1  0  0  0  0
 25 26  1  0  0  0  0
 26 27  3  0  0  0  0
 28 29  1  0  0  0  0
 29 30  1  0  0  0  0
 29 67  1  0  0  0  0
 29 68  1  0  0  0  0
 30 31  2  0  0  0  0
 30 34  1  0  0  0  0
 31 32  1  0  0  0  0
 31 69  1  0  0  0  0
 32 33  1  0  0  0  0
 33 34  2  0  0  0  0
 33 35  1  0  0  0  0
 35 36  2  0  0  0  0
 35 40  1  0  0  0  0
 36 37  1  0  0  0  0
 36 70  1  0  0  0  0
 37 38  2  0  0  0  0
 37 71  1  0  0  0  0
 38 39  1  0  0  0  0
 38 41  1  0  0  0  0
 39 40  2  0  0  0  0
 39 72  1  0  0  0  0
 40 73  1  0  0  0  0
 42 43  1  0  0  0  0
 42 46  1  0  0  0  0
 43 44  1  0  0  0  0
 43 74  1  0  0  0  0
 43 75  1  0  0  0  0
 44 45  1  0  0  0  0
 44 76  1  0  0  0  0
 44 77  1  0  0  0  0
 45 46  1  0  0  0  0
 45 78  1  0  0  0  0
 45 79  1  0  0  0  0
 46 80  1  0  0  0  0
 46 81  1  0  0  0  0
 47 48  3  0  0  0  0
 49 82  1  0  0  0  0
 49 83  1  0  0  0  0
M  END
>  <DRUGBANK_ID>
DB13138

>  <COMMON_NAME>
Neladenoson bialanate

>  <CAS_NUMBER>
1239309-58-0

>  <UNII>
IV690462VZ

>  <SYNONYMS>
Neladenoson bialanate

$$$$
