
 OpenBabel10282417072D

 64 66  0  0  0  0  0  0  0  0999 V2000
   -0.7145    0.2062    0.0000 O   0  0  0  0  0  0  0  0  0  0  0  0
   -3.5724    1.0312    0.0000 O   0  0  0  0  0  0  0  0  0  0  0  0
   -3.5724    2.6813    0.0000 O   0  0  0  0  0  0  0  0  0  0  0  0
    0.7145   -1.4437    0.0000 O   0  0  0  0  0  0  0  0  0  0  0  0
    0.0000   -0.2062    0.0000 O   0  0  0  0  0  0  0  0  0  0  0  0
   -2.1434    0.2062    0.0000 N   0  0  0  0  0  0  0  0  0  0  0  0
   -0.7145   -1.4437    0.0000 N   0  0  0  0  0  0  0  0  0  0  0  0
    3.5724   -1.4437    0.0000 N   0  0  0  0  0  0  0  0  0  0  0  0
   -2.1434    1.0312    0.0000 C   0  0  1  0  0  0  0  0  0  0  0  0
   -1.4289    1.4437    0.0000 C   0  0  0  0  0  0  0  0  0  0  0  0
   -1.4289   -1.0312    0.0000 C   0  0  1  0  0  0  0  0  0  0  0  0
   -1.4289    2.2687    0.0000 C   0  0  0  0  0  0  0  0  0  0  0  0
   -2.1434   -1.4437    0.0000 C   0  0  0  0  0  0  0  0  0  0  0  0
   -1.4289   -0.2062    0.0000 C   0  0  0  0  0  0  0  0  0  0  0  0
   -2.8579    1.4437    0.0000 C   0  0  0  0  0  0  0  0  0  0  0  0
   -0.7145    2.6813    0.0000 C   0  0  0  0  0  0  0  0  0  0  0  0
   -2.1434   -2.2687    0.0000 C   0  0  0  0  0  0  0  0  0  0  0  0
   -2.8579    2.2687    0.0000 C   0  0  0  0  0  0  0  0  0  0  0  0
    0.0000    2.2687    0.0000 C   0  0  0  0  0  0  0  0  0  0  0  0
   -0.7145    3.5063    0.0000 C   0  0  0  0  0  0  0  0  0  0  0  0
   -1.4289   -2.6813    0.0000 C   0  0  0  0  0  0  0  0  0  0  0  0
   -2.8579   -2.6813    0.0000 C   0  0  0  0  0  0  0  0  0  0  0  0
    0.0000   -1.0312    0.0000 C   0  0  0  0  0  0  0  0  0  0  0  0
    0.7145    2.6813    0.0000 C   0  0  0  0  0  0  0  0  0  0  0  0
    0.0000    3.9188    0.0000 C   0  0  0  0  0  0  0  0  0  0  0  0
   -1.4289   -3.5063    0.0000 C   0  0  0  0  0  0  0  0  0  0  0  0
   -2.8579   -3.5063    0.0000 C   0  0  0  0  0  0  0  0  0  0  0  0
    0.7145    3.5063    0.0000 C   0  0  0  0  0  0  0  0  0  0  0  0
   -2.1434   -3.9188    0.0000 C   0  0  0  0  0  0  0  0  0  0  0  0
    1.4289   -1.0312    0.0000 C   0  0  0  0  0  0  0  0  0  0  0  0
    2.1434   -1.4437    0.0000 C   0  0  0  0  0  0  0  0  0  0  0  0
    2.1434   -2.2687    0.0000 C   0  0  0  0  0  0  0  0  0  0  0  0
    2.8579   -1.0312    0.0000 C   0  0  0  0  0  0  0  0  0  0  0  0
    2.8579   -2.6813    0.0000 C   0  0  0  0  0  0  0  0  0  0  0  0
    3.5724   -2.2687    0.0000 C   0  0  0  0  0  0  0  0  0  0  0  0
   -2.5864   -0.0495    0.0000 H   0  0  0  0  0  0  0  0  0  0  0  0
   -0.7145   -1.9552    0.0000 H   0  0  0  0  0  0  0  0  0  0  0  0
   -3.5723    3.6513    0.0000 H   0  0  0  0  0  0  0  0  0  0  0  0
   -1.2168    0.4962    0.0000 H   0  0  0  0  0  0  0  0  0  0  0  0
   -0.5023    0.9087    0.0000 H   0  0  0  0  0  0  0  0  0  0  0  0
   -0.5023    1.9787    0.0000 H   0  0  0  0  0  0  0  0  0  0  0  0
   -1.4289   -2.1012    0.0000 H   0  0  0  0  0  0  0  0  0  0  0  0
   -2.3556    2.8036    0.0000 H   0  0  0  0  0  0  0  0  0  0  0  0
   -1.4290    3.3387    0.0000 H   0  0  0  0  0  0  0  0  0  0  0  0
   -3.0700   -0.9087    0.0000 H   0  0  0  0  0  0  0  0  0  0  0  0
   -3.0700   -1.9787    0.0000 H   0  0  0  0  0  0  0  0  0  0  0  0
   -1.9312    2.8037    0.0000 H   0  0  0  0  0  0  0  0  0  0  0  0
   -1.9313    1.7337    0.0000 H   0  0  0  0  0  0  0  0  0  0  0  0
    0.0000    1.2367    0.0000 H   0  0  0  0  0  0  0  0  0  0  0  0
   -1.6082    4.0223    0.0000 H   0  0  0  0  0  0  0  0  0  0  0  0
   -0.5351   -2.1653    0.0000 H   0  0  0  0  0  0  0  0  0  0  0  0
   -3.7517   -2.1653    0.0000 H   0  0  0  0  0  0  0  0  0  0  0  0
    1.6083    2.1653    0.0000 H   0  0  0  0  0  0  0  0  0  0  0  0
    0.0000    4.9508    0.0000 H   0  0  0  0  0  0  0  0  0  0  0  0
   -0.5352   -4.0223    0.0000 H   0  0  0  0  0  0  0  0  0  0  0  0
   -3.7516   -4.0223    0.0000 H   0  0  0  0  0  0  0  0  0  0  0  0
    1.6082    4.0223    0.0000 H   0  0  0  0  0  0  0  0  0  0  0  0
   -2.1434   -4.9508    0.0000 H   0  0  0  0  0  0  0  0  0  0  0  0
    1.4289    0.0388    0.0000 H   0  0  0  0  0  0  0  0  0  0  0  0
    2.3555   -0.4962    0.0000 H   0  0  0  0  0  0  0  0  0  0  0  0
    1.2496   -2.7847    0.0000 H   0  0  0  0  0  0  0  0  0  0  0  0
    2.8579    0.0008    0.0000 H   0  0  0  0  0  0  0  0  0  0  0  0
    2.8579   -3.7133    0.0000 H   0  0  0  0  0  0  0  0  0  0  0  0
    4.4662   -2.7847    0.0000 H   0  0  0  0  0  0  0  0  0  0  0  0
  1 14  2  0  0  0  0
  2 15  2  0  0  0  0
  3 18  1  0  0  0  0
  3 38  1  0  0  0  0
  4 23  1  0  0  0  0
  4 30  1  0  0  0  0
  5 23  2  0  0  0  0
  6 14  1  0  0  0  0
  6 36  1  0  0  0  0
  7 23  1  0  0  0  0
  7 37  1  0  0  0  0
  8 33  1  0  0  0  0
  8 35  2  0  0  0  0
  9  6  1  0  0  0  0
  9 10  1  0  0  0  0
  9 15  1  0  0  0  0
  9 39  1  1  0  0  0
 10 12  1  0  0  0  0
 10 40  1  0  0  0  0
 10 41  1  0  0  0  0
 11  7  1  0  0  0  0
 11 13  1  0  0  0  0
 11 14  1  0  0  0  0
 11 42  1  6  0  0  0
 12 16  1  0  0  0  0
 12 43  1  0  0  0  0
 12 44  1  0  0  0  0
 13 17  1  0  0  0  0
 13 45  1  0  0  0  0
 13 46  1  0  0  0  0
 15 18  1  0  0  0  0
 16 19  2  0  0  0  0
 16 20  1  0  0  0  0
 17 21  2  0  0  0  0
 17 22  1  0  0  0  0
 18 47  1  0  0  0  0
 18 48  1  0  0  0  0
 19 24  1  0  0  0  0
 19 49  1  0  0  0  0
 20 25  2  0  0  0  0
 20 50  1  0  0  0  0
 21 26  1  0  0  0  0
 21 51  1  0  0  0  0
 22 27  2  0  0  0  0
 22 52  1  0  0  0  0
 24 28  2  0  0  0  0
 24 53  1  0  0  0  0
 25 28  1  0  0  0  0
 25 54  1  0  0  0  0
 26 29  2  0  0  0  0
 26 55  1  0  0  0  0
 27 29  1  0  0  0  0
 27 56  1  0  0  0  0
 28 57  1  0  0  0  0
 29 58  1  0  0  0  0
 30 31  1  0  0  0  0
 30 59  1  0  0  0  0
 30 60  1  0  0  0  0
 31 32  1  0  0  0  0
 31 33  2  0  0  0  0
 32 34  2  0  0  0  0
 32 61  1  0  0  0  0
 33 62  1  0  0  0  0
 34 35  1  0  0  0  0
 34 63  1  0  0  0  0
 35 64  1  0  0  0  0
M  END
>  <DRUGBANK_ID>
DB02128

>  <SECONDARY_ACCESSION_NUMBERS>
EXPT02467

>  <COMMON_NAME>
[1-(3-hydroxy-2-oxo-1-phenethyl-propylcarbamoyl)2-phenyl-ethyl]-carbamic acid pyridin-4-ylmethyl ester

>  <SYNONYMS>
N-[(3S)-1-hydroxy-2-oxo-5-phenyl-3-pentanyl]-NÎ±-[(3-pyridinylmethoxy)carbonyl]-L-phenylalaninamide

$$$$
