F9F
 OpenBabel10282417072D

 33 33  0  0  0  0  0  0  0  0999 V2000
   -2.2914   -0.8599    0.0000 C   0  0  0  0  0  0  0  0  0  0  0  0
   -2.2914   -0.0349    0.0000 C   0  0  0  0  0  0  0  0  0  0  0  0
   -1.5770    0.3776    0.0000 C   0  0  0  0  0  0  0  0  0  0  0  0
   -0.8625   -0.0349    0.0000 C   0  0  0  0  0  0  0  0  0  0  0  0
   -0.8625   -0.8599    0.0000 C   0  0  0  0  0  0  0  0  0  0  0  0
   -1.5770   -1.2724    0.0000 C   0  0  0  0  0  0  0  0  0  0  0  0
   -3.0059   -1.2724    0.0000 O   0  0  0  0  0  0  0  0  0  0  0  0
   -3.0059   -2.0974    0.0000 C   0  0  0  0  0  0  0  0  0  0  0  0
   -3.0059   -2.9224    0.0000 F   0  0  0  0  0  0  0  0  0  0  0  0
   -2.1809   -2.0974    0.0000 F   0  0  0  0  0  0  0  0  0  0  0  0
   -3.8309   -2.0974    0.0000 F   0  0  0  0  0  0  0  0  0  0  0  0
   -0.1480    0.3776    0.0000 S   0  0  0  0  0  0  0  0  0  0  0  0
    0.5664    0.7901    0.0000 N   0  0  0  0  0  0  0  0  0  0  0  0
    1.2809    0.3776    0.0000 C   0  0  0  0  0  0  0  0  0  0  0  0
    1.9954    0.7901    0.0000 C   0  0  0  0  0  0  0  0  0  0  0  0
    2.7099    0.3776    0.0000 O   0  0  0  0  0  0  0  0  0  0  0  0
    3.4243    0.7901    0.0000 P   0  0  0  0  0  0  0  0  0  0  0  0
    4.1388    1.2026    0.0000 O   0  0  0  0  0  0  0  0  0  0  0  0
    3.8368    0.0757    0.0000 O   0  0  0  0  0  0  0  0  0  0  0  0
    3.0118    1.5046    0.0000 O   0  0  0  0  0  0  0  0  0  0  0  0
    0.2645   -0.3368    0.0000 O   0  0  0  0  0  0  0  0  0  0  0  0
   -0.5605    1.0921    0.0000 O   0  0  0  0  0  0  0  0  0  0  0  0
   -3.1851    0.4811    0.0000 H   0  0  0  0  0  0  0  0  0  0  0  0
   -1.5770    1.4096    0.0000 H   0  0  0  0  0  0  0  0  0  0  0  0
    0.0312   -1.3759    0.0000 H   0  0  0  0  0  0  0  0  0  0  0  0
   -1.5770   -2.3044    0.0000 H   0  0  0  0  0  0  0  0  0  0  0  0
    0.5664    1.8101    0.0000 H   0  0  0  0  0  0  0  0  0  0  0  0
    1.2809   -0.6924    0.0000 H   0  0  0  0  0  0  0  0  0  0  0  0
    2.2075   -0.1574    0.0000 H   0  0  0  0  0  0  0  0  0  0  0  0
    1.9954    1.8601    0.0000 H   0  0  0  0  0  0  0  0  0  0  0  0
    2.9220    1.3251    0.0000 H   0  0  0  0  0  0  0  0  0  0  0  0
    4.9788    0.7176    0.0000 H   0  0  0  0  0  0  0  0  0  0  0  0
    3.4968    2.3446    0.0000 H   0  0  0  0  0  0  0  0  0  0  0  0
  1  2  1  0  0  0  0
  1  6  2  0  0  0  0
  1  7  1  0  0  0  0
  2  3  2  0  0  0  0
  2 23  1  0  0  0  0
  3  4  1  0  0  0  0
  3 24  1  0  0  0  0
  4  5  2  0  0  0  0
  4 12  1  0  0  0  0
  5  6  1  0  0  0  0
  5 25  1  0  0  0  0
  6 26  1  0  0  0  0
  7  8  1  0  0  0  0
  8  9  1  0  0  0  0
  8 10  1  0  0  0  0
  8 11  1  0  0  0  0
 12 13  1  0  0  0  0
 12 21  2  0  0  0  0
 12 22  2  0  0  0  0
 13 14  1  0  0  0  0
 13 27  1  0  0  0  0
 14 15  1  0  0  0  0
 14 28  1  0  0  0  0
 14 29  1  0  0  0  0
 15 16  1  0  0  0  0
 15 30  1  0  0  0  0
 15 31  1  0  0  0  0
 16 17  1  0  0  0  0
 17 18  1  0  0  0  0
 17 19  2  0  0  0  0
 17 20  1  0  0  0  0
 18 32  1  0  0  0  0
 20 33  1  0  0  0  0
M  END
>  <DRUGBANK_ID>
DB07748

>  <COMMON_NAME>
2-({[4-(TRIFLUOROMETHOXY)PHENYL]SULFONYL}AMINO)ETHYL DIHYDROGEN PHOSPHATE

$$$$
