
 OpenBabel10282417072D

 13 12  0  0  0  0  0  0  0  0999 V2000
    0.0000   -0.2063    0.0000 C   0  0  0  0  0  0  0  0  0  0  0  0
    0.7145    0.2061    0.0000 C   0  0  0  0  0  0  0  0  0  0  0  0
   -0.7145    0.2061    0.0000 N   0  0  0  0  0  0  0  0  0  0  0  0
   -1.4291   -0.2063    0.0000 C   0  0  0  0  0  0  0  0  0  0  0  0
    0.7145    1.0313    0.0000 O   0  0  0  0  0  0  0  0  0  0  0  0
   -1.4291   -1.0313    0.0000 O   0  0  0  0  0  0  0  0  0  0  0  0
    1.4290   -0.2062    0.0000 O   0  0  0  0  0  0  0  0  0  0  0  0
   -0.7145    1.0313    0.0000 O   0  0  0  0  0  0  0  0  0  0  0  0
    0.0000   -1.2763    0.0000 H   0  0  0  0  0  0  0  0  0  0  0  0
   -0.9266   -0.7414    0.0000 H   0  0  0  0  0  0  0  0  0  0  0  0
   -2.3228    0.3098    0.0000 H   0  0  0  0  0  0  0  0  0  0  0  0
    1.4292   -1.1432    0.0000 H   0  0  0  0  0  0  0  0  0  0  0  0
    0.1255    1.5163    0.0000 H   0  0  0  0  0  0  0  0  0  0  0  0
  1  9  1  0  0  0  0
  1 10  1  0  0  0  0
  2  1  1  0  0  0  0
  3  1  1  0  0  0  0
  4  3  1  0  0  0  0
  4 11  1  0  0  0  0
  5  2  2  0  0  0  0
  6  4  2  0  0  0  0
  7  2  1  0  0  0  0
  7 12  1  0  0  0  0
  8  3  1  0  0  0  0
  8 13  1  0  0  0  0
M  END
>  <DRUGBANK_ID>
DB02109

>  <SECONDARY_ACCESSION_NUMBERS>
EXPT01711

>  <COMMON_NAME>
Hadacidin

>  <CAS_NUMBER>
689-13-4

>  <UNII>
BFO5P1010A

>  <SYNONYMS>
Hadacidine; N-formyl hydroxyaminoacetic acid; N-formyl-N- hydroxyaminoacetic acid; N-hydroxyformamidoacetic acid

$$$$
