
 OpenBabel10282417072D

 50 53  0  0  0  0  0  0  0  0999 V2000
   -2.0578   -0.1019    0.0000 C   0  0  0  0  0  0  0  0  0  0  0  0
   -2.0578   -0.9280    0.0000 C   0  0  0  0  0  0  0  0  0  0  0  0
   -1.3448   -1.3368    0.0000 C   0  0  0  0  0  0  0  0  0  0  0  0
   -1.3448    0.3152    0.0000 C   0  0  0  0  0  0  0  0  0  0  0  0
   -0.6319   -0.1019    0.0000 C   0  0  1  0  0  0  0  0  0  0  0  0
   -0.6309   -0.9280    0.0000 C   0  0  0  0  0  0  0  0  0  0  0  0
    0.0810   -1.3379    0.0000 C   0  0  0  0  0  0  0  0  0  0  0  0
    0.7963   -0.9262    0.0000 C   0  0  0  0  0  0  0  0  0  0  0  0
    0.0789    0.3142    0.0000 C   0  0  2  0  0  0  0  0  0  0  0  0
    0.7910   -0.1024    0.0000 C   0  0  2  0  0  0  0  0  0  0  0  0
    0.7989    1.5449    0.0000 C   0  0  0  0  0  0  0  0  0  0  0  0
    0.0797    1.1370    0.0000 C   0  0  0  0  0  0  0  0  0  0  0  0
    1.5109    1.1281    0.0000 C   0  0  1  0  0  0  0  0  0  0  0  0
    1.5074    0.3073    0.0000 C   0  0  1  0  0  0  0  0  0  0  0  0
    2.2871    0.0500    0.0000 C   0  0  0  0  0  0  0  0  0  0  0  0
    2.7725    0.7121    0.0000 C   0  0  0  0  0  0  0  0  0  0  0  0
    2.2929    1.3784    0.0000 C   0  0  2  0  0  0  0  0  0  0  0  0
   -1.3450   -2.1629    0.0000 O   0  0  0  0  0  0  0  0  0  0  0  0
   -2.7725   -1.3421    0.0000 O   0  0  0  0  0  0  0  0  0  0  0  0
   -0.6393    0.7240    0.0000 C   0  0  0  0  0  0  0  0  0  0  0  0
    0.7832    0.7240    0.0000 H   0  0  0  0  0  0  0  0  0  0  0  0
    0.0740   -0.5108    0.0000 H   0  0  0  0  0  0  0  0  0  0  0  0
    1.5007   -0.5149    0.0000 H   0  0  0  0  0  0  0  0  0  0  0  0
    1.5049    1.9547    0.0000 C   0  0  0  0  0  0  0  0  0  0  0  0
    2.5518    2.1629    0.0000 O   0  0  0  0  0  0  0  0  0  0  0  0
   -2.9860    0.4305    0.0000 H   0  0  0  0  0  0  0  0  0  0  0  0
   -2.0624    0.9681    0.0000 H   0  0  0  0  0  0  0  0  0  0  0  0
   -1.3448    1.3852    0.0000 H   0  0  0  0  0  0  0  0  0  0  0  0
   -0.4166    0.8475    0.0000 H   0  0  0  0  0  0  0  0  0  0  0  0
    0.0809   -2.4079    0.0000 H   0  0  0  0  0  0  0  0  0  0  0  0
    1.0073   -1.8736    0.0000 H   0  0  0  0  0  0  0  0  0  0  0  0
    1.7243   -1.4588    0.0000 H   0  0  0  0  0  0  0  0  0  0  0  0
    1.7205   -0.3870    0.0000 H   0  0  0  0  0  0  0  0  0  0  0  0
    0.8062    2.6149    0.0000 H   0  0  0  0  0  0  0  0  0  0  0  0
   -0.1238    2.0866    0.0000 H   0  0  0  0  0  0  0  0  0  0  0  0
   -0.8446    1.6760    0.0000 H   0  0  0  0  0  0  0  0  0  0  0  0
    0.0861    2.2070    0.0000 H   0  0  0  0  0  0  0  0  0  0  0  0
    2.6132   -0.9691    0.0000 H   0  0  0  0  0  0  0  0  0  0  0  0
    3.3432   -0.1220    0.0000 H   0  0  0  0  0  0  0  0  0  0  0  0
    3.8425    0.7074    0.0000 H   0  0  0  0  0  0  0  0  0  0  0  0
    3.2625    1.6633    0.0000 H   0  0  0  0  0  0  0  0  0  0  0  0
    3.3505    1.5410    0.0000 H   0  0  0  0  0  0  0  0  0  0  0  0
   -2.1566   -2.6312    0.0000 H   0  0  0  0  0  0  0  0  0  0  0  0
    0.2825    1.2673    0.0000 H   0  0  0  0  0  0  0  0  0  0  0  0
   -1.5707    1.2507    0.0000 H   0  0  0  0  0  0  0  0  0  0  0  0
   -0.6489    1.7940    0.0000 H   0  0  0  0  0  0  0  0  0  0  0  0
    2.4276    2.4964    0.0000 H   0  0  0  0  0  0  0  0  0  0  0  0
    0.5744    2.4830    0.0000 H   0  0  0  0  0  0  0  0  0  0  0  0
    1.4971    3.0247    0.0000 H   0  0  0  0  0  0  0  0  0  0  0  0
    3.5015    2.3602    0.0000 H   0  0  0  0  0  0  0  0  0  0  0  0
  1  2  1  0  0  0  0
  1  4  1  0  0  0  0
  1 26  1  0  0  0  0
  1 27  1  0  0  0  0
  2  3  1  0  0  0  0
  2 19  2  0  0  0  0
  3  6  2  0  0  0  0
  3 18  1  0  0  0  0
  4 28  1  0  0  0  0
  4 29  1  0  0  0  0
  5  4  1  0  0  0  0
  5  6  1  0  0  0  0
  5  9  1  0  0  0  0
  5 20  1  1  0  0  0
  6  7  1  0  0  0  0
  7  8  1  0  0  0  0
  7 30  1  0  0  0  0
  7 31  1  0  0  0  0
  8 10  1  0  0  0  0
  8 32  1  0  0  0  0
  8 33  1  0  0  0  0
  9 10  1  0  0  0  0
  9 12  1  0  0  0  0
  9 22  1  6  0  0  0
 10 14  1  0  0  0  0
 10 21  1  1  0  0  0
 11 12  1  0  0  0  0
 11 34  1  0  0  0  0
 11 35  1  0  0  0  0
 12 36  1  0  0  0  0
 12 37  1  0  0  0  0
 13 11  1  0  0  0  0
 13 14  1  0  0  0  0
 13 24  1  1  0  0  0
 14 15  1  0  0  0  0
 14 23  1  6  0  0  0
 15 16  1  0  0  0  0
 15 38  1  0  0  0  0
 15 39  1  0  0  0  0
 16 17  1  0  0  0  0
 16 40  1  0  0  0  0
 16 41  1  0  0  0  0
 17 13  1  0  0  0  0
 17 25  1  0  0  0  0
 17 42  1  6  0  0  0
 18 43  1  0  0  0  0
 20 44  1  0  0  0  0
 20 45  1  0  0  0  0
 20 46  1  0  0  0  0
 24 47  1  0  0  0  0
 24 48  1  0  0  0  0
 24 49  1  0  0  0  0
 25 50  1  0  0  0  0
M  END
>  <DRUGBANK_ID>
DB01485

>  <COMMON_NAME>
4-Hydroxytestosterone

>  <CAS_NUMBER>
2141-17-5

>  <UNII>
912GOZ167T

>  <SYNONYMS>
4-Androstene-7alpha-17beta-diol-3-one; 4,17beta-Dihydroxy-4-androstene-3-one; 7alpha-Hydroxytestosterone

$$$$
