
 OpenBabel10282417072D

 54 59  0  0  1  0  0  0  0  0999 V2000
    4.7031    1.3747    0.0000 C   0  0  0  0  0  0  0  0  0  0  0  0
    5.2111    0.7245    0.0000 C   0  0  0  0  0  0  0  0  0  0  0  0
    4.9020   -0.0404    0.0000 C   0  0  2  0  0  0  0  0  0  0  0  0
    4.3500   -0.6535    0.0000 C   0  0  0  0  0  0  0  0  0  0  0  0
    3.5430   -0.4819    0.0000 C   0  0  0  0  0  0  0  0  0  0  0  0
    2.9910   -1.0950    0.0000 C   0  0  0  0  0  0  0  0  0  0  0  0
    3.2459   -1.8797    0.0000 N   0  0  0  0  0  0  0  0  0  0  0  0
    4.0529   -2.0512    0.0000 C   0  0  0  0  0  0  0  0  0  0  0  0
    4.3078   -2.8358    0.0000 O   0  0  0  0  0  0  0  0  0  0  0  0
    4.6049   -1.4381    0.0000 C   0  0  0  0  0  0  0  0  0  0  0  0
    5.4119   -1.6096    0.0000 C   0  0  0  0  0  0  0  0  0  0  0  0
    5.9639   -0.9965    0.0000 O   0  0  0  0  0  0  0  0  0  0  0  0
    5.7090   -0.2119    0.0000 C   0  0  0  0  0  0  0  0  0  0  0  0
    6.2610    0.4012    0.0000 O   0  0  0  0  0  0  0  0  0  0  0  0
    2.5785   -2.3646    0.0000 C   0  0  0  0  0  0  0  0  0  0  0  0
    1.9110   -1.8797    0.0000 C   0  0  0  0  0  0  0  0  0  0  0  0
    2.1660   -1.0950    0.0000 C   0  0  0  0  0  0  0  0  0  0  0  0
    1.6139   -0.4819    0.0000 N   0  0  0  0  0  0  0  0  0  0  0  0
    0.8070   -0.6535    0.0000 C   0  0  0  0  0  0  0  0  0  0  0  0
    0.2549   -0.0404    0.0000 C   0  0  0  0  0  0  0  0  0  0  0  0
   -0.5520   -0.2119    0.0000 C   0  0  0  0  0  0  0  0  0  0  0  0
   -0.8070   -0.9965    0.0000 C   0  0  0  0  0  0  0  0  0  0  0  0
   -0.2549   -1.6096    0.0000 C   0  0  0  0  0  0  0  0  0  0  0  0
    0.5520   -1.4381    0.0000 C   0  0  0  0  0  0  0  0  0  0  0  0
    1.1041   -2.0512    0.0000 C   0  0  0  0  0  0  0  0  0  0  0  0
    0.8491   -2.8358    0.0000 C   0  0  2  0  0  0  0  0  0  0  0  0
    0.0422   -3.0073    0.0000 C   0  0  0  0  0  0  0  0  0  0  0  0
   -0.5099   -2.3942    0.0000 C   0  0  0  0  0  0  0  0  0  0  0  0
    1.4012   -3.4489    0.0000 N   0  0  0  0  0  0  0  0  0  0  0  0
   -1.6139   -1.1681    0.0000 C   0  0  0  0  0  0  0  0  0  0  0  0
   -1.1041    0.4012    0.0000 F   0  0  0  0  0  0  0  0  0  0  0  0
    4.2024    0.3968    0.0000 O   0  0  0  0  0  0  0  0  0  0  0  0
    5.1039    2.3668    0.0000 H   0  0  0  0  0  0  0  0  0  0  0  0
    3.6435    1.2258    0.0000 H   0  0  0  0  0  0  0  0  0  0  0  0
    4.0443    2.2179    0.0000 H   0  0  0  0  0  0  0  0  0  0  0  0
    6.2707    0.8734    0.0000 H   0  0  0  0  0  0  0  0  0  0  0  0
    5.8698   -0.1187    0.0000 H   0  0  0  0  0  0  0  0  0  0  0  0
    3.2241    0.4996    0.0000 H   0  0  0  0  0  0  0  0  0  0  0  0
    5.7426   -2.6272    0.0000 H   0  0  0  0  0  0  0  0  0  0  0  0
    6.4585   -1.8320    0.0000 H   0  0  0  0  0  0  0  0  0  0  0  0
    2.5785   -3.4346    0.0000 H   0  0  0  0  0  0  0  0  0  0  0  0
    1.6251   -2.8504    0.0000 H   0  0  0  0  0  0  0  0  0  0  0  0
    0.5738    0.9411    0.0000 H   0  0  0  0  0  0  0  0  0  0  0  0
    1.8957   -2.6133    0.0000 H   0  0  0  0  0  0  0  0  0  0  0  0
   -0.2884   -4.0249    0.0000 H   0  0  0  0  0  0  0  0  0  0  0  0
   -1.0044   -3.2298    0.0000 H   0  0  0  0  0  0  0  0  0  0  0  0
   -1.5565   -2.6167    0.0000 H   0  0  0  0  0  0  0  0  0  0  0  0
   -1.2258   -1.5990    0.0000 H   0  0  0  0  0  0  0  0  0  0  0  0
    1.0861   -4.4190    0.0000 H   0  0  0  0  0  0  0  0  0  0  0  0
    2.3989   -3.2368    0.0000 H   0  0  0  0  0  0  0  0  0  0  0  0
   -2.3300   -0.3730    0.0000 H   0  0  0  0  0  0  0  0  0  0  0  0
   -1.9444   -2.1858    0.0000 H   0  0  0  0  0  0  0  0  0  0  0  0
   -2.6605   -1.3907    0.0000 H   0  0  0  0  0  0  0  0  0  0  0  0
    4.2363    1.3662    0.0000 H   0  0  0  0  0  0  0  0  0  0  0  0
  1  2  1  0  0  0  0
  1 33  1  0  0  0  0
  1 34  1  0  0  0  0
  1 35  1  0  0  0  0
  2 36  1  0  0  0  0
  2 37  1  0  0  0  0
  3  2  1  0  0  0  0
  3  4  1  0  0  0  0
  3 13  1  0  0  0  0
  3 32  1  6  0  0  0
  4  5  1  0  0  0  0
  4 10  2  0  0  0  0
  5  6  2  0  0  0  0
  5 38  1  0  0  0  0
  6  7  1  0  0  0  0
  6 17  1  0  0  0  0
  7  8  1  0  0  0  0
  7 15  1  0  0  0  0
  8  9  2  0  0  0  0
  8 10  1  0  0  0  0
 10 11  1  0  0  0  0
 11 12  1  0  0  0  0
 11 39  1  0  0  0  0
 11 40  1  0  0  0  0
 12 13  1  0  0  0  0
 13 14  2  0  0  0  0
 15 16  1  0  0  0  0
 15 41  1  0  0  0  0
 15 42  1  0  0  0  0
 16 17  2  0  0  0  0
 16 25  1  0  0  0  0
 17 18  1  0  0  0  0
 18 19  2  0  0  0  0
 19 20  1  0  0  0  0
 19 24  1  0  0  0  0
 20 21  2  0  0  0  0
 20 43  1  0  0  0  0
 21 22  1  0  0  0  0
 21 31  1  0  0  0  0
 22 23  2  0  0  0  0
 22 30  1  0  0  0  0
 23 24  1  0  0  0  0
 23 28  1  0  0  0  0
 24 25  2  0  0  0  0
 25 26  1  0  0  0  0
 26 27  1  0  0  0  0
 26 29  1  0  0  0  0
 26 44  1  6  0  0  0
 27 28  1  0  0  0  0
 27 45  1  0  0  0  0
 27 46  1  0  0  0  0
 28 47  1  0  0  0  0
 28 48  1  0  0  0  0
 29 49  1  0  0  0  0
 29 50  1  0  0  0  0
 30 51  1  0  0  0  0
 30 52  1  0  0  0  0
 30 53  1  0  0  0  0
 32 54  1  0  0  0  0
M  END
>  <DRUGBANK_ID>
DB12185

>  <COMMON_NAME>
Exatecan

>  <CAS_NUMBER>
171335-80-1

>  <UNII>
OC71PP0F89

>  <SYNONYMS>
Exatecan

$$$$
