
 OpenBabel10282417072D

 45 48  0  0  0  0  0  0  0  0999 V2000
    5.1065    4.2758    0.0000 C   0  0  0  0  0  0  0  0  0  0  0  0
    4.9994    3.4578    0.0000 N   0  0  0  0  0  0  0  0  0  0  0  0
    4.2375    3.1415    0.0000 C   0  0  0  0  0  0  0  0  0  0  0  0
    5.6543    2.9561    0.0000 C   0  0  0  0  0  0  0  0  0  0  0  0
    5.5473    2.1381    0.0000 C   0  0  0  0  0  0  0  0  0  0  0  0
    6.2021    1.6363    0.0000 C   0  0  0  0  0  0  0  0  0  0  0  0
    6.0951    0.8183    0.0000 C   0  0  0  0  0  0  0  0  0  0  0  0
    6.7856    0.3669    0.0000 C   0  0  0  0  0  0  0  0  0  0  0  0
    7.4581    0.8448    0.0000 C   0  0  0  0  0  0  0  0  0  0  0  0
    8.2082    0.5014    0.0000 C   0  0  0  0  0  0  0  0  0  0  0  0
    8.2858   -0.3200    0.0000 C   0  0  0  0  0  0  0  0  0  0  0  0
    7.6134   -0.7979    0.0000 C   0  0  0  0  0  0  0  0  0  0  0  0
    6.8632   -0.4544    0.0000 C   0  0  0  0  0  0  0  0  0  0  0  0
    6.2695   -1.0272    0.0000 O   0  0  0  0  0  0  0  0  0  0  0  0
    5.4515   -0.9202    0.0000 C   0  0  0  0  0  0  0  0  0  0  0  0
    5.0252   -0.2138    0.0000 C   0  0  0  0  0  0  0  0  0  0  0  0
    5.3116    0.5598    0.0000 C   0  0  0  0  0  0  0  0  0  0  0  0
    4.6643    1.0713    0.0000 O   0  0  0  0  0  0  0  0  0  0  0  0
    3.9778    0.6138    0.0000 C   0  0  0  0  0  0  0  0  0  0  0  0
    4.2008   -0.1805    0.0000 C   0  0  0  0  0  0  0  0  0  0  0  0
    3.6245   -0.7708    0.0000 C   0  0  0  0  0  0  0  0  0  0  0  0
    2.8251   -0.5668    0.0000 C   0  0  0  0  0  0  0  0  0  0  0  0
    2.6021    0.2274    0.0000 C   0  0  0  0  0  0  0  0  0  0  0  0
    3.1784    0.8177    0.0000 C   0  0  0  0  0  0  0  0  0  0  0  0
    6.0948    4.6860    0.0000 H   0  0  0  0  0  0  0  0  0  0  0  0
    4.2571    4.9266    0.0000 H   0  0  0  0  0  0  0  0  0  0  0  0
    5.2454    5.3367    0.0000 H   0  0  0  0  0  0  0  0  0  0  0  0
    3.3881    3.7922    0.0000 H   0  0  0  0  0  0  0  0  0  0  0  0
    4.0987    2.0805    0.0000 H   0  0  0  0  0  0  0  0  0  0  0  0
    3.2493    2.7312    0.0000 H   0  0  0  0  0  0  0  0  0  0  0  0
    6.6425    3.3664    0.0000 H   0  0  0  0  0  0  0  0  0  0  0  0
    6.5037    2.3054    0.0000 H   0  0  0  0  0  0  0  0  0  0  0  0
    4.5590    1.7279    0.0000 H   0  0  0  0  0  0  0  0  0  0  0  0
    5.4084    1.0772    0.0000 H   0  0  0  0  0  0  0  0  0  0  0  0
    7.1553    2.0319    0.0000 H   0  0  0  0  0  0  0  0  0  0  0  0
    7.3610    1.8722    0.0000 H   0  0  0  0  0  0  0  0  0  0  0  0
    9.0494    1.0992    0.0000 H   0  0  0  0  0  0  0  0  0  0  0  0
    9.2241   -0.7496    0.0000 H   0  0  0  0  0  0  0  0  0  0  0  0
    7.7105   -1.8253    0.0000 H   0  0  0  0  0  0  0  0  0  0  0  0
    4.8661   -1.8158    0.0000 H   0  0  0  0  0  0  0  0  0  0  0  0
    4.3817   -0.9010    0.0000 H   0  0  0  0  0  0  0  0  0  0  0  0
    3.9035   -1.7644    0.0000 H   0  0  0  0  0  0  0  0  0  0  0  0
    2.1041   -1.3052    0.0000 H   0  0  0  0  0  0  0  0  0  0  0  0
    1.6021    0.4826    0.0000 H   0  0  0  0  0  0  0  0  0  0  0  0
    2.8993    1.8113    0.0000 H   0  0  0  0  0  0  0  0  0  0  0  0
  1  2  1  0  0  0  0
  1 25  1  0  0  0  0
  1 26  1  0  0  0  0
  1 27  1  0  0  0  0
  2  3  1  0  0  0  0
  2  4  1  0  0  0  0
  3 28  1  0  0  0  0
  3 29  1  0  0  0  0
  3 30  1  0  0  0  0
  4  5  1  0  0  0  0
  4 31  1  0  0  0  0
  4 32  1  0  0  0  0
  5 33  1  0  0  0  0
  5 34  1  0  0  0  0
  6  5  1  0  0  0  0
  6  7  2  3  0  0  0
  6 35  1  0  0  0  0
  7  8  1  0  0  0  0
  7 17  1  0  0  0  0
  8  9  2  0  0  0  0
  8 13  1  0  0  0  0
  9 10  1  0  0  0  0
  9 36  1  0  0  0  0
 10 11  2  0  0  0  0
 10 37  1  0  0  0  0
 11 12  1  0  0  0  0
 11 38  1  0  0  0  0
 12 13  2  0  0  0  0
 12 39  1  0  0  0  0
 13 14  1  0  0  0  0
 14 15  1  0  0  0  0
 15 16  1  0  0  0  0
 15 40  1  0  0  0  0
 15 41  1  0  0  0  0
 16 17  2  0  0  0  0
 16 20  1  0  0  0  0
 17 18  1  0  0  0  0
 18 19  1  0  0  0  0
 19 20  1  0  0  0  0
 19 24  2  0  0  0  0
 20 21  2  0  0  0  0
 21 22  1  0  0  0  0
 21 42  1  0  0  0  0
 22 23  2  0  0  0  0
 22 43  1  0  0  0  0
 23 24  1  0  0  0  0
 23 44  1  0  0  0  0
 24 45  1  0  0  0  0
M  END
>  <DRUGBANK_ID>
DB13463

>  <COMMON_NAME>
Oxetorone

>  <CAS_NUMBER>
26020-55-3

>  <UNII>
T3XOS33TIQ

>  <SYNONYMS>
Oxetorone

$$$$
