
 OpenBabel10282417072D

 36 35  0  0  0  0  0  0  0  0999 V2000
   -2.9427    1.7861    0.0000 C   0  0  0  0  0  0  0  0  0  0  0  0
   -3.2447    0.6592    0.0000 C   0  0  0  0  0  0  0  0  0  0  0  0
   -1.8157    1.4842    0.0000 C   0  0  0  0  0  0  0  0  0  0  0  0
   -2.1177    0.3572    0.0000 C   0  0  0  0  0  0  0  0  0  0  0  0
   -1.2927    0.3572    0.0000 C   0  0  0  0  0  0  0  0  0  0  0  0
    2.4197   -1.7861    0.0000 C   0  0  0  0  0  0  0  0  0  0  0  0
    1.1822   -1.0717    0.0000 C   0  0  0  0  0  0  0  0  0  0  0  0
    2.0072   -1.0717    0.0000 C   0  0  2  0  0  0  0  0  0  0  0  0
   -2.5302    1.0717    0.0000 N   0  3  0  0  0  0  0  0  0  0  0  0
    3.2447   -1.7861    0.0000 O   0  0  0  0  0  0  0  0  0  0  0  0
    2.4197   -0.3572    0.0000 O   0  0  0  0  0  0  0  0  0  0  0  0
   -0.0552   -1.1822    0.0000 O   0  0  0  0  0  0  0  0  0  0  0  0
   -0.0552    0.4677    0.0000 O   0  5  0  0  0  0  0  0  0  0  0  0
   -0.8802   -0.3572    0.0000 O   0  0  0  0  0  0  0  0  0  0  0  0
    0.7697   -0.3572    0.0000 O   0  0  0  0  0  0  0  0  0  0  0  0
   -0.0552   -0.3572    0.0000 P   0  0  3  0  0  0  0  0  0  0  0  0
    1.5947   -1.7861    0.0000 H   0  0  0  0  0  0  0  0  0  0  0  0
   -2.4077    2.7128    0.0000 H   0  0  0  0  0  0  0  0  0  0  0  0
   -4.0127    1.7861    0.0000 H   0  0  0  0  0  0  0  0  0  0  0  0
   -3.4777    2.7127    0.0000 H   0  0  0  0  0  0  0  0  0  0  0  0
   -4.1713    1.1942    0.0000 H   0  0  0  0  0  0  0  0  0  0  0  0
   -3.2447   -0.4108    0.0000 H   0  0  0  0  0  0  0  0  0  0  0  0
   -4.1714    0.1242    0.0000 H   0  0  0  0  0  0  0  0  0  0  0  0
   -0.8891    0.9492    0.0000 H   0  0  0  0  0  0  0  0  0  0  0  0
   -1.8157    2.5542    0.0000 H   0  0  0  0  0  0  0  0  0  0  0  0
   -0.8890    2.0192    0.0000 H   0  0  0  0  0  0  0  0  0  0  0  0
   -2.6527   -0.5694    0.0000 H   0  0  0  0  0  0  0  0  0  0  0  0
   -3.1877    0.3572    0.0000 H   0  0  0  0  0  0  0  0  0  0  0  0
   -0.7577    1.2839    0.0000 H   0  0  0  0  0  0  0  0  0  0  0  0
   -0.2227    0.3572    0.0000 H   0  0  0  0  0  0  0  0  0  0  0  0
    1.8847   -2.7128    0.0000 H   0  0  0  0  0  0  0  0  0  0  0  0
    2.9547   -2.7127    0.0000 H   0  0  0  0  0  0  0  0  0  0  0  0
    0.6472   -1.9983    0.0000 H   0  0  0  0  0  0  0  0  0  0  0  0
    0.1122   -1.0717    0.0000 H   0  0  0  0  0  0  0  0  0  0  0  0
    3.7297   -2.6261    0.0000 H   0  0  0  0  0  0  0  0  0  0  0  0
    3.3897   -0.3572    0.0000 H   0  0  0  0  0  0  0  0  0  0  0  0
  1 18  1  0  0  0  0
  1 19  1  0  0  0  0
  1 20  1  0  0  0  0
  2 21  1  0  0  0  0
  2 22  1  0  0  0  0
  2 23  1  0  0  0  0
  3 24  1  0  0  0  0
  3 25  1  0  0  0  0
  3 26  1  0  0  0  0
  4 27  1  0  0  0  0
  4 28  1  0  0  0  0
  5  4  1  0  0  0  0
  5 29  1  0  0  0  0
  5 30  1  0  0  0  0
  6 31  1  0  0  0  0
  6 32  1  0  0  0  0
  7 33  1  0  0  0  0
  7 34  1  0  0  0  0
  8  6  1  0  0  0  0
  8  7  1  0  0  0  0
  8 11  1  0  0  0  0
  8 17  1  1  0  0  0
  9  1  1  0  0  0  0
  9  2  1  0  0  0  0
  9  3  1  0  0  0  0
  9  4  1  0  0  0  0
 10  6  1  0  0  0  0
 10 35  1  0  0  0  0
 11 36  1  0  0  0  0
 14  5  1  0  0  0  0
 15  7  1  0  0  0  0
 16 12  2  0  0  0  0
 16 13  1  0  0  0  0
 16 14  1  0  0  0  0
 16 15  1  0  0  0  0
M  CHG  2   9   1  13  -1
M  END
>  <DRUGBANK_ID>
DB04660

>  <COMMON_NAME>
Choline alfoscerate

>  <CAS_NUMBER>
28319-77-9

>  <UNII>
60M22SGW66

>  <SYNONYMS>
(2R)-2,3-dihydroxypropyl 2-(trimethylammonio)ethyl phosphate; alpha-Glycerophosphorylcholine; Choline alfoscerate; Choline alphoscerate; Choline glycerophosphate; Cholini glycerophosphas; Glicerofosfato de colina; Glycerol phosphorylcholine; Glycerol-3-phosphatidylcholine; glycerol-3-phosphocholine; Glycerophosphate de choline; Glycerophosphocholine; Glycerophosphorylcholine; GPCho; L-alpha-Glycerophosphocholine; L-alpha-Glycerophosphorylcholine; sn-3-GPC; sn-Glycero-3-phosphocholine

$$$$
