439236
 OpenBabel10282417072D

 25 25  0  0  1  0  0  0  0  0999 V2000
    2.6150    1.0082    0.0000 P   0  0  0  0  0  0  0  0  0  0  0  0
    4.2386    0.4311    0.0000 O   0  0  0  0  0  0  0  0  0  0  0  0
    2.7865    0.2011    0.0000 O   0  0  0  0  0  0  0  0  0  0  0  0
    5.1360   -1.5059    0.0000 O   0  0  0  0  0  0  0  0  0  0  0  0
    3.3412   -1.5059    0.0000 O   0  0  0  0  0  0  0  0  0  0  0  0
    5.8622    1.0082    0.0000 O   0  0  0  0  0  0  0  0  0  0  0  0
    2.4435    1.8151    0.0000 O   0  0  0  0  0  0  0  0  0  0  0  0
    1.8081    0.8366    0.0000 O   0  0  0  0  0  0  0  0  0  0  0  0
    3.4220    1.1797    0.0000 O   0  0  0  0  0  0  0  0  0  0  0  0
    4.6511   -0.8384    0.0000 C   0  0  1  0  0  0  0  0  0  0  0  0
    3.8261   -0.8384    0.0000 C   0  0  2  0  0  0  0  0  0  0  0  0
    4.9060   -0.0538    0.0000 C   0  0  1  0  0  0  0  0  0  0  0  0
    3.5712   -0.0538    0.0000 C   0  0  2  0  0  0  0  0  0  0  0  0
    5.6907    0.2011    0.0000 C   0  0  0  0  0  0  0  0  0  0  0  0
    4.7414   -2.3920    0.0000 H   0  0  0  0  0  0  0  0  0  0  0  0
    2.3765   -1.4046    0.0000 H   0  0  0  0  0  0  0  0  0  0  0  0
    6.7847    1.3080    0.0000 H   0  0  0  0  0  0  0  0  0  0  0  0
    3.1644    2.4641    0.0000 H   0  0  0  0  0  0  0  0  0  0  0  0
    1.1590    1.5574    0.0000 H   0  0  0  0  0  0  0  0  0  0  0  0
    4.1653   -1.7918    0.0000 H   0  0  0  0  0  0  0  0  0  0  0  0
    4.3119   -1.7918    0.0000 H   0  0  0  0  0  0  0  0  0  0  0  0
    5.0734    1.0030    0.0000 H   0  0  0  0  0  0  0  0  0  0  0  0
    3.4038    1.0030    0.0000 H   0  0  0  0  0  0  0  0  0  0  0  0
    6.4859   -0.5149    0.0000 H   0  0  0  0  0  0  0  0  0  0  0  0
    5.4682   -0.8455    0.0000 H   0  0  0  0  0  0  0  0  0  0  0  0
  1  3  1  0  0  0  0
  1  7  1  0  0  0  0
  1  8  1  0  0  0  0
  1  9  2  0  0  0  0
  2 12  1  0  0  0  0
  2 13  1  0  0  0  0
  4 15  1  0  0  0  0
  5 16  1  0  0  0  0
  6 14  1  0  0  0  0
  6 17  1  0  0  0  0
  7 18  1  0  0  0  0
  8 19  1  0  0  0  0
 10  4  1  0  0  0  0
 10 11  1  0  0  0  0
 10 12  1  0  0  0  0
 10 20  1  6  0  0  0
 11  5  1  0  0  0  0
 11 13  1  0  0  0  0
 11 21  1  6  0  0  0
 12 14  1  0  0  0  0
 12 22  1  1  0  0  0
 13  3  1  0  0  0  0
 13 23  1  6  0  0  0
 14 24  1  0  0  0  0
 14 25  1  0  0  0  0
M  END
>  <DRUGBANK_ID>
DB03101

>  <SECONDARY_ACCESSION_NUMBERS>
EXPT02743

>  <COMMON_NAME>
Ribose-1-Phosphate

$$$$
