855
 OpenBabel10282417072D

 18 17  0  0  0  0  0  0  0  0999 V2000
    3.5217   -1.0312    0.0000 O   0  0  0  0  0  0  0  0  0  0  0  0
    6.3793   -0.2063    0.0000 O   0  0  0  0  0  0  0  0  0  0  0  0
    5.6650    1.0312    0.0000 O   0  0  0  0  0  0  0  0  0  0  0  0
    2.0928   -0.2063    0.0000 N   0  0  0  0  0  0  0  0  0  0  0  0
    4.2361    0.2063    0.0000 C   0  0  0  0  0  0  0  0  0  0  0  0
    4.9504   -0.2063    0.0000 C   0  0  0  0  0  0  0  0  0  0  0  0
    3.5217   -0.2063    0.0000 C   0  0  0  0  0  0  0  0  0  0  0  0
    2.8072    0.2063    0.0000 C   0  0  0  0  0  0  0  0  0  0  0  0
    5.6650    0.2063    0.0000 C   0  0  0  0  0  0  0  0  0  0  0  0
    6.3791   -1.1433    0.0000 H   0  0  0  0  0  0  0  0  0  0  0  0
    1.2094    0.3036    0.0000 H   0  0  0  0  0  0  0  0  0  0  0  0
    2.0930   -1.2263    0.0000 H   0  0  0  0  0  0  0  0  0  0  0  0
    4.2361    1.2763    0.0000 H   0  0  0  0  0  0  0  0  0  0  0  0
    3.3094    0.7412    0.0000 H   0  0  0  0  0  0  0  0  0  0  0  0
    4.9503   -1.2763    0.0000 H   0  0  0  0  0  0  0  0  0  0  0  0
    5.8770   -0.7413    0.0000 H   0  0  0  0  0  0  0  0  0  0  0  0
    2.8072    1.2763    0.0000 H   0  0  0  0  0  0  0  0  0  0  0  0
    3.7339    0.7413    0.0000 H   0  0  0  0  0  0  0  0  0  0  0  0
  1  7  2  0  0  0  0
  2  9  1  0  0  0  0
  2 10  1  0  0  0  0
  3  9  2  0  0  0  0
  4  8  1  0  0  0  0
  4 11  1  0  0  0  0
  4 12  1  0  0  0  0
  5  6  1  0  0  0  0
  5  7  1  0  0  0  0
  5 13  1  0  0  0  0
  5 14  1  0  0  0  0
  6  9  1  0  0  0  0
  6 15  1  0  0  0  0
  6 16  1  0  0  0  0
  7  8  1  0  0  0  0
  8 17  1  0  0  0  0
  8 18  1  0  0  0  0
M  END
>  <DRUGBANK_ID>
DB00855

>  <SECONDARY_ACCESSION_NUMBERS>
APRD00793; DB05277

>  <COMMON_NAME>
Aminolevulinic acid

>  <CAS_NUMBER>
106-60-5

>  <UNII>
88755TAZ87

>  <SYNONYMS>
5-ALA; 5-Aminolevulinic acid; ácido 5-aminolevulínico; Aminolevulinic acid; dALA; δ-ALA; δ-aminolevulinic acid

$$$$
