1002
 OpenBabel10282417072D

 49 50  0  0  1  0  0  0  0  0999 V2000
    5.9370   -0.2063    0.0000 O   0  0  0  0  0  0  0  0  0  0  0  0
    4.5080    1.4438    0.0000 N   0  0  0  0  0  0  0  0  0  0  0  0
    4.5080   -0.2063    0.0000 N   0  0  0  0  0  0  0  0  0  0  0  0
    5.2224    1.0313    0.0000 C   0  0  1  0  0  0  0  0  0  0  0  0
    5.9370    1.4438    0.0000 C   0  0  0  0  0  0  0  0  0  0  0  0
    4.5080    2.2688    0.0000 C   0  0  0  0  0  0  0  0  0  0  0  0
    5.9370    2.2688    0.0000 C   0  0  0  0  0  0  0  0  0  0  0  0
    5.2224    2.6813    0.0000 C   0  0  0  0  0  0  0  0  0  0  0  0
    3.7935    1.0313    0.0000 C   0  0  0  0  0  0  0  0  0  0  0  0
    5.2224    0.2063    0.0000 C   0  0  0  0  0  0  0  0  0  0  0  0
    3.0791    1.4438    0.0000 C   0  0  0  0  0  0  0  0  0  0  0  0
    2.3645    1.0313    0.0000 C   0  0  0  0  0  0  0  0  0  0  0  0
    4.5080   -1.0313    0.0000 C   0  0  0  0  0  0  0  0  0  0  0  0
    1.6500    1.4438    0.0000 C   0  0  0  0  0  0  0  0  0  0  0  0
    5.2224   -1.4438    0.0000 C   0  0  0  0  0  0  0  0  0  0  0  0
    3.7935   -1.4438    0.0000 C   0  0  0  0  0  0  0  0  0  0  0  0
    5.2224   -2.2688    0.0000 C   0  0  0  0  0  0  0  0  0  0  0  0
    3.7935   -2.2688    0.0000 C   0  0  0  0  0  0  0  0  0  0  0  0
    5.9370   -1.0313    0.0000 C   0  0  0  0  0  0  0  0  0  0  0  0
    3.0791   -1.0313    0.0000 C   0  0  0  0  0  0  0  0  0  0  0  0
    4.5080   -2.6813    0.0000 C   0  0  0  0  0  0  0  0  0  0  0  0
    3.6554    0.2859    0.0000 H   0  0  0  0  0  0  0  0  0  0  0  0
    4.2957    0.4963    0.0000 H   0  0  0  0  0  0  0  0  0  0  0  0
    6.8636    0.9088    0.0000 H   0  0  0  0  0  0  0  0  0  0  0  0
    6.8637    1.9788    0.0000 H   0  0  0  0  0  0  0  0  0  0  0  0
    3.5813    2.8038    0.0000 H   0  0  0  0  0  0  0  0  0  0  0  0
    4.5080    3.3388    0.0000 H   0  0  0  0  0  0  0  0  0  0  0  0
    6.8636    2.8038    0.0000 H   0  0  0  0  0  0  0  0  0  0  0  0
    5.9369    3.3388    0.0000 H   0  0  0  0  0  0  0  0  0  0  0  0
    5.2223    3.7513    0.0000 H   0  0  0  0  0  0  0  0  0  0  0  0
    6.1490    3.2164    0.0000 H   0  0  0  0  0  0  0  0  0  0  0  0
    3.7935   -0.0387    0.0000 H   0  0  0  0  0  0  0  0  0  0  0  0
    2.8668    0.4963    0.0000 H   0  0  0  0  0  0  0  0  0  0  0  0
    3.0792    2.5138    0.0000 H   0  0  0  0  0  0  0  0  0  0  0  0
    2.1525    1.9789    0.0000 H   0  0  0  0  0  0  0  0  0  0  0  0
    2.3645   -0.0387    0.0000 H   0  0  0  0  0  0  0  0  0  0  0  0
    1.4378    0.4963    0.0000 H   0  0  0  0  0  0  0  0  0  0  0  0
    1.6500    2.5138    0.0000 H   0  0  0  0  0  0  0  0  0  0  0  0
    0.7234    0.9088    0.0000 H   0  0  0  0  0  0  0  0  0  0  0  0
    0.7233    1.9788    0.0000 H   0  0  0  0  0  0  0  0  0  0  0  0
    6.1161   -2.7848    0.0000 H   0  0  0  0  0  0  0  0  0  0  0  0
    2.8998   -2.7848    0.0000 H   0  0  0  0  0  0  0  0  0  0  0  0
    6.8636   -1.5664    0.0000 H   0  0  0  0  0  0  0  0  0  0  0  0
    5.9371    0.0387    0.0000 H   0  0  0  0  0  0  0  0  0  0  0  0
    6.8637   -0.4964    0.0000 H   0  0  0  0  0  0  0  0  0  0  0  0
    3.0791    0.0387    0.0000 H   0  0  0  0  0  0  0  0  0  0  0  0
    2.1524   -1.5663    0.0000 H   0  0  0  0  0  0  0  0  0  0  0  0
    2.1525   -0.4963    0.0000 H   0  0  0  0  0  0  0  0  0  0  0  0
    4.5080   -3.7133    0.0000 H   0  0  0  0  0  0  0  0  0  0  0  0
  1 10  2  0  0  0  0
  2  4  1  0  0  0  0
  2  6  1  0  0  0  0
  2  9  1  0  0  0  0
  3 10  1  0  0  0  0
  3 13  1  0  0  0  0
  3 22  1  0  0  0  0
  4  5  1  0  0  0  0
  4 10  1  0  0  0  0
  4 23  1  6  0  0  0
  5  7  1  0  0  0  0
  5 24  1  0  0  0  0
  5 25  1  0  0  0  0
  6  8  1  0  0  0  0
  6 26  1  0  0  0  0
  6 27  1  0  0  0  0
  7  8  1  0  0  0  0
  7 28  1  0  0  0  0
  7 29  1  0  0  0  0
  8 30  1  0  0  0  0
  8 31  1  0  0  0  0
  9 11  1  0  0  0  0
  9 32  1  0  0  0  0
  9 33  1  0  0  0  0
 11 12  1  0  0  0  0
 11 34  1  0  0  0  0
 11 35  1  0  0  0  0
 12 14  1  0  0  0  0
 12 36  1  0  0  0  0
 12 37  1  0  0  0  0
 13 15  2  0  0  0  0
 13 16  1  0  0  0  0
 14 38  1  0  0  0  0
 14 39  1  0  0  0  0
 14 40  1  0  0  0  0
 15 17  1  0  0  0  0
 15 19  1  0  0  0  0
 16 18  2  0  0  0  0
 16 20  1  0  0  0  0
 17 21  2  0  0  0  0
 17 41  1  0  0  0  0
 18 21  1  0  0  0  0
 18 42  1  0  0  0  0
 19 43  1  0  0  0  0
 19 44  1  0  0  0  0
 19 45  1  0  0  0  0
 20 46  1  0  0  0  0
 20 47  1  0  0  0  0
 20 48  1  0  0  0  0
 21 49  1  0  0  0  0
M  END
>  <DRUGBANK_ID>
DB01002

>  <SECONDARY_ACCESSION_NUMBERS>
APRD00110

>  <COMMON_NAME>
Levobupivacaine

>  <CAS_NUMBER>
27262-47-1

>  <UNII>
A5H73K9U3W

>  <SYNONYMS>
(-)-bupivacaine; (S)-1-butyl-2',6'-pipecoloxylidide; (S)-bupivacaine; L-(-)-1-Butyl-2',6'-pipecoloxylidide; L-(−)-bupivacaine; Levobupivacaína; Levobupivacaine

$$$$
