
 OpenBabel10282417072D

 66 67  0  0  0  0  0  0  0  0999 V2000
    1.8857    0.3392    0.0000 C   0  0  1  0  0  0  0  0  0  0  0  0
    2.2979   -0.3748    0.0000 C   0  0  0  0  0  0  0  0  0  0  0  0
    2.7115    0.3389    0.0000 H   0  0  0  0  0  0  0  0  0  0  0  0
    1.8857    1.1642    0.0000 C   0  0  0  0  0  0  0  0  0  0  0  0
    2.5982    1.5766    0.0000 O   0  0  0  0  0  0  0  0  0  0  0  0
    3.3108    1.1642    0.0000 C   0  0  0  0  0  0  0  0  0  0  0  0
    4.0232    1.5766    0.0000 C   0  0  0  0  0  0  0  0  0  0  0  0
    1.1737   -0.0690    0.0000 N   0  0  0  0  0  0  0  0  0  0  0  0
    1.1737    1.5809    0.0000 O   0  0  0  0  0  0  0  0  0  0  0  0
   -1.9462    0.5354    0.0000 C   0  0  0  0  0  0  0  0  0  0  0  0
   -1.8332    1.3568    0.0000 N   0  0  0  0  0  0  0  0  0  0  0  0
   -2.5792    1.7185    0.0000 C   0  0  0  0  0  0  0  0  0  0  0  0
   -2.7620    0.3884    0.0000 C   0  0  0  0  0  0  0  0  0  0  0  0
   -3.1561    1.1241    0.0000 S   0  0  0  0  0  0  0  0  0  0  0  0
   -4.4274    0.4431    0.0000 C   0  0  0  0  0  0  0  0  0  0  0  0
   -4.0333   -0.2925    0.0000 C   0  0  0  0  0  0  0  0  0  0  0  0
   -3.1975   -0.3208    0.0000 C   0  0  0  0  0  0  0  0  0  0  0  0
   -4.4691   -0.9930    0.0000 C   0  0  0  0  0  0  0  0  0  0  0  0
   -2.7225    2.5310    0.0000 N   0  0  0  0  0  0  0  0  0  0  0  0
   -1.3508   -0.0356    0.0000 C   0  0  0  0  0  0  0  0  0  0  0  0
   -1.4608   -0.8499    0.0000 C   0  0  0  0  0  0  0  0  0  0  0  0
   -0.7174   -1.2096    0.0000 C   0  0  0  0  0  0  0  0  0  0  0  0
   -0.1465   -0.6124    0.0000 C   0  0  0  0  0  0  0  0  0  0  0  0
   -0.5390    0.1142    0.0000 O   0  0  0  0  0  0  0  0  0  0  0  0
    0.6711   -0.7225    0.0000 P   0  0  3  0  0  0  0  0  0  0  0  0
    0.3531   -1.4838    0.0000 O   0  0  0  0  0  0  0  0  0  0  0  0
    1.4961   -0.7248    0.0000 N   0  0  0  0  0  0  0  0  0  0  0  0
    1.7075   -1.5190    0.0000 C   0  0  1  0  0  0  0  0  0  0  0  0
    1.6691   -2.2682    0.0000 C   0  0  0  0  0  0  0  0  0  0  0  0
    2.5040   -1.7338    0.0000 C   0  0  0  0  0  0  0  0  0  0  0  0
    2.7164   -2.5310    0.0000 O   0  0  0  0  0  0  0  0  0  0  0  0
    3.0883   -1.1512    0.0000 O   0  0  0  0  0  0  0  0  0  0  0  0
    3.8848   -1.3661    0.0000 C   0  0  0  0  0  0  0  0  0  0  0  0
    4.4691   -0.7836    0.0000 C   0  0  0  0  0  0  0  0  0  0  0  0
    0.9783   -1.8011    0.0000 H   0  0  0  0  0  0  0  0  0  0  0  0
    1.7629   -1.3014    0.0000 H   0  0  0  0  0  0  0  0  0  0  0  0
    3.3679   -0.3748    0.0000 H   0  0  0  0  0  0  0  0  0  0  0  0
    2.8329   -1.3015    0.0000 H   0  0  0  0  0  0  0  0  0  0  0  0
    3.3109    0.0942    0.0000 H   0  0  0  0  0  0  0  0  0  0  0  0
    4.2378    0.6298    0.0000 H   0  0  0  0  0  0  0  0  0  0  0  0
    4.9505    1.0427    0.0000 H   0  0  0  0  0  0  0  0  0  0  0  0
    4.0220    2.6466    0.0000 H   0  0  0  0  0  0  0  0  0  0  0  0
    4.9492    2.1127    0.0000 H   0  0  0  0  0  0  0  0  0  0  0  0
    0.5028    0.6993    0.0000 H   0  0  0  0  0  0  0  0  0  0  0  0
   -3.8632    1.3523    0.0000 H   0  0  0  0  0  0  0  0  0  0  0  0
   -5.4969    0.4771    0.0000 H   0  0  0  0  0  0  0  0  0  0  0  0
   -4.9327    1.3863    0.0000 H   0  0  0  0  0  0  0  0  0  0  0  0
   -3.5295   -1.2365    0.0000 H   0  0  0  0  0  0  0  0  0  0  0  0
   -2.6910   -1.2633    0.0000 H   0  0  0  0  0  0  0  0  0  0  0  0
   -3.7620   -1.2298    0.0000 H   0  0  0  0  0  0  0  0  0  0  0  0
   -5.5385   -0.9578    0.0000 H   0  0  0  0  0  0  0  0  0  0  0  0
   -3.9649   -1.9368    0.0000 H   0  0  0  0  0  0  0  0  0  0  0  0
   -5.0343   -1.9015    0.0000 H   0  0  0  0  0  0  0  0  0  0  0  0
   -1.9684    3.1639    0.0000 H   0  0  0  0  0  0  0  0  0  0  0  0
   -3.6476    2.8677    0.0000 H   0  0  0  0  0  0  0  0  0  0  0  0
   -2.3699   -1.3383    0.0000 H   0  0  0  0  0  0  0  0  0  0  0  0
   -0.5340   -2.2252    0.0000 H   0  0  0  0  0  0  0  0  0  0  0  0
    2.1188    0.0830    0.0000 H   0  0  0  0  0  0  0  0  0  0  0  0
    0.7163   -2.7551    0.0000 H   0  0  0  0  0  0  0  0  0  0  0  0
    2.5671   -2.8499    0.0000 H   0  0  0  0  0  0  0  0  0  0  0  0
    1.6143   -3.3368    0.0000 H   0  0  0  0  0  0  0  0  0  0  0  0
    4.1600   -2.4001    0.0000 H   0  0  0  0  0  0  0  0  0  0  0  0
    4.9179   -1.6447    0.0000 H   0  0  0  0  0  0  0  0  0  0  0  0
    5.5022   -1.0621    0.0000 H   0  0  0  0  0  0  0  0  0  0  0  0
    4.1938    0.2504    0.0000 H   0  0  0  0  0  0  0  0  0  0  0  0
    5.2269   -0.0282    0.0000 H   0  0  0  0  0  0  0  0  0  0  0  0
  1  3  1  1  0  0  0
  1  4  1  0  0  0  0
  2  1  1  0  0  0  0
  2 36  1  0  0  0  0
  2 37  1  0  0  0  0
  2 38  1  0  0  0  0
  4  5  1  0  0  0  0
  4  9  2  0  0  0  0
  5  6  1  0  0  0  0
  6  7  1  0  0  0  0
  6 39  1  0  0  0  0
  6 40  1  0  0  0  0
  7 41  1  0  0  0  0
  7 42  1  0  0  0  0
  7 43  1  0  0  0  0
  8  1  1  0  0  0  0
  8 44  1  0  0  0  0
 10 11  1  0  0  0  0
 10 20  1  0  0  0  0
 11 12  2  0  0  0  0
 12 14  1  0  0  0  0
 12 19  1  0  0  0  0
 13 14  1  0  0  0  0
 13 10  2  0  0  0  0
 13 17  1  0  0  0  0
 15 16  1  0  0  0  0
 15 45  1  0  0  0  0
 15 46  1  0  0  0  0
 15 47  1  0  0  0  0
 16 17  1  0  0  0  0
 16 18  1  0  0  0  0
 16 48  1  0  0  0  0
 17 49  1  0  0  0  0
 17 50  1  0  0  0  0
 18 51  1  0  0  0  0
 18 52  1  0  0  0  0
 18 53  1  0  0  0  0
 19 54  1  0  0  0  0
 19 55  1  0  0  0  0
 20 21  2  0  0  0  0
 21 22  1  0  0  0  0
 21 56  1  0  0  0  0
 22 23  2  0  0  0  0
 22 57  1  0  0  0  0
 23 24  1  0  0  0  0
 23 25  1  0  0  0  0
 24 20  1  0  0  0  0
 25  8  1  0  0  0  0
 25 26  2  0  0  0  0
 25 27  1  0  0  0  0
 27 28  1  0  0  0  0
 27 58  1  0  0  0  0
 28 29  1  0  0  0  0
 28 30  1  0  0  0  0
 28 35  1  1  0  0  0
 29 59  1  0  0  0  0
 29 60  1  0  0  0  0
 29 61  1  0  0  0  0
 30 31  2  0  0  0  0
 30 32  1  0  0  0  0
 32 33  1  0  0  0  0
 33 34  1  0  0  0  0
 33 62  1  0  0  0  0
 33 63  1  0  0  0  0
 34 64  1  0  0  0  0
 34 65  1  0  0  0  0
 34 66  1  0  0  0  0
M  END
>  <DRUGBANK_ID>
DB05518

>  <COMMON_NAME>
Managlinat dialanetil

>  <CAS_NUMBER>
280782-97-0

>  <UNII>
3W93F83K7S

>  <SYNONYMS>
Managlinat dialanetil; Managlinat dialanÃ©til; Managlinat dialanetilo; Managlinatum dialanetilum

$$$$
