
 OpenBabel10282417072D

 37 37  0  0  0  0  0  0  0  0999 V2000
    0.3652    0.7048    0.0000 C   0  0  0  0  0  0  0  0  0  0  0  0
    0.3652   -0.1285    0.0000 N   0  0  0  0  0  0  0  0  0  0  0  0
   -0.3528    1.1111    0.0000 N   0  0  0  0  0  0  0  0  0  0  0  0
    1.0655    1.1262    0.0000 N   0  0  0  0  0  0  0  0  0  0  0  0
    1.0744   -0.5607    0.0000 C   0  0  0  0  0  0  0  0  0  0  0  0
   -1.0647    0.6842    0.0000 C   0  0  3  0  0  0  0  0  0  0  0  0
    1.7981    0.7273    0.0000 C   0  0  0  0  0  0  0  0  0  0  0  0
    1.0744   -1.3879    0.0000 C   0  0  0  0  0  0  0  0  0  0  0  0
    1.8159   -0.1229    0.0000 C   0  0  0  0  0  0  0  0  0  0  0  0
   -1.8034    1.0817    0.0000 C   0  0  0  0  0  0  0  0  0  0  0  0
   -1.0647   -0.1105    0.0000 C   0  0  0  0  0  0  0  0  0  0  0  0
    2.5314    0.3772    0.0000 N   0  0  0  0  0  0  0  0  0  0  0  0
    1.8159   -1.7943    0.0000 C   0  0  0  0  0  0  0  0  0  0  0  0
    2.5314   -0.5278    0.0000 C   0  0  0  0  0  0  0  0  0  0  0  0
   -2.1811    0.3628    0.0000 C   0  0  0  0  0  0  0  0  0  0  0  0
   -1.4033    1.7943    0.0000 C   0  0  0  0  0  0  0  0  0  0  0  0
   -2.5314    1.4551    0.0000 C   0  0  0  0  0  0  0  0  0  0  0  0
    2.5314   -1.3666    0.0000 N   0  0  0  0  0  0  0  0  0  0  0  0
   -0.3652    2.0955    0.0000 H   0  0  0  0  0  0  0  0  0  0  0  0
    1.0443    2.1105    0.0000 H   0  0  0  0  0  0  0  0  0  0  0  0
   -1.0896    1.7539    0.0000 H   0  0  0  0  0  0  0  0  0  0  0  0
    0.1865   -1.9138    0.0000 H   0  0  0  0  0  0  0  0  0  0  0  0
    1.8064    0.9091    0.0000 H   0  0  0  0  0  0  0  0  0  0  0  0
   -1.9913   -0.6455    0.0000 H   0  0  0  0  0  0  0  0  0  0  0  0
   -0.1381   -0.6455    0.0000 H   0  0  0  0  0  0  0  0  0  0  0  0
   -1.0647   -1.1805    0.0000 H   0  0  0  0  0  0  0  0  0  0  0  0
    1.8352   -2.8261    0.0000 H   0  0  0  0  0  0  0  0  0  0  0  0
    3.4229   -0.0079    0.0000 H   0  0  0  0  0  0  0  0  0  0  0  0
   -3.2503    0.3202    0.0000 H   0  0  0  0  0  0  0  0  0  0  0  0
   -1.6096   -0.5418    0.0000 H   0  0  0  0  0  0  0  0  0  0  0  0
   -2.6788   -0.5844    0.0000 H   0  0  0  0  0  0  0  0  0  0  0  0
   -0.3334    1.8071    0.0000 H   0  0  0  0  0  0  0  0  0  0  0  0
   -1.9494    2.7145    0.0000 H   0  0  0  0  0  0  0  0  0  0  0  0
   -0.8795    2.7273    0.0000 H   0  0  0  0  0  0  0  0  0  0  0  0
   -2.5845    2.5238    0.0000 H   0  0  0  0  0  0  0  0  0  0  0  0
   -3.4303    0.8747    0.0000 H   0  0  0  0  0  0  0  0  0  0  0  0
   -3.4835    1.9434    0.0000 H   0  0  0  0  0  0  0  0  0  0  0  0
  1  2  2  0  0  0  0
  1  3  1  0  0  0  0
  1  4  1  0  0  0  0
  2  5  1  0  0  0  0
  3  6  1  0  0  0  0
  3 19  1  0  0  0  0
  4  7  1  0  0  0  0
  4 20  1  0  0  0  0
  5  8  2  0  0  0  0
  5  9  1  0  0  0  0
  6 10  1  0  0  0  0
  6 11  1  0  0  0  0
  6 21  1  0  0  0  0
  7 12  3  0  0  0  0
  8 13  1  0  0  0  0
  8 22  1  0  0  0  0
  9 14  2  0  0  0  0
  9 23  1  0  0  0  0
 10 15  1  0  0  0  0
 10 16  1  0  0  0  0
 10 17  1  0  0  0  0
 11 24  1  0  0  0  0
 11 25  1  0  0  0  0
 11 26  1  0  0  0  0
 13 18  2  0  0  0  0
 13 27  1  0  0  0  0
 14 18  1  0  0  0  0
 14 28  1  0  0  0  0
 15 29  1  0  0  0  0
 15 30  1  0  0  0  0
 15 31  1  0  0  0  0
 16 32  1  0  0  0  0
 16 33  1  0  0  0  0
 16 34  1  0  0  0  0
 17 35  1  0  0  0  0
 17 36  1  0  0  0  0
 17 37  1  0  0  0  0
M  END
>  <DRUGBANK_ID>
DB06762

>  <COMMON_NAME>
Pinacidil

>  <CAS_NUMBER>
60560-33-0

>  <UNII>
BB4UGO5K0D

>  <SYNONYMS>
Pinacidil; Pinacidil anhydrous; Pinacidilum

$$$$
