IOK
 OpenBabel10282417072D

 56 59  0  0  0  0  0  0  0  0999 V2000
   -5.2485    3.8796    0.0000 C   0  0  0  0  0  0  0  0  0  0  0  0
   -5.9630    4.2921    0.0000 C   0  0  0  0  0  0  0  0  0  0  0  0
   -6.6774    3.8796    0.0000 C   0  0  0  0  0  0  0  0  0  0  0  0
   -6.6774    3.0546    0.0000 C   0  0  0  0  0  0  0  0  0  0  0  0
   -7.3919    2.6421    0.0000 O   0  0  0  0  0  0  0  0  0  0  0  0
   -5.9630    2.6421    0.0000 C   0  0  0  0  0  0  0  0  0  0  0  0
   -5.2485    3.0546    0.0000 C   0  0  0  0  0  0  0  0  0  0  0  0
   -4.5340    4.2921    0.0000 C   0  0  0  0  0  0  0  0  0  0  0  0
   -3.8195    3.8796    0.0000 C   0  0  0  0  0  0  0  0  0  0  0  0
   -3.1051    4.2921    0.0000 C   0  0  1  0  0  0  0  0  0  0  0  0
   -3.1051    5.1171    0.0000 C   0  0  0  0  0  0  0  0  0  0  0  0
   -2.3906    3.8796    0.0000 N   0  0  0  0  0  0  0  0  0  0  0  0
   -1.6761    4.2921    0.0000 C   0  0  0  0  0  0  0  0  0  0  0  0
   -1.6761    5.1171    0.0000 O   0  0  0  0  0  0  0  0  0  0  0  0
   -0.9617    3.8796    0.0000 C   0  0  0  0  0  0  0  0  0  0  0  0
   -0.2472    4.2921    0.0000 C   0  0  0  0  0  0  0  0  0  0  0  0
    0.5065    3.9565    0.0000 C   0  0  0  0  0  0  0  0  0  0  0  0
    1.0585    4.5696    0.0000 N   0  0  0  0  0  0  0  0  0  0  0  0
    0.6460    5.2841    0.0000 C   0  0  0  0  0  0  0  0  0  0  0  0
    0.9010    6.0687    0.0000 C   0  0  0  0  0  0  0  0  0  0  0  0
    0.3489    6.6818    0.0000 C   0  0  0  0  0  0  0  0  0  0  0  0
   -0.4580    6.5103    0.0000 C   0  0  0  0  0  0  0  0  0  0  0  0
   -0.7130    5.7257    0.0000 C   0  0  0  0  0  0  0  0  0  0  0  0
   -0.1609    5.1126    0.0000 C   0  0  0  0  0  0  0  0  0  0  0  0
    0.6780    3.1496    0.0000 C   0  0  0  0  0  0  0  0  0  0  0  0
    1.4626    2.8946    0.0000 C   0  0  0  0  0  0  0  0  0  0  0  0
    1.6342    2.0876    0.0000 C   0  0  0  0  0  0  0  0  0  0  0  0
    1.0211    1.5356    0.0000 C   0  0  0  0  0  0  0  0  0  0  0  0
    0.2365    1.7906    0.0000 C   0  0  0  0  0  0  0  0  0  0  0  0
    0.0649    2.5975    0.0000 C   0  0  0  0  0  0  0  0  0  0  0  0
   -3.6108    4.5841    0.0000 H   0  0  0  0  0  0  0  0  0  0  0  0
   -5.9630    5.3241    0.0000 H   0  0  0  0  0  0  0  0  0  0  0  0
   -7.5711    4.3956    0.0000 H   0  0  0  0  0  0  0  0  0  0  0  0
   -8.2034    3.1106    0.0000 H   0  0  0  0  0  0  0  0  0  0  0  0
   -5.9630    1.6101    0.0000 H   0  0  0  0  0  0  0  0  0  0  0  0
   -4.3548    2.5386    0.0000 H   0  0  0  0  0  0  0  0  0  0  0  0
   -4.5340    5.3621    0.0000 H   0  0  0  0  0  0  0  0  0  0  0  0
   -3.6074    4.8271    0.0000 H   0  0  0  0  0  0  0  0  0  0  0  0
   -3.8195    2.8096    0.0000 H   0  0  0  0  0  0  0  0  0  0  0  0
   -2.8928    3.3446    0.0000 H   0  0  0  0  0  0  0  0  0  0  0  0
   -2.1785    5.6521    0.0000 H   0  0  0  0  0  0  0  0  0  0  0  0
   -4.0317    5.6521    0.0000 H   0  0  0  0  0  0  0  0  0  0  0  0
   -3.1051    6.1871    0.0000 H   0  0  0  0  0  0  0  0  0  0  0  0
   -2.3906    2.8951    0.0000 H   0  0  0  0  0  0  0  0  0  0  0  0
   -0.9617    2.8096    0.0000 H   0  0  0  0  0  0  0  0  0  0  0  0
   -0.0351    3.3446    0.0000 H   0  0  0  0  0  0  0  0  0  0  0  0
    2.0376    4.4667    0.0000 H   0  0  0  0  0  0  0  0  0  0  0  0
    1.9105    6.2833    0.0000 H   0  0  0  0  0  0  0  0  0  0  0  0
    0.6678    7.6633    0.0000 H   0  0  0  0  0  0  0  0  0  0  0  0
   -1.1485    7.2773    0.0000 H   0  0  0  0  0  0  0  0  0  0  0  0
   -1.7225    5.5111    0.0000 H   0  0  0  0  0  0  0  0  0  0  0  0
    2.2295    3.5851    0.0000 H   0  0  0  0  0  0  0  0  0  0  0  0
    2.6157    1.7687    0.0000 H   0  0  0  0  0  0  0  0  0  0  0  0
    1.2356    0.5261    0.0000 H   0  0  0  0  0  0  0  0  0  0  0  0
   -0.5304    1.1000    0.0000 H   0  0  0  0  0  0  0  0  0  0  0  0
   -0.9166    2.9163    0.0000 H   0  0  0  0  0  0  0  0  0  0  0  0
  1  7  1  0  0  0  0
  1  8  1  0  0  0  0
  1  2  2  0  0  0  0
  2  3  1  0  0  0  0
  2 32  1  0  0  0  0
  3  4  2  0  0  0  0
  3 33  1  0  0  0  0
  4  6  1  0  0  0  0
  4  5  1  0  0  0  0
  5 34  1  0  0  0  0
  6  7  2  0  0  0  0
  6 35  1  0  0  0  0
  7 36  1  0  0  0  0
  8  9  1  0  0  0  0
  8 37  1  0  0  0  0
  8 38  1  0  0  0  0
  9 10  1  0  0  0  0
  9 39  1  0  0  0  0
  9 40  1  0  0  0  0
 10 11  1  0  0  0  0
 10 12  1  0  0  0  0
 10 31  1  6  0  0  0
 11 41  1  0  0  0  0
 11 42  1  0  0  0  0
 11 43  1  0  0  0  0
 12 13  1  0  0  0  0
 12 44  1  0  0  0  0
 13 14  2  0  0  0  0
 13 15  1  0  0  0  0
 15 16  1  0  0  0  0
 15 45  1  0  0  0  0
 15 46  1  0  0  0  0
 16 24  1  0  0  0  0
 16 17  2  0  0  0  0
 17 18  1  0  0  0  0
 17 25  1  0  0  0  0
 18 19  1  0  0  0  0
 18 47  1  0  0  0  0
 19 24  2  0  0  0  0
 19 20  1  0  0  0  0
 20 21  2  0  0  0  0
 20 48  1  0  0  0  0
 21 22  1  0  0  0  0
 21 49  1  0  0  0  0
 22 23  2  0  0  0  0
 22 50  1  0  0  0  0
 23 24  1  0  0  0  0
 23 51  1  0  0  0  0
 25 26  2  0  0  0  0
 25 30  1  0  0  0  0
 26 27  1  0  0  0  0
 26 52  1  0  0  0  0
 27 28  2  0  0  0  0
 27 53  1  0  0  0  0
 28 29  1  0  0  0  0
 28 54  1  0  0  0  0
 29 30  2  0  0  0  0
 29 55  1  0  0  0  0
 30 56  1  0  0  0  0
M  END
>  <DRUGBANK_ID>
DB07991

>  <COMMON_NAME>
N-[(1R)-3-(4-HYDROXYPHENYL)-1-METHYLPROPYL]-2-(2-PHENYL-1H-INDOL-3-YL)ACETAMIDE

$$$$
