735
 OpenBabel10282417072D

 43 45  0  0  1  0  0  0  0  0999 V2000
    4.5079    0.3982    0.0000 N   0  0  0  0  0  0  0  0  0  0  0  0
    5.2223    0.8107    0.0000 C   0  0  0  0  0  0  0  0  0  0  0  0
    5.2223    1.6357    0.0000 C   0  0  0  0  0  0  0  0  0  0  0  0
    5.9369    2.0482    0.0000 C   0  0  0  0  0  0  0  0  0  0  0  0
    5.9369    2.8732    0.0000 C   0  0  0  0  0  0  0  0  0  0  0  0
    4.5079   -0.4268    0.0000 C   0  0  0  0  0  0  0  0  0  0  0  0
    4.5079    2.0482    0.0000 C   0  0  0  0  0  0  0  0  0  0  0  0
    3.7934    0.8107    0.0000 C   0  0  0  0  0  0  0  0  0  0  0  0
    6.6743    1.6071    0.0000 C   0  0  0  0  0  0  0  0  0  0  0  0
    5.2223    3.2857    0.0000 C   0  0  0  0  0  0  0  0  0  0  0  0
    4.5079    2.8732    0.0000 C   0  0  0  0  0  0  0  0  0  0  0  0
    6.6743    3.3143    0.0000 C   0  0  0  0  0  0  0  0  0  0  0  0
    3.7934   -0.8393    0.0000 C   0  0  0  0  0  0  0  0  0  0  0  0
    7.4219    2.0311    0.0000 C   0  0  0  0  0  0  0  0  0  0  0  0
    7.4219    2.8904    0.0000 C   0  0  0  0  0  0  0  0  0  0  0  0
    3.7934   -1.6643    0.0000 C   0  0  0  0  0  0  0  0  0  0  0  0
    3.0790   -2.0768    0.0000 C   0  0  0  0  0  0  0  0  0  0  0  0
    3.0790   -2.9018    0.0000 C   0  0  0  0  0  0  0  0  0  0  0  0
    2.3644   -1.6643    0.0000 C   0  0  0  0  0  0  0  0  0  0  0  0
    2.3644   -3.3143    0.0000 C   0  0  0  0  0  0  0  0  0  0  0  0
    1.6500   -2.0768    0.0000 C   0  0  0  0  0  0  0  0  0  0  0  0
    1.6500   -2.9018    0.0000 C   0  0  0  0  0  0  0  0  0  0  0  0
    6.1490    0.2757    0.0000 H   0  0  0  0  0  0  0  0  0  0  0  0
    6.1489    1.3457    0.0000 H   0  0  0  0  0  0  0  0  0  0  0  0
    5.4345   -0.9618    0.0000 H   0  0  0  0  0  0  0  0  0  0  0  0
    4.5079   -1.4968    0.0000 H   0  0  0  0  0  0  0  0  0  0  0  0
    3.6142    1.5322    0.0000 H   0  0  0  0  0  0  0  0  0  0  0  0
    3.7934    1.8807    0.0000 H   0  0  0  0  0  0  0  0  0  0  0  0
    2.8668    0.2757    0.0000 H   0  0  0  0  0  0  0  0  0  0  0  0
    2.8667    1.3457    0.0000 H   0  0  0  0  0  0  0  0  0  0  0  0
    6.6623    0.5752    0.0000 H   0  0  0  0  0  0  0  0  0  0  0  0
    5.2222    4.3177    0.0000 H   0  0  0  0  0  0  0  0  0  0  0  0
    3.6142    3.3892    0.0000 H   0  0  0  0  0  0  0  0  0  0  0  0
    6.6623    4.3462    0.0000 H   0  0  0  0  0  0  0  0  0  0  0  0
    2.8997   -0.3233    0.0000 H   0  0  0  0  0  0  0  0  0  0  0  0
    8.3136    1.5117    0.0000 H   0  0  0  0  0  0  0  0  0  0  0  0
    8.3136    3.4099    0.0000 H   0  0  0  0  0  0  0  0  0  0  0  0
    4.6871   -2.1803    0.0000 H   0  0  0  0  0  0  0  0  0  0  0  0
    3.9727   -3.4178    0.0000 H   0  0  0  0  0  0  0  0  0  0  0  0
    2.3643   -0.6323    0.0000 H   0  0  0  0  0  0  0  0  0  0  0  0
    2.3643   -4.3463    0.0000 H   0  0  0  0  0  0  0  0  0  0  0  0
    0.7563   -1.5608    0.0000 H   0  0  0  0  0  0  0  0  0  0  0  0
    0.7563   -3.4178    0.0000 H   0  0  0  0  0  0  0  0  0  0  0  0
  1  2  1  0  0  0  0
  1  6  1  0  0  0  0
  1  8  1  0  0  0  0
  2  3  1  0  0  0  0
  2 23  1  0  0  0  0
  2 24  1  0  0  0  0
  3  4  1  0  0  0  0
  3  7  2  0  0  0  0
  4  5  1  0  0  0  0
  4  9  2  0  0  0  0
  5 10  1  0  0  0  0
  5 12  2  0  0  0  0
  6 13  1  0  0  0  0
  6 25  1  0  0  0  0
  6 26  1  0  0  0  0
  7 11  1  0  0  0  0
  7 27  1  0  0  0  0
  8 28  1  0  0  0  0
  8 29  1  0  0  0  0
  8 30  1  0  0  0  0
  9 14  1  0  0  0  0
  9 31  1  0  0  0  0
 10 11  2  0  0  0  0
 10 32  1  0  0  0  0
 11 33  1  0  0  0  0
 12 15  1  0  0  0  0
 12 34  1  0  0  0  0
 13 16  2  3  0  0  0
 13 35  1  0  0  0  0
 14 15  2  0  0  0  0
 14 36  1  0  0  0  0
 15 37  1  0  0  0  0
 16 17  1  0  0  0  0
 16 38  1  0  0  0  0
 17 18  2  0  0  0  0
 17 19  1  0  0  0  0
 18 20  1  0  0  0  0
 18 39  1  0  0  0  0
 19 21  2  0  0  0  0
 19 40  1  0  0  0  0
 20 22  2  0  0  0  0
 20 41  1  0  0  0  0
 21 22  1  0  0  0  0
 21 42  1  0  0  0  0
 22 43  1  0  0  0  0
M  END
>  <DRUGBANK_ID>
DB00735

>  <SECONDARY_ACCESSION_NUMBERS>
APRD01131

>  <COMMON_NAME>
Naftifine

>  <CAS_NUMBER>
65472-88-0

>  <UNII>
4FB1TON47A

>  <SYNONYMS>
Naftifin; Naftifina; Naftifine; Naftifinum

$$$$
