
 OpenBabel10282417072D

 32 32  0  0  1  0  0  0  0  0999 V2000
   -0.7145    0.4125    0.0000 C   0  0  0  0  0  0  0  0  0  0  0  0
   -0.7145   -0.4125    0.0000 C   0  0  0  0  0  0  0  0  0  0  0  0
    0.0000   -0.8250    0.0000 C   0  0  0  0  0  0  0  0  0  0  0  0
    0.0000    0.8250    0.0000 C   0  0  0  0  0  0  0  0  0  0  0  0
    0.7145   -0.4125    0.0000 C   0  0  0  0  0  0  0  0  0  0  0  0
    0.7145    0.4125    0.0000 C   0  0  0  0  0  0  0  0  0  0  0  0
   -1.4289   -0.8250    0.0000 C   0  0  2  0  0  0  0  0  0  0  0  0
   -2.1434   -0.4125    0.0000 C   0  0  2  0  0  0  0  0  0  0  0  0
   -1.4289   -1.6500    0.0000 O   0  0  0  0  0  0  0  0  0  0  0  0
   -2.8579   -0.8250    0.0000 N   0  0  0  0  0  0  0  0  0  0  0  0
   -2.1434    0.4125    0.0000 C   0  0  0  0  0  0  0  0  0  0  0  0
   -3.5724   -0.4125    0.0000 C   0  0  0  0  0  0  0  0  0  0  0  0
   -1.4289    0.8250    0.0000 O   0  0  0  0  0  0  0  0  0  0  0  0
    1.4289    0.8250    0.0000 N   0  3  0  0  0  0  0  0  0  0  0  0
   -4.2868   -0.8250    0.0000 C   0  0  0  0  0  0  0  0  0  0  0  0
   -3.5724    0.4125    0.0000 O   0  0  0  0  0  0  0  0  0  0  0  0
    2.1434    0.4125    0.0000 O   0  5  0  0  0  0  0  0  0  0  0  0
    1.4289    1.6500    0.0000 O   0  0  0  0  0  0  0  0  0  0  0  0
   -4.2868   -1.6500    0.0000 Cl  0  0  0  0  0  0  0  0  0  0  0  0
   -5.0013   -0.4125    0.0000 Cl  0  0  0  0  0  0  0  0  0  0  0  0
   -1.6082    0.9285    0.0000 H   0  0  0  0  0  0  0  0  0  0  0  0
    0.0000   -1.8570    0.0000 H   0  0  0  0  0  0  0  0  0  0  0  0
    0.0000    1.8570    0.0000 H   0  0  0  0  0  0  0  0  0  0  0  0
    1.6082   -0.9285    0.0000 H   0  0  0  0  0  0  0  0  0  0  0  0
   -0.5022   -1.3600    0.0000 H   0  0  0  0  0  0  0  0  0  0  0  0
   -1.2168    0.1225    0.0000 H   0  0  0  0  0  0  0  0  0  0  0  0
   -2.2689   -2.1350    0.0000 H   0  0  0  0  0  0  0  0  0  0  0  0
   -2.8579   -1.8095    0.0000 H   0  0  0  0  0  0  0  0  0  0  0  0
   -3.0700    0.9475    0.0000 H   0  0  0  0  0  0  0  0  0  0  0  0
   -2.1434    1.4825    0.0000 H   0  0  0  0  0  0  0  0  0  0  0  0
   -0.5889    0.3400    0.0000 H   0  0  0  0  0  0  0  0  0  0  0  0
   -5.2134   -1.3600    0.0000 H   0  0  0  0  0  0  0  0  0  0  0  0
  1  4  1  0  0  0  0
  1 21  1  0  0  0  0
  2  1  2  0  0  0  0
  2  7  1  0  0  0  0
  2  3  1  0  0  0  0
  3  5  2  0  0  0  0
  3 22  1  0  0  0  0
  4  6  2  0  0  0  0
  4 23  1  0  0  0  0
  5  6  1  0  0  0  0
  5 24  1  0  0  0  0
  6 14  1  0  0  0  0
  7  8  1  0  0  0  0
  7  9  1  0  0  0  0
  7 25  1  6  0  0  0
  8 10  1  0  0  0  0
  8 11  1  0  0  0  0
  8 26  1  1  0  0  0
  9 27  1  0  0  0  0
 10 12  1  0  0  0  0
 10 28  1  0  0  0  0
 11 13  1  0  0  0  0
 11 29  1  0  0  0  0
 11 30  1  0  0  0  0
 12 15  1  0  0  0  0
 12 16  2  0  0  0  0
 13 31  1  0  0  0  0
 14 17  1  0  0  0  0
 14 18  2  0  0  0  0
 15 19  1  0  0  0  0
 15 20  1  0  0  0  0
 15 32  1  0  0  0  0
M  CHG  2  14   1  17  -1
M  END
>  <DRUGBANK_ID>
DB00446

>  <SECONDARY_ACCESSION_NUMBERS>
APRD00862; EXPT00942

>  <COMMON_NAME>
Chloramphenicol

>  <CAS_NUMBER>
56-75-7

>  <UNII>
66974FR9Q1

>  <SYNONYMS>
Chloramphénicol; Chloramphenicol; Chloramphenicolum; Chlornitromycin; Cloramfenicol; Cloranfenicol; D-(−)-2,2-dichloro-N-(β-hydroxy-α-(hydroxymethyl)-p-nitrophenylethyl)acetamide; D-(−)-threo-1-p-nitrophenyl-2-dichloroacetylamino-1,3-propanediol; Laevomycetinum; Levomicetina; Levomycetin

$$$$
