175
 OpenBabel10282417072D

 66 67  0  0  1  0  0  0  0  0999 V2000
    3.0790    0.8556    0.0000 O   0  0  0  0  0  0  0  0  0  0  0  0
    1.6500    3.3306    0.0000 O   0  0  0  0  0  0  0  0  0  0  0  0
    4.5023   -0.8228    0.0000 O   0  0  0  0  0  0  0  0  0  0  0  0
    1.6500    0.8556    0.0000 O   0  0  0  0  0  0  0  0  0  0  0  0
    5.2025   -2.0685    0.0000 O   0  0  0  0  0  0  0  0  0  0  0  0
    7.3314   -3.3307    0.0000 O   0  0  0  0  0  0  0  0  0  0  0  0
    5.9026   -3.3142    0.0000 O   0  0  0  0  0  0  0  0  0  0  0  0
    3.7935    2.0931    0.0000 C   0  0  1  0  0  0  0  0  0  0  0  0
    4.5309    1.6521    0.0000 C   0  0  2  0  0  0  0  0  0  0  0  0
    3.0790    1.6806    0.0000 C   0  0  2  0  0  0  0  0  0  0  0  0
    5.2785    2.0760    0.0000 C   0  0  2  0  0  0  0  0  0  0  0  0
    4.5214    0.8271    0.0000 C   0  0  0  0  0  0  0  0  0  0  0  0
    3.7935    2.9181    0.0000 C   0  0  0  0  0  0  0  0  0  0  0  0
    2.3645    2.0931    0.0000 C   0  0  0  0  0  0  0  0  0  0  0  0
    2.3645    2.9181    0.0000 C   0  0  1  0  0  0  0  0  0  0  0  0
    5.2785    2.9354    0.0000 C   0  0  0  0  0  0  0  0  0  0  0  0
    5.2310    0.4064    0.0000 C   0  0  0  0  0  0  0  0  0  0  0  0
    3.0790    3.3306    0.0000 C   0  0  0  0  0  0  0  0  0  0  0  0
    4.5309    3.3593    0.0000 C   0  0  0  0  0  0  0  0  0  0  0  0
    5.9913    1.6607    0.0000 C   0  0  0  0  0  0  0  0  0  0  0  0
    5.2215   -0.4186    0.0000 C   0  0  2  0  0  0  0  0  0  0  0  0
    5.9312   -0.8394    0.0000 C   0  0  0  0  0  0  0  0  0  0  0  0
    2.3645    0.4431    0.0000 C   0  0  0  0  0  0  0  0  0  0  0  0
    5.9216   -1.6643    0.0000 C   0  0  2  0  0  0  0  0  0  0  0  0
    2.3645   -0.3819    0.0000 C   0  0  2  0  0  0  0  0  0  0  0  0
    6.6313   -2.0850    0.0000 C   0  0  0  0  0  0  0  0  0  0  0  0
    1.6500   -0.7944    0.0000 C   0  0  0  0  0  0  0  0  0  0  0  0
    3.0790   -0.7944    0.0000 C   0  0  0  0  0  0  0  0  0  0  0  0
    1.6500   -1.6194    0.0000 C   0  0  0  0  0  0  0  0  0  0  0  0
    6.6217   -2.9100    0.0000 C   0  0  0  0  0  0  0  0  0  0  0  0
    3.7883    1.4332    0.0000 H   0  0  0  0  0  0  0  0  0  0  0  0
    1.6500    4.3006    0.0000 H   0  0  0  0  0  0  0  0  0  0  0  0
    3.6679   -0.3281    0.0000 H   0  0  0  0  0  0  0  0  0  0  0  0
    4.3681   -1.5739    0.0000 H   0  0  0  0  0  0  0  0  0  0  0  0
    7.3206   -4.2676    0.0000 H   0  0  0  0  0  0  0  0  0  0  0  0
    3.5971    1.1296    0.0000 H   0  0  0  0  0  0  0  0  0  0  0  0
    4.0056    1.1456    0.0000 H   0  0  0  0  0  0  0  0  0  0  0  0
    5.2722    1.0060    0.0000 H   0  0  0  0  0  0  0  0  0  0  0  0
    3.5886    0.3028    0.0000 H   0  0  0  0  0  0  0  0  0  0  0  0
    4.5090   -0.2428    0.0000 H   0  0  0  0  0  0  0  0  0  0  0  0
    1.4379    1.5581    0.0000 H   0  0  0  0  0  0  0  0  0  0  0  0
    1.4379    2.6281    0.0000 H   0  0  0  0  0  0  0  0  0  0  0  0
    1.4379    2.3831    0.0000 H   0  0  0  0  0  0  0  0  0  0  0  0
    6.1702    3.4549    0.0000 H   0  0  0  0  0  0  0  0  0  0  0  0
    6.1638    0.9307    0.0000 H   0  0  0  0  0  0  0  0  0  0  0  0
    6.1514   -0.1392    0.0000 H   0  0  0  0  0  0  0  0  0  0  0  0
    3.0790    4.3626    0.0000 H   0  0  0  0  0  0  0  0  0  0  0  0
    4.5188    4.3912    0.0000 H   0  0  0  0  0  0  0  0  0  0  0  0
    5.9871    0.5907    0.0000 H   0  0  0  0  0  0  0  0  0  0  0  0
    6.9201    2.1920    0.0000 H   0  0  0  0  0  0  0  0  0  0  0  0
    6.9158    1.1220    0.0000 H   0  0  0  0  0  0  0  0  0  0  0  0
    4.3011    0.1271    0.0000 H   0  0  0  0  0  0  0  0  0  0  0  0
    6.8640   -0.3152    0.0000 H   0  0  0  0  0  0  0  0  0  0  0  0
    6.8516   -1.3851    0.0000 H   0  0  0  0  0  0  0  0  0  0  0  0
    5.0012   -1.1186    0.0000 H   0  0  0  0  0  0  0  0  0  0  0  0
    3.2911    0.1531    0.0000 H   0  0  0  0  0  0  0  0  0  0  0  0
    7.5641   -1.5608    0.0000 H   0  0  0  0  0  0  0  0  0  0  0  0
    7.5517   -2.6307    0.0000 H   0  0  0  0  0  0  0  0  0  0  0  0
    0.7234   -0.2594    0.0000 H   0  0  0  0  0  0  0  0  0  0  0  0
    0.7234   -1.3294    0.0000 H   0  0  0  0  0  0  0  0  0  0  0  0
    3.0790   -1.8644    0.0000 H   0  0  0  0  0  0  0  0  0  0  0  0
    4.0056   -0.2594    0.0000 H   0  0  0  0  0  0  0  0  0  0  0  0
    4.0057   -1.3294    0.0000 H   0  0  0  0  0  0  0  0  0  0  0  0
    0.7234   -2.1544    0.0000 H   0  0  0  0  0  0  0  0  0  0  0  0
    2.5766   -2.1544    0.0000 H   0  0  0  0  0  0  0  0  0  0  0  0
    1.6500   -2.6894    0.0000 H   0  0  0  0  0  0  0  0  0  0  0  0
  1 23  1  0  0  0  0
  2 32  1  0  0  0  0
  3 33  1  0  0  0  0
  4 23  2  0  0  0  0
  5 34  1  0  0  0  0
  6 30  1  0  0  0  0
  6 35  1  0  0  0  0
  7 30  2  0  0  0  0
  8  9  1  0  0  0  0
  8 10  1  0  0  0  0
  8 13  1  0  0  0  0
  8 31  1  6  0  0  0
  9 11  1  0  0  0  0
  9 12  1  0  0  0  0
  9 36  1  1  0  0  0
 10  1  1  0  0  0  0
 10 14  1  0  0  0  0
 10 37  1  6  0  0  0
 11 16  1  0  0  0  0
 11 20  1  0  0  0  0
 11 38  1  1  0  0  0
 12 17  1  0  0  0  0
 12 39  1  0  0  0  0
 12 40  1  0  0  0  0
 13 18  2  0  0  0  0
 13 19  1  0  0  0  0
 14 15  1  0  0  0  0
 14 41  1  0  0  0  0
 14 42  1  0  0  0  0
 15  2  1  0  0  0  0
 15 18  1  0  0  0  0
 15 43  1  1  0  0  0
 16 19  2  0  0  0  0
 16 44  1  0  0  0  0
 17 21  1  0  0  0  0
 17 45  1  0  0  0  0
 17 46  1  0  0  0  0
 18 47  1  0  0  0  0
 19 48  1  0  0  0  0
 20 49  1  0  0  0  0
 20 50  1  0  0  0  0
 20 51  1  0  0  0  0
 21  3  1  0  0  0  0
 21 22  1  0  0  0  0
 21 52  1  1  0  0  0
 22 24  1  0  0  0  0
 22 53  1  0  0  0  0
 22 54  1  0  0  0  0
 23 25  1  0  0  0  0
 24  5  1  0  0  0  0
 24 26  1  0  0  0  0
 24 55  1  1  0  0  0
 25 27  1  0  0  0  0
 25 28  1  0  0  0  0
 25 56  1  6  0  0  0
 26 30  1  0  0  0  0
 26 57  1  0  0  0  0
 26 58  1  0  0  0  0
 27 29  1  0  0  0  0
 27 59  1  0  0  0  0
 27 60  1  0  0  0  0
 28 61  1  0  0  0  0
 28 62  1  0  0  0  0
 28 63  1  0  0  0  0
 29 64  1  0  0  0  0
 29 65  1  0  0  0  0
 29 66  1  0  0  0  0
M  END
>  <DRUGBANK_ID>
DB00175

>  <SECONDARY_ACCESSION_NUMBERS>
APRD00328

>  <COMMON_NAME>
Pravastatin

>  <CAS_NUMBER>
81093-37-0

>  <UNII>
KXO2KT9N0G

>  <SYNONYMS>
(+)-(3R,5R)-3,5-dihydroxy-7-[(1S,2S,6S,8S,8aR)-6-hydroxy-2-methyl-8-{[(S)-2-methylbutyryl]oxy}-1,2,6,7,8,8a-hexahydro-1-naphthyl]heptanoic acid; Pravastatin; Pravastatin acid; Pravastatina; Pravastatine; Pravastatinum

$$$$
