
 OpenBabel10282417072D

 51 54  0  0  0  0  0  0  0  0999 V2000
    1.1616    0.8390    0.0000 C   0  0  0  0  0  0  0  0  0  0  0  0
    1.7450    0.2556    0.0000 C   0  0  0  0  0  0  0  0  0  0  0  0
    1.1616   -0.3276    0.0000 N   0  0  0  0  0  0  0  0  0  0  0  0
    0.5782    0.2556    0.0000 C   0  0  0  0  0  0  0  0  0  0  0  0
    0.5782    1.4224    0.0000 O   0  0  0  0  0  0  0  0  0  0  0  0
    1.7450    1.4224    0.0000 C   0  0  2  0  0  0  0  0  0  0  0  0
   -0.2672   -1.1526    0.0000 C   0  0  0  0  0  0  0  0  0  0  0  0
    0.4471   -1.5651    0.0000 C   0  0  0  0  0  0  0  0  0  0  0  0
   -0.2672   -0.3276    0.0000 N   0  0  0  0  0  0  0  0  0  0  0  0
   -0.9818   -1.5651    0.0000 C   0  0  0  0  0  0  0  0  0  0  0  0
   -1.6962   -1.1526    0.0000 F   0  0  0  0  0  0  0  0  0  0  0  0
   -0.9818   -2.3901    0.0000 C   0  0  0  0  0  0  0  0  0  0  0  0
   -1.6962   -2.8026    0.0000 F   0  0  0  0  0  0  0  0  0  0  0  0
   -0.2672   -2.8026    0.0000 C   0  0  0  0  0  0  0  0  0  0  0  0
    0.4471   -2.3901    0.0000 C   0  0  0  0  0  0  0  0  0  0  0  0
    1.1616   -1.1526    0.0000 C   0  0  0  0  0  0  0  0  0  0  0  0
    1.8761   -1.5651    0.0000 O   0  0  0  0  0  0  0  0  0  0  0  0
   -1.6962    1.3223    0.0000 C   0  0  0  0  0  0  0  0  0  0  0  0
   -0.9818    0.9098    0.0000 C   0  0  0  0  0  0  0  0  0  0  0  0
   -2.4108    0.9098    0.0000 C   0  0  0  0  0  0  0  0  0  0  0  0
   -2.4108    0.0848    0.0000 C   0  0  0  0  0  0  0  0  0  0  0  0
   -1.6962   -0.3276    0.0000 C   0  0  0  0  0  0  0  0  0  0  0  0
   -0.9818    0.0848    0.0000 C   0  0  0  0  0  0  0  0  0  0  0  0
   -0.2672    1.3223    0.0000 F   0  0  0  0  0  0  0  0  0  0  0  0
   -3.1252    1.3223    0.0000 I   0  0  0  0  0  0  0  0  0  0  0  0
    2.1148    2.8026    0.0000 C   0  0  0  0  0  0  0  0  0  0  0  0
    1.5314    2.2192    0.0000 C   0  0  0  0  0  0  0  0  0  0  0  0
    2.5419    1.2088    0.0000 N   0  0  0  0  0  0  0  0  0  0  0  0
    3.1252    1.7922    0.0000 C   0  0  0  0  0  0  0  0  0  0  0  0
    2.9117    2.5891    0.0000 C   0  0  0  0  0  0  0  0  0  0  0  0
    2.8150    0.2555    0.0000 H   0  0  0  0  0  0  0  0  0  0  0  0
    2.1543   -0.7330    0.0000 H   0  0  0  0  0  0  0  0  0  0  0  0
   -0.4918    0.2555    0.0000 H   0  0  0  0  0  0  0  0  0  0  0  0
    0.1689   -0.7330    0.0000 H   0  0  0  0  0  0  0  0  0  0  0  0
    0.8293    2.3593    0.0000 H   0  0  0  0  0  0  0  0  0  0  0  0
    0.7114    1.6993    0.0000 H   0  0  0  0  0  0  0  0  0  0  0  0
    0.5854    0.1647    0.0000 H   0  0  0  0  0  0  0  0  0  0  0  0
   -0.2671   -3.8346    0.0000 H   0  0  0  0  0  0  0  0  0  0  0  0
    1.3409   -2.9061    0.0000 H   0  0  0  0  0  0  0  0  0  0  0  0
   -1.6961    2.3543    0.0000 H   0  0  0  0  0  0  0  0  0  0  0  0
   -3.3045   -0.4313    0.0000 H   0  0  0  0  0  0  0  0  0  0  0  0
   -1.6961   -1.3596    0.0000 H   0  0  0  0  0  0  0  0  0  0  0  0
    1.8378    3.8361    0.0000 H   0  0  0  0  0  0  0  0  0  0  0  0
    2.8714    3.5592    0.0000 H   0  0  0  0  0  0  0  0  0  0  0  0
    0.4978    2.4961    0.0000 H   0  0  0  0  0  0  0  0  0  0  0  0
    1.2544    3.2527    0.0000 H   0  0  0  0  0  0  0  0  0  0  0  0
    2.8059    0.2236    0.0000 H   0  0  0  0  0  0  0  0  0  0  0  0
    4.1587    1.5153    0.0000 H   0  0  0  0  0  0  0  0  0  0  0  0
    3.8818    2.5488    0.0000 H   0  0  0  0  0  0  0  0  0  0  0  0
    3.6683    3.3457    0.0000 H   0  0  0  0  0  0  0  0  0  0  0  0
    3.9452    2.3121    0.0000 H   0  0  0  0  0  0  0  0  0  0  0  0
  1  2  1  0  0  0  0
  1  5  1  0  0  0  0
  2  3  1  0  0  0  0
  2 31  1  0  0  0  0
  2 32  1  0  0  0  0
  3  4  1  0  0  0  0
  4  1  1  0  0  0  0
  4 33  1  0  0  0  0
  4 34  1  0  0  0  0
  5 35  1  0  0  0  0
  6  1  1  0  0  0  0
  6 28  1  0  0  0  0
  6 36  1  1  0  0  0
  7  8  2  0  0  0  0
  7 10  1  0  0  0  0
  9  7  1  0  0  0  0
  9 37  1  0  0  0  0
 10 12  2  0  0  0  0
 11 10  1  0  0  0  0
 12 13  1  0  0  0  0
 12 14  1  0  0  0  0
 14 15  2  0  0  0  0
 14 38  1  0  0  0  0
 15  8  1  0  0  0  0
 15 39  1  0  0  0  0
 16  3  1  0  0  0  0
 16  8  1  0  0  0  0
 17 16  2  0  0  0  0
 18 19  1  0  0  0  0
 18 20  2  0  0  0  0
 18 40  1  0  0  0  0
 19 23  2  0  0  0  0
 20 21  1  0  0  0  0
 20 25  1  0  0  0  0
 21 22  2  0  0  0  0
 21 41  1  0  0  0  0
 22 42  1  0  0  0  0
 23  9  1  0  0  0  0
 23 22  1  0  0  0  0
 24 19  1  0  0  0  0
 26 27  1  0  0  0  0
 26 30  1  0  0  0  0
 26 43  1  0  0  0  0
 26 44  1  0  0  0  0
 27  6  1  0  0  0  0
 27 45  1  0  0  0  0
 27 46  1  0  0  0  0
 28 29  1  0  0  0  0
 28 47  1  0  0  0  0
 29 30  1  0  0  0  0
 29 48  1  0  0  0  0
 29 49  1  0  0  0  0
 30 50  1  0  0  0  0
 30 51  1  0  0  0  0
M  END
>  <DRUGBANK_ID>
DB05239

>  <COMMON_NAME>
Cobimetinib

>  <CAS_NUMBER>
934660-93-2

>  <UNII>
ER29L26N1X

>  <SYNONYMS>
Cobimetinib

$$$$
