
 OpenBabel10282417072D

 85 86  0  0  1  0  0  0  0  0999 V2000
    0.1952   -3.2982    0.0000 C   0  0  0  0  0  0  0  0  0  0  0  0
    5.3472   -3.3330    0.0000 C   0  0  0  0  0  0  0  0  0  0  0  0
    4.9645    1.2415    0.0000 C   0  0  0  0  0  0  0  0  0  0  0  0
    5.6360   -2.9127    0.0000 C   0  0  0  0  0  0  0  0  0  0  0  0
    5.7528   -1.9628    0.0000 C   0  0  0  0  0  0  0  0  0  0  0  0
    8.3012   -0.2245    0.0000 C   0  0  0  0  0  0  0  0  0  0  0  0
    5.3272   -6.3075    0.0000 C   0  0  0  0  0  0  0  0  0  0  0  0
    0.9863   -3.5324    0.0000 C   0  0  0  0  0  0  0  0  0  0  0  0
    6.7951    0.5806    0.0000 C   0  0  0  0  0  0  0  0  0  0  0  0
    6.0506    0.2253    0.0000 C   0  0  0  0  0  0  0  0  0  0  0  0
    7.3631   -0.0177    0.0000 C   0  0  0  0  0  0  0  0  0  0  0  0
    1.5846   -2.9644    0.0000 C   0  0  0  0  0  0  0  0  0  0  0  0
    3.9578   -3.6668    0.0000 C   0  0  0  0  0  0  0  0  0  0  0  0
    4.9417   -4.7032    0.0000 C   0  0  0  0  0  0  0  0  0  0  0  0
    6.7366   -2.9991    0.0000 C   0  0  0  0  0  0  0  0  0  0  0  0
    3.3796   -1.2603    0.0000 C   0  0  0  0  0  0  0  0  0  0  0  0
    4.7489   -3.9010    0.0000 C   0  0  2  0  0  0  0  0  0  0  0  0
    5.1746    0.4437    0.0000 C   0  0  0  0  0  0  0  0  0  0  0  0
    6.1383   -3.5672    0.0000 C   0  0  1  0  0  0  0  0  0  0  0  0
    6.5439   -2.1970    0.0000 C   0  0  0  0  0  0  0  0  0  0  0  0
    3.7651   -2.8647    0.0000 C   0  0  0  0  0  0  0  0  0  0  0  0
    4.1707   -1.4945    0.0000 C   0  0  0  0  0  0  0  0  0  0  0  0
    2.7813   -1.8283    0.0000 C   0  0  0  0  0  0  0  0  0  0  0  0
    6.9696   -0.7428    0.0000 C   0  0  1  0  0  0  0  0  0  0  0  0
    5.7327   -4.9373    0.0000 C   0  0  1  0  0  0  0  0  0  0  0  0
    2.9740   -2.6305    0.0000 C   0  0  0  0  0  0  0  0  0  0  0  0
    6.3311   -4.3693    0.0000 C   0  0  2  0  0  0  0  0  0  0  0  0
    4.3634   -2.2967    0.0000 C   0  0  0  0  0  0  0  0  0  0  0  0
    7.1422   -1.6290    0.0000 C   0  0  1  0  0  0  0  0  0  0  0  0
    4.5763   -0.1243    0.0000 C   0  0  0  0  0  0  0  0  0  0  0  0
    8.1033   -2.6864    0.0000 C   0  0  0  0  0  0  0  0  0  0  0  0
    8.8891   -2.9377    0.0000 N   0  0  0  0  0  0  0  0  0  0  0  0
    2.3757   -3.1985    0.0000 N   0  0  0  0  0  0  0  0  0  0  0  0
    4.7690   -0.9265    0.0000 N   0  0  0  0  0  0  0  0  0  0  0  0
    1.9902   -1.5942    0.0000 O   0  0  0  0  0  0  0  0  0  0  0  0
    7.1221   -4.6035    0.0000 O   0  0  0  0  0  0  0  0  0  0  0  0
    5.1545   -2.5308    0.0000 O   0  0  0  0  0  0  0  0  0  0  0  0
    3.7852    0.1098    0.0000 O   0  0  0  0  0  0  0  0  0  0  0  0
    7.4928   -3.2413    0.0000 O   0  0  0  0  0  0  0  0  0  0  0  0
    7.7850   -0.8681    0.0000 O   0  0  0  0  0  0  0  0  0  0  0  0
    5.9255   -5.7395    0.0000 O   0  0  0  0  0  0  0  0  0  0  0  0
    7.9280   -1.8802    0.0000 O   0  0  0  0  0  0  0  0  0  0  0  0
    6.9453    1.3918    0.0000 H   0  0  0  0  0  0  0  0  0  0  0  0
    6.1333   -0.5956    0.0000 H   0  0  0  0  0  0  0  0  0  0  0  0
    7.7689    0.7006    0.0000 H   0  0  0  0  0  0  0  0  0  0  0  0
    6.9205   -3.8034    0.0000 H   0  0  0  0  0  0  0  0  0  0  0  0
    4.5562   -3.0988    0.0000 H   0  0  0  0  0  0  0  0  0  0  0  0
    5.5400   -4.1352    0.0000 H   0  0  0  0  0  0  0  0  0  0  0  0
    6.3915   -1.3314    0.0000 H   0  0  0  0  0  0  0  0  0  0  0  0
    5.1344   -5.5053    0.0000 H   0  0  0  0  0  0  0  0  0  0  0  0
    6.5238   -5.1715    0.0000 H   0  0  0  0  0  0  0  0  0  0  0  0
    7.3262   -2.4332    0.0000 H   0  0  0  0  0  0  0  0  0  0  0  0
   -0.0459   -2.2948    0.0000 H   0  0  0  0  0  0  0  0  0  0  0  0
   -0.5533   -4.0087    0.0000 H   0  0  0  0  0  0  0  0  0  0  0  0
    6.3732   -3.6367    0.0000 H   0  0  0  0  0  0  0  0  0  0  0  0
    5.0972   -2.2926    0.0000 H   0  0  0  0  0  0  0  0  0  0  0  0
    6.1232   -2.5963    0.0000 H   0  0  0  0  0  0  0  0  0  0  0  0
    5.7243    1.9948    0.0000 H   0  0  0  0  0  0  0  0  0  0  0  0
    3.9322    1.5229    0.0000 H   0  0  0  0  0  0  0  0  0  0  0  0
    4.6920    2.2762    0.0000 H   0  0  0  0  0  0  0  0  0  0  0  0
    6.0454   -1.9241    0.0000 H   0  0  0  0  0  0  0  0  0  0  0  0
    4.5752   -3.0524    0.0000 H   0  0  0  0  0  0  0  0  0  0  0  0
    4.9846   -2.0639    0.0000 H   0  0  0  0  0  0  0  0  0  0  0  0
    5.5029   -0.9224    0.0000 H   0  0  0  0  0  0  0  0  0  0  0  0
    4.9768   -2.6995    0.0000 H   0  0  0  0  0  0  0  0  0  0  0  0
    4.7268   -1.6591    0.0000 H   0  0  0  0  0  0  0  0  0  0  0  0
    9.3588   -0.3869    0.0000 H   0  0  0  0  0  0  0  0  0  0  0  0
    7.9131    0.7726    0.0000 H   0  0  0  0  0  0  0  0  0  0  0  0
    8.9707    0.6102    0.0000 H   0  0  0  0  0  0  0  0  0  0  0  0
    4.3012   -6.0038    0.0000 H   0  0  0  0  0  0  0  0  0  0  0  0
    5.5772   -7.3479    0.0000 H   0  0  0  0  0  0  0  0  0  0  0  0
    4.5512   -7.0442    0.0000 H   0  0  0  0  0  0  0  0  0  0  0  0
    1.2274   -4.5358    0.0000 H   0  0  0  0  0  0  0  0  0  0  0  0
    1.3346   -1.9240    0.0000 H   0  0  0  0  0  0  0  0  0  0  0  0
    2.3606   -2.2277    0.0000 H   0  0  0  0  0  0  0  0  0  0  0  0
    3.1818   -4.4035    0.0000 H   0  0  0  0  0  0  0  0  0  0  0  0
    2.9318   -3.3631    0.0000 H   0  0  0  0  0  0  0  0  0  0  0  0
    4.1657   -5.4399    0.0000 H   0  0  0  0  0  0  0  0  0  0  0  0
    5.1917   -5.7436    0.0000 H   0  0  0  0  0  0  0  0  0  0  0  0
    3.1385   -0.2569    0.0000 H   0  0  0  0  0  0  0  0  0  0  0  0
    9.0983   -3.8997    0.0000 H   0  0  0  0  0  0  0  0  0  0  0  0
    2.6058   -4.1557    0.0000 H   0  0  0  0  0  0  0  0  0  0  0  0
    7.3487   -5.5467    0.0000 H   0  0  0  0  0  0  0  0  0  0  0  0
    3.5662    1.0209    0.0000 H   0  0  0  0  0  0  0  0  0  0  0  0
    6.6003   -2.9559    0.0000 H   0  0  0  0  0  0  0  0  0  0  0  0
  1 53  1  0  0  0  0
  1 54  1  0  0  0  0
  2 55  1  0  0  0  0
  2 56  1  0  0  0  0
  2 57  1  0  0  0  0
  3 58  1  0  0  0  0
  3 59  1  0  0  0  0
  3 60  1  0  0  0  0
  4 61  1  0  0  0  0
  4 62  1  0  0  0  0
  4 63  1  0  0  0  0
  5 64  1  0  0  0  0
  5 65  1  0  0  0  0
  5 66  1  0  0  0  0
  6 67  1  0  0  0  0
  6 68  1  0  0  0  0
  6 69  1  0  0  0  0
  7 70  1  0  0  0  0
  7 71  1  0  0  0  0
  7 72  1  0  0  0  0
  8  1  2  0  0  0  0
  8 73  1  0  0  0  0
 10  9  1  0  0  0  0
 11  9  2  0  0  0  0
 12  8  1  0  0  0  0
 12 74  1  0  0  0  0
 12 75  1  0  0  0  0
 13 76  1  0  0  0  0
 13 77  1  0  0  0  0
 14 78  1  0  0  0  0
 14 79  1  0  0  0  0
 16 80  1  0  0  0  0
 17  2  1  0  0  0  0
 17 13  1  0  0  0  0
 17 14  1  0  0  0  0
 17 47  1  6  0  0  0
 18  3  1  0  0  0  0
 18 10  2  0  0  0  0
 19  4  1  0  0  0  0
 19 15  1  0  0  0  0
 19 48  1  6  0  0  0
 20  5  1  0  0  0  0
 20 15  2  0  0  0  0
 21 13  1  0  0  0  0
 22 16  2  0  0  0  0
 23 16  1  0  0  0  0
 24 11  1  0  0  0  0
 24 40  1  0  0  0  0
 24 49  1  1  0  0  0
 25 14  1  0  0  0  0
 25 41  1  0  0  0  0
 25 50  1  6  0  0  0
 26 21  2  0  0  0  0
 26 23  1  0  0  0  0
 27 19  1  0  0  0  0
 27 25  1  0  0  0  0
 27 36  1  0  0  0  0
 27 51  1  6  0  0  0
 28 21  1  0  0  0  0
 28 22  1  0  0  0  0
 29 20  1  0  0  0  0
 29 24  1  0  0  0  0
 29 42  1  0  0  0  0
 29 52  1  6  0  0  0
 30 18  1  0  0  0  0
 32 31  2  0  0  0  0
 32 81  1  0  0  0  0
 33 12  1  0  0  0  0
 33 26  1  0  0  0  0
 33 82  1  0  0  0  0
 34 22  1  0  0  0  0
 34 30  2  3  0  0  0
 35 23  2  0  0  0  0
 36 83  1  0  0  0  0
 37 28  2  0  0  0  0
 38 30  1  0  0  0  0
 38 84  1  0  0  0  0
 39 31  1  0  0  0  0
 39 85  1  0  0  0  0
 40  6  1  0  0  0  0
 41  7  1  0  0  0  0
 42 31  1  0  0  0  0
 43  9  1  0  0  0  0
 44 10  1  0  0  0  0
 45 11  1  0  0  0  0
 46 15  1  0  0  0  0
M  END
>  <DRUGBANK_ID>
DB05134

>  <SECONDARY_ACCESSION_NUMBERS>
DB06398

>  <COMMON_NAME>
Tanespimycin

>  <CAS_NUMBER>
75747-14-7

>  <UNII>
4GY0AVT3L4

>  <SYNONYMS>
17-allylamino-17-demethoxygeldanamycin; 17-allylamino-17-demethoxygeldanamycin (17-AGG); 17AAG; Tanespimycin; tanespimycina

$$$$
