
 OpenBabel10282417072D

 39 41  0  0  0  0  0  0  0  0999 V2000
    5.7157    0.8250    0.0000 C   0  0  0  0  0  0  0  0  0  0  0  0
    5.0012    1.2375    0.0000 C   0  0  0  0  0  0  0  0  0  0  0  0
    5.7157    0.0000    0.0000 C   0  0  0  0  0  0  0  0  0  0  0  0
    0.0000    0.0000    0.0000 C   0  0  0  0  0  0  0  0  0  0  0  0
    0.7144   -0.4125    0.0000 C   0  0  0  0  0  0  0  0  0  0  0  0
    0.5357   -2.6420    0.0000 C   0  0  0  0  0  0  0  0  0  0  0  0
    1.3427   -2.4704    0.0000 C   0  0  0  0  0  0  0  0  0  0  0  0
    0.7144    1.2375    0.0000 C   0  0  0  0  0  0  0  0  0  0  0  0
    2.1434   -1.2375    0.0000 C   0  0  0  0  0  0  0  0  0  0  0  0
    3.5723   -0.4125    0.0000 C   0  0  0  0  0  0  0  0  0  0  0  0
    0.6752   -1.3144    0.0000 C   0  0  0  0  0  0  0  0  0  0  0  0
    0.0000    0.8250    0.0000 C   0  0  0  0  0  0  0  0  0  0  0  0
    1.4289    0.0000    0.0000 C   0  0  0  0  0  0  0  0  0  0  0  0
    4.2868    0.0000    0.0000 C   0  0  0  0  0  0  0  0  0  0  0  0
    4.2868    0.8250    0.0000 C   0  0  0  0  0  0  0  0  0  0  0  0
    5.0012   -0.4125    0.0000 C   0  0  0  0  0  0  0  0  0  0  0  0
    1.4289    0.8250    0.0000 C   0  0  0  0  0  0  0  0  0  0  0  0
    2.1434   -0.4125    0.0000 C   0  0  3  0  0  0  0  0  0  0  0  0
   -0.7144    1.2375    0.0000 Cl  0  0  0  0  0  0  0  0  0  0  0  0
    3.5723    1.2375    0.0000 Cl  0  0  0  0  0  0  0  0  0  0  0  0
    5.0012   -1.2375    0.0000 Cl  0  0  0  0  0  0  0  0  0  0  0  0
    2.1434    1.2375    0.0000 Cl  0  0  0  0  0  0  0  0  0  0  0  0
    0.1232   -1.9275    0.0000 N   0  0  0  0  0  0  0  0  0  0  0  0
    1.4289   -1.6500    0.0000 N   0  0  0  0  0  0  0  0  0  0  0  0
    2.8578    0.0000    0.0000 O   0  0  0  0  0  0  0  0  0  0  0  0
    6.6094    1.3410    0.0000 H   0  0  0  0  0  0  0  0  0  0  0  0
    5.0012    2.2695    0.0000 H   0  0  0  0  0  0  0  0  0  0  0  0
    6.6094   -0.5160    0.0000 H   0  0  0  0  0  0  0  0  0  0  0  0
   -0.8937   -0.5160    0.0000 H   0  0  0  0  0  0  0  0  0  0  0  0
    0.7144   -1.4445    0.0000 H   0  0  0  0  0  0  0  0  0  0  0  0
    0.1160   -3.5848    0.0000 H   0  0  0  0  0  0  0  0  0  0  0  0
    2.1097   -3.1609    0.0000 H   0  0  0  0  0  0  0  0  0  0  0  0
    0.7144    2.2695    0.0000 H   0  0  0  0  0  0  0  0  0  0  0  0
    3.0700   -1.7725    0.0000 H   0  0  0  0  0  0  0  0  0  0  0  0
    2.1434   -2.3075    0.0000 H   0  0  0  0  0  0  0  0  0  0  0  0
    3.5723   -1.4825    0.0000 H   0  0  0  0  0  0  0  0  0  0  0  0
    2.6457   -0.9475    0.0000 H   0  0  0  0  0  0  0  0  0  0  0  0
    0.4606   -0.3050    0.0000 H   0  0  0  0  0  0  0  0  0  0  0  0
    1.2168   -0.9475    0.0000 H   0  0  0  0  0  0  0  0  0  0  0  0
  1 26  1  0  0  0  0
  2  1  2  0  0  0  0
  2 27  1  0  0  0  0
  3  1  1  0  0  0  0
  3 28  1  0  0  0  0
  4 29  1  0  0  0  0
  5  4  2  0  0  0  0
  5 30  1  0  0  0  0
  6 31  1  0  0  0  0
  7  6  2  0  0  0  0
  7 32  1  0  0  0  0
  8 33  1  0  0  0  0
  9 34  1  0  0  0  0
  9 35  1  0  0  0  0
 10 36  1  0  0  0  0
 10 37  1  0  0  0  0
 11 38  1  0  0  0  0
 12  4  1  0  0  0  0
 12  8  2  0  0  0  0
 13  5  1  0  0  0  0
 14 10  1  0  0  0  0
 15  2  1  0  0  0  0
 15 14  2  0  0  0  0
 16  3  2  0  0  0  0
 16 14  1  0  0  0  0
 17  8  1  0  0  0  0
 17 13  2  0  0  0  0
 18  9  1  0  0  0  0
 18 13  1  0  0  0  0
 18 39  1  0  0  0  0
 19 12  1  0  0  0  0
 20 15  1  0  0  0  0
 21 16  1  0  0  0  0
 22 17  1  0  0  0  0
 23  6  1  0  0  0  0
 23 11  2  0  0  0  0
 24  7  1  0  0  0  0
 24  9  1  0  0  0  0
 24 11  1  0  0  0  0
 25 10  1  0  0  0  0
 25 18  1  0  0  0  0
M  END
>  <DRUGBANK_ID>
DB08943

>  <COMMON_NAME>
Isoconazole

>  <CAS_NUMBER>
27523-40-6

>  <UNII>
GRI7WFR424

>  <SYNONYMS>
Isoconazol; Isoconazole; Isoconazolum

$$$$
