HBY
 OpenBabel10282417072D

 42 43  0  0  0  0  0  0  0  0999 V2000
   -0.7727   -0.7122    0.0000 C   0  0  2  0  0  0  0  0  0  0  0  0
   -0.7727   -1.5372    0.0000 C   0  0  0  0  0  0  0  0  0  0  0  0
    0.6563   -1.5372    0.0000 C   0  0  0  0  0  0  0  0  0  0  0  0
    0.6563   -0.7122    0.0000 C   0  0  0  0  0  0  0  0  0  0  0  0
    1.3707   -0.2997    0.0000 C   0  0  0  0  0  0  0  0  0  0  0  0
    2.0852   -0.7122    0.0000 C   0  0  0  0  0  0  0  0  0  0  0  0
    2.0852   -1.5372    0.0000 C   0  0  0  0  0  0  0  0  0  0  0  0
    1.3707   -1.9497    0.0000 C   0  0  0  0  0  0  0  0  0  0  0  0
   -0.0582    0.5253    0.0000 C   0  0  0  0  0  0  0  0  0  0  0  0
   -0.7727    1.7628    0.0000 C   0  0  0  0  0  0  0  0  0  0  0  0
   -1.4872    2.1753    0.0000 C   0  0  0  0  0  0  0  0  0  0  0  0
   -0.0582    2.1753    0.0000 C   0  0  0  0  0  0  0  0  0  0  0  0
   -1.4872   -0.2997    0.0000 C   0  0  0  0  0  0  0  0  0  0  0  0
   -2.9161   -0.2997    0.0000 C   0  0  0  0  0  0  0  0  0  0  0  0
    2.7997    0.5253    0.0000 C   0  0  0  0  0  0  0  0  0  0  0  0
   -0.0582   -0.2997    0.0000 N   0  0  0  0  0  0  0  0  0  0  0  0
   -0.0582   -1.9497    0.0000 N   0  0  0  0  0  0  0  0  0  0  0  0
    0.6563    0.9378    0.0000 O   0  0  0  0  0  0  0  0  0  0  0  0
   -0.7727    0.9378    0.0000 O   0  0  0  0  0  0  0  0  0  0  0  0
    2.7997   -0.2997    0.0000 O   0  0  0  0  0  0  0  0  0  0  0  0
   -1.4872   -1.9497    0.0000 S   0  0  0  0  0  0  0  0  0  0  0  0
   -2.2016   -0.7122    0.0000 S   0  0  0  0  0  0  0  0  0  0  0  0
   -1.2784   -1.0041    0.0000 H   0  0  0  0  0  0  0  0  0  0  0  0
    1.3707    0.7323    0.0000 H   0  0  0  0  0  0  0  0  0  0  0  0
    2.9789   -2.0532    0.0000 H   0  0  0  0  0  0  0  0  0  0  0  0
    1.3707   -2.9817    0.0000 H   0  0  0  0  0  0  0  0  0  0  0  0
    0.1539    1.2278    0.0000 H   0  0  0  0  0  0  0  0  0  0  0  0
   -1.4872    3.2453    0.0000 H   0  0  0  0  0  0  0  0  0  0  0  0
   -2.4138    1.6403    0.0000 H   0  0  0  0  0  0  0  0  0  0  0  0
   -2.4139    2.7103    0.0000 H   0  0  0  0  0  0  0  0  0  0  0  0
    0.8684    1.6403    0.0000 H   0  0  0  0  0  0  0  0  0  0  0  0
   -0.0582    3.2453    0.0000 H   0  0  0  0  0  0  0  0  0  0  0  0
    0.8685    2.7103    0.0000 H   0  0  0  0  0  0  0  0  0  0  0  0
   -1.4872    0.7703    0.0000 H   0  0  0  0  0  0  0  0  0  0  0  0
   -2.4139    0.2353    0.0000 H   0  0  0  0  0  0  0  0  0  0  0  0
   -2.9161    0.7703    0.0000 H   0  0  0  0  0  0  0  0  0  0  0  0
   -3.8427   -0.8347    0.0000 H   0  0  0  0  0  0  0  0  0  0  0  0
   -3.8428    0.2353    0.0000 H   0  0  0  0  0  0  0  0  0  0  0  0
    3.7263    1.0603    0.0000 H   0  0  0  0  0  0  0  0  0  0  0  0
    1.8731    1.0603    0.0000 H   0  0  0  0  0  0  0  0  0  0  0  0
    2.7997    1.5953    0.0000 H   0  0  0  0  0  0  0  0  0  0  0  0
   -0.0582   -2.9342    0.0000 H   0  0  0  0  0  0  0  0  0  0  0  0
  1  2  1  0  0  0  0
  1 13  1  0  0  0  0
  1 16  1  0  0  0  0
  1 23  1  1  0  0  0
  2 17  1  0  0  0  0
  2 21  2  0  0  0  0
  3  4  2  0  0  0  0
  3  8  1  0  0  0  0
  3 17  1  0  0  0  0
  4  5  1  0  0  0  0
  4 16  1  0  0  0  0
  5  6  2  0  0  0  0
  5 24  1  0  0  0  0
  6  7  1  0  0  0  0
  6 20  1  0  0  0  0
  7  8  2  0  0  0  0
  7 25  1  0  0  0  0
  8 26  1  0  0  0  0
  9 16  1  0  0  0  0
  9 18  2  0  0  0  0
  9 19  1  0  0  0  0
 10 11  1  0  0  0  0
 10 12  1  0  0  0  0
 10 19  1  0  0  0  0
 10 27  1  0  0  0  0
 11 28  1  0  0  0  0
 11 29  1  0  0  0  0
 11 30  1  0  0  0  0
 12 31  1  0  0  0  0
 12 32  1  0  0  0  0
 12 33  1  0  0  0  0
 13 22  1  0  0  0  0
 13 34  1  0  0  0  0
 13 35  1  0  0  0  0
 14 22  1  0  0  0  0
 14 36  1  0  0  0  0
 14 37  1  0  0  0  0
 14 38  1  0  0  0  0
 15 20  1  0  0  0  0
 15 39  1  0  0  0  0
 15 40  1  0  0  0  0
 15 41  1  0  0  0  0
 17 42  1  0  0  0  0
M  END
>  <DRUGBANK_ID>
DB07885

>  <SECONDARY_ACCESSION_NUMBERS>
DB13079

>  <COMMON_NAME>
Talviraline

>  <CAS_NUMBER>
163451-80-7

>  <UNII>
XZ4KT6MO4X

>  <SYNONYMS>
Isopropyl (2S)-3,4-dihydro-7-methoxy-2-((methylthio)methyl)-3-thioxo-1(2H)-quinoxalinecarboxylate; Talviraline

$$$$
