
 OpenBabel10282417072D

 13 12  0  0  1  0  0  0  0  0999 V2000
    2.0625    0.7145    0.0000 N   0  3  0  0  0  0  0  0  0  0  0  0
    1.2375    0.7145    0.0000 C   0  0  2  0  0  0  0  0  0  0  0  0
    0.8250    1.4289    0.0000 C   0  0  0  0  0  0  0  0  0  0  0  0
    1.2375    2.1434    0.0000 Cl  0  0  0  0  0  0  0  0  0  0  0  0
    0.8250    0.0000    0.0000 C   0  0  0  0  0  0  0  0  0  0  0  0
    1.2375   -0.7145    0.0000 O   0  5  0  0  0  0  0  0  0  0  0  0
    0.0000    0.0000    0.0000 O   0  0  0  0  0  0  0  0  0  0  0  0
    2.5725   -0.1688    0.0000 H   0  0  0  0  0  0  0  0  0  0  0  0
    2.5725    1.5978    0.0000 H   0  0  0  0  0  0  0  0  0  0  0  0
    3.0825    0.7145    0.0000 H   0  0  0  0  0  0  0  0  0  0  0  0
    1.7725    1.6412    0.0000 H   0  0  0  0  0  0  0  0  0  0  0  0
   -0.2450    1.4289    0.0000 H   0  0  0  0  0  0  0  0  0  0  0  0
    0.2900    2.3555    0.0000 H   0  0  0  0  0  0  0  0  0  0  0  0
  1  8  1  0  0  0  0
  1  9  1  0  0  0  0
  1 10  1  0  0  0  0
  2  1  1  0  0  0  0
  2  3  1  0  0  0  0
  2  5  1  0  0  0  0
  2 11  1  6  0  0  0
  3  4  1  0  0  0  0
  3 12  1  0  0  0  0
  3 13  1  0  0  0  0
  5  6  1  0  0  0  0
  5  7  2  0  0  0  0
M  CHG  2   1   1   6  -1
M  END
>  <DRUGBANK_ID>
DB01735

>  <SECONDARY_ACCESSION_NUMBERS>
EXPT00806

>  <COMMON_NAME>
3-Chloroalaninate

>  <UNII>
PJ3SK4HU57

$$$$
