AM3
 OpenBabel10282417072D

 50 51  0  0  0  0  0  0  0  0999 V2000
   -1.2626    2.5790    0.0000 O   0  0  0  0  0  0  0  0  0  0  0  0
   -1.5175    1.7944    0.0000 C   0  0  1  0  0  0  0  0  0  0  0  0
   -0.9655    1.1813    0.0000 C   0  0  1  0  0  0  0  0  0  0  0  0
   -0.1405    1.1813    0.0000 C   0  0  0  0  0  0  0  0  0  0  0  0
    0.1145    0.3967    0.0000 O   0  0  0  0  0  0  0  0  0  0  0  0
   -2.3245    1.6229    0.0000 C   0  0  2  0  0  0  0  0  0  0  0  0
   -2.8765    2.2360    0.0000 O   0  0  0  0  0  0  0  0  0  0  0  0
   -2.5794    0.8383    0.0000 C   0  0  1  0  0  0  0  0  0  0  0  0
   -3.3864    0.6667    0.0000 O   0  0  0  0  0  0  0  0  0  0  0  0
   -2.0274    0.2252    0.0000 C   0  0  2  0  0  0  0  0  0  0  0  0
   -2.2823   -0.5594    0.0000 O   0  0  0  0  0  0  0  0  0  0  0  0
   -1.2204    0.3967    0.0000 N   0  0  0  0  0  0  0  0  0  0  0  0
   -0.5530   -0.0882    0.0000 C   0  0  0  0  0  0  0  0  0  0  0  0
   -0.5530   -0.9132    0.0000 N   0  0  0  0  0  0  0  0  0  0  0  0
    0.1615   -1.3257    0.0000 C   0  0  0  0  0  0  0  0  0  0  0  0
    0.8760   -0.9132    0.0000 C   0  0  0  0  0  0  0  0  0  0  0  0
    1.5905   -1.3257    0.0000 C   0  0  0  0  0  0  0  0  0  0  0  0
    2.3049   -0.9132    0.0000 C   0  0  0  0  0  0  0  0  0  0  0  0
    3.0194   -1.3257    0.0000 C   0  0  0  0  0  0  0  0  0  0  0  0
    3.7339   -0.9132    0.0000 C   0  0  0  0  0  0  0  0  0  0  0  0
    4.4483   -1.3257    0.0000 C   0  0  0  0  0  0  0  0  0  0  0  0
    5.1628   -0.9132    0.0000 C   0  0  0  0  0  0  0  0  0  0  0  0
   -0.9463    1.9158    0.0000 H   0  0  0  0  0  0  0  0  0  0  0  0
   -0.7280    1.7148    0.0000 H   0  0  0  0  0  0  0  0  0  0  0  0
   -2.1440    2.1782    0.0000 H   0  0  0  0  0  0  0  0  0  0  0  0
   -2.9701    1.2722    0.0000 H   0  0  0  0  0  0  0  0  0  0  0  0
   -2.5985    0.1038    0.0000 H   0  0  0  0  0  0  0  0  0  0  0  0
   -0.3138    2.7807    0.0000 H   0  0  0  0  0  0  0  0  0  0  0  0
    0.4884    2.0470    0.0000 H   0  0  0  0  0  0  0  0  0  0  0  0
    0.9163    1.0140    0.0000 H   0  0  0  0  0  0  0  0  0  0  0  0
   -2.5767    3.1585    0.0000 H   0  0  0  0  0  0  0  0  0  0  0  0
   -4.0355    1.3875    0.0000 H   0  0  0  0  0  0  0  0  0  0  0  0
   -3.2311   -0.7611    0.0000 H   0  0  0  0  0  0  0  0  0  0  0  0
    0.1615   -2.3957    0.0000 H   0  0  0  0  0  0  0  0  0  0  0  0
    1.0881   -1.8607    0.0000 H   0  0  0  0  0  0  0  0  0  0  0  0
    0.8760    0.1568    0.0000 H   0  0  0  0  0  0  0  0  0  0  0  0
    1.8026   -0.3782    0.0000 H   0  0  0  0  0  0  0  0  0  0  0  0
    1.5905   -2.3957    0.0000 H   0  0  0  0  0  0  0  0  0  0  0  0
    2.5172   -1.8607    0.0000 H   0  0  0  0  0  0  0  0  0  0  0  0
    2.3049    0.1568    0.0000 H   0  0  0  0  0  0  0  0  0  0  0  0
    3.2315   -0.3782    0.0000 H   0  0  0  0  0  0  0  0  0  0  0  0
    3.0194   -2.3957    0.0000 H   0  0  0  0  0  0  0  0  0  0  0  0
    3.9460   -1.8607    0.0000 H   0  0  0  0  0  0  0  0  0  0  0  0
    3.7339    0.1568    0.0000 H   0  0  0  0  0  0  0  0  0  0  0  0
    4.6606   -0.3782    0.0000 H   0  0  0  0  0  0  0  0  0  0  0  0
    4.4483   -2.3957    0.0000 H   0  0  0  0  0  0  0  0  0  0  0  0
    5.3749   -1.8607    0.0000 H   0  0  0  0  0  0  0  0  0  0  0  0
    6.0894   -1.4482    0.0000 H   0  0  0  0  0  0  0  0  0  0  0  0
    5.1628    0.1568    0.0000 H   0  0  0  0  0  0  0  0  0  0  0  0
    6.0895   -0.3782    0.0000 H   0  0  0  0  0  0  0  0  0  0  0  0
  1 28  1  0  0  0  0
  2  1  1  0  0  0  0
  2  3  1  0  0  0  0
  2  6  1  0  0  0  0
  2 23  1  6  0  0  0
  3  4  1  0  0  0  0
  3 12  1  0  0  0  0
  3 24  1  6  0  0  0
  4  5  1  0  0  0  0
  4 29  1  0  0  0  0
  4 30  1  0  0  0  0
  5 13  1  0  0  0  0
  6  7  1  0  0  0  0
  6  8  1  0  0  0  0
  6 25  1  6  0  0  0
  7 31  1  0  0  0  0
  8  9  1  0  0  0  0
  8 10  1  0  0  0  0
  8 26  1  1  0  0  0
  9 32  1  0  0  0  0
 10 27  1  6  0  0  0
 10 11  1  0  0  0  0
 10 12  1  0  0  0  0
 11 33  1  0  0  0  0
 12 13  1  0  0  0  0
 13 14  2  0  0  0  0
 14 15  1  0  0  0  0
 15 16  1  0  0  0  0
 15 34  1  0  0  0  0
 15 35  1  0  0  0  0
 16 17  1  0  0  0  0
 16 36  1  0  0  0  0
 16 37  1  0  0  0  0
 17 18  1  0  0  0  0
 17 38  1  0  0  0  0
 17 39  1  0  0  0  0
 18 19  1  0  0  0  0
 18 40  1  0  0  0  0
 18 41  1  0  0  0  0
 19 20  1  0  0  0  0
 19 42  1  0  0  0  0
 19 43  1  0  0  0  0
 20 21  1  0  0  0  0
 20 44  1  0  0  0  0
 20 45  1  0  0  0  0
 21 22  1  0  0  0  0
 21 46  1  0  0  0  0
 21 47  1  0  0  0  0
 22 48  1  0  0  0  0
 22 49  1  0  0  0  0
 22 50  1  0  0  0  0
M  END
>  <DRUGBANK_ID>
DB07367

>  <COMMON_NAME>
(3Z,5S,6R,7S,8S,8aR)-3-(octylimino)hexahydro[1,3]oxazolo[3,4-a]pyridine-5,6,7,8-tetrol

$$$$
