
 OpenBabel10282417072D

 51 54  0  0  0  0  0  0  0  0999 V2000
   -1.7805    2.8186    0.0000 C   0  0  0  0  0  0  0  0  0  0  0  0
   -0.9959    2.5637    0.0000 C   0  0  0  0  0  0  0  0  0  0  0  0
   -1.7805    3.6436    0.0000 C   0  0  0  0  0  0  0  0  0  0  0  0
   -2.4950    2.4061    0.0000 C   0  0  0  0  0  0  0  0  0  0  0  0
   -0.5110    3.2311    0.0000 C   0  0  0  0  0  0  0  0  0  0  0  0
   -0.7409    1.7791    0.0000 C   0  0  0  0  0  0  0  0  0  0  0  0
   -0.9959    3.8985    0.0000 N   0  0  0  0  0  0  0  0  0  0  0  0
   -2.4950    4.0561    0.0000 C   0  0  0  0  0  0  0  0  0  0  0  0
   -3.2094    2.8186    0.0000 C   0  0  0  0  0  0  0  0  0  0  0  0
    0.0659    1.6076    0.0000 C   0  0  0  0  0  0  0  0  0  0  0  0
   -3.2094    3.6436    0.0000 C   0  0  0  0  0  0  0  0  0  0  0  0
    0.3208    0.8229    0.0000 N   0  0  0  0  0  0  0  0  0  0  0  0
   -0.2311    0.2099    0.0000 C   0  0  0  0  0  0  0  0  0  0  0  0
    1.1278    0.6514    0.0000 C   0  0  0  0  0  0  0  0  0  0  0  0
    0.0237   -0.5746    0.0000 C   0  0  0  0  0  0  0  0  0  0  0  0
    1.3827   -0.1331    0.0000 C   0  0  0  0  0  0  0  0  0  0  0  0
    0.8306   -0.7462    0.0000 C   0  0  0  0  0  0  0  0  0  0  0  0
    1.0856   -1.5308    0.0000 N   0  0  0  0  0  0  0  0  0  0  0  0
    1.8926   -1.7023    0.0000 C   0  0  0  0  0  0  0  0  0  0  0  0
    2.1475   -2.4869    0.0000 C   0  0  0  0  0  0  0  0  0  0  0  0
    2.4446   -1.0892    0.0000 O   0  0  0  0  0  0  0  0  0  0  0  0
    1.5955   -3.0999    0.0000 C   0  0  0  0  0  0  0  0  0  0  0  0
    2.9544   -2.6584    0.0000 C   0  0  0  0  0  0  0  0  0  0  0  0
    1.8504   -3.8846    0.0000 C   0  0  0  0  0  0  0  0  0  0  0  0
    3.2094   -3.4430    0.0000 C   0  0  0  0  0  0  0  0  0  0  0  0
    2.6574   -4.0561    0.0000 C   0  0  0  0  0  0  0  0  0  0  0  0
   -2.4950    1.3741    0.0000 H   0  0  0  0  0  0  0  0  0  0  0  0
    0.5210    3.2311    0.0000 H   0  0  0  0  0  0  0  0  0  0  0  0
   -1.4568    0.9839    0.0000 H   0  0  0  0  0  0  0  0  0  0  0  0
   -0.4102    0.7615    0.0000 H   0  0  0  0  0  0  0  0  0  0  0  0
   -0.6917    4.8348    0.0000 H   0  0  0  0  0  0  0  0  0  0  0  0
   -2.4950    5.0881    0.0000 H   0  0  0  0  0  0  0  0  0  0  0  0
   -4.1031    2.3026    0.0000 H   0  0  0  0  0  0  0  0  0  0  0  0
    0.7819    2.4027    0.0000 H   0  0  0  0  0  0  0  0  0  0  0  0
    1.1125    1.3851    0.0000 H   0  0  0  0  0  0  0  0  0  0  0  0
   -4.1031    4.1596    0.0000 H   0  0  0  0  0  0  0  0  0  0  0  0
   -1.2777    0.4324    0.0000 H   0  0  0  0  0  0  0  0  0  0  0  0
   -0.9471   -0.5852    0.0000 H   0  0  0  0  0  0  0  0  0  0  0  0
    1.8438    1.4466    0.0000 H   0  0  0  0  0  0  0  0  0  0  0  0
    2.1744    0.4289    0.0000 H   0  0  0  0  0  0  0  0  0  0  0  0
   -0.6924   -1.3697    0.0000 H   0  0  0  0  0  0  0  0  0  0  0  0
    0.3542   -1.5923    0.0000 H   0  0  0  0  0  0  0  0  0  0  0  0
    2.4293   -0.3556    0.0000 H   0  0  0  0  0  0  0  0  0  0  0  0
    1.7133   -1.1507    0.0000 H   0  0  0  0  0  0  0  0  0  0  0  0
    1.8772   -0.9687    0.0000 H   0  0  0  0  0  0  0  0  0  0  0  0
    0.4269   -2.2625    0.0000 H   0  0  0  0  0  0  0  0  0  0  0  0
    0.5861   -2.8853    0.0000 H   0  0  0  0  0  0  0  0  0  0  0  0
    3.6449   -1.8914    0.0000 H   0  0  0  0  0  0  0  0  0  0  0  0
    1.1598   -4.6515    0.0000 H   0  0  0  0  0  0  0  0  0  0  0  0
    4.2189   -3.6575    0.0000 H   0  0  0  0  0  0  0  0  0  0  0  0
    2.9763   -5.0376    0.0000 H   0  0  0  0  0  0  0  0  0  0  0  0
  1  2  1  0  0  0  0
  1  3  2  0  0  0  0
  1  4  1  0  0  0  0
  2  5  2  0  0  0  0
  2  6  1  0  0  0  0
  3  7  1  0  0  0  0
  3  8  1  0  0  0  0
  4  9  2  0  0  0  0
  4 27  1  0  0  0  0
  5  7  1  0  0  0  0
  5 28  1  0  0  0  0
  6 10  1  0  0  0  0
  6 29  1  0  0  0  0
  6 30  1  0  0  0  0
  7 31  1  0  0  0  0
  8 11  2  0  0  0  0
  8 32  1  0  0  0  0
  9 11  1  0  0  0  0
  9 33  1  0  0  0  0
 10 12  1  0  0  0  0
 10 34  1  0  0  0  0
 10 35  1  0  0  0  0
 11 36  1  0  0  0  0
 12 13  1  0  0  0  0
 12 14  1  0  0  0  0
 13 15  1  0  0  0  0
 13 37  1  0  0  0  0
 13 38  1  0  0  0  0
 14 16  1  0  0  0  0
 14 39  1  0  0  0  0
 14 40  1  0  0  0  0
 15 17  1  0  0  0  0
 15 41  1  0  0  0  0
 15 42  1  0  0  0  0
 16 17  1  0  0  0  0
 16 43  1  0  0  0  0
 16 44  1  0  0  0  0
 17 18  1  0  0  0  0
 17 45  1  0  0  0  0
 18 19  1  0  0  0  0
 18 46  1  0  0  0  0
 19 20  1  0  0  0  0
 19 21  2  0  0  0  0
 20 22  2  0  0  0  0
 20 23  1  0  0  0  0
 22 24  1  0  0  0  0
 22 47  1  0  0  0  0
 23 25  2  0  0  0  0
 23 48  1  0  0  0  0
 24 26  2  0  0  0  0
 24 49  1  0  0  0  0
 25 26  1  0  0  0  0
 25 50  1  0  0  0  0
 26 51  1  0  0  0  0
M  END
>  <DRUGBANK_ID>
DB08950

>  <COMMON_NAME>
Indoramin

>  <CAS_NUMBER>
26844-12-2

>  <UNII>
0Z802HMY7H

>  <SYNONYMS>
Indoramin; Indoramina; Indoramine; Indoraminum

$$$$
