
 OpenBabel10282417072D

 37 36  0  0  0  0  0  0  0  0999 V2000
    0.0000   -2.0625    0.0000 S   0  0  0  0  0  0  0  0  0  0  0  0
   -1.4290    2.8876    0.0000 O   0  0  0  0  0  0  0  0  0  0  0  0
   -0.7145    1.6501    0.0000 O   0  0  0  0  0  0  0  0  0  0  0  0
    2.8579   -2.0625    0.0000 O   0  0  0  0  0  0  0  0  0  0  0  0
    2.1434   -0.8250    0.0000 O   0  0  0  0  0  0  0  0  0  0  0  0
   -2.8580    2.0625    0.0000 N   0  3  0  0  0  0  0  0  0  0  0  0
   -0.7145   -0.8250    0.0000 N   0  0  0  0  0  0  0  0  0  0  0  0
    1.4290   -2.8876    0.0000 N   0  0  0  0  0  0  0  0  0  0  0  0
   -1.4290   -2.0625    0.0000 N   0  0  0  0  0  0  0  0  0  0  0  0
   -2.1434    0.8250    0.0000 C   0  0  0  0  0  0  0  0  0  0  0  0
   -2.1434    1.6501    0.0000 C   0  0  1  0  0  0  0  0  0  0  0  0
   -1.4290    0.4125    0.0000 C   0  0  0  0  0  0  0  0  0  0  0  0
   -1.4290   -0.4125    0.0000 C   0  0  0  0  0  0  0  0  0  0  0  0
   -1.4290    2.0625    0.0000 C   0  0  0  0  0  0  0  0  0  0  0  0
    1.4290   -2.0625    0.0000 C   0  0  1  0  0  0  0  0  0  0  0  0
    0.7145   -1.6501    0.0000 C   0  0  0  0  0  0  0  0  0  0  0  0
   -0.7145   -1.6501    0.0000 C   0  0  0  0  0  0  0  0  0  0  0  0
    2.1434   -1.6501    0.0000 C   0  0  0  0  0  0  0  0  0  0  0  0
   -0.6175    3.3561    0.0000 H   0  0  0  0  0  0  0  0  0  0  0  0
    2.8580   -2.9995    0.0000 H   0  0  0  0  0  0  0  0  0  0  0  0
   -2.8582    3.0825    0.0000 H   0  0  0  0  0  0  0  0  0  0  0  0
   -3.7413    1.5523    0.0000 H   0  0  0  0  0  0  0  0  0  0  0  0
   -3.7414    2.5723    0.0000 H   0  0  0  0  0  0  0  0  0  0  0  0
    0.5457   -3.3976    0.0000 H   0  0  0  0  0  0  0  0  0  0  0  0
    2.3123   -3.3976    0.0000 H   0  0  0  0  0  0  0  0  0  0  0  0
   -2.2815   -1.5701    0.0000 H   0  0  0  0  0  0  0  0  0  0  0  0
   -1.4291   -3.0470    0.0000 H   0  0  0  0  0  0  0  0  0  0  0  0
   -3.0701    0.2900    0.0000 H   0  0  0  0  0  0  0  0  0  0  0  0
   -2.1434   -0.2450    0.0000 H   0  0  0  0  0  0  0  0  0  0  0  0
   -3.0700    1.1150    0.0000 H   0  0  0  0  0  0  0  0  0  0  0  0
   -0.5023    0.9475    0.0000 H   0  0  0  0  0  0  0  0  0  0  0  0
   -0.5024   -0.1225    0.0000 H   0  0  0  0  0  0  0  0  0  0  0  0
   -2.3556   -0.9475    0.0000 H   0  0  0  0  0  0  0  0  0  0  0  0
   -2.3556    0.1225    0.0000 H   0  0  0  0  0  0  0  0  0  0  0  0
    0.5024   -2.5976    0.0000 H   0  0  0  0  0  0  0  0  0  0  0  0
    0.7145   -0.5801    0.0000 H   0  0  0  0  0  0  0  0  0  0  0  0
    1.6411   -1.1150    0.0000 H   0  0  0  0  0  0  0  0  0  0  0  0
  1 16  1  0  0  0  0
  1 17  1  0  0  0  0
  2 14  1  0  0  0  0
  2 19  1  0  0  0  0
  3 14  2  0  0  0  0
  4 18  1  0  0  0  0
  4 20  1  0  0  0  0
  5 18  2  0  0  0  0
  6 21  1  0  0  0  0
  6 22  1  0  0  0  0
  6 23  1  0  0  0  0
  7 13  1  0  0  0  0
  7 17  2  0  0  0  0
  8 24  1  0  0  0  0
  8 25  1  0  0  0  0
  9 17  1  0  0  0  0
  9 26  1  0  0  0  0
  9 27  1  0  0  0  0
 10 11  1  0  0  0  0
 10 12  1  0  0  0  0
 10 28  1  0  0  0  0
 10 29  1  0  0  0  0
 11  6  1  0  0  0  0
 11 14  1  0  0  0  0
 11 30  1  1  0  0  0
 12 13  1  0  0  0  0
 12 31  1  0  0  0  0
 12 32  1  0  0  0  0
 13 33  1  0  0  0  0
 13 34  1  0  0  0  0
 15  8  1  0  0  0  0
 15 16  1  0  0  0  0
 15 18  1  0  0  0  0
 15 35  1  6  0  0  0
 16 36  1  0  0  0  0
 16 37  1  0  0  0  0
M  CHG  1   6   1
M  END
>  <DRUGBANK_ID>
DB04671

>  <COMMON_NAME>
[(1S)-4-[[Amino-[(2R)-2-amino-2-carboxyethyl]sulfanylmethylidene]amino]-1-carboxybutyl]azanium

$$$$
