2ED
 OpenBabel10282417072D

 63 62  0  0  0  0  0  0  0  0999 V2000
   -7.3828   -0.3524    0.0000 O   0  0  0  0  0  0  0  0  0  0  0  0
   -4.5247    1.2977    0.0000 O   0  0  0  0  0  0  0  0  0  0  0  0
   -4.5247   -1.1775    0.0000 O   0  0  0  0  0  0  0  0  0  0  0  0
   -5.2393    0.0601    0.0000 C   0  0  2  0  0  0  0  0  0  0  0  0
   -4.5247   -0.3524    0.0000 C   0  0  1  0  0  0  0  0  0  0  0  0
   -3.8103    0.0601    0.0000 C   0  0  0  0  0  0  0  0  0  0  0  0
   -3.0957   -0.3524    0.0000 C   0  0  0  0  0  0  0  0  0  0  0  0
   -2.3812    0.0601    0.0000 C   0  0  0  0  0  0  0  0  0  0  0  0
   -1.6667   -0.3524    0.0000 C   0  0  0  0  0  0  0  0  0  0  0  0
   -6.6683    0.0601    0.0000 C   0  0  0  0  0  0  0  0  0  0  0  0
   -6.6683    0.8852    0.0000 C   0  0  0  0  0  0  0  0  0  0  0  0
   -5.9538   -0.3524    0.0000 N   0  0  0  0  0  0  0  0  0  0  0  0
   -5.2393    0.8852    0.0000 C   0  0  0  0  0  0  0  0  0  0  0  0
   -5.0396   -0.4886    0.0000 H   0  0  0  0  0  0  0  0  0  0  0  0
   -4.9002   -0.7998    0.0000 H   0  0  0  0  0  0  0  0  0  0  0  0
   -0.9522    0.0601    0.0000 C   0  0  0  0  0  0  0  0  0  0  0  0
   -0.2376   -0.3524    0.0000 C   0  0  0  0  0  0  0  0  0  0  0  0
    0.4769    0.0601    0.0000 C   0  0  0  0  0  0  0  0  0  0  0  0
    1.1914   -0.3524    0.0000 C   0  0  0  0  0  0  0  0  0  0  0  0
    1.9059    0.0601    0.0000 C   0  0  0  0  0  0  0  0  0  0  0  0
    2.6205   -0.3524    0.0000 C   0  0  0  0  0  0  0  0  0  0  0  0
    3.3349    0.0601    0.0000 C   0  0  0  0  0  0  0  0  0  0  0  0
    4.0495   -0.3524    0.0000 C   0  0  0  0  0  0  0  0  0  0  0  0
    4.7641    0.0601    0.0000 C   0  0  0  0  0  0  0  0  0  0  0  0
    5.4786   -0.3524    0.0000 C   0  0  0  0  0  0  0  0  0  0  0  0
    6.1931    0.0601    0.0000 C   0  0  0  0  0  0  0  0  0  0  0  0
   -3.6847    0.8126    0.0000 H   0  0  0  0  0  0  0  0  0  0  0  0
   -5.3647   -1.6625    0.0000 H   0  0  0  0  0  0  0  0  0  0  0  0
   -3.8104    1.0921    0.0000 H   0  0  0  0  0  0  0  0  0  0  0  0
   -3.0957   -1.3844    0.0000 H   0  0  0  0  0  0  0  0  0  0  0  0
   -2.3812    1.1301    0.0000 H   0  0  0  0  0  0  0  0  0  0  0  0
   -1.4546    0.5951    0.0000 H   0  0  0  0  0  0  0  0  0  0  0  0
   -1.6667   -1.4224    0.0000 H   0  0  0  0  0  0  0  0  0  0  0  0
   -0.7401   -0.8874    0.0000 H   0  0  0  0  0  0  0  0  0  0  0  0
   -5.7417    1.4202    0.0000 H   0  0  0  0  0  0  0  0  0  0  0  0
   -7.5949    1.4202    0.0000 H   0  0  0  0  0  0  0  0  0  0  0  0
   -6.6683    1.9552    0.0000 H   0  0  0  0  0  0  0  0  0  0  0  0
   -5.9538   -1.3369    0.0000 H   0  0  0  0  0  0  0  0  0  0  0  0
   -6.1659    1.4202    0.0000 H   0  0  0  0  0  0  0  0  0  0  0  0
   -6.1660    0.3502    0.0000 H   0  0  0  0  0  0  0  0  0  0  0  0
   -0.9522    1.1301    0.0000 H   0  0  0  0  0  0  0  0  0  0  0  0
   -0.0256    0.5952    0.0000 H   0  0  0  0  0  0  0  0  0  0  0  0
   -0.2376   -1.4224    0.0000 H   0  0  0  0  0  0  0  0  0  0  0  0
    0.6891   -0.8874    0.0000 H   0  0  0  0  0  0  0  0  0  0  0  0
    0.4769    1.1301    0.0000 H   0  0  0  0  0  0  0  0  0  0  0  0
    1.4035    0.5951    0.0000 H   0  0  0  0  0  0  0  0  0  0  0  0
    1.1914   -1.4224    0.0000 H   0  0  0  0  0  0  0  0  0  0  0  0
    2.1180   -0.8874    0.0000 H   0  0  0  0  0  0  0  0  0  0  0  0
    1.9059    1.1301    0.0000 H   0  0  0  0  0  0  0  0  0  0  0  0
    2.8325    0.5952    0.0000 H   0  0  0  0  0  0  0  0  0  0  0  0
    2.6206   -1.4224    0.0000 H   0  0  0  0  0  0  0  0  0  0  0  0
    3.5472   -0.8874    0.0000 H   0  0  0  0  0  0  0  0  0  0  0  0
    3.3348    1.1301    0.0000 H   0  0  0  0  0  0  0  0  0  0  0  0
    4.2615    0.5952    0.0000 H   0  0  0  0  0  0  0  0  0  0  0  0
    4.0495   -1.4224    0.0000 H   0  0  0  0  0  0  0  0  0  0  0  0
    4.9761   -0.8874    0.0000 H   0  0  0  0  0  0  0  0  0  0  0  0
    4.7641    1.1301    0.0000 H   0  0  0  0  0  0  0  0  0  0  0  0
    5.6908    0.5951    0.0000 H   0  0  0  0  0  0  0  0  0  0  0  0
    5.4786   -1.4224    0.0000 H   0  0  0  0  0  0  0  0  0  0  0  0
    6.4052   -0.8874    0.0000 H   0  0  0  0  0  0  0  0  0  0  0  0
    7.1197   -0.4749    0.0000 H   0  0  0  0  0  0  0  0  0  0  0  0
    6.1931    1.1301    0.0000 H   0  0  0  0  0  0  0  0  0  0  0  0
    7.1198    0.5951    0.0000 H   0  0  0  0  0  0  0  0  0  0  0  0
  1 10  2  0  0  0  0
  2 13  1  0  0  0  0
  2 27  1  0  0  0  0
  3 28  1  0  0  0  0
  4  5  1  0  0  0  0
  4 12  1  0  0  0  0
  4 13  1  0  0  0  0
  4 14  1  1  0  0  0
  5  3  1  0  0  0  0
  5  6  1  0  0  0  0
  5 15  1  6  0  0  0
  6  7  2  0  0  0  0
  6 29  1  0  0  0  0
  7  8  1  0  0  0  0
  7 30  1  0  0  0  0
  8  9  1  0  0  0  0
  8 31  1  0  0  0  0
  8 32  1  0  0  0  0
  9 16  1  0  0  0  0
  9 33  1  0  0  0  0
  9 34  1  0  0  0  0
 10 11  1  0  0  0  0
 10 12  1  0  0  0  0
 11 35  1  0  0  0  0
 11 36  1  0  0  0  0
 11 37  1  0  0  0  0
 12 38  1  0  0  0  0
 13 39  1  0  0  0  0
 13 40  1  0  0  0  0
 16 17  1  0  0  0  0
 16 41  1  0  0  0  0
 16 42  1  0  0  0  0
 17 18  1  0  0  0  0
 17 43  1  0  0  0  0
 17 44  1  0  0  0  0
 18 19  1  0  0  0  0
 18 45  1  0  0  0  0
 18 46  1  0  0  0  0
 19 20  1  0  0  0  0
 19 47  1  0  0  0  0
 19 48  1  0  0  0  0
 20 21  1  0  0  0  0
 20 49  1  0  0  0  0
 20 50  1  0  0  0  0
 21 22  1  0  0  0  0
 21 51  1  0  0  0  0
 21 52  1  0  0  0  0
 22 23  1  0  0  0  0
 22 53  1  0  0  0  0
 22 54  1  0  0  0  0
 23 24  1  0  0  0  0
 23 55  1  0  0  0  0
 23 56  1  0  0  0  0
 24 25  1  0  0  0  0
 24 57  1  0  0  0  0
 24 58  1  0  0  0  0
 25 26  1  0  0  0  0
 25 59  1  0  0  0  0
 25 60  1  0  0  0  0
 26 61  1  0  0  0  0
 26 62  1  0  0  0  0
 26 63  1  0  0  0  0
M  END
>  <DRUGBANK_ID>
DB06960

>  <COMMON_NAME>
N-[(1R,2R,3E)-2-hydroxy-1-(hydroxymethyl)heptadec-3-en-1-yl]acetamide

$$$$
