ENE
 OpenBabel10282417072D

 60 64  0  0  0  0  0  0  0  0999 V2000
   -4.5197    0.2090    0.0000 O   0  0  0  0  0  0  0  0  0  0  0  0
   -3.6968    0.2684    0.0000 C   0  0  1  0  0  0  0  0  0  0  0  0
   -3.4368    1.0513    0.0000 C   0  0  0  0  0  0  0  0  0  0  0  0
   -2.6993    1.4210    0.0000 C   0  0  0  0  0  0  0  0  0  0  0  0
   -1.9163    1.1610    0.0000 C   0  0  0  0  0  0  0  0  0  0  0  0
   -1.5466    0.4235    0.0000 C   0  0  1  0  0  0  0  0  0  0  0  0
   -0.7723    0.7083    0.0000 O   0  0  0  0  0  0  0  0  0  0  0  0
   -0.0669    0.2805    0.0000 C   0  0  1  0  0  0  0  0  0  0  0  0
    0.5890    0.7809    0.0000 C   0  0  0  0  0  0  0  0  0  0  0  0
    1.3504    0.4631    0.0000 C   0  0  1  0  0  0  0  0  0  0  0  0
    2.0063    0.9635    0.0000 O   0  0  0  0  0  0  0  0  0  0  0  0
    2.7676    0.6456    0.0000 C   0  0  1  0  0  0  0  0  0  0  0  0
    3.3416    1.2382    0.0000 C   0  0  0  0  0  0  0  0  0  0  0  0
    4.1628    1.1588    0.0000 C   0  0  0  0  0  0  0  0  0  0  0  0
    4.6128    0.4674    0.0000 C   0  0  0  0  0  0  0  0  0  0  0  0
    4.3527   -0.3156    0.0000 C   0  0  0  0  0  0  0  0  0  0  0  0
    3.5784   -0.6004    0.0000 O   0  0  0  0  0  0  0  0  0  0  0  0
    2.8730   -0.1726    0.0000 C   0  0  2  0  0  0  0  0  0  0  0  0
    2.2171   -0.6730    0.0000 C   0  0  1  0  0  0  0  0  0  0  0  0
    2.3225   -1.4913    0.0000 O   0  0  0  0  0  0  0  0  0  0  0  0
    1.4557   -0.3552    0.0000 C   0  0  2  0  0  0  0  0  0  0  0  0
    0.7998   -0.8556    0.0000 O   0  0  0  0  0  0  0  0  0  0  0  0
    0.0385   -0.5377    0.0000 C   0  0  2  0  0  0  0  0  0  0  0  0
   -0.5355   -1.1303    0.0000 C   0  0  0  0  0  0  0  0  0  0  0  0
   -1.3567   -1.0510    0.0000 C   0  0  0  0  0  0  0  0  0  0  0  0
   -1.8067   -0.3595    0.0000 C   0  0  2  0  0  0  0  0  0  0  0  0
   -2.5442   -0.7292    0.0000 O   0  0  0  0  0  0  0  0  0  0  0  0
   -3.3271   -0.4691    0.0000 C   0  0  2  0  0  0  0  0  0  0  0  0
   -3.8670   -1.0930    0.0000 C   0  0  0  0  0  0  0  0  0  0  0  0
   -3.5967   -1.8724    0.0000 O   0  0  0  0  0  0  0  0  0  0  0  0
   -3.9065   -0.3967    0.0000 H   0  0  0  0  0  0  0  0  0  0  0  0
   -1.9594   -0.9231    0.0000 H   0  0  0  0  0  0  0  0  0  0  0  0
    0.1562   -1.1097    0.0000 H   0  0  0  0  0  0  0  0  0  0  0  0
    1.5303   -0.9343    0.0000 H   0  0  0  0  0  0  0  0  0  0  0  0
    2.8004   -0.7001    0.0000 H   0  0  0  0  0  0  0  0  0  0  0  0
    3.1016   -0.7099    0.0000 H   0  0  0  0  0  0  0  0  0  0  0  0
    2.6499    1.2176    0.0000 H   0  0  0  0  0  0  0  0  0  0  0  0
    1.2758    1.0422    0.0000 H   0  0  0  0  0  0  0  0  0  0  0  0
   -0.0980    0.8636    0.0000 H   0  0  0  0  0  0  0  0  0  0  0  0
   -1.3317    0.9664    0.0000 H   0  0  0  0  0  0  0  0  0  0  0  0
   -4.0553    0.7293    0.0000 H   0  0  0  0  0  0  0  0  0  0  0  0
   -5.0639    1.0119    0.0000 H   0  0  0  0  0  0  0  0  0  0  0  0
   -4.2172    1.7266    0.0000 H   0  0  0  0  0  0  0  0  0  0  0  0
   -2.7736    2.4503    0.0000 H   0  0  0  0  0  0  0  0  0  0  0  0
   -1.2161    1.9701    0.0000 H   0  0  0  0  0  0  0  0  0  0  0  0
   -0.8546    1.0283    0.0000 H   0  0  0  0  0  0  0  0  0  0  0  0
    0.4522    1.8421    0.0000 H   0  0  0  0  0  0  0  0  0  0  0  0
    1.4397    1.4300    0.0000 H   0  0  0  0  0  0  0  0  0  0  0  0
    2.9722    2.2424    0.0000 H   0  0  0  0  0  0  0  0  0  0  0  0
    3.9954    2.0852    0.0000 H   0  0  0  0  0  0  0  0  0  0  0  0
    4.6979    2.0412    0.0000 H   0  0  0  0  0  0  0  0  0  0  0  0
    5.6363    0.5993    0.0000 H   0  0  0  0  0  0  0  0  0  0  0  0
    5.1212   -1.0601    0.0000 H   0  0  0  0  0  0  0  0  0  0  0  0
    4.1312   -1.3624    0.0000 H   0  0  0  0  0  0  0  0  0  0  0  0
    1.5513   -2.0796    0.0000 H   0  0  0  0  0  0  0  0  0  0  0  0
   -0.1792   -2.0988    0.0000 H   0  0  0  0  0  0  0  0  0  0  0  0
   -1.8918   -1.9334    0.0000 H   0  0  0  0  0  0  0  0  0  0  0  0
   -4.9178   -0.8912    0.0000 H   0  0  0  0  0  0  0  0  0  0  0  0
   -4.5672   -1.9021    0.0000 H   0  0  0  0  0  0  0  0  0  0  0  0
   -4.2315   -2.6059    0.0000 H   0  0  0  0  0  0  0  0  0  0  0  0
  1 42  1  0  0  0  0
  2  1  1  0  0  0  0
  2  3  1  0  0  0  0
  2 28  1  0  0  0  0
  2 41  1  6  0  0  0
  3  4  2  0  0  0  0
  3 43  1  0  0  0  0
  4  5  1  0  0  0  0
  4 44  1  0  0  0  0
  5  6  1  0  0  0  0
  5 45  1  0  0  0  0
  5 46  1  0  0  0  0
  6  7  1  0  0  0  0
  6 26  1  0  0  0  0
  6 40  1  6  0  0  0
  7  8  1  0  0  0  0
  8  9  1  0  0  0  0
  8 23  1  0  0  0  0
  8 39  1  6  0  0  0
  9 10  1  0  0  0  0
  9 47  1  0  0  0  0
  9 48  1  0  0  0  0
 10 11  1  0  0  0  0
 10 21  1  0  0  0  0
 10 38  1  6  0  0  0
 11 12  1  0  0  0  0
 12 13  1  0  0  0  0
 12 18  1  0  0  0  0
 12 37  1  6  0  0  0
 13 14  1  0  0  0  0
 13 49  1  0  0  0  0
 13 50  1  0  0  0  0
 14 15  2  0  0  0  0
 14 51  1  0  0  0  0
 15 16  1  0  0  0  0
 15 52  1  0  0  0  0
 16 17  1  0  0  0  0
 16 53  1  0  0  0  0
 16 54  1  0  0  0  0
 17 18  1  0  0  0  0
 18 19  1  0  0  0  0
 18 36  1  1  0  0  0
 19 21  1  0  0  0  0
 19 35  1  6  0  0  0
 19 20  1  0  0  0  0
 20 55  1  0  0  0  0
 21 22  1  0  0  0  0
 21 34  1  1  0  0  0
 22 23  1  0  0  0  0
 23 24  1  0  0  0  0
 23 33  1  1  0  0  0
 24 25  2  0  0  0  0
 24 56  1  0  0  0  0
 25 26  1  0  0  0  0
 25 57  1  0  0  0  0
 26 27  1  0  0  0  0
 26 32  1  1  0  0  0
 27 28  1  0  0  0  0
 28 29  1  0  0  0  0
 28 31  1  1  0  0  0
 29 30  1  0  0  0  0
 29 58  1  0  0  0  0
 29 59  1  0  0  0  0
 30 60  1  0  0  0  0
M  END
>  <DRUGBANK_ID>
DB07716

>  <COMMON_NAME>
(4Z)-2,8:7,12:11,15:14,18:17,22-PENTAANHYDRO-4,5,6,9,10,13,19,20,21-NONADEOXY-D-ARABINO-D-ALLO-D-ALLO-DOCOSA-4,9,20-TRIENITOL

$$$$
