
 OpenBabel10282417072D

 75 77  0  0  0  0  0  0  0  0999 V2000
    8.0854   -8.8925    0.0000 C   0  0  0  0  0  0  0  0  0  0  0  0
    8.0854   -8.0675    0.0000 C   0  0  0  0  0  0  0  0  0  0  0  0
    8.7999   -7.6550    0.0000 C   0  0  0  0  0  0  0  0  0  0  0  0
    7.3709   -7.6550    0.0000 C   0  0  0  0  0  0  0  0  0  0  0  0
    7.3709   -6.8300    0.0000 N   0  0  0  0  0  0  0  0  0  0  0  0
    6.6565   -6.4175    0.0000 C   0  0  0  0  0  0  0  0  0  0  0  0
    6.6565   -5.5925    0.0000 C   0  0  0  0  0  0  0  0  0  0  0  0
    5.9420   -5.1800    0.0000 C   0  0  0  0  0  0  0  0  0  0  0  0
    5.9420   -4.3550    0.0000 N   0  0  0  0  0  0  0  0  0  0  0  0
    5.2275   -3.9425    0.0000 C   0  0  0  0  0  0  0  0  0  0  0  0
    5.2275   -3.1175    0.0000 C   0  0  0  0  0  0  0  0  0  0  0  0
    5.9420   -2.7050    0.0000 N   0  0  0  0  0  0  0  0  0  0  0  0
    5.9420   -1.8800    0.0000 C   0  0  0  0  0  0  0  0  0  0  0  0
    5.2275   -1.4675    0.0000 C   0  0  0  0  0  0  0  0  0  0  0  0
    5.2275   -0.6425    0.0000 C   0  0  0  0  0  0  0  0  0  0  0  0
    4.5131   -0.2300    0.0000 N   0  0  0  0  0  0  0  0  0  0  0  0
    4.5131    0.5950    0.0000 C   0  0  0  0  0  0  0  0  0  0  0  0
    3.8456    1.0799    0.0000 N   0  0  0  0  0  0  0  0  0  0  0  0
    4.1006    1.8645    0.0000 C   0  0  0  0  0  0  0  0  0  0  0  0
    3.6881    2.5790    0.0000 C   0  0  0  0  0  0  0  0  0  0  0  0
    4.1006    3.2935    0.0000 C   0  0  0  0  0  0  0  0  0  0  0  0
    4.9256    3.2935    0.0000 C   0  0  0  0  0  0  0  0  0  0  0  0
    5.3381    2.5790    0.0000 C   0  0  0  0  0  0  0  0  0  0  0  0
    4.9256    1.8645    0.0000 C   0  0  0  0  0  0  0  0  0  0  0  0
    5.1805    1.0799    0.0000 N   0  0  0  0  0  0  0  0  0  0  0  0
    6.6565   -3.1175    0.0000 C   0  0  0  0  0  0  0  0  0  0  0  0
    6.6565   -3.9425    0.0000 C   0  0  0  0  0  0  0  0  0  0  0  0
    8.0854   -6.4175    0.0000 C   0  0  0  0  0  0  0  0  0  0  0  0
    8.0854   -5.5925    0.0000 C   0  0  0  0  0  0  0  0  0  0  0  0
    7.3709   -5.1800    0.0000 C   0  0  0  0  0  0  0  0  0  0  0  0
    8.7999   -5.1800    0.0000 C   0  0  0  0  0  0  0  0  0  0  0  0
    7.1588   -9.4275    0.0000 H   0  0  0  0  0  0  0  0  0  0  0  0
    9.0120   -9.4275    0.0000 H   0  0  0  0  0  0  0  0  0  0  0  0
    8.0854   -9.9625    0.0000 H   0  0  0  0  0  0  0  0  0  0  0  0
    8.0854   -6.9975    0.0000 H   0  0  0  0  0  0  0  0  0  0  0  0
    9.7265   -8.1900    0.0000 H   0  0  0  0  0  0  0  0  0  0  0  0
    8.7999   -6.5850    0.0000 H   0  0  0  0  0  0  0  0  0  0  0  0
    9.7266   -7.1200    0.0000 H   0  0  0  0  0  0  0  0  0  0  0  0
    6.4443   -8.1900    0.0000 H   0  0  0  0  0  0  0  0  0  0  0  0
    6.4443   -7.1200    0.0000 H   0  0  0  0  0  0  0  0  0  0  0  0
    5.7298   -6.9525    0.0000 H   0  0  0  0  0  0  0  0  0  0  0  0
    5.7299   -5.8825    0.0000 H   0  0  0  0  0  0  0  0  0  0  0  0
    7.5831   -5.0575    0.0000 H   0  0  0  0  0  0  0  0  0  0  0  0
    6.6565   -4.5225    0.0000 H   0  0  0  0  0  0  0  0  0  0  0  0
    5.0154   -5.7150    0.0000 H   0  0  0  0  0  0  0  0  0  0  0  0
    5.0154   -4.6450    0.0000 H   0  0  0  0  0  0  0  0  0  0  0  0
    4.3009   -4.4775    0.0000 H   0  0  0  0  0  0  0  0  0  0  0  0
    4.3009   -3.4075    0.0000 H   0  0  0  0  0  0  0  0  0  0  0  0
    4.3009   -2.5825    0.0000 H   0  0  0  0  0  0  0  0  0  0  0  0
    5.2275   -2.0475    0.0000 H   0  0  0  0  0  0  0  0  0  0  0  0
    6.8686   -1.3450    0.0000 H   0  0  0  0  0  0  0  0  0  0  0  0
    5.9420   -0.8100    0.0000 H   0  0  0  0  0  0  0  0  0  0  0  0
    4.3009   -2.0025    0.0000 H   0  0  0  0  0  0  0  0  0  0  0  0
    4.3009   -0.9325    0.0000 H   0  0  0  0  0  0  0  0  0  0  0  0
    6.1542   -0.1075    0.0000 H   0  0  0  0  0  0  0  0  0  0  0  0
    5.2275    0.4275    0.0000 H   0  0  0  0  0  0  0  0  0  0  0  0
    3.6605   -0.7222    0.0000 H   0  0  0  0  0  0  0  0  0  0  0  0
    2.6561    2.5790    0.0000 H   0  0  0  0  0  0  0  0  0  0  0  0
    3.5846    4.1872    0.0000 H   0  0  0  0  0  0  0  0  0  0  0  0
    5.4416    4.1872    0.0000 H   0  0  0  0  0  0  0  0  0  0  0  0
    6.3701    2.5790    0.0000 H   0  0  0  0  0  0  0  0  0  0  0  0
    6.1168    0.7757    0.0000 H   0  0  0  0  0  0  0  0  0  0  0  0
    7.5831   -2.5825    0.0000 H   0  0  0  0  0  0  0  0  0  0  0  0
    7.5831   -3.6525    0.0000 H   0  0  0  0  0  0  0  0  0  0  0  0
    7.5831   -4.4775    0.0000 H   0  0  0  0  0  0  0  0  0  0  0  0
    6.6565   -5.0125    0.0000 H   0  0  0  0  0  0  0  0  0  0  0  0
    9.0120   -6.9525    0.0000 H   0  0  0  0  0  0  0  0  0  0  0  0
    9.0120   -5.8825    0.0000 H   0  0  0  0  0  0  0  0  0  0  0  0
    8.0854   -4.5225    0.0000 H   0  0  0  0  0  0  0  0  0  0  0  0
    7.3709   -4.1100    0.0000 H   0  0  0  0  0  0  0  0  0  0  0  0
    6.4443   -5.7150    0.0000 H   0  0  0  0  0  0  0  0  0  0  0  0
    6.4442   -4.6450    0.0000 H   0  0  0  0  0  0  0  0  0  0  0  0
    9.7265   -5.7150    0.0000 H   0  0  0  0  0  0  0  0  0  0  0  0
    8.7999   -4.1100    0.0000 H   0  0  0  0  0  0  0  0  0  0  0  0
    9.7266   -4.6450    0.0000 H   0  0  0  0  0  0  0  0  0  0  0  0
  1  2  1  0  0  0  0
  1 32  1  0  0  0  0
  1 33  1  0  0  0  0
  1 34  1  0  0  0  0
  2  3  1  0  0  0  0
  2  4  1  0  0  0  0
  2 35  1  0  0  0  0
  3 36  1  0  0  0  0
  3 37  1  0  0  0  0
  3 38  1  0  0  0  0
  4  5  1  0  0  0  0
  4 39  1  0  0  0  0
  4 40  1  0  0  0  0
  5  6  1  0  0  0  0
  5 28  1  0  0  0  0
  6  7  1  0  0  0  0
  6 41  1  0  0  0  0
  6 42  1  0  0  0  0
  7  8  1  0  0  0  0
  7 43  1  0  0  0  0
  7 44  1  0  0  0  0
  8  9  1  0  0  0  0
  8 45  1  0  0  0  0
  8 46  1  0  0  0  0
  9 10  1  0  0  0  0
  9 27  1  0  0  0  0
 10 11  1  0  0  0  0
 10 47  1  0  0  0  0
 10 48  1  0  0  0  0
 11 12  1  0  0  0  0
 11 49  1  0  0  0  0
 11 50  1  0  0  0  0
 12 13  1  0  0  0  0
 12 26  1  0  0  0  0
 13 14  1  0  0  0  0
 13 51  1  0  0  0  0
 13 52  1  0  0  0  0
 14 15  1  0  0  0  0
 14 53  1  0  0  0  0
 14 54  1  0  0  0  0
 15 16  1  0  0  0  0
 15 55  1  0  0  0  0
 15 56  1  0  0  0  0
 16 17  1  0  0  0  0
 16 57  1  0  0  0  0
 17 18  2  0  0  0  0
 17 25  1  0  0  0  0
 18 19  1  0  0  0  0
 19 20  2  0  0  0  0
 19 24  1  0  0  0  0
 20 21  1  0  0  0  0
 20 58  1  0  0  0  0
 21 22  2  0  0  0  0
 21 59  1  0  0  0  0
 22 23  1  0  0  0  0
 22 60  1  0  0  0  0
 23 24  2  0  0  0  0
 23 61  1  0  0  0  0
 24 25  1  0  0  0  0
 25 62  1  0  0  0  0
 26 27  1  0  0  0  0
 26 63  1  0  0  0  0
 26 64  1  0  0  0  0
 27 65  1  0  0  0  0
 27 66  1  0  0  0  0
 28 29  1  0  0  0  0
 28 67  1  0  0  0  0
 28 68  1  0  0  0  0
 29 30  1  0  0  0  0
 29 31  1  0  0  0  0
 29 69  1  0  0  0  0
 30 70  1  0  0  0  0
 30 71  1  0  0  0  0
 30 72  1  0  0  0  0
 31 73  1  0  0  0  0
 31 74  1  0  0  0  0
 31 75  1  0  0  0  0
M  END
>  <DRUGBANK_ID>
DB16954

>  <COMMON_NAME>
Ezeprogind

>  <CAS_NUMBER>
615539-20-3

>  <UNII>
TR9YQ07ELN

>  <SYNONYMS>
1,4-piperazinedipropanamine, n'-1h-benzimidazol-2-yl-n,n-bis(2-methylpropyl)-; 1,4-piperazinedipropanamine, n4-1h-benzimidazol-2-yl-n1,n1-bis(2-methylpropyl)-; Azp-2006 free base; Azp2006 free base; N-(3-(4-(3-(diisobutylamino)propyl)piperazin-1-yl)propyl)-1h-benzo(d)imidazol-2-amine; N4-1h-benzimidazol-2-yl-n1,n1-bis(2-methylpropyl)-1,4-piperazinedipropanamine

$$$$
