
 OpenBabel10282417072D

 42 44  0  0  0  0  0  0  0  0999 V2000
   -5.0013    5.3625    0.0000 O   0  0  0  0  0  0  0  0  0  0  0  0
   -4.2868    4.9500    0.0000 N   0  0  0  0  0  0  0  0  0  0  0  0
   -3.5724    5.3625    0.0000 C   0  0  0  0  0  0  0  0  0  0  0  0
   -3.5724    6.1875    0.0000 O   0  0  0  0  0  0  0  0  0  0  0  0
   -2.8579    4.9500    0.0000 C   0  0  0  0  0  0  0  0  0  0  0  0
   -2.1434    5.3625    0.0000 C   0  0  0  0  0  0  0  0  0  0  0  0
   -1.4289    4.9500    0.0000 C   0  0  0  0  0  0  0  0  0  0  0  0
   -0.7145    5.3625    0.0000 C   0  0  0  0  0  0  0  0  0  0  0  0
   -0.0000    4.9500    0.0000 C   0  0  0  0  0  0  0  0  0  0  0  0
    0.7145    5.3625    0.0000 N   0  0  0  0  0  0  0  0  0  0  0  0
    1.4289    4.9500    0.0000 C   0  0  0  0  0  0  0  0  0  0  0  0
    1.4289    4.1250    0.0000 O   0  0  0  0  0  0  0  0  0  0  0  0
    2.1434    5.3625    0.0000 C   0  0  0  0  0  0  0  0  0  0  0  0
    2.8579    4.9500    0.0000 C   0  0  0  0  0  0  0  0  0  0  0  0
    3.5724    5.3625    0.0000 C   0  0  0  0  0  0  0  0  0  0  0  0
    3.5724    6.1875    0.0000 C   0  0  0  0  0  0  0  0  0  0  0  0
    2.8579    6.6000    0.0000 C   0  0  0  0  0  0  0  0  0  0  0  0
    2.1434    6.1875    0.0000 C   0  0  0  0  0  0  0  0  0  0  0  0
    1.4289    6.6000    0.0000 C   0  0  0  0  0  0  0  0  0  0  0  0
    1.4289    7.4250    0.0000 C   0  0  0  0  0  0  0  0  0  0  0  0
    2.1434    7.8375    0.0000 C   0  0  0  0  0  0  0  0  0  0  0  0
    2.8579    7.4250    0.0000 C   0  0  0  0  0  0  0  0  0  0  0  0
    0.7145    6.1875    0.0000 C   0  0  0  0  0  0  0  0  0  0  0  0
    0.0000    6.6000    0.0000 O   0  0  0  0  0  0  0  0  0  0  0  0
   -5.0013    6.3325    0.0000 H   0  0  0  0  0  0  0  0  0  0  0  0
   -4.2868    3.9655    0.0000 H   0  0  0  0  0  0  0  0  0  0  0  0
   -2.8579    3.8800    0.0000 H   0  0  0  0  0  0  0  0  0  0  0  0
   -1.9313    4.4150    0.0000 H   0  0  0  0  0  0  0  0  0  0  0  0
   -2.1434    6.4325    0.0000 H   0  0  0  0  0  0  0  0  0  0  0  0
   -1.2168    5.8975    0.0000 H   0  0  0  0  0  0  0  0  0  0  0  0
   -1.4289    3.8800    0.0000 H   0  0  0  0  0  0  0  0  0  0  0  0
   -0.5022    4.4150    0.0000 H   0  0  0  0  0  0  0  0  0  0  0  0
   -0.7145    6.4325    0.0000 H   0  0  0  0  0  0  0  0  0  0  0  0
    0.2121    5.8975    0.0000 H   0  0  0  0  0  0  0  0  0  0  0  0
    0.0000    3.8800    0.0000 H   0  0  0  0  0  0  0  0  0  0  0  0
    0.9266    4.4150    0.0000 H   0  0  0  0  0  0  0  0  0  0  0  0
    2.8579    3.9180    0.0000 H   0  0  0  0  0  0  0  0  0  0  0  0
    4.4661    4.8465    0.0000 H   0  0  0  0  0  0  0  0  0  0  0  0
    4.4661    6.7035    0.0000 H   0  0  0  0  0  0  0  0  0  0  0  0
    0.5352    7.9410    0.0000 H   0  0  0  0  0  0  0  0  0  0  0  0
    2.1434    8.8695    0.0000 H   0  0  0  0  0  0  0  0  0  0  0  0
    3.7516    7.9410    0.0000 H   0  0  0  0  0  0  0  0  0  0  0  0
  1  2  1  0  0  0  0
  1 25  1  0  0  0  0
  2  3  1  0  0  0  0
  2 26  1  0  0  0  0
  3  4  2  0  0  0  0
  3  5  1  0  0  0  0
  5  6  1  0  0  0  0
  5 27  1  0  0  0  0
  5 28  1  0  0  0  0
  6  7  1  0  0  0  0
  6 29  1  0  0  0  0
  6 30  1  0  0  0  0
  7  8  1  0  0  0  0
  7 31  1  0  0  0  0
  7 32  1  0  0  0  0
  8  9  1  0  0  0  0
  8 33  1  0  0  0  0
  8 34  1  0  0  0  0
  9 10  1  0  0  0  0
  9 35  1  0  0  0  0
  9 36  1  0  0  0  0
 10 11  1  0  0  0  0
 10 23  1  0  0  0  0
 11 12  2  0  0  0  0
 11 13  1  0  0  0  0
 13 14  2  0  0  0  0
 13 18  1  0  0  0  0
 14 15  1  0  0  0  0
 14 37  1  0  0  0  0
 15 16  2  0  0  0  0
 15 38  1  0  0  0  0
 16 17  1  0  0  0  0
 16 39  1  0  0  0  0
 17 18  2  0  0  0  0
 17 22  1  0  0  0  0
 18 19  1  0  0  0  0
 19 20  2  0  0  0  0
 19 23  1  0  0  0  0
 20 21  1  0  0  0  0
 20 40  1  0  0  0  0
 21 22  2  0  0  0  0
 21 41  1  0  0  0  0
 22 42  1  0  0  0  0
 23 24  2  0  0  0  0
M  END
>  <DRUGBANK_ID>
DB17053

>  <COMMON_NAME>
Scriptaid

>  <CAS_NUMBER>
287383-59-9

>  <UNII>
EJQ8CD8BSV

>  <SYNONYMS>
1h-benz(de)isoquinoline-2(3h)-hexanamide, n-hydroxy-1,3-dioxo-; N-hydroxy-1,3-dioxo-1h-benz(de)isoquinoline-2(3h)-hexan amide

$$$$
