1143
 OpenBabel10282417072D

 27 26  0  0  0  0  0  0  0  0999 V2000
    3.5220    0.1910    0.0000 S   0  0  0  0  0  0  0  0  0  0  0  0
    2.8075   -0.2215    0.0000 P   0  0  0  0  0  0  0  0  0  0  0  0
    2.0930   -0.6340    0.0000 O   0  0  0  0  0  0  0  0  0  0  0  0
    2.3950    0.4930    0.0000 O   0  0  0  0  0  0  0  0  0  0  0  0
    3.2200   -0.9360    0.0000 O   0  0  0  0  0  0  0  0  0  0  0  0
    5.6655   -0.2215    0.0000 N   0  0  0  0  0  0  0  0  0  0  0  0
    8.5234   -0.2215    0.0000 N   0  0  0  0  0  0  0  0  0  0  0  0
    6.3799    0.1910    0.0000 C   0  0  0  0  0  0  0  0  0  0  0  0
    7.0944   -0.2215    0.0000 C   0  0  0  0  0  0  0  0  0  0  0  0
    4.9509    0.1910    0.0000 C   0  0  0  0  0  0  0  0  0  0  0  0
    4.2365   -0.2215    0.0000 C   0  0  0  0  0  0  0  0  0  0  0  0
    7.8089    0.1910    0.0000 C   0  0  0  0  0  0  0  0  0  0  0  0
    1.2530   -0.1490    0.0000 H   0  0  0  0  0  0  0  0  0  0  0  0
    2.8800    1.3330    0.0000 H   0  0  0  0  0  0  0  0  0  0  0  0
    5.6656   -1.2415    0.0000 H   0  0  0  0  0  0  0  0  0  0  0  0
    8.5234   -1.2415    0.0000 H   0  0  0  0  0  0  0  0  0  0  0  0
    9.4067    0.2885    0.0000 H   0  0  0  0  0  0  0  0  0  0  0  0
    6.3799    1.2610    0.0000 H   0  0  0  0  0  0  0  0  0  0  0  0
    7.3065    0.7260    0.0000 H   0  0  0  0  0  0  0  0  0  0  0  0
    7.0944   -1.2915    0.0000 H   0  0  0  0  0  0  0  0  0  0  0  0
    8.0210   -0.7565    0.0000 H   0  0  0  0  0  0  0  0  0  0  0  0
    4.9508    1.2610    0.0000 H   0  0  0  0  0  0  0  0  0  0  0  0
    4.0242    0.7260    0.0000 H   0  0  0  0  0  0  0  0  0  0  0  0
    4.2365   -1.2915    0.0000 H   0  0  0  0  0  0  0  0  0  0  0  0
    5.1632   -0.7565    0.0000 H   0  0  0  0  0  0  0  0  0  0  0  0
    7.8089    1.2610    0.0000 H   0  0  0  0  0  0  0  0  0  0  0  0
    6.8823    0.7260    0.0000 H   0  0  0  0  0  0  0  0  0  0  0  0
  1  2  1  0  0  0  0
  1 11  1  0  0  0  0
  2  3  1  0  0  0  0
  2  4  1  0  0  0  0
  2  5  2  0  0  0  0
  3 13  1  0  0  0  0
  4 14  1  0  0  0  0
  6  8  1  0  0  0  0
  6 10  1  0  0  0  0
  6 15  1  0  0  0  0
  7 12  1  0  0  0  0
  7 16  1  0  0  0  0
  7 17  1  0  0  0  0
  8  9  1  0  0  0  0
  8 18  1  0  0  0  0
  8 19  1  0  0  0  0
  9 12  1  0  0  0  0
  9 20  1  0  0  0  0
  9 21  1  0  0  0  0
 10 11  1  0  0  0  0
 10 22  1  0  0  0  0
 10 23  1  0  0  0  0
 11 24  1  0  0  0  0
 11 25  1  0  0  0  0
 12 26  1  0  0  0  0
 12 27  1  0  0  0  0
M  END
>  <DRUGBANK_ID>
DB01143

>  <SECONDARY_ACCESSION_NUMBERS>
APRD00021

>  <COMMON_NAME>
Amifostine

>  <CAS_NUMBER>
20537-88-6

>  <UNII>
ILA426L95O

>  <SYNONYMS>
Amifostina; Amifostine; Amifostine anhydrous; Amifostinum; Aminopropylaminoethyl thiophosphate; Ethiofos

$$$$
