
 OpenBabel10282417072D

 22 22  0  0  0  0  0  0  0  0999 V2000
   -0.7144    1.2375    0.0000 C   0  0  0  0  0  0  0  0  0  0  0  0
    0.0000    0.8249    0.0000 C   0  0  0  0  0  0  0  0  0  0  0  0
    0.7144    1.2374    0.0000 C   0  0  0  0  0  0  0  0  0  0  0  0
    1.4288    0.8250    0.0000 C   0  0  0  0  0  0  0  0  0  0  0  0
    2.1433    1.2375    0.0000 N   0  0  0  0  0  0  0  0  0  0  0  0
    1.4289    0.0000    0.0000 C   0  0  0  0  0  0  0  0  0  0  0  0
    2.1433   -0.4125    0.0000 N   0  0  0  0  0  0  0  0  0  0  0  0
    0.7144   -0.4124    0.0000 C   0  0  0  0  0  0  0  0  0  0  0  0
    0.0000    0.0000    0.0000 C   0  0  0  0  0  0  0  0  0  0  0  0
   -0.7145   -0.4124    0.0000 C   0  0  0  0  0  0  0  0  0  0  0  0
   -0.7142    2.3075    0.0000 H   0  0  0  0  0  0  0  0  0  0  0  0
   -1.6411    0.7026    0.0000 H   0  0  0  0  0  0  0  0  0  0  0  0
   -1.6410    1.7726    0.0000 H   0  0  0  0  0  0  0  0  0  0  0  0
    0.7143    2.2694    0.0000 H   0  0  0  0  0  0  0  0  0  0  0  0
    2.9959    0.7452    0.0000 H   0  0  0  0  0  0  0  0  0  0  0  0
    2.1433    2.2220    0.0000 H   0  0  0  0  0  0  0  0  0  0  0  0
    2.1433   -1.3970    0.0000 H   0  0  0  0  0  0  0  0  0  0  0  0
    2.9959    0.0797    0.0000 H   0  0  0  0  0  0  0  0  0  0  0  0
    0.7144   -1.4444    0.0000 H   0  0  0  0  0  0  0  0  0  0  0  0
   -1.6411    0.1227    0.0000 H   0  0  0  0  0  0  0  0  0  0  0  0
   -0.7146   -1.4824    0.0000 H   0  0  0  0  0  0  0  0  0  0  0  0
   -1.6412   -0.9473    0.0000 H   0  0  0  0  0  0  0  0  0  0  0  0
  1  2  1  0  0  0  0
  1 11  1  0  0  0  0
  1 12  1  0  0  0  0
  1 13  1  0  0  0  0
  2  3  2  0  0  0  0
  2  9  1  0  0  0  0
  3  4  1  0  0  0  0
  3 14  1  0  0  0  0
  4  5  1  0  0  0  0
  4  6  2  0  0  0  0
  5 15  1  0  0  0  0
  5 16  1  0  0  0  0
  6  7  1  0  0  0  0
  6  8  1  0  0  0  0
  7 17  1  0  0  0  0
  7 18  1  0  0  0  0
  8  9  2  0  0  0  0
  8 19  1  0  0  0  0
  9 10  1  0  0  0  0
 10 20  1  0  0  0  0
 10 21  1  0  0  0  0
 10 22  1  0  0  0  0
M  END
>  <DRUGBANK_ID>
DB03180

>  <SECONDARY_ACCESSION_NUMBERS>
EXPT00037

>  <COMMON_NAME>
4,5-Dimethyl-1,2-phenylenediamine

>  <CAS_NUMBER>
3171-45-7

>  <UNII>
1OJ9D3R6NH

>  <SYNONYMS>
4,5-Dimethyl-o-phenylenediamine

$$$$
