
 OpenBabel10282417072D

 61 64  0  0  0  0  0  0  0  0999 V2000
    2.8579   -6.6000    0.0000 C   0  0  0  0  0  0  0  0  0  0  0  0
    2.8579   -7.4250    0.0000 C   0  0  0  0  0  0  0  0  0  0  0  0
    3.5253   -7.9099    0.0000 C   0  0  0  0  0  0  0  0  0  0  0  0
    3.2704   -8.6945    0.0000 N   0  0  0  0  0  0  0  0  0  0  0  0
    2.4454   -8.6945    0.0000 C   0  0  0  0  0  0  0  0  0  0  0  0
    2.1904   -7.9099    0.0000 O   0  0  0  0  0  0  0  0  0  0  0  0
    1.9605   -9.3620    0.0000 C   0  0  0  0  0  0  0  0  0  0  0  0
    2.2960  -10.1157    0.0000 C   0  0  0  0  0  0  0  0  0  0  0  0
    1.8111  -10.7831    0.0000 C   0  0  0  0  0  0  0  0  0  0  0  0
    0.9906  -10.6969    0.0000 C   0  0  0  0  0  0  0  0  0  0  0  0
    0.6551   -9.9432    0.0000 C   0  0  0  0  0  0  0  0  0  0  0  0
    1.1400   -9.2757    0.0000 C   0  0  0  0  0  0  0  0  0  0  0  0
    4.3099   -7.6550    0.0000 C   0  0  0  0  0  0  0  0  0  0  0  0
    4.4815   -6.8480    0.0000 O   0  0  0  0  0  0  0  0  0  0  0  0
    5.2661   -6.5931    0.0000 C   0  0  0  0  0  0  0  0  0  0  0  0
    5.4376   -5.7861    0.0000 C   0  0  0  0  0  0  0  0  0  0  0  0
    6.2222   -5.5312    0.0000 C   0  0  0  0  0  0  0  0  0  0  0  0
    6.8353   -6.0832    0.0000 C   0  0  0  0  0  0  0  0  0  0  0  0
    6.6638   -6.8902    0.0000 C   0  0  0  0  0  0  0  0  0  0  0  0
    5.8792   -7.1451    0.0000 C   0  0  0  0  0  0  0  0  0  0  0  0
    7.6200   -5.8283    0.0000 C   0  0  0  0  0  0  0  0  0  0  0  0
    7.7915   -5.0213    0.0000 O   0  0  0  0  0  0  0  0  0  0  0  0
    8.5761   -4.7663    0.0000 N   0  0  0  0  0  0  0  0  0  0  0  0
    8.7476   -3.9594    0.0000 C   0  0  0  0  0  0  0  0  0  0  0  0
    8.1345   -3.4073    0.0000 C   0  0  0  0  0  0  0  0  0  0  0  0
    7.3499   -3.6623    0.0000 C   0  0  0  0  0  0  0  0  0  0  0  0
    6.7368   -3.1102    0.0000 C   0  0  0  0  0  0  0  0  0  0  0  0
    6.9084   -2.3033    0.0000 O   0  0  0  0  0  0  0  0  0  0  0  0
    5.9522   -3.3652    0.0000 O   0  0  0  0  0  0  0  0  0  0  0  0
    9.5323   -3.7044    0.0000 C   0  0  0  0  0  0  0  0  0  0  0  0
    9.7038   -2.8975    0.0000 C   0  0  0  0  0  0  0  0  0  0  0  0
   10.4884   -2.6425    0.0000 C   0  0  0  0  0  0  0  0  0  0  0  0
   11.1015   -3.1946    0.0000 C   0  0  0  0  0  0  0  0  0  0  0  0
   10.9300   -4.0015    0.0000 C   0  0  0  0  0  0  0  0  0  0  0  0
   10.1454   -4.2565    0.0000 C   0  0  0  0  0  0  0  0  0  0  0  0
    3.7845   -6.0650    0.0000 H   0  0  0  0  0  0  0  0  0  0  0  0
    1.9313   -6.0650    0.0000 H   0  0  0  0  0  0  0  0  0  0  0  0
    2.8579   -5.5300    0.0000 H   0  0  0  0  0  0  0  0  0  0  0  0
    3.3223  -10.2236    0.0000 H   0  0  0  0  0  0  0  0  0  0  0  0
    2.2309  -11.7259    0.0000 H   0  0  0  0  0  0  0  0  0  0  0  0
    0.3840  -11.5318    0.0000 H   0  0  0  0  0  0  0  0  0  0  0  0
   -0.3712   -9.8353    0.0000 H   0  0  0  0  0  0  0  0  0  0  0  0
    0.7203   -8.3329    0.0000 H   0  0  0  0  0  0  0  0  0  0  0  0
    5.1050   -8.3710    0.0000 H   0  0  0  0  0  0  0  0  0  0  0  0
    5.3276   -7.3244    0.0000 H   0  0  0  0  0  0  0  0  0  0  0  0
    4.6707   -5.0956    0.0000 H   0  0  0  0  0  0  0  0  0  0  0  0
    6.4368   -4.5218    0.0000 H   0  0  0  0  0  0  0  0  0  0  0  0
    7.4307   -7.5807    0.0000 H   0  0  0  0  0  0  0  0  0  0  0  0
    5.6646   -8.1545    0.0000 H   0  0  0  0  0  0  0  0  0  0  0  0
    8.4152   -6.5443    0.0000 H   0  0  0  0  0  0  0  0  0  0  0  0
    8.6376   -5.4976    0.0000 H   0  0  0  0  0  0  0  0  0  0  0  0
    8.3570   -2.3607    0.0000 H   0  0  0  0  0  0  0  0  0  0  0  0
    7.3393   -2.6914    0.0000 H   0  0  0  0  0  0  0  0  0  0  0  0
    7.1274   -4.7089    0.0000 H   0  0  0  0  0  0  0  0  0  0  0  0
    6.3323   -3.9929    0.0000 H   0  0  0  0  0  0  0  0  0  0  0  0
    5.2558   -2.7383    0.0000 H   0  0  0  0  0  0  0  0  0  0  0  0
    8.9368   -2.2070    0.0000 H   0  0  0  0  0  0  0  0  0  0  0  0
   10.7030   -1.6330    0.0000 H   0  0  0  0  0  0  0  0  0  0  0  0
   12.0830   -2.8757    0.0000 H   0  0  0  0  0  0  0  0  0  0  0  0
   11.6970   -4.6920    0.0000 H   0  0  0  0  0  0  0  0  0  0  0  0
    9.9308   -5.2660    0.0000 H   0  0  0  0  0  0  0  0  0  0  0  0
  1  2  1  0  0  0  0
  1 36  1  0  0  0  0
  1 37  1  0  0  0  0
  1 38  1  0  0  0  0
  2  3  2  0  0  0  0
  2  6  1  0  0  0  0
  3  4  1  0  0  0  0
  3 13  1  0  0  0  0
  4  5  2  0  0  0  0
  5  6  1  0  0  0  0
  5  7  1  0  0  0  0
  7  8  2  0  0  0  0
  7 12  1  0  0  0  0
  8  9  1  0  0  0  0
  8 39  1  0  0  0  0
  9 10  2  0  0  0  0
  9 40  1  0  0  0  0
 10 11  1  0  0  0  0
 10 41  1  0  0  0  0
 11 12  2  0  0  0  0
 11 42  1  0  0  0  0
 12 43  1  0  0  0  0
 13 14  1  0  0  0  0
 13 44  1  0  0  0  0
 13 45  1  0  0  0  0
 14 15  1  0  0  0  0
 15 16  2  0  0  0  0
 15 20  1  0  0  0  0
 16 17  1  0  0  0  0
 16 46  1  0  0  0  0
 17 18  2  0  0  0  0
 17 47  1  0  0  0  0
 18 19  1  0  0  0  0
 18 21  1  0  0  0  0
 19 20  2  0  0  0  0
 19 48  1  0  0  0  0
 20 49  1  0  0  0  0
 21 22  1  0  0  0  0
 21 50  1  0  0  0  0
 21 51  1  0  0  0  0
 22 23  1  0  0  0  0
 23 24  2  0  0  0  0
 24 25  1  0  0  0  0
 24 30  1  0  0  0  0
 25 26  1  0  0  0  0
 25 52  1  0  0  0  0
 25 53  1  0  0  0  0
 26 27  1  0  0  0  0
 26 54  1  0  0  0  0
 26 55  1  0  0  0  0
 27 28  2  0  0  0  0
 27 29  1  0  0  0  0
 29 56  1  0  0  0  0
 30 31  2  0  0  0  0
 30 35  1  0  0  0  0
 31 32  1  0  0  0  0
 31 57  1  0  0  0  0
 32 33  2  0  0  0  0
 32 58  1  0  0  0  0
 33 34  1  0  0  0  0
 33 59  1  0  0  0  0
 34 35  2  0  0  0  0
 34 60  1  0  0  0  0
 35 61  1  0  0  0  0
M  END
>  <DRUGBANK_ID>
DB12511

>  <COMMON_NAME>
Imiglitazar

>  <CAS_NUMBER>
250601-04-8

>  <UNII>
7244710F59

>  <SYNONYMS>
Imiglitazar

$$$$
