478
 OpenBabel10282417072D

 34 36  0  0  1  0  0  0  0  0999 V2000
    3.8090    1.3595    0.0000 N   0  0  0  0  0  0  0  0  0  0  0  0
    3.0823    0.1008    0.0000 C   0  0  3  0  0  0  0  0  0  0  0  0
    2.3806   -1.1146    0.0000 C   0  0  3  0  0  0  0  0  0  0  0  0
    2.5023   -1.4797    0.0000 C   0  0  3  0  0  0  0  0  0  0  0  0
    3.7840   -1.1146    0.0000 C   0  0  3  0  0  0  0  0  0  0  0  0
    2.3806   -0.3044    0.0000 C   0  0  0  0  0  0  0  0  0  0  0  0
    2.5023   -0.6026    0.0000 C   0  0  0  0  0  0  0  0  0  0  0  0
    3.7840   -0.3044    0.0000 C   0  0  0  0  0  0  0  0  0  0  0  0
    1.6783   -1.5197    0.0000 C   0  0  0  0  0  0  0  0  0  0  0  0
    3.0823   -1.3687    0.0000 C   0  0  0  0  0  0  0  0  0  0  0  0
    3.2623   -1.8799    0.0000 C   0  0  0  0  0  0  0  0  0  0  0  0
    3.0823    0.9399    0.0000 C   0  0  3  0  0  0  0  0  0  0  0  0
    2.3555    1.3595    0.0000 C   0  0  0  0  0  0  0  0  0  0  0  0
    4.6924    0.8495    0.0000 H   0  0  0  0  0  0  0  0  0  0  0  0
    3.8090    2.3795    0.0000 H   0  0  0  0  0  0  0  0  0  0  0  0
    1.4541   -0.5794    0.0000 H   0  0  0  0  0  0  0  0  0  0  0  0
    1.7276   -0.7417    0.0000 H   0  0  0  0  0  0  0  0  0  0  0  0
    2.9080   -0.5002    0.0000 H   0  0  0  0  0  0  0  0  0  0  0  0
    1.4539    0.2306    0.0000 H   0  0  0  0  0  0  0  0  0  0  0  0
    1.4540   -0.8394    0.0000 H   0  0  0  0  0  0  0  0  0  0  0  0
    1.4953   -0.2410    0.0000 H   0  0  0  0  0  0  0  0  0  0  0  0
    1.6271   -1.2182    0.0000 H   0  0  0  0  0  0  0  0  0  0  0  0
    4.7107    0.2306    0.0000 H   0  0  0  0  0  0  0  0  0  0  0  0
    4.7106   -0.8394    0.0000 H   0  0  0  0  0  0  0  0  0  0  0  0
    0.6517   -1.8214    0.0000 H   0  0  0  0  0  0  0  0  0  0  0  0
    1.8563   -2.5748    0.0000 H   0  0  0  0  0  0  0  0  0  0  0  0
    3.0823   -2.4387    0.0000 H   0  0  0  0  0  0  0  0  0  0  0  0
    3.9583   -1.9831    0.0000 H   0  0  0  0  0  0  0  0  0  0  0  0
    3.5207   -2.9182    0.0000 H   0  0  0  0  0  0  0  0  0  0  0  0
    4.3155   -2.0685    0.0000 H   0  0  0  0  0  0  0  0  0  0  0  0
    4.0090    0.4049    0.0000 H   0  0  0  0  0  0  0  0  0  0  0  0
    2.3555    2.4295    0.0000 H   0  0  0  0  0  0  0  0  0  0  0  0
    1.4289    0.8245    0.0000 H   0  0  0  0  0  0  0  0  0  0  0  0
    1.4288    1.8945    0.0000 H   0  0  0  0  0  0  0  0  0  0  0  0
  1 12  1  0  0  0  0
  1 14  1  0  0  0  0
  1 15  1  0  0  0  0
  2  6  1  0  0  0  0
  2  7  1  0  0  0  0
  2  8  1  0  0  0  0
  2 12  1  0  0  0  0
  3  6  1  0  0  0  0
  3  9  1  0  0  0  0
  3 10  1  0  0  0  0
  3 16  1  0  0  0  0
  4  7  1  0  0  0  0
  4  9  1  0  0  0  0
  4 11  1  0  0  0  0
  4 17  1  0  0  0  0
  5  8  1  0  0  0  0
  5 10  1  0  0  0  0
  5 11  1  0  0  0  0
  5 18  1  0  0  0  0
  6 19  1  0  0  0  0
  6 20  1  0  0  0  0
  7 21  1  0  0  0  0
  7 22  1  0  0  0  0
  8 23  1  0  0  0  0
  8 24  1  0  0  0  0
  9 25  1  0  0  0  0
  9 26  1  0  0  0  0
 10 27  1  0  0  0  0
 10 28  1  0  0  0  0
 11 29  1  0  0  0  0
 11 30  1  0  0  0  0
 12 13  1  0  0  0  0
 12 31  1  0  0  0  0
 13 32  1  0  0  0  0
 13 33  1  0  0  0  0
 13 34  1  0  0  0  0
M  END
>  <DRUGBANK_ID>
DB00478

>  <SECONDARY_ACCESSION_NUMBERS>
APRD01219

>  <COMMON_NAME>
Rimantadine

>  <CAS_NUMBER>
13392-28-4

>  <UNII>
0T2EF4JQTU

>  <SYNONYMS>
alpha-Methyl-1-adamantanemethylamine; alpha-Methyladamantanemethylamine; Rimantadina; Rimantadine; Rimantadinum

$$$$
