
 OpenBabel10282417072D

 67 70  0  0  0  0  0  0  0  0999 V2000
   -3.2115   -3.0914    0.0000 C   0  0  0  0  0  0  0  0  0  0  0  0
   -2.4970   -2.6788    0.0000 N   0  0  0  0  0  0  0  0  0  0  0  0
   -1.7826   -3.0914    0.0000 C   0  0  0  0  0  0  0  0  0  0  0  0
   -1.7826   -3.9164    0.0000 C   0  0  0  0  0  0  0  0  0  0  0  0
   -2.4970   -4.3289    0.0000 N   0  0  0  0  0  0  0  0  0  0  0  0
   -3.2115   -3.9164    0.0000 C   0  0  0  0  0  0  0  0  0  0  0  0
   -2.4970   -1.8538    0.0000 C   0  0  0  0  0  0  0  0  0  0  0  0
   -1.7825   -1.4413    0.0000 C   0  0  0  0  0  0  0  0  0  0  0  0
   -1.7823   -0.6163    0.0000 C   0  0  0  0  0  0  0  0  0  0  0  0
   -1.0696   -0.2057    0.0000 N   0  0  0  0  0  0  0  0  0  0  0  0
   -0.3549   -0.6183    0.0000 C   0  0  0  0  0  0  0  0  0  0  0  0
   -0.3533   -1.4392    0.0000 C   0  0  0  0  0  0  0  0  0  0  0  0
   -1.0650   -1.8556    0.0000 C   0  0  0  0  0  0  0  0  0  0  0  0
    0.3552   -0.2065    0.0000 N   0  0  0  0  0  0  0  0  0  0  0  0
    1.0669   -0.6156    0.0000 C   0  0  0  0  0  0  0  0  0  0  0  0
    1.0685   -1.4365    0.0000 C   0  0  0  0  0  0  0  0  0  0  0  0
    0.3584   -1.8483    0.0000 C   0  0  0  0  0  0  0  0  0  0  0  0
    0.3552    0.6184    0.0000 C   0  0  0  0  0  0  0  0  0  0  0  0
   -0.3592    1.0310    0.0000 N   0  0  0  0  0  0  0  0  0  0  0  0
   -0.3592    1.8560    0.0000 C   0  0  0  0  0  0  0  0  0  0  0  0
   -1.0736    2.2687    0.0000 N   0  0  0  0  0  0  0  0  0  0  0  0
   -1.0729    3.0912    0.0000 C   0  0  0  0  0  0  0  0  0  0  0  0
   -0.3582    3.5039    0.0000 C   0  0  0  0  0  0  0  0  0  0  0  0
    0.3535    3.0948    0.0000 C   0  0  0  0  0  0  0  0  0  0  0  0
    0.3583    2.2703    0.0000 C   0  0  0  0  0  0  0  0  0  0  0  0
   -2.4968   -0.2038    0.0000 C   0  0  0  0  0  0  0  0  0  0  0  0
   -2.4970   -5.1540    0.0000 C   0  0  0  0  0  0  0  0  0  0  0  0
   -3.9260   -2.6788    0.0000 O   0  0  0  0  0  0  0  0  0  0  0  0
    1.0697    1.0310    0.0000 O   0  0  0  0  0  0  0  0  0  0  0  0
   -2.4968    0.6211    0.0000 O   0  0  0  0  0  0  0  0  0  0  0  0
   -0.3582    4.3289    0.0000 C   0  0  0  0  0  0  0  0  0  0  0  0
   -0.3582    5.1540    0.0000 N   0  0  0  0  0  0  0  0  0  0  0  0
    1.0680    3.5073    0.0000 N   0  0  0  0  0  0  0  0  0  0  0  0
    1.7825    3.0948    0.0000 C   0  0  0  0  0  0  0  0  0  0  0  0
    2.4969    3.5073    0.0000 C   0  0  0  0  0  0  0  0  0  0  0  0
    3.2115    3.0948    0.0000 O   0  0  0  0  0  0  0  0  0  0  0  0
    3.9260    3.5073    0.0000 C   0  0  0  0  0  0  0  0  0  0  0  0
   -0.8559   -2.5565    0.0000 H   0  0  0  0  0  0  0  0  0  0  0  0
   -0.8560   -3.6264    0.0000 H   0  0  0  0  0  0  0  0  0  0  0  0
   -0.8559   -4.4514    0.0000 H   0  0  0  0  0  0  0  0  0  0  0  0
   -1.7826   -4.9864    0.0000 H   0  0  0  0  0  0  0  0  0  0  0  0
   -4.1381   -4.4514    0.0000 H   0  0  0  0  0  0  0  0  0  0  0  0
   -3.2115   -4.9864    0.0000 H   0  0  0  0  0  0  0  0  0  0  0  0
   -3.4236   -1.3188    0.0000 H   0  0  0  0  0  0  0  0  0  0  0  0
   -2.4970   -0.7838    0.0000 H   0  0  0  0  0  0  0  0  0  0  0  0
   -1.0620   -2.8876    0.0000 H   0  0  0  0  0  0  0  0  0  0  0  0
    1.9925   -0.0788    0.0000 H   0  0  0  0  0  0  0  0  0  0  0  0
    1.9946   -1.1488    0.0000 H   0  0  0  0  0  0  0  0  0  0  0  0
    1.9962   -1.9697    0.0000 H   0  0  0  0  0  0  0  0  0  0  0  0
    1.0706   -2.5065    0.0000 H   0  0  0  0  0  0  0  0  0  0  0  0
    0.3604   -2.9183    0.0000 H   0  0  0  0  0  0  0  0  0  0  0  0
   -0.5672   -2.3851    0.0000 H   0  0  0  0  0  0  0  0  0  0  0  0
   -1.2118    0.5388    0.0000 H   0  0  0  0  0  0  0  0  0  0  0  0
   -1.9664    3.6075    0.0000 H   0  0  0  0  0  0  0  0  0  0  0  0
    1.2536    1.7569    0.0000 H   0  0  0  0  0  0  0  0  0  0  0  0
   -3.3905   -0.7198    0.0000 H   0  0  0  0  0  0  0  0  0  0  0  0
   -3.4236   -5.6890    0.0000 H   0  0  0  0  0  0  0  0  0  0  0  0
   -1.5704   -5.6890    0.0000 H   0  0  0  0  0  0  0  0  0  0  0  0
   -2.4970   -6.2240    0.0000 H   0  0  0  0  0  0  0  0  0  0  0  0
    1.0680    4.4918    0.0000 H   0  0  0  0  0  0  0  0  0  0  0  0
    1.7825    2.0248    0.0000 H   0  0  0  0  0  0  0  0  0  0  0  0
    2.7092    2.5598    0.0000 H   0  0  0  0  0  0  0  0  0  0  0  0
    2.4968    4.5773    0.0000 H   0  0  0  0  0  0  0  0  0  0  0  0
    3.4235    4.0424    0.0000 H   0  0  0  0  0  0  0  0  0  0  0  0
    4.8526    2.9723    0.0000 H   0  0  0  0  0  0  0  0  0  0  0  0
    3.9260    4.5773    0.0000 H   0  0  0  0  0  0  0  0  0  0  0  0
    4.8527    4.0423    0.0000 H   0  0  0  0  0  0  0  0  0  0  0  0
  1  2  1  0  0  0  0
  1  6  1  0  0  0  0
  1 28  2  0  0  0  0
  2  7  1  0  0  0  0
  3  2  1  0  0  0  0
  3 38  1  0  0  0  0
  3 39  1  0  0  0  0
  4  3  1  0  0  0  0
  4 40  1  0  0  0  0
  4 41  1  0  0  0  0
  5  4  1  0  0  0  0
  5 27  1  0  0  0  0
  6  5  1  0  0  0  0
  6 42  1  0  0  0  0
  6 43  1  0  0  0  0
  7  8  1  0  0  0  0
  7 44  1  0  0  0  0
  7 45  1  0  0  0  0
  8 13  1  0  0  0  0
  9  8  2  0  0  0  0
  9 26  1  0  0  0  0
 10  9  1  0  0  0  0
 11 10  2  0  0  0  0
 11 14  1  0  0  0  0
 12 11  1  0  0  0  0
 12 17  1  0  0  0  0
 13 12  2  0  0  0  0
 13 46  1  0  0  0  0
 14 18  1  0  0  0  0
 15 14  1  0  0  0  0
 15 47  1  0  0  0  0
 15 48  1  0  0  0  0
 16 15  1  0  0  0  0
 16 49  1  0  0  0  0
 16 50  1  0  0  0  0
 17 16  1  0  0  0  0
 17 51  1  0  0  0  0
 17 52  1  0  0  0  0
 18 19  1  0  0  0  0
 18 29  2  0  0  0  0
 19 20  1  0  0  0  0
 19 53  1  0  0  0  0
 20 25  1  0  0  0  0
 21 20  2  0  0  0  0
 22 21  1  0  0  0  0
 22 54  1  0  0  0  0
 23 22  2  0  0  0  0
 23 31  1  0  0  0  0
 24 23  1  0  0  0  0
 24 33  1  0  0  0  0
 25 24  2  0  0  0  0
 25 55  1  0  0  0  0
 26 30  2  0  0  0  0
 26 56  1  0  0  0  0
 27 57  1  0  0  0  0
 27 58  1  0  0  0  0
 27 59  1  0  0  0  0
 31 32  3  0  0  0  0
 33 34  1  0  0  0  0
 33 60  1  0  0  0  0
 34 35  1  0  0  0  0
 34 61  1  0  0  0  0
 34 62  1  0  0  0  0
 35 36  1  0  0  0  0
 35 63  1  0  0  0  0
 35 64  1  0  0  0  0
 36 37  1  0  0  0  0
 37 65  1  0  0  0  0
 37 66  1  0  0  0  0
 37 67  1  0  0  0  0
M  END
>  <DRUGBANK_ID>
DB16845

>  <COMMON_NAME>
Roblitinib

>  <CAS_NUMBER>
1708971-55-4

>  <UNII>
M64JF6WMSA

>  <SYNONYMS>
Roblitinib

$$$$
