
 OpenBabel10282417072D

 61 63  0  0  1  0  0  0  0  0999 V2000
   -4.9500   -3.2408    0.0000 C   0  0  0  0  0  0  0  0  0  0  0  0
   -4.5375   -2.5263    0.0000 C   0  0  0  0  0  0  0  0  0  0  0  0
   -3.7125   -2.5263    0.0000 C   0  0  1  0  0  0  0  0  0  0  0  0
   -3.3000   -3.2408    0.0000 C   0  0  0  0  0  0  0  0  0  0  0  0
   -3.3000   -1.8118    0.0000 C   0  0  0  0  0  0  0  0  0  0  0  0
   -2.4750   -1.8118    0.0000 C   0  0  0  0  0  0  0  0  0  0  0  0
   -2.0625   -2.5263    0.0000 O   0  0  0  0  0  0  0  0  0  0  0  0
   -2.0625   -1.0974    0.0000 C   0  0  0  0  0  0  0  0  0  0  0  0
   -1.2375   -1.0974    0.0000 C   0  0  0  0  0  0  0  0  0  0  0  0
   -0.8250   -1.8118    0.0000 O   0  0  0  0  0  0  0  0  0  0  0  0
   -0.8250   -0.3829    0.0000 C   0  0  0  0  0  0  0  0  0  0  0  0
   -1.2375    0.3316    0.0000 C   0  0  0  0  0  0  0  0  0  0  0  0
   -0.8250    1.0461    0.0000 C   0  0  0  0  0  0  0  0  0  0  0  0
    0.0000    1.0461    0.0000 C   0  0  2  0  0  0  0  0  0  0  0  0
    0.4125    0.3316    0.0000 C   0  0  0  0  0  0  0  0  0  0  0  0
    0.0000   -0.3829    0.0000 C   0  0  0  0  0  0  0  0  0  0  0  0
    0.4125   -1.0974    0.0000 O   0  0  0  0  0  0  0  0  0  0  0  0
    0.4125    1.7605    0.0000 C   0  0  2  0  0  0  0  0  0  0  0  0
    0.0000    2.4750    0.0000 O   0  0  0  0  0  0  0  0  0  0  0  0
    0.4125    3.1895    0.0000 C   0  0  0  0  0  0  0  0  0  0  0  0
    1.2375    1.7605    0.0000 C   0  0  0  0  0  0  0  0  0  0  0  0
    1.6500    1.0461    0.0000 O   0  0  0  0  0  0  0  0  0  0  0  0
    1.6500    2.4750    0.0000 C   0  0  1  0  0  0  0  0  0  0  0  0
    1.2375    3.1895    0.0000 O   0  0  0  0  0  0  0  0  0  0  0  0
    2.4750    2.4750    0.0000 C   0  0  1  0  0  0  0  0  0  0  0  0
    2.8875    3.1895    0.0000 C   0  0  0  0  0  0  0  0  0  0  0  0
    2.8875    1.7605    0.0000 O   0  0  0  0  0  0  0  0  0  0  0  0
   -2.0625    0.3316    0.0000 C   0  0  0  0  0  0  0  0  0  0  0  0
   -2.4750   -0.3829    0.0000 C   0  0  0  0  0  0  0  0  0  0  0  0
   -3.3000   -0.3829    0.0000 C   0  0  0  0  0  0  0  0  0  0  0  0
   -3.7125   -1.0974    0.0000 C   0  0  0  0  0  0  0  0  0  0  0  0
   -6.0200   -3.2408    0.0000 H   0  0  0  0  0  0  0  0  0  0  0  0
   -4.4150   -4.1674    0.0000 H   0  0  0  0  0  0  0  0  0  0  0  0
   -5.4850   -4.1675    0.0000 H   0  0  0  0  0  0  0  0  0  0  0  0
   -5.0725   -1.5997    0.0000 H   0  0  0  0  0  0  0  0  0  0  0  0
   -4.0025   -1.5997    0.0000 H   0  0  0  0  0  0  0  0  0  0  0  0
   -4.2475   -3.4529    0.0000 H   0  0  0  0  0  0  0  0  0  0  0  0
   -3.8350   -4.1674    0.0000 H   0  0  0  0  0  0  0  0  0  0  0  0
   -2.2300   -3.2408    0.0000 H   0  0  0  0  0  0  0  0  0  0  0  0
   -2.7650   -4.1675    0.0000 H   0  0  0  0  0  0  0  0  0  0  0  0
   -2.5310   -3.3378    0.0000 H   0  0  0  0  0  0  0  0  0  0  0  0
   -1.2935   -2.6233    0.0000 H   0  0  0  0  0  0  0  0  0  0  0  0
   -1.3600    1.9727    0.0000 H   0  0  0  0  0  0  0  0  0  0  0  0
   -0.2900    1.9727    0.0000 H   0  0  0  0  0  0  0  0  0  0  0  0
   -0.5350    1.9728    0.0000 H   0  0  0  0  0  0  0  0  0  0  0  0
    1.4825    0.3316    0.0000 H   0  0  0  0  0  0  0  0  0  0  0  0
    0.9475   -0.5950    0.0000 H   0  0  0  0  0  0  0  0  0  0  0  0
    0.9475    2.6871    0.0000 H   0  0  0  0  0  0  0  0  0  0  0  0
    1.4825    3.1895    0.0000 H   0  0  0  0  0  0  0  0  0  0  0  0
   -0.1225    4.1161    0.0000 H   0  0  0  0  0  0  0  0  0  0  0  0
    0.9475    4.1162    0.0000 H   0  0  0  0  0  0  0  0  0  0  0  0
    0.5800    2.4750    0.0000 H   0  0  0  0  0  0  0  0  0  0  0  0
    1.7225    4.0295    0.0000 H   0  0  0  0  0  0  0  0  0  0  0  0
    1.9400    1.5484    0.0000 H   0  0  0  0  0  0  0  0  0  0  0  0
    3.9575    3.1895    0.0000 H   0  0  0  0  0  0  0  0  0  0  0  0
    2.3525    4.1161    0.0000 H   0  0  0  0  0  0  0  0  0  0  0  0
    3.4225    4.1162    0.0000 H   0  0  0  0  0  0  0  0  0  0  0  0
    2.4025    0.9205    0.0000 H   0  0  0  0  0  0  0  0  0  0  0  0
   -2.5785    1.2253    0.0000 H   0  0  0  0  0  0  0  0  0  0  0  0
   -3.8160    0.5108    0.0000 H   0  0  0  0  0  0  0  0  0  0  0  0
   -4.7445   -1.0974    0.0000 H   0  0  0  0  0  0  0  0  0  0  0  0
  1  2  1  0  0  0  0
  1 32  1  0  0  0  0
  1 33  1  0  0  0  0
  1 34  1  0  0  0  0
  2  3  1  0  0  0  0
  2 35  1  0  0  0  0
  2 36  1  0  0  0  0
  3  4  1  0  0  0  0
  3  5  1  0  0  0  0
  3 37  1  1  0  0  0
  4 38  1  0  0  0  0
  4 39  1  0  0  0  0
  4 40  1  0  0  0  0
  5  6  2  0  0  0  0
  5 31  1  0  0  0  0
  6  7  1  0  0  0  0
  6  8  1  0  0  0  0
  7 41  1  0  0  0  0
  8  9  2  0  0  0  0
  8 29  1  0  0  0  0
  9 10  1  0  0  0  0
  9 11  1  0  0  0  0
 10 42  1  0  0  0  0
 11 12  2  0  0  0  0
 11 16  1  0  0  0  0
 12 13  1  0  0  0  0
 12 28  1  0  0  0  0
 13 14  1  0  0  0  0
 13 43  1  0  0  0  0
 13 44  1  0  0  0  0
 14 15  1  0  0  0  0
 14 18  1  0  0  0  0
 14 45  1  6  0  0  0
 15 16  1  0  0  0  0
 15 46  1  0  0  0  0
 15 47  1  0  0  0  0
 16 17  2  0  0  0  0
 18 19  1  0  0  0  0
 18 21  1  0  0  0  0
 18 48  1  1  0  0  0
 19 20  1  0  0  0  0
 20 49  1  0  0  0  0
 20 50  1  0  0  0  0
 20 51  1  0  0  0  0
 21 22  2  0  0  0  0
 21 23  1  0  0  0  0
 23 24  1  0  0  0  0
 23 25  1  0  0  0  0
 23 52  1  6  0  0  0
 24 53  1  0  0  0  0
 25 26  1  0  0  0  0
 25 27  1  0  0  0  0
 25 54  1  6  0  0  0
 26 55  1  0  0  0  0
 26 56  1  0  0  0  0
 26 57  1  0  0  0  0
 27 58  1  0  0  0  0
 28 29  2  0  0  0  0
 28 59  1  0  0  0  0
 29 30  1  0  0  0  0
 30 31  2  0  0  0  0
 30 60  1  0  0  0  0
 31 61  1  0  0  0  0
M  END
>  <DRUGBANK_ID>
DB04240

>  <SECONDARY_ACCESSION_NUMBERS>
EXPT01305

>  <COMMON_NAME>
(1S)-1-C-{(2R)-6-[(2R)-2-Butanyl]-5,10-dihydroxy-4-oxo-1,2,3,4-tetrahydro-2-anthracenyl}-5-deoxy-1-O-methyl-D-xylulose

>  <SYNONYMS>
1,2-HYDRO-1-OXY-3,4-HYDRO-3-(1-METHOXY-2-OXY-3,4-DIHYDROXYPENTYL)-8,9-DIHYDROXY-7-(SEC-BUTYL)-ANTHRACENE

$$$$
