
 OpenBabel10282417072D

 57 61  0  0  0  0  0  0  0  0999 V2000
   -2.1433   -1.5645    0.0000 C   0  0  0  0  0  0  0  0  0  0  0  0
   -2.1433   -0.7395    0.0000 C   0  0  0  0  0  0  0  0  0  0  0  0
   -2.8579   -1.9770    0.0000 C   0  0  0  0  0  0  0  0  0  0  0  0
   -2.8579   -0.3270    0.0000 C   0  0  0  0  0  0  0  0  0  0  0  0
   -0.7145   -1.5645    0.0000 C   0  0  0  0  0  0  0  0  0  0  0  0
   -3.5723   -1.5645    0.0000 C   0  0  0  0  0  0  0  0  0  0  0  0
   -1.4288    0.4979    0.0000 C   0  0  0  0  0  0  0  0  0  0  0  0
   -3.5723   -0.7395    0.0000 C   0  0  0  0  0  0  0  0  0  0  0  0
    0.0000    0.4979    0.0000 C   0  0  0  0  0  0  0  0  0  0  0  0
   -0.7145   -0.7395    0.0000 C   0  0  2  0  0  0  0  0  0  0  0  0
    0.0000   -1.1520    0.0000 H   0  0  0  0  0  0  0  0  0  0  0  0
   -1.4288   -0.3270    0.0000 C   0  0  1  0  0  0  0  0  0  0  0  0
   -1.4288   -1.9770    0.0000 C   0  0  0  0  0  0  0  0  0  0  0  0
   -1.4288   -2.8020    0.0000 C   0  0  0  0  0  0  0  0  0  0  0  0
    0.0000   -0.3270    0.0000 N   0  0  0  0  0  0  0  0  0  0  0  0
    0.7144   -0.7395    0.0000 C   0  0  0  0  0  0  0  0  0  0  0  0
   -0.7145    0.9104    0.0000 C   0  0  2  0  0  0  0  0  0  0  0  0
   -0.7145    1.7354    0.0000 C   0  0  0  0  0  0  0  0  0  0  0  0
   -2.1433    0.9104    0.0000 C   0  0  0  0  0  0  0  0  0  0  0  0
   -2.1433    0.0854    0.0000 O   0  0  0  0  0  0  0  0  0  0  0  0
    0.0000    2.1479    0.0000 O   0  0  0  0  0  0  0  0  0  0  0  0
    0.7144    1.7354    0.0000 C   0  0  0  0  0  0  0  0  0  0  0  0
    0.7144    0.9104    0.0000 O   0  0  0  0  0  0  0  0  0  0  0  0
    1.4288    2.1479    0.0000 C   0  0  0  0  0  0  0  0  0  0  0  0
    2.1433    1.7354    0.0000 C   0  0  0  0  0  0  0  0  0  0  0  0
    1.4288    2.9729    0.0000 C   0  0  0  0  0  0  0  0  0  0  0  0
    2.1433    3.3854    0.0000 N   0  0  0  0  0  0  0  0  0  0  0  0
    2.8578    2.9730    0.0000 C   0  0  0  0  0  0  0  0  0  0  0  0
    2.8578    2.1479    0.0000 C   0  0  0  0  0  0  0  0  0  0  0  0
    3.5723    1.7354    0.0000 Br  0  0  0  0  0  0  0  0  0  0  0  0
   -2.8579   -2.8020    0.0000 N   0  0  0  0  0  0  0  0  0  0  0  0
   -3.4413   -3.3854    0.0000 C   0  0  0  0  0  0  0  0  0  0  0  0
   -2.8580    0.7050    0.0000 H   0  0  0  0  0  0  0  0  0  0  0  0
    0.2122   -2.0995    0.0000 H   0  0  0  0  0  0  0  0  0  0  0  0
    0.2121   -1.0295    0.0000 H   0  0  0  0  0  0  0  0  0  0  0  0
   -4.4660   -2.0805    0.0000 H   0  0  0  0  0  0  0  0  0  0  0  0
   -2.3555    1.0329    0.0000 H   0  0  0  0  0  0  0  0  0  0  0  0
   -1.4289    1.5679    0.0000 H   0  0  0  0  0  0  0  0  0  0  0  0
   -4.4660   -0.2235    0.0000 H   0  0  0  0  0  0  0  0  0  0  0  0
    0.9266    1.0329    0.0000 H   0  0  0  0  0  0  0  0  0  0  0  0
   -0.0000    1.5679    0.0000 H   0  0  0  0  0  0  0  0  0  0  0  0
   -0.6991   -3.5317    0.0000 H   0  0  0  0  0  0  0  0  0  0  0  0
    0.7144   -1.8095    0.0000 H   0  0  0  0  0  0  0  0  0  0  0  0
    1.6411   -0.2045    0.0000 H   0  0  0  0  0  0  0  0  0  0  0  0
    1.6410   -1.2745    0.0000 H   0  0  0  0  0  0  0  0  0  0  0  0
   -1.6412    1.4454    0.0000 H   0  0  0  0  0  0  0  0  0  0  0  0
   -1.6411    2.2704    0.0000 H   0  0  0  0  0  0  0  0  0  0  0  0
   -0.7145    2.8054    0.0000 H   0  0  0  0  0  0  0  0  0  0  0  0
   -1.2167    1.4454    0.0000 H   0  0  0  0  0  0  0  0  0  0  0  0
   -3.0699    1.4454    0.0000 H   0  0  0  0  0  0  0  0  0  0  0  0
   -2.1433    1.9804    0.0000 H   0  0  0  0  0  0  0  0  0  0  0  0
    2.1433    0.7034    0.0000 H   0  0  0  0  0  0  0  0  0  0  0  0
    0.5351    3.4889    0.0000 H   0  0  0  0  0  0  0  0  0  0  0  0
    3.7515    3.4891    0.0000 H   0  0  0  0  0  0  0  0  0  0  0  0
   -4.4748   -3.1085    0.0000 H   0  0  0  0  0  0  0  0  0  0  0  0
   -3.1644   -4.4189    0.0000 H   0  0  0  0  0  0  0  0  0  0  0  0
   -4.1979   -4.1420    0.0000 H   0  0  0  0  0  0  0  0  0  0  0  0
  1  2  2  0  0  0  0
  1 13  1  0  0  0  0
  1  3  1  0  0  0  0
  2 12  1  0  0  0  0
  2  4  1  0  0  0  0
  3 31  1  0  0  0  0
  3  6  2  0  0  0  0
  4  8  2  0  0  0  0
  4 33  1  0  0  0  0
  5 10  1  0  0  0  0
  5 34  1  0  0  0  0
  5 35  1  0  0  0  0
  6  8  1  0  0  0  0
  6 36  1  0  0  0  0
  7 17  1  0  0  0  0
  7 37  1  0  0  0  0
  7 38  1  0  0  0  0
  8 39  1  0  0  0  0
  9 40  1  0  0  0  0
  9 41  1  0  0  0  0
 10 15  1  0  0  0  0
 10 11  1  1  0  0  0
 12 10  1  0  0  0  0
 12  7  1  0  0  0  0
 12 20  1  6  0  0  0
 13  5  1  0  0  0  0
 13 14  2  0  0  0  0
 14 31  1  0  0  0  0
 14 42  1  0  0  0  0
 15  9  1  0  0  0  0
 15 16  1  0  0  0  0
 16 43  1  0  0  0  0
 16 44  1  0  0  0  0
 16 45  1  0  0  0  0
 17  9  1  0  0  0  0
 17 18  1  0  0  0  0
 17 46  1  6  0  0  0
 18 21  1  0  0  0  0
 18 47  1  0  0  0  0
 18 48  1  0  0  0  0
 19 49  1  0  0  0  0
 19 50  1  0  0  0  0
 19 51  1  0  0  0  0
 20 19  1  0  0  0  0
 21 22  1  0  0  0  0
 22 24  1  0  0  0  0
 22 23  2  0  0  0  0
 24 25  1  0  0  0  0
 25 29  2  0  0  0  0
 25 52  1  0  0  0  0
 26 24  2  0  0  0  0
 26 53  1  0  0  0  0
 27 26  1  0  0  0  0
 27 28  2  0  0  0  0
 28 54  1  0  0  0  0
 29 28  1  0  0  0  0
 29 30  1  0  0  0  0
 31 32  1  0  0  0  0
 32 55  1  0  0  0  0
 32 56  1  0  0  0  0
 32 57  1  0  0  0  0
M  END
>  <DRUGBANK_ID>
DB00699

>  <SECONDARY_ACCESSION_NUMBERS>
APRD00617

>  <COMMON_NAME>
Nicergoline

>  <CAS_NUMBER>
27848-84-6

>  <UNII>
JCV8365FWN

>  <SYNONYMS>
(8β)-10-methoxy-1,6-dimethylergoline-8-methanol 5-bromo-3-pyridinecarboxylate (ester); 10-methoxy-1,6-dimethylergoline-8β-methanol 5-bromonicotinate; Nicergolin; Nicergolina; Nicergoline; Nicergolinum

$$$$
