039
 OpenBabel10282417072D

 46 50  0  0  0  0  0  0  0  0999 V2000
    0.7293    1.6268    0.0000 C   0  0  0  0  0  0  0  0  0  0  0  0
    0.7293    0.8018    0.0000 O   0  0  0  0  0  0  0  0  0  0  0  0
    1.4438    0.3893    0.0000 C   0  0  0  0  0  0  0  0  0  0  0  0
    2.1583    0.8018    0.0000 C   0  0  0  0  0  0  0  0  0  0  0  0
    2.8727    0.3893    0.0000 C   0  0  0  0  0  0  0  0  0  0  0  0
    2.8727   -0.4357    0.0000 C   0  0  0  0  0  0  0  0  0  0  0  0
    2.1583   -0.8482    0.0000 C   0  0  0  0  0  0  0  0  0  0  0  0
    1.4438   -0.4357    0.0000 C   0  0  0  0  0  0  0  0  0  0  0  0
    0.7293   -0.8482    0.0000 N   0  0  0  0  0  0  0  0  0  0  0  0
    0.7293   -1.6732    0.0000 C   0  0  0  0  0  0  0  0  0  0  0  0
    1.4438   -2.0857    0.0000 O   0  0  0  0  0  0  0  0  0  0  0  0
    0.0148   -2.0857    0.0000 C   0  0  0  0  0  0  0  0  0  0  0  0
    0.0148   -2.9107    0.0000 C   0  0  0  0  0  0  0  0  0  0  0  0
    0.7293   -3.3232    0.0000 Cl  0  0  0  0  0  0  0  0  0  0  0  0
   -0.6996   -3.3232    0.0000 C   0  0  0  0  0  0  0  0  0  0  0  0
   -1.4141   -2.9107    0.0000 C   0  0  0  0  0  0  0  0  0  0  0  0
   -1.4141   -2.0857    0.0000 C   0  0  0  0  0  0  0  0  0  0  0  0
   -0.6996   -1.6732    0.0000 C   0  0  0  0  0  0  0  0  0  0  0  0
   -0.6996   -0.8482    0.0000 N   0  0  0  0  0  0  0  0  0  0  0  0
    0.0148   -0.4357    0.0000 C   0  0  0  0  0  0  0  0  0  0  0  0
    0.0148    0.3893    0.0000 C   0  0  0  0  0  0  0  0  0  0  0  0
   -0.6996    0.8018    0.0000 S   0  0  0  0  0  0  0  0  0  0  0  0
   -0.6996    1.6268    0.0000 C   0  0  0  0  0  0  0  0  0  0  0  0
   -1.4141    2.0393    0.0000 C   0  0  0  0  0  0  0  0  0  0  0  0
   -2.1987    1.7844    0.0000 N   0  0  0  0  0  0  0  0  0  0  0  0
   -2.6836    2.4518    0.0000 C   0  0  0  0  0  0  0  0  0  0  0  0
   -2.1987    3.1192    0.0000 N   0  0  0  0  0  0  0  0  0  0  0  0
   -1.4141    2.8643    0.0000 C   0  0  0  0  0  0  0  0  0  0  0  0
   -0.6996    3.2768    0.0000 N   0  0  0  0  0  0  0  0  0  0  0  0
    0.0148    2.8643    0.0000 C   0  0  0  0  0  0  0  0  0  0  0  0
    0.0148    2.0393    0.0000 N   0  0  0  0  0  0  0  0  0  0  0  0
    1.6559    2.1618    0.0000 H   0  0  0  0  0  0  0  0  0  0  0  0
   -0.1973    2.1618    0.0000 H   0  0  0  0  0  0  0  0  0  0  0  0
    0.7293    2.6968    0.0000 H   0  0  0  0  0  0  0  0  0  0  0  0
    2.1583    1.8338    0.0000 H   0  0  0  0  0  0  0  0  0  0  0  0
    3.7664    0.9053    0.0000 H   0  0  0  0  0  0  0  0  0  0  0  0
    3.7664   -0.9517    0.0000 H   0  0  0  0  0  0  0  0  0  0  0  0
    2.1583   -1.8802    0.0000 H   0  0  0  0  0  0  0  0  0  0  0  0
   -0.6996   -4.3552    0.0000 H   0  0  0  0  0  0  0  0  0  0  0  0
   -2.3078   -3.4267    0.0000 H   0  0  0  0  0  0  0  0  0  0  0  0
   -2.3078   -1.5697    0.0000 H   0  0  0  0  0  0  0  0  0  0  0  0
    0.9415    0.9243    0.0000 H   0  0  0  0  0  0  0  0  0  0  0  0
    0.0148    1.4593    0.0000 H   0  0  0  0  0  0  0  0  0  0  0  0
   -3.7156    2.4518    0.0000 H   0  0  0  0  0  0  0  0  0  0  0  0
   -2.5029    4.0555    0.0000 H   0  0  0  0  0  0  0  0  0  0  0  0
    0.9085    3.3803    0.0000 H   0  0  0  0  0  0  0  0  0  0  0  0
  1  2  1  0  0  0  0
  1 32  1  0  0  0  0
  1 33  1  0  0  0  0
  1 34  1  0  0  0  0
  2  3  1  0  0  0  0
  3  4  2  0  0  0  0
  3  8  1  0  0  0  0
  4  5  1  0  0  0  0
  4 35  1  0  0  0  0
  5  6  2  0  0  0  0
  5 36  1  0  0  0  0
  6  7  1  0  0  0  0
  6 37  1  0  0  0  0
  7  8  2  0  0  0  0
  7 38  1  0  0  0  0
  8  9  1  0  0  0  0
  9 10  1  0  0  0  0
  9 20  1  0  0  0  0
 10 11  2  0  0  0  0
 10 12  1  0  0  0  0
 12 13  2  0  0  0  0
 12 18  1  0  0  0  0
 13 14  1  0  0  0  0
 13 15  1  0  0  0  0
 15 16  2  0  0  0  0
 15 39  1  0  0  0  0
 16 17  1  0  0  0  0
 16 40  1  0  0  0  0
 17 18  2  0  0  0  0
 17 41  1  0  0  0  0
 18 19  1  0  0  0  0
 19 20  2  0  0  0  0
 20 21  1  0  0  0  0
 21 22  1  0  0  0  0
 21 42  1  0  0  0  0
 21 43  1  0  0  0  0
 22 23  1  0  0  0  0
 23 24  2  0  0  0  0
 23 31  1  0  0  0  0
 24 25  1  0  0  0  0
 24 28  1  0  0  0  0
 25 26  2  0  0  0  0
 26 27  1  0  0  0  0
 26 44  1  0  0  0  0
 27 28  1  0  0  0  0
 27 45  1  0  0  0  0
 28 29  2  0  0  0  0
 29 30  1  0  0  0  0
 30 31  2  0  0  0  0
 30 46  1  0  0  0  0
M  END
>  <DRUGBANK_ID>
DB06831

>  <COMMON_NAME>
2-((9H-PURIN-6-YLTHIO)METHYL)-5-CHLORO-3-(2-METHOXYPHENYL)QUINAZOLIN-4(3H)-ONE

$$$$
