
 OpenBabel10282417072D

 62 65  0  0  0  0  0  0  0  0999 V2000
    2.8579   -5.7750    0.0000 C   0  0  0  0  0  0  0  0  0  0  0  0
    2.8579   -6.6000    0.0000 C   0  0  0  0  0  0  0  0  0  0  0  0
    2.0329   -6.6000    0.0000 C   0  0  0  0  0  0  0  0  0  0  0  0
    3.6829   -6.6000    0.0000 N   0  0  0  0  0  0  0  0  0  0  0  0
    2.8579   -7.4250    0.0000 C   0  0  0  0  0  0  0  0  0  0  0  0
    3.5724   -7.8375    0.0000 C   0  0  0  0  0  0  0  0  0  0  0  0
    3.5724   -8.6625    0.0000 C   0  0  0  0  0  0  0  0  0  0  0  0
    2.8579   -9.0750    0.0000 C   0  0  0  0  0  0  0  0  0  0  0  0
    2.1434   -8.6625    0.0000 C   0  0  0  0  0  0  0  0  0  0  0  0
    2.1434   -7.8375    0.0000 C   0  0  0  0  0  0  0  0  0  0  0  0
    2.8579   -9.9000    0.0000 C   0  0  0  0  0  0  0  0  0  0  0  0
    3.5724  -10.3125    0.0000 N   0  0  0  0  0  0  0  0  0  0  0  0
    3.5724  -11.1375    0.0000 C   0  0  0  0  0  0  0  0  0  0  0  0
    4.2868  -11.5500    0.0000 N   0  0  0  0  0  0  0  0  0  0  0  0
    4.2868  -12.3750    0.0000 C   0  0  0  0  0  0  0  0  0  0  0  0
    5.0013  -12.7875    0.0000 C   0  0  0  0  0  0  0  0  0  0  0  0
    5.0013  -13.6125    0.0000 C   0  0  0  0  0  0  0  0  0  0  0  0
    4.2868  -14.0250    0.0000 C   0  0  0  0  0  0  0  0  0  0  0  0
    4.2868  -14.8500    0.0000 C   0  0  0  0  0  0  0  0  0  0  0  0
    5.0013  -15.2625    0.0000 C   0  0  0  0  0  0  0  0  0  0  0  0
    5.0013  -16.0875    0.0000 N   0  0  0  0  0  0  0  0  0  0  0  0
    5.7158  -16.5000    0.0000 C   0  0  0  0  0  0  0  0  0  0  0  0
    5.7158  -17.3250    0.0000 C   0  0  0  0  0  0  0  0  0  0  0  0
    5.0013  -17.7375    0.0000 O   0  0  0  0  0  0  0  0  0  0  0  0
    4.2868  -17.3250    0.0000 C   0  0  0  0  0  0  0  0  0  0  0  0
    4.2868  -16.5000    0.0000 C   0  0  0  0  0  0  0  0  0  0  0  0
    3.5724  -13.6125    0.0000 C   0  0  0  0  0  0  0  0  0  0  0  0
    3.5724  -12.7875    0.0000 C   0  0  0  0  0  0  0  0  0  0  0  0
    2.8579  -11.5500    0.0000 N   0  0  0  0  0  0  0  0  0  0  0  0
    2.1434  -11.1375    0.0000 C   0  0  0  0  0  0  0  0  0  0  0  0
    2.1434  -10.3125    0.0000 C   0  0  0  0  0  0  0  0  0  0  0  0
    1.4289   -9.9000    0.0000 Cl  0  0  0  0  0  0  0  0  0  0  0  0
    3.7845   -5.2400    0.0000 H   0  0  0  0  0  0  0  0  0  0  0  0
    1.9313   -5.2400    0.0000 H   0  0  0  0  0  0  0  0  0  0  0  0
    2.8579   -4.7050    0.0000 H   0  0  0  0  0  0  0  0  0  0  0  0
    1.4979   -5.6734    0.0000 H   0  0  0  0  0  0  0  0  0  0  0  0
    1.4979   -7.5266    0.0000 H   0  0  0  0  0  0  0  0  0  0  0  0
    0.9629   -6.6000    0.0000 H   0  0  0  0  0  0  0  0  0  0  0  0
    4.1929   -7.4833    0.0000 H   0  0  0  0  0  0  0  0  0  0  0  0
    4.1929   -5.7167    0.0000 H   0  0  0  0  0  0  0  0  0  0  0  0
    4.4661   -7.3215    0.0000 H   0  0  0  0  0  0  0  0  0  0  0  0
    4.4661   -9.1785    0.0000 H   0  0  0  0  0  0  0  0  0  0  0  0
    1.2497   -9.1785    0.0000 H   0  0  0  0  0  0  0  0  0  0  0  0
    1.2497   -7.3215    0.0000 H   0  0  0  0  0  0  0  0  0  0  0  0
    5.1394  -11.0578    0.0000 H   0  0  0  0  0  0  0  0  0  0  0  0
    5.8950  -12.2715    0.0000 H   0  0  0  0  0  0  0  0  0  0  0  0
    5.8950  -14.1285    0.0000 H   0  0  0  0  0  0  0  0  0  0  0  0
    3.3602  -15.3850    0.0000 H   0  0  0  0  0  0  0  0  0  0  0  0
    4.2868  -15.9200    0.0000 H   0  0  0  0  0  0  0  0  0  0  0  0
    5.9279  -14.7275    0.0000 H   0  0  0  0  0  0  0  0  0  0  0  0
    5.9279  -15.7975    0.0000 H   0  0  0  0  0  0  0  0  0  0  0  0
    6.6424  -15.9650    0.0000 H   0  0  0  0  0  0  0  0  0  0  0  0
    6.6424  -17.0350    0.0000 H   0  0  0  0  0  0  0  0  0  0  0  0
    6.6424  -17.8600    0.0000 H   0  0  0  0  0  0  0  0  0  0  0  0
    5.7158  -18.3950    0.0000 H   0  0  0  0  0  0  0  0  0  0  0  0
    3.3602  -17.8600    0.0000 H   0  0  0  0  0  0  0  0  0  0  0  0
    3.3602  -16.7900    0.0000 H   0  0  0  0  0  0  0  0  0  0  0  0
    3.3602  -15.9650    0.0000 H   0  0  0  0  0  0  0  0  0  0  0  0
    4.2868  -15.4300    0.0000 H   0  0  0  0  0  0  0  0  0  0  0  0
    2.6787  -14.1285    0.0000 H   0  0  0  0  0  0  0  0  0  0  0  0
    2.6787  -12.2715    0.0000 H   0  0  0  0  0  0  0  0  0  0  0  0
    1.2497  -11.6535    0.0000 H   0  0  0  0  0  0  0  0  0  0  0  0
  1  2  1  0  0  0  0
  1 33  1  0  0  0  0
  1 34  1  0  0  0  0
  1 35  1  0  0  0  0
  2  3  1  0  0  0  0
  2  4  1  0  0  0  0
  2  5  1  0  0  0  0
  3 36  1  0  0  0  0
  3 37  1  0  0  0  0
  3 38  1  0  0  0  0
  4 39  1  0  0  0  0
  4 40  1  0  0  0  0
  5  6  2  0  0  0  0
  5 10  1  0  0  0  0
  6  7  1  0  0  0  0
  6 41  1  0  0  0  0
  7  8  2  0  0  0  0
  7 42  1  0  0  0  0
  8  9  1  0  0  0  0
  8 11  1  0  0  0  0
  9 10  2  0  0  0  0
  9 43  1  0  0  0  0
 10 44  1  0  0  0  0
 11 12  2  0  0  0  0
 11 31  1  0  0  0  0
 12 13  1  0  0  0  0
 13 14  1  0  0  0  0
 13 29  2  0  0  0  0
 14 15  1  0  0  0  0
 14 45  1  0  0  0  0
 15 16  2  0  0  0  0
 15 28  1  0  0  0  0
 16 17  1  0  0  0  0
 16 46  1  0  0  0  0
 17 18  2  0  0  0  0
 17 47  1  0  0  0  0
 18 19  1  0  0  0  0
 18 27  1  0  0  0  0
 19 20  1  0  0  0  0
 19 48  1  0  0  0  0
 19 49  1  0  0  0  0
 20 21  1  0  0  0  0
 20 50  1  0  0  0  0
 20 51  1  0  0  0  0
 21 22  1  0  0  0  0
 21 26  1  0  0  0  0
 22 23  1  0  0  0  0
 22 52  1  0  0  0  0
 22 53  1  0  0  0  0
 23 24  1  0  0  0  0
 23 54  1  0  0  0  0
 23 55  1  0  0  0  0
 24 25  1  0  0  0  0
 25 26  1  0  0  0  0
 25 56  1  0  0  0  0
 25 57  1  0  0  0  0
 26 58  1  0  0  0  0
 26 59  1  0  0  0  0
 27 28  2  0  0  0  0
 27 60  1  0  0  0  0
 28 61  1  0  0  0  0
 29 30  1  0  0  0  0
 30 31  2  0  0  0  0
 30 62  1  0  0  0  0
 31 32  1  0  0  0  0
M  END
>  <DRUGBANK_ID>
DB02491

>  <SECONDARY_ACCESSION_NUMBERS>
EXPT00378

>  <COMMON_NAME>
4-[4-(1-Amino-1-Methylethyl)Phenyl]-5-Chloro-N-[4-(2-Morpholin-4-Ylethyl)Phenyl]Pyrimidin-2-Amine

$$$$
