
 OpenBabel10282417072D

 27 26  0  0  0  0  0  0  0  0999 V2000
   -2.8564   -0.2192    0.0000 C   0  0  0  0  0  0  0  0  0  0  0  0
   -2.1423    0.1941    0.0000 C   0  0  0  0  0  0  0  0  0  0  0  0
   -1.4281   -0.2149    0.0000 N   0  0  0  0  0  0  0  0  0  0  0  0
   -0.7140    0.1983    0.0000 C   0  0  0  0  0  0  0  0  0  0  0  0
    0.0000   -0.2107    0.0000 C   0  0  0  0  0  0  0  0  0  0  0  0
    0.7140    0.2025    0.0000 C   0  0  0  0  0  0  0  0  0  0  0  0
    1.4281   -0.2066    0.0000 C   0  0  1  0  0  0  0  0  0  0  0  0
    2.1423    0.2066    0.0000 C   0  0  0  0  0  0  0  0  0  0  0  0
    2.8564   -0.2024    0.0000 O   0  0  0  0  0  0  0  0  0  0  0  0
   -2.1441    1.0210    0.0000 N   0  0  0  0  0  0  0  0  0  0  0  0
    2.1405    1.0335    0.0000 O   0  0  0  0  0  0  0  0  0  0  0  0
    1.4299   -1.0335    0.0000 N   0  0  0  0  0  0  0  0  0  0  0  0
   -3.7836    0.3148    0.0000 H   0  0  0  0  0  0  0  0  0  0  0  0
   -2.8553   -1.2892    0.0000 H   0  0  0  0  0  0  0  0  0  0  0  0
   -3.7825   -0.7552    0.0000 H   0  0  0  0  0  0  0  0  0  0  0  0
   -1.4259   -1.1994    0.0000 H   0  0  0  0  0  0  0  0  0  0  0  0
   -0.7163    1.2683    0.0000 H   0  0  0  0  0  0  0  0  0  0  0  0
    0.2112    0.7359    0.0000 H   0  0  0  0  0  0  0  0  0  0  0  0
    0.0024   -1.2807    0.0000 H   0  0  0  0  0  0  0  0  0  0  0  0
    0.9275   -0.7442    0.0000 H   0  0  0  0  0  0  0  0  0  0  0  0
    0.7117    1.2725    0.0000 H   0  0  0  0  0  0  0  0  0  0  0  0
   -0.2135    0.7360    0.0000 H   0  0  0  0  0  0  0  0  0  0  0  0
    0.5029   -0.7442    0.0000 H   0  0  0  0  0  0  0  0  0  0  0  0
    2.8596   -1.1394    0.0000 H   0  0  0  0  0  0  0  0  0  0  0  0
   -1.2926    1.5151    0.0000 H   0  0  0  0  0  0  0  0  0  0  0  0
    0.5477   -1.5454    0.0000 H   0  0  0  0  0  0  0  0  0  0  0  0
    2.3144   -1.5416    0.0000 H   0  0  0  0  0  0  0  0  0  0  0  0
  1  2  1  0  0  0  0
  1 13  1  0  0  0  0
  1 14  1  0  0  0  0
  1 15  1  0  0  0  0
  2 10  2  0  0  0  0
  2  3  1  0  0  0  0
  3  4  1  0  0  0  0
  3 16  1  0  0  0  0
  4  5  1  0  0  0  0
  4 17  1  0  0  0  0
  4 18  1  0  0  0  0
  5  6  1  0  0  0  0
  5 19  1  0  0  0  0
  5 20  1  0  0  0  0
  6  7  1  0  0  0  0
  6 21  1  0  0  0  0
  6 22  1  0  0  0  0
  7  8  1  0  0  0  0
  7 12  1  0  0  0  0
  7 23  1  6  0  0  0
  8  9  1  0  0  0  0
  8 11  2  0  0  0  0
  9 24  1  0  0  0  0
 10 25  1  0  0  0  0
 12 26  1  0  0  0  0
 12 27  1  0  0  0  0
M  END
>  <DRUGBANK_ID>
DB03305

>  <SECONDARY_ACCESSION_NUMBERS>
EXPT01862

>  <COMMON_NAME>
N(G)-Iminoethylornithine

>  <CAS_NUMBER>
36889-13-1

>  <UNII>
XQ6P9GL3YT

>  <SYNONYMS>
L-NIO; N(G)-Iminoethylornithine; N5-(1-Iminoethyl)-L-ornithine

$$$$
