
 OpenBabel10282417072D

 50 50  0  0  0  0  0  0  0  0999 V2000
   -0.7171    0.8584    0.0000 C   0  0  0  0  0  0  0  0  0  0  0  0
   -0.7134    1.5826    0.0000 C   0  0  0  0  0  0  0  0  0  0  0  0
   -1.4250    2.0202    0.0000 C   0  0  0  0  0  0  0  0  0  0  0  0
   -2.1395    1.6093    0.0000 C   0  0  0  0  0  0  0  0  0  0  0  0
   -2.1378    0.7816    0.0000 C   0  0  0  0  0  0  0  0  0  0  0  0
   -1.4256    0.3730    0.0000 C   0  0  0  0  0  0  0  0  0  0  0  0
   -0.0045    2.0000    0.0000 C   0  0  0  0  0  0  0  0  0  0  0  0
   -0.0087    2.8250    0.0000 O   0  0  0  0  0  0  0  0  0  0  0  0
    0.7079    1.5874    0.0000 C   0  0  0  0  0  0  0  0  0  0  0  0
    1.4205    2.0042    0.0000 C   0  0  0  0  0  0  0  0  0  0  0  0
    2.1329    1.5916    0.0000 C   0  0  0  0  0  0  0  0  0  0  0  0
    0.0117    0.4719    0.0000 O   0  0  0  0  0  0  0  0  0  0  0  0
    0.0036   -0.3499    0.0000 C   0  0  0  0  0  0  0  0  0  0  0  0
    0.7162   -0.7624    0.0000 C   0  0  0  0  0  0  0  0  0  0  0  0
    0.7121   -1.5874    0.0000 N   0  0  0  0  0  0  0  0  0  0  0  0
    1.4246   -2.0000    0.0000 C   0  0  0  0  0  0  0  0  0  0  0  0
   -0.0045   -1.9959    0.0000 C   0  0  0  0  0  0  0  0  0  0  0  0
   -0.7167   -1.5792    0.0000 C   0  0  0  0  0  0  0  0  0  0  0  0
   -0.0092   -2.8209    0.0000 C   0  0  0  0  0  0  0  0  0  0  0  0
    1.4236   -2.8250    0.0000 C   0  0  0  0  0  0  0  0  0  0  0  0
    2.1395   -1.5883    0.0000 C   0  0  0  0  0  0  0  0  0  0  0  0
   -1.4098    3.0521    0.0000 H   0  0  0  0  0  0  0  0  0  0  0  0
   -3.0333    2.1251    0.0000 H   0  0  0  0  0  0  0  0  0  0  0  0
   -3.0303    0.2635    0.0000 H   0  0  0  0  0  0  0  0  0  0  0  0
   -1.3844   -0.6582    0.0000 H   0  0  0  0  0  0  0  0  0  0  0  0
    0.7102    0.5174    0.0000 H   0  0  0  0  0  0  0  0  0  0  0  0
   -0.2185    1.0520    0.0000 H   0  0  0  0  0  0  0  0  0  0  0  0
    1.4182    3.0742    0.0000 H   0  0  0  0  0  0  0  0  0  0  0  0
    2.3469    2.5396    0.0000 H   0  0  0  0  0  0  0  0  0  0  0  0
    2.1314    0.5216    0.0000 H   0  0  0  0  0  0  0  0  0  0  0  0
    3.0603    2.1253    0.0000 H   0  0  0  0  0  0  0  0  0  0  0  0
    3.0588    1.0553    0.0000 H   0  0  0  0  0  0  0  0  0  0  0  0
   -0.9260   -0.8798    0.0000 H   0  0  0  0  0  0  0  0  0  0  0  0
    0.0001   -1.4199    0.0000 H   0  0  0  0  0  0  0  0  0  0  0  0
    1.6445   -0.2302    0.0000 H   0  0  0  0  0  0  0  0  0  0  0  0
    1.6407   -1.3011    0.0000 H   0  0  0  0  0  0  0  0  0  0  0  0
    2.3506   -2.5361    0.0000 H   0  0  0  0  0  0  0  0  0  0  0  0
   -0.9342   -2.5256    0.0000 H   0  0  0  0  0  0  0  0  0  0  0  0
   -0.7105   -0.5092    0.0000 H   0  0  0  0  0  0  0  0  0  0  0  0
   -1.6464   -2.1088    0.0000 H   0  0  0  0  0  0  0  0  0  0  0  0
   -1.6402   -1.0388    0.0000 H   0  0  0  0  0  0  0  0  0  0  0  0
   -0.9389   -3.3506    0.0000 H   0  0  0  0  0  0  0  0  0  0  0  0
    0.9144   -3.3612    0.0000 H   0  0  0  0  0  0  0  0  0  0  0  0
   -0.0153   -3.8909    0.0000 H   0  0  0  0  0  0  0  0  0  0  0  0
    0.4963   -3.3589    0.0000 H   0  0  0  0  0  0  0  0  0  0  0  0
    2.3496   -3.3611    0.0000 H   0  0  0  0  0  0  0  0  0  0  0  0
    1.4223   -3.8950    0.0000 H   0  0  0  0  0  0  0  0  0  0  0  0
    3.0656   -2.1243    0.0000 H   0  0  0  0  0  0  0  0  0  0  0  0
    2.1407   -0.5183    0.0000 H   0  0  0  0  0  0  0  0  0  0  0  0
    3.0667   -1.0543    0.0000 H   0  0  0  0  0  0  0  0  0  0  0  0
  1 12  1  0  0  0  0
  1  2  2  0  0  0  0
  2  3  1  0  0  0  0
  2  7  1  0  0  0  0
  3  4  2  0  0  0  0
  3 22  1  0  0  0  0
  4  5  1  0  0  0  0
  4 23  1  0  0  0  0
  5  6  2  0  0  0  0
  5 24  1  0  0  0  0
  6  1  1  0  0  0  0
  6 25  1  0  0  0  0
  7  8  2  0  0  0  0
  7  9  1  0  0  0  0
  9 10  1  0  0  0  0
  9 26  1  0  0  0  0
  9 27  1  0  0  0  0
 10 11  1  0  0  0  0
 10 28  1  0  0  0  0
 10 29  1  0  0  0  0
 11 30  1  0  0  0  0
 11 31  1  0  0  0  0
 11 32  1  0  0  0  0
 12 13  1  0  0  0  0
 13 14  1  0  0  0  0
 13 33  1  0  0  0  0
 13 34  1  0  0  0  0
 14 15  1  0  0  0  0
 14 35  1  0  0  0  0
 14 36  1  0  0  0  0
 15 16  1  0  0  0  0
 15 17  1  0  0  0  0
 16 20  1  0  0  0  0
 16 21  1  0  0  0  0
 16 37  1  0  0  0  0
 17 18  1  0  0  0  0
 17 19  1  0  0  0  0
 17 38  1  0  0  0  0
 18 39  1  0  0  0  0
 18 40  1  0  0  0  0
 18 41  1  0  0  0  0
 19 42  1  0  0  0  0
 19 43  1  0  0  0  0
 19 44  1  0  0  0  0
 20 45  1  0  0  0  0
 20 46  1  0  0  0  0
 20 47  1  0  0  0  0
 21 48  1  0  0  0  0
 21 49  1  0  0  0  0
 21 50  1  0  0  0  0
M  END
>  <DRUGBANK_ID>
DB16020

>  <COMMON_NAME>
Ketocaine

>  <CAS_NUMBER>
1092-46-2

>  <UNII>
WA1RT89G9X

>  <SYNONYMS>
Cetocaina; Ketocaine; Ketocainum

$$$$
