
 OpenBabel10282417072D

 46 48  0  0  0  0  0  0  0  0999 V2000
    0.0000    1.4437    0.0000 C   0  0  0  0  0  0  0  0  0  0  0  0
   -0.7144    1.8562    0.0000 C   0  0  0  0  0  0  0  0  0  0  0  0
   -1.4289    1.4437    0.0000 C   0  0  0  0  0  0  0  0  0  0  0  0
   -1.4289    0.6187    0.0000 C   0  0  0  0  0  0  0  0  0  0  0  0
   -0.7144    0.2062    0.0000 C   0  0  0  0  0  0  0  0  0  0  0  0
    0.0000    0.6187    0.0000 C   0  0  0  0  0  0  0  0  0  0  0  0
   -2.1434    0.2062    0.0000 N   0  0  0  0  0  0  0  0  0  0  0  0
   -2.1434   -0.6187    0.0000 C   0  0  0  0  0  0  0  0  0  0  0  0
   -1.4289   -1.0312    0.0000 N   0  0  0  0  0  0  0  0  0  0  0  0
   -1.4289   -1.8562    0.0000 C   0  0  0  0  0  0  0  0  0  0  0  0
   -2.1434   -2.2687    0.0000 N   0  0  0  0  0  0  0  0  0  0  0  0
   -2.8579   -1.8562    0.0000 C   0  0  0  0  0  0  0  0  0  0  0  0
   -2.8579   -1.0312    0.0000 C   0  0  0  0  0  0  0  0  0  0  0  0
   -0.7144   -2.2687    0.0000 N   0  0  0  0  0  0  0  0  0  0  0  0
    0.0000   -1.8562    0.0000 C   0  0  0  0  0  0  0  0  0  0  0  0
    0.7144   -2.2687    0.0000 C   0  0  0  0  0  0  0  0  0  0  0  0
    1.4289   -1.8562    0.0000 C   0  0  0  0  0  0  0  0  0  0  0  0
    1.4289   -1.0312    0.0000 C   0  0  0  0  0  0  0  0  0  0  0  0
    0.7144   -0.6187    0.0000 C   0  0  0  0  0  0  0  0  0  0  0  0
    0.0000   -1.0312    0.0000 C   0  0  0  0  0  0  0  0  0  0  0  0
   -0.7144   -0.6187    0.0000 C   0  0  0  0  0  0  0  0  0  0  0  0
    2.1434   -0.6187    0.0000 C   0  0  0  0  0  0  0  0  0  0  0  0
    2.8579   -0.2062    0.0000 N   0  0  0  0  0  0  0  0  0  0  0  0
    0.7144    1.8562    0.0000 C   0  0  0  0  0  0  0  0  0  0  0  0
    1.4289    1.4437    0.0000 C   0  0  0  0  0  0  0  0  0  0  0  0
    2.1434    1.8562    0.0000 C   0  0  0  0  0  0  0  0  0  0  0  0
    2.8579    2.2687    0.0000 N   0  0  0  0  0  0  0  0  0  0  0  0
   -2.1434    1.8562    0.0000 C   0  0  0  0  0  0  0  0  0  0  0  0
   -0.7144    2.8882    0.0000 H   0  0  0  0  0  0  0  0  0  0  0  0
    0.8937    0.1027    0.0000 H   0  0  0  0  0  0  0  0  0  0  0  0
   -2.9960    0.6985    0.0000 H   0  0  0  0  0  0  0  0  0  0  0  0
   -3.7516   -2.3722    0.0000 H   0  0  0  0  0  0  0  0  0  0  0  0
   -3.7516   -0.5152    0.0000 H   0  0  0  0  0  0  0  0  0  0  0  0
   -0.7144   -3.2532    0.0000 H   0  0  0  0  0  0  0  0  0  0  0  0
    0.7144   -3.3007    0.0000 H   0  0  0  0  0  0  0  0  0  0  0  0
    2.3226   -2.3722    0.0000 H   0  0  0  0  0  0  0  0  0  0  0  0
    0.7144    0.4133    0.0000 H   0  0  0  0  0  0  0  0  0  0  0  0
   -0.8937   -0.5152    0.0000 H   0  0  0  0  0  0  0  0  0  0  0  0
   -1.6410   -1.1537    0.0000 H   0  0  0  0  0  0  0  0  0  0  0  0
    0.2122   -1.1537    0.0000 H   0  0  0  0  0  0  0  0  0  0  0  0
   -0.7144   -1.6887    0.0000 H   0  0  0  0  0  0  0  0  0  0  0  0
    0.7144    2.8882    0.0000 H   0  0  0  0  0  0  0  0  0  0  0  0
    1.4289    0.4117    0.0000 H   0  0  0  0  0  0  0  0  0  0  0  0
   -2.1434    2.9262    0.0000 H   0  0  0  0  0  0  0  0  0  0  0  0
   -3.0700    1.3212    0.0000 H   0  0  0  0  0  0  0  0  0  0  0  0
   -3.0701    2.3912    0.0000 H   0  0  0  0  0  0  0  0  0  0  0  0
  1  2  2  0  0  0  0
  1  6  1  0  0  0  0
  1 24  1  0  0  0  0
  2  3  1  0  0  0  0
  2 29  1  0  0  0  0
  3  4  2  0  0  0  0
  3 28  1  0  0  0  0
  4  5  1  0  0  0  0
  4  7  1  0  0  0  0
  5  6  2  0  0  0  0
  5 21  1  0  0  0  0
  6 30  1  0  0  0  0
  7  8  1  0  0  0  0
  7 31  1  0  0  0  0
  8  9  1  0  0  0  0
  8 13  2  0  0  0  0
  9 10  2  0  0  0  0
 10 11  1  0  0  0  0
 10 14  1  0  0  0  0
 11 12  2  0  0  0  0
 12 13  1  0  0  0  0
 12 32  1  0  0  0  0
 13 33  1  0  0  0  0
 14 15  1  0  0  0  0
 14 34  1  0  0  0  0
 15 16  1  0  0  0  0
 15 20  2  0  0  0  0
 16 17  2  0  0  0  0
 16 35  1  0  0  0  0
 17 18  1  0  0  0  0
 17 36  1  0  0  0  0
 18 19  2  0  0  0  0
 18 22  1  0  0  0  0
 19 20  1  0  0  0  0
 19 37  1  0  0  0  0
 20 38  1  0  0  0  0
 21 39  1  0  0  0  0
 21 40  1  0  0  0  0
 21 41  1  0  0  0  0
 22 23  3  0  0  0  0
 24 25  2  0  0  0  0
 24 42  1  0  0  0  0
 25 26  1  0  0  0  0
 25 43  1  0  0  0  0
 26 27  3  0  0  0  0
 28 44  1  0  0  0  0
 28 45  1  0  0  0  0
 28 46  1  0  0  0  0
M  END
>  <DRUGBANK_ID>
DB08864

>  <SECONDARY_ACCESSION_NUMBERS>
DB08592; DB05083

>  <COMMON_NAME>
Rilpivirine

>  <CAS_NUMBER>
500287-72-9

>  <UNII>
FI96A8X663

>  <SYNONYMS>
4-{[4-({4-[(E)-2-cyanovinyl]-2,6-dimethylphenyl}amino)pyrimidin-2-yl]amino}benzonitrile; Rilpivirina; Rilpivirine

$$$$
