
 OpenBabel10282417072D

 34 35  0  0  0  0  0  0  0  0999 V2000
   -1.4289   -0.6971    0.0000 O   0  0  0  0  0  0  0  0  0  0  0  0
    0.0000    2.6029    0.0000 N   0  0  0  0  0  0  0  0  0  0  0  0
    0.7145    3.8404    0.0000 N   0  0  0  0  0  0  0  0  0  0  0  0
    1.4289    2.6029    0.0000 N   0  0  0  0  0  0  0  0  0  0  0  0
    0.0000   -0.6971    0.0000 C   0  0  0  0  0  0  0  0  0  0  0  0
    0.0000    0.1278    0.0000 C   0  0  0  0  0  0  0  0  0  0  0  0
   -0.7145   -1.1096    0.0000 C   0  0  0  0  0  0  0  0  0  0  0  0
   -0.7145   -1.9346    0.0000 C   0  0  0  0  0  0  0  0  0  0  0  0
   -0.7145    0.5403    0.0000 C   0  0  0  0  0  0  0  0  0  0  0  0
    0.7145    0.5403    0.0000 C   0  0  0  0  0  0  0  0  0  0  0  0
   -0.7145    1.3654    0.0000 C   0  0  0  0  0  0  0  0  0  0  0  0
    0.7145    1.3654    0.0000 C   0  0  0  0  0  0  0  0  0  0  0  0
    0.0000    1.7779    0.0000 C   0  0  0  0  0  0  0  0  0  0  0  0
   -1.4289   -2.3471    0.0000 C   0  0  0  0  0  0  0  0  0  0  0  0
    0.0000   -2.3471    0.0000 C   0  0  0  0  0  0  0  0  0  0  0  0
   -1.4289   -3.1721    0.0000 C   0  0  0  0  0  0  0  0  0  0  0  0
    0.0000   -3.1721    0.0000 C   0  0  0  0  0  0  0  0  0  0  0  0
   -0.7145   -3.5847    0.0000 C   0  0  0  0  0  0  0  0  0  0  0  0
    0.7145    3.0154    0.0000 C   0  0  0  0  0  0  0  0  0  0  0  0
    1.5671    4.3327    0.0000 H   0  0  0  0  0  0  0  0  0  0  0  0
   -0.1381    4.3327    0.0000 H   0  0  0  0  0  0  0  0  0  0  0  0
    1.4289    1.6184    0.0000 H   0  0  0  0  0  0  0  0  0  0  0  0
    2.2815    3.0951    0.0000 H   0  0  0  0  0  0  0  0  0  0  0  0
    0.9266   -1.2321    0.0000 H   0  0  0  0  0  0  0  0  0  0  0  0
   -0.0000   -1.7671    0.0000 H   0  0  0  0  0  0  0  0  0  0  0  0
   -1.6082    0.0243    0.0000 H   0  0  0  0  0  0  0  0  0  0  0  0
    1.6082    0.0243    0.0000 H   0  0  0  0  0  0  0  0  0  0  0  0
   -1.6082    1.8814    0.0000 H   0  0  0  0  0  0  0  0  0  0  0  0
    1.6082    1.8814    0.0000 H   0  0  0  0  0  0  0  0  0  0  0  0
   -2.3226   -1.8311    0.0000 H   0  0  0  0  0  0  0  0  0  0  0  0
    0.8937   -1.8311    0.0000 H   0  0  0  0  0  0  0  0  0  0  0  0
   -2.3227   -3.6880    0.0000 H   0  0  0  0  0  0  0  0  0  0  0  0
    0.8938   -3.6881    0.0000 H   0  0  0  0  0  0  0  0  0  0  0  0
   -0.7145   -4.6167    0.0000 H   0  0  0  0  0  0  0  0  0  0  0  0
  1  7  2  0  0  0  0
  2 13  1  0  0  0  0
  2 19  2  0  0  0  0
  3 19  1  0  0  0  0
  3 20  1  0  0  0  0
  3 21  1  0  0  0  0
  4 19  1  0  0  0  0
  4 22  1  0  0  0  0
  4 23  1  0  0  0  0
  5  6  1  0  0  0  0
  5  7  1  0  0  0  0
  5 24  1  0  0  0  0
  5 25  1  0  0  0  0
  6  9  2  0  0  0  0
  6 10  1  0  0  0  0
  7  8  1  0  0  0  0
  8 14  2  0  0  0  0
  8 15  1  0  0  0  0
  9 11  1  0  0  0  0
  9 26  1  0  0  0  0
 10 12  2  0  0  0  0
 10 27  1  0  0  0  0
 11 13  2  0  0  0  0
 11 28  1  0  0  0  0
 12 13  1  0  0  0  0
 12 29  1  0  0  0  0
 14 16  1  0  0  0  0
 14 30  1  0  0  0  0
 15 17  2  0  0  0  0
 15 31  1  0  0  0  0
 16 18  2  0  0  0  0
 16 32  1  0  0  0  0
 17 18  1  0  0  0  0
 17 33  1  0  0  0  0
 18 34  1  0  0  0  0
M  END
>  <DRUGBANK_ID>
DB07122

>  <COMMON_NAME>
1-[4-(2-oxo-2-phenylethyl)phenyl]guanidine

$$$$
