
 OpenBabel10282417072D

 42 43  0  0  0  0  0  0  0  0999 V2000
    4.0034    1.5713    0.0000 C   0  0  0  0  0  0  0  0  0  0  0  0
    1.5986   -0.4726    0.0000 C   0  0  0  0  0  0  0  0  0  0  0  0
    2.4322   -0.4726    0.0000 C   0  0  0  0  0  0  0  0  0  0  0  0
    3.4840    0.9323    0.0000 N   0  0  0  0  0  0  0  0  0  0  0  0
    0.1960   -1.0804    0.0000 O   0  0  0  0  0  0  0  0  0  0  0  0
    3.7099    2.3659    0.0000 O   0  0  0  0  0  0  0  0  0  0  0  0
    0.7674   -0.4726    0.0000 C   0  0  1  0  0  0  0  0  0  0  0  0
    4.7982    1.3738    0.0000 N   0  0  0  0  0  0  0  0  0  0  0  0
   -1.9517   -0.7141    0.0000 O   0  0  0  0  0  0  0  0  0  0  0  0
   -0.5259   -0.7376    0.0000 C   0  0  2  0  0  0  0  0  0  0  0  0
   -2.6633   -1.1271    0.0000 C   0  0  0  0  0  0  0  0  0  0  0  0
   -4.0866   -1.9530    0.0000 C   0  0  0  0  0  0  0  0  0  0  0  0
    2.6789    1.0544    0.0000 O   0  0  0  0  0  0  0  0  0  0  0  0
   -1.2375   -1.1401    0.0000 C   0  0  0  0  0  0  0  0  0  0  0  0
   -4.7982   -2.3659    0.0000 F   0  0  0  0  0  0  0  0  0  0  0  0
   -2.6633   -1.9530    0.0000 C   0  0  0  0  0  0  0  0  0  0  0  0
   -3.3776   -0.7141    0.0000 C   0  0  0  0  0  0  0  0  0  0  0  0
   -3.3776   -2.3659    0.0000 C   0  0  0  0  0  0  0  0  0  0  0  0
   -4.0866   -1.1271    0.0000 C   0  0  0  0  0  0  0  0  0  0  0  0
    0.3622    0.2285    0.0000 C   0  0  0  0  0  0  0  0  0  0  0  0
   -0.4635    0.0649    0.0000 C   0  0  0  0  0  0  0  0  0  0  0  0
    3.2633   -0.4726    0.0000 C   0  0  0  0  0  0  0  0  0  0  0  0
    3.7774    0.1661    0.0000 C   0  0  0  0  0  0  0  0  0  0  0  0
    1.1921   -1.4547    0.0000 H   0  0  0  0  0  0  0  0  0  0  0  0
    5.0703    0.4277    0.0000 H   0  0  0  0  0  0  0  0  0  0  0  0
    5.4815    2.0825    0.0000 H   0  0  0  0  0  0  0  0  0  0  0  0
   -0.4877   -1.8069    0.0000 H   0  0  0  0  0  0  0  0  0  0  0  0
    2.3253    1.9577    0.0000 H   0  0  0  0  0  0  0  0  0  0  0  0
   -1.2498   -2.2100    0.0000 H   0  0  0  0  0  0  0  0  0  0  0  0
   -0.3163   -1.6845    0.0000 H   0  0  0  0  0  0  0  0  0  0  0  0
   -1.7694   -2.4688    0.0000 H   0  0  0  0  0  0  0  0  0  0  0  0
   -3.3793    0.3179    0.0000 H   0  0  0  0  0  0  0  0  0  0  0  0
   -3.3793   -3.3979    0.0000 H   0  0  0  0  0  0  0  0  0  0  0  0
   -4.9813   -0.6128    0.0000 H   0  0  0  0  0  0  0  0  0  0  0  0
    0.8039    1.2031    0.0000 H   0  0  0  0  0  0  0  0  0  0  0  0
   -0.3026    1.0669    0.0000 H   0  0  0  0  0  0  0  0  0  0  0  0
   -1.2634    0.7756    0.0000 H   0  0  0  0  0  0  0  0  0  0  0  0
   -1.4558   -0.3354    0.0000 H   0  0  0  0  0  0  0  0  0  0  0  0
    3.7254   -1.4377    0.0000 H   0  0  0  0  0  0  0  0  0  0  0  0
    4.3262   -0.5960    0.0000 H   0  0  0  0  0  0  0  0  0  0  0  0
    4.8344   -0.0002    0.0000 H   0  0  0  0  0  0  0  0  0  0  0  0
    4.4507    0.9977    0.0000 H   0  0  0  0  0  0  0  0  0  0  0  0
  2  3  3  0  0  0  0
  3 22  1  0  0  0  0
  4  1  1  0  0  0  0
  5  7  1  0  0  0  0
  6  1  2  0  0  0  0
  7  2  1  0  0  0  0
  7 24  1  6  0  0  0
  8  1  1  0  0  0  0
  8 25  1  0  0  0  0
  8 26  1  0  0  0  0
  9 14  1  0  0  0  0
 10  5  1  0  0  0  0
 10 14  1  0  0  0  0
 10 27  1  1  0  0  0
 11  9  1  0  0  0  0
 12 19  1  0  0  0  0
 13  4  1  0  0  0  0
 13 28  1  0  0  0  0
 14 29  1  0  0  0  0
 14 30  1  0  0  0  0
 15 12  1  0  0  0  0
 16 11  2  0  0  0  0
 16 31  1  0  0  0  0
 17 11  1  0  0  0  0
 17 32  1  0  0  0  0
 18 16  1  0  0  0  0
 18 12  2  0  0  0  0
 18 33  1  0  0  0  0
 19 17  2  0  0  0  0
 19 34  1  0  0  0  0
 20  7  1  0  0  0  0
 20 35  1  0  0  0  0
 20 36  1  0  0  0  0
 21 20  1  0  0  0  0
 21 10  1  0  0  0  0
 21 37  1  0  0  0  0
 21 38  1  0  0  0  0
 22 23  1  0  0  0  0
 22 39  1  0  0  0  0
 22 40  1  0  0  0  0
 23  4  1  0  0  0  0
 23 41  1  0  0  0  0
 23 42  1  0  0  0  0
M  END
>  <DRUGBANK_ID>
DB05431

>  <COMMON_NAME>
MLN-977

>  <CAS_NUMBER>
175212-04-1

>  <UNII>
VNR0T3Q498

$$$$
