
 OpenBabel10282417072D

 27 27  0  0  0  0  0  0  0  0999 V2000
   -1.0716    0.0000    0.0000 C   0  0  0  0  0  0  0  0  0  0  0  0
   -1.0716    0.8250    0.0000 C   0  0  0  0  0  0  0  0  0  0  0  0
   -1.7862    1.2374    0.0000 C   0  0  0  0  0  0  0  0  0  0  0  0
   -2.5007    0.0000    0.0000 C   0  0  0  0  0  0  0  0  0  0  0  0
   -2.5007    0.8250    0.0000 C   0  0  0  0  0  0  0  0  0  0  0  0
   -0.3571   -0.4125    0.0000 C   0  0  0  0  0  0  0  0  0  0  0  0
    0.3572    0.0000    0.0000 C   0  0  0  0  0  0  0  0  0  0  0  0
   -0.3571   -1.2374    0.0000 O   0  0  0  0  0  0  0  0  0  0  0  0
    1.0716   -0.4125    0.0000 C   0  0  1  0  0  0  0  0  0  0  0  0
    1.7862    0.0000    0.0000 C   0  0  0  0  0  0  0  0  0  0  0  0
    1.0716   -1.2374    0.0000 N   0  0  0  0  0  0  0  0  0  0  0  0
    1.7862    0.8250    0.0000 O   0  0  0  0  0  0  0  0  0  0  0  0
    2.5007   -0.4125    0.0000 O   0  0  0  0  0  0  0  0  0  0  0  0
   -1.7862   -0.4125    0.0000 C   0  0  0  0  0  0  0  0  0  0  0  0
   -1.7862   -1.2374    0.0000 N   0  0  0  0  0  0  0  0  0  0  0  0
   -0.1779    1.3411    0.0000 H   0  0  0  0  0  0  0  0  0  0  0  0
   -1.7862    2.2694    0.0000 H   0  0  0  0  0  0  0  0  0  0  0  0
   -3.3944   -0.5160    0.0000 H   0  0  0  0  0  0  0  0  0  0  0  0
   -3.3944    1.3411    0.0000 H   0  0  0  0  0  0  0  0  0  0  0  0
    0.3572    1.0700    0.0000 H   0  0  0  0  0  0  0  0  0  0  0  0
    1.2839    0.5350    0.0000 H   0  0  0  0  0  0  0  0  0  0  0  0
    0.1449   -0.9475    0.0000 H   0  0  0  0  0  0  0  0  0  0  0  0
    0.1883   -1.7474    0.0000 H   0  0  0  0  0  0  0  0  0  0  0  0
    1.9549   -1.7474    0.0000 H   0  0  0  0  0  0  0  0  0  0  0  0
    2.5007   -1.3495    0.0000 H   0  0  0  0  0  0  0  0  0  0  0  0
   -2.6388   -1.7297    0.0000 H   0  0  0  0  0  0  0  0  0  0  0  0
   -0.9336   -1.7296    0.0000 H   0  0  0  0  0  0  0  0  0  0  0  0
  1  6  1  0  0  0  0
  1  2  2  0  0  0  0
  2  3  1  0  0  0  0
  2 16  1  0  0  0  0
  3  5  2  0  0  0  0
  3 17  1  0  0  0  0
  4 18  1  0  0  0  0
  5  4  1  0  0  0  0
  5 19  1  0  0  0  0
  6  7  1  0  0  0  0
  6  8  2  0  0  0  0
  7  9  1  0  0  0  0
  7 20  1  0  0  0  0
  7 21  1  0  0  0  0
  9 10  1  0  0  0  0
  9 11  1  0  0  0  0
  9 22  1  6  0  0  0
 10 12  2  0  0  0  0
 10 13  1  0  0  0  0
 11 23  1  0  0  0  0
 11 24  1  0  0  0  0
 13 25  1  0  0  0  0
 14  1  1  0  0  0  0
 14  4  2  0  0  0  0
 14 15  1  0  0  0  0
 15 26  1  0  0  0  0
 15 27  1  0  0  0  0
M  END
>  <DRUGBANK_ID>
DB02070

>  <SECONDARY_ACCESSION_NUMBERS>
EXPT01985

>  <COMMON_NAME>
Kynurenine

>  <CAS_NUMBER>
2922-83-0

>  <UNII>
02JW4J5R44

>  <SYNONYMS>
(2S)-2-amino-4-(2-aminophenyl)-4-oxobutanoic acid; 3-Anthraniloyl-L-alanine; L-kynurenine

$$$$
