
 OpenBabel10282417072D

 43 45  0  0  0  0  0  0  0  0999 V2000
    3.2151    1.0865    0.0000 C   0  0  0  0  0  0  0  0  0  0  0  0
    3.9295    0.6740    0.0000 C   0  0  0  0  0  0  0  0  0  0  0  0
    3.9295   -0.1509    0.0000 C   0  0  0  0  0  0  0  0  0  0  0  0
    3.2151   -0.5635    0.0000 C   0  0  0  0  0  0  0  0  0  0  0  0
    2.5006   -0.1509    0.0000 C   0  0  0  0  0  0  0  0  0  0  0  0
    2.5006    0.6740    0.0000 N   0  0  0  0  0  0  0  0  0  0  0  0
    4.6440    1.0865    0.0000 C   0  0  0  0  0  0  0  0  0  0  0  0
    5.3585    1.4990    0.0000 F   0  0  0  0  0  0  0  0  0  0  0  0
    5.0565    0.3721    0.0000 F   0  0  0  0  0  0  0  0  0  0  0  0
    4.2315    1.8010    0.0000 F   0  0  0  0  0  0  0  0  0  0  0  0
    3.2151   -1.3884    0.0000 Cl  0  0  0  0  0  0  0  0  0  0  0  0
    1.7861   -0.5635    0.0000 O   0  0  0  0  0  0  0  0  0  0  0  0
    1.0717   -0.1509    0.0000 C   0  0  0  0  0  0  0  0  0  0  0  0
    0.3572   -0.5635    0.0000 C   0  0  0  0  0  0  0  0  0  0  0  0
   -0.3572   -0.1509    0.0000 C   0  0  0  0  0  0  0  0  0  0  0  0
   -0.3572    0.6740    0.0000 C   0  0  0  0  0  0  0  0  0  0  0  0
    0.3572    1.0865    0.0000 C   0  0  0  0  0  0  0  0  0  0  0  0
    1.0717    0.6740    0.0000 C   0  0  0  0  0  0  0  0  0  0  0  0
    1.7861    1.0865    0.0000 Cl  0  0  0  0  0  0  0  0  0  0  0  0
   -1.0717   -0.5635    0.0000 N   0  0  0  0  0  0  0  0  0  0  0  0
   -1.7861   -0.1509    0.0000 C   0  0  0  0  0  0  0  0  0  0  0  0
   -1.7861    0.6740    0.0000 O   0  0  0  0  0  0  0  0  0  0  0  0
   -2.5006   -0.5635    0.0000 N   0  0  0  0  0  0  0  0  0  0  0  0
   -3.2151   -0.1509    0.0000 C   0  0  0  0  0  0  0  0  0  0  0  0
   -3.2151    0.6740    0.0000 O   0  0  0  0  0  0  0  0  0  0  0  0
   -3.9295   -0.5635    0.0000 C   0  0  0  0  0  0  0  0  0  0  0  0
   -4.6440   -0.1509    0.0000 C   0  0  0  0  0  0  0  0  0  0  0  0
   -5.3585   -0.5635    0.0000 C   0  0  0  0  0  0  0  0  0  0  0  0
   -5.3585   -1.3884    0.0000 C   0  0  0  0  0  0  0  0  0  0  0  0
   -4.6440   -1.8010    0.0000 C   0  0  0  0  0  0  0  0  0  0  0  0
   -3.9295   -1.3884    0.0000 C   0  0  0  0  0  0  0  0  0  0  0  0
   -3.2151   -1.8010    0.0000 F   0  0  0  0  0  0  0  0  0  0  0  0
   -4.6440    0.6740    0.0000 F   0  0  0  0  0  0  0  0  0  0  0  0
    3.2151    2.1185    0.0000 H   0  0  0  0  0  0  0  0  0  0  0  0
    4.8233   -0.6668    0.0000 H   0  0  0  0  0  0  0  0  0  0  0  0
    0.3572   -1.5955    0.0000 H   0  0  0  0  0  0  0  0  0  0  0  0
   -1.2509    1.1900    0.0000 H   0  0  0  0  0  0  0  0  0  0  0  0
    0.3572    2.1185    0.0000 H   0  0  0  0  0  0  0  0  0  0  0  0
   -1.0717   -1.5480    0.0000 H   0  0  0  0  0  0  0  0  0  0  0  0
   -2.5006   -1.5480    0.0000 H   0  0  0  0  0  0  0  0  0  0  0  0
   -6.2523   -0.0475    0.0000 H   0  0  0  0  0  0  0  0  0  0  0  0
   -6.2523   -1.9044    0.0000 H   0  0  0  0  0  0  0  0  0  0  0  0
   -4.6440   -2.8330    0.0000 H   0  0  0  0  0  0  0  0  0  0  0  0
  1  2  2  0  0  0  0
  1 34  1  0  0  0  0
  2  3  1  0  0  0  0
  2  7  1  0  0  0  0
  3  4  2  0  0  0  0
  3 35  1  0  0  0  0
  4  5  1  0  0  0  0
  4 11  1  0  0  0  0
  5  6  2  0  0  0  0
  5 12  1  0  0  0  0
  6  1  1  0  0  0  0
  7  8  1  0  0  0  0
  7  9  1  0  0  0  0
  7 10  1  0  0  0  0
 12 13  1  0  0  0  0
 13 14  2  0  0  0  0
 14 15  1  0  0  0  0
 14 36  1  0  0  0  0
 15 20  1  0  0  0  0
 15 16  2  0  0  0  0
 16 17  1  0  0  0  0
 16 37  1  0  0  0  0
 17 18  2  0  0  0  0
 17 38  1  0  0  0  0
 18 13  1  0  0  0  0
 18 19  1  0  0  0  0
 20 21  1  0  0  0  0
 20 39  1  0  0  0  0
 21 22  2  0  0  0  0
 21 23  1  0  0  0  0
 23 24  1  0  0  0  0
 23 40  1  0  0  0  0
 24 25  2  0  0  0  0
 24 26  1  0  0  0  0
 26 27  2  0  0  0  0
 27 28  1  0  0  0  0
 27 33  1  0  0  0  0
 28 29  2  0  0  0  0
 28 41  1  0  0  0  0
 29 30  1  0  0  0  0
 29 42  1  0  0  0  0
 30 31  2  0  0  0  0
 30 43  1  0  0  0  0
 31 26  1  0  0  0  0
 31 32  1  0  0  0  0
M  END
>  <DRUGBANK_ID>
DB15583

>  <COMMON_NAME>
Fluazuron

>  <CAS_NUMBER>
86811-58-7

>  <UNII>
VB0PV6I7L6

>  <SYNONYMS>
Fluazuron; Fluazuronum

$$$$
