
 OpenBabel10282417072D

 51 54  0  0  0  0  0  0  0  0999 V2000
    6.4235   -1.0837    0.0000 C   0  0  0  0  0  0  0  0  0  0  0  0
    5.6165   -1.2553    0.0000 C   0  0  0  0  0  0  0  0  0  0  0  0
    5.3615   -2.0399    0.0000 C   0  0  0  0  0  0  0  0  0  0  0  0
    5.0645   -0.6422    0.0000 O   0  0  0  0  0  0  0  0  0  0  0  0
    4.2575   -0.8137    0.0000 C   0  0  0  0  0  0  0  0  0  0  0  0
    4.0025   -1.5983    0.0000 O   0  0  0  0  0  0  0  0  0  0  0  0
    3.7054   -0.2006    0.0000 C   0  0  0  0  0  0  0  0  0  0  0  0
    2.8985   -0.3721    0.0000 C   0  0  0  0  0  0  0  0  0  0  0  0
    2.3464    0.2410    0.0000 C   0  0  0  0  0  0  0  0  0  0  0  0
    2.6014    1.0256    0.0000 C   0  0  0  0  0  0  0  0  0  0  0  0
    3.4084    1.1971    0.0000 C   0  0  0  0  0  0  0  0  0  0  0  0
    3.9604    0.5840    0.0000 N   0  0  0  0  0  0  0  0  0  0  0  0
    1.9339    1.5105    0.0000 N   0  0  0  0  0  0  0  0  0  0  0  0
    1.2665    1.0256    0.0000 C   0  0  0  0  0  0  0  0  0  0  0  0
    1.5214    0.2410    0.0000 C   0  0  0  0  0  0  0  0  0  0  0  0
    0.9694   -0.3721    0.0000 C   0  0  0  0  0  0  0  0  0  0  0  0
    0.1624   -0.2006    0.0000 C   0  0  0  0  0  0  0  0  0  0  0  0
   -0.0925    0.5840    0.0000 C   0  0  0  0  0  0  0  0  0  0  0  0
    0.4595    1.1971    0.0000 C   0  0  0  0  0  0  0  0  0  0  0  0
    1.2243   -1.1567    0.0000 O   0  0  0  0  0  0  0  0  0  0  0  0
    0.6723   -1.7698    0.0000 C   0  0  0  0  0  0  0  0  0  0  0  0
    0.9273   -2.5545    0.0000 C   0  0  0  0  0  0  0  0  0  0  0  0
    0.3752   -3.1676    0.0000 C   0  0  0  0  0  0  0  0  0  0  0  0
   -0.4317   -2.9960    0.0000 C   0  0  0  0  0  0  0  0  0  0  0  0
   -0.6867   -2.2114    0.0000 C   0  0  0  0  0  0  0  0  0  0  0  0
   -0.1347   -1.5983    0.0000 C   0  0  0  0  0  0  0  0  0  0  0  0
   -0.9838   -3.6091    0.0000 Cl  0  0  0  0  0  0  0  0  0  0  0  0
    2.6435   -1.1567    0.0000 C   0  0  0  0  0  0  0  0  0  0  0  0
    3.1956   -1.7698    0.0000 O   0  0  0  0  0  0  0  0  0  0  0  0
    2.9406   -2.5545    0.0000 C   0  0  0  0  0  0  0  0  0  0  0  0
    7.1395   -1.8788    0.0000 H   0  0  0  0  0  0  0  0  0  0  0  0
    6.7541   -0.0660    0.0000 H   0  0  0  0  0  0  0  0  0  0  0  0
    7.4701   -0.8612    0.0000 H   0  0  0  0  0  0  0  0  0  0  0  0
    4.5699   -1.4777    0.0000 H   0  0  0  0  0  0  0  0  0  0  0  0
    4.3149   -2.2623    0.0000 H   0  0  0  0  0  0  0  0  0  0  0  0
    6.0774   -2.8351    0.0000 H   0  0  0  0  0  0  0  0  0  0  0  0
    5.0308   -3.0575    0.0000 H   0  0  0  0  0  0  0  0  0  0  0  0
    3.7273    2.1786    0.0000 H   0  0  0  0  0  0  0  0  0  0  0  0
    1.9339    2.4950    0.0000 H   0  0  0  0  0  0  0  0  0  0  0  0
   -0.5281   -0.9675    0.0000 H   0  0  0  0  0  0  0  0  0  0  0  0
   -1.1019    0.7986    0.0000 H   0  0  0  0  0  0  0  0  0  0  0  0
    0.1406    2.1786    0.0000 H   0  0  0  0  0  0  0  0  0  0  0  0
    1.9367   -2.7691    0.0000 H   0  0  0  0  0  0  0  0  0  0  0  0
    0.6940   -4.1491    0.0000 H   0  0  0  0  0  0  0  0  0  0  0  0
   -1.6962   -1.9969    0.0000 H   0  0  0  0  0  0  0  0  0  0  0  0
   -0.4536   -0.6168    0.0000 H   0  0  0  0  0  0  0  0  0  0  0  0
    1.5969   -1.3792    0.0000 H   0  0  0  0  0  0  0  0  0  0  0  0
    2.3129   -2.1743    0.0000 H   0  0  0  0  0  0  0  0  0  0  0  0
    1.8940   -2.7769    0.0000 H   0  0  0  0  0  0  0  0  0  0  0  0
    3.6565   -3.3497    0.0000 H   0  0  0  0  0  0  0  0  0  0  0  0
    2.6099   -3.5721    0.0000 H   0  0  0  0  0  0  0  0  0  0  0  0
  1  2  1  0  0  0  0
  1 31  1  0  0  0  0
  1 32  1  0  0  0  0
  1 33  1  0  0  0  0
  2  3  1  0  0  0  0
  2  4  1  0  0  0  0
  2 34  1  0  0  0  0
  3 35  1  0  0  0  0
  3 36  1  0  0  0  0
  3 37  1  0  0  0  0
  4  5  1  0  0  0  0
  5  6  2  0  0  0  0
  5  7  1  0  0  0  0
  7  8  2  0  0  0  0
  7 12  1  0  0  0  0
  8  9  1  0  0  0  0
  8 28  1  0  0  0  0
  9 10  2  0  0  0  0
  9 15  1  0  0  0  0
 10 11  1  0  0  0  0
 10 13  1  0  0  0  0
 11 12  2  0  0  0  0
 11 38  1  0  0  0  0
 13 14  1  0  0  0  0
 13 39  1  0  0  0  0
 14 15  2  0  0  0  0
 14 19  1  0  0  0  0
 15 16  1  0  0  0  0
 16 17  2  0  0  0  0
 16 20  1  0  0  0  0
 17 18  1  0  0  0  0
 17 40  1  0  0  0  0
 18 19  2  0  0  0  0
 18 41  1  0  0  0  0
 19 42  1  0  0  0  0
 20 21  1  0  0  0  0
 21 22  2  0  0  0  0
 21 26  1  0  0  0  0
 22 23  1  0  0  0  0
 22 43  1  0  0  0  0
 23 24  2  0  0  0  0
 23 44  1  0  0  0  0
 24 25  1  0  0  0  0
 24 27  1  0  0  0  0
 25 26  2  0  0  0  0
 25 45  1  0  0  0  0
 26 46  1  0  0  0  0
 28 29  1  0  0  0  0
 28 47  1  0  0  0  0
 28 48  1  0  0  0  0
 29 30  1  0  0  0  0
 30 49  1  0  0  0  0
 30 50  1  0  0  0  0
 30 51  1  0  0  0  0
M  END
>  <DRUGBANK_ID>
DB13534

>  <COMMON_NAME>
Gedocarnil

>  <CAS_NUMBER>
109623-97-4

>  <UNII>
BWP53NPW3F

>  <SYNONYMS>
Gedocarnil

$$$$
