
 OpenBabel10282417072D

 52 54  0  0  0  0  0  0  0  0999 V2000
    8.6842   -2.5388    0.0000 C   0  0  0  0  0  0  0  0  0  0  0  0
    7.9697   -2.1263    0.0000 C   0  0  0  0  0  0  0  0  0  0  0  0
    7.9697   -1.3013    0.0000 C   0  0  0  0  0  0  0  0  0  0  0  0
    7.2552   -2.5388    0.0000 C   0  0  0  0  0  0  0  0  0  0  0  0
    6.5408   -2.1263    0.0000 C   0  0  3  0  0  0  0  0  0  0  0  0
    5.7158   -2.1263    0.0000 C   0  0  3  0  0  0  0  0  0  0  0  0
    5.0013   -2.5388    0.0000 C   0  0  0  0  0  0  0  0  0  0  0  0
    4.2868   -2.1263    0.0000 O   0  0  0  0  0  0  0  0  0  0  0  0
    5.0013   -3.3638    0.0000 O   0  0  0  0  0  0  0  0  0  0  0  0
    4.2868   -3.7763    0.0000 C   0  0  0  0  0  0  0  0  0  0  0  0
    4.2868   -4.6013    0.0000 C   0  0  0  0  0  0  0  0  0  0  0  0
    5.0013   -5.0138    0.0000 C   0  0  0  0  0  0  0  0  0  0  0  0
    5.0013   -5.8388    0.0000 C   0  0  0  0  0  0  0  0  0  0  0  0
    4.2868   -6.2513    0.0000 C   0  0  0  0  0  0  0  0  0  0  0  0
    3.5724   -5.8388    0.0000 C   0  0  0  0  0  0  0  0  0  0  0  0
    2.8579   -6.2513    0.0000 O   0  0  0  0  0  0  0  0  0  0  0  0
    2.1434   -5.8388    0.0000 C   0  0  0  0  0  0  0  0  0  0  0  0
    1.4289   -6.2513    0.0000 C   0  0  0  0  0  0  0  0  0  0  0  0
    0.7145   -5.8388    0.0000 C   0  0  0  0  0  0  0  0  0  0  0  0
    0.7145   -5.0138    0.0000 C   0  0  0  0  0  0  0  0  0  0  0  0
    1.4289   -4.6013    0.0000 C   0  0  0  0  0  0  0  0  0  0  0  0
    2.1434   -5.0138    0.0000 C   0  0  0  0  0  0  0  0  0  0  0  0
    3.5724   -5.0138    0.0000 C   0  0  0  0  0  0  0  0  0  0  0  0
    6.1283   -1.4118    0.0000 C   0  0  0  0  0  0  0  0  0  0  0  0
    5.6551   -0.7360    0.0000 C   0  0  0  0  0  0  0  0  0  0  0  0
    6.6015   -0.7360    0.0000 C   0  0  0  0  0  0  0  0  0  0  0  0
    8.6842   -3.6088    0.0000 H   0  0  0  0  0  0  0  0  0  0  0  0
    9.6108   -2.0038    0.0000 H   0  0  0  0  0  0  0  0  0  0  0  0
    9.6109   -3.0738    0.0000 H   0  0  0  0  0  0  0  0  0  0  0  0
    8.8963   -0.7663    0.0000 H   0  0  0  0  0  0  0  0  0  0  0  0
    7.0431   -0.7663    0.0000 H   0  0  0  0  0  0  0  0  0  0  0  0
    7.9697   -0.2313    0.0000 H   0  0  0  0  0  0  0  0  0  0  0  0
    7.2552   -3.5708    0.0000 H   0  0  0  0  0  0  0  0  0  0  0  0
    6.2638   -3.1598    0.0000 H   0  0  0  0  0  0  0  0  0  0  0  0
    5.9927   -3.1598    0.0000 H   0  0  0  0  0  0  0  0  0  0  0  0
    3.3602   -3.2413    0.0000 H   0  0  0  0  0  0  0  0  0  0  0  0
    3.3602   -4.3113    0.0000 H   0  0  0  0  0  0  0  0  0  0  0  0
    5.8950   -4.4978    0.0000 H   0  0  0  0  0  0  0  0  0  0  0  0
    5.8950   -6.3548    0.0000 H   0  0  0  0  0  0  0  0  0  0  0  0
    4.2868   -7.2833    0.0000 H   0  0  0  0  0  0  0  0  0  0  0  0
    1.4289   -7.2833    0.0000 H   0  0  0  0  0  0  0  0  0  0  0  0
   -0.1792   -6.3548    0.0000 H   0  0  0  0  0  0  0  0  0  0  0  0
   -0.1792   -4.4978    0.0000 H   0  0  0  0  0  0  0  0  0  0  0  0
    1.4289   -3.5693    0.0000 H   0  0  0  0  0  0  0  0  0  0  0  0
    3.0371   -4.4978    0.0000 H   0  0  0  0  0  0  0  0  0  0  0  0
    2.6787   -4.4978    0.0000 H   0  0  0  0  0  0  0  0  0  0  0  0
    6.1073    0.2337    0.0000 H   0  0  0  0  0  0  0  0  0  0  0  0
    4.5892   -0.8293    0.0000 H   0  0  0  0  0  0  0  0  0  0  0  0
    5.0414    0.1405    0.0000 H   0  0  0  0  0  0  0  0  0  0  0  0
    7.6674   -0.8293    0.0000 H   0  0  0  0  0  0  0  0  0  0  0  0
    6.1493    0.2337    0.0000 H   0  0  0  0  0  0  0  0  0  0  0  0
    7.2152    0.1405    0.0000 H   0  0  0  0  0  0  0  0  0  0  0  0
  1  2  1  0  0  0  0
  1 27  1  0  0  0  0
  1 28  1  0  0  0  0
  1 29  1  0  0  0  0
  2  3  1  0  0  0  0
  2  4  2  0  0  0  0
  3 30  1  0  0  0  0
  3 31  1  0  0  0  0
  3 32  1  0  0  0  0
  4  5  1  0  0  0  0
  4 33  1  0  0  0  0
  5  6  1  0  0  0  0
  5 24  1  0  0  0  0
  5 34  1  0  0  0  0
  6  7  1  0  0  0  0
  6 24  1  0  0  0  0
  6 35  1  0  0  0  0
  7  8  2  0  0  0  0
  7  9  1  0  0  0  0
  9 10  1  0  0  0  0
 10 11  1  0  0  0  0
 10 36  1  0  0  0  0
 10 37  1  0  0  0  0
 11 12  2  0  0  0  0
 11 23  1  0  0  0  0
 12 13  1  0  0  0  0
 12 38  1  0  0  0  0
 13 14  2  0  0  0  0
 13 39  1  0  0  0  0
 14 15  1  0  0  0  0
 14 40  1  0  0  0  0
 15 16  1  0  0  0  0
 15 23  2  0  0  0  0
 16 17  1  0  0  0  0
 17 18  2  0  0  0  0
 17 22  1  0  0  0  0
 18 19  1  0  0  0  0
 18 41  1  0  0  0  0
 19 20  2  0  0  0  0
 19 42  1  0  0  0  0
 20 21  1  0  0  0  0
 20 43  1  0  0  0  0
 21 22  2  0  0  0  0
 21 44  1  0  0  0  0
 22 45  1  0  0  0  0
 23 46  1  0  0  0  0
 24 25  1  0  0  0  0
 24 26  1  0  0  0  0
 25 47  1  0  0  0  0
 25 48  1  0  0  0  0
 25 49  1  0  0  0  0
 26 50  1  0  0  0  0
 26 51  1  0  0  0  0
 26 52  1  0  0  0  0
M  END
>  <DRUGBANK_ID>
DB13717

>  <COMMON_NAME>
Phenothrin

>  <CAS_NUMBER>
26002-80-2

>  <UNII>
707484X33X

>  <SYNONYMS>
Phenothrin

$$$$
