
 OpenBabel10282417072D

 47 48  0  0  0  0  0  0  0  0999 V2000
   -4.4589   -0.3074    0.0000 O   0  0  0  0  0  0  0  0  0  0  0  0
   -3.7444    0.1050    0.0000 C   0  0  0  0  0  0  0  0  0  0  0  0
   -3.0299   -0.3074    0.0000 C   0  0  0  0  0  0  0  0  0  0  0  0
   -3.0299   -1.1324    0.0000 C   0  0  0  0  0  0  0  0  0  0  0  0
   -3.7444   -1.5449    0.0000 O   0  0  0  0  0  0  0  0  0  0  0  0
   -2.3154    0.1050    0.0000 N   0  0  0  0  0  0  0  0  0  0  0  0
   -1.6010   -0.3074    0.0000 C   0  0  0  0  0  0  0  0  0  0  0  0
   -1.6010   -1.1324    0.0000 O   0  0  0  0  0  0  0  0  0  0  0  0
   -0.8865    0.1050    0.0000 C   0  0  1  0  0  0  0  0  0  0  0  0
   -0.8865    0.9300    0.0000 O   0  0  0  0  0  0  0  0  0  0  0  0
   -0.1720   -0.3074    0.0000 C   0  0  1  0  0  0  0  0  0  0  0  0
   -0.1720   -1.1324    0.0000 O   0  0  0  0  0  0  0  0  0  0  0  0
    0.5423    0.1050    0.0000 C   0  0  1  0  0  0  0  0  0  0  0  0
    0.6286    0.9255    0.0000 C   0  0  2  0  0  0  0  0  0  0  0  0
    0.0155    1.4775    0.0000 C   0  0  0  0  0  0  0  0  0  0  0  0
    1.4355    1.0970    0.0000 O   0  0  0  0  0  0  0  0  0  0  0  0
    1.8480    0.3825    0.0000 C   0  0  0  0  0  0  0  0  0  0  0  0
    1.2960   -0.2305    0.0000 N   0  0  0  0  0  0  0  0  0  0  0  0
    2.6685    0.2963    0.0000 C   0  0  0  0  0  0  0  0  0  0  0  0
    3.1535    0.9637    0.0000 C   0  0  0  0  0  0  0  0  0  0  0  0
    3.9739    0.8775    0.0000 C   0  0  0  0  0  0  0  0  0  0  0  0
    4.4589    1.5449    0.0000 Cl  0  0  0  0  0  0  0  0  0  0  0  0
    4.3095    0.1238    0.0000 C   0  0  0  0  0  0  0  0  0  0  0  0
    3.8246   -0.5435    0.0000 C   0  0  0  0  0  0  0  0  0  0  0  0
    3.0041   -0.4573    0.0000 C   0  0  0  0  0  0  0  0  0  0  0  0
    2.5192   -1.1247    0.0000 O   0  0  0  0  0  0  0  0  0  0  0  0
   -5.2989    0.1777    0.0000 H   0  0  0  0  0  0  0  0  0  0  0  0
   -3.7444    1.1750    0.0000 H   0  0  0  0  0  0  0  0  0  0  0  0
   -2.8178    0.6401    0.0000 H   0  0  0  0  0  0  0  0  0  0  0  0
   -2.1033   -0.8425    0.0000 H   0  0  0  0  0  0  0  0  0  0  0  0
   -2.1033   -1.6674    0.0000 H   0  0  0  0  0  0  0  0  0  0  0  0
   -3.0299   -2.2024    0.0000 H   0  0  0  0  0  0  0  0  0  0  0  0
   -4.5844   -1.0599    0.0000 H   0  0  0  0  0  0  0  0  0  0  0  0
   -2.3154    1.0895    0.0000 H   0  0  0  0  0  0  0  0  0  0  0  0
   -1.8131    0.6401    0.0000 H   0  0  0  0  0  0  0  0  0  0  0  0
   -0.0465    1.4150    0.0000 H   0  0  0  0  0  0  0  0  0  0  0  0
   -1.0986   -0.8425    0.0000 H   0  0  0  0  0  0  0  0  0  0  0  0
   -1.0120   -1.6174    0.0000 H   0  0  0  0  0  0  0  0  0  0  0  0
    0.5983   -0.9635    0.0000 H   0  0  0  0  0  0  0  0  0  0  0  0
   -0.3703    0.5421    0.0000 H   0  0  0  0  0  0  0  0  0  0  0  0
    0.2379    2.5241    0.0000 H   0  0  0  0  0  0  0  0  0  0  0  0
   -1.0021    1.1468    0.0000 H   0  0  0  0  0  0  0  0  0  0  0  0
   -0.7797    2.1934    0.0000 H   0  0  0  0  0  0  0  0  0  0  0  0
    2.7338    1.9065    0.0000 H   0  0  0  0  0  0  0  0  0  0  0  0
    5.3358    0.0159    0.0000 H   0  0  0  0  0  0  0  0  0  0  0  0
    4.2443   -1.4863    0.0000 H   0  0  0  0  0  0  0  0  0  0  0  0
    1.5873   -1.0268    0.0000 H   0  0  0  0  0  0  0  0  0  0  0  0
  1  2  1  0  0  0  0
  1 27  1  0  0  0  0
  2  3  1  0  0  0  0
  2 28  1  0  0  0  0
  2 29  1  0  0  0  0
  3  4  1  0  0  0  0
  3  6  1  0  0  0  0
  3 30  1  0  0  0  0
  4  5  1  0  0  0  0
  4 31  1  0  0  0  0
  4 32  1  0  0  0  0
  5 33  1  0  0  0  0
  6  7  1  0  0  0  0
  6 34  1  0  0  0  0
  7  8  2  0  0  0  0
  9  7  1  0  0  0  0
  9 10  1  0  0  0  0
  9 35  1  6  0  0  0
 10 36  1  0  0  0  0
 11  9  1  0  0  0  0
 11 12  1  0  0  0  0
 11 13  1  0  0  0  0
 11 37  1  1  0  0  0
 12 38  1  0  0  0  0
 13 14  1  0  0  0  0
 13 18  1  0  0  0  0
 13 39  1  6  0  0  0
 14 15  1  0  0  0  0
 14 16  1  0  0  0  0
 14 40  1  1  0  0  0
 15 41  1  0  0  0  0
 15 42  1  0  0  0  0
 15 43  1  0  0  0  0
 16 17  1  0  0  0  0
 17 18  2  0  0  0  0
 17 19  1  0  0  0  0
 19 20  2  0  0  0  0
 19 25  1  0  0  0  0
 20 21  1  0  0  0  0
 20 44  1  0  0  0  0
 21 22  1  0  0  0  0
 21 23  2  0  0  0  0
 23 24  1  0  0  0  0
 23 45  1  0  0  0  0
 24 25  2  0  0  0  0
 24 46  1  0  0  0  0
 25 26  1  0  0  0  0
 26 47  1  0  0  0  0
M  END
>  <DRUGBANK_ID>
DB15552

>  <COMMON_NAME>
Leptazoline B

$$$$
