
 OpenBabel10282417072D

 37 38  0  0  0  0  0  0  0  0999 V2000
   -0.9055   -3.3152    0.0000 Br  0  0  0  0  0  0  0  0  0  0  0  0
    2.0629    1.2222    0.0000 Cl  0  0  0  0  0  0  0  0  0  0  0  0
    1.7609    2.3492    0.0000 Cl  0  0  0  0  0  0  0  0  0  0  0  0
    0.5234    2.4597    0.0000 S   0  0  2  0  0  0  0  0  0  0  0  0
   -0.9055    1.6347    0.0000 O   0  0  0  0  0  0  0  0  0  0  0  0
    0.9359    3.1742    0.0000 O   0  0  0  0  0  0  0  0  0  0  0  0
   -0.1910    0.3972    0.0000 N   0  0  0  0  0  0  0  0  0  0  0  0
    0.5234    1.6347    0.0000 C   0  0  1  0  0  0  0  0  0  0  0  0
    0.9359    0.9203    0.0000 C   0  0  2  0  0  0  0  0  0  0  0  0
    1.3484    1.6347    0.0000 C   0  0  0  0  0  0  0  0  0  0  0  0
    0.9359    0.0953    0.0000 C   0  0  0  0  0  0  0  0  0  0  0  0
   -0.1910    1.2222    0.0000 C   0  0  0  0  0  0  0  0  0  0  0  0
   -0.1910    2.8722    0.0000 C   0  0  0  0  0  0  0  0  0  0  0  0
   -0.9055   -0.0152    0.0000 C   0  0  3  0  0  0  0  0  0  0  0  0
   -0.9055   -0.8402    0.0000 C   0  0  0  0  0  0  0  0  0  0  0  0
   -1.6199    0.3972    0.0000 C   0  0  0  0  0  0  0  0  0  0  0  0
   -0.1910   -1.2527    0.0000 C   0  0  0  0  0  0  0  0  0  0  0  0
   -1.6199   -1.2527    0.0000 C   0  0  0  0  0  0  0  0  0  0  0  0
   -0.1910   -2.0777    0.0000 C   0  0  0  0  0  0  0  0  0  0  0  0
   -1.6199   -2.0777    0.0000 C   0  0  0  0  0  0  0  0  0  0  0  0
   -0.9055   -2.4902    0.0000 C   0  0  0  0  0  0  0  0  0  0  0  0
    0.6616   -0.0951    0.0000 H   0  0  0  0  0  0  0  0  0  0  0  0
   -0.0976    0.6433    0.0000 H   0  0  0  0  0  0  0  0  0  0  0  0
    0.0093   -0.4397    0.0000 H   0  0  0  0  0  0  0  0  0  0  0  0
    1.8625   -0.4397    0.0000 H   0  0  0  0  0  0  0  0  0  0  0  0
    0.9359   -0.9747    0.0000 H   0  0  0  0  0  0  0  0  0  0  0  0
   -0.1910    3.9422    0.0000 H   0  0  0  0  0  0  0  0  0  0  0  0
   -1.1177    2.3372    0.0000 H   0  0  0  0  0  0  0  0  0  0  0  0
   -1.1176    3.4072    0.0000 H   0  0  0  0  0  0  0  0  0  0  0  0
    0.0211   -0.5503    0.0000 H   0  0  0  0  0  0  0  0  0  0  0  0
   -1.6200    1.4672    0.0000 H   0  0  0  0  0  0  0  0  0  0  0  0
   -2.5465   -0.1379    0.0000 H   0  0  0  0  0  0  0  0  0  0  0  0
   -2.5466    0.9321    0.0000 H   0  0  0  0  0  0  0  0  0  0  0  0
    0.7027   -0.7367    0.0000 H   0  0  0  0  0  0  0  0  0  0  0  0
   -2.5136   -0.7367    0.0000 H   0  0  0  0  0  0  0  0  0  0  0  0
    0.7027   -2.5937    0.0000 H   0  0  0  0  0  0  0  0  0  0  0  0
   -2.5136   -2.5937    0.0000 H   0  0  0  0  0  0  0  0  0  0  0  0
  1 21  1  0  0  0  0
  2 10  1  0  0  0  0
  3 10  1  0  0  0  0
  4  6  2  6  0  0  0
  4  8  1  0  0  0  0
  4 13  1  0  0  0  0
  5 12  2  0  0  0  0
  7 12  1  0  0  0  0
  7 22  1  0  0  0  0
  8  9  1  0  0  0  0
  8 10  1  0  0  0  0
  8 12  1  1  0  0  0
  9 10  1  0  0  0  0
  9 11  1  0  0  0  0
  9 23  1  1  0  0  0
 11 24  1  0  0  0  0
 11 25  1  0  0  0  0
 11 26  1  0  0  0  0
 13 27  1  0  0  0  0
 13 28  1  0  0  0  0
 13 29  1  0  0  0  0
 14  7  1  0  0  0  0
 14 15  1  0  0  0  0
 14 16  1  0  0  0  0
 14 30  1  0  0  0  0
 15 17  2  0  0  0  0
 15 18  1  0  0  0  0
 16 31  1  0  0  0  0
 16 32  1  0  0  0  0
 16 33  1  0  0  0  0
 17 19  1  0  0  0  0
 17 34  1  0  0  0  0
 18 20  2  0  0  0  0
 18 35  1  0  0  0  0
 19 21  2  0  0  0  0
 19 36  1  0  0  0  0
 20 21  1  0  0  0  0
 20 37  1  0  0  0  0
M  END
>  <DRUGBANK_ID>
DB04458

>  <SECONDARY_ACCESSION_NUMBERS>
EXPT02234

>  <COMMON_NAME>
2,2-Dichloro-1-methanesulfinyl-3-methyl-cyclopropanecarboxylic acid [1-(4-bromo-phenyl)-ethyl]-amide

$$$$
