
 OpenBabel10282417072D

 66 69  0  0  1  0  0  0  0  0999 V2000
   -8.8681    6.3931    0.0000 C   0  0  0  0  0  0  0  0  0  0  0  0
   -8.0431    6.3931    0.0000 C   0  0  0  0  0  0  0  0  0  0  0  0
   -7.6306    5.6786    0.0000 C   0  0  0  0  0  0  0  0  0  0  0  0
   -8.0431    4.9642    0.0000 C   0  0  0  0  0  0  0  0  0  0  0  0
   -8.8681    4.9642    0.0000 C   0  0  0  0  0  0  0  0  0  0  0  0
   -9.2806    5.6786    0.0000 C   0  0  0  0  0  0  0  0  0  0  0  0
  -10.1056    5.6786    0.0000 C   0  0  0  0  0  0  0  0  0  0  0  0
  -10.5181    6.3931    0.0000 N   0  0  0  0  0  0  0  0  0  0  0  0
  -10.5181    4.9642    0.0000 N   0  0  0  0  0  0  0  0  0  0  0  0
   -7.4911    4.3511    0.0000 N   0  0  0  0  0  0  0  0  0  0  0  0
   -6.7374    4.6866    0.0000 C   0  0  0  0  0  0  0  0  0  0  0  0
   -6.8236    5.5071    0.0000 N   0  0  0  0  0  0  0  0  0  0  0  0
   -6.0229    4.2741    0.0000 C   0  0  0  0  0  0  0  0  0  0  0  0
   -5.3084    4.6866    0.0000 C   0  0  0  0  0  0  0  0  0  0  0  0
   -4.5940    4.2741    0.0000 C   0  0  0  0  0  0  0  0  0  0  0  0
   -4.5940    3.4491    0.0000 C   0  0  0  0  0  0  0  0  0  0  0  0
   -5.3084    3.0366    0.0000 C   0  0  0  0  0  0  0  0  0  0  0  0
   -6.0229    3.4491    0.0000 C   0  0  0  0  0  0  0  0  0  0  0  0
   -6.7374    3.0366    0.0000 O   0  0  0  0  0  0  0  0  0  0  0  0
   -5.3084    2.2116    0.0000 C   0  0  0  0  0  0  0  0  0  0  0  0
   -4.5940    1.7991    0.0000 C   0  0  0  0  0  0  0  0  0  0  0  0
   -4.5940    0.9741    0.0000 C   0  0  0  0  0  0  0  0  0  0  0  0
   -5.3084    0.5616    0.0000 C   0  0  0  0  0  0  0  0  0  0  0  0
   -6.0229    0.9741    0.0000 C   0  0  0  0  0  0  0  0  0  0  0  0
   -6.0229    1.7991    0.0000 C   0  0  0  0  0  0  0  0  0  0  0  0
   -6.7374    2.2116    0.0000 O   0  0  0  0  0  0  0  0  0  0  0  0
   -3.8795    0.5616    0.0000 S   0  0  0  0  0  0  0  0  0  0  0  0
   -3.1650    0.1491    0.0000 O   0  0  0  0  0  0  0  0  0  0  0  0
   -4.2920   -0.1529    0.0000 O   0  0  0  0  0  0  0  0  0  0  0  0
   -3.4670    1.2761    0.0000 N   0  0  0  0  0  0  0  0  0  0  0  0
   -3.8795    4.6866    0.0000 C   0  0  0  0  0  0  0  0  0  0  0  0
   -3.1650    4.2741    0.0000 C   0  0  0  0  0  0  0  0  0  0  0  0
   -3.1650    3.4491    0.0000 O   0  0  0  0  0  0  0  0  0  0  0  0
   -2.4506    4.6866    0.0000 N   0  0  0  0  0  0  0  0  0  0  0  0
   -1.7361    4.2741    0.0000 C   0  0  1  0  0  0  0  0  0  0  0  0
   -1.0216    4.6866    0.0000 C   0  0  0  0  0  0  0  0  0  0  0  0
   -0.3072    4.2741    0.0000 C   0  0  0  0  0  0  0  0  0  0  0  0
    0.4073    4.6866    0.0000 O   0  0  0  0  0  0  0  0  0  0  0  0
   -0.3072    3.4491    0.0000 O   0  0  0  0  0  0  0  0  0  0  0  0
   -1.7361    3.4491    0.0000 C   0  0  0  0  0  0  0  0  0  0  0  0
   -1.0216    3.0366    0.0000 O   0  0  0  0  0  0  0  0  0  0  0  0
   -2.4506    3.0366    0.0000 O   0  0  0  0  0  0  0  0  0  0  0  0
   -9.3841    7.2868    0.0000 H   0  0  0  0  0  0  0  0  0  0  0  0
   -7.5271    7.2868    0.0000 H   0  0  0  0  0  0  0  0  0  0  0  0
   -9.3841    4.0705    0.0000 H   0  0  0  0  0  0  0  0  0  0  0  0
  -10.0258    7.2457    0.0000 H   0  0  0  0  0  0  0  0  0  0  0  0
  -11.5026    4.9642    0.0000 H   0  0  0  0  0  0  0  0  0  0  0  0
  -10.0259    4.1116    0.0000 H   0  0  0  0  0  0  0  0  0  0  0  0
   -7.6958    3.3881    0.0000 H   0  0  0  0  0  0  0  0  0  0  0  0
   -5.3084    5.7186    0.0000 H   0  0  0  0  0  0  0  0  0  0  0  0
   -3.7003    2.9331    0.0000 H   0  0  0  0  0  0  0  0  0  0  0  0
   -7.5489    3.5051    0.0000 H   0  0  0  0  0  0  0  0  0  0  0  0
   -3.7003    2.3151    0.0000 H   0  0  0  0  0  0  0  0  0  0  0  0
   -5.3084   -0.4704    0.0000 H   0  0  0  0  0  0  0  0  0  0  0  0
   -6.9166    0.4581    0.0000 H   0  0  0  0  0  0  0  0  0  0  0  0
   -6.7374    3.1486    0.0000 H   0  0  0  0  0  0  0  0  0  0  0  0
   -2.4470    1.2761    0.0000 H   0  0  0  0  0  0  0  0  0  0  0  0
   -3.9770    2.1594    0.0000 H   0  0  0  0  0  0  0  0  0  0  0  0
   -3.8795    5.7566    0.0000 H   0  0  0  0  0  0  0  0  0  0  0  0
   -2.9529    5.2216    0.0000 H   0  0  0  0  0  0  0  0  0  0  0  0
   -2.4506    5.6711    0.0000 H   0  0  0  0  0  0  0  0  0  0  0  0
   -1.7361    5.3441    0.0000 H   0  0  0  0  0  0  0  0  0  0  0  0
   -1.0216    5.7566    0.0000 H   0  0  0  0  0  0  0  0  0  0  0  0
   -0.0949    5.2216    0.0000 H   0  0  0  0  0  0  0  0  0  0  0  0
   -1.1187    2.9806    0.0000 H   0  0  0  0  0  0  0  0  0  0  0  0
   -3.2621    3.5051    0.0000 H   0  0  0  0  0  0  0  0  0  0  0  0
  1  2  1  0  0  0  0
  1  6  2  0  0  0  0
  1 43  1  0  0  0  0
  2  3  2  0  0  0  0
  2 44  1  0  0  0  0
  3  4  1  0  0  0  0
  3 12  1  0  0  0  0
  4  5  2  0  0  0  0
  4 10  1  0  0  0  0
  5  6  1  0  0  0  0
  5 45  1  0  0  0  0
  6  7  1  0  0  0  0
  7  8  2  0  0  0  0
  7  9  1  0  0  0  0
  8 46  1  0  0  0  0
  9 47  1  0  0  0  0
  9 48  1  0  0  0  0
 10 11  1  0  0  0  0
 10 49  1  0  0  0  0
 11 12  2  0  0  0  0
 11 13  1  0  0  0  0
 13 14  2  0  0  0  0
 13 18  1  0  0  0  0
 14 15  1  0  0  0  0
 14 50  1  0  0  0  0
 15 16  2  0  0  0  0
 15 31  1  0  0  0  0
 16 17  1  0  0  0  0
 16 51  1  0  0  0  0
 17 18  2  0  0  0  0
 17 20  1  0  0  0  0
 18 19  1  0  0  0  0
 19 52  1  0  0  0  0
 20 21  2  0  0  0  0
 20 25  1  0  0  0  0
 21 22  1  0  0  0  0
 21 53  1  0  0  0  0
 22 23  2  0  0  0  0
 22 27  1  0  0  0  0
 23 24  1  0  0  0  0
 23 54  1  0  0  0  0
 24 25  2  0  0  0  0
 24 55  1  0  0  0  0
 25 26  1  0  0  0  0
 26 56  1  0  0  0  0
 27 28  2  0  0  0  0
 27 29  2  0  0  0  0
 27 30  1  0  0  0  0
 30 57  1  0  0  0  0
 30 58  1  0  0  0  0
 31 32  1  0  0  0  0
 31 59  1  0  0  0  0
 31 60  1  0  0  0  0
 32 33  2  0  0  0  0
 32 34  1  0  0  0  0
 34 61  1  0  0  0  0
 35 34  1  0  0  0  0
 35 36  1  0  0  0  0
 35 40  1  0  0  0  0
 35 62  1  6  0  0  0
 36 37  1  0  0  0  0
 36 63  1  0  0  0  0
 36 64  1  0  0  0  0
 37 38  2  0  0  0  0
 37 39  1  0  0  0  0
 39 65  1  0  0  0  0
 40 41  2  0  0  0  0
 40 42  1  0  0  0  0
 42 66  1  0  0  0  0
M  END
>  <DRUGBANK_ID>
DB13000

>  <COMMON_NAME>
PCI-27483

>  <CAS_NUMBER>
871266-63-6

>  <UNII>
6073LCU8U9

$$$$
