
 OpenBabel10282417072D

 78 82  0  0  1  0  0  0  0  0999 V2000
    1.2184   -4.3069    0.0000 C   0  0  0  0  0  0  0  0  0  0  0  0
    1.8985   -5.2548    0.0000 C   0  0  0  0  0  0  0  0  0  0  0  0
    1.6504   -2.6739    0.0000 C   0  0  0  0  0  0  0  0  0  0  0  0
    5.8117   -4.3385    0.0000 C   0  0  0  0  0  0  0  0  0  0  0  0
    3.3695   -3.9367    0.0000 C   0  0  0  0  0  0  0  0  0  0  0  0
    1.5094   -0.4307    0.0000 C   0  0  0  0  0  0  0  0  0  0  0  0
    3.8861    1.0846    0.0000 C   0  0  0  0  0  0  0  0  0  0  0  0
    2.8465   -4.5747    0.0000 C   0  0  0  0  0  0  0  0  0  0  0  0
    2.0536   -0.9204    0.0000 C   0  0  0  0  0  0  0  0  0  0  0  0
    4.1835   -4.0706    0.0000 C   0  0  0  0  0  0  0  0  0  0  0  0
    1.7748    0.3504    0.0000 C   0  0  0  0  0  0  0  0  0  0  0  0
    3.0635    1.0217    0.0000 C   0  0  0  0  0  0  0  0  0  0  0  0
    5.2156    0.7832    0.0000 C   0  0  0  0  0  0  0  0  0  0  0  0
    4.9722   -0.8488    0.0000 C   0  0  0  0  0  0  0  0  0  0  0  0
    2.3211   -1.0867    0.0000 C   0  0  0  0  0  0  0  0  0  0  0  0
    5.2296   -2.7946    0.0000 C   0  0  0  0  0  0  0  0  0  0  0  0
    7.0562   -0.3255    0.0000 C   0  0  0  0  0  0  0  0  0  0  0  0
    4.4481    0.4806    0.0000 C   0  0  0  0  0  0  0  0  0  0  0  0
    4.3264   -0.3353    0.0000 C   0  0  0  0  0  0  0  0  0  0  0  0
    5.8614    0.2698    0.0000 C   0  0  0  0  0  0  0  0  0  0  0  0
    5.7397   -0.5462    0.0000 C   0  0  0  0  0  0  0  0  0  0  0  0
    2.7663   -1.7813    0.0000 C   0  0  0  0  0  0  0  0  0  0  0  0
    6.0436   -2.9285    0.0000 C   0  0  0  0  0  0  0  0  0  0  0  0
    3.6125   -0.7489    0.0000 C   0  0  2  0  0  0  0  0  0  0  0  0
    3.5644   -1.5725    0.0000 C   0  0  2  0  0  0  0  0  0  0  0  0
    4.0685   -2.9096    0.0000 C   0  0  0  0  0  0  0  0  0  0  0  0
    2.0324   -4.4408    0.0000 C   0  0  0  0  0  0  0  0  0  0  0  0
    2.8441   -0.4487    0.0000 C   0  0  2  0  0  0  0  0  0  0  0  0
    4.7066   -3.4326    0.0000 C   0  0  1  0  0  0  0  0  0  0  0  0
    2.5998    0.3393    0.0000 N   0  0  3  0  0  0  0  0  0  0  0  0
    6.5666   -2.2905    0.0000 O   0  0  0  0  0  0  0  0  0  0  0  0
    3.2966   -3.2006    0.0000 O   0  0  0  0  0  0  0  0  0  0  0  0
    2.1663   -3.6267    0.0000 O   0  0  0  0  0  0  0  0  0  0  0  0
    5.3446   -3.9556    0.0000 O   0  0  0  0  0  0  0  0  0  0  0  0
    2.4660   -2.5497    0.0000 O   0  0  0  0  0  0  0  0  0  0  0  0
    6.3347   -3.7005    0.0000 O   0  0  0  0  0  0  0  0  0  0  0  0
    6.6751    0.4061    0.0000 O   0  0  0  0  0  0  0  0  0  0  0  0
    6.4781   -0.9141    0.0000 O   0  0  0  0  0  0  0  0  0  0  0  0
    4.2025   -2.0955    0.0000 O   0  0  0  0  0  0  0  0  0  0  0  0
    4.3150   -1.1815    0.0000 H   0  0  0  0  0  0  0  0  0  0  0  0
    3.3881   -2.3784    0.0000 H   0  0  0  0  0  0  0  0  0  0  0  0
    0.8409   -3.3057    0.0000 H   0  0  0  0  0  0  0  0  0  0  0  0
    0.5401   -5.1344    0.0000 H   0  0  0  0  0  0  0  0  0  0  0  0
    0.1626   -4.1332    0.0000 H   0  0  0  0  0  0  0  0  0  0  0  0
    0.8973   -5.6323    0.0000 H   0  0  0  0  0  0  0  0  0  0  0  0
    2.7260   -5.9331    0.0000 H   0  0  0  0  0  0  0  0  0  0  0  0
    1.7248   -6.3106    0.0000 H   0  0  0  0  0  0  0  0  0  0  0  0
    0.9820   -1.8384    0.0000 H   0  0  0  0  0  0  0  0  0  0  0  0
    1.2610   -3.6705    0.0000 H   0  0  0  0  0  0  0  0  0  0  0  0
    0.5926   -2.8350    0.0000 H   0  0  0  0  0  0  0  0  0  0  0  0
    4.7559   -4.1648    0.0000 H   0  0  0  0  0  0  0  0  0  0  0  0
    6.1892   -5.3397    0.0000 H   0  0  0  0  0  0  0  0  0  0  0  0
    5.1334   -5.1660    0.0000 H   0  0  0  0  0  0  0  0  0  0  0  0
    2.9920   -2.9355    0.0000 H   0  0  0  0  0  0  0  0  0  0  0  0
    4.0478   -3.1092    0.0000 H   0  0  0  0  0  0  0  0  0  0  0  0
    0.4741   -0.7009    0.0000 H   0  0  0  0  0  0  0  0  0  0  0  0
    0.7806    0.3527    0.0000 H   0  0  0  0  0  0  0  0  0  0  0  0
    4.2756    2.0812    0.0000 H   0  0  0  0  0  0  0  0  0  0  0  0
    4.9372    1.2850    0.0000 H   0  0  0  0  0  0  0  0  0  0  0  0
    3.2240   -5.5759    0.0000 H   0  0  0  0  0  0  0  0  0  0  0  0
    2.1682   -5.4022    0.0000 H   0  0  0  0  0  0  0  0  0  0  0  0
    1.9496   -1.9853    0.0000 H   0  0  0  0  0  0  0  0  0  0  0  0
    2.9573   -1.4934    0.0000 H   0  0  0  0  0  0  0  0  0  0  0  0
    4.5609   -5.0718    0.0000 H   0  0  0  0  0  0  0  0  0  0  0  0
    5.2393   -4.2444    0.0000 H   0  0  0  0  0  0  0  0  0  0  0  0
    1.1575    1.2244    0.0000 H   0  0  0  0  0  0  0  0  0  0  0  0
    2.2733    1.2972    0.0000 H   0  0  0  0  0  0  0  0  0  0  0  0
    2.5271    1.9475    0.0000 H   0  0  0  0  0  0  0  0  0  0  0  0
    1.9942    1.0601    0.0000 H   0  0  0  0  0  0  0  0  0  0  0  0
    5.3678    1.8039    0.0000 H   0  0  0  0  0  0  0  0  0  0  0  0
    4.8199   -1.8695    0.0000 H   0  0  0  0  0  0  0  0  0  0  0  0
    1.2909   -1.0265    0.0000 H   0  0  0  0  0  0  0  0  0  0  0  0
    4.8521   -1.7934    0.0000 H   0  0  0  0  0  0  0  0  0  0  0  0
    4.1738   -2.6209    0.0000 H   0  0  0  0  0  0  0  0  0  0  0  0
    8.1145   -0.4834    0.0000 H   0  0  0  0  0  0  0  0  0  0  0  0
    7.3960   -1.3401    0.0000 H   0  0  0  0  0  0  0  0  0  0  0  0
    3.0739   -3.2845    0.0000 H   0  0  0  0  0  0  0  0  0  0  0  0
    5.1871   -4.9127    0.0000 H   0  0  0  0  0  0  0  0  0  0  0  0
  1 42  1  0  0  0  0
  1 43  1  0  0  0  0
  1 44  1  0  0  0  0
  2 45  1  0  0  0  0
  2 46  1  0  0  0  0
  2 47  1  0  0  0  0
  3 48  1  0  0  0  0
  3 49  1  0  0  0  0
  3 50  1  0  0  0  0
  4 51  1  0  0  0  0
  4 52  1  0  0  0  0
  4 53  1  0  0  0  0
  5 54  1  0  0  0  0
  5 55  1  0  0  0  0
  6 56  1  0  0  0  0
  6 57  1  0  0  0  0
  7 58  1  0  0  0  0
  7 59  1  0  0  0  0
  8  5  1  0  0  0  0
  8 60  1  0  0  0  0
  8 61  1  0  0  0  0
  9  6  1  0  0  0  0
  9 62  1  0  0  0  0
  9 63  1  0  0  0  0
 10  5  1  0  0  0  0
 10 64  1  0  0  0  0
 10 65  1  0  0  0  0
 11  6  1  0  0  0  0
 11 66  1  0  0  0  0
 11 67  1  0  0  0  0
 12  7  1  0  0  0  0
 12 68  1  0  0  0  0
 12 69  1  0  0  0  0
 13 70  1  0  0  0  0
 14 71  1  0  0  0  0
 15 72  1  0  0  0  0
 16 73  1  0  0  0  0
 16 74  1  0  0  0  0
 17 75  1  0  0  0  0
 17 76  1  0  0  0  0
 18  7  1  0  0  0  0
 18 13  2  0  0  0  0
 19 14  2  0  0  0  0
 19 18  1  0  0  0  0
 20 13  1  0  0  0  0
 21 14  1  0  0  0  0
 21 20  2  0  0  0  0
 22 15  2  0  0  0  0
 23 16  1  0  0  0  0
 24 19  1  0  0  0  0
 24 40  1  1  0  0  0
 25 22  1  0  0  0  0
 25 24  1  0  0  0  0
 25 39  1  0  0  0  0
 25 41  1  1  0  0  0
 27  1  1  0  0  0  0
 27  2  1  0  0  0  0
 27  8  1  0  0  0  0
 28  9  1  0  0  0  0
 28 15  1  6  0  0  0
 28 24  1  0  0  0  0
 28 30  1  0  0  0  0
 29 10  1  0  0  0  0
 29 16  1  0  0  0  0
 29 26  1  1  0  0  0
 29 34  1  0  0  0  0
 30 11  1  0  0  0  0
 30 12  1  0  0  0  0
 31 23  2  0  0  0  0
 32 26  2  0  0  0  0
 33 27  1  0  0  0  0
 33 77  1  0  0  0  0
 34 78  1  0  0  0  0
 35  3  1  0  0  0  0
 35 22  1  0  0  0  0
 36  4  1  0  0  0  0
 36 23  1  0  0  0  0
 37 17  1  0  0  0  0
 37 20  1  0  0  0  0
 38 17  1  0  0  0  0
 38 21  1  0  0  0  0
 39 26  1  0  0  0  0
M  END
>  <DRUGBANK_ID>
DB04865

>  <COMMON_NAME>
Omacetaxine mepesuccinate

>  <CAS_NUMBER>
26833-87-4

>  <UNII>
6FG8041S5B

>  <SYNONYMS>
(−)-homoharringtonine; (2'R,3S,4S,5R)-(−)-homoharringtonine; 1-[(1S,3aR,14bS)-2-Methoxy-1,5,6,8,9,14b-hexahydro-4H-cyclopenta[a][1,3]dioxolo[4,5-H]pyrrolo[2,1-b][3]benzazepin-1-yl] 4-methyl (2R)-2-hydroxy-2-(4-hydroxy-4-methylpentyl)butanedioate; CEPHALOTAXINE 4-METHYL (2R)-2-HYDROXY-2-(4-HYDROXY-4-METHYLPENTYL)BUTANEDIOATE (ESTER); CEPHALOTAXINE, 4-METHYL (2R)-2-HYDROXY-2-(4-HYDROXY-4-METHYLPENTYL)BUTANEDIOATE (ESTER); HHT; Homoharringtonin; Homoharringtonine; mepesuccinato de omacetaxina; Omacetaxine mepesuccinate

$$$$
