
 OpenBabel10282417072D

101103  0  0  1  0  0  0  0  0999 V2000
    8.0009  -12.1275    0.0000 S   0  0  0  0  0  0  0  0  0  0  0  0
    8.7154  -11.7150    0.0000 C   0  0  0  0  0  0  0  0  0  0  0  0
    9.4299  -12.1275    0.0000 C   0  0  0  0  0  0  0  0  0  0  0  0
   10.1443  -11.7150    0.0000 N   0  0  0  0  0  0  0  0  0  0  0  0
   10.8588  -12.1275    0.0000 C   0  0  0  0  0  0  0  0  0  0  0  0
   11.5733  -11.7150    0.0000 C   0  0  0  0  0  0  0  0  0  0  0  0
   12.2877  -12.1275    0.0000 C   0  0  0  0  0  0  0  0  0  0  0  0
   13.0022  -11.7150    0.0000 N   0  0  0  0  0  0  0  0  0  0  0  0
   13.7167  -12.1275    0.0000 C   0  0  0  0  0  0  0  0  0  0  0  0
   14.4311  -11.7150    0.0000 C   0  0  1  0  0  0  0  0  0  0  0  0
   15.1456  -12.1275    0.0000 C   0  0  0  0  0  0  0  0  0  0  0  0
   15.8601  -11.7150    0.0000 C   0  0  0  0  0  0  0  0  0  0  0  0
   16.5745  -12.1275    0.0000 O   0  0  0  0  0  0  0  0  0  0  0  0
   10.8588  -12.9524    0.0000 O   0  0  0  0  0  0  0  0  0  0  0  0
   13.7167  -12.9523    0.0000 O   0  0  0  0  0  0  0  0  0  0  0  0
   14.4311  -10.8900    0.0000 O   0  0  0  0  0  0  0  0  0  0  0  0
   15.1456  -11.3025    0.0000 C   0  0  0  0  0  0  0  0  0  0  0  0
   15.1456  -12.9525    0.0000 C   0  0  0  0  0  0  0  0  0  0  0  0
   17.3995  -12.1275    0.0000 P   0  0  3  0  0  0  0  0  0  0  0  0
   18.2245  -12.1275    0.0000 O   0  0  0  0  0  0  0  0  0  0  0  0
   17.3995  -12.9525    0.0000 O   0  0  0  0  0  0  0  0  0  0  0  0
   13.5713   -9.1988    0.0000 C   0  0  2  0  0  0  0  0  0  0  0  0
   14.3963   -9.1988    0.0000 C   0  0  1  0  0  0  0  0  0  0  0  0
   14.6512   -8.4141    0.0000 C   0  0  2  0  0  0  0  0  0  0  0  0
   13.9838   -7.9292    0.0000 O   0  0  0  0  0  0  0  0  0  0  0  0
   13.3163   -8.4141    0.0000 C   0  0  1  0  0  0  0  0  0  0  0  0
   15.4288   -8.1614    0.0000 C   0  0  0  0  0  0  0  0  0  0  0  0
   13.0863   -9.8662    0.0000 O   0  0  0  0  0  0  0  0  0  0  0  0
   14.8812   -9.8662    0.0000 O   0  0  0  0  0  0  0  0  0  0  0  0
   15.7062   -9.8662    0.0000 P   0  0  0  0  0  0  0  0  0  0  0  0
   15.7062   -9.0412    0.0000 O   0  0  0  0  0  0  0  0  0  0  0  0
   16.5312   -9.8662    0.0000 O   0  0  0  0  0  0  0  0  0  0  0  0
   15.7062  -10.6912    0.0000 O   0  0  0  0  0  0  0  0  0  0  0  0
   10.8900   -7.3425    0.0000 C   0  0  0  0  0  0  0  0  0  0  0  0
   10.8900   -8.1675    0.0000 C   0  0  0  0  0  0  0  0  0  0  0  0
   12.3190   -8.1675    0.0000 N   0  0  0  0  0  0  0  0  0  0  0  0
   12.3190   -7.3425    0.0000 C   0  0  0  0  0  0  0  0  0  0  0  0
   11.6045   -6.9300    0.0000 N   0  0  0  0  0  0  0  0  0  0  0  0
   10.1756   -6.9300    0.0000 C   0  0  0  0  0  0  0  0  0  0  0  0
    9.4610   -7.3425    0.0000 N   0  0  0  0  0  0  0  0  0  0  0  0
    9.4610   -8.1675    0.0000 C   0  0  0  0  0  0  0  0  0  0  0  0
   10.1756   -8.5800    0.0000 N   0  0  0  0  0  0  0  0  0  0  0  0
   10.1756   -6.1051    0.0000 N   0  0  0  0  0  0  0  0  0  0  0  0
   16.5969   -8.4162    0.0000 O   0  0  0  0  0  0  0  0  0  0  0  0
   17.4219   -8.4162    0.0000 P   0  0  3  0  0  0  0  0  0  0  0  0
   17.4219   -7.5912    0.0000 O   0  0  0  0  0  0  0  0  0  0  0  0
   18.2469   -8.4162    0.0000 O   0  0  0  0  0  0  0  0  0  0  0  0
   17.4219  -10.3137    0.0000 O   0  0  0  0  0  0  0  0  0  0  0  0
    7.2881  -11.7150    0.0000 C   0  0  0  0  0  0  0  0  0  0  0  0
    6.5735  -12.1275    0.0000 C   0  0  0  0  0  0  0  0  0  0  0  0
    5.8591  -11.7150    0.0000 C   0  0  0  0  0  0  0  0  0  0  0  0
    5.1446  -12.1275    0.0000 C   0  0  0  0  0  0  0  0  0  0  0  0
    4.4301  -11.7150    0.0000 C   0  0  0  0  0  0  0  0  0  0  0  0
    3.7157  -12.1275    0.0000 C   0  0  0  0  0  0  0  0  0  0  0  0
    7.2884  -10.8901    0.0000 O   0  0  0  0  0  0  0  0  0  0  0  0
    8.7154  -10.6450    0.0000 H   0  0  0  0  0  0  0  0  0  0  0  0
    9.6420  -11.1800    0.0000 H   0  0  0  0  0  0  0  0  0  0  0  0
    9.4299  -13.1975    0.0000 H   0  0  0  0  0  0  0  0  0  0  0  0
   10.3566  -12.6625    0.0000 H   0  0  0  0  0  0  0  0  0  0  0  0
   10.1443  -10.7305    0.0000 H   0  0  0  0  0  0  0  0  0  0  0  0
   11.5733  -10.6450    0.0000 H   0  0  0  0  0  0  0  0  0  0  0  0
   12.5000  -11.1800    0.0000 H   0  0  0  0  0  0  0  0  0  0  0  0
   12.2877  -13.1975    0.0000 H   0  0  0  0  0  0  0  0  0  0  0  0
   13.2143  -12.6625    0.0000 H   0  0  0  0  0  0  0  0  0  0  0  0
   13.0022  -10.7305    0.0000 H   0  0  0  0  0  0  0  0  0  0  0  0
   13.5044  -11.1800    0.0000 H   0  0  0  0  0  0  0  0  0  0  0  0
   15.8601  -10.6450    0.0000 H   0  0  0  0  0  0  0  0  0  0  0  0
   16.7868  -11.1800    0.0000 H   0  0  0  0  0  0  0  0  0  0  0  0
   15.2711  -10.4050    0.0000 H   0  0  0  0  0  0  0  0  0  0  0  0
   16.0722  -10.7675    0.0000 H   0  0  0  0  0  0  0  0  0  0  0  0
   14.2190  -10.7675    0.0000 H   0  0  0  0  0  0  0  0  0  0  0  0
   15.1456  -10.2325    0.0000 H   0  0  0  0  0  0  0  0  0  0  0  0
   14.2190  -13.4875    0.0000 H   0  0  0  0  0  0  0  0  0  0  0  0
   16.0722  -13.4875    0.0000 H   0  0  0  0  0  0  0  0  0  0  0  0
   15.1456  -14.0225    0.0000 H   0  0  0  0  0  0  0  0  0  0  0  0
   16.5595  -13.4375    0.0000 H   0  0  0  0  0  0  0  0  0  0  0  0
   14.0570  -10.1522    0.0000 H   0  0  0  0  0  0  0  0  0  0  0  0
   13.9105  -10.1522    0.0000 H   0  0  0  0  0  0  0  0  0  0  0  0
   15.4079   -9.1707    0.0000 H   0  0  0  0  0  0  0  0  0  0  0  0
   13.1111   -7.3640    0.0000 H   0  0  0  0  0  0  0  0  0  0  0  0
   15.3756   -7.0927    0.0000 H   0  0  0  0  0  0  0  0  0  0  0  0
   16.2452   -7.4697    0.0000 H   0  0  0  0  0  0  0  0  0  0  0  0
   12.1216   -9.7647    0.0000 H   0  0  0  0  0  0  0  0  0  0  0  0
   16.5462   -8.5562    0.0000 H   0  0  0  0  0  0  0  0  0  0  0  0
   17.0162  -10.7062    0.0000 H   0  0  0  0  0  0  0  0  0  0  0  0
   13.2127   -6.8265    0.0000 H   0  0  0  0  0  0  0  0  0  0  0  0
    8.5673   -8.6835    0.0000 H   0  0  0  0  0  0  0  0  0  0  0  0
   11.0282   -5.6128    0.0000 H   0  0  0  0  0  0  0  0  0  0  0  0
    9.3230   -5.6128    0.0000 H   0  0  0  0  0  0  0  0  0  0  0  0
   18.2619   -7.1062    0.0000 H   0  0  0  0  0  0  0  0  0  0  0  0
    6.5734  -13.1975    0.0000 H   0  0  0  0  0  0  0  0  0  0  0  0
    5.6468  -12.6625    0.0000 H   0  0  0  0  0  0  0  0  0  0  0  0
    5.8591  -10.6450    0.0000 H   0  0  0  0  0  0  0  0  0  0  0  0
    4.9325  -11.1800    0.0000 H   0  0  0  0  0  0  0  0  0  0  0  0
    5.1446  -13.1975    0.0000 H   0  0  0  0  0  0  0  0  0  0  0  0
    4.2180  -12.6625    0.0000 H   0  0  0  0  0  0  0  0  0  0  0  0
    4.4301  -10.6450    0.0000 H   0  0  0  0  0  0  0  0  0  0  0  0
    3.5034  -11.1800    0.0000 H   0  0  0  0  0  0  0  0  0  0  0  0
    2.7890  -11.5925    0.0000 H   0  0  0  0  0  0  0  0  0  0  0  0
    3.7157  -13.1975    0.0000 H   0  0  0  0  0  0  0  0  0  0  0  0
    2.7891  -12.6625    0.0000 H   0  0  0  0  0  0  0  0  0  0  0  0
  1  2  1  0  0  0  0
  1 49  1  0  0  0  0
  2  3  1  0  0  0  0
  2 56  1  0  0  0  0
  2 57  1  0  0  0  0
  3  4  1  0  0  0  0
  3 58  1  0  0  0  0
  3 59  1  0  0  0  0
  4  5  1  0  0  0  0
  4 60  1  0  0  0  0
  5  6  1  0  0  0  0
  5 14  2  0  0  0  0
  6  7  1  0  0  0  0
  6 61  1  0  0  0  0
  6 62  1  0  0  0  0
  7  8  1  0  0  0  0
  7 63  1  0  0  0  0
  7 64  1  0  0  0  0
  8  9  1  0  0  0  0
  8 65  1  0  0  0  0
  9 10  1  0  0  0  0
  9 15  2  0  0  0  0
 10 11  1  0  0  0  0
 10 16  1  0  0  0  0
 10 66  1  1  0  0  0
 11 12  1  0  0  0  0
 11 17  1  0  0  0  0
 11 18  1  0  0  0  0
 12 13  1  0  0  0  0
 12 67  1  0  0  0  0
 12 68  1  0  0  0  0
 13 19  1  0  0  0  0
 16 69  1  0  0  0  0
 17 70  1  0  0  0  0
 17 71  1  0  0  0  0
 17 72  1  0  0  0  0
 18 73  1  0  0  0  0
 18 74  1  0  0  0  0
 18 75  1  0  0  0  0
 19 20  2  0  0  0  0
 19 21  1  0  0  0  0
 19 48  1  0  0  0  0
 21 76  1  0  0  0  0
 22 23  1  0  0  0  0
 22 26  1  0  0  0  0
 22 28  1  0  0  0  0
 22 77  1  6  0  0  0
 23 24  1  0  0  0  0
 23 29  1  0  0  0  0
 23 78  1  6  0  0  0
 24 25  1  0  0  0  0
 24 27  1  0  0  0  0
 24 79  1  1  0  0  0
 25 26  1  0  0  0  0
 26 36  1  0  0  0  0
 26 80  1  1  0  0  0
 27 44  1  0  0  0  0
 27 81  1  0  0  0  0
 27 82  1  0  0  0  0
 28 83  1  0  0  0  0
 29 30  1  0  0  0  0
 30 31  1  0  0  0  0
 30 32  1  0  0  0  0
 30 33  2  0  0  0  0
 31 84  1  0  0  0  0
 32 85  1  0  0  0  0
 34 35  2  0  0  0  0
 34 38  1  0  0  0  0
 34 39  1  0  0  0  0
 35 36  1  0  0  0  0
 35 42  1  0  0  0  0
 36 37  1  0  0  0  0
 37 38  2  0  0  0  0
 37 86  1  0  0  0  0
 39 40  2  0  0  0  0
 39 43  1  0  0  0  0
 40 41  1  0  0  0  0
 41 42  2  0  0  0  0
 41 87  1  0  0  0  0
 43 88  1  0  0  0  0
 43 89  1  0  0  0  0
 44 45  1  0  0  0  0
 45 46  1  0  0  0  0
 45 47  2  0  0  0  0
 45 48  1  0  0  0  0
 46 90  1  0  0  0  0
 49 50  1  0  0  0  0
 49 55  2  0  0  0  0
 50 51  1  0  0  0  0
 50 91  1  0  0  0  0
 50 92  1  0  0  0  0
 51 52  1  0  0  0  0
 51 93  1  0  0  0  0
 51 94  1  0  0  0  0
 52 53  1  0  0  0  0
 52 95  1  0  0  0  0
 52 96  1  0  0  0  0
 53 54  1  0  0  0  0
 53 97  1  0  0  0  0
 53 98  1  0  0  0  0
 54 99  1  0  0  0  0
 54100  1  0  0  0  0
 54101  1  0  0  0  0
M  END
>  <DRUGBANK_ID>
DB02563

>  <SECONDARY_ACCESSION_NUMBERS>
EXPT01799

>  <COMMON_NAME>
Hexanoyl-CoA

>  <CAS_NUMBER>
5060-32-2

>  <SYNONYMS>
caproyl-CoA; caproyl-coenzyme A; Hexanoyl-Coenzyme A; n-hexanoyl-CoA; n-hexanoyl-coenzyme A; S-hexanoyl-CoA; S-Hexanoyl-coenzym-A; S-hexanoyl-coenzyme-A

$$$$
