
 OpenBabel10282417072D

 20 19  0  0  0  0  0  0  0  0999 V2000
   -1.7862    0.2063    0.0000 C   0  0  0  0  0  0  0  0  0  0  0  0
   -1.0717   -0.2061    0.0000 C   0  0  0  0  0  0  0  0  0  0  0  0
   -1.4843   -0.9207    0.0000 F   0  0  0  0  0  0  0  0  0  0  0  0
   -0.6592   -0.9207    0.0000 F   0  0  0  0  0  0  0  0  0  0  0  0
    0.3572   -0.2061    0.0000 C   0  0  0  0  0  0  0  0  0  0  0  0
   -0.0552   -0.9207    0.0000 F   0  0  0  0  0  0  0  0  0  0  0  0
    0.7697   -0.9207    0.0000 F   0  0  0  0  0  0  0  0  0  0  0  0
    1.7861   -0.2062    0.0000 C   0  0  0  0  0  0  0  0  0  0  0  0
    2.5007    0.2062    0.0000 F   0  0  0  0  0  0  0  0  0  0  0  0
    1.0717    0.2063    0.0000 C   0  0  0  0  0  0  0  0  0  0  0  0
    0.6593    0.9208    0.0000 F   0  0  0  0  0  0  0  0  0  0  0  0
    1.4843    0.9208    0.0000 F   0  0  0  0  0  0  0  0  0  0  0  0
   -0.3572    0.2063    0.0000 C   0  0  0  0  0  0  0  0  0  0  0  0
   -0.7698    0.9208    0.0000 F   0  0  0  0  0  0  0  0  0  0  0  0
    0.0552    0.9208    0.0000 F   0  0  0  0  0  0  0  0  0  0  0  0
   -1.7862    1.0313    0.0000 F   0  0  0  0  0  0  0  0  0  0  0  0
   -2.5007   -0.2061    0.0000 F   0  0  0  0  0  0  0  0  0  0  0  0
   -2.5007    0.6189    0.0000 F   0  0  0  0  0  0  0  0  0  0  0  0
    1.7861   -1.0313    0.0000 F   0  0  0  0  0  0  0  0  0  0  0  0
    2.5007   -0.6188    0.0000 F   0  0  0  0  0  0  0  0  0  0  0  0
  1 16  1  0  0  0  0
  1 17  1  0  0  0  0
  1 18  1  0  0  0  0
  2  1  1  0  0  0  0
  2  3  1  0  0  0  0
  4  2  1  0  0  0  0
  5 13  1  0  0  0  0
  5  6  1  0  0  0  0
  7  5  1  0  0  0  0
  8 10  1  0  0  0  0
  8 19  1  0  0  0  0
  8 20  1  0  0  0  0
  9  8  1  0  0  0  0
 10  5  1  0  0  0  0
 10 11  1  0  0  0  0
 12 10  1  0  0  0  0
 13  2  1  0  0  0  0
 13 14  1  0  0  0  0
 15 13  1  0  0  0  0
M  END
>  <DRUGBANK_ID>
DB09531

>  <COMMON_NAME>
Perflexane

>  <CAS_NUMBER>
355-42-0

>  <UNII>
FX3WJ41CMX

>  <SYNONYMS>
1,1,1,2,2,3,3,4,4,5,5,6,6,6-tetradecafluorohexane; n-perfluorohexane; n-tetradecafluorohexane; Perflexane; Perfluorohexane

$$$$
