
 OpenBabel10282417072D

 37 37  0  0  1  0  0  0  0  0999 V2000
    1.2352    0.6294    0.0000 C   0  0  0  0  0  0  0  0  0  0  0  0
    0.5678    1.9393    0.0000 C   0  0  0  0  0  0  0  0  0  0  0  0
    0.5678    1.1143    0.0000 C   0  0  2  0  0  0  0  0  0  0  0  0
    0.9803   -0.1553    0.0000 C   0  0  1  0  0  0  0  0  0  0  0  0
   -0.0997    0.6294    0.0000 C   0  0  2  0  0  0  0  0  0  0  0  0
    0.1553   -0.1553    0.0000 C   0  0  1  0  0  0  0  0  0  0  0  0
   -0.8843    0.8843    0.0000 O   0  0  0  0  0  0  0  0  0  0  0  0
   -0.3297   -0.8227    0.0000 O   0  0  0  0  0  0  0  0  0  0  0  0
   -0.1467    4.0018    0.0000 O   0  0  0  0  0  0  0  0  0  0  0  0
   -0.9717    3.1768    0.0000 O   0  0  0  0  0  0  0  0  0  0  0  0
    0.6783    3.1768    0.0000 O   0  0  0  0  0  0  0  0  0  0  0  0
    1.7639   -3.6649    0.0000 O   0  0  0  0  0  0  0  0  0  0  0  0
    0.6115   -3.4824    0.0000 O   0  0  0  0  0  0  0  0  0  0  0  0
    1.9464   -2.5126    0.0000 O   0  0  0  0  0  0  0  0  0  0  0  0
    0.3759   -1.2408    0.0000 O   0  0  0  0  0  0  0  0  0  0  0  0
    1.8833   -1.9119    0.0000 O   0  0  0  0  0  0  0  0  0  0  0  0
   -0.1467    2.3518    0.0000 O   0  0  0  0  0  0  0  0  0  0  0  0
    1.4652   -0.8227    0.0000 O   0  0  0  0  0  0  0  0  0  0  0  0
    0.7941   -2.3300    0.0000 O   0  0  0  0  0  0  0  0  0  0  0  0
   -0.1467    3.1768    0.0000 P   0  0  0  0  0  0  0  0  0  0  0  0
    1.2790   -2.9975    0.0000 P   0  0  0  0  0  0  0  0  0  0  0  0
    1.1296   -1.5764    0.0000 P   0  0  3  0  0  0  0  0  0  0  0  0
    1.3028    1.4888    0.0000 H   0  0  0  0  0  0  0  0  0  0  0  0
    1.7951   -0.0262    0.0000 H   0  0  0  0  0  0  0  0  0  0  0  0
   -0.2287    1.4442    0.0000 H   0  0  0  0  0  0  0  0  0  0  0  0
    0.5298   -0.8903    0.0000 H   0  0  0  0  0  0  0  0  0  0  0  0
    2.2528    0.9601    0.0000 H   0  0  0  0  0  0  0  0  0  0  0  0
    1.9918   -0.1272    0.0000 H   0  0  0  0  0  0  0  0  0  0  0  0
    1.4944    2.4743    0.0000 H   0  0  0  0  0  0  0  0  0  0  0  0
    0.5678    3.0093    0.0000 H   0  0  0  0  0  0  0  0  0  0  0  0
   -1.0860    1.8331    0.0000 H   0  0  0  0  0  0  0  0  0  0  0  0
   -1.2944   -0.7212    0.0000 H   0  0  0  0  0  0  0  0  0  0  0  0
    0.6933    4.4868    0.0000 H   0  0  0  0  0  0  0  0  0  0  0  0
   -1.4567    4.0168    0.0000 H   0  0  0  0  0  0  0  0  0  0  0  0
    1.3694   -4.5510    0.0000 H   0  0  0  0  0  0  0  0  0  0  0  0
   -0.2746   -3.0878    0.0000 H   0  0  0  0  0  0  0  0  0  0  0  0
    0.2745   -0.2761    0.0000 H   0  0  0  0  0  0  0  0  0  0  0  0
  1 27  1  0  0  0  0
  1 28  1  0  0  0  0
  2 29  1  0  0  0  0
  2 30  1  0  0  0  0
  3  1  1  0  0  0  0
  3  2  1  0  0  0  0
  3 23  1  6  0  0  0
  4  1  1  0  0  0  0
  4 18  1  0  0  0  0
  4 24  1  1  0  0  0
  5  3  1  0  0  0  0
  5  7  1  0  0  0  0
  5 25  1  1  0  0  0
  6  4  1  0  0  0  0
  6  5  1  0  0  0  0
  6  8  1  0  0  0  0
  6 26  1  1  0  0  0
  7 31  1  0  0  0  0
  8 32  1  0  0  0  0
  9 33  1  0  0  0  0
 10 34  1  0  0  0  0
 12 35  1  0  0  0  0
 13 36  1  0  0  0  0
 15 37  1  0  0  0  0
 17  2  1  0  0  0  0
 20  9  1  0  0  0  0
 20 10  1  0  0  0  0
 20 11  2  0  0  0  0
 20 17  1  0  0  0  0
 21 12  1  0  0  0  0
 21 13  1  0  0  0  0
 21 14  2  0  0  0  0
 21 19  1  0  0  0  0
 22 15  1  0  0  0  0
 22 16  2  0  0  0  0
 22 18  1  0  0  0  0
 22 19  1  0  0  0  0
M  END
>  <DRUGBANK_ID>
DB03942

>  <SECONDARY_ACCESSION_NUMBERS>
EXPT02523

>  <COMMON_NAME>
Carboxylic PRPP

>  <SYNONYMS>
CPRPP

$$$$
