263
 OpenBabel10282417072D

 31 32  0  0  0  0  0  0  0  0999 V2000
    2.4751    0.6631    0.0000 S   0  0  0  0  0  0  0  0  0  0  0  0
    3.2758    2.7212    0.0000 O   0  0  0  0  0  0  0  0  0  0  0  0
    1.6500    0.6631    0.0000 O   0  0  0  0  0  0  0  0  0  0  0  0
    3.3001    0.6631    0.0000 O   0  0  0  0  0  0  0  0  0  0  0  0
    2.4751    1.4882    0.0000 N   0  0  0  0  0  0  0  0  0  0  0  0
    4.0828    2.8927    0.0000 N   0  0  0  0  0  0  0  0  0  0  0  0
    2.4751   -2.6369    0.0000 N   0  0  0  0  0  0  0  0  0  0  0  0
    2.4751   -0.1619    0.0000 C   0  0  0  0  0  0  0  0  0  0  0  0
    3.1895    1.9007    0.0000 C   0  0  0  0  0  0  0  0  0  0  0  0
    3.9433    1.5651    0.0000 C   0  0  0  0  0  0  0  0  0  0  0  0
    4.4953    2.1782    0.0000 C   0  0  0  0  0  0  0  0  0  0  0  0
    1.7606   -0.5744    0.0000 C   0  0  0  0  0  0  0  0  0  0  0  0
    3.1895   -0.5744    0.0000 C   0  0  0  0  0  0  0  0  0  0  0  0
    4.1148    0.7581    0.0000 C   0  0  0  0  0  0  0  0  0  0  0  0
    1.7606   -1.3994    0.0000 C   0  0  0  0  0  0  0  0  0  0  0  0
    3.1895   -1.3994    0.0000 C   0  0  0  0  0  0  0  0  0  0  0  0
    2.4751   -1.8119    0.0000 C   0  0  0  0  0  0  0  0  0  0  0  0
    5.3158    2.0920    0.0000 C   0  0  0  0  0  0  0  0  0  0  0  0
    1.6225    1.9804    0.0000 H   0  0  0  0  0  0  0  0  0  0  0  0
    1.6225   -3.1292    0.0000 H   0  0  0  0  0  0  0  0  0  0  0  0
    3.3277   -3.1291    0.0000 H   0  0  0  0  0  0  0  0  0  0  0  0
    0.8669   -0.0584    0.0000 H   0  0  0  0  0  0  0  0  0  0  0  0
    4.0832   -0.0584    0.0000 H   0  0  0  0  0  0  0  0  0  0  0  0
    3.3196    0.0422    0.0000 H   0  0  0  0  0  0  0  0  0  0  0  0
    5.1324    0.4274    0.0000 H   0  0  0  0  0  0  0  0  0  0  0  0
    4.3372   -0.2885    0.0000 H   0  0  0  0  0  0  0  0  0  0  0  0
    0.8669   -1.9154    0.0000 H   0  0  0  0  0  0  0  0  0  0  0  0
    4.0832   -1.9154    0.0000 H   0  0  0  0  0  0  0  0  0  0  0  0
    5.7511    1.1145    0.0000 H   0  0  0  0  0  0  0  0  0  0  0  0
    5.9447    2.9577    0.0000 H   0  0  0  0  0  0  0  0  0  0  0  0
    6.3799    1.9802    0.0000 H   0  0  0  0  0  0  0  0  0  0  0  0
  1  3  2  0  0  0  0
  1  4  2  0  0  0  0
  1  5  1  0  0  0  0
  1  8  1  0  0  0  0
  2  6  1  0  0  0  0
  2  9  1  0  0  0  0
  5  9  1  0  0  0  0
  5 19  1  0  0  0  0
  6 11  2  0  0  0  0
  7 17  1  0  0  0  0
  7 20  1  0  0  0  0
  7 21  1  0  0  0  0
  8 12  2  0  0  0  0
  8 13  1  0  0  0  0
  9 10  2  0  0  0  0
 10 11  1  0  0  0  0
 10 14  1  0  0  0  0
 11 18  1  0  0  0  0
 12 15  1  0  0  0  0
 12 22  1  0  0  0  0
 13 16  2  0  0  0  0
 13 23  1  0  0  0  0
 14 24  1  0  0  0  0
 14 25  1  0  0  0  0
 14 26  1  0  0  0  0
 15 17  2  0  0  0  0
 15 27  1  0  0  0  0
 16 17  1  0  0  0  0
 16 28  1  0  0  0  0
 18 29  1  0  0  0  0
 18 30  1  0  0  0  0
 18 31  1  0  0  0  0
M  END
>  <DRUGBANK_ID>
DB00263

>  <SECONDARY_ACCESSION_NUMBERS>
APRD00595

>  <COMMON_NAME>
Sulfisoxazole

>  <CAS_NUMBER>
127-69-5

>  <UNII>
740T4C525W

>  <SYNONYMS>
3,4-Dimethyl-5-sulfanilamidoisoxazole; 3,4-Dimethyl-5-sulfonamidoisoxazole; 3,4-Dimethyl-5-sulphanilamidoisoxazole; 3,4-Dimethyl-5-sulphonamidoisoxazole; 3,4-Dimethylisoxazole-5-sulfanilamide; 3,4-Dimethylisoxazole-5-sulphanilamide; 4-Amino-N-(3,4-dimethyl-5-isoxazolyl)benzenesulfonamide; 4-Amino-N-(3,4-dimethyl-5-isoxazolyl)benzenesulphonamide; 5-(4-Aminophenylsulfonamido)-3,4-dimethylisoxazole; 5-(p-Aminobenzenesulfonamido)-3,4-dimethylisoxazole; 5-(p-Aminobenzenesulphonamido)-3,4-dimethylisoxazole; 5-Sulfanilamido-3,4-dimethylisoxazole; 5-Sulphanilamido-3,4-dimethyl-isoxazole; N'-(3,4)Dimethylisoxazol-5-yl-sulphanilamide; N1-(3,4-dimethyl-5-isoxazolyl)sulfanilamide; N1-(3,4-dimethyl-5-isoxazolyl)sulphanilamide; Sulfadimethylisoxazole; Sulfafurazol; Sulfafurazole; Sulfafurazolum; Sulfaisoxazole; Sulfasoxazole; Sulfisonazole; Sulfisoxasole; Sulfisoxazol; Sulfisoxazole; Sulfofurazole; Sulphadimethylisoxazole; Sulphafurazol; Sulphafurazole; Sulphaisoxazole; Sulphisoxazol; Sulphofurazole

$$$$
