
 OpenBabel10282417072D

 25 25  0  0  0  0  0  0  0  0999 V2000
   -0.6865   -2.4373    0.0000 C   0  0  0  0  0  0  0  0  0  0  0  0
    0.0280   -2.0248    0.0000 O   0  0  0  0  0  0  0  0  0  0  0  0
    0.7425   -2.4373    0.0000 C   0  0  0  0  0  0  0  0  0  0  0  0
    1.4569   -2.0248    0.0000 C   0  0  3  0  0  0  0  0  0  0  0  0
    2.1714   -2.4373    0.0000 C   0  0  0  0  0  0  0  0  0  0  0  0
    2.8859   -2.0248    0.0000 N   0  0  0  0  0  0  0  0  0  0  0  0
    2.9721   -1.2043    0.0000 C   0  0  0  0  0  0  0  0  0  0  0  0
    3.7791   -1.0328    0.0000 C   0  0  0  0  0  0  0  0  0  0  0  0
    4.1916   -1.7472    0.0000 N   0  0  0  0  0  0  0  0  0  0  0  0
    3.6396   -2.3603    0.0000 C   0  0  0  0  0  0  0  0  0  0  0  0
    3.8111   -3.1673    0.0000 N   0  3  0  0  0  0  0  0  0  0  0  0
    4.5957   -3.4222    0.0000 O   0  0  0  0  0  0  0  0  0  0  0  0
    3.1980   -3.7193    0.0000 O   0  5  0  0  0  0  0  0  0  0  0  0
    1.4569   -1.1998    0.0000 O   0  0  0  0  0  0  0  0  0  0  0  0
   -1.6131   -1.9023    0.0000 H   0  0  0  0  0  0  0  0  0  0  0  0
   -0.6865   -3.5073    0.0000 H   0  0  0  0  0  0  0  0  0  0  0  0
   -1.6132   -2.9723    0.0000 H   0  0  0  0  0  0  0  0  0  0  0  0
    0.7425   -3.5073    0.0000 H   0  0  0  0  0  0  0  0  0  0  0  0
    1.6692   -2.9723    0.0000 H   0  0  0  0  0  0  0  0  0  0  0  0
    1.4569   -3.0948    0.0000 H   0  0  0  0  0  0  0  0  0  0  0  0
    2.1714   -3.5073    0.0000 H   0  0  0  0  0  0  0  0  0  0  0  0
    3.0980   -2.9723    0.0000 H   0  0  0  0  0  0  0  0  0  0  0  0
    2.2052   -0.5138    0.0000 H   0  0  0  0  0  0  0  0  0  0  0  0
    4.1989   -0.0900    0.0000 H   0  0  0  0  0  0  0  0  0  0  0  0
    2.2969   -0.7148    0.0000 H   0  0  0  0  0  0  0  0  0  0  0  0
  1  2  1  0  0  0  0
  1 15  1  0  0  0  0
  1 16  1  0  0  0  0
  1 17  1  0  0  0  0
  2  3  1  0  0  0  0
  3  4  1  0  0  0  0
  3 18  1  0  0  0  0
  3 19  1  0  0  0  0
  4  5  1  0  0  0  0
  4 14  1  0  0  0  0
  4 20  1  0  0  0  0
  5  6  1  0  0  0  0
  5 21  1  0  0  0  0
  5 22  1  0  0  0  0
  6  7  1  0  0  0  0
  6 10  1  0  0  0  0
  7  8  2  0  0  0  0
  7 23  1  0  0  0  0
  8  9  1  0  0  0  0
  8 24  1  0  0  0  0
  9 10  2  0  0  0  0
 10 11  1  0  0  0  0
 11 12  2  0  0  0  0
 11 13  1  0  0  0  0
 14 25  1  0  0  0  0
M  CHG  2  11   1  13  -1
M  END
>  <DRUGBANK_ID>
DB11716

>  <COMMON_NAME>
Misonidazole

>  <CAS_NUMBER>
13551-87-6

>  <UNII>
8FE7LTN8XE

>  <SYNONYMS>
Misonidazole

$$$$
