
 OpenBabel10282417072D

 99100  0  0  0  0  0  0  0  0999 V2000
    5.0013   14.4375    0.0000 C   0  0  0  0  0  0  0  0  0  0  0  0
    5.0013   13.6125    0.0000 C   0  0  0  0  0  0  0  0  0  0  0  0
    5.7158   13.2000    0.0000 C   0  0  0  0  0  0  0  0  0  0  0  0
    4.2868   13.2000    0.0000 C   0  0  0  0  0  0  0  0  0  0  0  0
    4.2868   12.3750    0.0000 C   0  0  0  0  0  0  0  0  0  0  0  0
    3.5724   11.9625    0.0000 C   0  0  0  0  0  0  0  0  0  0  0  0
    3.5724   11.1375    0.0000 C   0  0  0  0  0  0  0  0  0  0  0  0
    4.2868   10.7250    0.0000 C   0  0  0  0  0  0  0  0  0  0  0  0
    2.8579   10.7250    0.0000 C   0  0  0  0  0  0  0  0  0  0  0  0
    2.8579    9.9000    0.0000 C   0  0  0  0  0  0  0  0  0  0  0  0
    2.1434    9.4875    0.0000 C   0  0  0  0  0  0  0  0  0  0  0  0
    2.1434    8.6625    0.0000 C   0  0  0  0  0  0  0  0  0  0  0  0
    2.8579    8.2500    0.0000 C   0  0  0  0  0  0  0  0  0  0  0  0
    1.4289    8.2500    0.0000 C   0  0  0  0  0  0  0  0  0  0  0  0
    1.4289    7.4250    0.0000 C   0  0  0  0  0  0  0  0  0  0  0  0
    0.7145    7.0125    0.0000 C   0  0  0  0  0  0  0  0  0  0  0  0
    0.7145    6.1875    0.0000 C   0  0  0  0  0  0  0  0  0  0  0  0
    1.4289    5.7750    0.0000 C   0  0  0  0  0  0  0  0  0  0  0  0
    0.0000    5.7750    0.0000 C   0  0  0  0  0  0  0  0  0  0  0  0
    0.0000    4.9500    0.0000 C   0  0  0  0  0  0  0  0  0  0  0  0
   -0.7145    4.5375    0.0000 C   0  0  0  0  0  0  0  0  0  0  0  0
   -0.7145    3.7125    0.0000 C   0  0  0  0  0  0  0  0  0  0  0  0
    0.0000    3.3000    0.0000 C   0  0  0  0  0  0  0  0  0  0  0  0
   -1.4289    3.3000    0.0000 C   0  0  0  0  0  0  0  0  0  0  0  0
   -1.4289    2.4750    0.0000 C   0  0  0  0  0  0  0  0  0  0  0  0
   -2.1434    2.0625    0.0000 C   0  0  0  0  0  0  0  0  0  0  0  0
   -2.1434    1.2375    0.0000 C   0  0  0  0  0  0  0  0  0  0  0  0
   -2.8579    0.8250    0.0000 C   0  0  0  0  0  0  0  0  0  0  0  0
   -1.4289    0.8250    0.0000 C   0  0  0  0  0  0  0  0  0  0  0  0
   -1.4289    0.0000    0.0000 C   0  0  0  0  0  0  0  0  0  0  0  0
   -0.7145   -0.4125    0.0000 C   0  0  0  0  0  0  0  0  0  0  0  0
   -0.7145   -1.2375    0.0000 C   0  0  0  0  0  0  0  0  0  0  0  0
   -1.4289   -1.6500    0.0000 C   0  0  0  0  0  0  0  0  0  0  0  0
    0.0000   -1.6500    0.0000 C   0  0  0  0  0  0  0  0  0  0  0  0
    0.0000   -2.4750    0.0000 O   0  0  0  0  0  0  0  0  0  0  0  0
    0.7145   -1.2375    0.0000 C   0  0  0  0  0  0  0  0  0  0  0  0
    0.7145   -0.4125    0.0000 C   0  0  0  0  0  0  0  0  0  0  0  0
    1.4289   -0.0000    0.0000 C   0  0  0  0  0  0  0  0  0  0  0  0
    2.1434   -0.4125    0.0000 C   0  0  0  0  0  0  0  0  0  0  0  0
    2.1434   -1.2375    0.0000 C   0  0  0  0  0  0  0  0  0  0  0  0
    1.4289   -1.6500    0.0000 C   0  0  0  0  0  0  0  0  0  0  0  0
    0.0000   -0.0000    0.0000 C   0  0  0  0  0  0  0  0  0  0  0  0
    0.0000    0.8250    0.0000 O   0  0  0  0  0  0  0  0  0  0  0  0
    5.9279   14.9725    0.0000 H   0  0  0  0  0  0  0  0  0  0  0  0
    4.0747   14.9725    0.0000 H   0  0  0  0  0  0  0  0  0  0  0  0
    5.0013   15.5075    0.0000 H   0  0  0  0  0  0  0  0  0  0  0  0
    5.7158   12.1300    0.0000 H   0  0  0  0  0  0  0  0  0  0  0  0
    6.6424   13.7350    0.0000 H   0  0  0  0  0  0  0  0  0  0  0  0
    6.6425   12.6650    0.0000 H   0  0  0  0  0  0  0  0  0  0  0  0
    3.3931   13.7160    0.0000 H   0  0  0  0  0  0  0  0  0  0  0  0
    5.2135   11.8400    0.0000 H   0  0  0  0  0  0  0  0  0  0  0  0
    4.2868   11.3050    0.0000 H   0  0  0  0  0  0  0  0  0  0  0  0
    2.6457   12.4975    0.0000 H   0  0  0  0  0  0  0  0  0  0  0  0
    2.6458   11.4275    0.0000 H   0  0  0  0  0  0  0  0  0  0  0  0
    4.2868    9.6550    0.0000 H   0  0  0  0  0  0  0  0  0  0  0  0
    5.2135   11.2600    0.0000 H   0  0  0  0  0  0  0  0  0  0  0  0
    5.2134   10.1900    0.0000 H   0  0  0  0  0  0  0  0  0  0  0  0
    1.9642   11.2410    0.0000 H   0  0  0  0  0  0  0  0  0  0  0  0
    3.7845    9.3650    0.0000 H   0  0  0  0  0  0  0  0  0  0  0  0
    2.8579    8.8300    0.0000 H   0  0  0  0  0  0  0  0  0  0  0  0
    1.2168   10.0225    0.0000 H   0  0  0  0  0  0  0  0  0  0  0  0
    1.2168    8.9525    0.0000 H   0  0  0  0  0  0  0  0  0  0  0  0
    2.8579    7.1800    0.0000 H   0  0  0  0  0  0  0  0  0  0  0  0
    3.7845    8.7850    0.0000 H   0  0  0  0  0  0  0  0  0  0  0  0
    3.7846    7.7150    0.0000 H   0  0  0  0  0  0  0  0  0  0  0  0
    0.5352    8.7660    0.0000 H   0  0  0  0  0  0  0  0  0  0  0  0
    2.3556    6.8900    0.0000 H   0  0  0  0  0  0  0  0  0  0  0  0
    1.4289    6.3550    0.0000 H   0  0  0  0  0  0  0  0  0  0  0  0
   -0.2122    7.5475    0.0000 H   0  0  0  0  0  0  0  0  0  0  0  0
   -0.2121    6.4775    0.0000 H   0  0  0  0  0  0  0  0  0  0  0  0
    1.4289    4.7050    0.0000 H   0  0  0  0  0  0  0  0  0  0  0  0
    2.3556    6.3100    0.0000 H   0  0  0  0  0  0  0  0  0  0  0  0
    2.3555    5.2400    0.0000 H   0  0  0  0  0  0  0  0  0  0  0  0
   -0.8937    6.2910    0.0000 H   0  0  0  0  0  0  0  0  0  0  0  0
    0.9266    4.4150    0.0000 H   0  0  0  0  0  0  0  0  0  0  0  0
   -0.0000    3.8800    0.0000 H   0  0  0  0  0  0  0  0  0  0  0  0
   -1.6411    5.0725    0.0000 H   0  0  0  0  0  0  0  0  0  0  0  0
   -1.6411    4.0025    0.0000 H   0  0  0  0  0  0  0  0  0  0  0  0
    0.0000    2.2300    0.0000 H   0  0  0  0  0  0  0  0  0  0  0  0
    0.9266    3.8350    0.0000 H   0  0  0  0  0  0  0  0  0  0  0  0
    0.9267    2.7650    0.0000 H   0  0  0  0  0  0  0  0  0  0  0  0
   -2.3226    3.8160    0.0000 H   0  0  0  0  0  0  0  0  0  0  0  0
   -0.5023    1.9400    0.0000 H   0  0  0  0  0  0  0  0  0  0  0  0
   -1.4289    1.4050    0.0000 H   0  0  0  0  0  0  0  0  0  0  0  0
   -3.0700    2.5975    0.0000 H   0  0  0  0  0  0  0  0  0  0  0  0
   -3.0700    1.5275    0.0000 H   0  0  0  0  0  0  0  0  0  0  0  0
   -3.7845    1.3600    0.0000 H   0  0  0  0  0  0  0  0  0  0  0  0
   -2.8579   -0.2450    0.0000 H   0  0  0  0  0  0  0  0  0  0  0  0
   -3.7846    0.2900    0.0000 H   0  0  0  0  0  0  0  0  0  0  0  0
   -0.5352    1.3410    0.0000 H   0  0  0  0  0  0  0  0  0  0  0  0
   -2.3556   -0.5350    0.0000 H   0  0  0  0  0  0  0  0  0  0  0  0
   -1.4289   -1.0700    0.0000 H   0  0  0  0  0  0  0  0  0  0  0  0
   -2.3556   -1.1150    0.0000 H   0  0  0  0  0  0  0  0  0  0  0  0
   -1.4289   -2.7200    0.0000 H   0  0  0  0  0  0  0  0  0  0  0  0
   -2.3555   -2.1850    0.0000 H   0  0  0  0  0  0  0  0  0  0  0  0
    1.4289    1.0320    0.0000 H   0  0  0  0  0  0  0  0  0  0  0  0
    3.0371    0.1035    0.0000 H   0  0  0  0  0  0  0  0  0  0  0  0
    3.0371   -1.7535    0.0000 H   0  0  0  0  0  0  0  0  0  0  0  0
    1.4289   -2.6820    0.0000 H   0  0  0  0  0  0  0  0  0  0  0  0
  1  2  1  0  0  0  0
  1 44  1  0  0  0  0
  1 45  1  0  0  0  0
  1 46  1  0  0  0  0
  2  3  1  0  0  0  0
  2  4  2  0  0  0  0
  3 47  1  0  0  0  0
  3 48  1  0  0  0  0
  3 49  1  0  0  0  0
  4  5  1  0  0  0  0
  4 50  1  0  0  0  0
  5  6  1  0  0  0  0
  5 51  1  0  0  0  0
  5 52  1  0  0  0  0
  6  7  1  0  0  0  0
  6 53  1  0  0  0  0
  6 54  1  0  0  0  0
  7  8  1  0  0  0  0
  7  9  2  0  0  0  0
  8 55  1  0  0  0  0
  8 56  1  0  0  0  0
  8 57  1  0  0  0  0
  9 10  1  0  0  0  0
  9 58  1  0  0  0  0
 10 11  1  0  0  0  0
 10 59  1  0  0  0  0
 10 60  1  0  0  0  0
 11 12  1  0  0  0  0
 11 61  1  0  0  0  0
 11 62  1  0  0  0  0
 12 13  1  0  0  0  0
 12 14  2  0  0  0  0
 13 63  1  0  0  0  0
 13 64  1  0  0  0  0
 13 65  1  0  0  0  0
 14 15  1  0  0  0  0
 14 66  1  0  0  0  0
 15 16  1  0  0  0  0
 15 67  1  0  0  0  0
 15 68  1  0  0  0  0
 16 17  1  0  0  0  0
 16 69  1  0  0  0  0
 16 70  1  0  0  0  0
 17 18  1  0  0  0  0
 17 19  2  0  0  0  0
 18 71  1  0  0  0  0
 18 72  1  0  0  0  0
 18 73  1  0  0  0  0
 19 20  1  0  0  0  0
 19 74  1  0  0  0  0
 20 21  1  0  0  0  0
 20 75  1  0  0  0  0
 20 76  1  0  0  0  0
 21 22  1  0  0  0  0
 21 77  1  0  0  0  0
 21 78  1  0  0  0  0
 22 23  1  0  0  0  0
 22 24  2  0  0  0  0
 23 79  1  0  0  0  0
 23 80  1  0  0  0  0
 23 81  1  0  0  0  0
 24 25  1  0  0  0  0
 24 82  1  0  0  0  0
 25 26  1  0  0  0  0
 25 83  1  0  0  0  0
 25 84  1  0  0  0  0
 26 27  1  0  0  0  0
 26 85  1  0  0  0  0
 26 86  1  0  0  0  0
 27 28  1  0  0  0  0
 27 29  2  0  0  0  0
 28 87  1  0  0  0  0
 28 88  1  0  0  0  0
 28 89  1  0  0  0  0
 29 30  1  0  0  0  0
 29 90  1  0  0  0  0
 30 31  1  0  0  0  0
 30 91  1  0  0  0  0
 30 92  1  0  0  0  0
 31 32  2  0  0  0  0
 31 42  1  0  0  0  0
 32 33  1  0  0  0  0
 32 34  1  0  0  0  0
 33 93  1  0  0  0  0
 33 94  1  0  0  0  0
 33 95  1  0  0  0  0
 34 35  2  0  0  0  0
 34 36  1  0  0  0  0
 36 37  2  0  0  0  0
 36 41  1  0  0  0  0
 37 38  1  0  0  0  0
 37 42  1  0  0  0  0
 38 39  2  0  0  0  0
 38 96  1  0  0  0  0
 39 40  1  0  0  0  0
 39 97  1  0  0  0  0
 40 41  2  0  0  0  0
 40 98  1  0  0  0  0
 41 99  1  0  0  0  0
 42 43  2  0  0  0  0
M  END
>  <DRUGBANK_ID>
DB14936

>  <COMMON_NAME>
Menaquinone 6

>  <CAS_NUMBER>
84-81-1

>  <UNII>
71ANL51TLA

>  <SYNONYMS>
VITAMIN K2

$$$$
