
 OpenBabel10282417072D

 43 46  0  0  1  0  0  0  0  0999 V2000
    3.6027   -3.6366    0.0000 C   0  0  0  0  0  0  0  0  0  0  0  0
    2.8882   -3.2241    0.0000 C   0  0  1  0  0  0  0  0  0  0  0  0
    2.1738   -3.6366    0.0000 O   0  0  0  0  0  0  0  0  0  0  0  0
    2.1738   -4.4616    0.0000 C   0  0  0  0  0  0  0  0  0  0  0  0
    2.8412   -4.9465    0.0000 N   0  0  0  0  0  0  0  0  0  0  0  0
    2.5863   -5.7311    0.0000 N   0  0  0  0  0  0  0  0  0  0  0  0
    1.7613   -5.7311    0.0000 C   0  0  0  0  0  0  0  0  0  0  0  0
    1.5063   -4.9465    0.0000 N   0  0  0  0  0  0  0  0  0  0  0  0
    0.7217   -4.6916    0.0000 C   0  0  0  0  0  0  0  0  0  0  0  0
    1.2763   -6.3986    0.0000 C   0  0  0  0  0  0  0  0  0  0  0  0
    1.6119   -7.1522    0.0000 C   0  0  0  0  0  0  0  0  0  0  0  0
    1.1270   -7.8197    0.0000 C   0  0  0  0  0  0  0  0  0  0  0  0
    0.3065   -7.7334    0.0000 N   0  0  0  0  0  0  0  0  0  0  0  0
   -0.0291   -6.9798    0.0000 C   0  0  0  0  0  0  0  0  0  0  0  0
    0.4559   -6.3123    0.0000 C   0  0  0  0  0  0  0  0  0  0  0  0
    2.8882   -2.3991    0.0000 C   0  0  0  0  0  0  0  0  0  0  0  0
    2.2208   -1.9141    0.0000 N   0  0  0  0  0  0  0  0  0  0  0  0
    2.4757   -1.1295    0.0000 O   0  0  0  0  0  0  0  0  0  0  0  0
    3.3007   -1.1295    0.0000 C   0  0  0  0  0  0  0  0  0  0  0  0
    3.5557   -1.9141    0.0000 C   0  0  0  0  0  0  0  0  0  0  0  0
    3.7857   -0.4621    0.0000 C   0  0  0  0  0  0  0  0  0  0  0  0
    3.4501    0.2916    0.0000 C   0  0  0  0  0  0  0  0  0  0  0  0
    3.9350    0.9590    0.0000 C   0  0  0  0  0  0  0  0  0  0  0  0
    3.5995    1.7127    0.0000 Cl  0  0  0  0  0  0  0  0  0  0  0  0
    4.7555    0.8728    0.0000 C   0  0  0  0  0  0  0  0  0  0  0  0
    5.0911    0.1191    0.0000 C   0  0  0  0  0  0  0  0  0  0  0  0
    4.6061   -0.5483    0.0000 C   0  0  0  0  0  0  0  0  0  0  0  0
    3.6027   -4.7066    0.0000 H   0  0  0  0  0  0  0  0  0  0  0  0
    4.5293   -3.1016    0.0000 H   0  0  0  0  0  0  0  0  0  0  0  0
    4.5294   -4.1716    0.0000 H   0  0  0  0  0  0  0  0  0  0  0  0
    2.8882   -4.2941    0.0000 H   0  0  0  0  0  0  0  0  0  0  0  0
    0.4992   -3.6450    0.0000 H   0  0  0  0  0  0  0  0  0  0  0  0
   -0.0734   -5.4076    0.0000 H   0  0  0  0  0  0  0  0  0  0  0  0
   -0.2959   -4.3610    0.0000 H   0  0  0  0  0  0  0  0  0  0  0  0
    2.6383   -7.2600    0.0000 H   0  0  0  0  0  0  0  0  0  0  0  0
    1.5467   -8.7625    0.0000 H   0  0  0  0  0  0  0  0  0  0  0  0
   -1.0554   -6.8720    0.0000 H   0  0  0  0  0  0  0  0  0  0  0  0
    0.0362   -5.3695    0.0000 H   0  0  0  0  0  0  0  0  0  0  0  0
    4.5372   -2.2330    0.0000 H   0  0  0  0  0  0  0  0  0  0  0  0
    2.4238    0.3995    0.0000 H   0  0  0  0  0  0  0  0  0  0  0  0
    5.3621    1.7077    0.0000 H   0  0  0  0  0  0  0  0  0  0  0  0
    6.1174    0.0112    0.0000 H   0  0  0  0  0  0  0  0  0  0  0  0
    5.0258   -1.4911    0.0000 H   0  0  0  0  0  0  0  0  0  0  0  0
  1 28  1  0  0  0  0
  1 29  1  0  0  0  0
  1 30  1  0  0  0  0
  2  1  1  0  0  0  0
  2  3  1  0  0  0  0
  2 16  1  0  0  0  0
  2 31  1  6  0  0  0
  3  4  1  0  0  0  0
  4  5  2  0  0  0  0
  4  8  1  0  0  0  0
  5  6  1  0  0  0  0
  6  7  2  0  0  0  0
  7  8  1  0  0  0  0
  7 10  1  0  0  0  0
  8  9  1  0  0  0  0
  9 32  1  0  0  0  0
  9 33  1  0  0  0  0
  9 34  1  0  0  0  0
 10 11  2  0  0  0  0
 10 15  1  0  0  0  0
 11 12  1  0  0  0  0
 11 35  1  0  0  0  0
 12 13  2  0  0  0  0
 12 36  1  0  0  0  0
 13 14  1  0  0  0  0
 14 15  2  0  0  0  0
 14 37  1  0  0  0  0
 15 38  1  0  0  0  0
 16 17  2  0  0  0  0
 16 20  1  0  0  0  0
 17 18  1  0  0  0  0
 18 19  1  0  0  0  0
 19 20  2  0  0  0  0
 19 21  1  0  0  0  0
 20 39  1  0  0  0  0
 21 22  2  0  0  0  0
 21 27  1  0  0  0  0
 22 23  1  0  0  0  0
 22 40  1  0  0  0  0
 23 24  1  0  0  0  0
 23 25  2  0  0  0  0
 25 26  1  0  0  0  0
 25 41  1  0  0  0  0
 26 27  2  0  0  0  0
 26 42  1  0  0  0  0
 27 43  1  0  0  0  0
M  END
>  <DRUGBANK_ID>
DB12644

>  <COMMON_NAME>
AZD-2066

>  <CAS_NUMBER>
934282-55-0

$$$$
