219
 OpenBabel10282417072D

 39 40  0  0  0  0  0  0  0  0999 V2000
   -2.3169   -0.8775    0.0000 C   0  0  0  0  0  0  0  0  0  0  0  0
   -3.0314   -0.4650    0.0000 C   0  0  0  0  0  0  0  0  0  0  0  0
   -3.0314    0.3600    0.0000 C   0  0  0  0  0  0  0  0  0  0  0  0
   -2.3169    0.7725    0.0000 C   0  0  0  0  0  0  0  0  0  0  0  0
   -1.6024    0.3600    0.0000 C   0  0  0  0  0  0  0  0  0  0  0  0
   -1.6024   -0.4650    0.0000 C   0  0  0  0  0  0  0  0  0  0  0  0
   -2.3169    1.5975    0.0000 C   0  0  0  0  0  0  0  0  0  0  0  0
   -0.8879    0.7725    0.0000 O   0  0  0  0  0  0  0  0  0  0  0  0
   -0.1735    0.3600    0.0000 P   0  0  1  0  0  0  0  0  0  0  0  0
    0.5410   -0.0525    0.0000 O   0  0  0  0  0  0  0  0  0  0  0  0
   -0.5860   -0.3544    0.0000 O   0  0  0  0  0  0  0  0  0  0  0  0
    1.2555    0.3600    0.0000 C   0  0  0  0  0  0  0  0  0  0  0  0
   -1.6024    2.0100    0.0000 O   0  0  0  0  0  0  0  0  0  0  0  0
    0.2390    1.0745    0.0000 O   0  0  0  0  0  0  0  0  0  0  0  0
    1.9699   -0.0525    0.0000 C   0  0  0  0  0  0  0  0  0  0  0  0
    2.6844    0.3600    0.0000 C   0  0  0  0  0  0  0  0  0  0  0  0
    3.3989   -0.0525    0.0000 C   0  0  0  0  0  0  0  0  0  0  0  0
    3.3989   -0.8775    0.0000 C   0  0  0  0  0  0  0  0  0  0  0  0
    2.6844   -1.2900    0.0000 C   0  0  0  0  0  0  0  0  0  0  0  0
    1.9699   -0.8775    0.0000 C   0  0  0  0  0  0  0  0  0  0  0  0
   -2.3169   -1.9095    0.0000 H   0  0  0  0  0  0  0  0  0  0  0  0
   -3.9251   -0.9810    0.0000 H   0  0  0  0  0  0  0  0  0  0  0  0
   -3.9251    0.8760    0.0000 H   0  0  0  0  0  0  0  0  0  0  0  0
   -0.7087   -0.9810    0.0000 H   0  0  0  0  0  0  0  0  0  0  0  0
   -3.2106    2.1135    0.0000 H   0  0  0  0  0  0  0  0  0  0  0  0
    1.2555    1.4300    0.0000 H   0  0  0  0  0  0  0  0  0  0  0  0
    2.1822    0.8950    0.0000 H   0  0  0  0  0  0  0  0  0  0  0  0
    1.2090    1.0745    0.0000 H   0  0  0  0  0  0  0  0  0  0  0  0
    2.8965   -0.5875    0.0000 H   0  0  0  0  0  0  0  0  0  0  0  0
    2.6844    1.4300    0.0000 H   0  0  0  0  0  0  0  0  0  0  0  0
    3.6110    0.8950    0.0000 H   0  0  0  0  0  0  0  0  0  0  0  0
    4.3255    0.4825    0.0000 H   0  0  0  0  0  0  0  0  0  0  0  0
    4.3255   -0.5875    0.0000 H   0  0  0  0  0  0  0  0  0  0  0  0
    4.3255   -1.4125    0.0000 H   0  0  0  0  0  0  0  0  0  0  0  0
    3.3989   -1.9475    0.0000 H   0  0  0  0  0  0  0  0  0  0  0  0
    2.6844   -2.3600    0.0000 H   0  0  0  0  0  0  0  0  0  0  0  0
    1.7578   -1.8250    0.0000 H   0  0  0  0  0  0  0  0  0  0  0  0
    1.0433   -1.4125    0.0000 H   0  0  0  0  0  0  0  0  0  0  0  0
    1.9699   -1.9475    0.0000 H   0  0  0  0  0  0  0  0  0  0  0  0
  1  2  1  0  0  0  0
  1  6  2  0  0  0  0
  1 21  1  0  0  0  0
  2  3  2  0  0  0  0
  2 22  1  0  0  0  0
  3  4  1  0  0  0  0
  3 23  1  0  0  0  0
  4  5  2  0  0  0  0
  4  7  1  0  0  0  0
  5  6  1  0  0  0  0
  5  8  1  0  0  0  0
  6 24  1  0  0  0  0
  7 13  2  0  0  0  0
  7 25  1  0  0  0  0
  9  8  1  0  0  0  0
  9 10  1  0  0  0  0
  9 11  2  6  0  0  0
  9 14  1  0  0  0  0
 10 12  1  0  0  0  0
 12 15  1  0  0  0  0
 12 26  1  0  0  0  0
 12 27  1  0  0  0  0
 14 28  1  0  0  0  0
 15 16  1  0  0  0  0
 15 20  1  0  0  0  0
 15 29  1  0  0  0  0
 16 17  1  0  0  0  0
 16 30  1  0  0  0  0
 16 31  1  0  0  0  0
 17 18  1  0  0  0  0
 17 32  1  0  0  0  0
 17 33  1  0  0  0  0
 18 19  1  0  0  0  0
 18 34  1  0  0  0  0
 18 35  1  0  0  0  0
 19 20  1  0  0  0  0
 19 36  1  0  0  0  0
 19 37  1  0  0  0  0
 20 38  1  0  0  0  0
 20 39  1  0  0  0  0
M  END
>  <DRUGBANK_ID>
DB03114

>  <SECONDARY_ACCESSION_NUMBERS>
EXPT00088

>  <COMMON_NAME>
PAS219

$$$$
