
 OpenBabel10282417072D

 58 61  0  0  0  0  0  0  0  0999 V2000
   -0.4432    1.6438    0.0000 C   0  0  0  0  0  0  0  0  0  0  0  0
   -0.4432    0.8188    0.0000 C   0  0  0  0  0  0  0  0  0  0  0  0
   -1.1575    2.0625    0.0000 N   0  0  0  0  0  0  0  0  0  0  0  0
   -1.1575    0.4125    0.0000 N   0  0  0  0  0  0  0  0  0  0  0  0
   -1.8717    0.8188    0.0000 C   0  0  0  0  0  0  0  0  0  0  0  0
   -1.8717    1.6438    0.0000 C   0  0  0  0  0  0  0  0  0  0  0  0
    0.2709    2.0625    0.0000 N   0  0  0  0  0  0  0  0  0  0  0  0
    0.3571   -0.4125    0.0000 O   0  0  0  0  0  0  0  0  0  0  0  0
    1.1575   -0.5849    0.0000 N   0  0  0  0  0  0  0  0  0  0  0  0
    1.5761    0.1292    0.0000 C   0  0  0  0  0  0  0  0  0  0  0  0
    1.0220    0.7449    0.0000 C   0  0  0  0  0  0  0  0  0  0  0  0
    0.2709    0.4125    0.0000 C   0  0  0  0  0  0  0  0  0  0  0  0
    2.3889    0.2154    0.0000 C   0  0  0  0  0  0  0  0  0  0  0  0
    2.7337    0.9666    0.0000 C   0  0  0  0  0  0  0  0  0  0  0  0
    3.5464    1.0528    0.0000 C   0  0  0  0  0  0  0  0  0  0  0  0
    4.0266    0.3878    0.0000 C   0  0  0  0  0  0  0  0  0  0  0  0
    3.6942   -0.3632    0.0000 C   0  0  0  0  0  0  0  0  0  0  0  0
    2.8814   -0.4494    0.0000 C   0  0  0  0  0  0  0  0  0  0  0  0
    4.8517    0.4740    0.0000 C   0  0  0  0  0  0  0  0  0  0  0  0
    5.3319   -0.1908    0.0000 N   0  0  0  0  0  0  0  0  0  0  0  0
    6.1570   -0.1046    0.0000 C   0  0  0  0  0  0  0  0  0  0  0  0
   -2.5859    0.4125    0.0000 C   0  0  0  0  0  0  0  0  0  0  0  0
   -2.5859   -0.4125    0.0000 C   0  0  0  0  0  0  0  0  0  0  0  0
   -3.3001   -0.8312    0.0000 C   0  0  0  0  0  0  0  0  0  0  0  0
   -4.0143   -0.4125    0.0000 C   0  0  0  0  0  0  0  0  0  0  0  0
   -4.0143    0.4125    0.0000 C   0  0  0  0  0  0  0  0  0  0  0  0
   -3.3001    0.8188    0.0000 C   0  0  0  0  0  0  0  0  0  0  0  0
   -4.7285   -0.8312    0.0000 S   0  0  0  0  0  0  0  0  0  0  0  0
   -5.1472   -0.1170    0.0000 O   0  0  0  0  0  0  0  0  0  0  0  0
   -4.3222   -1.5454    0.0000 O   0  0  0  0  0  0  0  0  0  0  0  0
   -5.4428   -1.2375    0.0000 C   0  0  0  0  0  0  0  0  0  0  0  0
   -6.1570   -0.8312    0.0000 C   0  0  0  0  0  0  0  0  0  0  0  0
   -5.4428   -2.0625    0.0000 C   0  0  0  0  0  0  0  0  0  0  0  0
   -2.7671    2.1568    0.0000 H   0  0  0  0  0  0  0  0  0  0  0  0
    1.1268    1.5760    0.0000 H   0  0  0  0  0  0  0  0  0  0  0  0
    0.2643    3.0470    0.0000 H   0  0  0  0  0  0  0  0  0  0  0  0
    1.2378    1.7541    0.0000 H   0  0  0  0  0  0  0  0  0  0  0  0
    2.1315    1.8047    0.0000 H   0  0  0  0  0  0  0  0  0  0  0  0
    3.9671    1.9952    0.0000 H   0  0  0  0  0  0  0  0  0  0  0  0
    4.3021   -1.1972    0.0000 H   0  0  0  0  0  0  0  0  0  0  0  0
    2.4665   -1.3943    0.0000 H   0  0  0  0  0  0  0  0  0  0  0  0
    5.2886    1.4508    0.0000 H   0  0  0  0  0  0  0  0  0  0  0  0
    5.9161    0.5835    0.0000 H   0  0  0  0  0  0  0  0  0  0  0  0
    4.9154   -1.1219    0.0000 H   0  0  0  0  0  0  0  0  0  0  0  0
    6.7854   -0.9706    0.0000 H   0  0  0  0  0  0  0  0  0  0  0  0
    6.5928    0.8726    0.0000 H   0  0  0  0  0  0  0  0  0  0  0  0
    7.2212    0.0066    0.0000 H   0  0  0  0  0  0  0  0  0  0  0  0
   -1.6905   -0.9255    0.0000 H   0  0  0  0  0  0  0  0  0  0  0  0
   -3.3001   -1.8632    0.0000 H   0  0  0  0  0  0  0  0  0  0  0  0
   -4.9064    0.9313    0.0000 H   0  0  0  0  0  0  0  0  0  0  0  0
   -3.3001    1.8508    0.0000 H   0  0  0  0  0  0  0  0  0  0  0  0
   -6.3677   -1.7754    0.0000 H   0  0  0  0  0  0  0  0  0  0  0  0
   -6.1638    0.2388    0.0000 H   0  0  0  0  0  0  0  0  0  0  0  0
   -7.0802   -1.3721    0.0000 H   0  0  0  0  0  0  0  0  0  0  0  0
   -7.0870   -0.3021    0.0000 H   0  0  0  0  0  0  0  0  0  0  0  0
   -6.3694   -2.5975    0.0000 H   0  0  0  0  0  0  0  0  0  0  0  0
   -4.5162   -2.5975    0.0000 H   0  0  0  0  0  0  0  0  0  0  0  0
   -5.4428   -3.1325    0.0000 H   0  0  0  0  0  0  0  0  0  0  0  0
  1  2  1  0  0  0  0
  1  3  2  0  0  0  0
  1  7  1  0  0  0  0
  2  4  2  0  0  0  0
  2 12  1  0  0  0  0
  3  6  1  0  0  0  0
  4  5  1  0  0  0  0
  5  6  2  0  0  0  0
  5 22  1  0  0  0  0
  6 34  1  0  0  0  0
  7 35  1  0  0  0  0
  7 36  1  0  0  0  0
  8  9  1  0  0  0  0
  8 12  1  0  0  0  0
  9 10  2  0  0  0  0
 10 11  1  0  0  0  0
 10 13  1  0  0  0  0
 11 12  2  0  0  0  0
 11 37  1  0  0  0  0
 13 14  1  0  0  0  0
 13 18  2  0  0  0  0
 14 15  2  0  0  0  0
 14 38  1  0  0  0  0
 15 16  1  0  0  0  0
 15 39  1  0  0  0  0
 16 17  2  0  0  0  0
 16 19  1  0  0  0  0
 17 18  1  0  0  0  0
 17 40  1  0  0  0  0
 18 41  1  0  0  0  0
 19 20  1  0  0  0  0
 19 42  1  0  0  0  0
 19 43  1  0  0  0  0
 20 21  1  0  0  0  0
 20 44  1  0  0  0  0
 21 45  1  0  0  0  0
 21 46  1  0  0  0  0
 21 47  1  0  0  0  0
 22 23  1  0  0  0  0
 22 27  2  0  0  0  0
 23 24  2  0  0  0  0
 23 48  1  0  0  0  0
 24 25  1  0  0  0  0
 24 49  1  0  0  0  0
 25 26  2  0  0  0  0
 25 28  1  0  0  0  0
 26 27  1  0  0  0  0
 26 50  1  0  0  0  0
 27 51  1  0  0  0  0
 28 29  2  0  0  0  0
 28 30  2  0  0  0  0
 28 31  1  0  0  0  0
 31 32  1  0  0  0  0
 31 33  1  0  0  0  0
 31 52  1  0  0  0  0
 32 53  1  0  0  0  0
 32 54  1  0  0  0  0
 32 55  1  0  0  0  0
 33 56  1  0  0  0  0
 33 57  1  0  0  0  0
 33 58  1  0  0  0  0
M  END
>  <DRUGBANK_ID>
DB11794

>  <SECONDARY_ACCESSION_NUMBERS>
DB13922

>  <COMMON_NAME>
Berzosertib

>  <CAS_NUMBER>
1232416-25-9

>  <UNII>
L423PRV3V3

>  <SYNONYMS>
Berzosertib

$$$$
