
 OpenBabel10282417072D

 33 34  0  0  0  0  0  0  0  0999 V2000
   -0.6948   -2.6186    0.0000 P   0  0  0  0  0  0  0  0  0  0  0  0
   -1.5850   -0.1578    0.0000 F   0  0  0  0  0  0  0  0  0  0  0  0
    0.5345   -0.4127    0.0000 O   0  0  0  0  0  0  0  0  0  0  0  0
   -1.0304   -1.8649    0.0000 O   0  0  0  0  0  0  0  0  0  0  0  0
    1.5850   -1.7787    0.0000 O   0  0  0  0  0  0  0  0  0  0  0  0
   -1.4485   -2.9542    0.0000 O   0  0  0  0  0  0  0  0  0  0  0  0
   -0.3592   -3.3723    0.0000 O   0  0  0  0  0  0  0  0  0  0  0  0
   -1.5619    0.8972    0.0000 O   0  0  0  0  0  0  0  0  0  0  0  0
    0.0589   -2.2830    0.0000 O   0  0  0  0  0  0  0  0  0  0  0  0
   -0.1329    3.3723    0.0000 O   0  0  0  0  0  0  0  0  0  0  0  0
   -0.1329    0.8972    0.0000 N   0  0  0  0  0  0  0  0  0  0  0  0
   -0.8474    2.1348    0.0000 N   0  0  0  0  0  0  0  0  0  0  0  0
   -0.5454   -1.1974    0.0000 C   0  0  1  0  0  0  0  0  0  0  0  0
   -0.8003   -0.4127    0.0000 C   0  0  2  0  0  0  0  0  0  0  0  0
    0.2796   -1.1974    0.0000 C   0  0  1  0  0  0  0  0  0  0  0  0
   -0.1329    0.0721    0.0000 C   0  0  1  0  0  0  0  0  0  0  0  0
    0.7645   -1.8649    0.0000 C   0  0  0  0  0  0  0  0  0  0  0  0
   -0.8474    1.3097    0.0000 C   0  0  0  0  0  0  0  0  0  0  0  0
    0.5815    1.3097    0.0000 C   0  0  0  0  0  0  0  0  0  0  0  0
    0.5815    2.1348    0.0000 C   0  0  0  0  0  0  0  0  0  0  0  0
   -0.1329    2.5473    0.0000 C   0  0  0  0  0  0  0  0  0  0  0  0
   -0.9036    0.2390    0.0000 H   0  0  0  0  0  0  0  0  0  0  0  0
   -1.2904    2.3905    0.0000 H   0  0  0  0  0  0  0  0  0  0  0  0
    2.1551   -2.5635    0.0000 H   0  0  0  0  0  0  0  0  0  0  0  0
   -2.2333   -2.3841    0.0000 H   0  0  0  0  0  0  0  0  0  0  0  0
   -0.9293   -4.1571    0.0000 H   0  0  0  0  0  0  0  0  0  0  0  0
   -1.6022   -1.0300    0.0000 H   0  0  0  0  0  0  0  0  0  0  0  0
    1.3364   -1.0300    0.0000 H   0  0  0  0  0  0  0  0  0  0  0  0
    0.8205    0.5579    0.0000 H   0  0  0  0  0  0  0  0  0  0  0  0
    0.3292   -2.8424    0.0000 H   0  0  0  0  0  0  0  0  0  0  0  0
   -0.2996   -1.9767    0.0000 H   0  0  0  0  0  0  0  0  0  0  0  0
    1.4752    0.7937    0.0000 H   0  0  0  0  0  0  0  0  0  0  0  0
    1.4752    2.6508    0.0000 H   0  0  0  0  0  0  0  0  0  0  0  0
  1  4  1  0  0  0  0
  1  6  1  0  0  0  0
  1  7  1  0  0  0  0
  1  9  2  0  0  0  0
  2 14  1  0  0  0  0
  3 15  1  0  0  0  0
  3 16  1  0  0  0  0
  5 17  1  0  0  0  0
  5 24  1  0  0  0  0
  6 25  1  0  0  0  0
  7 26  1  0  0  0  0
  8 18  2  0  0  0  0
 10 21  2  0  0  0  0
 11 18  1  0  0  0  0
 11 19  1  0  0  0  0
 12 18  1  0  0  0  0
 12 21  1  0  0  0  0
 12 23  1  0  0  0  0
 13  4  1  0  0  0  0
 13 14  1  0  0  0  0
 13 15  1  0  0  0  0
 13 27  1  6  0  0  0
 14 16  1  0  0  0  0
 14 22  1  6  0  0  0
 15 17  1  0  0  0  0
 15 28  1  1  0  0  0
 16 11  1  0  0  0  0
 16 29  1  1  0  0  0
 17 30  1  0  0  0  0
 17 31  1  0  0  0  0
 19 20  2  0  0  0  0
 19 32  1  0  0  0  0
 20 21  1  0  0  0  0
 20 33  1  0  0  0  0
M  END
>  <DRUGBANK_ID>
DB03155

>  <SECONDARY_ACCESSION_NUMBERS>
EXPT03185

>  <COMMON_NAME>
2'-fluoro-2'-deoxyuridine 3'-monophosphate

$$$$
