
 OpenBabel10282417072D

 53 53  0  0  0  0  0  0  0  0999 V2000
    3.5710   -5.5291    0.0000 O   0  0  0  0  0  0  0  0  0  0  0  0
    3.5721   -4.7041    0.0000 C   0  0  0  0  0  0  0  0  0  0  0  0
    4.1440   -4.3751    0.0000 O   0  0  0  0  0  0  0  0  0  0  0  0
    2.8584   -4.2900    0.0000 C   0  0  0  0  0  0  0  0  0  0  0  0
    2.2865   -4.6188    0.0000 O   0  0  0  0  0  0  0  0  0  0  0  0
    2.8596   -3.4650    0.0000 N   0  0  0  0  0  0  0  0  0  0  0  0
    2.1459   -3.0509    0.0000 C   0  0  0  0  0  0  0  0  0  0  0  0
    2.1459   -2.2264    0.0000 C   0  0  0  0  0  0  0  0  0  0  0  0
    1.4318   -1.8140    0.0000 C   0  0  0  0  0  0  0  0  0  0  0  0
    0.7177   -2.2264    0.0000 C   0  0  0  0  0  0  0  0  0  0  0  0
    0.7177   -3.0509    0.0000 C   0  0  0  0  0  0  0  0  0  0  0  0
    1.4318   -3.4633    0.0000 C   0  0  0  0  0  0  0  0  0  0  0  0
    0.0031   -1.8138    0.0000 C   0  0  0  0  0  0  0  0  0  0  0  0
    0.0025   -0.9888    0.0000 C   0  0  0  0  0  0  0  0  0  0  0  0
   -0.7119   -0.5762    0.0000 N   0  0  0  0  0  0  0  0  0  0  0  0
   -0.7125    0.2488    0.0000 C   0  0  0  0  0  0  0  0  0  0  0  0
   -0.1412    0.5788    0.0000 O   0  0  0  0  0  0  0  0  0  0  0  0
   -1.4269    0.6613    0.0000 C   0  0  1  0  0  0  0  0  0  0  0  0
   -1.4275    1.4864    0.0000 N   0  0  0  0  0  0  0  0  0  0  0  0
   -2.1420    1.8989    0.0000 C   0  0  0  0  0  0  0  0  0  0  0  0
   -2.7132    1.5689    0.0000 O   0  0  0  0  0  0  0  0  0  0  0  0
   -2.1426    2.7240    0.0000 C   0  0  0  0  0  0  0  0  0  0  0  0
   -2.8571    3.1365    0.0000 C   0  0  0  0  0  0  0  0  0  0  0  0
   -2.8576    3.9616    0.0000 N   0  0  0  0  0  0  0  0  0  0  0  0
   -3.5722    4.3742    0.0000 C   0  0  0  0  0  0  0  0  0  0  0  0
   -4.1433    4.0441    0.0000 O   0  0  0  0  0  0  0  0  0  0  0  0
   -3.5727    5.1993    0.0000 C   0  0  0  0  0  0  0  0  0  0  0  0
   -4.1440    5.5291    0.0000 Br  0  0  0  0  0  0  0  0  0  0  0  0
   -2.1414    0.2486    0.0000 C   0  0  0  0  0  0  0  0  0  0  0  0
   -2.8562    0.6604    0.0000 O   0  0  0  0  0  0  0  0  0  0  0  0
    3.3362   -3.1909    0.0000 H   0  0  0  0  0  0  0  0  0  0  0  0
   -1.1879   -0.8512    0.0000 H   0  0  0  0  0  0  0  0  0  0  0  0
   -0.9510    0.9364    0.0000 H   0  0  0  0  0  0  0  0  0  0  0  0
   -0.9515    1.7614    0.0000 H   0  0  0  0  0  0  0  0  0  0  0  0
   -2.3816    4.2366    0.0000 H   0  0  0  0  0  0  0  0  0  0  0  0
    2.7589   -5.9965    0.0000 H   0  0  0  0  0  0  0  0  0  0  0  0
    3.0397   -1.7105    0.0000 H   0  0  0  0  0  0  0  0  0  0  0  0
    1.4318   -0.7820    0.0000 H   0  0  0  0  0  0  0  0  0  0  0  0
   -0.1761   -3.5668    0.0000 H   0  0  0  0  0  0  0  0  0  0  0  0
    1.4318   -4.4953    0.0000 H   0  0  0  0  0  0  0  0  0  0  0  0
   -0.9234   -2.3491    0.0000 H   0  0  0  0  0  0  0  0  0  0  0  0
   -0.9238   -1.2793    0.0000 H   0  0  0  0  0  0  0  0  0  0  0  0
    0.9290   -0.4535    0.0000 H   0  0  0  0  0  0  0  0  0  0  0  0
    0.0024    0.0812    0.0000 H   0  0  0  0  0  0  0  0  0  0  0  0
   -1.2162    3.2593    0.0000 H   0  0  0  0  0  0  0  0  0  0  0  0
   -2.1428    3.7940    0.0000 H   0  0  0  0  0  0  0  0  0  0  0  0
   -3.7836    2.6012    0.0000 H   0  0  0  0  0  0  0  0  0  0  0  0
   -3.7840    3.6711    0.0000 H   0  0  0  0  0  0  0  0  0  0  0  0
   -2.6462    5.7346    0.0000 H   0  0  0  0  0  0  0  0  0  0  0  0
   -3.5729    6.2693    0.0000 H   0  0  0  0  0  0  0  0  0  0  0  0
   -2.1408   -0.8214    0.0000 H   0  0  0  0  0  0  0  0  0  0  0  0
   -3.0676   -0.2871    0.0000 H   0  0  0  0  0  0  0  0  0  0  0  0
   -2.8571    1.6304    0.0000 H   0  0  0  0  0  0  0  0  0  0  0  0
  1 36  1  0  0  0  0
  2  1  1  0  0  0  0
  2  3  2  0  0  0  0
  4  2  1  0  0  0  0
  4  5  2  0  0  0  0
  4  6  1  0  0  0  0
  7  6  1  0  0  0  0
  7  8  2  0  0  0  0
  8  9  1  0  0  0  0
  8 37  1  0  0  0  0
  9 38  1  0  0  0  0
 10  9  2  0  0  0  0
 10 11  1  0  0  0  0
 11 12  2  0  0  0  0
 11 39  1  0  0  0  0
 12  7  1  0  0  0  0
 12 40  1  0  0  0  0
 13 10  1  0  0  0  0
 13 41  1  0  0  0  0
 13 42  1  0  0  0  0
 14 13  1  0  0  0  0
 14 15  1  0  0  0  0
 14 43  1  0  0  0  0
 14 44  1  0  0  0  0
 16 15  1  0  0  0  0
 16 17  2  0  0  0  0
 18 16  1  0  0  0  0
 18 19  1  0  0  0  0
 18 29  1  0  0  0  0
 18 33  1  1  0  0  0
 20 19  1  0  0  0  0
 20 21  2  0  0  0  0
 22 20  1  0  0  0  0
 22 45  1  0  0  0  0
 22 46  1  0  0  0  0
 23 22  1  0  0  0  0
 23 24  1  0  0  0  0
 23 47  1  0  0  0  0
 23 48  1  0  0  0  0
 25 24  1  0  0  0  0
 25 26  2  0  0  0  0
 27 25  1  0  0  0  0
 27 49  1  0  0  0  0
 27 50  1  0  0  0  0
 28 27  1  0  0  0  0
 29 30  1  0  0  0  0
 29 51  1  0  0  0  0
 29 52  1  0  0  0  0
 30 53  1  0  0  0  0
 31  6  1  0  0  0  0
 32 15  1  0  0  0  0
 34 19  1  0  0  0  0
 35 24  1  0  0  0  0
M  END
>  <DRUGBANK_ID>
DB02784

>  <SECONDARY_ACCESSION_NUMBERS>
EXPT01429

>  <COMMON_NAME>
N-(Bromoacetyl)-beta-alanyl-N-(2-{4-[(carboxycarbonyl)amino]phenyl}ethyl)-L-serinamide

>  <SYNONYMS>
2-[4-[2-[[(2S)-2-[3-[(2-bromoacetyl)amino]propanoylamino]-3-hydroxypropanoyl]amino]ethyl]anilino]-2-oxoacetic acid; N-(Bromoacetyl)-Î²-alanyl-N-(2-{4-[(carboxycarbonyl)amino]phenyl}ethyl)-L-serinamide

$$$$
