
 OpenBabel10282417072D

 44 43  0  0  1  0  0  0  0  0999 V2000
    0.7013   -0.6616    0.0000 C   0  0  0  0  0  0  0  0  0  0  0  0
   -0.1237   -0.6616    0.0000 C   0  0  3  0  0  0  0  0  0  0  0  0
   -0.3786    0.1230    0.0000 N   0  0  0  0  0  0  0  0  0  0  0  0
    0.2888    0.6079    0.0000 C   0  0  3  0  0  0  0  0  0  0  0  0
    0.9563    0.1230    0.0000 S   0  0  0  0  0  0  0  0  0  0  0  0
    0.2888    1.4329    0.0000 C   0  0  0  0  0  0  0  0  0  0  0  0
    1.0033    1.8454    0.0000 O   0  0  0  0  0  0  0  0  0  0  0  0
   -0.4256    1.8454    0.0000 O   0  0  0  0  0  0  0  0  0  0  0  0
   -0.6086   -1.3290    0.0000 C   0  0  0  0  0  0  0  0  0  0  0  0
   -0.2730   -2.0827    0.0000 O   0  0  0  0  0  0  0  0  0  0  0  0
   -1.4291   -1.2428    0.0000 O   0  0  0  0  0  0  0  0  0  0  0  0
    5.6290    0.2750    0.0000 C   0  0  0  0  0  0  0  0  0  0  0  0
    4.9146   -0.1375    0.0000 C   0  0  0  0  0  0  0  0  0  0  0  0
    4.2001    0.2750    0.0000 C   0  0  1  0  0  0  0  0  0  0  0  0
    3.4856   -0.1375    0.0000 C   0  0  0  0  0  0  0  0  0  0  0  0
    2.7712    0.2750    0.0000 O   0  0  0  0  0  0  0  0  0  0  0  0
    3.4856   -0.9625    0.0000 O   0  0  0  0  0  0  0  0  0  0  0  0
    4.2001    1.1000    0.0000 N   0  0  0  0  0  0  0  0  0  0  0  0
    6.3435   -0.1375    0.0000 C   0  0  0  0  0  0  0  0  0  0  0  0
    7.0580    0.2750    0.0000 N   0  0  0  0  0  0  0  0  0  0  0  0
    7.7725   -0.1375    0.0000 C   0  0  0  0  0  0  0  0  0  0  0  0
    8.4869    0.2750    0.0000 N   0  0  0  0  0  0  0  0  0  0  0  0
    7.7725   -0.9625    0.0000 N   0  0  0  0  0  0  0  0  0  0  0  0
    1.3302   -1.5273    0.0000 H   0  0  0  0  0  0  0  0  0  0  0  0
    1.7581   -0.4943    0.0000 H   0  0  0  0  0  0  0  0  0  0  0  0
    0.5052    0.2040    0.0000 H   0  0  0  0  0  0  0  0  0  0  0  0
   -1.3487    0.4382    0.0000 H   0  0  0  0  0  0  0  0  0  0  0  0
    0.2888   -0.4621    0.0000 H   0  0  0  0  0  0  0  0  0  0  0  0
   -0.4256    2.7824    0.0000 H   0  0  0  0  0  0  0  0  0  0  0  0
   -1.8103   -0.3868    0.0000 H   0  0  0  0  0  0  0  0  0  0  0  0
    5.6290    1.3450    0.0000 H   0  0  0  0  0  0  0  0  0  0  0  0
    6.5556    0.8100    0.0000 H   0  0  0  0  0  0  0  0  0  0  0  0
    4.9146   -1.2075    0.0000 H   0  0  0  0  0  0  0  0  0  0  0  0
    3.9880   -0.6725    0.0000 H   0  0  0  0  0  0  0  0  0  0  0  0
    5.1267    0.8100    0.0000 H   0  0  0  0  0  0  0  0  0  0  0  0
    2.6741   -1.4310    0.0000 H   0  0  0  0  0  0  0  0  0  0  0  0
    5.0834    1.6100    0.0000 H   0  0  0  0  0  0  0  0  0  0  0  0
    3.3168    1.6100    0.0000 H   0  0  0  0  0  0  0  0  0  0  0  0
    6.3435   -1.2075    0.0000 H   0  0  0  0  0  0  0  0  0  0  0  0
    7.2701   -0.6725    0.0000 H   0  0  0  0  0  0  0  0  0  0  0  0
    7.0580    1.2595    0.0000 H   0  0  0  0  0  0  0  0  0  0  0  0
    9.3395   -0.2172    0.0000 H   0  0  0  0  0  0  0  0  0  0  0  0
    6.9199   -1.4548    0.0000 H   0  0  0  0  0  0  0  0  0  0  0  0
    8.6251   -1.4547    0.0000 H   0  0  0  0  0  0  0  0  0  0  0  0
  1  2  1  0  0  0  0
  1  5  1  0  0  0  0
  1 24  1  0  0  0  0
  1 25  1  0  0  0  0
  2  3  1  0  0  0  0
  2  9  1  0  0  0  0
  2 26  1  0  0  0  0
  3  4  1  0  0  0  0
  3 27  1  0  0  0  0
  4  5  1  0  0  0  0
  4  6  1  0  0  0  0
  4 28  1  0  0  0  0
  6  7  2  0  0  0  0
  6  8  1  0  0  0  0
  8 29  1  0  0  0  0
  9 10  2  0  0  0  0
  9 11  1  0  0  0  0
 11 30  1  0  0  0  0
 12 13  1  0  0  0  0
 12 19  1  0  0  0  0
 12 31  1  0  0  0  0
 12 32  1  0  0  0  0
 13 14  1  0  0  0  0
 13 33  1  0  0  0  0
 13 34  1  0  0  0  0
 14 15  1  0  0  0  0
 14 18  1  0  0  0  0
 14 35  1  6  0  0  0
 15 16  2  0  0  0  0
 15 17  1  0  0  0  0
 17 36  1  0  0  0  0
 18 37  1  0  0  0  0
 18 38  1  0  0  0  0
 19 20  1  0  0  0  0
 19 39  1  0  0  0  0
 19 40  1  0  0  0  0
 20 21  1  0  0  0  0
 20 41  1  0  0  0  0
 21 22  2  0  0  0  0
 21 23  1  0  0  0  0
 22 42  1  0  0  0  0
 23 43  1  0  0  0  0
 23 44  1  0  0  0  0
M  END
>  <DRUGBANK_ID>
DB13748

>  <COMMON_NAME>
Tidiacic arginine

>  <CAS_NUMBER>
30986-62-0

>  <UNII>
A9539XWW0P

$$$$
