
 OpenBabel10282417072D

 82 84  0  0  1  0  0  0  0  0999 V2000
    5.5001    0.5948    0.0000 O   0  0  0  0  0  0  0  0  0  0  0  0
    4.8396   -0.3143    0.0000 O   0  0  0  0  0  0  0  0  0  0  0  0
    6.9013    3.2187    0.0000 O   0  0  0  0  0  0  0  0  0  0  0  0
    4.0145   -3.1724    0.0000 O   0  0  0  0  0  0  0  0  0  0  0  0
    8.2182    1.4779    0.0000 O   0  0  0  0  0  0  0  0  0  0  0  0
    6.0771   -1.0289    0.0000 N   0  0  0  0  0  0  0  0  0  0  0  0
    6.8591    1.0364    0.0000 N   0  0  0  0  0  0  0  0  0  0  0  0
    4.0145   -1.7433    0.0000 N   0  0  0  0  0  0  0  0  0  0  0  0
    2.7770   -2.4578    0.0000 N   0  0  0  0  0  0  0  0  0  0  0  0
    8.5153    2.8757    0.0000 N   0  0  0  0  0  0  0  0  0  0  0  0
    7.3467   -0.6164    0.0000 C   0  0  1  0  0  0  0  0  0  0  0  0
    8.0616   -1.0289    0.0000 C   0  0  0  0  0  0  0  0  0  0  0  0
    7.3467   -1.4414    0.0000 C   0  0  1  0  0  0  0  0  0  0  0  0
    6.5620   -0.3614    0.0000 C   0  0  1  0  0  0  0  0  0  0  0  0
    6.5620   -1.6963    0.0000 C   0  0  0  0  0  0  0  0  0  0  0  0
    8.4741   -1.7433    0.0000 C   0  0  0  0  0  0  0  0  0  0  0  0
    8.4741   -0.3143    0.0000 C   0  0  0  0  0  0  0  0  0  0  0  0
    6.3071    0.4232    0.0000 C   0  0  0  0  0  0  0  0  0  0  0  0
    5.2521   -1.0289    0.0000 C   0  0  0  0  0  0  0  0  0  0  0  0
    4.8396   -1.7433    0.0000 C   0  0  2  0  0  0  0  0  0  0  0  0
    5.2521   -2.4578    0.0000 C   0  0  0  0  0  0  0  0  0  0  0  0
    6.6042    1.8210    0.0000 C   0  0  3  0  0  0  0  0  0  0  0  0
    5.7972    1.9925    0.0000 C   0  0  0  0  0  0  0  0  0  0  0  0
    5.5422    2.7772    0.0000 C   0  0  0  0  0  0  0  0  0  0  0  0
    5.6646   -3.1724    0.0000 C   0  0  0  0  0  0  0  0  0  0  0  0
    4.5376   -2.8703    0.0000 C   0  0  0  0  0  0  0  0  0  0  0  0
    5.9666   -2.0453    0.0000 C   0  0  0  0  0  0  0  0  0  0  0  0
    7.1562    2.4341    0.0000 C   0  0  0  0  0  0  0  0  0  0  0  0
    5.9168    3.5123    0.0000 C   0  0  0  0  0  0  0  0  0  0  0  0
    4.8071    3.1517    0.0000 C   0  0  0  0  0  0  0  0  0  0  0  0
    5.1817    3.8868    0.0000 C   0  0  0  0  0  0  0  0  0  0  0  0
    3.6020   -2.4578    0.0000 C   0  0  0  0  0  0  0  0  0  0  0  0
    7.9632    2.2625    0.0000 C   0  0  0  0  0  0  0  0  0  0  0  0
    2.3645   -3.1724    0.0000 C   0  0  0  0  0  0  0  0  0  0  0  0
    1.9520   -3.8868    0.0000 C   0  0  0  0  0  0  0  0  0  0  0  0
    1.6500   -2.7599    0.0000 C   0  0  0  0  0  0  0  0  0  0  0  0
    3.0791   -3.5849    0.0000 C   0  0  0  0  0  0  0  0  0  0  0  0
    7.6318    0.0243    0.0000 H   0  0  0  0  0  0  0  0  0  0  0  0
    7.6318   -2.0820    0.0000 H   0  0  0  0  0  0  0  0  0  0  0  0
    7.8221    0.8317    0.0000 H   0  0  0  0  0  0  0  0  0  0  0  0
    3.5222   -0.8907    0.0000 H   0  0  0  0  0  0  0  0  0  0  0  0
    2.2847   -1.6052    0.0000 H   0  0  0  0  0  0  0  0  0  0  0  0
    9.4783    2.6710    0.0000 H   0  0  0  0  0  0  0  0  0  0  0  0
    8.2110    3.8120    0.0000 H   0  0  0  0  0  0  0  0  0  0  0  0
    5.5052   -0.1940    0.0000 H   0  0  0  0  0  0  0  0  0  0  0  0
    6.2313   -2.7139    0.0000 H   0  0  0  0  0  0  0  0  0  0  0  0
    7.3186   -2.4529    0.0000 H   0  0  0  0  0  0  0  0  0  0  0  0
    7.9391   -2.6700    0.0000 H   0  0  0  0  0  0  0  0  0  0  0  0
    9.5441   -1.7433    0.0000 H   0  0  0  0  0  0  0  0  0  0  0  0
    9.0091   -2.6699    0.0000 H   0  0  0  0  0  0  0  0  0  0  0  0
    9.5441   -0.3142    0.0000 H   0  0  0  0  0  0  0  0  0  0  0  0
    7.9390    0.6123    0.0000 H   0  0  0  0  0  0  0  0  0  0  0  0
    9.0090    0.6124    0.0000 H   0  0  0  0  0  0  0  0  0  0  0  0
    4.3046   -0.8166    0.0000 H   0  0  0  0  0  0  0  0  0  0  0  0
    5.8882    1.0258    0.0000 H   0  0  0  0  0  0  0  0  0  0  0  0
    5.0813    1.1973    0.0000 H   0  0  0  0  0  0  0  0  0  0  0  0
    4.7506    2.2149    0.0000 H   0  0  0  0  0  0  0  0  0  0  0  0
    5.2115    3.7948    0.0000 H   0  0  0  0  0  0  0  0  0  0  0  0
    5.1295   -4.0990    0.0000 H   0  0  0  0  0  0  0  0  0  0  0  0
    6.7346   -3.1725    0.0000 H   0  0  0  0  0  0  0  0  0  0  0  0
    6.1995   -4.0991    0.0000 H   0  0  0  0  0  0  0  0  0  0  0  0
    3.6110   -2.3353    0.0000 H   0  0  0  0  0  0  0  0  0  0  0  0
    4.5376   -3.9403    0.0000 H   0  0  0  0  0  0  0  0  0  0  0  0
    3.6109   -3.4053    0.0000 H   0  0  0  0  0  0  0  0  0  0  0  0
    6.8932   -2.5803    0.0000 H   0  0  0  0  0  0  0  0  0  0  0  0
    5.9666   -0.9753    0.0000 H   0  0  0  0  0  0  0  0  0  0  0  0
    6.8933   -1.5103    0.0000 H   0  0  0  0  0  0  0  0  0  0  0  0
    6.9344    3.8430    0.0000 H   0  0  0  0  0  0  0  0  0  0  0  0
    6.0007    4.5790    0.0000 H   0  0  0  0  0  0  0  0  0  0  0  0
    3.7895    2.8210    0.0000 H   0  0  0  0  0  0  0  0  0  0  0  0
    4.1122    3.9654    0.0000 H   0  0  0  0  0  0  0  0  0  0  0  0
    4.8510    4.9044    0.0000 H   0  0  0  0  0  0  0  0  0  0  0  0
    4.1150    3.9708    0.0000 H   0  0  0  0  0  0  0  0  0  0  0  0
    0.8820   -3.8868    0.0000 H   0  0  0  0  0  0  0  0  0  0  0  0
    2.4870   -4.8135    0.0000 H   0  0  0  0  0  0  0  0  0  0  0  0
    1.4170   -4.8134    0.0000 H   0  0  0  0  0  0  0  0  0  0  0  0
    1.6500   -1.6899    0.0000 H   0  0  0  0  0  0  0  0  0  0  0  0
    0.7234   -3.2949    0.0000 H   0  0  0  0  0  0  0  0  0  0  0  0
    0.7233   -2.2249    0.0000 H   0  0  0  0  0  0  0  0  0  0  0  0
    3.0792   -4.6549    0.0000 H   0  0  0  0  0  0  0  0  0  0  0  0
    4.0057   -3.0498    0.0000 H   0  0  0  0  0  0  0  0  0  0  0  0
    4.0058   -4.1198    0.0000 H   0  0  0  0  0  0  0  0  0  0  0  0
  1 18  2  0  0  0  0
  2 19  2  0  0  0  0
  3 28  2  0  0  0  0
  4 32  2  0  0  0  0
  5 33  2  0  0  0  0
  6 14  1  0  0  0  0
  6 15  1  0  0  0  0
  6 19  1  0  0  0  0
  7 18  1  0  0  0  0
  7 22  1  0  0  0  0
  7 40  1  0  0  0  0
  8 32  1  0  0  0  0
  8 41  1  0  0  0  0
  9 32  1  0  0  0  0
  9 34  1  0  0  0  0
  9 42  1  0  0  0  0
 10 33  1  0  0  0  0
 10 43  1  0  0  0  0
 10 44  1  0  0  0  0
 11 12  1  0  0  0  0
 11 13  1  0  0  0  0
 11 14  1  0  0  0  0
 11 38  1  6  0  0  0
 12 13  1  0  0  0  0
 12 16  1  0  0  0  0
 12 17  1  0  0  0  0
 13 15  1  0  0  0  0
 13 39  1  6  0  0  0
 14 18  1  0  0  0  0
 14 45  1  1  0  0  0
 15 46  1  0  0  0  0
 15 47  1  0  0  0  0
 16 48  1  0  0  0  0
 16 49  1  0  0  0  0
 16 50  1  0  0  0  0
 17 51  1  0  0  0  0
 17 52  1  0  0  0  0
 17 53  1  0  0  0  0
 19 20  1  0  0  0  0
 20  8  1  0  0  0  0
 20 21  1  0  0  0  0
 20 54  1  1  0  0  0
 21 25  1  0  0  0  0
 21 26  1  0  0  0  0
 21 27  1  0  0  0  0
 22 23  1  0  0  0  0
 22 28  1  0  0  0  0
 22 55  1  0  0  0  0
 23 24  1  0  0  0  0
 23 56  1  0  0  0  0
 23 57  1  0  0  0  0
 24 29  1  0  0  0  0
 24 30  1  0  0  0  0
 24 58  1  0  0  0  0
 25 59  1  0  0  0  0
 25 60  1  0  0  0  0
 25 61  1  0  0  0  0
 26 62  1  0  0  0  0
 26 63  1  0  0  0  0
 26 64  1  0  0  0  0
 27 65  1  0  0  0  0
 27 66  1  0  0  0  0
 27 67  1  0  0  0  0
 28 33  1  0  0  0  0
 29 31  1  0  0  0  0
 29 68  1  0  0  0  0
 29 69  1  0  0  0  0
 30 31  1  0  0  0  0
 30 70  1  0  0  0  0
 30 71  1  0  0  0  0
 31 72  1  0  0  0  0
 31 73  1  0  0  0  0
 34 35  1  0  0  0  0
 34 36  1  0  0  0  0
 34 37  1  0  0  0  0
 35 74  1  0  0  0  0
 35 75  1  0  0  0  0
 35 76  1  0  0  0  0
 36 77  1  0  0  0  0
 36 78  1  0  0  0  0
 36 79  1  0  0  0  0
 37 80  1  0  0  0  0
 37 81  1  0  0  0  0
 37 82  1  0  0  0  0
M  END
>  <DRUGBANK_ID>
DB08873

>  <SECONDARY_ACCESSION_NUMBERS>
DB05665

>  <COMMON_NAME>
Boceprevir

>  <CAS_NUMBER>
394730-60-0

>  <UNII>
89BT58KELH

>  <SYNONYMS>
Boceprevir

$$$$
