
 OpenBabel10282417072D

 70 75  0  0  0  0  0  0  0  0999 V2000
   -5.0747   -5.2354    0.0000 C   0  0  0  0  0  0  0  0  0  0  0  0
    0.6411    2.1896    0.0000 C   0  0  0  0  0  0  0  0  0  0  0  0
   -0.0734    2.6021    0.0000 C   0  0  0  0  0  0  0  0  0  0  0  0
    1.3556   -2.3479    0.0000 C   0  0  0  0  0  0  0  0  0  0  0  0
    2.0701   -1.1104    0.0000 C   0  0  0  0  0  0  0  0  0  0  0  0
   -3.6457   -5.2354    0.0000 C   0  0  0  0  0  0  0  0  0  0  0  0
   -4.3602   -3.9979    0.0000 C   0  0  0  0  0  0  0  0  0  0  0  0
   -2.9312   -4.8229    0.0000 C   0  0  0  0  0  0  0  0  0  0  0  0
   -3.6457   -3.5854    0.0000 C   0  0  0  0  0  0  0  0  0  0  0  0
   -2.2168   -3.5854    0.0000 C   0  0  0  0  0  0  0  0  0  0  0  0
    2.0701   -2.7604    0.0000 C   0  0  0  0  0  0  0  0  0  0  0  0
    2.7845   -1.5229    0.0000 C   0  0  0  0  0  0  0  0  0  0  0  0
   -1.5023   -3.9979    0.0000 C   0  0  0  0  0  0  0  0  0  0  0  0
   -1.5023   -2.3479    0.0000 C   0  0  0  0  0  0  0  0  0  0  0  0
   -0.0734   -2.3479    0.0000 C   0  0  0  0  0  0  0  0  0  0  0  0
   -2.2168   -0.2854    0.0000 C   0  0  0  0  0  0  0  0  0  0  0  0
   -2.0574    1.7771    0.0000 C   0  0  0  0  0  0  0  0  0  0  0  0
    1.3556   -1.5229    0.0000 C   0  0  0  0  0  0  0  0  0  0  0  0
   -0.7878   -2.7604    0.0000 C   0  0  0  0  0  0  0  0  0  0  0  0
    0.6411    1.3646    0.0000 C   0  0  0  0  0  0  0  0  0  0  0  0
   -1.5023   -1.5229    0.0000 C   0  0  0  0  0  0  0  0  0  0  0  0
   -0.7878    2.1896    0.0000 C   0  0  0  0  0  0  0  0  0  0  0  0
   -0.0734   -1.5229    0.0000 C   0  0  0  0  0  0  0  0  0  0  0  0
   -0.7878   -1.1104    0.0000 C   0  0  0  0  0  0  0  0  0  0  0  0
   -0.0734    0.9521    0.0000 C   0  0  0  0  0  0  0  0  0  0  0  0
   -0.7878    1.3646    0.0000 C   0  0  0  0  0  0  0  0  0  0  0  0
   -0.7878   -0.2854    0.0000 C   0  0  0  0  0  0  0  0  0  0  0  0
    1.3556    0.9521    0.0000 Cl  0  0  0  0  0  0  0  0  0  0  0  0
   -2.2168   -1.1104    0.0000 N   0  0  0  0  0  0  0  0  0  0  0  0
   -1.5023    0.1271    0.0000 N   0  0  0  0  0  0  0  0  0  0  0  0
   -0.0734    0.1271    0.0000 N   0  0  0  0  0  0  0  0  0  0  0  0
   -4.3602   -4.8229    0.0000 N   0  0  0  0  0  0  0  0  0  0  0  0
   -2.9312   -3.9979    0.0000 N   0  0  0  0  0  0  0  0  0  0  0  0
    2.7845   -2.3479    0.0000 O   0  0  0  0  0  0  0  0  0  0  0  0
   -0.7878   -3.5854    0.0000 O   0  0  0  0  0  0  0  0  0  0  0  0
   -1.5724    2.4445    0.0000 O   0  0  0  0  0  0  0  0  0  0  0  0
   -1.5724    1.1096    0.0000 O   0  0  0  0  0  0  0  0  0  0  0  0
    0.6411   -1.1104    0.0000 O   0  0  0  0  0  0  0  0  0  0  0  0
   -6.0013   -4.7004    0.0000 H   0  0  0  0  0  0  0  0  0  0  0  0
   -5.0747   -6.3054    0.0000 H   0  0  0  0  0  0  0  0  0  0  0  0
   -6.0014   -5.7704    0.0000 H   0  0  0  0  0  0  0  0  0  0  0  0
    1.5348    2.7056    0.0000 H   0  0  0  0  0  0  0  0  0  0  0  0
   -0.0734    3.6341    0.0000 H   0  0  0  0  0  0  0  0  0  0  0  0
    0.4290   -2.8829    0.0000 H   0  0  0  0  0  0  0  0  0  0  0  0
    0.4290   -1.8129    0.0000 H   0  0  0  0  0  0  0  0  0  0  0  0
    2.0701   -0.0404    0.0000 H   0  0  0  0  0  0  0  0  0  0  0  0
    1.1435   -0.5754    0.0000 H   0  0  0  0  0  0  0  0  0  0  0  0
   -3.6457   -6.3054    0.0000 H   0  0  0  0  0  0  0  0  0  0  0  0
   -4.5723   -5.7704    0.0000 H   0  0  0  0  0  0  0  0  0  0  0  0
   -5.2868   -3.4629    0.0000 H   0  0  0  0  0  0  0  0  0  0  0  0
   -5.2868   -4.5329    0.0000 H   0  0  0  0  0  0  0  0  0  0  0  0
   -2.0046   -5.3579    0.0000 H   0  0  0  0  0  0  0  0  0  0  0  0
   -2.0046   -4.2879    0.0000 H   0  0  0  0  0  0  0  0  0  0  0  0
   -3.6457   -2.5154    0.0000 H   0  0  0  0  0  0  0  0  0  0  0  0
   -2.7191   -3.0504    0.0000 H   0  0  0  0  0  0  0  0  0  0  0  0
   -2.2168   -2.5154    0.0000 H   0  0  0  0  0  0  0  0  0  0  0  0
   -3.1435   -3.0504    0.0000 H   0  0  0  0  0  0  0  0  0  0  0  0
    2.0701   -3.8304    0.0000 H   0  0  0  0  0  0  0  0  0  0  0  0
    2.9968   -3.2954    0.0000 H   0  0  0  0  0  0  0  0  0  0  0  0
    3.7112   -0.9879    0.0000 H   0  0  0  0  0  0  0  0  0  0  0  0
    3.7111   -2.0579    0.0000 H   0  0  0  0  0  0  0  0  0  0  0  0
   -1.5023   -5.0679    0.0000 H   0  0  0  0  0  0  0  0  0  0  0  0
   -0.5757   -4.5329    0.0000 H   0  0  0  0  0  0  0  0  0  0  0  0
   -2.3960   -2.8639    0.0000 H   0  0  0  0  0  0  0  0  0  0  0  0
    0.8203   -2.8639    0.0000 H   0  0  0  0  0  0  0  0  0  0  0  0
   -3.1105    0.2306    0.0000 H   0  0  0  0  0  0  0  0  0  0  0  0
   -3.1274    1.7771    0.0000 H   0  0  0  0  0  0  0  0  0  0  0  0
   -2.5432    0.8237    0.0000 H   0  0  0  0  0  0  0  0  0  0  0  0
    1.3556   -0.4529    0.0000 H   0  0  0  0  0  0  0  0  0  0  0  0
    0.7792   -0.3651    0.0000 H   0  0  0  0  0  0  0  0  0  0  0  0
  1 39  1  0  0  0  0
  1 40  1  0  0  0  0
  1 41  1  0  0  0  0
  2 42  1  0  0  0  0
  3  2  2  0  0  0  0
  3 43  1  0  0  0  0
  4 44  1  0  0  0  0
  4 45  1  0  0  0  0
  5 46  1  0  0  0  0
  5 47  1  0  0  0  0
  6 48  1  0  0  0  0
  6 49  1  0  0  0  0
  7 50  1  0  0  0  0
  7 51  1  0  0  0  0
  8  6  1  0  0  0  0
  8 52  1  0  0  0  0
  8 53  1  0  0  0  0
  9  7  1  0  0  0  0
  9 54  1  0  0  0  0
  9 55  1  0  0  0  0
 10 56  1  0  0  0  0
 10 57  1  0  0  0  0
 11  4  1  0  0  0  0
 11 58  1  0  0  0  0
 11 59  1  0  0  0  0
 12  5  1  0  0  0  0
 12 60  1  0  0  0  0
 12 61  1  0  0  0  0
 13 10  1  0  0  0  0
 13 62  1  0  0  0  0
 13 63  1  0  0  0  0
 14 64  1  0  0  0  0
 15 65  1  0  0  0  0
 16 66  1  0  0  0  0
 17 67  1  0  0  0  0
 17 68  1  0  0  0  0
 18  4  1  0  0  0  0
 18  5  1  0  0  0  0
 18 69  1  0  0  0  0
 19 14  2  0  0  0  0
 19 15  1  0  0  0  0
 20  2  1  0  0  0  0
 21 14  1  0  0  0  0
 22  3  1  0  0  0  0
 23 15  2  0  0  0  0
 24 21  2  0  0  0  0
 24 23  1  0  0  0  0
 25 20  2  0  0  0  0
 26 22  2  0  0  0  0
 26 25  1  0  0  0  0
 27 24  1  0  0  0  0
 28 20  1  0  0  0  0
 29 16  2  0  0  0  0
 29 21  1  0  0  0  0
 30 16  1  0  0  0  0
 30 27  2  0  0  0  0
 31 25  1  0  0  0  0
 31 27  1  0  0  0  0
 31 70  1  0  0  0  0
 32  1  1  0  0  0  0
 32  6  1  0  0  0  0
 32  7  1  0  0  0  0
 33  8  1  0  0  0  0
 33  9  1  0  0  0  0
 33 10  1  0  0  0  0
 34 11  1  0  0  0  0
 34 12  1  0  0  0  0
 35 13  1  0  0  0  0
 35 19  1  0  0  0  0
 36 17  1  0  0  0  0
 36 22  1  0  0  0  0
 37 17  1  0  0  0  0
 37 26  1  0  0  0  0
 38 18  1  0  0  0  0
 38 23  1  0  0  0  0
M  END
>  <DRUGBANK_ID>
DB11805

>  <COMMON_NAME>
Saracatinib

>  <CAS_NUMBER>
379231-04-6

>  <UNII>
9KD24QGH76

>  <SYNONYMS>
Saracatinib

$$$$
