
 OpenBabel10282417072D

 66 72  0  0  0  0  0  0  0  0999 V2000
    0.4104    0.9572    0.0000 C   0  0  2  0  0  0  0  0  0  0  0  0
    0.0256    0.2433    0.0000 C   0  0  1  0  0  0  0  0  0  0  0  0
    0.0000    1.6627    0.0000 C   0  0  2  0  0  0  0  0  0  0  0  0
    1.2441    0.9572    0.0000 C   0  0  0  0  0  0  0  0  0  0  0  0
   -0.8208    1.6627    0.0000 C   0  0  2  0  0  0  0  0  0  0  0  0
    1.6674    1.6798    0.0000 C   0  0  0  0  0  0  0  0  0  0  0  0
    0.8080    2.1929    0.0000 O   0  0  0  0  0  0  0  0  0  0  0  0
    0.4104   -0.4536    0.0000 C   0  0  2  0  0  0  0  0  0  0  0  0
   -1.2099    0.9443    0.0000 C   0  0  2  0  0  0  0  0  0  0  0  0
    0.0898   -1.1417    0.0000 N   0  0  0  0  0  0  0  0  0  0  0  0
    1.6674    0.2433    0.0000 C   0  0  0  0  0  0  0  0  0  0  0  0
   -0.7994    0.2433    0.0000 C   0  0  0  0  0  0  0  0  0  0  0  0
    1.2441   -0.4536    0.0000 C   0  0  0  0  0  0  0  0  0  0  0  0
   -0.1154    0.9572    0.0000 C   0  0  0  0  0  0  0  0  0  0  0  0
   -0.6413    0.9572    0.0000 C   0  0  0  0  0  0  0  0  0  0  0  0
    0.8721    0.3459    0.0000 C   0  0  0  0  0  0  0  0  0  0  0  0
   -2.0522    0.9572    0.0000 C   0  0  0  0  0  0  0  0  0  0  0  0
    0.0898   -2.1337    0.0000 C   0  0  0  0  0  0  0  0  0  0  0  0
    2.5138    1.6798    0.0000 C   0  0  0  0  0  0  0  0  0  0  0  0
    0.8935   -2.1337    0.0000 C   0  0  0  0  0  0  0  0  0  0  0  0
    0.8721   -1.1417    0.0000 C   0  0  0  0  0  0  0  0  0  0  0  0
    1.6245   -2.6211    0.0000 C   0  0  0  0  0  0  0  0  0  0  0  0
    1.6245   -1.6207    0.0000 C   0  0  0  0  0  0  0  0  0  0  0  0
    2.5138    0.2433    0.0000 C   0  0  0  0  0  0  0  0  0  0  0  0
   -1.1714    2.2826    0.0000 O   0  0  0  0  0  0  0  0  0  0  0  0
    2.9114    0.9443    0.0000 C   0  0  0  0  0  0  0  0  0  0  0  0
   -2.9371    0.9572    0.0000 O   0  0  0  0  0  0  0  0  0  0  0  0
    2.9371    2.3938    0.0000 O   0  0  0  0  0  0  0  0  0  0  0  0
   -2.4497    0.1920    0.0000 C   0  0  0  0  0  0  0  0  0  0  0  0
   -2.4925    1.6498    0.0000 C   0  0  0  0  0  0  0  0  0  0  0  0
   -2.0522    2.2826    0.0000 C   0  0  0  0  0  0  0  0  0  0  0  0
    0.9479   -1.2971    0.0000 H   0  0  0  0  0  0  0  0  0  0  0  0
   -0.2863    2.6211    0.0000 H   0  0  0  0  0  0  0  0  0  0  0  0
   -1.7504    1.8677    0.0000 H   0  0  0  0  0  0  0  0  0  0  0  0
   -1.3315   -0.6850    0.0000 H   0  0  0  0  0  0  0  0  0  0  0  0
   -1.8694    0.2384    0.0000 H   0  0  0  0  0  0  0  0  0  0  0  0
    1.7688   -1.3861    0.0000 H   0  0  0  0  0  0  0  0  0  0  0  0
    0.7040   -1.3773    0.0000 H   0  0  0  0  0  0  0  0  0  0  0  0
    0.5640    1.7839    0.0000 H   0  0  0  0  0  0  0  0  0  0  0  0
   -0.5726    1.9246    0.0000 H   0  0  0  0  0  0  0  0  0  0  0  0
   -1.2980    0.1125    0.0000 H   0  0  0  0  0  0  0  0  0  0  0  0
   -0.1711   -0.0039    0.0000 H   0  0  0  0  0  0  0  0  0  0  0  0
    1.8866    0.6860    0.0000 H   0  0  0  0  0  0  0  0  0  0  0  0
    1.7407   -0.2790    0.0000 H   0  0  0  0  0  0  0  0  0  0  0  0
   -0.6668   -2.8903    0.0000 H   0  0  0  0  0  0  0  0  0  0  0  0
    0.4993   -3.1223    0.0000 H   0  0  0  0  0  0  0  0  0  0  0  0
    1.9634   -2.1209    0.0000 H   0  0  0  0  0  0  0  0  0  0  0  0
    1.6287   -1.8983    0.0000 H   0  0  0  0  0  0  0  0  0  0  0  0
    1.8607   -0.7322    0.0000 H   0  0  0  0  0  0  0  0  0  0  0  0
    2.1294   -3.5645    0.0000 H   0  0  0  0  0  0  0  0  0  0  0  0
    2.6624   -2.3609    0.0000 H   0  0  0  0  0  0  0  0  0  0  0  0
    2.1181   -0.6713    0.0000 H   0  0  0  0  0  0  0  0  0  0  0  0
    2.6639   -1.8748    0.0000 H   0  0  0  0  0  0  0  0  0  0  0  0
    3.0332   -0.6485    0.0000 H   0  0  0  0  0  0  0  0  0  0  0  0
    3.9433    0.9338    0.0000 H   0  0  0  0  0  0  0  0  0  0  0  0
   -3.4221    1.7972    0.0000 H   0  0  0  0  0  0  0  0  0  0  0  0
    3.8740    2.3830    0.0000 H   0  0  0  0  0  0  0  0  0  0  0  0
   -3.5186    0.1444    0.0000 H   0  0  0  0  0  0  0  0  0  0  0  0
   -1.8740   -0.7099    0.0000 H   0  0  0  0  0  0  0  0  0  0  0  0
   -2.9430   -0.7575    0.0000 H   0  0  0  0  0  0  0  0  0  0  0  0
   -1.9975    2.5984    0.0000 H   0  0  0  0  0  0  0  0  0  0  0  0
   -3.5615    1.6042    0.0000 H   0  0  0  0  0  0  0  0  0  0  0  0
   -3.0665    2.5528    0.0000 H   0  0  0  0  0  0  0  0  0  0  0  0
   -2.5872    3.2092    0.0000 H   0  0  0  0  0  0  0  0  0  0  0  0
   -2.5872    1.3560    0.0000 H   0  0  0  0  0  0  0  0  0  0  0  0
   -3.1222    2.2826    0.0000 H   0  0  0  0  0  0  0  0  0  0  0  0
  1  4  1  6  0  0  0
  1 16  1  0  0  0  0
  2  1  1  0  0  0  0
  2 12  1  1  0  0  0
  2 14  1  0  0  0  0
  3  1  1  0  0  0  0
  3  7  1  0  0  0  0
  3 33  1  1  0  0  0
  5  3  1  0  0  0  0
  5 15  1  0  0  0  0
  5 25  1  6  0  0  0
  6  4  1  0  0  0  0
  6  7  1  0  0  0  0
  8  2  1  0  0  0  0
  8 10  1  0  0  0  0
  8 13  1  0  0  0  0
  8 32  1  6  0  0  0
  9  5  1  0  0  0  0
  9 17  1  0  0  0  0
  9 34  1  1  0  0  0
 10 21  1  0  0  0  0
 11  4  2  0  0  0  0
 12  9  1  0  0  0  0
 12 35  1  0  0  0  0
 12 36  1  0  0  0  0
 13 11  1  0  0  0  0
 13 37  1  0  0  0  0
 13 38  1  0  0  0  0
 14 15  1  0  0  0  0
 14 39  1  0  0  0  0
 14 40  1  0  0  0  0
 15 41  1  0  0  0  0
 15 42  1  0  0  0  0
 16 43  1  0  0  0  0
 16 44  1  0  0  0  0
 18 10  1  0  0  0  0
 18 45  1  0  0  0  0
 18 46  1  0  0  0  0
 19  6  2  0  0  0  0
 19 26  1  0  0  0  0
 20 18  1  0  0  0  0
 20 47  1  0  0  0  0
 21 16  1  0  0  0  0
 21 48  1  0  0  0  0
 21 49  1  0  0  0  0
 22 20  1  0  0  0  0
 22 23  1  0  0  0  0
 22 50  1  0  0  0  0
 22 51  1  0  0  0  0
 23 20  1  0  0  0  0
 23 52  1  0  0  0  0
 23 53  1  0  0  0  0
 24 11  1  0  0  0  0
 24 54  1  0  0  0  0
 26 24  2  0  0  0  0
 26 55  1  0  0  0  0
 27 17  1  0  0  0  0
 27 56  1  0  0  0  0
 28 19  1  0  0  0  0
 28 57  1  0  0  0  0
 29 17  1  0  0  0  0
 29 58  1  0  0  0  0
 29 59  1  0  0  0  0
 29 60  1  0  0  0  0
 30 17  1  0  0  0  0
 30 61  1  0  0  0  0
 30 62  1  0  0  0  0
 30 63  1  0  0  0  0
 31 25  1  0  0  0  0
 31 64  1  0  0  0  0
 31 65  1  0  0  0  0
 31 66  1  0  0  0  0
M  END
>  <DRUGBANK_ID>
DB01548

>  <COMMON_NAME>
Diprenorphine

>  <CAS_NUMBER>
14357-78-9

>  <UNII>
1F0L5N25ZZ

>  <SYNONYMS>
Diprenorfin; Diprenorphine

$$$$
