
 OpenBabel10282417072D

 72 76  0  0  1  0  0  0  0  0999 V2000
    3.4321    4.0565    0.0000 C   0  0  0  0  0  0  0  0  0  0  0  0
    2.6820    3.7131    0.0000 O   0  0  0  0  0  0  0  0  0  0  0  0
    2.6044    2.8918    0.0000 C   0  0  2  0  0  0  0  0  0  0  0  0
    3.2768    2.4139    0.0000 C   0  0  0  0  0  0  0  0  0  0  0  0
    3.1992    1.5925    0.0000 O   0  0  0  0  0  0  0  0  0  0  0  0
    2.4491    1.2491    0.0000 C   0  0  0  0  0  0  0  0  0  0  0  0
    1.7766    1.7270    0.0000 C   0  0  0  0  0  0  0  0  0  0  0  0
    1.8542    2.5483    0.0000 C   0  0  2  0  0  0  0  0  0  0  0  0
    1.1818    3.0263    0.0000 N   0  0  0  0  0  0  0  0  0  0  0  0
    0.4316    2.6828    0.0000 C   0  0  2  0  0  0  0  0  0  0  0  0
   -0.2871    3.0878    0.0000 C   0  0  0  0  0  0  0  0  0  0  0  0
   -0.8944    2.5294    0.0000 C   0  0  0  0  0  0  0  0  0  0  0  0
   -0.5510    1.7793    0.0000 C   0  0  2  0  0  0  0  0  0  0  0  0
    0.2686    1.8741    0.0000 C   0  0  0  0  0  0  0  0  0  0  0  0
   -1.2566    1.3519    0.0000 C   0  0  0  0  0  0  0  0  0  0  0  0
   -1.9796    1.7494    0.0000 C   0  0  0  0  0  0  0  0  0  0  0  0
   -1.2393    0.5271    0.0000 C   0  0  0  0  0  0  0  0  0  0  0  0
   -0.5510    0.9543    0.0000 C   0  0  0  0  0  0  0  0  0  0  0  0
   -0.8865    0.2006    0.0000 O   0  0  0  0  0  0  0  0  0  0  0  0
    0.1635    0.5418    0.0000 N   0  0  0  0  0  0  0  0  0  0  0  0
    0.1635   -0.2832    0.0000 C   0  0  0  0  0  0  0  0  0  0  0  0
    0.8780   -0.6957    0.0000 C   0  0  2  0  0  0  0  0  0  0  0  0
    0.6717    0.1293    0.0000 C   0  0  0  0  0  0  0  0  0  0  0  0
    0.8780    0.9543    0.0000 C   0  0  1  0  0  0  0  0  0  0  0  0
    1.5925    0.5418    0.0000 C   0  0  0  0  0  0  0  0  0  0  0  0
    1.5925   -0.2832    0.0000 N   0  0  0  0  0  0  0  0  0  0  0  0
    2.3069   -0.6957    0.0000 C   0  0  0  0  0  0  0  0  0  0  0  0
    3.0214   -0.2832    0.0000 N   0  0  0  0  0  0  0  0  0  0  0  0
    3.7359   -0.6957    0.0000 C   0  0  0  0  0  0  0  0  0  0  0  0
    3.7359   -1.5207    0.0000 N   0  0  0  0  0  0  0  0  0  0  0  0
    3.0214   -1.9332    0.0000 C   0  0  0  0  0  0  0  0  0  0  0  0
    2.3069   -1.5207    0.0000 C   0  0  0  0  0  0  0  0  0  0  0  0
    3.0214   -2.7582    0.0000 C   0  0  0  0  0  0  0  0  0  0  0  0
    3.0214   -3.5832    0.0000 F   0  0  0  0  0  0  0  0  0  0  0  0
    2.1964   -2.7582    0.0000 F   0  0  0  0  0  0  0  0  0  0  0  0
    3.8464   -2.7582    0.0000 F   0  0  0  0  0  0  0  0  0  0  0  0
    4.3043    3.4366    0.0000 H   0  0  0  0  0  0  0  0  0  0  0  0
    3.5328    5.1217    0.0000 H   0  0  0  0  0  0  0  0  0  0  0  0
    4.4050    4.5019    0.0000 H   0  0  0  0  0  0  0  0  0  0  0  0
    3.5773    3.3372    0.0000 H   0  0  0  0  0  0  0  0  0  0  0  0
    4.2497    2.8593    0.0000 H   0  0  0  0  0  0  0  0  0  0  0  0
    4.1490    1.7941    0.0000 H   0  0  0  0  0  0  0  0  0  0  0  0
    2.3484    0.1838    0.0000 H   0  0  0  0  0  0  0  0  0  0  0  0
    1.4762    0.8037    0.0000 H   0  0  0  0  0  0  0  0  0  0  0  0
    0.8037    1.2815    0.0000 H   0  0  0  0  0  0  0  0  0  0  0  0
    0.9044    2.3468    0.0000 H   0  0  0  0  0  0  0  0  0  0  0  0
    0.8813    2.1029    0.0000 H   0  0  0  0  0  0  0  0  0  0  0  0
    1.2778    4.0418    0.0000 H   0  0  0  0  0  0  0  0  0  0  0  0
    0.4764    3.7519    0.0000 H   0  0  0  0  0  0  0  0  0  0  0  0
   -0.4100    4.1507    0.0000 H   0  0  0  0  0  0  0  0  0  0  0  0
   -1.2900    3.4608    0.0000 H   0  0  0  0  0  0  0  0  0  0  0  0
   -1.9433    2.7409    0.0000 H   0  0  0  0  0  0  0  0  0  0  0  0
   -1.5591    1.6909    0.0000 H   0  0  0  0  0  0  0  0  0  0  0  0
    0.9929    1.0865    0.0000 H   0  0  0  0  0  0  0  0  0  0  0  0
    1.2992    2.1619    0.0000 H   0  0  0  0  0  0  0  0  0  0  0  0
   -2.1718    0.7976    0.0000 H   0  0  0  0  0  0  0  0  0  0  0  0
   -2.0020    2.8192    0.0000 H   0  0  0  0  0  0  0  0  0  0  0  0
   -2.8949    1.1951    0.0000 H   0  0  0  0  0  0  0  0  0  0  0  0
   -2.9172    2.2649    0.0000 H   0  0  0  0  0  0  0  0  0  0  0  0
   -2.1545   -0.0272    0.0000 H   0  0  0  0  0  0  0  0  0  0  0  0
   -0.3016    0.0116    0.0000 H   0  0  0  0  0  0  0  0  0  0  0  0
   -1.2169   -0.5427    0.0000 H   0  0  0  0  0  0  0  0  0  0  0  0
   -0.7631   -0.8182    0.0000 H   0  0  0  0  0  0  0  0  0  0  0  0
    0.1635   -1.3532    0.0000 H   0  0  0  0  0  0  0  0  0  0  0  0
    0.2338    0.1586    0.0000 H   0  0  0  0  0  0  0  0  0  0  0  0
   -0.3983    0.1293    0.0000 H   0  0  0  0  0  0  0  0  0  0  0  0
    0.0132    0.9727    0.0000 H   0  0  0  0  0  0  0  0  0  0  0  0
    0.2338    0.1000    0.0000 H   0  0  0  0  0  0  0  0  0  0  0  0
    2.5191    1.0768    0.0000 H   0  0  0  0  0  0  0  0  0  0  0  0
    2.5191    0.0068    0.0000 H   0  0  0  0  0  0  0  0  0  0  0  0
    4.6296   -0.1797    0.0000 H   0  0  0  0  0  0  0  0  0  0  0  0
    1.4132   -2.0367    0.0000 H   0  0  0  0  0  0  0  0  0  0  0  0
  1  2  1  0  0  0  0
  1 37  1  0  0  0  0
  1 38  1  0  0  0  0
  1 39  1  0  0  0  0
  3  2  1  0  0  0  0
  3  4  1  0  0  0  0
  3  8  1  0  0  0  0
  3 40  1  1  0  0  0
  4  5  1  0  0  0  0
  4 41  1  0  0  0  0
  4 42  1  0  0  0  0
  5  6  1  0  0  0  0
  6  7  1  0  0  0  0
  6 43  1  0  0  0  0
  6 44  1  0  0  0  0
  7 45  1  0  0  0  0
  7 46  1  0  0  0  0
  8  7  1  0  0  0  0
  8  9  1  0  0  0  0
  8 47  1  1  0  0  0
  9 48  1  0  0  0  0
 10  9  1  0  0  0  0
 10 11  1  0  0  0  0
 10 14  1  0  0  0  0
 10 49  1  6  0  0  0
 11 12  1  0  0  0  0
 11 50  1  0  0  0  0
 11 51  1  0  0  0  0
 12 52  1  0  0  0  0
 12 53  1  0  0  0  0
 13 12  1  0  0  0  0
 13 14  1  0  0  0  0
 13 15  1  0  0  0  0
 13 18  1  1  0  0  0
 14 54  1  0  0  0  0
 14 55  1  0  0  0  0
 15 16  1  0  0  0  0
 15 17  1  0  0  0  0
 15 56  1  0  0  0  0
 16 57  1  0  0  0  0
 16 58  1  0  0  0  0
 16 59  1  0  0  0  0
 17 60  1  0  0  0  0
 17 61  1  0  0  0  0
 17 62  1  0  0  0  0
 18 19  2  0  0  0  0
 18 20  1  0  0  0  0
 20 21  1  0  0  0  0
 21 63  1  0  0  0  0
 21 64  1  0  0  0  0
 22 21  1  0  0  0  0
 22 23  1  0  0  0  0
 22 26  1  0  0  0  0
 22 65  1  1  0  0  0
 23 66  1  0  0  0  0
 23 67  1  0  0  0  0
 24 23  1  0  0  0  0
 24 20  1  0  0  0  0
 24 25  1  0  0  0  0
 24 68  1  1  0  0  0
 25 26  1  0  0  0  0
 25 69  1  0  0  0  0
 25 70  1  0  0  0  0
 26 27  1  0  0  0  0
 27 28  2  0  0  0  0
 27 32  1  0  0  0  0
 28 29  1  0  0  0  0
 29 30  2  0  0  0  0
 29 71  1  0  0  0  0
 30 31  1  0  0  0  0
 31 32  2  0  0  0  0
 31 33  1  0  0  0  0
 32 72  1  0  0  0  0
 33 34  1  0  0  0  0
 33 35  1  0  0  0  0
 33 36  1  0  0  0  0
M  END
>  <DRUGBANK_ID>
DB14955

>  <COMMON_NAME>
PF-04634817

>  <CAS_NUMBER>
1228111-63-4

>  <UNII>
51M3FB9B9E

$$$$
