
 OpenBabel10282417072D

 24 23  0  0  0  0  0  0  0  0999 V2000
    1.0547   -0.9668    0.0000 C   0  0  0  0  0  0  0  0  0  0  0  0
    1.7691   -0.5543    0.0000 C   0  0  0  0  0  0  0  0  0  0  0  0
    2.4836   -0.9668    0.0000 C   0  0  0  0  0  0  0  0  0  0  0  0
    3.1981   -0.5543    0.0000 C   0  0  3  0  0  0  0  0  0  0  0  0
    3.9125   -0.1418    0.0000 C   0  0  0  0  0  0  0  0  0  0  0  0
    4.6270   -0.5543    0.0000 O   0  0  0  0  0  0  0  0  0  0  0  0
    0.3402   -0.5543    0.0000 N   0  0  0  0  0  0  0  0  0  0  0  0
    3.9125    0.6832    0.0000 O   0  0  0  0  0  0  0  0  0  0  0  0
    2.7856    0.1601    0.0000 C   0  0  0  0  0  0  0  0  0  0  0  0
    1.9606    0.1601    0.0000 F   0  0  0  0  0  0  0  0  0  0  0  0
    3.1981    0.8746    0.0000 F   0  0  0  0  0  0  0  0  0  0  0  0
    3.0225   -1.2367    0.0000 N   0  0  0  0  0  0  0  0  0  0  0  0
    1.0547   -2.0368    0.0000 H   0  0  0  0  0  0  0  0  0  0  0  0
    0.1281   -1.5018    0.0000 H   0  0  0  0  0  0  0  0  0  0  0  0
    1.7691    0.5157    0.0000 H   0  0  0  0  0  0  0  0  0  0  0  0
    2.6957   -0.0193    0.0000 H   0  0  0  0  0  0  0  0  0  0  0  0
    2.4836   -2.0368    0.0000 H   0  0  0  0  0  0  0  0  0  0  0  0
    3.4102   -1.5018    0.0000 H   0  0  0  0  0  0  0  0  0  0  0  0
    4.6270   -1.4913    0.0000 H   0  0  0  0  0  0  0  0  0  0  0  0
    0.3402    0.4657    0.0000 H   0  0  0  0  0  0  0  0  0  0  0  0
   -0.5431   -1.0643    0.0000 H   0  0  0  0  0  0  0  0  0  0  0  0
    2.2506    1.0867    0.0000 H   0  0  0  0  0  0  0  0  0  0  0  0
    2.0399   -1.5105    0.0000 H   0  0  0  0  0  0  0  0  0  0  0  0
    3.7509   -1.9507    0.0000 H   0  0  0  0  0  0  0  0  0  0  0  0
  1 13  1  0  0  0  0
  1 14  1  0  0  0  0
  2  1  1  0  0  0  0
  2 15  1  0  0  0  0
  2 16  1  0  0  0  0
  3  2  1  0  0  0  0
  3 17  1  0  0  0  0
  3 18  1  0  0  0  0
  4  3  1  0  0  0  0
  4 12  1  0  0  0  0
  5  4  1  0  0  0  0
  6  5  1  0  0  0  0
  6 19  1  0  0  0  0
  7  1  1  0  0  0  0
  7 20  1  0  0  0  0
  7 21  1  0  0  0  0
  8  5  2  0  0  0  0
  9  4  1  0  0  0  0
  9 22  1  0  0  0  0
 10  9  1  0  0  0  0
 11  9  1  0  0  0  0
 12 23  1  0  0  0  0
 12 24  1  0  0  0  0
M  END
>  <DRUGBANK_ID>
DB06243

>  <COMMON_NAME>
Eflornithine

>  <CAS_NUMBER>
70052-12-9

>  <UNII>
ZQN1G5V6SR

>  <SYNONYMS>
(RS)-2,5-diamino-2-(difluoromethyl)pentanoic acid; 2-(difluoromethyl)ornithine; alpha-difluoromethylornithine; DFMO; Eflornithine; Î±-difluoromethylornithine

$$$$
