
 OpenBabel10282417072D

 34 35  0  0  0  0  0  0  0  0999 V2000
   -1.0053    0.8250    0.0000 O   0  0  0  0  0  0  0  0  0  0  0  0
    0.4466   -0.8536    0.0000 O   0  0  0  0  0  0  0  0  0  0  0  0
    1.1941    0.4296    0.0000 O   0  0  0  0  0  0  0  0  0  0  0  0
   -1.0053   -1.6500    0.0000 O   0  0  0  0  0  0  0  0  0  0  0  0
   -2.4343   -0.8250    0.0000 O   0  0  0  0  0  0  0  0  0  0  0  0
   -2.4343    0.8250    0.0000 O   0  0  0  0  0  0  0  0  0  0  0  0
    2.4343    0.2800    0.0000 O   0  0  0  0  0  0  0  0  0  0  0  0
    2.4289   -1.1489    0.0000 O   0  0  0  0  0  0  0  0  0  0  0  0
   -0.2909   -0.4125    0.0000 C   0  0  1  0  0  0  0  0  0  0  0  0
   -0.2909    0.4125    0.0000 C   0  0  1  0  0  0  0  0  0  0  0  0
   -1.0053   -0.8250    0.0000 C   0  0  1  0  0  0  0  0  0  0  0  0
   -1.7198   -0.4125    0.0000 C   0  0  2  0  0  0  0  0  0  0  0  0
   -1.7198    0.4125    0.0000 C   0  0  1  0  0  0  0  0  0  0  0  0
    0.4466    0.8536    0.0000 C   0  0  0  0  0  0  0  0  0  0  0  0
    1.1941   -0.4296    0.0000 C   0  0  2  0  0  0  0  0  0  0  0  0
    1.6039   -1.1457    0.0000 C   0  0  0  0  0  0  0  0  0  0  0  0
    2.0191   -0.4328    0.0000 C   0  0  0  0  0  0  0  0  0  0  0  0
   -2.4343    1.6500    0.0000 C   0  0  0  0  0  0  0  0  0  0  0  0
   -0.2960   -1.0725    0.0000 H   0  0  0  0  0  0  0  0  0  0  0  0
   -0.2960    1.0725    0.0000 H   0  0  0  0  0  0  0  0  0  0  0  0
   -1.8453   -2.1350    0.0000 H   0  0  0  0  0  0  0  0  0  0  0  0
   -3.2743   -0.3400    0.0000 H   0  0  0  0  0  0  0  0  0  0  0  0
    3.3713    0.2764    0.0000 H   0  0  0  0  0  0  0  0  0  0  0  0
   -0.0786   -1.3600    0.0000 H   0  0  0  0  0  0  0  0  0  0  0  0
   -1.7198   -1.4825    0.0000 H   0  0  0  0  0  0  0  0  0  0  0  0
   -1.7198    1.4825    0.0000 H   0  0  0  0  0  0  0  0  0  0  0  0
    0.4343    1.9235    0.0000 H   0  0  0  0  0  0  0  0  0  0  0  0
   -0.4872    1.3761    0.0000 H   0  0  0  0  0  0  0  0  0  0  0  0
    1.0654   -2.0703    0.0000 H   0  0  0  0  0  0  0  0  0  0  0  0
    2.6739   -1.1498    0.0000 H   0  0  0  0  0  0  0  0  0  0  0  0
    2.1354   -2.0744    0.0000 H   0  0  0  0  0  0  0  0  0  0  0  0
   -1.5077    2.1850    0.0000 H   0  0  0  0  0  0  0  0  0  0  0  0
   -3.3609    2.1850    0.0000 H   0  0  0  0  0  0  0  0  0  0  0  0
   -2.4343    2.7200    0.0000 H   0  0  0  0  0  0  0  0  0  0  0  0
  1 10  1  0  0  0  0
  1 13  1  0  0  0  0
  2  9  1  0  0  0  0
  2 15  1  0  0  0  0
  3 14  1  0  0  0  0
  3 15  1  0  0  0  0
  4 21  1  0  0  0  0
  5 22  1  0  0  0  0
  6 18  1  0  0  0  0
  7 17  1  0  0  0  0
  7 23  1  0  0  0  0
  8 17  2  0  0  0  0
  9 10  1  0  0  0  0
  9 11  1  0  0  0  0
  9 19  1  1  0  0  0
 10 14  1  0  0  0  0
 10 20  1  1  0  0  0
 11  4  1  0  0  0  0
 11 12  1  0  0  0  0
 11 24  1  1  0  0  0
 12  5  1  0  0  0  0
 12 13  1  0  0  0  0
 12 25  1  6  0  0  0
 13  6  1  0  0  0  0
 13 26  1  1  0  0  0
 14 27  1  0  0  0  0
 14 28  1  0  0  0  0
 15 16  1  0  0  0  0
 15 17  1  1  0  0  0
 16 29  1  0  0  0  0
 16 30  1  0  0  0  0
 16 31  1  0  0  0  0
 18 32  1  0  0  0  0
 18 33  1  0  0  0  0
 18 34  1  0  0  0  0
M  END
>  <DRUGBANK_ID>
DB01651

>  <SECONDARY_ACCESSION_NUMBERS>
EXPT00869

>  <COMMON_NAME>
Methyl 4,6-O-[(1R)-1-carboxyethylidene]-beta-D-galactopyranoside

>  <SYNONYMS>
Methyl 4,6-O-[(1R)-1-carboxyethylidene]-Î²-D-galactopyranoside

$$$$
