
 OpenBabel10282417072D

 27 27  0  0  0  0  0  0  0  0999 V2000
    1.9524   -2.0625    0.0000 Cl  0  0  0  0  0  0  0  0  0  0  0  0
    1.1274    1.2375    0.0000 F   0  0  0  0  0  0  0  0  0  0  0  0
    2.7774    1.2375    0.0000 F   0  0  0  0  0  0  0  0  0  0  0  0
    1.9524    2.0625    0.0000 F   0  0  0  0  0  0  0  0  0  0  0  0
    0.5234   -1.2375    0.0000 N   0  0  0  0  0  0  0  0  0  0  0  0
   -0.9054   -1.2375    0.0000 N   0  0  0  0  0  0  0  0  0  0  0  0
   -0.1910    0.0000    0.0000 N   0  0  0  0  0  0  0  0  0  0  0  0
   -2.3344   -1.2375    0.0000 N   0  0  0  0  0  0  0  0  0  0  0  0
   -1.6199    0.0000    0.0000 N   0  0  0  0  0  0  0  0  0  0  0  0
    1.9524    0.4125    0.0000 C   0  0  0  0  0  0  0  0  0  0  0  0
    1.2379    0.0000    0.0000 C   0  0  0  0  0  0  0  0  0  0  0  0
    1.2379   -0.8250    0.0000 C   0  0  0  0  0  0  0  0  0  0  0  0
    2.6668    0.0000    0.0000 C   0  0  0  0  0  0  0  0  0  0  0  0
    1.9524   -1.2375    0.0000 C   0  0  0  0  0  0  0  0  0  0  0  0
    2.6668   -0.8250    0.0000 C   0  0  0  0  0  0  0  0  0  0  0  0
    1.9524    1.2375    0.0000 C   0  0  0  0  0  0  0  0  0  0  0  0
   -0.1910   -0.8250    0.0000 C   0  0  0  0  0  0  0  0  0  0  0  0
   -1.6199   -0.8250    0.0000 C   0  0  0  0  0  0  0  0  0  0  0  0
   -0.6339    0.2557    0.0000 H   0  0  0  0  0  0  0  0  0  0  0  0
    0.2519    0.2557    0.0000 H   0  0  0  0  0  0  0  0  0  0  0  0
   -2.7774   -0.9817    0.0000 H   0  0  0  0  0  0  0  0  0  0  0  0
   -2.3344   -1.7490    0.0000 H   0  0  0  0  0  0  0  0  0  0  0  0
   -2.0629    0.2557    0.0000 H   0  0  0  0  0  0  0  0  0  0  0  0
   -1.1769    0.2557    0.0000 H   0  0  0  0  0  0  0  0  0  0  0  0
    0.3442    0.5160    0.0000 H   0  0  0  0  0  0  0  0  0  0  0  0
    3.5605    0.5160    0.0000 H   0  0  0  0  0  0  0  0  0  0  0  0
    3.5605   -1.3410    0.0000 H   0  0  0  0  0  0  0  0  0  0  0  0
  1 14  1  0  0  0  0
  2 16  1  0  0  0  0
  3 16  1  0  0  0  0
  4 16  1  0  0  0  0
  5 12  1  0  0  0  0
  5 17  2  0  0  0  0
  6 17  1  0  0  0  0
  6 18  2  0  0  0  0
  7 17  1  0  0  0  0
  7 19  1  0  0  0  0
  7 20  1  0  0  0  0
  8 18  1  0  0  0  0
  8 21  1  0  0  0  0
  8 22  1  0  0  0  0
  9 18  1  0  0  0  0
  9 23  1  0  0  0  0
  9 24  1  0  0  0  0
 10 11  2  0  0  0  0
 10 13  1  0  0  0  0
 10 16  1  0  0  0  0
 11 12  1  0  0  0  0
 11 25  1  0  0  0  0
 12 14  2  0  0  0  0
 13 15  2  0  0  0  0
 13 26  1  0  0  0  0
 14 15  1  0  0  0  0
 15 27  1  0  0  0  0
M  END
>  <DRUGBANK_ID>
DB08478

>  <COMMON_NAME>
N-[2-Chloro-5-(trifluoromethyl)phenyl]imidodicarbonimidic diamide

>  <SYNONYMS>
2-[2-Chloro-5-(trifluoromethyl)phenyl]-1-(diaminomethylene)guanidine

$$$$
