
 OpenBabel10282417072D

 34 36  0  0  0  0  0  0  0  0999 V2000
   -0.3544   -0.2013    0.0000 O   0  0  0  0  0  0  0  0  0  0  0  0
    0.3620    0.2079    0.0000 C   0  0  0  0  0  0  0  0  0  0  0  0
    0.3657    1.0329    0.0000 C   0  0  0  0  0  0  0  0  0  0  0  0
   -0.3468    1.4486    0.0000 C   0  0  0  0  0  0  0  0  0  0  0  0
   -0.3431    2.2736    0.0000 O   0  0  0  0  0  0  0  0  0  0  0  0
   -1.7720    2.2802    0.0000 O   0  0  0  0  0  0  0  0  0  0  0  0
   -1.7758    1.4552    0.0000 C   0  0  0  0  0  0  0  0  0  0  0  0
   -2.4921    1.0460    0.0000 C   0  0  0  0  0  0  0  0  0  0  0  0
   -1.0632    1.0394    0.0000 C   0  0  0  0  0  0  0  0  0  0  0  0
   -1.0670    0.2144    0.0000 C   0  0  0  0  0  0  0  0  0  0  0  0
   -1.7833   -0.1948    0.0000 C   0  0  0  0  0  0  0  0  0  0  0  0
   -2.4959    0.2210    0.0000 C   0  0  0  0  0  0  0  0  0  0  0  0
   -3.2123   -0.1883    0.0000 O   0  0  0  0  0  0  0  0  0  0  0  0
    1.7796   -2.2736    0.0000 O   0  0  0  0  0  0  0  0  0  0  0  0
    1.7833   -1.4486    0.0000 C   0  0  0  0  0  0  0  0  0  0  0  0
    1.0708   -1.0329    0.0000 C   0  0  0  0  0  0  0  0  0  0  0  0
    1.0745   -0.2079    0.0000 C   0  0  0  0  0  0  0  0  0  0  0  0
    1.7909    0.2013    0.0000 C   0  0  0  0  0  0  0  0  0  0  0  0
    2.5035   -0.2144    0.0000 C   0  0  0  0  0  0  0  0  0  0  0  0
    2.4997   -1.0394    0.0000 C   0  0  0  0  0  0  0  0  0  0  0  0
    3.2123   -1.4552    0.0000 O   0  0  0  0  0  0  0  0  0  0  0  0
    3.2085   -2.2802    0.0000 C   0  0  0  0  0  0  0  0  0  0  0  0
    1.2618    1.5449    0.0000 H   0  0  0  0  0  0  0  0  0  0  0  0
   -0.9584    2.7450    0.0000 H   0  0  0  0  0  0  0  0  0  0  0  0
   -3.3835    1.5661    0.0000 H   0  0  0  0  0  0  0  0  0  0  0  0
   -1.7880   -1.2268    0.0000 H   0  0  0  0  0  0  0  0  0  0  0  0
   -4.0216    0.2839    0.0000 H   0  0  0  0  0  0  0  0  0  0  0  0
    0.9660   -2.7385    0.0000 H   0  0  0  0  0  0  0  0  0  0  0  0
    0.1747   -1.5449    0.0000 H   0  0  0  0  0  0  0  0  0  0  0  0
    1.7956    1.2333    0.0000 H   0  0  0  0  0  0  0  0  0  0  0  0
    3.3996    0.2975    0.0000 H   0  0  0  0  0  0  0  0  0  0  0  0
    2.2794   -2.8109    0.0000 H   0  0  0  0  0  0  0  0  0  0  0  0
    4.1327   -2.8195    0.0000 H   0  0  0  0  0  0  0  0  0  0  0  0
    3.2036   -3.3502    0.0000 H   0  0  0  0  0  0  0  0  0  0  0  0
  1  2  1  0  0  0  0
  1 10  1  0  0  0  0
  2  3  2  0  0  0  0
  2 17  1  0  0  0  0
  3  4  1  0  0  0  0
  3 23  1  0  0  0  0
  4  5  2  0  0  0  0
  4  9  1  0  0  0  0
  6  7  1  0  0  0  0
  6 24  1  0  0  0  0
  7  8  2  0  0  0  0
  7  9  1  0  0  0  0
  8 12  1  0  0  0  0
  8 25  1  0  0  0  0
  9 10  2  0  0  0  0
 10 11  1  0  0  0  0
 11 12  2  0  0  0  0
 11 26  1  0  0  0  0
 12 13  1  0  0  0  0
 13 27  1  0  0  0  0
 14 15  1  0  0  0  0
 14 28  1  0  0  0  0
 15 16  1  0  0  0  0
 15 20  2  0  0  0  0
 16 17  2  0  0  0  0
 16 29  1  0  0  0  0
 17 18  1  0  0  0  0
 18 19  2  0  0  0  0
 18 30  1  0  0  0  0
 19 20  1  0  0  0  0
 19 31  1  0  0  0  0
 20 21  1  0  0  0  0
 21 22  1  0  0  0  0
 22 32  1  0  0  0  0
 22 33  1  0  0  0  0
 22 34  1  0  0  0  0
M  END
>  <DRUGBANK_ID>
DB11259

>  <COMMON_NAME>
Diosmetin

>  <CAS_NUMBER>
520-34-3

>  <UNII>
TWZ37241OT

>  <SYNONYMS>
3',5,7-trihydroxy-4'-methoxyflavone; 5,7-Dihydroxy-2-(3-hydroxy-4-methoxyphenyl)-4-benzopyrone; Luteolin 4'-methyl ether; Salinigricoflavonol

$$$$
