TL5
 OpenBabel10282417072D

 31 31  0  0  0  0  0  0  0  0999 V2000
    1.4618   -2.8738    0.0000 O   0  0  0  0  0  0  0  0  0  0  0  0
    0.9768   -2.2064    0.0000 C   0  0  0  0  0  0  0  0  0  0  0  0
    0.1518   -2.2064    0.0000 C   0  0  0  0  0  0  0  0  0  0  0  0
   -0.3331   -2.8738    0.0000 C   0  0  0  0  0  0  0  0  0  0  0  0
    1.2318   -1.4218    0.0000 S   0  0  0  0  0  0  0  0  0  0  0  0
    0.5643   -0.9369    0.0000 C   0  0  2  0  0  0  0  0  0  0  0  0
   -0.1031   -1.4218    0.0000 C   0  0  0  0  0  0  0  0  0  0  0  0
   -0.8877   -1.1668    0.0000 O   0  0  0  0  0  0  0  0  0  0  0  0
    0.9693   -0.2181    0.0000 C   0  0  0  0  0  0  0  0  0  0  0  0
    0.1593   -0.2181    0.0000 C   0  0  0  0  0  0  0  0  0  0  0  0
    0.5793    0.4920    0.0000 C   0  0  0  0  0  0  0  0  0  0  0  0
    1.4043    0.4834    0.0000 C   0  0  0  0  0  0  0  0  0  0  0  0
    0.1743    1.2108    0.0000 C   0  0  0  0  0  0  0  0  0  0  0  0
    0.5943    1.9209    0.0000 C   0  0  0  0  0  0  0  0  0  0  0  0
    0.1893    2.6396    0.0000 C   0  0  0  0  0  0  0  0  0  0  0  0
   -1.3972   -2.7619    0.0000 H   0  0  0  0  0  0  0  0  0  0  0  0
    0.1021   -3.8513    0.0000 H   0  0  0  0  0  0  0  0  0  0  0  0
   -0.9620   -3.7394    0.0000 H   0  0  0  0  0  0  0  0  0  0  0  0
   -1.0824   -0.2503    0.0000 H   0  0  0  0  0  0  0  0  0  0  0  0
    2.0392   -0.2069    0.0000 H   0  0  0  0  0  0  0  0  0  0  0  0
    0.4246    0.7029    0.0000 H   0  0  0  0  0  0  0  0  0  0  0  0
    1.4945    0.7141    0.0000 H   0  0  0  0  0  0  0  0  0  0  0  0
   -0.8726   -0.2073    0.0000 H   0  0  0  0  0  0  0  0  0  0  0  0
    1.9296   -0.4488    0.0000 H   0  0  0  0  0  0  0  0  0  0  0  0
    1.9489    1.4044    0.0000 H   0  0  0  0  0  0  0  0  0  0  0  0
    2.4742    0.4722    0.0000 H   0  0  0  0  0  0  0  0  0  0  0  0
   -0.8576    1.2216    0.0000 H   0  0  0  0  0  0  0  0  0  0  0  0
    1.6262    1.9101    0.0000 H   0  0  0  0  0  0  0  0  0  0  0  0
    0.7339    3.5606    0.0000 H   0  0  0  0  0  0  0  0  0  0  0  0
   -0.8806    2.6508    0.0000 H   0  0  0  0  0  0  0  0  0  0  0  0
   -0.3360    3.5718    0.0000 H   0  0  0  0  0  0  0  0  0  0  0  0
  1  2  2  0  0  0  0
  2  3  1  0  0  0  0
  2  5  1  0  0  0  0
  3  4  1  0  0  0  0
  3  7  2  0  0  0  0
  4 16  1  0  0  0  0
  4 17  1  0  0  0  0
  4 18  1  0  0  0  0
  5  6  1  0  0  0  0
  6  7  1  0  0  0  0
  6  9  1  0  0  0  0
  6 10  1  1  0  0  0
  7  8  1  0  0  0  0
  8 19  1  0  0  0  0
  9 20  1  0  0  0  0
  9 21  1  0  0  0  0
  9 22  1  0  0  0  0
 10 11  2  0  0  0  0
 10 23  1  0  0  0  0
 11 12  1  0  0  0  0
 11 13  1  0  0  0  0
 12 24  1  0  0  0  0
 12 25  1  0  0  0  0
 12 26  1  0  0  0  0
 13 14  2  0  0  0  0
 13 27  1  0  0  0  0
 14 15  1  0  0  0  0
 14 28  1  0  0  0  0
 15 29  1  0  0  0  0
 15 30  1  0  0  0  0
 15 31  1  0  0  0  0
M  END
>  <DRUGBANK_ID>
DB08627

>  <COMMON_NAME>
(5R)-4-HYDROXY-3,5-DIMETHYL-5-[(1E,3E)-2-METHYLPENTA-1,3-DIENYL]THIOPHEN-2(5H)-ONE

$$$$
