
 OpenBabel10282417072D

 31 32  0  0  0  0  0  0  0  0999 V2000
   -2.7740    1.4425    0.0000 N   0  0  0  0  0  0  0  0  0  0  0  0
   -2.0583    1.0263    0.0000 N   0  0  0  0  0  0  0  0  0  0  0  0
   -2.0583    0.2052    0.0000 C   0  0  3  0  0  0  0  0  0  0  0  0
   -1.3482   -0.2052    0.0000 C   0  0  0  0  0  0  0  0  0  0  0  0
   -0.6325    0.2052    0.0000 C   0  0  0  0  0  0  0  0  0  0  0  0
    0.0777   -0.2052    0.0000 C   0  0  0  0  0  0  0  0  0  0  0  0
    0.0777   -1.0319    0.0000 C   0  0  0  0  0  0  0  0  0  0  0  0
    0.7933   -1.4425    0.0000 C   0  0  0  0  0  0  0  0  0  0  0  0
    1.5090   -1.0319    0.0000 C   0  0  0  0  0  0  0  0  0  0  0  0
    1.5090   -0.2052    0.0000 C   0  0  0  0  0  0  0  0  0  0  0  0
    0.7933    0.2052    0.0000 C   0  0  0  0  0  0  0  0  0  0  0  0
    2.2913    0.0499    0.0000 O   0  0  0  0  0  0  0  0  0  0  0  0
    2.7740   -0.6213    0.0000 C   0  0  0  0  0  0  0  0  0  0  0  0
    2.2913   -1.2870    0.0000 O   0  0  0  0  0  0  0  0  0  0  0  0
   -2.7740   -0.2052    0.0000 C   0  0  0  0  0  0  0  0  0  0  0  0
   -2.7708    2.4625    0.0000 H   0  0  0  0  0  0  0  0  0  0  0  0
   -3.6589    0.9353    0.0000 H   0  0  0  0  0  0  0  0  0  0  0  0
   -1.1742    1.5349    0.0000 H   0  0  0  0  0  0  0  0  0  0  0  0
   -1.1315    0.7400    0.0000 H   0  0  0  0  0  0  0  0  0  0  0  0
   -1.3500   -1.2752    0.0000 H   0  0  0  0  0  0  0  0  0  0  0  0
   -0.4228   -0.7424    0.0000 H   0  0  0  0  0  0  0  0  0  0  0  0
   -0.6307    1.2752    0.0000 H   0  0  0  0  0  0  0  0  0  0  0  0
    0.2947    0.7392    0.0000 H   0  0  0  0  0  0  0  0  0  0  0  0
   -0.8153   -1.5491    0.0000 H   0  0  0  0  0  0  0  0  0  0  0  0
    0.7933   -2.4745    0.0000 H   0  0  0  0  0  0  0  0  0  0  0  0
    0.7933    1.2372    0.0000 H   0  0  0  0  0  0  0  0  0  0  0  0
    3.8440   -0.6234    0.0000 H   0  0  0  0  0  0  0  0  0  0  0  0
    3.2593   -1.5749    0.0000 H   0  0  0  0  0  0  0  0  0  0  0  0
   -3.6991    0.3325    0.0000 H   0  0  0  0  0  0  0  0  0  0  0  0
   -2.7772   -1.2752    0.0000 H   0  0  0  0  0  0  0  0  0  0  0  0
   -3.7022   -0.7375    0.0000 H   0  0  0  0  0  0  0  0  0  0  0  0
  1  2  1  0  0  0  0
  1 16  1  0  0  0  0
  1 17  1  0  0  0  0
  2  3  1  0  0  0  0
  2 18  1  0  0  0  0
  3  4  1  0  0  0  0
  3 15  1  0  0  0  0
  3 19  1  0  0  0  0
  4  5  1  0  0  0  0
  4 20  1  0  0  0  0
  4 21  1  0  0  0  0
  5  6  1  0  0  0  0
  5 22  1  0  0  0  0
  5 23  1  0  0  0  0
  6  7  1  0  0  0  0
  6 11  2  0  0  0  0
  7  8  2  0  0  0  0
  7 24  1  0  0  0  0
  8  9  1  0  0  0  0
  8 25  1  0  0  0  0
  9 10  2  0  0  0  0
  9 14  1  0  0  0  0
 10 11  1  0  0  0  0
 10 12  1  0  0  0  0
 11 26  1  0  0  0  0
 12 13  1  0  0  0  0
 13 14  1  0  0  0  0
 13 27  1  0  0  0  0
 13 28  1  0  0  0  0
 15 29  1  0  0  0  0
 15 30  1  0  0  0  0
 15 31  1  0  0  0  0
M  END
>  <DRUGBANK_ID>
DB09253

>  <COMMON_NAME>
Safrazine

>  <CAS_NUMBER>
33419-68-0

>  <UNII>
F5G0P5378C

>  <SYNONYMS>
Safra

$$$$
