
 OpenBabel10282417072D

 71 75  0  0  0  0  0  0  0  0999 V2000
   -3.5106   -0.2061    0.0000 C   0  0  0  0  0  0  0  0  0  0  0  0
   -3.5106    0.6187    0.0000 C   0  0  0  0  0  0  0  0  0  0  0  0
   -0.6529   -0.2061    0.0000 C   0  0  1  0  0  0  0  0  0  0  0  0
   -0.6529    0.6187    0.0000 C   0  0  2  0  0  0  0  0  0  0  0  0
   -1.3673   -0.6187    0.0000 C   0  0  0  0  0  0  0  0  0  0  0  0
   -1.3673    1.0312    0.0000 C   0  0  0  0  0  0  0  0  0  0  0  0
   -2.0818   -0.2061    0.0000 C   0  0  1  0  0  0  0  0  0  0  0  0
   -2.0818    0.6187    0.0000 C   0  0  0  0  0  0  0  0  0  0  0  0
   -2.7962    1.0312    0.0000 C   0  0  0  0  0  0  0  0  0  0  0  0
   -2.7962   -0.6187    0.0000 C   0  0  2  0  0  0  0  0  0  0  0  0
    0.0615   -0.6187    0.0000 C   0  0  1  0  0  0  0  0  0  0  0  0
    0.0615    1.0312    0.0000 C   0  0  0  0  0  0  0  0  0  0  0  0
   -0.6529    1.4437    0.0000 O   0  0  0  0  0  0  0  0  0  0  0  0
    0.7759   -0.2061    0.0000 C   0  0  0  0  0  0  0  0  0  0  0  0
    0.0615   -1.4437    0.0000 N   0  0  0  0  0  0  0  0  0  0  0  0
   -1.3673    1.8562    0.0000 O   0  0  0  0  0  0  0  0  0  0  0  0
    0.7759    0.6187    0.0000 C   0  0  0  0  0  0  0  0  0  0  0  0
    0.0615    1.8562    0.0000 O   0  0  0  0  0  0  0  0  0  0  0  0
    1.4905   -0.6187    0.0000 O   0  0  0  0  0  0  0  0  0  0  0  0
    0.7759   -1.8562    0.0000 C   0  0  0  0  0  0  0  0  0  0  0  0
   -0.6529   -1.8562    0.0000 C   0  0  0  0  0  0  0  0  0  0  0  0
    1.4905    1.0312    0.0000 C   0  0  0  0  0  0  0  0  0  0  0  0
   -2.7962    1.8562    0.0000 O   0  0  0  0  0  0  0  0  0  0  0  0
    2.2048    0.6187    0.0000 N   0  0  0  0  0  0  0  0  0  0  0  0
    1.4905    1.8562    0.0000 O   0  0  0  0  0  0  0  0  0  0  0  0
   -4.2251   -0.6187    0.0000 C   0  0  0  0  0  0  0  0  0  0  0  0
   -4.2251    1.0312    0.0000 C   0  0  0  0  0  0  0  0  0  0  0  0
   -4.9396   -0.2061    0.0000 C   0  0  0  0  0  0  0  0  0  0  0  0
   -4.9396    0.6187    0.0000 C   0  0  0  0  0  0  0  0  0  0  0  0
   -4.2251    1.8562    0.0000 O   0  0  0  0  0  0  0  0  0  0  0  0
   -0.6529   -1.0312    0.0000 H   0  0  0  0  0  0  0  0  0  0  0  0
   -2.0818   -1.0312    0.0000 H   0  0  0  0  0  0  0  0  0  0  0  0
   -3.5106   -1.0312    0.0000 O   0  0  0  0  0  0  0  0  0  0  0  0
   -2.7962   -1.4437    0.0000 C   0  0  0  0  0  0  0  0  0  0  0  0
    2.9193    1.0312    0.0000 C   0  0  0  0  0  0  0  0  0  0  0  0
    3.6339    0.6186    0.0000 N   0  0  0  0  0  0  0  0  0  0  0  0
    4.3875    0.9542    0.0000 C   0  0  0  0  0  0  0  0  0  0  0  0
    3.7200   -0.2018    0.0000 C   0  0  0  0  0  0  0  0  0  0  0  0
    4.9396    0.3410    0.0000 C   0  0  0  0  0  0  0  0  0  0  0  0
    4.5272   -0.3733    0.0000 C   0  0  0  0  0  0  0  0  0  0  0  0
   -1.3673   -1.6887    0.0000 H   0  0  0  0  0  0  0  0  0  0  0  0
   -2.2940   -1.1537    0.0000 H   0  0  0  0  0  0  0  0  0  0  0  0
   -0.8652   -1.1536    0.0000 H   0  0  0  0  0  0  0  0  0  0  0  0
    0.1871    1.9287    0.0000 H   0  0  0  0  0  0  0  0  0  0  0  0
   -0.5558    2.3247    0.0000 H   0  0  0  0  0  0  0  0  0  0  0  0
    1.4905   -1.5557    0.0000 H   0  0  0  0  0  0  0  0  0  0  0  0
    0.7759   -2.9262    0.0000 H   0  0  0  0  0  0  0  0  0  0  0  0
    1.7026   -1.3212    0.0000 H   0  0  0  0  0  0  0  0  0  0  0  0
    1.7025   -2.3912    0.0000 H   0  0  0  0  0  0  0  0  0  0  0  0
   -1.5796   -1.3212    0.0000 H   0  0  0  0  0  0  0  0  0  0  0  0
   -0.6529   -2.9262    0.0000 H   0  0  0  0  0  0  0  0  0  0  0  0
   -1.5795   -2.3912    0.0000 H   0  0  0  0  0  0  0  0  0  0  0  0
    2.2047   -0.3658    0.0000 H   0  0  0  0  0  0  0  0  0  0  0  0
   -4.2251   -1.6507    0.0000 H   0  0  0  0  0  0  0  0  0  0  0  0
   -5.8334   -0.7221    0.0000 H   0  0  0  0  0  0  0  0  0  0  0  0
   -5.8333    1.1347    0.0000 H   0  0  0  0  0  0  0  0  0  0  0  0
   -3.4136    2.3247    0.0000 H   0  0  0  0  0  0  0  0  0  0  0  0
   -4.3507   -0.5462    0.0000 H   0  0  0  0  0  0  0  0  0  0  0  0
   -3.7228   -1.9787    0.0000 H   0  0  0  0  0  0  0  0  0  0  0  0
   -1.8696   -1.9787    0.0000 H   0  0  0  0  0  0  0  0  0  0  0  0
   -2.7962   -2.5137    0.0000 H   0  0  0  0  0  0  0  0  0  0  0  0
    2.9193    2.1012    0.0000 H   0  0  0  0  0  0  0  0  0  0  0  0
    3.8460    1.5662    0.0000 H   0  0  0  0  0  0  0  0  0  0  0  0
    4.6099    2.0008    0.0000 H   0  0  0  0  0  0  0  0  0  0  0  0
    5.4210    1.2311    0.0000 H   0  0  0  0  0  0  0  0  0  0  0  0
    2.9248   -0.9177    0.0000 H   0  0  0  0  0  0  0  0  0  0  0  0
    3.9970   -1.2353    0.0000 H   0  0  0  0  0  0  0  0  0  0  0  0
    6.0037    0.4528    0.0000 H   0  0  0  0  0  0  0  0  0  0  0  0
    5.5224   -0.5564    0.0000 H   0  0  0  0  0  0  0  0  0  0  0  0
    4.9625   -1.3508    0.0000 H   0  0  0  0  0  0  0  0  0  0  0  0
    5.5957   -0.4293    0.0000 H   0  0  0  0  0  0  0  0  0  0  0  0
  1 26  2  0  0  0  0
  1  2  1  0  0  0  0
  2 27  2  0  0  0  0
  3 11  1  0  0  0  0
  3 31  1  1  0  0  0
  3  4  1  0  0  0  0
  3  5  1  0  0  0  0
  4 12  1  0  0  0  0
  4 13  1  1  0  0  0
  4  6  1  0  0  0  0
  5  7  1  0  0  0  0
  5 41  1  0  0  0  0
  5 42  1  0  0  0  0
  6 16  1  0  0  0  0
  6  8  2  0  0  0  0
  7 32  1  1  0  0  0
  7  8  1  0  0  0  0
  7 10  1  0  0  0  0
  8  9  1  0  0  0  0
  9  2  1  0  0  0  0
  9 23  2  0  0  0  0
 10  1  1  0  0  0  0
 10 34  1  0  0  0  0
 10 33  1  6  0  0  0
 11 14  1  0  0  0  0
 11 15  1  0  0  0  0
 11 43  1  6  0  0  0
 12 17  1  0  0  0  0
 12 18  2  0  0  0  0
 13 44  1  0  0  0  0
 14 19  1  0  0  0  0
 14 17  2  0  0  0  0
 15 20  1  0  0  0  0
 15 21  1  0  0  0  0
 16 45  1  0  0  0  0
 17 22  1  0  0  0  0
 19 46  1  0  0  0  0
 20 47  1  0  0  0  0
 20 48  1  0  0  0  0
 20 49  1  0  0  0  0
 21 50  1  0  0  0  0
 21 51  1  0  0  0  0
 21 52  1  0  0  0  0
 22 24  1  0  0  0  0
 22 25  2  0  0  0  0
 24 35  1  0  0  0  0
 24 53  1  0  0  0  0
 26 28  1  0  0  0  0
 26 54  1  0  0  0  0
 27 29  1  0  0  0  0
 27 30  1  0  0  0  0
 28 29  2  0  0  0  0
 28 55  1  0  0  0  0
 29 56  1  0  0  0  0
 30 57  1  0  0  0  0
 33 58  1  0  0  0  0
 34 59  1  0  0  0  0
 34 60  1  0  0  0  0
 34 61  1  0  0  0  0
 35 36  1  0  0  0  0
 35 62  1  0  0  0  0
 35 63  1  0  0  0  0
 37 36  1  0  0  0  0
 37 64  1  0  0  0  0
 37 65  1  0  0  0  0
 38 36  1  0  0  0  0
 38 66  1  0  0  0  0
 38 67  1  0  0  0  0
 39 37  1  0  0  0  0
 39 68  1  0  0  0  0
 39 69  1  0  0  0  0
 40 38  1  0  0  0  0
 40 39  1  0  0  0  0
 40 70  1  0  0  0  0
 40 71  1  0  0  0  0
M  END
>  <DRUGBANK_ID>
DB01301

>  <COMMON_NAME>
Rolitetracycline

>  <CAS_NUMBER>
751-97-3

>  <UNII>
GH9IW85221

>  <SYNONYMS>
N-(1-Pyrrolidinylmethyl)-tetracycline; N-(Pyrrolidinomethyl)tetracycline; Pyrrolidino-methyl-tetracycline; Rolitetraciclina; Rolitetracycline; Rolitetracyclinum

$$$$
