[NO NAME]
 OpenBabel10282417072D
Created with ChemWriter - http://chemwriter.com
 16 14  0  0  0  0  0  0  0  0999 V2000
    1.8719    1.7490    0.0000 C   0  0  0  0  0  0  0  0  0  0  0  0
    1.1575    0.5115    0.0000 C   0  0  0  0  0  0  0  0  0  0  0  0
    1.1575    1.3365    0.0000 C   0  0  3  0  0  0  0  0  0  0  0  0
    2.6061    0.0180    0.0000 N   0  3  0  0  0  0  0  0  0  0  0  0
    1.8719    2.5740    0.0000 O   0  0  0  0  0  0  0  0  0  0  0  0
    2.5864    1.3365    0.0000 O   0  5  0  0  0  0  0  0  0  0  0  0
    0.4429    1.7490    0.0000 O   0  0  0  0  0  0  0  0  0  0  0  0
    0.2309   -0.0235    0.0000 H   0  0  0  0  0  0  0  0  0  0  0  0
    2.0841   -0.0235    0.0000 H   0  0  0  0  0  0  0  0  0  0  0  0
    1.1575   -0.5585    0.0000 H   0  0  0  0  0  0  0  0  0  0  0  0
    2.0842    0.8015    0.0000 H   0  0  0  0  0  0  0  0  0  0  0  0
    3.6261    0.0180    0.0000 H   0  0  0  0  0  0  0  0  0  0  0  0
    2.0961    0.9013    0.0000 H   0  0  0  0  0  0  0  0  0  0  0  0
    2.0961   -0.8653    0.0000 H   0  0  0  0  0  0  0  0  0  0  0  0
    1.5861    0.0180    0.0000 H   0  0  0  0  0  0  0  0  0  0  0  0
    0.4428    2.7190    0.0000 H   0  0  0  0  0  0  0  0  0  0  0  0
  2  8  1  0  0  0  0
  2  9  1  0  0  0  0
  2 10  1  0  0  0  0
  3  1  1  0  0  0  0
  3  2  1  0  0  0  0
  3 11  1  0  0  0  0
  4 12  1  0  0  0  0
  4 13  1  0  0  0  0
  4 14  1  0  0  0  0
  4 15  1  0  0  0  0
  5  1  2  0  0  0  0
  6  1  1  0  0  0  0
  7  3  1  0  0  0  0
  7 16  1  0  0  0  0
M  CHG  2   4   1   6  -1
M  END
>  <DRUGBANK_ID>
DB06768

>  <COMMON_NAME>
Ammonium lactate

>  <CAS_NUMBER>
515-98-0

>  <UNII>
67M901L9NQ

>  <SYNONYMS>
Ammonium (+-)-lactate; Ammonium lactate; Lactic acid ammonium salt

$$$$
