
 OpenBabel10282417072D

 36 36  0  0  0  0  0  0  0  0999 V2000
    0.7145   -3.7125    0.0000 C   0  0  0  0  0  0  0  0  0  0  0  0
    1.4289   -4.1250    0.0000 C   0  0  0  0  0  0  0  0  0  0  0  0
    2.1434   -3.7125    0.0000 C   0  0  0  0  0  0  0  0  0  0  0  0
    2.8579   -4.1250    0.0000 N   0  0  0  0  0  0  0  0  0  0  0  0
    3.5724   -3.7125    0.0000 C   0  0  0  0  0  0  0  0  0  0  0  0
    4.2868   -4.1250    0.0000 C   0  0  0  0  0  0  0  0  0  0  0  0
    5.0013   -3.7125    0.0000 O   0  0  0  0  0  0  0  0  0  0  0  0
    5.7158   -4.1250    0.0000 C   0  0  0  0  0  0  0  0  0  0  0  0
    6.4302   -3.7125    0.0000 C   0  0  0  0  0  0  0  0  0  0  0  0
    7.1447   -4.1250    0.0000 C   0  0  0  0  0  0  0  0  0  0  0  0
    7.1447   -4.9500    0.0000 C   0  0  0  0  0  0  0  0  0  0  0  0
    6.4302   -5.3625    0.0000 C   0  0  0  0  0  0  0  0  0  0  0  0
    6.4302   -6.1875    0.0000 F   0  0  0  0  0  0  0  0  0  0  0  0
    5.7158   -4.9500    0.0000 C   0  0  0  0  0  0  0  0  0  0  0  0
    7.8592   -3.7125    0.0000 S   0  0  0  0  0  0  0  0  0  0  0  0
    8.5737   -3.3000    0.0000 C   0  0  0  0  0  0  0  0  0  0  0  0
    8.2717   -4.4270    0.0000 O   0  0  0  0  0  0  0  0  0  0  0  0
    7.4467   -2.9980    0.0000 O   0  0  0  0  0  0  0  0  0  0  0  0
    0.7145   -2.6425    0.0000 H   0  0  0  0  0  0  0  0  0  0  0  0
   -0.2122   -4.2475    0.0000 H   0  0  0  0  0  0  0  0  0  0  0  0
   -0.2121   -3.1775    0.0000 H   0  0  0  0  0  0  0  0  0  0  0  0
    1.4289   -5.1950    0.0000 H   0  0  0  0  0  0  0  0  0  0  0  0
    2.3555   -4.6600    0.0000 H   0  0  0  0  0  0  0  0  0  0  0  0
    2.1434   -2.6425    0.0000 H   0  0  0  0  0  0  0  0  0  0  0  0
    3.0700   -3.1775    0.0000 H   0  0  0  0  0  0  0  0  0  0  0  0
    2.8579   -5.1450    0.0000 H   0  0  0  0  0  0  0  0  0  0  0  0
    3.5724   -2.6425    0.0000 H   0  0  0  0  0  0  0  0  0  0  0  0
    4.4991   -3.1775    0.0000 H   0  0  0  0  0  0  0  0  0  0  0  0
    4.2868   -5.1950    0.0000 H   0  0  0  0  0  0  0  0  0  0  0  0
    5.2134   -4.6600    0.0000 H   0  0  0  0  0  0  0  0  0  0  0  0
    6.4302   -2.6805    0.0000 H   0  0  0  0  0  0  0  0  0  0  0  0
    8.0384   -5.4660    0.0000 H   0  0  0  0  0  0  0  0  0  0  0  0
    4.8221   -5.4660    0.0000 H   0  0  0  0  0  0  0  0  0  0  0  0
    9.5003   -3.8350    0.0000 H   0  0  0  0  0  0  0  0  0  0  0  0
    8.5737   -2.2300    0.0000 H   0  0  0  0  0  0  0  0  0  0  0  0
    9.5004   -2.7650    0.0000 H   0  0  0  0  0  0  0  0  0  0  0  0
  1  2  1  0  0  0  0
  1 19  1  0  0  0  0
  1 20  1  0  0  0  0
  1 21  1  0  0  0  0
  2  3  1  0  0  0  0
  2 22  1  0  0  0  0
  2 23  1  0  0  0  0
  3  4  1  0  0  0  0
  3 24  1  0  0  0  0
  3 25  1  0  0  0  0
  4  5  1  0  0  0  0
  4 26  1  0  0  0  0
  5  6  1  0  0  0  0
  5 27  1  0  0  0  0
  5 28  1  0  0  0  0
  6  7  1  0  0  0  0
  6 29  1  0  0  0  0
  6 30  1  0  0  0  0
  7  8  1  0  0  0  0
  8  9  2  0  0  0  0
  8 14  1  0  0  0  0
  9 10  1  0  0  0  0
  9 31  1  0  0  0  0
 10 11  2  0  0  0  0
 10 15  1  0  0  0  0
 11 12  1  0  0  0  0
 11 32  1  0  0  0  0
 12 13  1  0  0  0  0
 12 14  2  0  0  0  0
 14 33  1  0  0  0  0
 15 16  1  0  0  0  0
 15 17  2  0  0  0  0
 15 18  2  0  0  0  0
 16 34  1  0  0  0  0
 16 35  1  0  0  0  0
 16 36  1  0  0  0  0
M  END
>  <DRUGBANK_ID>
DB16229

>  <COMMON_NAME>
Mesdopetam

>  <CAS_NUMBER>
1403894-72-3

>  <UNII>
HD4QV8GX26

>  <SYNONYMS>
Mesdopetam

$$$$
