
 OpenBabel10282417072D

 65 67  0  0  0  0  0  0  0  0999 V2000
   -4.1250   -0.3572    0.0000 F   0  0  0  0  0  0  0  0  0  0  0  0
   -0.4125    0.3572    0.0000 O   0  0  0  0  0  0  0  0  0  0  0  0
    1.6500    1.0716    0.0000 O   0  0  0  0  0  0  0  0  0  0  0  0
   -1.6500    1.0716    0.0000 O   0  0  0  0  0  0  0  0  0  0  0  0
    1.6500   -0.3571    0.0000 O   0  0  0  0  0  0  0  0  0  0  0  0
   -2.0625   -1.0717    0.0000 O   0  0  0  0  0  0  0  0  0  0  0  0
    0.8249    2.5006    0.0000 O   0  0  0  0  0  0  0  0  0  0  0  0
   -0.8250    2.5006    0.0000 O   0  0  0  0  0  0  0  0  0  0  0  0
    3.3000    1.0716    0.0000 O   0  0  0  0  0  0  0  0  0  0  0  0
   -3.3000    1.0715    0.0000 O   0  0  0  0  0  0  0  0  0  0  0  0
    4.1250   -0.3571    0.0000 O   0  0  0  0  0  0  0  0  0  0  0  0
    3.3000   -1.7861    0.0000 O   0  0  0  0  0  0  0  0  0  0  0  0
    0.4125   -1.0717    0.0000 O   0  0  0  0  0  0  0  0  0  0  0  0
   -3.3000   -1.7862    0.0000 O   0  0  0  0  0  0  0  0  0  0  0  0
   -0.4124   -1.0717    0.0000 O   0  0  0  0  0  0  0  0  0  0  0  0
    2.0625   -2.5006    0.0000 O   0  0  0  0  0  0  0  0  0  0  0  0
    0.8249    1.0716    0.0000 C   0  0  1  0  0  0  0  0  0  0  0  0
    0.4124    1.7861    0.0000 C   0  0  1  0  0  0  0  0  0  0  0  0
   -0.4125    1.7861    0.0000 C   0  0  2  0  0  0  0  0  0  0  0  0
    0.4125    0.3572    0.0000 C   0  0  1  0  0  0  0  0  0  0  0  0
   -0.8250    1.0716    0.0000 C   0  0  1  0  0  0  0  0  0  0  0  0
   -2.0625    0.3571    0.0000 C   0  0  1  0  0  0  0  0  0  0  0  0
    2.0625    0.3572    0.0000 C   0  0  2  0  0  0  0  0  0  0  0  0
    2.8875    0.3572    0.0000 C   0  0  1  0  0  0  0  0  0  0  0  0
   -2.8875    0.3571    0.0000 C   0  0  1  0  0  0  0  0  0  0  0  0
   -1.6500   -0.3572    0.0000 C   0  0  1  0  0  0  0  0  0  0  0  0
    3.3000   -0.3571    0.0000 C   0  0  2  0  0  0  0  0  0  0  0  0
    2.8875   -1.0716    0.0000 C   0  0  1  0  0  0  0  0  0  0  0  0
    2.0625   -1.0716    0.0000 C   0  0  1  0  0  0  0  0  0  0  0  0
   -3.3000   -0.3572    0.0000 C   0  0  2  0  0  0  0  0  0  0  0  0
    0.8250   -0.3571    0.0000 C   0  0  0  0  0  0  0  0  0  0  0  0
   -2.8875   -1.0717    0.0000 C   0  0  2  0  0  0  0  0  0  0  0  0
   -0.8250   -0.3572    0.0000 C   0  0  0  0  0  0  0  0  0  0  0  0
    1.6500   -1.7862    0.0000 C   0  0  0  0  0  0  0  0  0  0  0  0
   -3.6300   -0.9288    0.0000 H   0  0  0  0  0  0  0  0  0  0  0  0
    1.7949    2.5006    0.0000 H   0  0  0  0  0  0  0  0  0  0  0  0
   -0.3400    3.3406    0.0000 H   0  0  0  0  0  0  0  0  0  0  0  0
    4.2700    1.0716    0.0000 H   0  0  0  0  0  0  0  0  0  0  0  0
   -2.8150    1.9116    0.0000 H   0  0  0  0  0  0  0  0  0  0  0  0
    4.6100   -1.1971    0.0000 H   0  0  0  0  0  0  0  0  0  0  0  0
    2.8150   -2.6261    0.0000 H   0  0  0  0  0  0  0  0  0  0  0  0
   -0.5575   -1.0718    0.0000 H   0  0  0  0  0  0  0  0  0  0  0  0
   -4.2700   -1.7862    0.0000 H   0  0  0  0  0  0  0  0  0  0  0  0
   -0.8973   -1.9118    0.0000 H   0  0  0  0  0  0  0  0  0  0  0  0
    1.5775   -3.3407    0.0000 H   0  0  0  0  0  0  0  0  0  0  0  0
    1.3599    1.9982    0.0000 H   0  0  0  0  0  0  0  0  0  0  0  0
    1.4824    1.7861    0.0000 H   0  0  0  0  0  0  0  0  0  0  0  0
    0.1225    2.7127    0.0000 H   0  0  0  0  0  0  0  0  0  0  0  0
   -0.1225   -0.5695    0.0000 H   0  0  0  0  0  0  0  0  0  0  0  0
   -1.3600    0.1449    0.0000 H   0  0  0  0  0  0  0  0  0  0  0  0
   -2.5975    1.2837    0.0000 H   0  0  0  0  0  0  0  0  0  0  0  0
    0.9925    0.3572    0.0000 H   0  0  0  0  0  0  0  0  0  0  0  0
    2.3525    1.2839    0.0000 H   0  0  0  0  0  0  0  0  0  0  0  0
   -2.3525    1.2838    0.0000 H   0  0  0  0  0  0  0  0  0  0  0  0
   -1.1150   -1.2838    0.0000 H   0  0  0  0  0  0  0  0  0  0  0  0
    3.8350    0.5696    0.0000 H   0  0  0  0  0  0  0  0  0  0  0  0
    3.9575   -1.0716    0.0000 H   0  0  0  0  0  0  0  0  0  0  0  0
    0.9925   -1.0716    0.0000 H   0  0  0  0  0  0  0  0  0  0  0  0
    1.8950   -0.3570    0.0000 H   0  0  0  0  0  0  0  0  0  0  0  0
    1.3599    0.5696    0.0000 H   0  0  0  0  0  0  0  0  0  0  0  0
   -2.3525   -1.9983    0.0000 H   0  0  0  0  0  0  0  0  0  0  0  0
   -0.2900    0.5695    0.0000 H   0  0  0  0  0  0  0  0  0  0  0  0
   -1.3600    0.5694    0.0000 H   0  0  0  0  0  0  0  0  0  0  0  0
    0.5800   -1.7863    0.0000 H   0  0  0  0  0  0  0  0  0  0  0  0
    1.1149   -0.8596    0.0000 H   0  0  0  0  0  0  0  0  0  0  0  0
  1 30  1  0  0  0  0
  2 20  1  0  0  0  0
  2 21  1  0  0  0  0
  5 23  1  0  0  0  0
  5 29  1  0  0  0  0
  6 26  1  0  0  0  0
  6 32  1  0  0  0  0
  7 36  1  0  0  0  0
  8 37  1  0  0  0  0
  9 38  1  0  0  0  0
 10 39  1  0  0  0  0
 11 40  1  0  0  0  0
 12 41  1  0  0  0  0
 13 31  1  0  0  0  0
 13 42  1  0  0  0  0
 14 43  1  0  0  0  0
 15 33  1  0  0  0  0
 15 44  1  0  0  0  0
 16 34  1  0  0  0  0
 16 45  1  0  0  0  0
 17  3  1  0  0  0  0
 17 18  1  0  0  0  0
 17 20  1  0  0  0  0
 17 46  1  1  0  0  0
 18  7  1  0  0  0  0
 18 19  1  0  0  0  0
 18 47  1  6  0  0  0
 19  8  1  0  0  0  0
 19 21  1  0  0  0  0
 19 48  1  1  0  0  0
 20 31  1  0  0  0  0
 20 49  1  6  0  0  0
 21  4  1  0  0  0  0
 21 50  1  6  0  0  0
 22  4  1  0  0  0  0
 22 25  1  0  0  0  0
 22 26  1  0  0  0  0
 22 51  1  1  0  0  0
 23  3  1  0  0  0  0
 23 24  1  0  0  0  0
 23 52  1  6  0  0  0
 24  9  1  0  0  0  0
 24 27  1  0  0  0  0
 24 53  1  1  0  0  0
 25 10  1  0  0  0  0
 25 30  1  0  0  0  0
 25 54  1  6  0  0  0
 26 33  1  0  0  0  0
 26 55  1  6  0  0  0
 27 11  1  0  0  0  0
 27 28  1  0  0  0  0
 27 56  1  6  0  0  0
 28 12  1  0  0  0  0
 28 29  1  0  0  0  0
 28 57  1  1  0  0  0
 29 34  1  0  0  0  0
 29 58  1  6  0  0  0
 30 32  1  0  0  0  0
 30 35  1  1  0  0  0
 31 59  1  0  0  0  0
 31 60  1  0  0  0  0
 32 14  1  0  0  0  0
 32 61  1  1  0  0  0
 33 62  1  0  0  0  0
 33 63  1  0  0  0  0
 34 64  1  0  0  0  0
 34 65  1  0  0  0  0
M  END
>  <DRUGBANK_ID>
DB01633

>  <SECONDARY_ACCESSION_NUMBERS>
EXPT01406

>  <COMMON_NAME>
Deoxy-2-fluoro-beta-D-cellotrioside

>  <SYNONYMS>
β-D-Glucopyranosyl-(1->4)-β-D-glucopyranosyl-(1->4)-2-deoxy-2-fluoro-α-D-glucopyranose

$$$$
