
 OpenBabel10282417072D

 22 22  0  0  0  0  0  0  0  0999 V2000
   -2.5006   -1.2375    0.0000 O   0  0  0  0  0  0  0  0  0  0  0  0
    1.0716    0.0000    0.0000 C   0  0  0  0  0  0  0  0  0  0  0  0
    0.3572    0.4124    0.0000 C   0  0  0  0  0  0  0  0  0  0  0  0
   -0.3572    0.0000    0.0000 C   0  0  0  0  0  0  0  0  0  0  0  0
   -0.3572   -0.8250    0.0000 C   0  0  0  0  0  0  0  0  0  0  0  0
   -1.0717   -1.2375    0.0000 C   0  0  0  0  0  0  0  0  0  0  0  0
   -1.7862   -0.8250    0.0000 C   0  0  0  0  0  0  0  0  0  0  0  0
   -1.7862    0.0000    0.0000 C   0  0  0  0  0  0  0  0  0  0  0  0
   -1.0717    0.4124    0.0000 C   0  0  0  0  0  0  0  0  0  0  0  0
    1.7861    0.4124    0.0000 C   0  0  0  0  0  0  0  0  0  0  0  0
    2.5006    0.0000    0.0000 O   0  0  0  0  0  0  0  0  0  0  0  0
    1.7861    1.2375    0.0000 O   0  0  0  0  0  0  0  0  0  0  0  0
   -3.3121   -0.7690    0.0000 H   0  0  0  0  0  0  0  0  0  0  0  0
    1.0716   -1.0700    0.0000 H   0  0  0  0  0  0  0  0  0  0  0  0
    1.9982   -0.5351    0.0000 H   0  0  0  0  0  0  0  0  0  0  0  0
    0.3572    1.4824    0.0000 H   0  0  0  0  0  0  0  0  0  0  0  0
   -0.5694    0.9474    0.0000 H   0  0  0  0  0  0  0  0  0  0  0  0
    0.5365   -1.3410    0.0000 H   0  0  0  0  0  0  0  0  0  0  0  0
   -1.0717   -2.2695    0.0000 H   0  0  0  0  0  0  0  0  0  0  0  0
   -2.6799    0.5161    0.0000 H   0  0  0  0  0  0  0  0  0  0  0  0
   -1.0717    1.4444    0.0000 H   0  0  0  0  0  0  0  0  0  0  0  0
    2.5007   -0.9370    0.0000 H   0  0  0  0  0  0  0  0  0  0  0  0
  1  7  1  0  0  0  0
  1 13  1  0  0  0  0
  2  3  1  0  0  0  0
  2 10  1  0  0  0  0
  2 14  1  0  0  0  0
  2 15  1  0  0  0  0
  3  4  1  0  0  0  0
  3 16  1  0  0  0  0
  3 17  1  0  0  0  0
  4  5  1  0  0  0  0
  4  9  2  0  0  0  0
  5  6  2  0  0  0  0
  5 18  1  0  0  0  0
  6  7  1  0  0  0  0
  6 19  1  0  0  0  0
  7  8  2  0  0  0  0
  8  9  1  0  0  0  0
  8 20  1  0  0  0  0
  9 21  1  0  0  0  0
 10 11  1  0  0  0  0
 10 12  2  0  0  0  0
 11 22  1  0  0  0  0
M  END
>  <DRUGBANK_ID>
DB03897

>  <SECONDARY_ACCESSION_NUMBERS>
EXPT01773

>  <COMMON_NAME>
Phloretic acid

>  <CAS_NUMBER>
501-97-3

>  <UNII>
6QNC6P18SR

>  <SYNONYMS>
3-(4-Hydroxyphenyl)propionic acid; 3-(p-hydroxyphenyl)propionic acid; 4-Hydroxyphenylpropionic acid; Desaminotyrosine; Dihydro-p-coumaric acid; Hydroxyphenyl propionic acid; p-Hydroxyhydrocinnamic acid; p-hydroxyphenylpropionic acid; Phloretic acid; Phloretinic acid; Î²-(p-hydroxyphenyl)propionic acid

$$$$
