
 OpenBabel10282417072D

 21 20  0  0  0  0  0  0  0  0999 V2000
    0.3572    0.2062    0.0000 C   0  0  0  0  0  0  0  0  0  0  0  0
   -0.3571   -0.2063    0.0000 C   0  0  0  0  0  0  0  0  0  0  0  0
    2.5006   -0.2062    0.0000 O   0  0  0  0  0  0  0  0  0  0  0  0
   -1.0716    0.2062    0.0000 C   0  0  0  0  0  0  0  0  0  0  0  0
    1.7862    0.2063    0.0000 C   0  0  0  0  0  0  0  0  0  0  0  0
    1.7862    1.0313    0.0000 O   0  0  0  0  0  0  0  0  0  0  0  0
    1.0717   -0.2062    0.0000 C   0  0  1  0  0  0  0  0  0  0  0  0
    1.0717   -1.0313    0.0000 N   0  0  0  0  0  0  0  0  0  0  0  0
   -1.7861   -0.2063    0.0000 C   0  0  0  0  0  0  0  0  0  0  0  0
   -2.5006    0.2062    0.0000 H   0  0  0  0  0  0  0  0  0  0  0  0
   -1.7861   -1.0313    0.0000 O   0  0  0  0  0  0  0  0  0  0  0  0
    0.3571    1.2762    0.0000 H   0  0  0  0  0  0  0  0  0  0  0  0
   -0.5695    0.7411    0.0000 H   0  0  0  0  0  0  0  0  0  0  0  0
   -0.3570   -1.2763    0.0000 H   0  0  0  0  0  0  0  0  0  0  0  0
   -1.2837   -0.7413    0.0000 H   0  0  0  0  0  0  0  0  0  0  0  0
    2.5006   -1.1432    0.0000 H   0  0  0  0  0  0  0  0  0  0  0  0
   -1.0716    1.2762    0.0000 H   0  0  0  0  0  0  0  0  0  0  0  0
   -1.9982    0.7412    0.0000 H   0  0  0  0  0  0  0  0  0  0  0  0
    0.1451   -0.7413    0.0000 H   0  0  0  0  0  0  0  0  0  0  0  0
    0.1884   -1.5413    0.0000 H   0  0  0  0  0  0  0  0  0  0  0  0
    1.9550   -1.5413    0.0000 H   0  0  0  0  0  0  0  0  0  0  0  0
  1  2  1  0  0  0  0
  1 12  1  0  0  0  0
  1 13  1  0  0  0  0
  2  4  1  0  0  0  0
  2 14  1  0  0  0  0
  2 15  1  0  0  0  0
  3 16  1  0  0  0  0
  4  9  1  0  0  0  0
  4 17  1  0  0  0  0
  4 18  1  0  0  0  0
  5  3  1  0  0  0  0
  5  6  2  0  0  0  0
  7  1  1  0  0  0  0
  7  5  1  0  0  0  0
  7  8  1  0  0  0  0
  7 19  1  6  0  0  0
  8 20  1  0  0  0  0
  8 21  1  0  0  0  0
  9 10  1  0  0  0  0
  9 11  2  0  0  0  0
M  END
>  <DRUGBANK_ID>
DB02571

>  <SECONDARY_ACCESSION_NUMBERS>
EXPT01240

>  <COMMON_NAME>
Allysine

>  <CAS_NUMBER>
6665-12-9

>  <UNII>
425I4Y24YZ

>  <SYNONYMS>
2-Amino-5-formylvaleric acid; 2-Amino-6-oxo-hexanoic acid; 2-Aminoadipate semialdehyde; 6-Oxo-L-norleucine; L-Allysine

$$$$
