
 OpenBabel10282417072D

 28 29  0  0  0  0  0  0  0  0999 V2000
   -2.8579    2.4750    0.0000 C   0  0  0  0  0  0  0  0  0  0  0  0
   -2.8579    1.6500    0.0000 C   0  0  0  0  0  0  0  0  0  0  0  0
   -2.1434    1.2375    0.0000 C   0  0  0  0  0  0  0  0  0  0  0  0
   -1.4289    1.6500    0.0000 C   0  0  0  0  0  0  0  0  0  0  0  0
   -1.4289    2.4750    0.0000 C   0  0  0  0  0  0  0  0  0  0  0  0
   -2.1434    2.8875    0.0000 C   0  0  0  0  0  0  0  0  0  0  0  0
   -0.7145    2.8875    0.0000 C   0  0  0  0  0  0  0  0  0  0  0  0
    0.0000    2.4750    0.0000 C   0  0  0  0  0  0  0  0  0  0  0  0
    0.0000    1.6500    0.0000 N   0  0  0  0  0  0  0  0  0  0  0  0
   -0.7145    1.2375    0.0000 C   0  0  0  0  0  0  0  0  0  0  0  0
   -0.7145    0.4125    0.0000 Cl  0  0  0  0  0  0  0  0  0  0  0  0
    0.7145    2.8875    0.0000 C   0  0  0  0  0  0  0  0  0  0  0  0
    0.7145    3.7125    0.0000 O   0  0  0  0  0  0  0  0  0  0  0  0
    1.4289    2.4750    0.0000 N   0  0  0  0  0  0  0  0  0  0  0  0
    2.1434    2.8875    0.0000 C   0  0  0  0  0  0  0  0  0  0  0  0
    2.8579    2.4750    0.0000 C   0  0  0  0  0  0  0  0  0  0  0  0
    3.5724    2.8875    0.0000 O   0  0  0  0  0  0  0  0  0  0  0  0
    2.8579    1.6500    0.0000 O   0  0  0  0  0  0  0  0  0  0  0  0
   -0.7145    3.7125    0.0000 O   0  0  0  0  0  0  0  0  0  0  0  0
   -3.7516    2.9910    0.0000 H   0  0  0  0  0  0  0  0  0  0  0  0
   -3.7516    1.1340    0.0000 H   0  0  0  0  0  0  0  0  0  0  0  0
   -2.1434    0.2055    0.0000 H   0  0  0  0  0  0  0  0  0  0  0  0
   -2.1434    3.9195    0.0000 H   0  0  0  0  0  0  0  0  0  0  0  0
    1.4289    1.4905    0.0000 H   0  0  0  0  0  0  0  0  0  0  0  0
    2.1434    3.9575    0.0000 H   0  0  0  0  0  0  0  0  0  0  0  0
    3.0700    3.4225    0.0000 H   0  0  0  0  0  0  0  0  0  0  0  0
    2.0464    1.1815    0.0000 H   0  0  0  0  0  0  0  0  0  0  0  0
    0.0970    4.1810    0.0000 H   0  0  0  0  0  0  0  0  0  0  0  0
  1  2  2  0  0  0  0
  1  6  1  0  0  0  0
  1 20  1  0  0  0  0
  2  3  1  0  0  0  0
  2 21  1  0  0  0  0
  3  4  2  0  0  0  0
  3 22  1  0  0  0  0
  4  5  1  0  0  0  0
  4 10  1  0  0  0  0
  5  6  2  0  0  0  0
  5  7  1  0  0  0  0
  6 23  1  0  0  0  0
  7  8  2  0  0  0  0
  7 19  1  0  0  0  0
  8  9  1  0  0  0  0
  8 12  1  0  0  0  0
  9 10  2  0  0  0  0
 10 11  1  0  0  0  0
 12 13  2  0  0  0  0
 12 14  1  0  0  0  0
 14 15  1  0  0  0  0
 14 24  1  0  0  0  0
 15 16  1  0  0  0  0
 15 25  1  0  0  0  0
 15 26  1  0  0  0  0
 16 17  2  0  0  0  0
 16 18  1  0  0  0  0
 18 27  1  0  0  0  0
 19 28  1  0  0  0  0
M  END
>  <DRUGBANK_ID>
DB08687

>  <SECONDARY_ACCESSION_NUMBERS>
DB05577

>  <COMMON_NAME>
FG-2216

>  <CAS_NUMBER>
223387-75-5

>  <UNII>
RU921DS4Z5

>  <SYNONYMS>
(((1-Chloro-4-hydroxyisoquinolin-3-yl)carbonyl)amino)acetic acid; 1-Chloro-N- (hydroxyformylmethyl-4-hydroxyisoquinoline-3-carboxamide; 1-Chloro-N-(hydroxyformylmethyl-4-hydroxyisoquinoline-3-carboxamide

$$$$
