1502
 OpenBabel10282417072D

 52 53  0  0  1  0  0  0  0  0999 V2000
    5.9370   -1.4438    0.0000 O   0  0  0  0  0  0  0  0  0  0  0  0
    3.0791    0.2063    0.0000 N   0  0  0  0  0  0  0  0  0  0  0  0
    4.5080   -1.4438    0.0000 N   0  0  0  0  0  0  0  0  0  0  0  0
    3.7935   -0.2063    0.0000 C   0  0  3  0  0  0  0  0  0  0  0  0
    3.7935   -1.0313    0.0000 C   0  0  0  0  0  0  0  0  0  0  0  0
    3.0791    1.0313    0.0000 C   0  0  0  0  0  0  0  0  0  0  0  0
    4.5080    0.2063    0.0000 C   0  0  0  0  0  0  0  0  0  0  0  0
    2.3645    1.4438    0.0000 C   0  0  0  0  0  0  0  0  0  0  0  0
    2.3645   -0.2063    0.0000 C   0  0  0  0  0  0  0  0  0  0  0  0
    4.5080   -2.2688    0.0000 C   0  0  0  0  0  0  0  0  0  0  0  0
    2.3645    2.2688    0.0000 C   0  0  0  0  0  0  0  0  0  0  0  0
    5.2224   -1.0313    0.0000 C   0  0  0  0  0  0  0  0  0  0  0  0
    5.2224   -0.2063    0.0000 C   0  0  0  0  0  0  0  0  0  0  0  0
    5.2224   -2.6813    0.0000 C   0  0  0  0  0  0  0  0  0  0  0  0
    3.7935   -2.6813    0.0000 C   0  0  0  0  0  0  0  0  0  0  0  0
    1.6500    2.6813    0.0000 C   0  0  0  0  0  0  0  0  0  0  0  0
    3.0791    2.6813    0.0000 C   0  0  0  0  0  0  0  0  0  0  0  0
    5.9370    0.2063    0.0000 C   0  0  0  0  0  0  0  0  0  0  0  0
    5.2224   -3.5063    0.0000 C   0  0  0  0  0  0  0  0  0  0  0  0
    3.7935   -3.5063    0.0000 C   0  0  0  0  0  0  0  0  0  0  0  0
    1.6500    3.5063    0.0000 C   0  0  0  0  0  0  0  0  0  0  0  0
    3.0791    3.5063    0.0000 C   0  0  0  0  0  0  0  0  0  0  0  0
    4.5080   -3.9188    0.0000 C   0  0  0  0  0  0  0  0  0  0  0  0
    2.3645    3.9188    0.0000 C   0  0  0  0  0  0  0  0  0  0  0  0
    2.8668   -0.7412    0.0000 H   0  0  0  0  0  0  0  0  0  0  0  0
    2.8669   -1.5663    0.0000 H   0  0  0  0  0  0  0  0  0  0  0  0
    2.8669   -0.4963    0.0000 H   0  0  0  0  0  0  0  0  0  0  0  0
    4.0057    1.5663    0.0000 H   0  0  0  0  0  0  0  0  0  0  0  0
    3.0790    2.1013    0.0000 H   0  0  0  0  0  0  0  0  0  0  0  0
    5.4347   -0.3286    0.0000 H   0  0  0  0  0  0  0  0  0  0  0  0
    4.5079    1.2763    0.0000 H   0  0  0  0  0  0  0  0  0  0  0  0
    5.4346    0.7414    0.0000 H   0  0  0  0  0  0  0  0  0  0  0  0
    1.4379    0.9088    0.0000 H   0  0  0  0  0  0  0  0  0  0  0  0
    1.4378    1.9788    0.0000 H   0  0  0  0  0  0  0  0  0  0  0  0
    1.4378    0.3287    0.0000 H   0  0  0  0  0  0  0  0  0  0  0  0
    2.3645   -1.2763    0.0000 H   0  0  0  0  0  0  0  0  0  0  0  0
    1.4379   -0.7413    0.0000 H   0  0  0  0  0  0  0  0  0  0  0  0
    4.2957    0.3287    0.0000 H   0  0  0  0  0  0  0  0  0  0  0  0
    5.2224    0.8637    0.0000 H   0  0  0  0  0  0  0  0  0  0  0  0
    6.1161   -2.1653    0.0000 H   0  0  0  0  0  0  0  0  0  0  0  0
    2.8998   -2.1653    0.0000 H   0  0  0  0  0  0  0  0  0  0  0  0
    0.7563    2.1653    0.0000 H   0  0  0  0  0  0  0  0  0  0  0  0
    3.9728    2.1653    0.0000 H   0  0  0  0  0  0  0  0  0  0  0  0
    6.8637   -0.3287    0.0000 H   0  0  0  0  0  0  0  0  0  0  0  0
    5.9370    1.2763    0.0000 H   0  0  0  0  0  0  0  0  0  0  0  0
    6.8636    0.7413    0.0000 H   0  0  0  0  0  0  0  0  0  0  0  0
    6.1161   -4.0223    0.0000 H   0  0  0  0  0  0  0  0  0  0  0  0
    2.8998   -4.0223    0.0000 H   0  0  0  0  0  0  0  0  0  0  0  0
    0.7563    4.0223    0.0000 H   0  0  0  0  0  0  0  0  0  0  0  0
    3.9728    4.0223    0.0000 H   0  0  0  0  0  0  0  0  0  0  0  0
    4.5080   -4.9508    0.0000 H   0  0  0  0  0  0  0  0  0  0  0  0
    2.3645    4.9508    0.0000 H   0  0  0  0  0  0  0  0  0  0  0  0
  1 12  2  0  0  0  0
  2  4  1  0  0  0  0
  2  6  1  0  0  0  0
  2  9  1  0  0  0  0
  3  5  1  0  0  0  0
  3 10  1  0  0  0  0
  3 12  1  0  0  0  0
  4  5  1  0  0  0  0
  4  7  1  0  0  0  0
  4 25  1  0  0  0  0
  5 26  1  0  0  0  0
  5 27  1  0  0  0  0
  6  8  1  0  0  0  0
  6 28  1  0  0  0  0
  6 29  1  0  0  0  0
  7 30  1  0  0  0  0
  7 31  1  0  0  0  0
  7 32  1  0  0  0  0
  8 11  1  0  0  0  0
  8 33  1  0  0  0  0
  8 34  1  0  0  0  0
  9 35  1  0  0  0  0
  9 36  1  0  0  0  0
  9 37  1  0  0  0  0
 10 14  2  0  0  0  0
 10 15  1  0  0  0  0
 11 16  2  0  0  0  0
 11 17  1  0  0  0  0
 12 13  1  0  0  0  0
 13 18  1  0  0  0  0
 13 38  1  0  0  0  0
 13 39  1  0  0  0  0
 14 19  1  0  0  0  0
 14 40  1  0  0  0  0
 15 20  2  0  0  0  0
 15 41  1  0  0  0  0
 16 21  1  0  0  0  0
 16 42  1  0  0  0  0
 17 22  2  0  0  0  0
 17 43  1  0  0  0  0
 18 44  1  0  0  0  0
 18 45  1  0  0  0  0
 18 46  1  0  0  0  0
 19 23  2  0  0  0  0
 19 47  1  0  0  0  0
 20 23  1  0  0  0  0
 20 48  1  0  0  0  0
 21 24  2  0  0  0  0
 21 49  1  0  0  0  0
 22 24  1  0  0  0  0
 22 50  1  0  0  0  0
 23 51  1  0  0  0  0
 24 52  1  0  0  0  0
M  END
>  <DRUGBANK_ID>
DB01502

>  <COMMON_NAME>
Diampromide

>  <CAS_NUMBER>
552-25-0

>  <UNII>
26G7YC77BU

>  <SYNONYMS>
Diampromide

$$$$
