
 OpenBabel10282417072D

 64 67  0  0  1  0  0  0  0  0999 V2000
   -0.7145   -2.8875    0.0000 C   0  0  0  0  0  0  0  0  0  0  0  0
    0.0000   -2.4750    0.0000 N   0  0  0  0  0  0  0  0  0  0  0  0
    0.0000   -1.6500    0.0000 C   0  0  0  0  0  0  0  0  0  0  0  0
    0.7145   -1.2375    0.0000 C   0  0  1  0  0  0  0  0  0  0  0  0
    1.4289   -1.6500    0.0000 N   0  0  0  0  0  0  0  0  0  0  0  0
    1.4289   -2.4750    0.0000 C   0  0  0  0  0  0  0  0  0  0  0  0
    0.7145   -2.8875    0.0000 O   0  0  0  0  0  0  0  0  0  0  0  0
    2.1434   -2.8875    0.0000 C   0  0  0  0  0  0  0  0  0  0  0  0
    2.1434   -3.7125    0.0000 C   0  0  0  0  0  0  0  0  0  0  0  0
    2.8579   -4.1250    0.0000 C   0  0  0  0  0  0  0  0  0  0  0  0
    3.5724   -3.7125    0.0000 C   0  0  0  0  0  0  0  0  0  0  0  0
    3.5724   -2.8875    0.0000 C   0  0  0  0  0  0  0  0  0  0  0  0
    2.8579   -2.4750    0.0000 C   0  0  0  0  0  0  0  0  0  0  0  0
    2.8579   -1.6500    0.0000 F   0  0  0  0  0  0  0  0  0  0  0  0
    4.2868   -4.1250    0.0000 C   0  0  0  0  0  0  0  0  0  0  0  0
    5.0013   -3.7125    0.0000 N   0  0  0  0  0  0  0  0  0  0  0  0
    5.7158   -4.1250    0.0000 C   0  0  0  0  0  0  0  0  0  0  0  0
    5.7158   -4.9500    0.0000 C   0  0  0  0  0  0  0  0  0  0  0  0
    5.0013   -5.3625    0.0000 N   0  0  0  0  0  0  0  0  0  0  0  0
    4.2868   -4.9500    0.0000 C   0  0  0  0  0  0  0  0  0  0  0  0
    3.5724   -5.3625    0.0000 N   0  0  0  0  0  0  0  0  0  0  0  0
    6.4302   -3.7125    0.0000 C   0  0  1  0  0  0  0  0  0  0  0  0
    6.4302   -2.8875    0.0000 C   0  0  0  0  0  0  0  0  0  0  0  0
    7.1447   -2.4750    0.0000 C   0  0  0  0  0  0  0  0  0  0  0  0
    7.8592   -2.8875    0.0000 C   0  0  2  0  0  0  0  0  0  0  0  0
    8.5737   -2.4750    0.0000 O   0  0  0  0  0  0  0  0  0  0  0  0
    7.8592   -3.7125    0.0000 C   0  0  1  0  0  0  0  0  0  0  0  0
    8.5737   -4.1250    0.0000 F   0  0  0  0  0  0  0  0  0  0  0  0
    7.1447   -4.1250    0.0000 C   0  0  0  0  0  0  0  0  0  0  0  0
    0.7145   -0.4125    0.0000 C   0  0  0  0  0  0  0  0  0  0  0  0
    0.0000    0.0000    0.0000 C   0  0  0  0  0  0  0  0  0  0  0  0
    0.0000    0.8250    0.0000 C   0  0  0  0  0  0  0  0  0  0  0  0
   -0.7145    1.2375    0.0000 F   0  0  0  0  0  0  0  0  0  0  0  0
    0.7145    1.2375    0.0000 C   0  0  0  0  0  0  0  0  0  0  0  0
    1.4289    0.8250    0.0000 C   0  0  0  0  0  0  0  0  0  0  0  0
    2.1434    1.2375    0.0000 Br  0  0  0  0  0  0  0  0  0  0  0  0
    1.4289   -0.0000    0.0000 C   0  0  0  0  0  0  0  0  0  0  0  0
   -1.6411   -2.3525    0.0000 H   0  0  0  0  0  0  0  0  0  0  0  0
   -0.7145   -3.9575    0.0000 H   0  0  0  0  0  0  0  0  0  0  0  0
   -1.6412   -3.4225    0.0000 H   0  0  0  0  0  0  0  0  0  0  0  0
    0.8833   -2.9850    0.0000 H   0  0  0  0  0  0  0  0  0  0  0  0
   -0.9266   -1.1150    0.0000 H   0  0  0  0  0  0  0  0  0  0  0  0
    0.0000   -0.5800    0.0000 H   0  0  0  0  0  0  0  0  0  0  0  0
    0.7145   -2.3075    0.0000 H   0  0  0  0  0  0  0  0  0  0  0  0
    2.2815   -1.1578    0.0000 H   0  0  0  0  0  0  0  0  0  0  0  0
    1.2497   -4.2285    0.0000 H   0  0  0  0  0  0  0  0  0  0  0  0
    2.8579   -5.1570    0.0000 H   0  0  0  0  0  0  0  0  0  0  0  0
    4.4661   -2.3715    0.0000 H   0  0  0  0  0  0  0  0  0  0  0  0
    6.6095   -5.4660    0.0000 H   0  0  0  0  0  0  0  0  0  0  0  0
    2.7198   -4.8703    0.0000 H   0  0  0  0  0  0  0  0  0  0  0  0
    3.5724   -6.3470    0.0000 H   0  0  0  0  0  0  0  0  0  0  0  0
    5.5035   -3.1775    0.0000 H   0  0  0  0  0  0  0  0  0  0  0  0
    5.5036   -2.3525    0.0000 H   0  0  0  0  0  0  0  0  0  0  0  0
    6.4302   -1.8175    0.0000 H   0  0  0  0  0  0  0  0  0  0  0  0
    7.1447   -1.4050    0.0000 H   0  0  0  0  0  0  0  0  0  0  0  0
    8.0713   -1.9400    0.0000 H   0  0  0  0  0  0  0  0  0  0  0  0
    7.8592   -1.8175    0.0000 H   0  0  0  0  0  0  0  0  0  0  0  0
    9.4137   -2.9600    0.0000 H   0  0  0  0  0  0  0  0  0  0  0  0
    8.7858   -3.1775    0.0000 H   0  0  0  0  0  0  0  0  0  0  0  0
    7.1447   -5.1950    0.0000 H   0  0  0  0  0  0  0  0  0  0  0  0
    6.2181   -4.6600    0.0000 H   0  0  0  0  0  0  0  0  0  0  0  0
   -0.8937   -0.5160    0.0000 H   0  0  0  0  0  0  0  0  0  0  0  0
    0.7145    2.2695    0.0000 H   0  0  0  0  0  0  0  0  0  0  0  0
    2.3226   -0.5160    0.0000 H   0  0  0  0  0  0  0  0  0  0  0  0
  1  2  1  0  0  0  0
  1 38  1  0  0  0  0
  1 39  1  0  0  0  0
  1 40  1  0  0  0  0
  2  3  1  0  0  0  0
  2 41  1  0  0  0  0
  3 42  1  0  0  0  0
  3 43  1  0  0  0  0
  4  3  1  0  0  0  0
  4  5  1  0  0  0  0
  4 30  1  0  0  0  0
  4 44  1  1  0  0  0
  5  6  1  0  0  0  0
  5 45  1  0  0  0  0
  6  7  2  0  0  0  0
  6  8  1  0  0  0  0
  8  9  2  0  0  0  0
  8 13  1  0  0  0  0
  9 10  1  0  0  0  0
  9 46  1  0  0  0  0
 10 11  2  0  0  0  0
 10 47  1  0  0  0  0
 11 12  1  0  0  0  0
 11 15  1  0  0  0  0
 12 13  2  0  0  0  0
 12 48  1  0  0  0  0
 13 14  1  0  0  0  0
 15 16  2  0  0  0  0
 15 20  1  0  0  0  0
 16 17  1  0  0  0  0
 17 18  2  0  0  0  0
 18 19  1  0  0  0  0
 18 49  1  0  0  0  0
 19 20  2  0  0  0  0
 20 21  1  0  0  0  0
 21 50  1  0  0  0  0
 21 51  1  0  0  0  0
 22 17  1  0  0  0  0
 22 23  1  0  0  0  0
 22 29  1  0  0  0  0
 22 52  1  6  0  0  0
 23 24  1  0  0  0  0
 23 53  1  0  0  0  0
 23 54  1  0  0  0  0
 24 55  1  0  0  0  0
 24 56  1  0  0  0  0
 25 24  1  0  0  0  0
 25 26  1  0  0  0  0
 25 27  1  0  0  0  0
 25 57  1  1  0  0  0
 26 58  1  0  0  0  0
 27 28  1  0  0  0  0
 27 29  1  0  0  0  0
 27 59  1  6  0  0  0
 29 60  1  0  0  0  0
 29 61  1  0  0  0  0
 30 31  2  0  0  0  0
 30 37  1  0  0  0  0
 31 32  1  0  0  0  0
 31 62  1  0  0  0  0
 32 33  1  0  0  0  0
 32 34  2  0  0  0  0
 34 35  1  0  0  0  0
 34 63  1  0  0  0  0
 35 36  1  0  0  0  0
 35 37  2  0  0  0  0
 37 64  1  0  0  0  0
M  END
>  <DRUGBANK_ID>
DB17560

>  <COMMON_NAME>
Rineterkib

>  <CAS_NUMBER>
1715025-32-3

>  <UNII>
15KFN616FK

>  <SYNONYMS>
4-(3-amino-6-((1s,3s,4s)-3-fluoro-4-hydroxycyclohexyl)-2-pyrazinyl)-n-((1s)-1-(3-bromo-5-fluorophenyl)-2-(methylamino)ethyl)-2-fluorobenzamide; Benzamide, 4-(3-amino-6-((1s,3s,4s)-3-fluoro-4-hydroxycyclohexyl)-2-pyrazinyl)-n-((1s)-1-(3-bromo-5-fluorophenyl)-2-(methylamino)ethyl)-2-fluoro-; Rineterkib

$$$$
