SXH
 OpenBabel10282417072D

 62 61  0  0  0  0  0  0  0  0999 V2000
   -6.3387    0.5077    0.0000 O   0  0  0  0  0  0  0  0  0  0  0  0
   -5.5993    0.1417    0.0000 P   0  0  0  0  0  0  0  0  0  0  0  0
   -5.2334    0.8812    0.0000 O   0  0  0  0  0  0  0  0  0  0  0  0
   -5.9652   -0.5977    0.0000 O   0  0  0  0  0  0  0  0  0  0  0  0
   -4.8599   -0.2242    0.0000 O   0  0  0  0  0  0  0  0  0  0  0  0
   -4.1733    0.2332    0.0000 C   0  0  0  0  0  0  0  0  0  0  0  0
   -3.4339   -0.1327    0.0000 C   0  0  0  0  0  0  0  0  0  0  0  0
   -3.7998   -0.8721    0.0000 C   0  0  0  0  0  0  0  0  0  0  0  0
   -3.0680    0.6067    0.0000 C   0  0  0  0  0  0  0  0  0  0  0  0
   -2.6945   -0.4986    0.0000 C   0  0  2  0  0  0  0  0  0  0  0  0
   -2.6417   -1.3219    0.0000 O   0  0  0  0  0  0  0  0  0  0  0  0
   -2.0079   -0.0412    0.0000 C   0  0  0  0  0  0  0  0  0  0  0  0
   -2.0607    0.7821    0.0000 O   0  0  0  0  0  0  0  0  0  0  0  0
   -1.2685   -0.4071    0.0000 N   0  0  0  0  0  0  0  0  0  0  0  0
   -0.5819    0.0503    0.0000 C   0  0  0  0  0  0  0  0  0  0  0  0
    0.1575   -0.3157    0.0000 C   0  0  0  0  0  0  0  0  0  0  0  0
    0.8441    0.1417    0.0000 C   0  0  0  0  0  0  0  0  0  0  0  0
    0.7913    0.9650    0.0000 O   0  0  0  0  0  0  0  0  0  0  0  0
    1.5836   -0.2242    0.0000 N   0  0  0  0  0  0  0  0  0  0  0  0
    2.2701    0.2332    0.0000 C   0  0  0  0  0  0  0  0  0  0  0  0
    3.0096   -0.1327    0.0000 C   0  0  0  0  0  0  0  0  0  0  0  0
    3.6962    0.3247    0.0000 S   0  0  0  0  0  0  0  0  0  0  0  0
    4.4356   -0.0412    0.0000 C   0  0  0  0  0  0  0  0  0  0  0  0
    4.4884   -0.8645    0.0000 O   0  0  0  0  0  0  0  0  0  0  0  0
    5.1222    0.4162    0.0000 C   0  0  0  0  0  0  0  0  0  0  0  0
    5.8616    0.0503    0.0000 C   0  0  0  0  0  0  0  0  0  0  0  0
    6.5482    0.5077    0.0000 C   0  0  0  0  0  0  0  0  0  0  0  0
    7.2876    0.1417    0.0000 C   0  0  0  0  0  0  0  0  0  0  0  0
    7.9742    0.5991    0.0000 C   0  0  0  0  0  0  0  0  0  0  0  0
   -2.7319    0.0841    0.0000 H   0  0  0  0  0  0  0  0  0  0  0  0
   -6.4007    1.4757    0.0000 H   0  0  0  0  0  0  0  0  0  0  0  0
   -6.9332   -0.6598    0.0000 H   0  0  0  0  0  0  0  0  0  0  0  0
   -4.2418    1.3010    0.0000 H   0  0  0  0  0  0  0  0  0  0  0  0
   -3.2828    0.8264    0.0000 H   0  0  0  0  0  0  0  0  0  0  0  0
   -4.8676   -0.9406    0.0000 H   0  0  0  0  0  0  0  0  0  0  0  0
   -3.2066   -1.7626    0.0000 H   0  0  0  0  0  0  0  0  0  0  0  0
   -4.2744   -1.8311    0.0000 H   0  0  0  0  0  0  0  0  0  0  0  0
   -2.0002    0.6752    0.0000 H   0  0  0  0  0  0  0  0  0  0  0  0
   -3.6612    1.4972    0.0000 H   0  0  0  0  0  0  0  0  0  0  0  0
   -2.5934    1.5657    0.0000 H   0  0  0  0  0  0  0  0  0  0  0  0
   -3.4490   -1.8597    0.0000 H   0  0  0  0  0  0  0  0  0  0  0  0
   -1.2055   -1.3896    0.0000 H   0  0  0  0  0  0  0  0  0  0  0  0
   -0.6503    1.1181    0.0000 H   0  0  0  0  0  0  0  0  0  0  0  0
    0.3086    0.6435    0.0000 H   0  0  0  0  0  0  0  0  0  0  0  0
    0.2259   -1.3835    0.0000 H   0  0  0  0  0  0  0  0  0  0  0  0
    1.1165   -0.7903    0.0000 H   0  0  0  0  0  0  0  0  0  0  0  0
    1.6467   -1.2067    0.0000 H   0  0  0  0  0  0  0  0  0  0  0  0
    2.2015    1.3010    0.0000 H   0  0  0  0  0  0  0  0  0  0  0  0
    3.1606    0.8265    0.0000 H   0  0  0  0  0  0  0  0  0  0  0  0
    3.0781   -1.2005    0.0000 H   0  0  0  0  0  0  0  0  0  0  0  0
    3.9686   -0.6073    0.0000 H   0  0  0  0  0  0  0  0  0  0  0  0
    5.0537    1.4840    0.0000 H   0  0  0  0  0  0  0  0  0  0  0  0
    6.0127    1.0094    0.0000 H   0  0  0  0  0  0  0  0  0  0  0  0
    5.9301   -1.0175    0.0000 H   0  0  0  0  0  0  0  0  0  0  0  0
    6.8206   -0.4243    0.0000 H   0  0  0  0  0  0  0  0  0  0  0  0
    6.4798    1.5755    0.0000 H   0  0  0  0  0  0  0  0  0  0  0  0
    7.4387    1.1009    0.0000 H   0  0  0  0  0  0  0  0  0  0  0  0
    7.3560   -0.9261    0.0000 H   0  0  0  0  0  0  0  0  0  0  0  0
    8.2466   -0.3329    0.0000 H   0  0  0  0  0  0  0  0  0  0  0  0
    8.9332    0.1245    0.0000 H   0  0  0  0  0  0  0  0  0  0  0  0
    7.9057    1.6669    0.0000 H   0  0  0  0  0  0  0  0  0  0  0  0
    8.8647    1.1923    0.0000 H   0  0  0  0  0  0  0  0  0  0  0  0
  1 31  1  0  0  0  0
  2  1  1  0  0  0  0
  2  5  1  0  0  0  0
  2  4  1  0  0  0  0
  3  2  2  0  0  0  0
  4 32  1  0  0  0  0
  5  6  1  0  0  0  0
  6  7  1  0  0  0  0
  6 33  1  0  0  0  0
  6 34  1  0  0  0  0
  7  8  1  0  0  0  0
  8 35  1  0  0  0  0
  8 36  1  0  0  0  0
  8 37  1  0  0  0  0
  9  7  1  0  0  0  0
  9 38  1  0  0  0  0
  9 39  1  0  0  0  0
  9 40  1  0  0  0  0
 10  7  1  0  0  0  0
 10 12  1  0  0  0  0
 10 30  1  6  0  0  0
 10 11  1  0  0  0  0
 11 41  1  0  0  0  0
 12 14  1  0  0  0  0
 13 12  2  0  0  0  0
 14 15  1  0  0  0  0
 14 42  1  0  0  0  0
 15 16  1  0  0  0  0
 15 43  1  0  0  0  0
 15 44  1  0  0  0  0
 16 17  1  0  0  0  0
 16 45  1  0  0  0  0
 16 46  1  0  0  0  0
 17 18  2  0  0  0  0
 19 17  1  0  0  0  0
 19 20  1  0  0  0  0
 19 47  1  0  0  0  0
 20 48  1  0  0  0  0
 20 49  1  0  0  0  0
 21 20  1  0  0  0  0
 21 50  1  0  0  0  0
 21 51  1  0  0  0  0
 22 21  1  0  0  0  0
 23 22  1  0  0  0  0
 23 24  2  0  0  0  0
 25 23  1  0  0  0  0
 25 52  1  0  0  0  0
 25 53  1  0  0  0  0
 26 25  1  0  0  0  0
 26 27  1  0  0  0  0
 26 54  1  0  0  0  0
 26 55  1  0  0  0  0
 27 56  1  0  0  0  0
 27 57  1  0  0  0  0
 28 27  1  0  0  0  0
 28 58  1  0  0  0  0
 28 59  1  0  0  0  0
 29 28  1  0  0  0  0
 29 60  1  0  0  0  0
 29 61  1  0  0  0  0
 29 62  1  0  0  0  0
M  END
>  <DRUGBANK_ID>
DB08585

>  <COMMON_NAME>
S-[2-({N-[(2S)-2-hydroxy-3,3-dimethyl-4-(phosphonooxy)butanoyl]-beta-alanyl}amino)ethyl] hexanethioate

$$$$
