
 OpenBabel10282417072D

 52 54  0  0  1  0  0  0  0  0999 V2000
    1.6940    2.9711    0.0000 C   0  0  0  0  0  0  0  0  0  0  0  0
    3.1250    0.3393    0.0000 C   0  0  0  0  0  0  0  0  0  0  0  0
   -3.5239   -0.0097    0.0000 C   0  0  0  0  0  0  0  0  0  0  0  0
   -1.6402   -1.1125    0.0000 C   0  0  0  0  0  0  0  0  0  0  0  0
   -0.8291   -0.9615    0.0000 C   0  0  0  0  0  0  0  0  0  0  0  0
   -1.1965    2.6583    0.0000 C   0  0  0  0  0  0  0  0  0  0  0  0
    0.2198    0.4522    0.0000 C   0  0  0  0  0  0  0  0  0  0  0  0
   -0.4660    3.0417    0.0000 C   0  0  0  0  0  0  0  0  0  0  0  0
    0.9750    0.1201    0.0000 C   0  0  0  0  0  0  0  0  0  0  0  0
   -2.1633    1.6971    0.0000 C   0  0  0  0  0  0  0  0  0  0  0  0
    1.3249    1.9405    0.0000 C   0  0  0  0  0  0  0  0  0  0  0  0
   -1.3523    1.8481    0.0000 C   0  0  0  0  0  0  0  0  0  0  0  0
    0.0086    1.2497    0.0000 C   0  0  0  0  0  0  0  0  0  0  0  0
    0.5004    1.9121    0.0000 C   0  0  0  0  0  0  0  0  0  0  0  0
    0.2892    2.7096    0.0000 C   0  0  1  0  0  0  0  0  0  0  0  0
    1.8612    1.3136    0.0000 C   0  0  0  0  0  0  0  0  0  0  0  0
    1.7055    0.5035    0.0000 C   0  0  0  0  0  0  0  0  0  0  0  0
   -2.4381    0.9192    0.0000 C   0  0  0  0  0  0  0  0  0  0  0  0
   -0.8159    1.2212    0.0000 C   0  0  0  0  0  0  0  0  0  0  0  0
   -1.9018    0.2923    0.0000 C   0  0  0  0  0  0  0  0  0  0  0  0
   -1.0907    0.4433    0.0000 C   0  0  0  0  0  0  0  0  0  0  0  0
    0.9161    3.2459    0.0000 N   0  0  0  0  0  0  0  0  0  0  0  0
    2.6587    1.5248    0.0000 O   0  0  0  0  0  0  0  0  0  0  0  0
    2.3678    0.0116    0.0000 O   0  0  0  0  0  0  0  0  0  0  0  0
   -3.2491    0.7682    0.0000 O   0  0  0  0  0  0  0  0  0  0  0  0
   -2.1765   -0.4856    0.0000 O   0  0  0  0  0  0  0  0  0  0  0  0
   -0.5544   -0.1835    0.0000 O   0  0  0  0  0  0  0  0  0  0  0  0
    0.1686    3.5257    0.0000 H   0  0  0  0  0  0  0  0  0  0  0  0
    1.8898    1.9192    0.0000 H   0  0  0  0  0  0  0  0  0  0  0  0
    2.5071    3.6666    0.0000 H   0  0  0  0  0  0  0  0  0  0  0  0
    2.7029    2.6147    0.0000 H   0  0  0  0  0  0  0  0  0  0  0  0
    3.9840   -0.2986    0.0000 H   0  0  0  0  0  0  0  0  0  0  0  0
    3.2479    1.4022    0.0000 H   0  0  0  0  0  0  0  0  0  0  0  0
    4.1070    0.7643    0.0000 H   0  0  0  0  0  0  0  0  0  0  0  0
   -4.5758   -0.2055    0.0000 H   0  0  0  0  0  0  0  0  0  0  0  0
   -2.8284   -0.8228    0.0000 H   0  0  0  0  0  0  0  0  0  0  0  0
   -3.8803   -1.0186    0.0000 H   0  0  0  0  0  0  0  0  0  0  0  0
   -1.9966   -2.1214    0.0000 H   0  0  0  0  0  0  0  0  0  0  0  0
   -0.5883   -0.9167    0.0000 H   0  0  0  0  0  0  0  0  0  0  0  0
   -0.9446   -1.9256    0.0000 H   0  0  0  0  0  0  0  0  0  0  0  0
   -1.8810   -1.1575    0.0000 H   0  0  0  0  0  0  0  0  0  0  0  0
   -0.1334   -1.7745    0.0000 H   0  0  0  0  0  0  0  0  0  0  0  0
   -1.1853   -1.9705    0.0000 H   0  0  0  0  0  0  0  0  0  0  0  0
   -2.0556    3.2962    0.0000 H   0  0  0  0  0  0  0  0  0  0  0  0
   -2.1937    2.2703    0.0000 H   0  0  0  0  0  0  0  0  0  0  0  0
   -0.5644   -0.2187    0.0000 H   0  0  0  0  0  0  0  0  0  0  0  0
   -0.5029    4.1111    0.0000 H   0  0  0  0  0  0  0  0  0  0  0  0
    0.4198    3.6419    0.0000 H   0  0  0  0  0  0  0  0  0  0  0  0
    1.0106   -0.9113    0.0000 H   0  0  0  0  0  0  0  0  0  0  0  0
   -2.8342    2.4813    0.0000 H   0  0  0  0  0  0  0  0  0  0  0  0
    1.7404    2.8852    0.0000 H   0  0  0  0  0  0  0  0  0  0  0  0
    0.7294    4.2487    0.0000 H   0  0  0  0  0  0  0  0  0  0  0  0
  1 29  1  0  0  0  0
  1 30  1  0  0  0  0
  1 31  1  0  0  0  0
  2 32  1  0  0  0  0
  2 33  1  0  0  0  0
  2 34  1  0  0  0  0
  3 35  1  0  0  0  0
  3 36  1  0  0  0  0
  3 37  1  0  0  0  0
  4 38  1  0  0  0  0
  4 39  1  0  0  0  0
  4 40  1  0  0  0  0
  5 41  1  0  0  0  0
  5 42  1  0  0  0  0
  5 43  1  0  0  0  0
  6 44  1  0  0  0  0
  6 45  1  0  0  0  0
  7 46  1  0  0  0  0
  8  6  1  0  0  0  0
  8 47  1  0  0  0  0
  8 48  1  0  0  0  0
  9  7  1  0  0  0  0
  9 49  1  0  0  0  0
 10 50  1  0  0  0  0
 11 51  1  0  0  0  0
 12  6  1  0  0  0  0
 12 10  2  0  0  0  0
 13  7  2  0  0  0  0
 14 11  2  0  0  0  0
 14 13  1  0  0  0  0
 15  8  1  0  0  0  0
 15 14  1  0  0  0  0
 15 22  1  0  0  0  0
 15 28  1  1  0  0  0
 16 11  1  0  0  0  0
 17  9  2  0  0  0  0
 17 16  1  0  0  0  0
 18 10  1  0  0  0  0
 19 12  1  0  0  0  0
 19 13  1  0  0  0  0
 20 18  2  0  0  0  0
 21 19  2  0  0  0  0
 21 20  1  0  0  0  0
 22  1  1  0  0  0  0
 22 52  1  0  0  0  0
 23 16  2  0  0  0  0
 24  2  1  0  0  0  0
 24 17  1  0  0  0  0
 25  3  1  0  0  0  0
 25 18  1  0  0  0  0
 26  4  1  0  0  0  0
 26 20  1  0  0  0  0
 27  5  1  0  0  0  0
 27 21  1  0  0  0  0
M  END
>  <DRUGBANK_ID>
DB13318

>  <COMMON_NAME>
Demecolcine

>  <CAS_NUMBER>
477-30-5

>  <UNII>
Z01IVE25KI

>  <SYNONYMS>
demecolcina; Demecolcine

$$$$
