
 OpenBabel10282417072D

 50 52  0  0  0  0  0  0  0  0999 V2000
    0.8562   -0.3458    0.0000 C   0  0  2  0  0  0  0  0  0  0  0  0
   -1.2021    0.3833    0.0000 C   0  0  0  0  0  0  0  0  0  0  0  0
    0.0187   -1.7708    0.0000 N   0  0  0  0  0  0  0  0  0  0  0  0
    0.0312   -0.3416    0.0000 C   0  0  0  0  0  0  0  0  0  0  0  0
    0.4395   -1.0583    0.0000 C   0  0  0  0  0  0  0  0  0  0  0  0
    2.9937    0.8916    0.0000 C   0  0  0  0  0  0  0  0  0  0  0  0
   -0.3771    0.3791    0.0000 C   0  0  0  0  0  0  0  0  0  0  0  0
   -1.6104    1.1000    0.0000 O   0  0  0  0  0  0  0  0  0  0  0  0
   -1.6187   -0.3291    0.0000 C   0  0  0  0  0  0  0  0  0  0  0  0
    2.2770    0.4791    0.0000 C   0  0  1  0  0  0  0  0  0  0  0  0
    1.5645   -0.7541    0.0000 C   0  0  0  0  0  0  0  0  0  0  0  0
    0.8562    0.4791    0.0000 C   0  0  0  0  0  0  0  0  0  0  0  0
    2.9978    1.7166    0.0000 O   0  0  0  0  0  0  0  0  0  0  0  0
   -0.3812   -1.0499    0.0000 C   0  0  0  0  0  0  0  0  0  0  0  0
   -1.2062   -1.0499    0.0000 C   0  0  0  0  0  0  0  0  0  0  0  0
    1.5645    0.8958    0.0000 C   0  0  0  0  0  0  0  0  0  0  0  0
    2.2770   -0.3458    0.0000 C   0  0  0  0  0  0  0  0  0  0  0  0
    3.7062    0.4750    0.0000 O   0  0  0  0  0  0  0  0  0  0  0  0
   -2.4354    1.1041    0.0000 C   0  0  0  0  0  0  0  0  0  0  0  0
   -2.4437   -0.3249    0.0000 O   0  0  0  0  0  0  0  0  0  0  0  0
   -2.8604   -1.0374    0.0000 C   0  0  0  0  0  0  0  0  0  0  0  0
   -2.9146    1.7708    0.0000 C   0  0  0  0  0  0  0  0  0  0  0  0
   -2.9229    0.4375    0.0000 C   0  0  0  0  0  0  0  0  0  0  0  0
   -3.7062    0.6958    0.0000 C   0  0  0  0  0  0  0  0  0  0  0  0
   -3.7021    1.5208    0.0000 C   0  0  0  0  0  0  0  0  0  0  0  0
    0.1448    1.2694    0.0000 H   0  0  0  0  0  0  0  0  0  0  0  0
    3.2033   -0.0565    0.0000 H   0  0  0  0  0  0  0  0  0  0  0  0
    1.5631   -1.8241    0.0000 H   0  0  0  0  0  0  0  0  0  0  0  0
    2.4899   -1.2912    0.0000 H   0  0  0  0  0  0  0  0  0  0  0  0
   -0.0726    1.0103    0.0000 H   0  0  0  0  0  0  0  0  0  0  0  0
    0.8496    1.5491    0.0000 H   0  0  0  0  0  0  0  0  0  0  0  0
    0.1332   -1.9446    0.0000 H   0  0  0  0  0  0  0  0  0  0  0  0
   -1.7239   -1.9427    0.0000 H   0  0  0  0  0  0  0  0  0  0  0  0
    1.5631    1.9658    0.0000 H   0  0  0  0  0  0  0  0  0  0  0  0
    2.4923    1.4288    0.0000 H   0  0  0  0  0  0  0  0  0  0  0  0
    3.2028   -0.8823    0.0000 H   0  0  0  0  0  0  0  0  0  0  0  0
    2.2744   -1.4158    0.0000 H   0  0  0  0  0  0  0  0  0  0  0  0
    3.7011   -0.4620    0.0000 H   0  0  0  0  0  0  0  0  0  0  0  0
   -3.5054    1.1085    0.0000 H   0  0  0  0  0  0  0  0  0  0  0  0
   -3.9304   -1.0314    0.0000 H   0  0  0  0  0  0  0  0  0  0  0  0
   -2.3306   -1.9670    0.0000 H   0  0  0  0  0  0  0  0  0  0  0  0
   -3.4006   -1.9610    0.0000 H   0  0  0  0  0  0  0  0  0  0  0  0
   -2.5779    2.7864    0.0000 H   0  0  0  0  0  0  0  0  0  0  0  0
   -3.6664    2.5322    0.0000 H   0  0  0  0  0  0  0  0  0  0  0  0
   -2.5961   -0.5814    0.0000 H   0  0  0  0  0  0  0  0  0  0  0  0
   -3.6826   -0.3160    0.0000 H   0  0  0  0  0  0  0  0  0  0  0  0
   -4.5748    0.0709    0.0000 H   0  0  0  0  0  0  0  0  0  0  0  0
   -4.6572    1.1862    0.0000 H   0  0  0  0  0  0  0  0  0  0  0  0
   -4.5640    2.1548    0.0000 H   0  0  0  0  0  0  0  0  0  0  0  0
   -4.6581    1.0402    0.0000 H   0  0  0  0  0  0  0  0  0  0  0  0
  1  4  1  0  0  0  0
  1  5  1  6  0  0  0
  2  7  1  0  0  0  0
  3  5  3  0  0  0  0
  7  4  2  0  0  0  0
  7 26  1  0  0  0  0
  8  2  1  0  0  0  0
  9 15  1  0  0  0  0
  9  2  2  0  0  0  0
 10  6  1  0  0  0  0
 10 17  1  0  0  0  0
 10 27  1  1  0  0  0
 11  1  1  0  0  0  0
 11 28  1  0  0  0  0
 11 29  1  0  0  0  0
 12  1  1  0  0  0  0
 12 30  1  0  0  0  0
 12 31  1  0  0  0  0
 13  6  2  0  0  0  0
 14  4  1  0  0  0  0
 14 32  1  0  0  0  0
 15 14  2  0  0  0  0
 15 33  1  0  0  0  0
 16 12  1  0  0  0  0
 16 10  1  0  0  0  0
 16 34  1  0  0  0  0
 16 35  1  0  0  0  0
 17 11  1  0  0  0  0
 17 36  1  0  0  0  0
 17 37  1  0  0  0  0
 18  6  1  0  0  0  0
 18 38  1  0  0  0  0
 19  8  1  0  0  0  0
 19 39  1  0  0  0  0
 20  9  1  0  0  0  0
 21 20  1  0  0  0  0
 21 40  1  0  0  0  0
 21 41  1  0  0  0  0
 21 42  1  0  0  0  0
 22 19  1  0  0  0  0
 22 43  1  0  0  0  0
 22 44  1  0  0  0  0
 23 19  1  0  0  0  0
 23 45  1  0  0  0  0
 23 46  1  0  0  0  0
 24 23  1  0  0  0  0
 24 25  1  0  0  0  0
 24 47  1  0  0  0  0
 24 48  1  0  0  0  0
 25 22  1  0  0  0  0
 25 49  1  0  0  0  0
 25 50  1  0  0  0  0
M  END
>  <DRUGBANK_ID>
DB03849

>  <SECONDARY_ACCESSION_NUMBERS>
EXPT00920

>  <COMMON_NAME>
Cilomilast

>  <CAS_NUMBER>
153259-65-5

>  <UNII>
8ATB1C1R6X

>  <SYNONYMS>
Ariflo; Cilomilast; cis-4-cyano-4-(3-(cyclopentyloxy)-4-methoxyphenyl)cyclohexanecarboxylic acid

$$$$
