
 OpenBabel10282417072D

 81 84  0  0  0  0  0  0  0  0999 V2000
   -2.8579   -1.8562    0.0000 S   0  0  0  0  0  0  0  0  0  0  0  0
   -3.2704   -1.1418    0.0000 O   0  0  0  0  0  0  0  0  0  0  0  0
   -2.4453   -2.5707    0.0000 O   0  0  0  0  0  0  0  0  0  0  0  0
    0.0000    0.6187    0.0000 O   0  0  0  0  0  0  0  0  0  0  0  0
    1.4289    2.2687    0.0000 O   0  0  0  0  0  0  0  0  0  0  0  0
    0.7145    1.0312    0.0000 O   0  0  0  0  0  0  0  0  0  0  0  0
   -1.4289    0.6187    0.0000 N   0  0  0  0  0  0  0  0  0  0  0  0
    0.0000    2.2687    0.0000 N   0  0  0  0  0  0  0  0  0  0  0  0
   -1.4289   -0.2062    0.0000 C   0  0  2  0  0  0  0  0  0  0  0  0
   -2.1434   -0.6187    0.0000 C   0  0  0  0  0  0  0  0  0  0  0  0
   -0.7145   -0.6187    0.0000 C   0  0  0  0  0  0  0  0  0  0  0  0
   -2.1434   -1.4437    0.0000 C   0  0  0  0  0  0  0  0  0  0  0  0
    0.0000   -0.2062    0.0000 C   0  0  0  0  0  0  0  0  0  0  0  0
   -3.5724   -2.2687    0.0000 C   0  0  0  0  0  0  0  0  0  0  0  0
   -0.7145    1.0312    0.0000 C   0  0  0  0  0  0  0  0  0  0  0  0
   -0.7145    1.8562    0.0000 C   0  0  2  0  0  0  0  0  0  0  0  0
    0.7145   -0.6187    0.0000 C   0  0  0  0  0  0  0  0  0  0  0  0
   -1.4289    2.2687    0.0000 C   0  0  0  0  0  0  0  0  0  0  0  0
   -3.5724   -3.0938    0.0000 C   0  0  0  0  0  0  0  0  0  0  0  0
    1.4289   -0.2062    0.0000 C   0  0  0  0  0  0  0  0  0  0  0  0
    0.7145   -1.4437    0.0000 C   0  0  0  0  0  0  0  0  0  0  0  0
   -1.4289    3.0938    0.0000 C   0  0  0  0  0  0  0  0  0  0  0  0
   -2.8579   -3.5063    0.0000 C   0  0  0  0  0  0  0  0  0  0  0  0
   -4.2869   -3.5063    0.0000 C   0  0  0  0  0  0  0  0  0  0  0  0
    2.1434   -0.6187    0.0000 C   0  0  0  0  0  0  0  0  0  0  0  0
    1.4289   -1.8562    0.0000 C   0  0  0  0  0  0  0  0  0  0  0  0
   -2.1434    3.5063    0.0000 C   0  0  0  0  0  0  0  0  0  0  0  0
   -0.7145    3.5063    0.0000 C   0  0  0  0  0  0  0  0  0  0  0  0
    0.7145    1.8562    0.0000 C   0  0  0  0  0  0  0  0  0  0  0  0
    2.1434   -1.4437    0.0000 C   0  0  0  0  0  0  0  0  0  0  0  0
   -2.8579   -4.3313    0.0000 C   0  0  0  0  0  0  0  0  0  0  0  0
   -4.2869   -4.3313    0.0000 C   0  0  0  0  0  0  0  0  0  0  0  0
   -3.5724   -4.7438    0.0000 C   0  0  0  0  0  0  0  0  0  0  0  0
   -2.1434    4.3313    0.0000 C   0  0  0  0  0  0  0  0  0  0  0  0
   -0.7145    4.3313    0.0000 C   0  0  0  0  0  0  0  0  0  0  0  0
   -1.4289    4.7438    0.0000 C   0  0  0  0  0  0  0  0  0  0  0  0
    2.1434    1.8562    0.0000 C   0  0  0  0  0  0  0  0  0  0  0  0
    2.8579    2.2687    0.0000 C   0  0  0  0  0  0  0  0  0  0  0  0
    3.5724    1.8562    0.0000 C   0  0  0  0  0  0  0  0  0  0  0  0
    2.8579    3.0938    0.0000 C   0  0  0  0  0  0  0  0  0  0  0  0
    4.2869    2.2687    0.0000 C   0  0  0  0  0  0  0  0  0  0  0  0
    3.5724    3.5063    0.0000 C   0  0  0  0  0  0  0  0  0  0  0  0
    4.2869    3.0938    0.0000 C   0  0  0  0  0  0  0  0  0  0  0  0
   -1.8719    0.8745    0.0000 H   0  0  0  0  0  0  0  0  0  0  0  0
    0.0000    2.7803    0.0000 H   0  0  0  0  0  0  0  0  0  0  0  0
   -2.3555    0.3288    0.0000 H   0  0  0  0  0  0  0  0  0  0  0  0
   -3.0700   -0.0837    0.0000 H   0  0  0  0  0  0  0  0  0  0  0  0
   -3.0700   -1.1537    0.0000 H   0  0  0  0  0  0  0  0  0  0  0  0
   -0.7145   -1.6887    0.0000 H   0  0  0  0  0  0  0  0  0  0  0  0
    0.2121   -1.1537    0.0000 H   0  0  0  0  0  0  0  0  0  0  0  0
   -1.2168   -1.9787    0.0000 H   0  0  0  0  0  0  0  0  0  0  0  0
   -1.2168   -0.9087    0.0000 H   0  0  0  0  0  0  0  0  0  0  0  0
    0.0000    0.8638    0.0000 H   0  0  0  0  0  0  0  0  0  0  0  0
    0.9266    0.3288    0.0000 H   0  0  0  0  0  0  0  0  0  0  0  0
   -4.4990   -1.7337    0.0000 H   0  0  0  0  0  0  0  0  0  0  0  0
   -4.4990   -2.8037    0.0000 H   0  0  0  0  0  0  0  0  0  0  0  0
    0.2121    1.3212    0.0000 H   0  0  0  0  0  0  0  0  0  0  0  0
   -2.3556    1.7337    0.0000 H   0  0  0  0  0  0  0  0  0  0  0  0
   -2.3555    2.8037    0.0000 H   0  0  0  0  0  0  0  0  0  0  0  0
    1.4289    0.8258    0.0000 H   0  0  0  0  0  0  0  0  0  0  0  0
   -0.1792   -1.9597    0.0000 H   0  0  0  0  0  0  0  0  0  0  0  0
   -1.9642   -2.9903    0.0000 H   0  0  0  0  0  0  0  0  0  0  0  0
   -5.1806   -2.9903    0.0000 H   0  0  0  0  0  0  0  0  0  0  0  0
    3.0371   -0.1027    0.0000 H   0  0  0  0  0  0  0  0  0  0  0  0
    1.4289   -2.8882    0.0000 H   0  0  0  0  0  0  0  0  0  0  0  0
   -3.0371    2.9903    0.0000 H   0  0  0  0  0  0  0  0  0  0  0  0
    0.1792    2.9903    0.0000 H   0  0  0  0  0  0  0  0  0  0  0  0
    3.0371   -1.9597    0.0000 H   0  0  0  0  0  0  0  0  0  0  0  0
   -1.9642   -4.8473    0.0000 H   0  0  0  0  0  0  0  0  0  0  0  0
   -5.1806   -4.8473    0.0000 H   0  0  0  0  0  0  0  0  0  0  0  0
   -3.5724   -5.7758    0.0000 H   0  0  0  0  0  0  0  0  0  0  0  0
   -3.0371    4.8473    0.0000 H   0  0  0  0  0  0  0  0  0  0  0  0
    0.1792    4.8473    0.0000 H   0  0  0  0  0  0  0  0  0  0  0  0
   -1.4289    5.7758    0.0000 H   0  0  0  0  0  0  0  0  0  0  0  0
    2.1434    0.7862    0.0000 H   0  0  0  0  0  0  0  0  0  0  0  0
    3.0700    1.3212    0.0000 H   0  0  0  0  0  0  0  0  0  0  0  0
    3.5724    0.8242    0.0000 H   0  0  0  0  0  0  0  0  0  0  0  0
    1.9642    3.6098    0.0000 H   0  0  0  0  0  0  0  0  0  0  0  0
    5.1806    1.7527    0.0000 H   0  0  0  0  0  0  0  0  0  0  0  0
    3.5724    4.5383    0.0000 H   0  0  0  0  0  0  0  0  0  0  0  0
    5.1806    3.6098    0.0000 H   0  0  0  0  0  0  0  0  0  0  0  0
  1  2  2  0  0  0  0
  1  3  2  0  0  0  0
  1 12  1  0  0  0  0
  1 14  1  0  0  0  0
  4 15  2  0  0  0  0
  5 29  1  0  0  0  0
  5 37  1  0  0  0  0
  6 29  2  0  0  0  0
  7 15  1  0  0  0  0
  7 44  1  0  0  0  0
  8 29  1  0  0  0  0
  8 45  1  0  0  0  0
  9  7  1  0  0  0  0
  9 10  1  0  0  0  0
  9 11  1  0  0  0  0
  9 46  1  6  0  0  0
 10 12  1  0  0  0  0
 10 47  1  0  0  0  0
 10 48  1  0  0  0  0
 11 13  1  0  0  0  0
 11 49  1  0  0  0  0
 11 50  1  0  0  0  0
 12 51  1  0  0  0  0
 12 52  1  0  0  0  0
 13 17  1  0  0  0  0
 13 53  1  0  0  0  0
 13 54  1  0  0  0  0
 14 19  1  0  0  0  0
 14 55  1  0  0  0  0
 14 56  1  0  0  0  0
 15 16  1  0  0  0  0
 16  8  1  0  0  0  0
 16 18  1  0  0  0  0
 16 57  1  1  0  0  0
 17 20  2  0  0  0  0
 17 21  1  0  0  0  0
 18 22  1  0  0  0  0
 18 58  1  0  0  0  0
 18 59  1  0  0  0  0
 19 23  2  0  0  0  0
 19 24  1  0  0  0  0
 20 25  1  0  0  0  0
 20 60  1  0  0  0  0
 21 26  2  0  0  0  0
 21 61  1  0  0  0  0
 22 27  2  0  0  0  0
 22 28  1  0  0  0  0
 23 31  1  0  0  0  0
 23 62  1  0  0  0  0
 24 32  2  0  0  0  0
 24 63  1  0  0  0  0
 25 30  2  0  0  0  0
 25 64  1  0  0  0  0
 26 30  1  0  0  0  0
 26 65  1  0  0  0  0
 27 34  1  0  0  0  0
 27 66  1  0  0  0  0
 28 35  2  0  0  0  0
 28 67  1  0  0  0  0
 30 68  1  0  0  0  0
 31 33  2  0  0  0  0
 31 69  1  0  0  0  0
 32 33  1  0  0  0  0
 32 70  1  0  0  0  0
 33 71  1  0  0  0  0
 34 36  2  0  0  0  0
 34 72  1  0  0  0  0
 35 36  1  0  0  0  0
 35 73  1  0  0  0  0
 36 74  1  0  0  0  0
 37 38  1  0  0  0  0
 37 75  1  0  0  0  0
 37 76  1  0  0  0  0
 38 39  2  0  0  0  0
 38 40  1  0  0  0  0
 39 41  1  0  0  0  0
 39 77  1  0  0  0  0
 40 42  2  0  0  0  0
 40 78  1  0  0  0  0
 41 43  2  0  0  0  0
 41 79  1  0  0  0  0
 42 43  1  0  0  0  0
 42 80  1  0  0  0  0
 43 81  1  0  0  0  0
M  END
>  <DRUGBANK_ID>
DB02200

>  <SECONDARY_ACCESSION_NUMBERS>
EXPT03232

>  <COMMON_NAME>
3-[N-[benzyloxycarbonyl]-phenylalaninyl-amino]-5-phenyl-pentane-1-sulfonylmethylbenzene

$$$$
