
 OpenBabel10282417072D

 42 43  0  0  0  0  0  0  0  0999 V2000
   -4.6440   -0.8250    0.0000 O   0  0  0  0  0  0  0  0  0  0  0  0
   -3.9295   -0.4125    0.0000 C   0  0  0  0  0  0  0  0  0  0  0  0
   -3.9295    0.4125    0.0000 C   0  0  0  0  0  0  0  0  0  0  0  0
   -3.2151    0.8250    0.0000 C   0  0  0  0  0  0  0  0  0  0  0  0
   -2.5006    0.4125    0.0000 C   0  0  0  0  0  0  0  0  0  0  0  0
   -1.7861    0.8250    0.0000 C   0  0  0  0  0  0  0  0  0  0  0  0
   -1.0717    0.4125    0.0000 C   0  0  0  0  0  0  0  0  0  0  0  0
   -1.0717   -0.4125    0.0000 C   0  0  0  0  0  0  0  0  0  0  0  0
   -1.0717   -1.2375    0.0000 N   0  0  0  0  0  0  0  0  0  0  0  0
   -0.3572    0.8250    0.0000 C   0  0  0  0  0  0  0  0  0  0  0  0
   -0.3572    1.6500    0.0000 O   0  0  0  0  0  0  0  0  0  0  0  0
    0.3572    0.4125    0.0000 N   0  0  0  0  0  0  0  0  0  0  0  0
    1.0717    0.8250    0.0000 C   0  0  0  0  0  0  0  0  0  0  0  0
    1.7861    0.4125    0.0000 C   0  0  0  0  0  0  0  0  0  0  0  0
    2.5006    0.8250    0.0000 C   0  0  0  0  0  0  0  0  0  0  0  0
    3.2151    0.4125    0.0000 C   0  0  0  0  0  0  0  0  0  0  0  0
    3.9295    0.8250    0.0000 C   0  0  0  0  0  0  0  0  0  0  0  0
    4.6440    0.4125    0.0000 C   0  0  0  0  0  0  0  0  0  0  0  0
    4.6440   -0.4125    0.0000 C   0  0  0  0  0  0  0  0  0  0  0  0
    3.9295   -0.8250    0.0000 C   0  0  0  0  0  0  0  0  0  0  0  0
    3.2151   -0.4125    0.0000 C   0  0  0  0  0  0  0  0  0  0  0  0
   -2.5006   -0.4125    0.0000 C   0  0  0  0  0  0  0  0  0  0  0  0
   -3.2151   -0.8250    0.0000 C   0  0  0  0  0  0  0  0  0  0  0  0
   -3.2151   -1.6500    0.0000 O   0  0  0  0  0  0  0  0  0  0  0  0
   -5.4555   -0.3565    0.0000 H   0  0  0  0  0  0  0  0  0  0  0  0
   -4.8232    0.9285    0.0000 H   0  0  0  0  0  0  0  0  0  0  0  0
   -3.2151    1.8570    0.0000 H   0  0  0  0  0  0  0  0  0  0  0  0
   -1.7861    1.8570    0.0000 H   0  0  0  0  0  0  0  0  0  0  0  0
    0.3572   -0.5720    0.0000 H   0  0  0  0  0  0  0  0  0  0  0  0
    1.0717    1.8950    0.0000 H   0  0  0  0  0  0  0  0  0  0  0  0
    1.9984    1.3600    0.0000 H   0  0  0  0  0  0  0  0  0  0  0  0
    1.7861   -0.6575    0.0000 H   0  0  0  0  0  0  0  0  0  0  0  0
    2.7127   -0.1225    0.0000 H   0  0  0  0  0  0  0  0  0  0  0  0
    2.5006    1.8950    0.0000 H   0  0  0  0  0  0  0  0  0  0  0  0
    3.4272    1.3600    0.0000 H   0  0  0  0  0  0  0  0  0  0  0  0
    3.9295    1.8570    0.0000 H   0  0  0  0  0  0  0  0  0  0  0  0
    5.5377    0.9285    0.0000 H   0  0  0  0  0  0  0  0  0  0  0  0
    5.5377   -0.9285    0.0000 H   0  0  0  0  0  0  0  0  0  0  0  0
    3.9295   -1.8570    0.0000 H   0  0  0  0  0  0  0  0  0  0  0  0
    2.3214   -0.9285    0.0000 H   0  0  0  0  0  0  0  0  0  0  0  0
   -1.6069   -0.9285    0.0000 H   0  0  0  0  0  0  0  0  0  0  0  0
   -4.0266   -2.1185    0.0000 H   0  0  0  0  0  0  0  0  0  0  0  0
  1  2  1  0  0  0  0
  1 25  1  0  0  0  0
  2  3  2  0  0  0  0
  2 23  1  0  0  0  0
  3  4  1  0  0  0  0
  3 26  1  0  0  0  0
  4  5  2  0  0  0  0
  4 27  1  0  0  0  0
  5  6  1  0  0  0  0
  5 22  1  0  0  0  0
  6  7  2  0  0  0  0
  6 28  1  0  0  0  0
  7  8  1  0  0  0  0
  7 10  1  0  0  0  0
  8  9  3  0  0  0  0
 10 11  2  0  0  0  0
 10 12  1  0  0  0  0
 12 13  1  0  0  0  0
 12 29  1  0  0  0  0
 13 14  1  0  0  0  0
 13 30  1  0  0  0  0
 13 31  1  0  0  0  0
 14 15  1  0  0  0  0
 14 32  1  0  0  0  0
 14 33  1  0  0  0  0
 15 16  1  0  0  0  0
 15 34  1  0  0  0  0
 15 35  1  0  0  0  0
 16 17  2  0  0  0  0
 16 21  1  0  0  0  0
 17 18  1  0  0  0  0
 17 36  1  0  0  0  0
 18 19  2  0  0  0  0
 18 37  1  0  0  0  0
 19 20  1  0  0  0  0
 19 38  1  0  0  0  0
 20 21  2  0  0  0  0
 20 39  1  0  0  0  0
 21 40  1  0  0  0  0
 22 23  2  0  0  0  0
 22 41  1  0  0  0  0
 23 24  1  0  0  0  0
 24 42  1  0  0  0  0
M  END
>  <DRUGBANK_ID>
DB16773

>  <COMMON_NAME>
Tyrphostin AG 555

>  <CAS_NUMBER>
133550-34-2

>  <SYNONYMS>
AG 555; AG-555; Tyrphostin AG 555; Tyrphostin AG-555; Tyrphostin B-46; Tyrphostin B46

$$$$
