057
 OpenBabel10282417072D

 49 52  0  0  0  0  0  0  0  0999 V2000
    0.4370   -1.4039    0.0000 O   0  0  0  0  0  0  0  0  0  0  0  0
   -0.3476   -1.1489    0.0000 C   0  0  0  0  0  0  0  0  0  0  0  0
   -0.9607   -1.7010    0.0000 N   0  0  0  0  0  0  0  0  0  0  0  0
   -0.7892   -2.5080    0.0000 C   0  0  0  0  0  0  0  0  0  0  0  0
    0.0178   -2.3364    0.0000 C   0  0  0  0  0  0  0  0  0  0  0  0
   -1.5961   -2.6795    0.0000 C   0  0  0  0  0  0  0  0  0  0  0  0
   -0.6177   -3.3149    0.0000 C   0  0  0  0  0  0  0  0  0  0  0  0
   -1.2307   -3.8670    0.0000 O   0  0  0  0  0  0  0  0  0  0  0  0
   -0.5191   -0.3420    0.0000 C   0  0  0  0  0  0  0  0  0  0  0  0
   -1.3038   -0.0870    0.0000 C   0  0  0  0  0  0  0  0  0  0  0  0
   -1.4753    0.7199    0.0000 C   0  0  0  0  0  0  0  0  0  0  0  0
   -0.8622    1.2720    0.0000 C   0  0  0  0  0  0  0  0  0  0  0  0
   -0.8622    2.0970    0.0000 N   0  0  0  0  0  0  0  0  0  0  0  0
   -1.5296    2.5819    0.0000 C   0  0  0  0  0  0  0  0  0  0  0  0
   -0.0776    2.3519    0.0000 C   0  0  0  0  0  0  0  0  0  0  0  0
    0.0940    0.2101    0.0000 C   0  0  0  0  0  0  0  0  0  0  0  0
   -0.0776    1.0170    0.0000 C   0  0  0  0  0  0  0  0  0  0  0  0
    0.4074    1.6845    0.0000 C   0  0  0  0  0  0  0  0  0  0  0  0
    1.2324    1.6845    0.0000 C   0  0  0  0  0  0  0  0  0  0  0  0
    1.7173    1.0170    0.0000 N   0  0  0  0  0  0  0  0  0  0  0  0
    1.7173    2.3519    0.0000 C   0  0  0  0  0  0  0  0  0  0  0  0
    2.5019    2.0970    0.0000 C   0  0  0  0  0  0  0  0  0  0  0  0
    3.2164    2.5095    0.0000 C   0  0  0  0  0  0  0  0  0  0  0  0
    3.9308    2.0970    0.0000 C   0  0  0  0  0  0  0  0  0  0  0  0
    2.5019    1.2720    0.0000 C   0  0  0  0  0  0  0  0  0  0  0  0
    3.2164    0.8595    0.0000 N   0  0  0  0  0  0  0  0  0  0  0  0
    3.9308    1.2720    0.0000 C   0  0  0  0  0  0  0  0  0  0  0  0
   -1.8970   -1.3968    0.0000 H   0  0  0  0  0  0  0  0  0  0  0  0
    0.7338   -3.1315    0.0000 H   0  0  0  0  0  0  0  0  0  0  0  0
    0.3484   -1.3187    0.0000 H   0  0  0  0  0  0  0  0  0  0  0  0
    1.0644   -2.1139    0.0000 H   0  0  0  0  0  0  0  0  0  0  0  0
   -2.3121   -1.8843    0.0000 H   0  0  0  0  0  0  0  0  0  0  0  0
   -1.9268   -3.6971    0.0000 H   0  0  0  0  0  0  0  0  0  0  0  0
   -2.6427   -2.9020    0.0000 H   0  0  0  0  0  0  0  0  0  0  0  0
    0.4000   -3.6455    0.0000 H   0  0  0  0  0  0  0  0  0  0  0  0
   -0.3951   -4.3615    0.0000 H   0  0  0  0  0  0  0  0  0  0  0  0
   -2.1533   -3.5674    0.0000 H   0  0  0  0  0  0  0  0  0  0  0  0
   -2.0707   -0.7775    0.0000 H   0  0  0  0  0  0  0  0  0  0  0  0
   -2.4568    1.0388    0.0000 H   0  0  0  0  0  0  0  0  0  0  0  0
   -1.4177    3.6460    0.0000 H   0  0  0  0  0  0  0  0  0  0  0  0
   -2.5071    2.1467    0.0000 H   0  0  0  0  0  0  0  0  0  0  0  0
   -2.3952    3.2108    0.0000 H   0  0  0  0  0  0  0  0  0  0  0  0
    0.2413    3.3334    0.0000 H   0  0  0  0  0  0  0  0  0  0  0  0
    1.0755   -0.1087    0.0000 H   0  0  0  0  0  0  0  0  0  0  0  0
    1.4131    0.0807    0.0000 H   0  0  0  0  0  0  0  0  0  0  0  0
    1.3984    3.3334    0.0000 H   0  0  0  0  0  0  0  0  0  0  0  0
    3.2164    3.5415    0.0000 H   0  0  0  0  0  0  0  0  0  0  0  0
    4.8245    2.6130    0.0000 H   0  0  0  0  0  0  0  0  0  0  0  0
    4.8245    0.7560    0.0000 H   0  0  0  0  0  0  0  0  0  0  0  0
  1  2  2  0  0  0  0
  2  3  1  0  0  0  0
  2  9  1  0  0  0  0
  3  4  1  0  0  0  0
  3 28  1  0  0  0  0
  4  5  1  0  0  0  0
  4  6  1  0  0  0  0
  4  7  1  0  0  0  0
  5 29  1  0  0  0  0
  5 30  1  0  0  0  0
  5 31  1  0  0  0  0
  6 32  1  0  0  0  0
  6 33  1  0  0  0  0
  6 34  1  0  0  0  0
  7  8  1  0  0  0  0
  7 35  1  0  0  0  0
  7 36  1  0  0  0  0
  8 37  1  0  0  0  0
  9 10  2  0  0  0  0
  9 16  1  0  0  0  0
 10 11  1  0  0  0  0
 10 38  1  0  0  0  0
 11 12  2  0  0  0  0
 11 39  1  0  0  0  0
 12 13  1  0  0  0  0
 12 17  1  0  0  0  0
 13 14  1  0  0  0  0
 13 15  1  0  0  0  0
 14 40  1  0  0  0  0
 14 41  1  0  0  0  0
 14 42  1  0  0  0  0
 15 18  2  0  0  0  0
 15 43  1  0  0  0  0
 16 17  2  0  0  0  0
 16 44  1  0  0  0  0
 17 18  1  0  0  0  0
 18 19  1  0  0  0  0
 19 20  1  0  0  0  0
 19 21  2  0  0  0  0
 20 25  1  0  0  0  0
 20 45  1  0  0  0  0
 21 22  1  0  0  0  0
 21 46  1  0  0  0  0
 22 23  2  0  0  0  0
 22 25  1  0  0  0  0
 23 24  1  0  0  0  0
 23 47  1  0  0  0  0
 24 27  2  0  0  0  0
 24 48  1  0  0  0  0
 25 26  2  0  0  0  0
 26 27  1  0  0  0  0
 27 49  1  0  0  0  0
M  END
>  <DRUGBANK_ID>
DB06834

>  <COMMON_NAME>
N-(2-hydroxy-1,1-dimethylethyl)-1-methyl-3-(1H-pyrrolo[2,3-b]pyridin-2-yl)-1H-indole-5-carboxamide

$$$$
