644073
 OpenBabel10282417072D

 75 81  0  0  1  0  0  0  0  0999 V2000
    4.3078   -2.2511    0.0000 O   0  0  0  0  0  0  0  0  0  0  0  0
    6.3944   -2.4225    0.0000 O   0  0  0  0  0  0  0  0  0  0  0  0
    7.2344   -0.1130    0.0000 O   0  0  0  0  0  0  0  0  0  0  0  0
    2.2396   -2.4225    0.0000 O   0  0  0  0  0  0  0  0  0  0  0  0
    5.1420    1.1756    0.0000 N   0  0  0  0  0  0  0  0  0  0  0  0
    5.1420   -0.2533    0.0000 C   0  0  2  0  0  0  0  0  0  0  0  0
    4.7295   -0.9678    0.0000 C   0  0  1  0  0  0  0  0  0  0  0  0
    5.9670   -1.6823    0.0000 C   0  0  1  0  0  0  0  0  0  0  0  0
    5.1420   -1.6823    0.0000 C   0  0  2  0  0  0  0  0  0  0  0  0
    6.3796   -0.9678    0.0000 C   0  0  2  0  0  0  0  0  0  0  0  0
    5.9670   -0.2533    0.0000 C   0  0  0  0  0  0  0  0  0  0  0  0
    4.7295    0.4612    0.0000 C   0  0  1  0  0  0  0  0  0  0  0  0
    5.7378   -0.6378    0.0000 C   0  0  0  0  0  0  0  0  0  0  0  0
    5.4262   -1.2611    0.0000 C   0  0  0  0  0  0  0  0  0  0  0  0
    4.3171   -0.2533    0.0000 C   0  0  0  0  0  0  0  0  0  0  0  0
    3.9045   -0.9678    0.0000 C   0  0  0  0  0  0  0  0  0  0  0  0
    3.9045    0.4612    0.0000 C   0  0  0  0  0  0  0  0  0  0  0  0
    7.2344   -0.9678    0.0000 C   0  0  1  0  0  0  0  0  0  0  0  0
    4.3078    1.3238    0.0000 C   0  0  0  0  0  0  0  0  0  0  0  0
    3.4920   -0.2533    0.0000 C   0  0  0  0  0  0  0  0  0  0  0  0
    3.4920   -1.6823    0.0000 C   0  0  0  0  0  0  0  0  0  0  0  0
    5.9170    1.5364    0.0000 C   0  0  0  0  0  0  0  0  0  0  0  0
    8.0892   -0.9678    0.0000 C   0  0  0  0  0  0  0  0  0  0  0  0
    5.9921    2.3878    0.0000 C   0  0  0  0  0  0  0  0  0  0  0  0
    7.2344   -1.8226    0.0000 C   0  0  0  0  0  0  0  0  0  0  0  0
    2.6670   -0.2533    0.0000 C   0  0  0  0  0  0  0  0  0  0  0  0
    2.6670   -1.6823    0.0000 C   0  0  0  0  0  0  0  0  0  0  0  0
    5.6313    3.1628    0.0000 C   0  0  0  0  0  0  0  0  0  0  0  0
    6.4829    3.0878    0.0000 C   0  0  0  0  0  0  0  0  0  0  0  0
    5.9670   -3.1628    0.0000 C   0  0  0  0  0  0  0  0  0  0  0  0
    2.2545   -0.9678    0.0000 C   0  0  0  0  0  0  0  0  0  0  0  0
    8.9440   -0.9678    0.0000 C   0  0  0  0  0  0  0  0  0  0  0  0
    8.0892   -1.8226    0.0000 C   0  0  0  0  0  0  0  0  0  0  0  0
    8.0892   -0.1130    0.0000 C   0  0  0  0  0  0  0  0  0  0  0  0
    8.0744    0.3720    0.0000 H   0  0  0  0  0  0  0  0  0  0  0  0
    1.3026   -2.4225    0.0000 H   0  0  0  0  0  0  0  0  0  0  0  0
    4.0988   -1.4442    0.0000 H   0  0  0  0  0  0  0  0  0  0  0  0
    6.9146   -1.8945    0.0000 H   0  0  0  0  0  0  0  0  0  0  0  0
    6.5020    0.6734    0.0000 H   0  0  0  0  0  0  0  0  0  0  0  0
    7.0370   -0.2532    0.0000 H   0  0  0  0  0  0  0  0  0  0  0  0
    5.7995    0.4612    0.0000 H   0  0  0  0  0  0  0  0  0  0  0  0
    6.7699   -0.3554    0.0000 H   0  0  0  0  0  0  0  0  0  0  0  0
    6.4165   -1.4650    0.0000 H   0  0  0  0  0  0  0  0  0  0  0  0
    4.3826   -1.4975    0.0000 H   0  0  0  0  0  0  0  0  0  0  0  0
    4.7660   -0.4191    0.0000 H   0  0  0  0  0  0  0  0  0  0  0  0
    3.2844   -0.5332    0.0000 H   0  0  0  0  0  0  0  0  0  0  0  0
    3.4654    0.3943    0.0000 H   0  0  0  0  0  0  0  0  0  0  0  0
    3.3695    1.3878    0.0000 H   0  0  0  0  0  0  0  0  0  0  0  0
    2.8345    0.4612    0.0000 H   0  0  0  0  0  0  0  0  0  0  0  0
    3.6181    2.1419    0.0000 H   0  0  0  0  0  0  0  0  0  0  0  0
    3.3038    0.9537    0.0000 H   0  0  0  0  0  0  0  0  0  0  0  0
    6.7931    0.9221    0.0000 H   0  0  0  0  0  0  0  0  0  0  0  0
    6.8871    1.9879    0.0000 H   0  0  0  0  0  0  0  0  0  0  0  0
    6.0860    3.4537    0.0000 H   0  0  0  0  0  0  0  0  0  0  0  0
    6.3078   -2.3576    0.0000 H   0  0  0  0  0  0  0  0  0  0  0  0
    8.1610   -2.3576    0.0000 H   0  0  0  0  0  0  0  0  0  0  0  0
    7.2344   -2.8926    0.0000 H   0  0  0  0  0  0  0  0  0  0  0  0
    2.1510    0.6404    0.0000 H   0  0  0  0  0  0  0  0  0  0  0  0
    4.7552    3.7771    0.0000 H   0  0  0  0  0  0  0  0  0  0  0  0
    5.9979    4.1681    0.0000 H   0  0  0  0  0  0  0  0  0  0  0  0
    7.4529    3.5394    0.0000 H   0  0  0  0  0  0  0  0  0  0  0  0
    6.2977    4.1417    0.0000 H   0  0  0  0  0  0  0  0  0  0  0  0
    4.8970   -3.1628    0.0000 H   0  0  0  0  0  0  0  0  0  0  0  0
    6.5020   -4.0894    0.0000 H   0  0  0  0  0  0  0  0  0  0  0  0
    5.4320   -4.0895    0.0000 H   0  0  0  0  0  0  0  0  0  0  0  0
    1.2225   -0.9678    0.0000 H   0  0  0  0  0  0  0  0  0  0  0  0
    9.4790   -1.8944    0.0000 H   0  0  0  0  0  0  0  0  0  0  0  0
    9.4790   -0.0412    0.0000 H   0  0  0  0  0  0  0  0  0  0  0  0
   10.0140   -0.9678    0.0000 H   0  0  0  0  0  0  0  0  0  0  0  0
    7.1626   -2.3576    0.0000 H   0  0  0  0  0  0  0  0  0  0  0  0
    9.0158   -2.3576    0.0000 H   0  0  0  0  0  0  0  0  0  0  0  0
    8.0892   -2.8926    0.0000 H   0  0  0  0  0  0  0  0  0  0  0  0
    9.0158    0.4220    0.0000 H   0  0  0  0  0  0  0  0  0  0  0  0
    7.1626    0.4220    0.0000 H   0  0  0  0  0  0  0  0  0  0  0  0
    8.0892    0.9570    0.0000 H   0  0  0  0  0  0  0  0  0  0  0  0
  1 21  1  0  0  0  0
  2 30  1  0  0  0  0
  3 35  1  0  0  0  0
  4 27  1  0  0  0  0
  4 36  1  0  0  0  0
  5 19  1  0  0  0  0
  5 22  1  0  0  0  0
  6  7  1  0  0  0  0
  6 11  1  1  0  0  0
  6 12  1  0  0  0  0
  6 13  1  0  0  0  0
  7  9  1  0  0  0  0
  7 15  1  0  0  0  0
  7 16  1  6  0  0  0
  8  2  1  6  0  0  0
  8  9  1  0  0  0  0
  8 10  1  0  0  0  0
  8 14  1  0  0  0  0
  9  1  1  0  0  0  0
  9 37  1  1  0  0  0
 10 11  1  0  0  0  0
 10 18  1  0  0  0  0
 10 38  1  1  0  0  0
 11 39  1  0  0  0  0
 11 40  1  0  0  0  0
 12  5  1  0  0  0  0
 12 17  1  0  0  0  0
 12 41  1  6  0  0  0
 13 14  1  0  0  0  0
 13 42  1  0  0  0  0
 13 43  1  0  0  0  0
 14 44  1  0  0  0  0
 14 45  1  0  0  0  0
 15 19  1  0  0  0  0
 15 46  1  0  0  0  0
 15 47  1  0  0  0  0
 16 20  2  0  0  0  0
 16 21  1  0  0  0  0
 17 20  1  0  0  0  0
 17 48  1  0  0  0  0
 17 49  1  0  0  0  0
 18  3  1  1  0  0  0
 18 23  1  0  0  0  0
 18 25  1  0  0  0  0
 19 50  1  0  0  0  0
 19 51  1  0  0  0  0
 20 26  1  0  0  0  0
 21 27  2  0  0  0  0
 22 24  1  0  0  0  0
 22 52  1  0  0  0  0
 22 53  1  0  0  0  0
 23 32  1  0  0  0  0
 23 33  1  0  0  0  0
 23 34  1  0  0  0  0
 24 28  1  0  0  0  0
 24 29  1  0  0  0  0
 24 54  1  0  0  0  0
 25 55  1  0  0  0  0
 25 56  1  0  0  0  0
 25 57  1  0  0  0  0
 26 31  2  0  0  0  0
 26 58  1  0  0  0  0
 27 31  1  0  0  0  0
 28 29  1  0  0  0  0
 28 59  1  0  0  0  0
 28 60  1  0  0  0  0
 29 61  1  0  0  0  0
 29 62  1  0  0  0  0
 30 63  1  0  0  0  0
 30 64  1  0  0  0  0
 30 65  1  0  0  0  0
 31 66  1  0  0  0  0
 32 67  1  0  0  0  0
 32 68  1  0  0  0  0
 32 69  1  0  0  0  0
 33 70  1  0  0  0  0
 33 71  1  0  0  0  0
 33 72  1  0  0  0  0
 34 73  1  0  0  0  0
 34 74  1  0  0  0  0
 34 75  1  0  0  0  0
M  END
>  <DRUGBANK_ID>
DB00921

>  <SECONDARY_ACCESSION_NUMBERS>
APRD00670

>  <COMMON_NAME>
Buprenorphine

>  <CAS_NUMBER>
52485-79-7

>  <UNII>
40D3SCR4GZ

>  <SYNONYMS>
(−)-buprenorphine; 17-cyclopropylmethyl-4,5α-epoxy-7α-((S)-1-hydroxy-1,2,2-trimethylpropyl)-6-methoxy-6,14-endo-ethanomorphinan-3-ol; 2-(N-cyclopropylmethyl-4,5α-epoxy-3-hydroxy-6-methoxy-6,14-endo-ethanomorphinan-6α-yl)-3,3-dimethyl-2-butanol; 2-[3-cyclopropylmethyl-11-hydroxy-15-methoxy-(14R)-13-oxa-3-azahexacyclo[13.2.2.12,8.01,6.06,14.07,12]icosa-7,9,11-trien-16-yl]-3,3-dimethyl-2-butanol; 21-cyclopropyl-7α-[(S)-1-hydroxy-1,2,2-trimethylpropyl]-6,14-endo-ethano-6,7,8,14-tetrahydrooripavine; Buprenophine; Buprenorfina; Buprenorphine; Buprenorphinum

$$$$
