
 OpenBabel10282417072D

 82 86  0  0  0  0  0  0  0  0999 V2000
   -6.0246    1.0171    0.0000 P   0  0  0  0  0  0  0  0  0  0  0  0
   -0.0071    1.4883    0.0000 P   0  0  1  0  0  0  0  0  0  0  0  0
   -1.4285    1.3415    0.0000 P   0  0  1  0  0  0  0  0  0  0  0  0
    2.8824    1.7097    0.0000 O   0  0  0  0  0  0  0  0  0  0  0  0
   -3.5195   -0.1141    0.0000 O   0  0  0  0  0  0  0  0  0  0  0  0
    3.5689   -0.3116    0.0000 O   0  0  0  0  0  0  0  0  0  0  0  0
    1.7842   -0.1209    0.0000 O   0  0  0  0  0  0  0  0  0  0  0  0
   -5.6134    0.3019    0.0000 O   0  0  0  0  0  0  0  0  0  0  0  0
   -4.5559    1.7522    0.0000 O   0  0  0  0  0  0  0  0  0  0  0  0
    4.5964   -0.0714    0.0000 O   0  0  0  0  0  0  0  0  0  0  0  0
    0.7458    1.1515    0.0000 O   0  0  0  0  0  0  0  0  0  0  0  0
    6.2110    0.2687    0.0000 O   0  0  0  0  0  0  0  0  0  0  0  0
   -2.0968    0.8577    0.0000 O   0  0  0  0  0  0  0  0  0  0  0  0
   -0.7603    1.8252    0.0000 O   0  0  0  0  0  0  0  0  0  0  0  0
   -6.4359    1.7323    0.0000 O   0  0  0  0  0  0  0  0  0  0  0  0
   -6.7398    0.6058    0.0000 O   0  0  0  0  0  0  0  0  0  0  0  0
    0.3296    2.2415    0.0000 O   0  0  0  0  0  0  0  0  0  0  0  0
    5.0707    3.6793    0.0000 O   0  0  0  0  0  0  0  0  0  0  0  0
   -5.3094    1.4283    0.0000 O   0  0  0  0  0  0  0  0  0  0  0  0
   -0.9447    0.6731    0.0000 O   0  0  0  0  0  0  0  0  0  0  0  0
   -0.3440    0.7353    0.0000 O   0  0  0  0  0  0  0  0  0  0  0  0
   -1.9123    2.0097    0.0000 O   0  0  0  0  0  0  0  0  0  0  0  0
    4.3018    1.3267    0.0000 N   0  0  0  0  0  0  0  0  0  0  0  0
   -4.5609   -1.1519    0.0000 N   0  0  0  0  0  0  0  0  0  0  0  0
   -4.5609   -2.4796    0.0000 N   0  0  0  0  0  0  0  0  0  0  0  0
   -6.0560   -0.9908    0.0000 N   0  0  0  0  0  0  0  0  0  0  0  0
    6.4289    3.2353    0.0000 N   0  0  0  0  0  0  0  0  0  0  0  0
   -6.7705   -2.2283    0.0000 N   0  0  0  0  0  0  0  0  0  0  0  0
   -6.0560   -3.4657    0.0000 N   0  0  0  0  0  0  0  0  0  0  0  0
    3.4945    1.1566    0.0000 C   0  0  1  0  0  0  0  0  0  0  0  0
    3.1576    0.4035    0.0000 C   0  0  1  0  0  0  0  0  0  0  0  0
    2.3373    0.4912    0.0000 C   0  0  1  0  0  0  0  0  0  0  0  0
    2.1672    1.2984    0.0000 C   0  0  1  0  0  0  0  0  0  0  0  0
   -4.7884    0.3005    0.0000 C   0  0  2  0  0  0  0  0  0  0  0  0
   -4.3023    0.9671    0.0000 C   0  0  1  0  0  0  0  0  0  0  0  0
   -4.3046   -0.3676    0.0000 C   0  0  1  0  0  0  0  0  0  0  0  0
   -3.5181    0.7108    0.0000 C   0  0  1  0  0  0  0  0  0  0  0  0
    4.8527    0.7127    0.0000 C   0  0  2  0  0  0  0  0  0  0  0  0
    5.6600    0.8828    0.0000 C   0  0  2  0  0  0  0  0  0  0  0  0
    1.4141    1.6353    0.0000 C   0  0  0  0  0  0  0  0  0  0  0  0
    4.5580    2.1109    0.0000 C   0  0  0  0  0  0  0  0  0  0  0  0
    5.9163    1.6669    0.0000 C   0  0  0  0  0  0  0  0  0  0  0  0
   -2.8499    1.1945    0.0000 C   0  0  0  0  0  0  0  0  0  0  0  0
    5.3653    2.2810    0.0000 C   0  0  0  0  0  0  0  0  0  0  0  0
   -5.3415   -1.4033    0.0000 C   0  0  0  0  0  0  0  0  0  0  0  0
   -4.0795   -1.8158    0.0000 C   0  0  0  0  0  0  0  0  0  0  0  0
    5.6216    3.0652    0.0000 C   0  0  0  0  0  0  0  0  0  0  0  0
   -5.3415   -2.2283    0.0000 C   0  0  0  0  0  0  0  0  0  0  0  0
   -6.0560   -2.6408    0.0000 C   0  0  0  0  0  0  0  0  0  0  0  0
   -6.7705   -1.4033    0.0000 C   0  0  0  0  0  0  0  0  0  0  0  0
    6.7705    2.8546    0.0000 H   0  0  0  0  0  0  0  0  0  0  0  0
    6.5878    3.7215    0.0000 H   0  0  0  0  0  0  0  0  0  0  0  0
   -5.6130   -3.7215    0.0000 H   0  0  0  0  0  0  0  0  0  0  0  0
   -6.4990   -3.7215    0.0000 H   0  0  0  0  0  0  0  0  0  0  0  0
    3.0825   -1.1508    0.0000 H   0  0  0  0  0  0  0  0  0  0  0  0
    0.8358    0.0825    0.0000 H   0  0  0  0  0  0  0  0  0  0  0  0
   -3.9056    2.4719    0.0000 H   0  0  0  0  0  0  0  0  0  0  0  0
    3.6472   -0.2714    0.0000 H   0  0  0  0  0  0  0  0  0  0  0  0
    5.9096   -0.6533    0.0000 H   0  0  0  0  0  0  0  0  0  0  0  0
   -5.9495    2.5715    0.0000 H   0  0  0  0  0  0  0  0  0  0  0  0
   -7.5790    1.0922    0.0000 H   0  0  0  0  0  0  0  0  0  0  0  0
    1.2944    2.3414    0.0000 H   0  0  0  0  0  0  0  0  0  0  0  0
   -1.3408   -0.2123    0.0000 H   0  0  0  0  0  0  0  0  0  0  0  0
    3.7733    2.1896    0.0000 H   0  0  0  0  0  0  0  0  0  0  0  0
    4.2262    0.4577    0.0000 H   0  0  0  0  0  0  0  0  0  0  0  0
    2.7190   -0.5084    0.0000 H   0  0  0  0  0  0  0  0  0  0  0  0
    2.1131    2.3670    0.0000 H   0  0  0  0  0  0  0  0  0  0  0  0
   -5.2725    1.2547    0.0000 H   0  0  0  0  0  0  0  0  0  0  0  0
   -5.3588    1.1363    0.0000 H   0  0  0  0  0  0  0  0  0  0  0  0
   -3.5493   -1.1255    0.0000 H   0  0  0  0  0  0  0  0  0  0  0  0
   -2.5656    0.2234    0.0000 H   0  0  0  0  0  0  0  0  0  0  0  0
    3.8057    0.4921    0.0000 H   0  0  0  0  0  0  0  0  0  0  0  0
    5.3276   -0.1342    0.0000 H   0  0  0  0  0  0  0  0  0  0  0  0
    1.3041    2.6996    0.0000 H   0  0  0  0  0  0  0  0  0  0  0  0
    2.2809    2.2627    0.0000 H   0  0  0  0  0  0  0  0  0  0  0  0
    3.8688    2.8790    0.0000 H   0  0  0  0  0  0  0  0  0  0  0  0
    6.9633    1.8875    0.0000 H   0  0  0  0  0  0  0  0  0  0  0  0
    6.2487    2.6840    0.0000 H   0  0  0  0  0  0  0  0  0  0  0  0
   -2.9599    2.2588    0.0000 H   0  0  0  0  0  0  0  0  0  0  0  0
   -3.8266    1.6314    0.0000 H   0  0  0  0  0  0  0  0  0  0  0  0
   -3.0475   -1.8158    0.0000 H   0  0  0  0  0  0  0  0  0  0  0  0
   -7.6642   -0.8873    0.0000 H   0  0  0  0  0  0  0  0  0  0  0  0
  1  8  1  0  0  0  0
  1 15  1  0  0  0  0
  1 16  1  0  0  0  0
  1 19  2  0  0  0  0
  2 11  1  0  0  0  0
  2 14  1  0  0  0  0
  2 17  1  0  0  0  0
  2 21  2  6  0  0  0
  3 13  1  0  0  0  0
  3 14  1  0  0  0  0
  3 20  1  0  0  0  0
  3 22  2  6  0  0  0
  4 30  1  0  0  0  0
  4 33  1  0  0  0  0
  5 36  1  0  0  0  0
  5 37  1  0  0  0  0
  6 55  1  0  0  0  0
  7 56  1  0  0  0  0
  9 57  1  0  0  0  0
 10 58  1  0  0  0  0
 11 40  1  0  0  0  0
 12 59  1  0  0  0  0
 13 43  1  0  0  0  0
 15 60  1  0  0  0  0
 16 61  1  0  0  0  0
 17 62  1  0  0  0  0
 18 47  2  0  0  0  0
 20 63  1  0  0  0  0
 23 38  1  0  0  0  0
 23 41  1  0  0  0  0
 24 45  1  0  0  0  0
 24 46  1  0  0  0  0
 25 46  2  0  0  0  0
 25 48  1  0  0  0  0
 26 45  2  0  0  0  0
 26 50  1  0  0  0  0
 27 47  1  0  0  0  0
 27 51  1  0  0  0  0
 27 52  1  0  0  0  0
 28 49  1  0  0  0  0
 28 50  2  0  0  0  0
 29 49  1  0  0  0  0
 29 53  1  0  0  0  0
 29 54  1  0  0  0  0
 30 23  1  0  0  0  0
 30 31  1  0  0  0  0
 30 64  1  6  0  0  0
 31  6  1  0  0  0  0
 31 32  1  0  0  0  0
 31 65  1  1  0  0  0
 32  7  1  0  0  0  0
 32 33  1  0  0  0  0
 32 66  1  1  0  0  0
 33 40  1  0  0  0  0
 33 67  1  6  0  0  0
 34  8  1  0  0  0  0
 34 35  1  0  0  0  0
 34 36  1  0  0  0  0
 34 68  1  1  0  0  0
 35  9  1  0  0  0  0
 35 37  1  0  0  0  0
 35 69  1  1  0  0  0
 36 24  1  0  0  0  0
 36 70  1  6  0  0  0
 37 43  1  0  0  0  0
 37 71  1  6  0  0  0
 38 10  1  0  0  0  0
 38 39  1  0  0  0  0
 38 72  1  1  0  0  0
 39 12  1  0  0  0  0
 39 42  1  0  0  0  0
 39 73  1  1  0  0  0
 40 74  1  0  0  0  0
 40 75  1  0  0  0  0
 41 44  2  0  0  0  0
 41 76  1  0  0  0  0
 42 44  1  0  0  0  0
 42 77  1  0  0  0  0
 42 78  1  0  0  0  0
 43 79  1  0  0  0  0
 43 80  1  0  0  0  0
 44 47  1  0  0  0  0
 45 48  1  0  0  0  0
 46 81  1  0  0  0  0
 48 49  2  0  0  0  0
 50 82  1  0  0  0  0
M  END
>  <DRUGBANK_ID>
DB02319

>  <SECONDARY_ACCESSION_NUMBERS>
EXPT02403

>  <COMMON_NAME>
5,6-dihydroxy-NADP

$$$$
