
 OpenBabel10282417072D

 59 64  0  0  0  0  0  0  0  0999 V2000
   -2.0125    2.5735    0.0000 O   0  0  0  0  0  0  0  0  0  0  0  0
    0.7509    3.4661    0.0000 O   0  0  0  0  0  0  0  0  0  0  0  0
   -1.4821   -3.0588    0.0000 N   0  0  0  0  0  0  0  0  0  0  0  0
   -0.9600   -0.2081    0.0000 N   0  0  0  0  0  0  0  0  0  0  0  0
   -0.7014    3.2386    0.0000 N   0  0  0  0  0  0  0  0  0  0  0  0
    1.5245    0.5944    0.0000 N   0  0  0  0  0  0  0  0  0  0  0  0
   -0.9984   -2.3905    0.0000 C   0  0  1  0  0  0  0  0  0  0  0  0
   -0.2134   -2.6441    0.0000 C   0  0  0  0  0  0  0  0  0  0  0  0
   -0.2119   -3.4691    0.0000 C   0  0  0  0  0  0  0  0  0  0  0  0
   -1.2547   -1.6063    0.0000 C   0  0  0  0  0  0  0  0  0  0  0  0
   -0.9961   -3.7254    0.0000 C   0  0  0  0  0  0  0  0  0  0  0  0
   -0.7038   -0.9923    0.0000 C   0  0  0  0  0  0  0  0  0  0  0  0
   -2.3071   -3.0602    0.0000 C   0  0  0  0  0  0  0  0  0  0  0  0
   -1.7406    0.0432    0.0000 C   0  0  0  0  0  0  0  0  0  0  0  0
   -0.4785    0.4557    0.0000 C   0  0  0  0  0  0  0  0  0  0  0  0
   -0.9600    1.1196    0.0000 C   0  0  0  0  0  0  0  0  0  0  0  0
   -1.7406    0.8682    0.0000 C   0  0  0  0  0  0  0  0  0  0  0  0
   -0.7038    1.9038    0.0000 C   0  0  0  0  0  0  0  0  0  0  0  0
   -2.4551   -0.3692    0.0000 C   0  0  0  0  0  0  0  0  0  0  0  0
    0.0812    2.1573    0.0000 C   0  0  0  0  0  0  0  0  0  0  0  0
   -2.4551    1.2807    0.0000 C   0  0  0  0  0  0  0  0  0  0  0  0
    0.7478    1.6713    0.0000 C   0  0  0  0  0  0  0  0  0  0  0  0
   -1.1875    2.5720    0.0000 C   0  0  0  0  0  0  0  0  0  0  0  0
   -3.1696    0.0432    0.0000 C   0  0  0  0  0  0  0  0  0  0  0  0
   -3.1696    0.8682    0.0000 C   0  0  0  0  0  0  0  0  0  0  0  0
    0.0827    2.9823    0.0000 C   0  0  0  0  0  0  0  0  0  0  0  0
    1.5280    1.9240    0.0000 C   0  0  0  0  0  0  0  0  0  0  0  0
    0.7457    0.8512    0.0000 C   0  0  0  0  0  0  0  0  0  0  0  0
    2.0106    1.2549    0.0000 C   0  0  0  0  0  0  0  0  0  0  0  0
    1.8662    2.6766    0.0000 C   0  0  0  0  0  0  0  0  0  0  0  0
    2.8314    1.3383    0.0000 C   0  0  0  0  0  0  0  0  0  0  0  0
    2.6870    2.7599    0.0000 C   0  0  0  0  0  0  0  0  0  0  0  0
    3.1696    2.0908    0.0000 C   0  0  0  0  0  0  0  0  0  0  0  0
   -0.8586    3.7254    0.0000 H   0  0  0  0  0  0  0  0  0  0  0  0
    1.6801    0.1071    0.0000 H   0  0  0  0  0  0  0  0  0  0  0  0
   -2.0555   -2.2250    0.0000 H   0  0  0  0  0  0  0  0  0  0  0  0
    0.6511   -2.0137    0.0000 H   0  0  0  0  0  0  0  0  0  0  0  0
    0.7408   -3.1282    0.0000 H   0  0  0  0  0  0  0  0  0  0  0  0
    0.6549   -4.0965    0.0000 H   0  0  0  0  0  0  0  0  0  0  0  0
   -0.3774   -4.5262    0.0000 H   0  0  0  0  0  0  0  0  0  0  0  0
   -2.3017   -1.3857    0.0000 H   0  0  0  0  0  0  0  0  0  0  0  0
   -1.5871   -0.5892    0.0000 H   0  0  0  0  0  0  0  0  0  0  0  0
   -1.3250   -4.7436    0.0000 H   0  0  0  0  0  0  0  0  0  0  0  0
   -0.2382   -4.4807    0.0000 H   0  0  0  0  0  0  0  0  0  0  0  0
    0.3432   -1.2130    0.0000 H   0  0  0  0  0  0  0  0  0  0  0  0
   -0.3714   -2.0094    0.0000 H   0  0  0  0  0  0  0  0  0  0  0  0
   -2.8437   -2.1345    0.0000 H   0  0  0  0  0  0  0  0  0  0  0  0
   -2.8405   -3.9878    0.0000 H   0  0  0  0  0  0  0  0  0  0  0  0
   -3.3771   -3.0620    0.0000 H   0  0  0  0  0  0  0  0  0  0  0  0
    0.5535    0.4557    0.0000 H   0  0  0  0  0  0  0  0  0  0  0  0
   -2.4551   -1.4012    0.0000 H   0  0  0  0  0  0  0  0  0  0  0  0
   -2.4551    2.3127    0.0000 H   0  0  0  0  0  0  0  0  0  0  0  0
   -4.0633   -0.4729    0.0000 H   0  0  0  0  0  0  0  0  0  0  0  0
   -4.0633    1.3842    0.0000 H   0  0  0  0  0  0  0  0  0  0  0  0
   -0.0913    0.2475    0.0000 H   0  0  0  0  0  0  0  0  0  0  0  0
    1.2625    3.5136    0.0000 H   0  0  0  0  0  0  0  0  0  0  0  0
    3.4351    0.5013    0.0000 H   0  0  0  0  0  0  0  0  0  0  0  0
    3.1101    3.7012    0.0000 H   0  0  0  0  0  0  0  0  0  0  0  0
    4.1963    2.1951    0.0000 H   0  0  0  0  0  0  0  0  0  0  0  0
  1 23  2  0  0  0  0
  2 26  2  0  0  0  0
  3  7  1  0  0  0  0
  3 11  1  0  0  0  0
  3 13  1  0  0  0  0
  4 12  1  0  0  0  0
  4 14  1  0  0  0  0
  4 15  1  0  0  0  0
  5 23  1  0  0  0  0
  5 26  1  0  0  0  0
  5 34  1  0  0  0  0
  6 28  1  0  0  0  0
  6 29  1  0  0  0  0
  6 35  1  0  0  0  0
  7  8  1  0  0  0  0
  7 10  1  0  0  0  0
  7 36  1  1  0  0  0
  8  9  1  0  0  0  0
  8 37  1  0  0  0  0
  8 38  1  0  0  0  0
  9 11  1  0  0  0  0
  9 39  1  0  0  0  0
  9 40  1  0  0  0  0
 10 12  1  0  0  0  0
 10 41  1  0  0  0  0
 10 42  1  0  0  0  0
 11 43  1  0  0  0  0
 11 44  1  0  0  0  0
 12 45  1  0  0  0  0
 12 46  1  0  0  0  0
 13 47  1  0  0  0  0
 13 48  1  0  0  0  0
 13 49  1  0  0  0  0
 14 17  1  0  0  0  0
 14 19  2  0  0  0  0
 15 16  2  0  0  0  0
 15 50  1  0  0  0  0
 16 17  1  0  0  0  0
 16 18  1  0  0  0  0
 17 21  2  0  0  0  0
 18 20  2  0  0  0  0
 18 23  1  0  0  0  0
 19 24  1  0  0  0  0
 19 51  1  0  0  0  0
 20 22  1  0  0  0  0
 20 26  1  0  0  0  0
 21 25  1  0  0  0  0
 21 52  1  0  0  0  0
 22 27  1  0  0  0  0
 22 28  2  0  0  0  0
 24 25  2  0  0  0  0
 24 53  1  0  0  0  0
 25 54  1  0  0  0  0
 27 29  1  0  0  0  0
 27 30  2  0  0  0  0
 28 55  1  0  0  0  0
 29 31  2  0  0  0  0
 30 32  1  0  0  0  0
 30 56  1  0  0  0  0
 31 33  1  0  0  0  0
 31 57  1  0  0  0  0
 32 33  2  0  0  0  0
 32 58  1  0  0  0  0
 33 59  1  0  0  0  0
M  END
>  <DRUGBANK_ID>
DB07458

>  <COMMON_NAME>
3-(1H-indol-3-yl)-4-{1-[2-(1-methylpyrrolidin-2-yl)ethyl]-1H-indol-3-yl}-1H-pyrrole-2,5-dione

$$$$
