
 OpenBabel10282417072D

 45 48  0  0  1  0  0  0  0  0999 V2000
    0.6538   -0.6979    0.0000 C   0  0  0  0  0  0  0  0  0  0  0  0
    1.1387   -0.0305    0.0000 N   0  0  0  0  0  0  0  0  0  0  0  0
    1.9233   -0.2854    0.0000 C   0  0  0  0  0  0  0  0  0  0  0  0
    2.6378    0.1271    0.0000 C   0  0  0  0  0  0  0  0  0  0  0  0
    3.3523   -0.2854    0.0000 N   0  0  0  0  0  0  0  0  0  0  0  0
    3.3523   -1.1104    0.0000 C   0  0  0  0  0  0  0  0  0  0  0  0
    2.6378   -1.5229    0.0000 N   0  0  0  0  0  0  0  0  0  0  0  0
    1.9233   -1.1104    0.0000 C   0  0  0  0  0  0  0  0  0  0  0  0
    1.1387   -1.3654    0.0000 N   0  0  0  0  0  0  0  0  0  0  0  0
    0.8838   -2.1500    0.0000 C   0  0  2  0  0  0  0  0  0  0  0  0
    1.3687   -2.8174    0.0000 C   0  0  0  0  0  0  0  0  0  0  0  0
    0.8838   -3.4849    0.0000 C   0  0  1  0  0  0  0  0  0  0  0  0
    0.0992   -3.2299    0.0000 C   0  0  0  0  0  0  0  0  0  0  0  0
    0.0992   -2.4049    0.0000 C   0  0  0  0  0  0  0  0  0  0  0  0
    1.1387   -4.2695    0.0000 C   0  0  0  0  0  0  0  0  0  0  0  0
    0.5867   -4.8826    0.0000 O   0  0  0  0  0  0  0  0  0  0  0  0
    0.8416   -5.6672    0.0000 C   0  0  0  0  0  0  0  0  0  0  0  0
    1.6486   -5.8387    0.0000 O   0  0  0  0  0  0  0  0  0  0  0  0
    0.2896   -6.2803    0.0000 C   0  0  0  0  0  0  0  0  0  0  0  0
    0.5445   -7.0649    0.0000 O   0  0  0  0  0  0  0  0  0  0  0  0
    4.0668   -1.5229    0.0000 N   0  0  0  0  0  0  0  0  0  0  0  0
    2.6378    0.9521    0.0000 N   0  0  0  0  0  0  0  0  0  0  0  0
    3.3523    1.3646    0.0000 C   0  0  0  0  0  0  0  0  0  0  0  0
    3.7648    2.0790    0.0000 C   0  0  0  0  0  0  0  0  0  0  0  0
    4.1773    1.3646    0.0000 C   0  0  0  0  0  0  0  0  0  0  0  0
   -0.3782   -0.6979    0.0000 H   0  0  0  0  0  0  0  0  0  0  0  0
    1.9406   -1.9826    0.0000 H   0  0  0  0  0  0  0  0  0  0  0  0
    2.4387   -2.8174    0.0000 H   0  0  0  0  0  0  0  0  0  0  0  0
    1.8545   -3.7708    0.0000 H   0  0  0  0  0  0  0  0  0  0  0  0
    1.9406   -3.6523    0.0000 H   0  0  0  0  0  0  0  0  0  0  0  0
   -0.7357   -3.8365    0.0000 H   0  0  0  0  0  0  0  0  0  0  0  0
   -0.7357   -1.7983    0.0000 H   0  0  0  0  0  0  0  0  0  0  0  0
    2.1853   -4.4920    0.0000 H   0  0  0  0  0  0  0  0  0  0  0  0
    1.4694   -5.2871    0.0000 H   0  0  0  0  0  0  0  0  0  0  0  0
   -0.7570   -6.0578    0.0000 H   0  0  0  0  0  0  0  0  0  0  0  0
   -0.4264   -7.0755    0.0000 H   0  0  0  0  0  0  0  0  0  0  0  0
   -0.1046   -7.7857    0.0000 H   0  0  0  0  0  0  0  0  0  0  0  0
    4.0668   -2.5074    0.0000 H   0  0  0  0  0  0  0  0  0  0  0  0
    4.9194   -1.0306    0.0000 H   0  0  0  0  0  0  0  0  0  0  0  0
    1.7852    1.4444    0.0000 H   0  0  0  0  0  0  0  0  0  0  0  0
    4.2790    1.8996    0.0000 H   0  0  0  0  0  0  0  0  0  0  0  0
    3.7648    3.1490    0.0000 H   0  0  0  0  0  0  0  0  0  0  0  0
    4.7983    2.3560    0.0000 H   0  0  0  0  0  0  0  0  0  0  0  0
    5.1040    0.8296    0.0000 H   0  0  0  0  0  0  0  0  0  0  0  0
    3.9004    0.3311    0.0000 H   0  0  0  0  0  0  0  0  0  0  0  0
  1  2  2  0  0  0  0
  1  9  1  0  0  0  0
  1 26  1  0  0  0  0
  2  3  1  0  0  0  0
  3  4  2  0  0  0  0
  3  8  1  0  0  0  0
  4  5  1  0  0  0  0
  4 22  1  0  0  0  0
  5  6  2  0  0  0  0
  6  7  1  0  0  0  0
  6 21  1  0  0  0  0
  7  8  2  0  0  0  0
  8  9  1  0  0  0  0
 10  9  1  0  0  0  0
 10 11  1  0  0  0  0
 10 14  1  0  0  0  0
 10 27  1  1  0  0  0
 11 12  1  0  0  0  0
 11 28  1  0  0  0  0
 11 29  1  0  0  0  0
 12 13  1  0  0  0  0
 12 15  1  0  0  0  0
 12 30  1  1  0  0  0
 13 14  2  0  0  0  0
 13 31  1  0  0  0  0
 14 32  1  0  0  0  0
 15 16  1  0  0  0  0
 15 33  1  0  0  0  0
 15 34  1  0  0  0  0
 16 17  1  0  0  0  0
 17 18  2  0  0  0  0
 17 19  1  0  0  0  0
 19 20  1  0  0  0  0
 19 35  1  0  0  0  0
 19 36  1  0  0  0  0
 20 37  1  0  0  0  0
 21 38  1  0  0  0  0
 21 39  1  0  0  0  0
 22 23  1  0  0  0  0
 22 40  1  0  0  0  0
 23 24  1  0  0  0  0
 23 25  1  0  0  0  0
 23 41  1  0  0  0  0
 24 25  1  0  0  0  0
 24 42  1  0  0  0  0
 24 43  1  0  0  0  0
 25 44  1  0  0  0  0
 25 45  1  0  0  0  0
M  END
>  <DRUGBANK_ID>
DB12187

>  <COMMON_NAME>
Abacavir hydroxyacetate

>  <CAS_NUMBER>
1446418-48-9

>  <UNII>
B3C7MG354B

$$$$
