
 OpenBabel10282417072D

 34 34  0  0  1  0  0  0  0  0999 V2000
   26.3045  -12.5709    0.0000 P   0  0  0  0  0  0  0  0  0  0  0  0
   29.8770  -12.9834    0.0000 P   0  0  0  0  0  0  0  0  0  0  0  0
   27.0191  -12.9834    0.0000 O   0  0  0  0  0  0  0  0  0  0  0  0
   29.8770  -13.8084    0.0000 O   0  0  0  0  0  0  0  0  0  0  0  0
   26.7170  -11.8564    0.0000 O   0  0  0  0  0  0  0  0  0  0  0  0
   25.5900  -12.1584    0.0000 O   0  0  0  0  0  0  0  0  0  0  0  0
   30.7020  -12.9834    0.0000 O   0  0  0  0  0  0  0  0  0  0  0  0
   29.8770  -12.1584    0.0000 O   0  0  0  0  0  0  0  0  0  0  0  0
   29.8770  -15.4584    0.0000 O   0  0  0  0  0  0  0  0  0  0  0  0
   27.0191  -15.4584    0.0000 O   0  0  0  0  0  0  0  0  0  0  0  0
   28.4480  -16.2835    0.0000 O   0  0  0  0  0  0  0  0  0  0  0  0
   28.4480  -13.8084    0.0000 O   0  0  0  0  0  0  0  0  0  0  0  0
   25.8920  -13.2853    0.0000 O   0  0  0  0  0  0  0  0  0  0  0  0
   29.0520  -12.9834    0.0000 O   0  0  0  0  0  0  0  0  0  0  0  0
   27.0191  -13.8084    0.0000 C   0  0  0  0  0  0  0  0  0  0  0  0
   29.1624  -14.2209    0.0000 C   0  0  1  0  0  0  0  0  0  0  0  0
   27.7335  -14.2209    0.0000 C   0  0  2  0  0  0  0  0  0  0  0  0
   29.1624  -15.0459    0.0000 C   0  0  1  0  0  0  0  0  0  0  0  0
   27.7335  -15.0459    0.0000 C   0  0  2  0  0  0  0  0  0  0  0  0
   28.4480  -15.4584    0.0000 C   0  0  2  0  0  0  0  0  0  0  0  0
   27.6870  -11.8564    0.0000 H   0  0  0  0  0  0  0  0  0  0  0  0
   25.5900  -11.1884    0.0000 H   0  0  0  0  0  0  0  0  0  0  0  0
   31.1870  -13.8234    0.0000 H   0  0  0  0  0  0  0  0  0  0  0  0
   30.7170  -11.6734    0.0000 H   0  0  0  0  0  0  0  0  0  0  0  0
   29.8771  -16.4284    0.0000 H   0  0  0  0  0  0  0  0  0  0  0  0
   26.1790  -14.9734    0.0000 H   0  0  0  0  0  0  0  0  0  0  0  0
   27.6080  -16.7685    0.0000 H   0  0  0  0  0  0  0  0  0  0  0  0
   26.0924  -14.3434    0.0000 H   0  0  0  0  0  0  0  0  0  0  0  0
   27.0191  -14.8784    0.0000 H   0  0  0  0  0  0  0  0  0  0  0  0
   29.1625  -13.1509    0.0000 H   0  0  0  0  0  0  0  0  0  0  0  0
   27.7335  -13.1509    0.0000 H   0  0  0  0  0  0  0  0  0  0  0  0
   30.0890  -14.5109    0.0000 H   0  0  0  0  0  0  0  0  0  0  0  0
   26.8068  -14.5109    0.0000 H   0  0  0  0  0  0  0  0  0  0  0  0
   29.3747  -15.9934    0.0000 H   0  0  0  0  0  0  0  0  0  0  0  0
  1  3  1  0  0  0  0
  1  5  1  0  0  0  0
  1  6  1  0  0  0  0
  1 13  2  0  0  0  0
  2  4  1  0  0  0  0
  2  7  1  0  0  0  0
  2  8  1  0  0  0  0
  2 14  2  0  0  0  0
  3 15  1  0  0  0  0
  5 21  1  0  0  0  0
  6 22  1  0  0  0  0
  7 23  1  0  0  0  0
  8 24  1  0  0  0  0
  9 25  1  0  0  0  0
 10 26  1  0  0  0  0
 11 27  1  0  0  0  0
 12 16  1  0  0  0  0
 12 17  1  0  0  0  0
 15 28  1  0  0  0  0
 15 29  1  0  0  0  0
 16  4  1  0  0  0  0
 16 18  1  0  0  0  0
 16 30  1  1  0  0  0
 17 15  1  0  0  0  0
 17 19  1  0  0  0  0
 17 31  1  6  0  0  0
 18  9  1  0  0  0  0
 18 20  1  0  0  0  0
 18 32  1  1  0  0  0
 19 10  1  0  0  0  0
 19 20  1  0  0  0  0
 19 33  1  1  0  0  0
 20 11  1  0  0  0  0
 20 34  1  6  0  0  0
M  END
>  <DRUGBANK_ID>
DB02835

>  <SECONDARY_ACCESSION_NUMBERS>
EXPT01519

>  <COMMON_NAME>
Alpha-D-Glucose 1,6-Bisphosphate

>  <CAS_NUMBER>
10139-18-1

>  <UNII>
DRX17R6AM2

$$$$
