
 OpenBabel10282417072D

102105  0  0  0  0  0  0  0  0999 V2000
    0.0000    2.1750    0.0000 C   0  0  0  0  0  0  0  0  0  0  0  0
    0.0000    1.3500    0.0000 C   0  0  0  0  0  0  0  0  0  0  0  0
    0.7145    0.9375    0.0000 C   0  0  0  0  0  0  0  0  0  0  0  0
    0.7145    0.1125    0.0000 C   0  0  0  0  0  0  0  0  0  0  0  0
    0.0000   -0.3000    0.0000 C   0  0  0  0  0  0  0  0  0  0  0  0
   -0.7145    0.1125    0.0000 C   0  0  0  0  0  0  0  0  0  0  0  0
   -0.7145    0.9375    0.0000 C   0  0  0  0  0  0  0  0  0  0  0  0
   -0.0000   -1.1250    0.0000 S   0  0  0  0  0  0  0  0  0  0  0  0
   -0.0000   -1.9500    0.0000 O   0  0  0  0  0  0  0  0  0  0  0  0
   -0.8250   -1.1250    0.0000 O   0  0  0  0  0  0  0  0  0  0  0  0
    0.8250   -1.1250    0.0000 O   0  0  0  0  0  0  0  0  0  0  0  0
    3.4252    2.1750    0.0000 C   0  0  0  0  0  0  0  0  0  0  0  0
    3.4252    1.3500    0.0000 C   0  0  0  0  0  0  0  0  0  0  0  0
    4.1397    0.9375    0.0000 C   0  0  0  0  0  0  0  0  0  0  0  0
    4.1397    0.1125    0.0000 C   0  0  0  0  0  0  0  0  0  0  0  0
    3.4252   -0.3000    0.0000 C   0  0  0  0  0  0  0  0  0  0  0  0
    2.7107    0.1125    0.0000 C   0  0  0  0  0  0  0  0  0  0  0  0
    2.7107    0.9375    0.0000 C   0  0  0  0  0  0  0  0  0  0  0  0
    3.4252   -1.1250    0.0000 S   0  0  0  0  0  0  0  0  0  0  0  0
    3.4252   -1.9500    0.0000 O   0  0  0  0  0  0  0  0  0  0  0  0
    2.6002   -1.1250    0.0000 O   0  0  0  0  0  0  0  0  0  0  0  0
    4.2502   -1.1250    0.0000 O   0  0  0  0  0  0  0  0  0  0  0  0
   -2.6948   -7.8355    0.0000 C   0  0  0  0  0  0  0  0  0  0  0  0
   -2.2823   -8.5500    0.0000 C   0  0  0  0  0  0  0  0  0  0  0  0
   -1.8698   -9.2645    0.0000 C   0  0  0  0  0  0  0  0  0  0  0  0
   -1.5679   -8.1375    0.0000 C   0  0  0  0  0  0  0  0  0  0  0  0
   -0.8534   -7.7250    0.0000 C   0  0  0  0  0  0  0  0  0  0  0  0
   -0.1389   -7.3125    0.0000 C   0  0  0  0  0  0  0  0  0  0  0  0
    0.5755   -7.7250    0.0000 C   0  0  0  0  0  0  0  0  0  0  0  0
    1.2900   -7.3125    0.0000 C   0  0  0  0  0  0  0  0  0  0  0  0
    1.2900   -6.4875    0.0000 C   0  0  0  0  0  0  0  0  0  0  0  0
    0.5755   -6.0750    0.0000 C   0  0  0  0  0  0  0  0  0  0  0  0
   -0.1389   -6.4875    0.0000 C   0  0  0  0  0  0  0  0  0  0  0  0
   -0.8534   -6.0750    0.0000 N   0  0  0  0  0  0  0  0  0  0  0  0
   -1.5679   -6.4875    0.0000 C   0  0  0  0  0  0  0  0  0  0  0  0
   -2.2823   -6.0750    0.0000 O   0  0  0  0  0  0  0  0  0  0  0  0
   -1.5679   -7.3125    0.0000 C   0  0  0  0  0  0  0  0  0  0  0  0
   -2.2823   -7.7250    0.0000 C   0  0  0  0  0  0  0  0  0  0  0  0
    2.0045   -6.0750    0.0000 C   0  0  0  0  0  0  0  0  0  0  0  0
    2.7190   -6.4875    0.0000 N   0  0  0  0  0  0  0  0  0  0  0  0
    2.7190   -7.3125    0.0000 C   0  0  0  0  0  0  0  0  0  0  0  0
    2.0045   -7.7250    0.0000 N   0  0  0  0  0  0  0  0  0  0  0  0
    2.0045   -5.2500    0.0000 N   0  0  0  0  0  0  0  0  0  0  0  0
    2.7190   -4.8375    0.0000 C   0  0  0  0  0  0  0  0  0  0  0  0
    2.7190   -4.0125    0.0000 C   0  0  0  0  0  0  0  0  0  0  0  0
    3.4334   -3.6000    0.0000 C   0  0  0  0  0  0  0  0  0  0  0  0
    4.1479   -4.0125    0.0000 C   0  0  0  0  0  0  0  0  0  0  0  0
    4.1479   -4.8375    0.0000 C   0  0  0  0  0  0  0  0  0  0  0  0
    3.4334   -5.2500    0.0000 C   0  0  0  0  0  0  0  0  0  0  0  0
    4.8624   -5.2500    0.0000 Cl  0  0  0  0  0  0  0  0  0  0  0  0
    4.8624   -3.6000    0.0000 F   0  0  0  0  0  0  0  0  0  0  0  0
   -2.9968   -8.9625    0.0000 N   0  0  0  0  0  0  0  0  0  0  0  0
   -2.9968   -9.7875    0.0000 C   0  0  0  0  0  0  0  0  0  0  0  0
   -3.7113  -10.2000    0.0000 C   0  0  0  0  0  0  0  0  0  0  0  0
   -4.4258   -9.7875    0.0000 N   0  0  0  0  0  0  0  0  0  0  0  0
   -4.4258   -8.9625    0.0000 C   0  0  0  0  0  0  0  0  0  0  0  0
   -3.7113   -8.5500    0.0000 C   0  0  0  0  0  0  0  0  0  0  0  0
   -5.1402  -10.2000    0.0000 C   0  0  0  0  0  0  0  0  0  0  0  0
    0.9266    2.7100    0.0000 H   0  0  0  0  0  0  0  0  0  0  0  0
   -0.9266    2.7100    0.0000 H   0  0  0  0  0  0  0  0  0  0  0  0
    0.0000    3.2450    0.0000 H   0  0  0  0  0  0  0  0  0  0  0  0
    1.6082    1.4535    0.0000 H   0  0  0  0  0  0  0  0  0  0  0  0
    1.6082   -0.4035    0.0000 H   0  0  0  0  0  0  0  0  0  0  0  0
   -1.6082   -0.4035    0.0000 H   0  0  0  0  0  0  0  0  0  0  0  0
   -1.6082    1.4535    0.0000 H   0  0  0  0  0  0  0  0  0  0  0  0
    1.3100   -1.9650    0.0000 H   0  0  0  0  0  0  0  0  0  0  0  0
    4.3518    2.7100    0.0000 H   0  0  0  0  0  0  0  0  0  0  0  0
    2.4986    2.7100    0.0000 H   0  0  0  0  0  0  0  0  0  0  0  0
    3.4252    3.2450    0.0000 H   0  0  0  0  0  0  0  0  0  0  0  0
    5.0334    1.4535    0.0000 H   0  0  0  0  0  0  0  0  0  0  0  0
    5.0334   -0.4035    0.0000 H   0  0  0  0  0  0  0  0  0  0  0  0
    1.8170   -0.4035    0.0000 H   0  0  0  0  0  0  0  0  0  0  0  0
    1.8170    1.4535    0.0000 H   0  0  0  0  0  0  0  0  0  0  0  0
    4.7352   -1.9650    0.0000 H   0  0  0  0  0  0  0  0  0  0  0  0
   -2.1598   -6.9089    0.0000 H   0  0  0  0  0  0  0  0  0  0  0  0
   -3.7648   -7.8355    0.0000 H   0  0  0  0  0  0  0  0  0  0  0  0
   -3.2298   -6.9088    0.0000 H   0  0  0  0  0  0  0  0  0  0  0  0
   -2.4048  -10.1911    0.0000 H   0  0  0  0  0  0  0  0  0  0  0  0
   -0.7998   -9.2645    0.0000 H   0  0  0  0  0  0  0  0  0  0  0  0
   -1.3348  -10.1912    0.0000 H   0  0  0  0  0  0  0  0  0  0  0  0
    0.5755   -8.7570    0.0000 H   0  0  0  0  0  0  0  0  0  0  0  0
    0.5755   -5.0430    0.0000 H   0  0  0  0  0  0  0  0  0  0  0  0
   -0.8534   -5.0905    0.0000 H   0  0  0  0  0  0  0  0  0  0  0  0
   -0.6742   -7.8285    0.0000 H   0  0  0  0  0  0  0  0  0  0  0  0
   -3.1761   -7.2090    0.0000 H   0  0  0  0  0  0  0  0  0  0  0  0
   -2.2823   -8.7570    0.0000 H   0  0  0  0  0  0  0  0  0  0  0  0
    3.6127   -7.8285    0.0000 H   0  0  0  0  0  0  0  0  0  0  0  0
    1.1519   -4.7577    0.0000 H   0  0  0  0  0  0  0  0  0  0  0  0
    1.8253   -3.4965    0.0000 H   0  0  0  0  0  0  0  0  0  0  0  0
    3.4334   -2.5680    0.0000 H   0  0  0  0  0  0  0  0  0  0  0  0
    3.4334   -6.2820    0.0000 H   0  0  0  0  0  0  0  0  0  0  0  0
   -2.0702  -10.3225    0.0000 H   0  0  0  0  0  0  0  0  0  0  0  0
   -2.9968  -10.8575    0.0000 H   0  0  0  0  0  0  0  0  0  0  0  0
   -3.7113  -11.2700    0.0000 H   0  0  0  0  0  0  0  0  0  0  0  0
   -4.6379  -10.7350    0.0000 H   0  0  0  0  0  0  0  0  0  0  0  0
   -5.3524   -8.4275    0.0000 H   0  0  0  0  0  0  0  0  0  0  0  0
   -4.4258   -7.8925    0.0000 H   0  0  0  0  0  0  0  0  0  0  0  0
   -3.7113   -7.4800    0.0000 H   0  0  0  0  0  0  0  0  0  0  0  0
   -2.7847   -8.0150    0.0000 H   0  0  0  0  0  0  0  0  0  0  0  0
   -6.0669   -9.6650    0.0000 H   0  0  0  0  0  0  0  0  0  0  0  0
   -5.1402  -11.2700    0.0000 H   0  0  0  0  0  0  0  0  0  0  0  0
   -6.0668  -10.7350    0.0000 H   0  0  0  0  0  0  0  0  0  0  0  0
  1  2  1  0  0  0  0
  1 59  1  0  0  0  0
  1 60  1  0  0  0  0
  1 61  1  0  0  0  0
  2  3  2  0  0  0  0
  2  7  1  0  0  0  0
  3  4  1  0  0  0  0
  3 62  1  0  0  0  0
  4  5  2  0  0  0  0
  4 63  1  0  0  0  0
  5  6  1  0  0  0  0
  5  8  1  0  0  0  0
  6  7  2  0  0  0  0
  6 64  1  0  0  0  0
  7 65  1  0  0  0  0
  8  9  2  0  0  0  0
  8 10  2  0  0  0  0
  8 11  1  0  0  0  0
 11 66  1  0  0  0  0
 12 13  1  0  0  0  0
 12 67  1  0  0  0  0
 12 68  1  0  0  0  0
 12 69  1  0  0  0  0
 13 14  2  0  0  0  0
 13 18  1  0  0  0  0
 14 15  1  0  0  0  0
 14 70  1  0  0  0  0
 15 16  2  0  0  0  0
 15 71  1  0  0  0  0
 16 17  1  0  0  0  0
 16 19  1  0  0  0  0
 17 18  2  0  0  0  0
 17 72  1  0  0  0  0
 18 73  1  0  0  0  0
 19 20  2  0  0  0  0
 19 21  2  0  0  0  0
 19 22  1  0  0  0  0
 22 74  1  0  0  0  0
 23 24  1  0  0  0  0
 23 75  1  0  0  0  0
 23 76  1  0  0  0  0
 23 77  1  0  0  0  0
 24 25  1  0  0  0  0
 24 26  1  0  0  0  0
 24 52  1  0  0  0  0
 25 78  1  0  0  0  0
 25 79  1  0  0  0  0
 25 80  1  0  0  0  0
 26 27  3  0  0  0  0
 27 28  1  0  0  0  0
 28 29  1  0  0  0  0
 28 33  2  0  0  0  0
 29 30  2  0  0  0  0
 29 81  1  0  0  0  0
 30 31  1  0  0  0  0
 30 42  1  0  0  0  0
 31 32  2  0  0  0  0
 31 39  1  0  0  0  0
 32 33  1  0  0  0  0
 32 82  1  0  0  0  0
 33 34  1  0  0  0  0
 34 35  1  0  0  0  0
 34 83  1  0  0  0  0
 35 36  2  0  0  0  0
 35 37  1  0  0  0  0
 37 38  2  0  0  0  0
 37 84  1  0  0  0  0
 38 85  1  0  0  0  0
 38 86  1  0  0  0  0
 39 40  2  0  0  0  0
 39 43  1  0  0  0  0
 40 41  1  0  0  0  0
 41 42  2  0  0  0  0
 41 87  1  0  0  0  0
 43 44  1  0  0  0  0
 43 88  1  0  0  0  0
 44 45  2  0  0  0  0
 44 49  1  0  0  0  0
 45 46  1  0  0  0  0
 45 89  1  0  0  0  0
 46 47  2  0  0  0  0
 46 90  1  0  0  0  0
 47 48  1  0  0  0  0
 47 51  1  0  0  0  0
 48 49  2  0  0  0  0
 48 50  1  0  0  0  0
 49 91  1  0  0  0  0
 52 53  1  0  0  0  0
 52 57  1  0  0  0  0
 53 54  1  0  0  0  0
 53 92  1  0  0  0  0
 53 93  1  0  0  0  0
 54 55  1  0  0  0  0
 54 94  1  0  0  0  0
 54 95  1  0  0  0  0
 55 56  1  0  0  0  0
 55 58  1  0  0  0  0
 56 57  1  0  0  0  0
 56 96  1  0  0  0  0
 56 97  1  0  0  0  0
 57 98  1  0  0  0  0
 57 99  1  0  0  0  0
 58100  1  0  0  0  0
 58101  1  0  0  0  0
 58102  1  0  0  0  0
M  END
>  <DRUGBANK_ID>
DB06021

>  <COMMON_NAME>
AV-412

>  <CAS_NUMBER>
451493-31-5

>  <UNII>
Z541VW0W40

$$$$
