
 OpenBabel10282417072D

 17 16  0  0  0  0  0  0  0  0999 V2000
    0.1105   -2.0625    0.0000 C   0  0  0  0  0  0  0  0  0  0  0  0
    0.1105   -1.2375    0.0000 C   0  0  0  0  0  0  0  0  0  0  0  0
   -0.6039   -0.8250    0.0000 C   0  0  0  0  0  0  0  0  0  0  0  0
    0.8250   -0.8250    0.0000 O   0  0  0  0  0  0  0  0  0  0  0  0
    0.8250    0.0000    0.0000 P   0  0  0  0  0  0  0  0  0  0  0  0
    0.8250    0.8250    0.0000 O   0  0  0  0  0  0  0  0  0  0  0  0
    1.6500    0.0000    0.0000 O   0  0  0  0  0  0  0  0  0  0  0  0
    0.0000    0.0000    0.0000 O   0  0  0  0  0  0  0  0  0  0  0  0
   -0.8161   -2.5975    0.0000 H   0  0  0  0  0  0  0  0  0  0  0  0
    1.0371   -2.5975    0.0000 H   0  0  0  0  0  0  0  0  0  0  0  0
    0.1105   -3.1325    0.0000 H   0  0  0  0  0  0  0  0  0  0  0  0
    0.1105   -0.1675    0.0000 H   0  0  0  0  0  0  0  0  0  0  0  0
   -0.6039    0.2450    0.0000 H   0  0  0  0  0  0  0  0  0  0  0  0
   -1.5306   -1.3600    0.0000 H   0  0  0  0  0  0  0  0  0  0  0  0
   -1.5305   -0.2900    0.0000 H   0  0  0  0  0  0  0  0  0  0  0  0
    1.6650    1.3100    0.0000 H   0  0  0  0  0  0  0  0  0  0  0  0
    2.1350   -0.8400    0.0000 H   0  0  0  0  0  0  0  0  0  0  0  0
  1  2  1  0  0  0  0
  1  9  1  0  0  0  0
  1 10  1  0  0  0  0
  1 11  1  0  0  0  0
  2  3  1  0  0  0  0
  2  4  1  0  0  0  0
  2 12  1  0  0  0  0
  3 13  1  0  0  0  0
  3 14  1  0  0  0  0
  3 15  1  0  0  0  0
  4  5  1  0  0  0  0
  5  6  1  0  0  0  0
  5  7  1  0  0  0  0
  5  8  2  0  0  0  0
  6 16  1  0  0  0  0
  7 17  1  0  0  0  0
M  END
>  <DRUGBANK_ID>
DB03976

>  <SECONDARY_ACCESSION_NUMBERS>
EXPT01937; EXPT02177; DB04251

>  <COMMON_NAME>
Phosphorylisopropane

>  <UNII>
7H0HVR60ZW

$$$$
