
 OpenBabel10282417072D

 97 98  0  0  0  0  0  0  0  0999 V2000
    7.0539    0.1855    0.0000 C   0  0  0  0  0  0  0  0  0  0  0  0
    7.0566    1.0133    0.0000 C   0  0  0  0  0  0  0  0  0  0  0  0
    6.3469    1.4413    0.0000 C   0  0  0  0  0  0  0  0  0  0  0  0
    7.7692    1.4206    0.0000 C   0  0  0  0  0  0  0  0  0  0  0  0
    8.4831    1.0071    0.0000 C   0  0  0  0  0  0  0  0  0  0  0  0
    8.4844    0.1864    0.0000 C   0  0  0  0  0  0  0  0  0  0  0  0
    7.7677   -0.2278    0.0000 C   0  0  0  0  0  0  0  0  0  0  0  0
    7.0410   -0.6464    0.0000 C   0  0  0  0  0  0  0  0  0  0  0  0
    8.4803   -0.7258    0.0000 C   0  0  0  0  0  0  0  0  0  0  0  0
   -7.7404    0.7176    0.0000 C   0  0  0  0  0  0  0  0  0  0  0  0
   -7.0602    0.2110    0.0000 C   0  0  0  0  0  0  0  0  0  0  0  0
   -6.3769    0.7207    0.0000 C   0  0  0  0  0  0  0  0  0  0  0  0
   -7.7755   -0.2056    0.0000 C   0  0  0  0  0  0  0  0  0  0  0  0
   -7.7714   -1.0264    0.0000 C   0  0  2  0  0  0  0  0  0  0  0  0
   -8.4844   -1.4413    0.0000 O   0  0  0  0  0  0  0  0  0  0  0  0
   -7.0561   -1.4374    0.0000 C   0  0  0  0  0  0  0  0  0  0  0  0
   -6.3449   -1.0279    0.0000 C   0  0  0  0  0  0  0  0  0  0  0  0
   -5.6306   -1.4407    0.0000 C   0  0  0  0  0  0  0  0  0  0  0  0
   -6.3449   -0.1999    0.0000 C   0  0  0  0  0  0  0  0  0  0  0  0
   -5.6308    0.2131    0.0000 C   0  0  0  0  0  0  0  0  0  0  0  0
   -4.9135   -0.1999    0.0000 C   0  0  0  0  0  0  0  0  0  0  0  0
   -4.2036    0.2117    0.0000 C   0  0  0  0  0  0  0  0  0  0  0  0
   -4.2048    1.0367    0.0000 C   0  0  0  0  0  0  0  0  0  0  0  0
   -3.4862   -0.2013    0.0000 C   0  0  0  0  0  0  0  0  0  0  0  0
   -2.7763    0.2103    0.0000 C   0  0  0  0  0  0  0  0  0  0  0  0
   -2.0589   -0.2027    0.0000 C   0  0  0  0  0  0  0  0  0  0  0  0
   -1.3408    0.2089    0.0000 C   0  0  0  0  0  0  0  0  0  0  0  0
   -1.3380    1.0339    0.0000 C   0  0  0  0  0  0  0  0  0  0  0  0
   -0.6317   -0.2042    0.0000 C   0  0  0  0  0  0  0  0  0  0  0  0
    0.0864    0.2075    0.0000 C   0  0  0  0  0  0  0  0  0  0  0  0
    0.7954   -0.2056    0.0000 C   0  0  0  0  0  0  0  0  0  0  0  0
    1.5136    0.2061    0.0000 C   0  0  0  0  0  0  0  0  0  0  0  0
    2.2310   -0.2070    0.0000 C   0  0  0  0  0  0  0  0  0  0  0  0
    2.2323   -1.0320    0.0000 C   0  0  0  0  0  0  0  0  0  0  0  0
    2.9409    0.2047    0.0000 C   0  0  0  0  0  0  0  0  0  0  0  0
    3.6583   -0.2084    0.0000 C   0  0  0  0  0  0  0  0  0  0  0  0
    4.3682    0.2032    0.0000 C   0  0  0  0  0  0  0  0  0  0  0  0
    5.0855   -0.2098    0.0000 C   0  0  0  0  0  0  0  0  0  0  0  0
    5.0860   -0.7048    0.0000 C   0  0  0  0  0  0  0  0  0  0  0  0
    5.7997    0.2032    0.0000 C   0  0  0  0  0  0  0  0  0  0  0  0
    6.4218   -0.1844    0.0000 C   0  0  0  0  0  0  0  0  0  0  0  0
    6.3673    2.5111    0.0000 H   0  0  0  0  0  0  0  0  0  0  0  0
    5.4102    0.9241    0.0000 H   0  0  0  0  0  0  0  0  0  0  0  0
    5.4306    1.9939    0.0000 H   0  0  0  0  0  0  0  0  0  0  0  0
    7.7723    2.4906    0.0000 H   0  0  0  0  0  0  0  0  0  0  0  0
    8.6970    1.9536    0.0000 H   0  0  0  0  0  0  0  0  0  0  0  0
    9.4097    1.5422    0.0000 H   0  0  0  0  0  0  0  0  0  0  0  0
    9.4102    0.4729    0.0000 H   0  0  0  0  0  0  0  0  0  0  0  0
    9.4116   -0.3477    0.0000 H   0  0  0  0  0  0  0  0  0  0  0  0
    8.4852   -0.8836    0.0000 H   0  0  0  0  0  0  0  0  0  0  0  0
    6.1149   -0.1105    0.0000 H   0  0  0  0  0  0  0  0  0  0  0  0
    7.0399   -1.7164    0.0000 H   0  0  0  0  0  0  0  0  0  0  0  0
    6.1138   -1.1805    0.0000 H   0  0  0  0  0  0  0  0  0  0  0  0
    8.3880   -1.7918    0.0000 H   0  0  0  0  0  0  0  0  0  0  0  0
    9.4496   -0.2727    0.0000 H   0  0  0  0  0  0  0  0  0  0  0  0
    9.3574   -1.3387    0.0000 H   0  0  0  0  0  0  0  0  0  0  0  0
   -7.6160    1.7803    0.0000 H   0  0  0  0  0  0  0  0  0  0  0  0
   -8.7230    0.2940    0.0000 H   0  0  0  0  0  0  0  0  0  0  0  0
   -8.5985    1.3567    0.0000 H   0  0  0  0  0  0  0  0  0  0  0  0
   -5.3940    0.2978    0.0000 H   0  0  0  0  0  0  0  0  0  0  0  0
   -6.5021    1.7833    0.0000 H   0  0  0  0  0  0  0  0  0  0  0  0
   -5.5192    1.3605    0.0000 H   0  0  0  0  0  0  0  0  0  0  0  0
   -8.7045    0.3253    0.0000 H   0  0  0  0  0  0  0  0  0  0  0  0
   -8.6996   -0.7449    0.0000 H   0  0  0  0  0  0  0  0  0  0  0  0
   -8.7003   -0.4953    0.0000 H   0  0  0  0  0  0  0  0  0  0  0  0
   -9.3261   -0.9592    0.0000 H   0  0  0  0  0  0  0  0  0  0  0  0
   -7.0556   -2.5074    0.0000 H   0  0  0  0  0  0  0  0  0  0  0  0
   -6.1296   -1.9727    0.0000 H   0  0  0  0  0  0  0  0  0  0  0  0
   -5.6310   -2.5107    0.0000 H   0  0  0  0  0  0  0  0  0  0  0  0
   -4.7037   -0.9061    0.0000 H   0  0  0  0  0  0  0  0  0  0  0  0
   -4.7042   -1.9761    0.0000 H   0  0  0  0  0  0  0  0  0  0  0  0
   -5.6318    1.2451    0.0000 H   0  0  0  0  0  0  0  0  0  0  0  0
   -4.9119   -1.2319    0.0000 H   0  0  0  0  0  0  0  0  0  0  0  0
   -3.2789    1.5730    0.0000 H   0  0  0  0  0  0  0  0  0  0  0  0
   -5.1322    1.5704    0.0000 H   0  0  0  0  0  0  0  0  0  0  0  0
   -4.2064    2.1067    0.0000 H   0  0  0  0  0  0  0  0  0  0  0  0
   -3.4846   -1.2333    0.0000 H   0  0  0  0  0  0  0  0  0  0  0  0
   -2.7779    1.2423    0.0000 H   0  0  0  0  0  0  0  0  0  0  0  0
   -2.0599   -1.2347    0.0000 H   0  0  0  0  0  0  0  0  0  0  0  0
   -0.4095    1.5658    0.0000 H   0  0  0  0  0  0  0  0  0  0  0  0
   -2.2628    1.5720    0.0000 H   0  0  0  0  0  0  0  0  0  0  0  0
   -1.3344    2.1039    0.0000 H   0  0  0  0  0  0  0  0  0  0  0  0
   -0.6353   -1.2362    0.0000 H   0  0  0  0  0  0  0  0  0  0  0  0
    0.0900    1.2395    0.0000 H   0  0  0  0  0  0  0  0  0  0  0  0
    0.7918   -1.2376    0.0000 H   0  0  0  0  0  0  0  0  0  0  0  0
    1.5146    1.2381    0.0000 H   0  0  0  0  0  0  0  0  0  0  0  0
    1.3065   -1.5685    0.0000 H   0  0  0  0  0  0  0  0  0  0  0  0
    3.1598   -1.5655    0.0000 H   0  0  0  0  0  0  0  0  0  0  0  0
    2.2340   -2.1020    0.0000 H   0  0  0  0  0  0  0  0  0  0  0  0
    2.9393    1.2367    0.0000 H   0  0  0  0  0  0  0  0  0  0  0  0
    3.6598   -1.2404    0.0000 H   0  0  0  0  0  0  0  0  0  0  0  0
    4.3666    1.2352    0.0000 H   0  0  0  0  0  0  0  0  0  0  0  0
    4.1599   -1.2407    0.0000 H   0  0  0  0  0  0  0  0  0  0  0  0
    6.0132   -1.2389    0.0000 H   0  0  0  0  0  0  0  0  0  0  0  0
    5.0871   -1.7748    0.0000 H   0  0  0  0  0  0  0  0  0  0  0  0
    5.8167    1.2351    0.0000 H   0  0  0  0  0  0  0  0  0  0  0  0
    6.4075   -1.2163    0.0000 H   0  0  0  0  0  0  0  0  0  0  0  0
  1  2  2  0  0  0  0
  2  3  1  0  0  0  0
  2  4  1  0  0  0  0
  3 42  1  0  0  0  0
  3 43  1  0  0  0  0
  3 44  1  0  0  0  0
  4  5  1  0  0  0  0
  4 45  1  0  0  0  0
  4 46  1  0  0  0  0
  5  6  1  0  0  0  0
  5 47  1  0  0  0  0
  5 48  1  0  0  0  0
  6  7  1  0  0  0  0
  6 49  1  0  0  0  0
  6 50  1  0  0  0  0
  7  1  1  0  0  0  0
  7  8  1  0  0  0  0
  7  9  1  0  0  0  0
  8 51  1  0  0  0  0
  8 52  1  0  0  0  0
  8 53  1  0  0  0  0
  9 54  1  0  0  0  0
  9 55  1  0  0  0  0
  9 56  1  0  0  0  0
 10 11  1  0  0  0  0
 10 57  1  0  0  0  0
 10 58  1  0  0  0  0
 10 59  1  0  0  0  0
 11 12  1  0  0  0  0
 11 13  1  0  0  0  0
 12 60  1  0  0  0  0
 12 61  1  0  0  0  0
 12 62  1  0  0  0  0
 13 14  1  0  0  0  0
 13 63  1  0  0  0  0
 13 64  1  0  0  0  0
 14 15  1  0  0  0  0
 14 16  1  0  0  0  0
 14 65  1  6  0  0  0
 15 66  1  0  0  0  0
 16 17  1  0  0  0  0
 16 67  1  0  0  0  0
 16 68  1  0  0  0  0
 17 18  1  0  0  0  0
 17 19  2  0  0  0  0
 18 69  1  0  0  0  0
 18 70  1  0  0  0  0
 18 71  1  0  0  0  0
 19 11  1  0  0  0  0
 19 20  1  0  0  0  0
 20 21  2  0  0  0  0
 20 72  1  0  0  0  0
 21 22  1  0  0  0  0
 21 73  1  0  0  0  0
 22 23  1  0  0  0  0
 22 24  2  0  0  0  0
 23 74  1  0  0  0  0
 23 75  1  0  0  0  0
 23 76  1  0  0  0  0
 24 25  1  0  0  0  0
 24 77  1  0  0  0  0
 25 26  2  0  0  0  0
 25 78  1  0  0  0  0
 26 27  1  0  0  0  0
 26 79  1  0  0  0  0
 27 28  1  0  0  0  0
 27 29  2  0  0  0  0
 28 80  1  0  0  0  0
 28 81  1  0  0  0  0
 28 82  1  0  0  0  0
 29 30  1  0  0  0  0
 29 83  1  0  0  0  0
 30 31  2  0  0  0  0
 30 84  1  0  0  0  0
 31 32  1  0  0  0  0
 31 85  1  0  0  0  0
 32 33  2  0  0  0  0
 32 86  1  0  0  0  0
 33 34  1  0  0  0  0
 33 35  1  0  0  0  0
 34 87  1  0  0  0  0
 34 88  1  0  0  0  0
 34 89  1  0  0  0  0
 35 36  2  0  0  0  0
 35 90  1  0  0  0  0
 36 37  1  0  0  0  0
 36 91  1  0  0  0  0
 37 38  2  0  0  0  0
 37 92  1  0  0  0  0
 38 39  1  0  0  0  0
 38 40  1  0  0  0  0
 39 93  1  0  0  0  0
 39 94  1  0  0  0  0
 39 95  1  0  0  0  0
 40 41  2  0  0  0  0
 40 96  1  0  0  0  0
 41  1  1  0  0  0  0
 41 97  1  0  0  0  0
M  END
>  <DRUGBANK_ID>
DB15914

>  <COMMON_NAME>
Cryptoxanthin

>  <CAS_NUMBER>
472-70-8

>  <UNII>
6ZIB13GI33

>  <SYNONYMS>
beta-Cryptoxanthin; Cryptoxanthine; Cryptoxanthol; Kryptoxanthin; Neocryptoxanthin

$$$$
