382
 OpenBabel10282417072D

 55 59  0  0  0  0  0  0  0  0999 V2000
    2.2841   -3.5613    0.0000 C   0  0  0  0  0  0  0  0  0  0  0  0
    1.5697   -3.1488    0.0000 C   0  0  0  0  0  0  0  0  0  0  0  0
    1.5697   -2.3238    0.0000 N   0  0  0  0  0  0  0  0  0  0  0  0
    2.2841   -1.9113    0.0000 C   0  0  2  0  0  0  0  0  0  0  0  0
    2.9986   -2.3238    0.0000 C   0  0  0  0  0  0  0  0  0  0  0  0
    2.9986   -3.1488    0.0000 C   0  0  0  0  0  0  0  0  0  0  0  0
    2.2841   -1.0863    0.0000 C   0  0  0  0  0  0  0  0  0  0  0  0
    3.1091   -1.0863    0.0000 F   0  0  0  0  0  0  0  0  0  0  0  0
    1.4591   -1.0863    0.0000 F   0  0  0  0  0  0  0  0  0  0  0  0
    2.2841   -0.2613    0.0000 C   0  0  0  0  0  0  0  0  0  0  0  0
    1.5697    0.1512    0.0000 N   0  0  0  0  0  0  0  0  0  0  0  0
    1.5697    0.9762    0.0000 C   0  0  0  0  0  0  0  0  0  0  0  0
    0.8552    1.3887    0.0000 C   0  0  0  0  0  0  0  0  0  0  0  0
    0.8552    2.2137    0.0000 C   0  0  0  0  0  0  0  0  0  0  0  0
    1.5697    2.6262    0.0000 C   0  0  0  0  0  0  0  0  0  0  0  0
    2.2841    2.2137    0.0000 C   0  0  0  0  0  0  0  0  0  0  0  0
    2.2841    1.3887    0.0000 N   0  0  0  0  0  0  0  0  0  0  0  0
    0.0706    1.1338    0.0000 N   0  0  0  0  0  0  0  0  0  0  0  0
   -0.4143    1.8012    0.0000 C   0  0  0  0  0  0  0  0  0  0  0  0
    0.0706    2.4687    0.0000 O   0  0  0  0  0  0  0  0  0  0  0  0
   -1.2393    1.8012    0.0000 C   0  0  0  0  0  0  0  0  0  0  0  0
   -1.6518    1.0868    0.0000 C   0  0  0  0  0  0  0  0  0  0  0  0
   -1.2393    0.3723    0.0000 C   0  0  0  0  0  0  0  0  0  0  0  0
   -1.6518   -0.3422    0.0000 C   0  0  0  0  0  0  0  0  0  0  0  0
   -2.4768   -0.3422    0.0000 C   0  0  0  0  0  0  0  0  0  0  0  0
   -2.8893    0.3723    0.0000 C   0  0  0  0  0  0  0  0  0  0  0  0
   -2.4768    1.0868    0.0000 C   0  0  0  0  0  0  0  0  0  0  0  0
   -2.8893    1.8012    0.0000 N   0  0  0  0  0  0  0  0  0  0  0  0
   -3.7098    1.8875    0.0000 N   0  0  0  0  0  0  0  0  0  0  0  0
   -3.8814    2.6944    0.0000 C   0  0  0  0  0  0  0  0  0  0  0  0
   -3.1669    3.1069    0.0000 N   0  0  0  0  0  0  0  0  0  0  0  0
   -2.5538    2.5549    0.0000 C   0  0  0  0  0  0  0  0  0  0  0  0
    1.7784   -1.6193    0.0000 H   0  0  0  0  0  0  0  0  0  0  0  0
    2.2841   -4.6313    0.0000 H   0  0  0  0  0  0  0  0  0  0  0  0
    3.2107   -4.0963    0.0000 H   0  0  0  0  0  0  0  0  0  0  0  0
    0.6430   -3.6838    0.0000 H   0  0  0  0  0  0  0  0  0  0  0  0
    0.6431   -2.6138    0.0000 H   0  0  0  0  0  0  0  0  0  0  0  0
    0.6863   -1.8138    0.0000 H   0  0  0  0  0  0  0  0  0  0  0  0
    3.9252   -1.7888    0.0000 H   0  0  0  0  0  0  0  0  0  0  0  0
    3.9252   -2.8588    0.0000 H   0  0  0  0  0  0  0  0  0  0  0  0
    3.9252   -3.6838    0.0000 H   0  0  0  0  0  0  0  0  0  0  0  0
    3.9252   -2.6138    0.0000 H   0  0  0  0  0  0  0  0  0  0  0  0
    3.2108    0.2737    0.0000 H   0  0  0  0  0  0  0  0  0  0  0  0
    2.2841    0.8087    0.0000 H   0  0  0  0  0  0  0  0  0  0  0  0
    0.7171   -0.3410    0.0000 H   0  0  0  0  0  0  0  0  0  0  0  0
    1.5697    3.6582    0.0000 H   0  0  0  0  0  0  0  0  0  0  0  0
    3.1778    2.7297    0.0000 H   0  0  0  0  0  0  0  0  0  0  0  0
   -1.7743    2.7279    0.0000 H   0  0  0  0  0  0  0  0  0  0  0  0
   -2.3093    1.8012    0.0000 H   0  0  0  0  0  0  0  0  0  0  0  0
   -0.2073    0.3723    0.0000 H   0  0  0  0  0  0  0  0  0  0  0  0
   -1.1358   -1.2359    0.0000 H   0  0  0  0  0  0  0  0  0  0  0  0
   -2.9928   -1.2359    0.0000 H   0  0  0  0  0  0  0  0  0  0  0  0
   -3.9213    0.3723    0.0000 H   0  0  0  0  0  0  0  0  0  0  0  0
   -4.8242    3.1141    0.0000 H   0  0  0  0  0  0  0  0  0  0  0  0
   -1.5444    2.7695    0.0000 H   0  0  0  0  0  0  0  0  0  0  0  0
  1  2  1  0  0  0  0
  1  6  1  0  0  0  0
  1 34  1  0  0  0  0
  1 35  1  0  0  0  0
  2  3  1  0  0  0  0
  2 36  1  0  0  0  0
  2 37  1  0  0  0  0
  3  4  1  0  0  0  0
  3 38  1  0  0  0  0
  4  5  1  0  0  0  0
  4  7  1  0  0  0  0
  4 33  1  6  0  0  0
  5  6  1  0  0  0  0
  5 39  1  0  0  0  0
  5 40  1  0  0  0  0
  6 41  1  0  0  0  0
  6 42  1  0  0  0  0
  7  8  1  0  0  0  0
  7  9  1  0  0  0  0
  7 10  1  0  0  0  0
 10 11  1  0  0  0  0
 10 43  1  0  0  0  0
 10 44  1  0  0  0  0
 11 12  1  0  0  0  0
 11 45  1  0  0  0  0
 12 13  1  0  0  0  0
 12 17  2  0  0  0  0
 13 14  2  0  0  0  0
 13 18  1  0  0  0  0
 14 15  1  0  0  0  0
 14 20  1  0  0  0  0
 15 16  2  0  0  0  0
 15 46  1  0  0  0  0
 16 17  1  0  0  0  0
 16 47  1  0  0  0  0
 18 19  2  0  0  0  0
 19 20  1  0  0  0  0
 19 21  1  0  0  0  0
 21 22  1  0  0  0  0
 21 48  1  0  0  0  0
 21 49  1  0  0  0  0
 22 23  2  0  0  0  0
 22 27  1  0  0  0  0
 23 24  1  0  0  0  0
 23 50  1  0  0  0  0
 24 25  2  0  0  0  0
 24 51  1  0  0  0  0
 25 26  1  0  0  0  0
 25 52  1  0  0  0  0
 26 27  2  0  0  0  0
 26 53  1  0  0  0  0
 27 28  1  0  0  0  0
 28 29  1  0  0  0  0
 28 32  1  0  0  0  0
 29 30  2  0  0  0  0
 30 31  1  0  0  0  0
 30 54  1  0  0  0  0
 31 32  2  0  0  0  0
 32 55  1  0  0  0  0
M  END
>  <DRUGBANK_ID>
DB04591

>  <COMMON_NAME>
N-{2,2-DIFLUORO-2-[(2R)-PIPERIDIN-2-YL]ETHYL}-2-[2-(1H-1,2,4-TRIAZOL-1-YL)BENZYL][1,3]OXAZOLO[4,5-C]PYRIDIN-4-AMINE

$$$$
