
 OpenBabel10282417072D

 76 80  0  0  1  0  0  0  0  0999 V2000
    0.8826   -2.6842    0.0000 C   0  0  0  0  0  0  0  0  0  0  0  0
    0.0943   -2.9273    0.0000 C   0  0  0  0  0  0  0  0  0  0  0  0
   -0.0893   -3.7316    0.0000 C   0  0  0  0  0  0  0  0  0  0  0  0
   -0.5105   -2.3662    0.0000 N   0  0  0  0  0  0  0  0  0  0  0  0
   -1.2988   -2.6094    0.0000 C   0  0  0  0  0  0  0  0  0  0  0  0
   -1.4824   -3.4137    0.0000 C   0  0  0  0  0  0  0  0  0  0  0  0
   -2.2708   -3.6568    0.0000 C   0  0  0  0  0  0  0  0  0  0  0  0
   -2.8755   -3.0957    0.0000 C   0  0  0  0  0  0  0  0  0  0  0  0
   -2.6920   -2.2914    0.0000 C   0  0  0  0  0  0  0  0  0  0  0  0
   -1.9036   -2.0482    0.0000 C   0  0  0  0  0  0  0  0  0  0  0  0
   -0.3269   -1.5619    0.0000 C   0  0  0  0  0  0  0  0  0  0  0  0
   -0.9317   -1.0007    0.0000 O   0  0  0  0  0  0  0  0  0  0  0  0
    0.4614   -1.3187    0.0000 C   0  0  0  0  0  0  0  0  0  0  0  0
    0.6450   -0.5144    0.0000 N   0  0  0  0  0  0  0  0  0  0  0  0
    0.0000    0.0000    0.0000 C   0  0  0  0  0  0  0  0  0  0  0  0
   -0.7145   -0.4125    0.0000 C   0  0  0  0  0  0  0  0  0  0  0  0
   -1.4289    0.0000    0.0000 C   0  0  0  0  0  0  0  0  0  0  0  0
   -1.4289    0.8250    0.0000 C   0  0  0  0  0  0  0  0  0  0  0  0
   -0.7145    1.2375    0.0000 C   0  0  0  0  0  0  0  0  0  0  0  0
   -0.0000    0.8250    0.0000 C   0  0  0  0  0  0  0  0  0  0  0  0
    0.6450    1.3394    0.0000 N   0  0  0  0  0  0  0  0  0  0  0  0
    1.4493    1.1558    0.0000 C   0  0  0  0  0  0  0  0  0  0  0  0
    1.9637    1.8008    0.0000 O   0  0  0  0  0  0  0  0  0  0  0  0
    1.8073    0.4125    0.0000 C   0  0  2  0  0  0  0  0  0  0  0  0
    1.4493   -0.3308    0.0000 C   0  0  0  0  0  0  0  0  0  0  0  0
    1.9637   -0.9758    0.0000 O   0  0  0  0  0  0  0  0  0  0  0  0
    2.6323    0.4125    0.0000 N   0  0  0  0  0  0  0  0  0  0  0  0
    3.0448    1.1270    0.0000 C   0  0  0  0  0  0  0  0  0  0  0  0
    2.6323    1.8414    0.0000 O   0  0  0  0  0  0  0  0  0  0  0  0
    3.8698    1.1270    0.0000 N   0  0  0  0  0  0  0  0  0  0  0  0
    4.2823    1.8414    0.0000 C   0  0  0  0  0  0  0  0  0  0  0  0
    3.8698    2.5559    0.0000 C   0  0  0  0  0  0  0  0  0  0  0  0
    4.2823    3.2704    0.0000 C   0  0  0  0  0  0  0  0  0  0  0  0
    5.1073    3.2704    0.0000 C   0  0  0  0  0  0  0  0  0  0  0  0
    5.5198    2.5559    0.0000 C   0  0  0  0  0  0  0  0  0  0  0  0
    5.1073    1.8414    0.0000 C   0  0  0  0  0  0  0  0  0  0  0  0
    6.3448    2.5559    0.0000 C   0  0  0  0  0  0  0  0  0  0  0  0
    6.7573    3.2704    0.0000 O   0  0  0  0  0  0  0  0  0  0  0  0
    6.7573    1.8414    0.0000 O   0  0  0  0  0  0  0  0  0  0  0  0
    0.4614    2.1437    0.0000 C   0  0  0  0  0  0  0  0  0  0  0  0
   -0.3269    2.3869    0.0000 C   0  0  0  0  0  0  0  0  0  0  0  0
   -0.5105    3.1912    0.0000 C   0  0  0  0  0  0  0  0  0  0  0  0
    0.0943    3.7523    0.0000 C   0  0  0  0  0  0  0  0  0  0  0  0
    0.8826    3.5092    0.0000 C   0  0  0  0  0  0  0  0  0  0  0  0
    1.0662    2.7048    0.0000 C   0  0  0  0  0  0  0  0  0  0  0  0
    1.6669   -3.4120    0.0000 H   0  0  0  0  0  0  0  0  0  0  0  0
    1.1208   -1.6410    0.0000 H   0  0  0  0  0  0  0  0  0  0  0  0
    1.9051   -2.3689    0.0000 H   0  0  0  0  0  0  0  0  0  0  0  0
   -0.9282   -3.2427    0.0000 H   0  0  0  0  0  0  0  0  0  0  0  0
   -1.1118   -4.0470    0.0000 H   0  0  0  0  0  0  0  0  0  0  0  0
    0.6950   -4.4594    0.0000 H   0  0  0  0  0  0  0  0  0  0  0  0
   -0.3274   -4.7748    0.0000 H   0  0  0  0  0  0  0  0  0  0  0  0
   -0.7259   -4.1157    0.0000 H   0  0  0  0  0  0  0  0  0  0  0  0
   -2.5005   -4.6629    0.0000 H   0  0  0  0  0  0  0  0  0  0  0  0
   -3.8616   -3.3999    0.0000 H   0  0  0  0  0  0  0  0  0  0  0  0
   -3.4485   -1.5895    0.0000 H   0  0  0  0  0  0  0  0  0  0  0  0
   -1.6740   -1.0421    0.0000 H   0  0  0  0  0  0  0  0  0  0  0  0
    1.2458   -2.0465    0.0000 H   0  0  0  0  0  0  0  0  0  0  0  0
    1.4839   -1.0033    0.0000 H   0  0  0  0  0  0  0  0  0  0  0  0
   -0.7145   -1.4445    0.0000 H   0  0  0  0  0  0  0  0  0  0  0  0
   -2.3226   -0.5160    0.0000 H   0  0  0  0  0  0  0  0  0  0  0  0
   -2.3226    1.3410    0.0000 H   0  0  0  0  0  0  0  0  0  0  0  0
   -0.7145    2.2695    0.0000 H   0  0  0  0  0  0  0  0  0  0  0  0
    2.3766    1.3185    0.0000 H   0  0  0  0  0  0  0  0  0  0  0  0
    3.1246   -0.4401    0.0000 H   0  0  0  0  0  0  0  0  0  0  0  0
    4.3620    0.2744    0.0000 H   0  0  0  0  0  0  0  0  0  0  0  0
    2.8378    2.5559    0.0000 H   0  0  0  0  0  0  0  0  0  0  0  0
    3.7663    4.1641    0.0000 H   0  0  0  0  0  0  0  0  0  0  0  0
    5.6233    4.1641    0.0000 H   0  0  0  0  0  0  0  0  0  0  0  0
    5.6233    0.9477    0.0000 H   0  0  0  0  0  0  0  0  0  0  0  0
    6.2888    1.0299    0.0000 H   0  0  0  0  0  0  0  0  0  0  0  0
   -1.0834    1.6850    0.0000 H   0  0  0  0  0  0  0  0  0  0  0  0
   -1.4966    3.4954    0.0000 H   0  0  0  0  0  0  0  0  0  0  0  0
   -0.1353    4.7584    0.0000 H   0  0  0  0  0  0  0  0  0  0  0  0
    1.6391    4.2112    0.0000 H   0  0  0  0  0  0  0  0  0  0  0  0
    2.0523    2.4006    0.0000 H   0  0  0  0  0  0  0  0  0  0  0  0
  1  2  1  0  0  0  0
  1 46  1  0  0  0  0
  1 47  1  0  0  0  0
  1 48  1  0  0  0  0
  2  3  1  0  0  0  0
  2  4  1  0  0  0  0
  2 49  1  0  0  0  0
  3 50  1  0  0  0  0
  3 51  1  0  0  0  0
  3 52  1  0  0  0  0
  4  5  1  0  0  0  0
  4 11  1  0  0  0  0
  5  6  2  0  0  0  0
  5 10  1  0  0  0  0
  6  7  1  0  0  0  0
  6 53  1  0  0  0  0
  7  8  2  0  0  0  0
  7 54  1  0  0  0  0
  8  9  1  0  0  0  0
  8 55  1  0  0  0  0
  9 10  2  0  0  0  0
  9 56  1  0  0  0  0
 10 57  1  0  0  0  0
 11 12  2  0  0  0  0
 11 13  1  0  0  0  0
 13 14  1  0  0  0  0
 13 58  1  0  0  0  0
 13 59  1  0  0  0  0
 14 15  1  0  0  0  0
 14 25  1  0  0  0  0
 15 16  2  0  0  0  0
 15 20  1  0  0  0  0
 16 17  1  0  0  0  0
 16 60  1  0  0  0  0
 17 18  2  0  0  0  0
 17 61  1  0  0  0  0
 18 19  1  0  0  0  0
 18 62  1  0  0  0  0
 19 20  2  0  0  0  0
 19 63  1  0  0  0  0
 20 21  1  0  0  0  0
 21 22  1  0  0  0  0
 21 40  1  0  0  0  0
 22 23  2  0  0  0  0
 22 24  1  0  0  0  0
 24 25  1  0  0  0  0
 24 27  1  0  0  0  0
 24 64  1  6  0  0  0
 25 26  2  0  0  0  0
 27 28  1  0  0  0  0
 27 65  1  0  0  0  0
 28 29  2  0  0  0  0
 28 30  1  0  0  0  0
 30 31  1  0  0  0  0
 30 66  1  0  0  0  0
 31 32  2  0  0  0  0
 31 36  1  0  0  0  0
 32 33  1  0  0  0  0
 32 67  1  0  0  0  0
 33 34  2  0  0  0  0
 33 68  1  0  0  0  0
 34 35  1  0  0  0  0
 34 69  1  0  0  0  0
 35 36  2  0  0  0  0
 35 37  1  0  0  0  0
 36 70  1  0  0  0  0
 37 38  2  0  0  0  0
 37 39  1  0  0  0  0
 39 71  1  0  0  0  0
 40 41  2  0  0  0  0
 40 45  1  0  0  0  0
 41 42  1  0  0  0  0
 41 72  1  0  0  0  0
 42 43  2  0  0  0  0
 42 73  1  0  0  0  0
 43 44  1  0  0  0  0
 43 74  1  0  0  0  0
 44 45  2  0  0  0  0
 44 75  1  0  0  0  0
 45 76  1  0  0  0  0
M  END
>  <DRUGBANK_ID>
DB12309

>  <COMMON_NAME>
GI-181771X

>  <CAS_NUMBER>
305366-98-7

>  <UNII>
6YF0SHR37T

$$$$
