
 OpenBabel10282417072D

 10  7  0  0  0  0  0  0  0  0999 V2000
    2.0531    0.0066    0.0000 Al  0  3  0  0  0  0  0  0  0  0  0  0
    2.4656    0.7211    0.0000 O   0  0  0  0  0  0  0  0  0  0  0  0
    2.4656   -0.7079    0.0000 O   0  0  0  0  0  0  0  0  0  0  0  0
   -2.4656   -0.2728    0.0000 Na  0  3  0  0  0  0  0  0  0  0  0  0
    0.0535   -0.0065    0.0000 C   0  0  0  0  0  0  0  0  0  0  0  0
    0.4661    0.7079    0.0000 O   0  5  0  0  0  0  0  0  0  0  0  0
    0.4661   -0.7211    0.0000 O   0  0  0  0  0  0  0  0  0  0  0  0
   -0.7714   -0.0065    0.0000 O   0  5  0  0  0  0  0  0  0  0  0  0
    3.4356    0.7211    0.0000 H   0  0  0  0  0  0  0  0  0  0  0  0
    1.9806   -1.5479    0.0000 H   0  0  0  0  0  0  0  0  0  0  0  0
  1  2  1  0  0  0  0
  1  3  1  0  0  0  0
  2  9  1  0  0  0  0
  3 10  1  0  0  0  0
  5  6  1  0  0  0  0
  5  7  2  0  0  0  0
  5  8  1  0  0  0  0
M  CHG  4   1   1   4   1   6  -1   8  -1
M  END
>  <DRUGBANK_ID>
DB15825

>  <COMMON_NAME>
Dihydroxyaluminum sodium carbonate

>  <CAS_NUMBER>
16482-55-6

>  <UNII>
84H8Z9550J

>  <SYNONYMS>
Aluminium-natrium-carbonat-dihydroxid; Aluminum sodium dihydroxide monocarbonate; Dihydroxo-aluminium-natrium-carbonat; Dihydroxyaluminum sodium carbonate

$$$$
