
 OpenBabel10282417072D

106112  0  0  1  0  0  0  0  0999 V2000
    1.6771    1.0678    0.0000 C   0  0  0  0  0  0  0  0  0  0  0  0
   -5.0013    7.0125    0.0000 C   0  0  0  0  0  0  0  0  0  0  0  0
   -0.7145    4.5375    0.0000 C   0  0  0  0  0  0  0  0  0  0  0  0
   -2.1434    3.7125    0.0000 C   0  0  0  0  0  0  0  0  0  0  0  0
    0.0000    7.4250    0.0000 C   0  0  0  0  0  0  0  0  0  0  0  0
    1.4289    7.4250    0.0000 C   0  0  0  0  0  0  0  0  0  0  0  0
    1.1468    1.6998    0.0000 C   0  0  0  0  0  0  0  0  0  0  0  0
    7.1447    2.4750    0.0000 C   0  0  0  0  0  0  0  0  0  0  0  0
    6.4302    2.0625    0.0000 C   0  0  0  0  0  0  0  0  0  0  0  0
    7.1447    3.3000    0.0000 C   0  0  0  0  0  0  0  0  0  0  0  0
   -5.7158    4.9500    0.0000 C   0  0  0  0  0  0  0  0  0  0  0  0
   -5.0013    4.5375    0.0000 C   0  0  0  0  0  0  0  0  0  0  0  0
    3.5724    2.0625    0.0000 C   0  0  0  0  0  0  0  0  0  0  0  0
    1.4289    5.7750    0.0000 C   0  0  0  0  0  0  0  0  0  0  0  0
   -2.1434    6.1875    0.0000 C   0  0  0  0  0  0  0  0  0  0  0  0
    1.4289    3.3000    0.0000 C   0  0  0  0  0  0  0  0  0  0  0  0
   -5.0013    6.1875    0.0000 C   0  0  2  0  0  0  0  0  0  0  0  0
    0.0000    4.9500    0.0000 C   0  0  1  0  0  0  0  0  0  0  0  0
   -2.1434    4.5375    0.0000 C   0  0  1  0  0  0  0  0  0  0  0  0
    5.7158    2.4750    0.0000 C   0  0  0  0  0  0  0  0  0  0  0  0
    4.2868    2.4750    0.0000 C   0  0  0  0  0  0  0  0  0  0  0  0
    2.8579    2.4750    0.0000 C   0  0  0  0  0  0  0  0  0  0  0  0
    0.7145    6.1875    0.0000 C   0  0  1  0  0  0  0  0  0  0  0  0
   -5.7158    5.7750    0.0000 C   0  0  0  0  0  0  0  0  0  0  0  0
    6.4302    3.7125    0.0000 C   0  0  0  0  0  0  0  0  0  0  0  0
   -2.8579    5.7750    0.0000 C   0  0  1  0  0  0  0  0  0  0  0  0
    2.1434    3.7125    0.0000 C   0  0  1  0  0  0  0  0  0  0  0  0
   -4.2868    4.9500    0.0000 C   0  0  1  0  0  0  0  0  0  0  0  0
    1.4289    4.9500    0.0000 C   0  0  1  0  0  0  0  0  0  0  0  0
   -1.4289    5.7750    0.0000 C   0  0  1  0  0  0  0  0  0  0  0  0
    5.7158    3.3000    0.0000 C   0  0  0  0  0  0  0  0  0  0  0  0
    2.8579    3.3000    0.0000 C   0  0  0  0  0  0  0  0  0  0  0  0
    4.2868    3.3000    0.0000 C   0  0  0  0  0  0  0  0  0  0  0  0
    5.0013    2.0625    0.0000 C   0  0  0  0  0  0  0  0  0  0  0  0
    5.0013    3.7125    0.0000 C   0  0  0  0  0  0  0  0  0  0  0  0
    3.5724    3.7125    0.0000 C   0  0  0  0  0  0  0  0  0  0  0  0
    0.0000    5.7750    0.0000 C   0  0  2  0  0  0  0  0  0  0  0  0
   -2.8579    4.9500    0.0000 C   0  0  1  0  0  0  0  0  0  0  0  0
    2.1434    2.0625    0.0000 C   0  0  2  0  0  0  0  0  0  0  0  0
    1.4289    2.4750    0.0000 C   0  0  1  0  0  0  0  0  0  0  0  0
    0.7145    7.0125    0.0000 N   0  0  0  0  0  0  0  0  0  0  0  0
   -6.4302    6.1875    0.0000 O   0  0  0  0  0  0  0  0  0  0  0  0
    6.4302    4.5375    0.0000 O   0  0  0  0  0  0  0  0  0  0  0  0
   -3.5724    6.1875    0.0000 O   0  0  0  0  0  0  0  0  0  0  0  0
    5.0013    1.2375    0.0000 O   0  0  0  0  0  0  0  0  0  0  0  0
    5.0013    4.5375    0.0000 O   0  0  0  0  0  0  0  0  0  0  0  0
    3.5724    4.5375    0.0000 O   0  0  0  0  0  0  0  0  0  0  0  0
    2.1434    1.2375    0.0000 O   0  0  0  0  0  0  0  0  0  0  0  0
    0.6165    2.6183    0.0000 O   0  0  0  0  0  0  0  0  0  0  0  0
   -4.2868    5.7750    0.0000 O   0  0  0  0  0  0  0  0  0  0  0  0
    0.7145    4.5375    0.0000 O   0  0  0  0  0  0  0  0  0  0  0  0
   -1.4289    4.9500    0.0000 O   0  0  0  0  0  0  0  0  0  0  0  0
    2.1434    4.5375    0.0000 O   0  0  0  0  0  0  0  0  0  0  0  0
   -3.5724    4.5375    0.0000 O   0  0  0  0  0  0  0  0  0  0  0  0
   -0.7145    6.1875    0.0000 O   0  0  0  0  0  0  0  0  0  0  0  0
   -5.7158    6.6000    0.0000 H   0  0  0  0  0  0  0  0  0  0  0  0
   -0.8125    5.0933    0.0000 H   0  0  0  0  0  0  0  0  0  0  0  0
   -2.6737    3.9055    0.0000 H   0  0  0  0  0  0  0  0  0  0  0  0
    1.4289    6.6000    0.0000 H   0  0  0  0  0  0  0  0  0  0  0  0
   -2.8579    6.6000    0.0000 H   0  0  0  0  0  0  0  0  0  0  0  0
    1.4289    4.1250    0.0000 H   0  0  0  0  0  0  0  0  0  0  0  0
   -4.2868    4.1250    0.0000 H   0  0  0  0  0  0  0  0  0  0  0  0
    2.1434    5.3625    0.0000 H   0  0  0  0  0  0  0  0  0  0  0  0
   -1.4289    6.6000    0.0000 H   0  0  0  0  0  0  0  0  0  0  0  0
   -0.8125    5.6317    0.0000 H   0  0  0  0  0  0  0  0  0  0  0  0
   -3.1401    4.1748    0.0000 H   0  0  0  0  0  0  0  0  0  0  0  0
    2.8579    1.6500    0.0000 H   0  0  0  0  0  0  0  0  0  0  0  0
    1.3111    0.0623    0.0000 H   0  0  0  0  0  0  0  0  0  0  0  0
    2.7308    1.2536    0.0000 H   0  0  0  0  0  0  0  0  0  0  0  0
    2.3649    0.2481    0.0000 H   0  0  0  0  0  0  0  0  0  0  0  0
   -4.0747    7.5475    0.0000 H   0  0  0  0  0  0  0  0  0  0  0  0
   -5.9279    7.5475    0.0000 H   0  0  0  0  0  0  0  0  0  0  0  0
   -5.0013    8.0825    0.0000 H   0  0  0  0  0  0  0  0  0  0  0  0
   -1.6411    5.0725    0.0000 H   0  0  0  0  0  0  0  0  0  0  0  0
   -0.7145    3.4675    0.0000 H   0  0  0  0  0  0  0  0  0  0  0  0
   -1.6412    4.0025    0.0000 H   0  0  0  0  0  0  0  0  0  0  0  0
   -3.0700    3.1775    0.0000 H   0  0  0  0  0  0  0  0  0  0  0  0
   -1.2168    3.1775    0.0000 H   0  0  0  0  0  0  0  0  0  0  0  0
   -2.1434    2.6425    0.0000 H   0  0  0  0  0  0  0  0  0  0  0  0
   -0.0000    8.4950    0.0000 H   0  0  0  0  0  0  0  0  0  0  0  0
   -0.9266    6.8900    0.0000 H   0  0  0  0  0  0  0  0  0  0  0  0
   -0.9267    7.9600    0.0000 H   0  0  0  0  0  0  0  0  0  0  0  0
    2.3556    6.8900    0.0000 H   0  0  0  0  0  0  0  0  0  0  0  0
    1.4289    8.4950    0.0000 H   0  0  0  0  0  0  0  0  0  0  0  0
    2.3555    7.9600    0.0000 H   0  0  0  0  0  0  0  0  0  0  0  0
    0.0931    1.5140    0.0000 H   0  0  0  0  0  0  0  0  0  0  0  0
    0.4590    2.5194    0.0000 H   0  0  0  0  0  0  0  0  0  0  0  0
    8.0384    1.9590    0.0000 H   0  0  0  0  0  0  0  0  0  0  0  0
    6.4302    1.0305    0.0000 H   0  0  0  0  0  0  0  0  0  0  0  0
    8.0384    3.8160    0.0000 H   0  0  0  0  0  0  0  0  0  0  0  0
   -6.6424    4.4150    0.0000 H   0  0  0  0  0  0  0  0  0  0  0  0
   -6.6424    5.4850    0.0000 H   0  0  0  0  0  0  0  0  0  0  0  0
   -5.0013    3.4675    0.0000 H   0  0  0  0  0  0  0  0  0  0  0  0
   -4.0747    4.0025    0.0000 H   0  0  0  0  0  0  0  0  0  0  0  0
    3.5724    1.0305    0.0000 H   0  0  0  0  0  0  0  0  0  0  0  0
    2.3556    6.3100    0.0000 H   0  0  0  0  0  0  0  0  0  0  0  0
    2.3555    5.2400    0.0000 H   0  0  0  0  0  0  0  0  0  0  0  0
   -2.1434    7.2575    0.0000 H   0  0  0  0  0  0  0  0  0  0  0  0
   -1.2168    6.7225    0.0000 H   0  0  0  0  0  0  0  0  0  0  0  0
    0.5023    3.8350    0.0000 H   0  0  0  0  0  0  0  0  0  0  0  0
    0.5023    2.7650    0.0000 H   0  0  0  0  0  0  0  0  0  0  0  0
    7.2417    5.0060    0.0000 H   0  0  0  0  0  0  0  0  0  0  0  0
   -3.5724    7.1575    0.0000 H   0  0  0  0  0  0  0  0  0  0  0  0
    4.3839    5.0060    0.0000 H   0  0  0  0  0  0  0  0  0  0  0  0
    1.3034    0.7525    0.0000 H   0  0  0  0  0  0  0  0  0  0  0  0
    0.2848    3.5298    0.0000 H   0  0  0  0  0  0  0  0  0  0  0  0
  1 68  1  0  0  0  0
  1 69  1  0  0  0  0
  1 70  1  0  0  0  0
  2 71  1  0  0  0  0
  2 72  1  0  0  0  0
  2 73  1  0  0  0  0
  3 74  1  0  0  0  0
  3 75  1  0  0  0  0
  3 76  1  0  0  0  0
  4 77  1  0  0  0  0
  4 78  1  0  0  0  0
  4 79  1  0  0  0  0
  5 80  1  0  0  0  0
  5 81  1  0  0  0  0
  5 82  1  0  0  0  0
  6 83  1  0  0  0  0
  6 84  1  0  0  0  0
  6 85  1  0  0  0  0
  7  1  1  0  0  0  0
  7 86  1  0  0  0  0
  7 87  1  0  0  0  0
  8 88  1  0  0  0  0
  9  8  2  0  0  0  0
  9 89  1  0  0  0  0
 10  8  1  0  0  0  0
 10 90  1  0  0  0  0
 11 91  1  0  0  0  0
 11 92  1  0  0  0  0
 12 11  1  0  0  0  0
 12 93  1  0  0  0  0
 12 94  1  0  0  0  0
 13 95  1  0  0  0  0
 14 96  1  0  0  0  0
 14 97  1  0  0  0  0
 15 98  1  0  0  0  0
 15 99  1  0  0  0  0
 16100  1  0  0  0  0
 16101  1  0  0  0  0
 17  2  1  0  0  0  0
 17 56  1  6  0  0  0
 18  3  1  0  0  0  0
 18 57  1  6  0  0  0
 19  4  1  0  0  0  0
 19 58  1  6  0  0  0
 20  9  1  0  0  0  0
 21 13  2  0  0  0  0
 22 13  1  0  0  0  0
 23 14  1  0  0  0  0
 23 41  1  0  0  0  0
 23 59  1  6  0  0  0
 24 11  1  0  0  0  0
 24 17  1  0  0  0  0
 25 10  2  0  0  0  0
 26 15  1  0  0  0  0
 26 44  1  0  0  0  0
 26 60  1  6  0  0  0
 27 16  1  0  0  0  0
 27 53  1  0  0  0  0
 27 61  1  1  0  0  0
 28 12  1  0  0  0  0
 28 54  1  0  0  0  0
 28 62  1  6  0  0  0
 29 14  1  0  0  0  0
 29 53  1  0  0  0  0
 29 63  1  1  0  0  0
 30 15  1  0  0  0  0
 30 55  1  0  0  0  0
 30 64  1  1  0  0  0
 31 20  2  0  0  0  0
 31 25  1  0  0  0  0
 32 22  2  0  0  0  0
 32 27  1  0  0  0  0
 33 21  1  0  0  0  0
 34 20  1  0  0  0  0
 34 21  1  0  0  0  0
 35 31  1  0  0  0  0
 35 33  1  0  0  0  0
 36 32  1  0  0  0  0
 36 33  2  0  0  0  0
 37 18  1  0  0  0  0
 37 23  1  0  0  0  0
 37 55  1  0  0  0  0
 37 65  1  6  0  0  0
 38 19  1  0  0  0  0
 38 26  1  0  0  0  0
 38 54  1  0  0  0  0
 38 66  1  1  0  0  0
 39 22  1  0  0  0  0
 39 48  1  0  0  0  0
 39 67  1  6  0  0  0
 40  7  1  0  0  0  0
 40 16  1  0  0  0  0
 40 39  1  0  0  0  0
 40 49  1  6  0  0  0
 41  5  1  0  0  0  0
 41  6  1  0  0  0  0
 42 24  2  0  0  0  0
 43 25  1  0  0  0  0
 43102  1  0  0  0  0
 44103  1  0  0  0  0
 45 34  2  0  0  0  0
 46 35  2  0  0  0  0
 47 36  1  0  0  0  0
 47104  1  0  0  0  0
 48105  1  0  0  0  0
 49106  1  0  0  0  0
 50 17  1  0  0  0  0
 50 28  1  0  0  0  0
 51 18  1  0  0  0  0
 51 29  1  0  0  0  0
 52 19  1  0  0  0  0
 52 30  1  0  0  0  0
M  END
>  <DRUGBANK_ID>
DB03219

>  <SECONDARY_ACCESSION_NUMBERS>
EXPT01268

>  <COMMON_NAME>
11-Deoxy-Beta-Rhodomycin

$$$$
