
 OpenBabel10282417072D

 72 74  0  0  0  0  0  0  0  0999 V2000
    2.4455    1.0313    0.0000 C   0  0  0  0  0  0  0  0  0  0  0  0
    3.1602    1.4438    0.0000 C   0  0  0  0  0  0  0  0  0  0  0  0
    3.1602    2.2688    0.0000 C   0  0  0  0  0  0  0  0  0  0  0  0
    3.8746    2.6813    0.0000 C   0  0  0  0  0  0  0  0  0  0  0  0
    3.8746    3.5065    0.0000 O   0  0  0  0  0  0  0  0  0  0  0  0
    4.5892    2.2688    0.0000 O   0  0  0  0  0  0  0  0  0  0  0  0
    1.7310    1.4438    0.0000 O   0  0  0  0  0  0  0  0  0  0  0  0
    2.4455    0.2061    0.0000 O   0  0  0  0  0  0  0  0  0  0  0  0
    1.7310   -0.2062    0.0000 C   0  0  0  0  0  0  0  0  0  0  0  0
    1.7310   -1.0314    0.0000 C   0  0  0  0  0  0  0  0  0  0  0  0
    1.0165   -1.4439    0.0000 C   0  0  0  0  0  0  0  0  0  0  0  0
    0.3019   -1.0314    0.0000 C   0  0  0  0  0  0  0  0  0  0  0  0
    0.3019   -0.2062    0.0000 C   0  0  0  0  0  0  0  0  0  0  0  0
    1.0165    0.2061    0.0000 C   0  0  0  0  0  0  0  0  0  0  0  0
   -0.4125    0.2061    0.0000 C   0  0  0  0  0  0  0  0  0  0  0  0
   -1.1271   -0.2062    0.0000 C   0  0  0  0  0  0  0  0  0  0  0  0
   -1.8416    0.2061    0.0000 C   0  0  0  0  0  0  0  0  0  0  0  0
   -2.5561   -0.2062    0.0000 C   0  0  0  0  0  0  0  0  0  0  0  0
   -3.2707    0.2061    0.0000 C   0  0  0  0  0  0  0  0  0  0  0  0
   -3.9853   -0.2062    0.0000 C   0  0  0  0  0  0  0  0  0  0  0  0
   -4.6997    0.2061    0.0000 C   0  0  0  0  0  0  0  0  0  0  0  0
    0.0000    0.9207    0.0000 C   0  0  0  0  0  0  0  0  0  0  0  0
   -0.8251    0.9207    0.0000 C   0  0  0  0  0  0  0  0  0  0  0  0
    1.0165   -2.2689    0.0000 O   0  0  0  0  0  0  0  0  0  0  0  0
    2.4455   -1.4439    0.0000 C   0  0  2  0  0  0  0  0  0  0  0  0
    3.1602   -1.0314    0.0000 C   0  0  1  0  0  0  0  0  0  0  0  0
    3.8746   -1.4439    0.0000 C   0  0  0  0  0  0  0  0  0  0  0  0
    3.8746   -2.2689    0.0000 C   0  0  1  0  0  0  0  0  0  0  0  0
    3.1602   -2.6814    0.0000 C   0  0  0  0  0  0  0  0  0  0  0  0
    2.4455   -2.2689    0.0000 C   0  0  0  0  0  0  0  0  0  0  0  0
    3.1602   -3.5066    0.0000 O   0  0  0  0  0  0  0  0  0  0  0  0
    3.3428   -1.7511    0.0000 C   0  0  0  0  0  0  0  0  0  0  0  0
    4.5892   -2.6814    0.0000 H   0  0  0  0  0  0  0  0  0  0  0  0
    4.6996   -1.4439    0.0000 C   0  0  0  0  0  0  0  0  0  0  0  0
    4.2871   -0.7294    0.0000 C   0  0  0  0  0  0  0  0  0  0  0  0
    3.1602   -0.2062    0.0000 H   0  0  0  0  0  0  0  0  0  0  0  0
    4.0539    0.9277    0.0000 H   0  0  0  0  0  0  0  0  0  0  0  0
    2.2665    2.7848    0.0000 H   0  0  0  0  0  0  0  0  0  0  0  0
    4.5893    1.3318    0.0000 H   0  0  0  0  0  0  0  0  0  0  0  0
   -0.5918   -1.5474    0.0000 H   0  0  0  0  0  0  0  0  0  0  0  0
    1.0165    1.2381    0.0000 H   0  0  0  0  0  0  0  0  0  0  0  0
   -1.1271   -1.2762    0.0000 H   0  0  0  0  0  0  0  0  0  0  0  0
   -2.0537   -0.7413    0.0000 H   0  0  0  0  0  0  0  0  0  0  0  0
   -1.8416    1.2761    0.0000 H   0  0  0  0  0  0  0  0  0  0  0  0
   -2.7682    0.7412    0.0000 H   0  0  0  0  0  0  0  0  0  0  0  0
   -2.5561   -1.2762    0.0000 H   0  0  0  0  0  0  0  0  0  0  0  0
   -3.4827   -0.7413    0.0000 H   0  0  0  0  0  0  0  0  0  0  0  0
   -3.2707    1.2761    0.0000 H   0  0  0  0  0  0  0  0  0  0  0  0
   -4.1973    0.7412    0.0000 H   0  0  0  0  0  0  0  0  0  0  0  0
   -3.9854   -1.2762    0.0000 H   0  0  0  0  0  0  0  0  0  0  0  0
   -4.9119   -0.7412    0.0000 H   0  0  0  0  0  0  0  0  0  0  0  0
   -4.6999    1.2761    0.0000 H   0  0  0  0  0  0  0  0  0  0  0  0
   -5.6263   -0.3291    0.0000 H   0  0  0  0  0  0  0  0  0  0  0  0
   -5.6264    0.7409    0.0000 H   0  0  0  0  0  0  0  0  0  0  0  0
    1.0700    0.9208    0.0000 H   0  0  0  0  0  0  0  0  0  0  0  0
   -0.5351    1.8473    0.0000 H   0  0  0  0  0  0  0  0  0  0  0  0
    0.5349    1.8474    0.0000 H   0  0  0  0  0  0  0  0  0  0  0  0
   -0.2901    1.8474    0.0000 H   0  0  0  0  0  0  0  0  0  0  0  0
   -1.8951    0.9207    0.0000 H   0  0  0  0  0  0  0  0  0  0  0  0
   -1.3601    1.8473    0.0000 H   0  0  0  0  0  0  0  0  0  0  0  0
    0.2050   -2.7374    0.0000 H   0  0  0  0  0  0  0  0  0  0  0  0
    2.4456   -0.3739    0.0000 H   0  0  0  0  0  0  0  0  0  0  0  0
    1.5189   -2.8040    0.0000 H   0  0  0  0  0  0  0  0  0  0  0  0
    2.4456   -3.3389    0.0000 H   0  0  0  0  0  0  0  0  0  0  0  0
    2.4162   -2.2861    0.0000 H   0  0  0  0  0  0  0  0  0  0  0  0
    3.2102   -2.8129    0.0000 H   0  0  0  0  0  0  0  0  0  0  0  0
    5.2346   -2.3705    0.0000 H   0  0  0  0  0  0  0  0  0  0  0  0
    5.2346   -0.5173    0.0000 H   0  0  0  0  0  0  0  0  0  0  0  0
    5.7696   -1.4439    0.0000 H   0  0  0  0  0  0  0  0  0  0  0  0
    5.3571   -0.7294    0.0000 H   0  0  0  0  0  0  0  0  0  0  0  0
    3.7521    0.1972    0.0000 H   0  0  0  0  0  0  0  0  0  0  0  0
    4.8221    0.1973    0.0000 H   0  0  0  0  0  0  0  0  0  0  0  0
  1  2  1  0  0  0  0
  1  7  2  0  0  0  0
  1  8  1  0  0  0  0
  2  3  2  0  0  0  0
  2 37  1  0  0  0  0
  3  4  1  0  0  0  0
  3 38  1  0  0  0  0
  4  5  2  0  0  0  0
  4  6  1  0  0  0  0
  6 39  1  0  0  0  0
  8  9  1  0  0  0  0
  9 10  1  0  0  0  0
  9 14  2  0  0  0  0
 10 11  2  0  0  0  0
 11 12  1  0  0  0  0
 11 24  1  0  0  0  0
 12 13  2  0  0  0  0
 12 40  1  0  0  0  0
 13 14  1  0  0  0  0
 13 15  1  0  0  0  0
 14 41  1  0  0  0  0
 15 16  1  0  0  0  0
 15 22  1  0  0  0  0
 15 23  1  0  0  0  0
 16 17  1  0  0  0  0
 16 42  1  0  0  0  0
 16 43  1  0  0  0  0
 17 18  1  0  0  0  0
 17 44  1  0  0  0  0
 17 45  1  0  0  0  0
 18 19  1  0  0  0  0
 18 46  1  0  0  0  0
 18 47  1  0  0  0  0
 19 20  1  0  0  0  0
 19 48  1  0  0  0  0
 19 49  1  0  0  0  0
 20 21  1  0  0  0  0
 20 50  1  0  0  0  0
 20 51  1  0  0  0  0
 21 52  1  0  0  0  0
 21 53  1  0  0  0  0
 21 54  1  0  0  0  0
 22 55  1  0  0  0  0
 22 56  1  0  0  0  0
 22 57  1  0  0  0  0
 23 58  1  0  0  0  0
 23 59  1  0  0  0  0
 23 60  1  0  0  0  0
 24 61  1  0  0  0  0
 25 10  1  0  0  0  0
 25 30  1  0  0  0  0
 25 62  1  1  0  0  0
 26 25  1  0  0  0  0
 26 27  1  0  0  0  0
 26 32  1  0  0  0  0
 26 36  1  6  0  0  0
 27 34  1  0  0  0  0
 27 35  1  0  0  0  0
 28 27  1  0  0  0  0
 28 32  1  0  0  0  0
 28 33  1  6  0  0  0
 29 28  1  0  0  0  0
 29 31  2  0  0  0  0
 30 29  1  0  0  0  0
 30 63  1  0  0  0  0
 30 64  1  0  0  0  0
 32 65  1  0  0  0  0
 32 66  1  0  0  0  0
 34 67  1  0  0  0  0
 34 68  1  0  0  0  0
 34 69  1  0  0  0  0
 35 70  1  0  0  0  0
 35 71  1  0  0  0  0
 35 72  1  0  0  0  0
M  END
>  <DRUGBANK_ID>
DB05048

>  <COMMON_NAME>
Cannabinor

>  <CAS_NUMBER>
573981-31-4

>  <UNII>
O8E148Q90M

$$$$
