NU5
 OpenBabel10282417072D

 66 69  0  0  0  0  0  0  0  0999 V2000
    2.6154   -1.1489    0.0000 O   0  0  0  0  0  0  0  0  0  0  0  0
    2.2029   -1.8634    0.0000 S   0  0  0  0  0  0  0  0  0  0  0  0
    1.7904   -2.5779    0.0000 O   0  0  0  0  0  0  0  0  0  0  0  0
    2.9174   -2.2759    0.0000 C   0  0  0  0  0  0  0  0  0  0  0  0
    3.6318   -1.8634    0.0000 C   0  0  0  0  0  0  0  0  0  0  0  0
    4.3463   -2.2759    0.0000 N   0  0  0  0  0  0  0  0  0  0  0  0
    5.0608   -1.8634    0.0000 C   0  0  0  0  0  0  0  0  0  0  0  0
    5.7753   -2.2759    0.0000 C   0  0  0  0  0  0  0  0  0  0  0  0
    6.4897   -1.8634    0.0000 C   0  0  0  0  0  0  0  0  0  0  0  0
    7.2042   -2.2759    0.0000 O   0  0  0  0  0  0  0  0  0  0  0  0
    1.4884   -1.4509    0.0000 C   0  0  0  0  0  0  0  0  0  0  0  0
    0.7740   -1.8634    0.0000 C   0  0  0  0  0  0  0  0  0  0  0  0
    0.0595   -1.4509    0.0000 C   0  0  0  0  0  0  0  0  0  0  0  0
    0.0595   -0.6259    0.0000 C   0  0  0  0  0  0  0  0  0  0  0  0
    0.7740   -0.2134    0.0000 C   0  0  0  0  0  0  0  0  0  0  0  0
    1.4884   -0.6259    0.0000 C   0  0  0  0  0  0  0  0  0  0  0  0
   -0.6550   -0.2134    0.0000 N   0  0  0  0  0  0  0  0  0  0  0  0
   -0.6550    0.6116    0.0000 C   0  0  0  0  0  0  0  0  0  0  0  0
   -1.3695    1.0241    0.0000 N   0  0  0  0  0  0  0  0  0  0  0  0
   -1.3695    1.8491    0.0000 C   0  0  0  0  0  0  0  0  0  0  0  0
   -0.6550    2.2616    0.0000 C   0  0  0  0  0  0  0  0  0  0  0  0
   -0.4835    3.0686    0.0000 N   0  0  0  0  0  0  0  0  0  0  0  0
    0.3370    3.1548    0.0000 C   0  0  0  0  0  0  0  0  0  0  0  0
    0.6726    2.4012    0.0000 N   0  0  0  0  0  0  0  0  0  0  0  0
    0.0595    1.8491    0.0000 C   0  0  0  0  0  0  0  0  0  0  0  0
    0.0595    1.0241    0.0000 N   0  0  0  0  0  0  0  0  0  0  0  0
   -2.0839    2.2616    0.0000 O   0  0  0  0  0  0  0  0  0  0  0  0
   -2.7984    1.8491    0.0000 C   0  0  0  0  0  0  0  0  0  0  0  0
   -3.5129    2.2616    0.0000 C   0  0  0  0  0  0  0  0  0  0  0  0
   -4.2273    1.8491    0.0000 C   0  0  0  0  0  0  0  0  0  0  0  0
   -4.9418    2.2616    0.0000 C   0  0  0  0  0  0  0  0  0  0  0  0
   -4.9418    3.0866    0.0000 C   0  0  0  0  0  0  0  0  0  0  0  0
   -4.2273    3.4991    0.0000 C   0  0  0  0  0  0  0  0  0  0  0  0
   -3.5129    3.0866    0.0000 C   0  0  0  0  0  0  0  0  0  0  0  0
    2.9174   -3.3459    0.0000 H   0  0  0  0  0  0  0  0  0  0  0  0
    3.8441   -2.8109    0.0000 H   0  0  0  0  0  0  0  0  0  0  0  0
    3.6318   -0.7934    0.0000 H   0  0  0  0  0  0  0  0  0  0  0  0
    4.5584   -1.3284    0.0000 H   0  0  0  0  0  0  0  0  0  0  0  0
    4.3463   -3.2959    0.0000 H   0  0  0  0  0  0  0  0  0  0  0  0
    5.0608   -0.7934    0.0000 H   0  0  0  0  0  0  0  0  0  0  0  0
    5.9874   -1.3284    0.0000 H   0  0  0  0  0  0  0  0  0  0  0  0
    5.7753   -3.3459    0.0000 H   0  0  0  0  0  0  0  0  0  0  0  0
    6.7020   -2.8109    0.0000 H   0  0  0  0  0  0  0  0  0  0  0  0
    6.4897   -0.7934    0.0000 H   0  0  0  0  0  0  0  0  0  0  0  0
    7.4163   -1.3284    0.0000 H   0  0  0  0  0  0  0  0  0  0  0  0
    7.2042   -3.2459    0.0000 H   0  0  0  0  0  0  0  0  0  0  0  0
    0.7740   -2.8954    0.0000 H   0  0  0  0  0  0  0  0  0  0  0  0
   -0.8342   -1.9669    0.0000 H   0  0  0  0  0  0  0  0  0  0  0  0
    0.7740    0.8186    0.0000 H   0  0  0  0  0  0  0  0  0  0  0  0
    2.3821   -0.1099    0.0000 H   0  0  0  0  0  0  0  0  0  0  0  0
   -1.5076   -0.7057    0.0000 H   0  0  0  0  0  0  0  0  0  0  0  0
    0.8530    4.0485    0.0000 H   0  0  0  0  0  0  0  0  0  0  0  0
    1.6356    2.1966    0.0000 H   0  0  0  0  0  0  0  0  0  0  0  0
   -2.7984    0.7791    0.0000 H   0  0  0  0  0  0  0  0  0  0  0  0
   -3.7250    1.3141    0.0000 H   0  0  0  0  0  0  0  0  0  0  0  0
   -4.4396    2.7966    0.0000 H   0  0  0  0  0  0  0  0  0  0  0  0
   -4.2273    0.7791    0.0000 H   0  0  0  0  0  0  0  0  0  0  0  0
   -5.1539    1.3141    0.0000 H   0  0  0  0  0  0  0  0  0  0  0  0
   -5.8684    1.7266    0.0000 H   0  0  0  0  0  0  0  0  0  0  0  0
   -5.8684    2.7966    0.0000 H   0  0  0  0  0  0  0  0  0  0  0  0
   -5.8684    3.6216    0.0000 H   0  0  0  0  0  0  0  0  0  0  0  0
   -4.9418    4.1566    0.0000 H   0  0  0  0  0  0  0  0  0  0  0  0
   -4.2273    4.5691    0.0000 H   0  0  0  0  0  0  0  0  0  0  0  0
   -3.3006    4.0341    0.0000 H   0  0  0  0  0  0  0  0  0  0  0  0
   -2.5862    3.6216    0.0000 H   0  0  0  0  0  0  0  0  0  0  0  0
   -3.5129    4.1566    0.0000 H   0  0  0  0  0  0  0  0  0  0  0  0
  1  2  2  0  0  0  0
  2  3  2  0  0  0  0
  2  4  1  0  0  0  0
  2 11  1  0  0  0  0
  4  5  1  0  0  0  0
  4 35  1  0  0  0  0
  4 36  1  0  0  0  0
  5  6  1  0  0  0  0
  5 37  1  0  0  0  0
  5 38  1  0  0  0  0
  6  7  1  0  0  0  0
  6 39  1  0  0  0  0
  7  8  1  0  0  0  0
  7 40  1  0  0  0  0
  7 41  1  0  0  0  0
  8  9  1  0  0  0  0
  8 42  1  0  0  0  0
  8 43  1  0  0  0  0
  9 10  1  0  0  0  0
  9 44  1  0  0  0  0
  9 45  1  0  0  0  0
 10 46  1  0  0  0  0
 11 12  1  0  0  0  0
 11 16  2  0  0  0  0
 12 13  2  0  0  0  0
 12 47  1  0  0  0  0
 13 14  1  0  0  0  0
 13 48  1  0  0  0  0
 14 15  2  0  0  0  0
 14 17  1  0  0  0  0
 15 16  1  0  0  0  0
 15 49  1  0  0  0  0
 16 50  1  0  0  0  0
 17 18  1  0  0  0  0
 17 51  1  0  0  0  0
 18 19  2  0  0  0  0
 18 26  1  0  0  0  0
 19 20  1  0  0  0  0
 20 21  2  0  0  0  0
 20 27  1  0  0  0  0
 21 22  1  0  0  0  0
 21 25  1  0  0  0  0
 22 23  2  0  0  0  0
 23 24  1  0  0  0  0
 23 52  1  0  0  0  0
 24 25  1  0  0  0  0
 24 53  1  0  0  0  0
 25 26  2  0  0  0  0
 27 28  1  0  0  0  0
 28 29  1  0  0  0  0
 28 54  1  0  0  0  0
 28 55  1  0  0  0  0
 29 30  1  0  0  0  0
 29 34  1  0  0  0  0
 29 56  1  0  0  0  0
 30 31  1  0  0  0  0
 30 57  1  0  0  0  0
 30 58  1  0  0  0  0
 31 32  1  0  0  0  0
 31 59  1  0  0  0  0
 31 60  1  0  0  0  0
 32 33  1  0  0  0  0
 32 61  1  0  0  0  0
 32 62  1  0  0  0  0
 33 34  1  0  0  0  0
 33 63  1  0  0  0  0
 33 64  1  0  0  0  0
 34 65  1  0  0  0  0
 34 66  1  0  0  0  0
M  END
>  <DRUGBANK_ID>
DB08309

>  <COMMON_NAME>
3-({2-[(4-{[6-(CYCLOHEXYLMETHOXY)-9H-PURIN-2-YL]AMINO}PHENYL)SULFONYL]ETHYL}AMINO)PROPAN-1-OL

$$$$
