CK5
 OpenBabel10282417072D

 35 37  0  0  0  0  0  0  0  0999 V2000
    0.5103    3.2996    0.0000 O   0  0  0  0  0  0  0  0  0  0  0  0
   -0.2042    2.8871    0.0000 C   0  0  0  0  0  0  0  0  0  0  0  0
   -0.2042    2.0621    0.0000 C   0  0  0  0  0  0  0  0  0  0  0  0
   -0.9187    1.6496    0.0000 C   0  0  0  0  0  0  0  0  0  0  0  0
   -1.6332    2.0621    0.0000 C   0  0  0  0  0  0  0  0  0  0  0  0
   -1.6332    2.8871    0.0000 C   0  0  0  0  0  0  0  0  0  0  0  0
   -0.9187    3.2996    0.0000 C   0  0  0  0  0  0  0  0  0  0  0  0
   -0.9187    0.8246    0.0000 N   0  0  0  0  0  0  0  0  0  0  0  0
   -0.2042    0.4121    0.0000 C   0  0  0  0  0  0  0  0  0  0  0  0
    0.5103    0.8246    0.0000 N   0  0  0  0  0  0  0  0  0  0  0  0
    1.2247    0.4121    0.0000 C   0  0  0  0  0  0  0  0  0  0  0  0
   -0.2042   -0.4129    0.0000 N   0  0  0  0  0  0  0  0  0  0  0  0
    0.5103   -0.8254    0.0000 C   0  0  0  0  0  0  0  0  0  0  0  0
    1.2247   -0.4129    0.0000 C   0  0  0  0  0  0  0  0  0  0  0  0
    0.5103   -1.6504    0.0000 C   0  0  0  0  0  0  0  0  0  0  0  0
    1.1777   -2.1354    0.0000 C   0  0  0  0  0  0  0  0  0  0  0  0
    1.9623   -1.8804    0.0000 C   0  0  0  0  0  0  0  0  0  0  0  0
   -0.1572   -2.1354    0.0000 S   0  0  0  0  0  0  0  0  0  0  0  0
    0.0978   -2.9200    0.0000 C   0  0  0  0  0  0  0  0  0  0  0  0
    0.9228   -2.9200    0.0000 N   0  0  0  0  0  0  0  0  0  0  0  0
   -0.3872   -3.5874    0.0000 C   0  0  0  0  0  0  0  0  0  0  0  0
    1.3218    2.8311    0.0000 H   0  0  0  0  0  0  0  0  0  0  0  0
    0.6895    1.5461    0.0000 H   0  0  0  0  0  0  0  0  0  0  0  0
   -2.5269    1.5461    0.0000 H   0  0  0  0  0  0  0  0  0  0  0  0
   -2.5269    3.4031    0.0000 H   0  0  0  0  0  0  0  0  0  0  0  0
   -0.9187    4.3316    0.0000 H   0  0  0  0  0  0  0  0  0  0  0  0
   -1.7713    0.3323    0.0000 H   0  0  0  0  0  0  0  0  0  0  0  0
    2.1184    0.9281    0.0000 H   0  0  0  0  0  0  0  0  0  0  0  0
    2.1184   -0.9289    0.0000 H   0  0  0  0  0  0  0  0  0  0  0  0
    2.7575   -2.5963    0.0000 H   0  0  0  0  0  0  0  0  0  0  0  0
    2.1847   -0.8338    0.0000 H   0  0  0  0  0  0  0  0  0  0  0  0
    2.9799   -1.5497    0.0000 H   0  0  0  0  0  0  0  0  0  0  0  0
   -1.4513   -3.4754    0.0000 H   0  0  0  0  0  0  0  0  0  0  0  0
    0.0479   -4.5649    0.0000 H   0  0  0  0  0  0  0  0  0  0  0  0
   -1.0162   -4.4530    0.0000 H   0  0  0  0  0  0  0  0  0  0  0  0
  1  2  1  0  0  0  0
  1 22  1  0  0  0  0
  2  3  2  0  0  0  0
  2  7  1  0  0  0  0
  3  4  1  0  0  0  0
  3 23  1  0  0  0  0
  4  5  2  0  0  0  0
  4  8  1  0  0  0  0
  5  6  1  0  0  0  0
  5 24  1  0  0  0  0
  6  7  2  0  0  0  0
  6 25  1  0  0  0  0
  7 26  1  0  0  0  0
  8  9  1  0  0  0  0
  8 27  1  0  0  0  0
  9 10  2  0  0  0  0
  9 12  1  0  0  0  0
 10 11  1  0  0  0  0
 11 14  2  0  0  0  0
 11 28  1  0  0  0  0
 12 13  2  0  0  0  0
 13 14  1  0  0  0  0
 13 15  1  0  0  0  0
 14 29  1  0  0  0  0
 15 16  2  0  0  0  0
 15 18  1  0  0  0  0
 16 17  1  0  0  0  0
 16 20  1  0  0  0  0
 17 30  1  0  0  0  0
 17 31  1  0  0  0  0
 17 32  1  0  0  0  0
 18 19  1  0  0  0  0
 19 20  2  0  0  0  0
 19 21  1  0  0  0  0
 21 33  1  0  0  0  0
 21 34  1  0  0  0  0
 21 35  1  0  0  0  0
M  END
>  <DRUGBANK_ID>
DB04518

>  <SECONDARY_ACCESSION_NUMBERS>
EXPT00928

>  <COMMON_NAME>
3-[4-(2,4-Dimethyl-Thiazol-5-Yl)-Pyrimidin-2-Ylamino]-Phenol

$$$$
