
 OpenBabel10282417072D

 73 76  0  0  1  0  0  0  0  0999 V2000
    4.9224    1.3689    0.0000 C   0  0  0  0  0  0  0  0  0  0  0  0
    3.1118    3.1976    0.0000 C   0  0  0  0  0  0  0  0  0  0  0  0
    2.2301    2.5331    0.0000 C   0  0  0  0  0  0  0  0  0  0  0  0
    4.8170   -3.0077    0.0000 C   0  0  0  0  0  0  0  0  0  0  0  0
    4.0369   -3.2763    0.0000 C   0  0  0  0  0  0  0  0  0  0  0  0
    4.9744   -2.1978    0.0000 C   0  0  0  0  0  0  0  0  0  0  0  0
    3.4143   -2.7350    0.0000 C   0  0  0  0  0  0  0  0  0  0  0  0
    4.3518   -1.6565    0.0000 C   0  0  0  0  0  0  0  0  0  0  0  0
    1.0812    0.2397    0.0000 C   0  0  0  0  0  0  0  0  0  0  0  0
    0.4586    0.7810    0.0000 C   0  0  0  0  0  0  0  0  0  0  0  0
   -0.6941    3.2763    0.0000 C   0  0  0  0  0  0  0  0  0  0  0  0
   -3.4129    0.7314    0.0000 C   0  0  0  0  0  0  0  0  0  0  0  0
   -4.2379    0.7314    0.0000 C   0  0  0  0  0  0  0  0  0  0  0  0
   -3.3522    2.1216    0.0000 C   0  0  0  0  0  0  0  0  0  0  0  0
    0.0653    2.9539    0.0000 C   0  0  0  0  0  0  0  0  0  0  0  0
   -2.5304    2.0498    0.0000 C   0  0  0  0  0  0  0  0  0  0  0  0
    3.8648    2.3901    0.0000 C   0  0  0  0  0  0  0  0  0  0  0  0
    3.4745    1.1136    0.0000 C   0  0  0  0  0  0  0  0  0  0  0  0
    4.1334    1.6100    0.0000 C   0  0  1  0  0  0  0  0  0  0  0  0
    3.5717   -1.9251    0.0000 C   0  0  0  0  0  0  0  0  0  0  0  0
    1.8612    0.5083    0.0000 C   0  0  0  0  0  0  0  0  0  0  0  0
    0.6160    1.5908    0.0000 C   0  0  0  0  0  0  0  0  0  0  0  0
   -1.2353    2.6537    0.0000 C   0  0  0  0  0  0  0  0  0  0  0  0
    2.0187    1.3182    0.0000 C   0  0  0  0  0  0  0  0  0  0  0  0
    2.4839   -0.0328    0.0000 C   0  0  0  0  0  0  0  0  0  0  0  0
    3.0399    2.3757    0.0000 C   0  0  0  0  0  0  0  0  0  0  0  0
   -3.8254    1.4458    0.0000 C   0  0  0  0  0  0  0  0  0  0  0  0
   -4.2986    2.1216    0.0000 C   0  0  0  0  0  0  0  0  0  0  0  0
   -4.7718    2.7975    0.0000 F   0  0  0  0  0  0  0  0  0  0  0  0
   -3.6228    2.5948    0.0000 F   0  0  0  0  0  0  0  0  0  0  0  0
   -4.9744    1.6485    0.0000 F   0  0  0  0  0  0  0  0  0  0  0  0
    1.3960    1.8594    0.0000 N   0  0  0  0  0  0  0  0  0  0  0  0
   -0.8104    1.9465    0.0000 N   0  0  0  0  0  0  0  0  0  0  0  0
    2.3265   -0.8427    0.0000 N   0  0  0  0  0  0  0  0  0  0  0  0
    2.7987    1.5868    0.0000 N   0  0  0  0  0  0  0  0  0  0  0  0
   -0.0065    2.1321    0.0000 N   0  0  0  0  0  0  0  0  0  0  0  0
    3.2640    0.2357    0.0000 O   0  5  0  0  0  0  0  0  0  0  0  0
    3.4903   -0.7613    0.0000 O   0  0  0  0  0  0  0  0  0  0  0  0
    2.4078   -2.0065    0.0000 O   0  0  0  0  0  0  0  0  0  0  0  0
   -2.0572    2.7256    0.0000 O   0  0  0  0  0  0  0  0  0  0  0  0
    2.9491   -1.3839    0.0000 S   0  0  0  0  0  0  0  0  0  0  0  0
    4.0440    0.5043    0.0000 K   0  3  0  0  0  0  0  0  0  0  0  0
    4.7065    2.2035    0.0000 H   0  0  0  0  0  0  0  0  0  0  0  0
    5.1632    0.3264    0.0000 H   0  0  0  0  0  0  0  0  0  0  0  0
    5.7048    2.0987    0.0000 H   0  0  0  0  0  0  0  0  0  0  0  0
    5.9457    1.0562    0.0000 H   0  0  0  0  0  0  0  0  0  0  0  0
    4.0815    3.6498    0.0000 H   0  0  0  0  0  0  0  0  0  0  0  0
    2.2353    3.8113    0.0000 H   0  0  0  0  0  0  0  0  0  0  0  0
    3.2050    4.2635    0.0000 H   0  0  0  0  0  0  0  0  0  0  0  0
    1.8817    3.5448    0.0000 H   0  0  0  0  0  0  0  0  0  0  0  0
    1.5281    1.7256    0.0000 H   0  0  0  0  0  0  0  0  0  0  0  0
    1.1798    2.7373    0.0000 H   0  0  0  0  0  0  0  0  0  0  0  0
    5.5959   -3.6847    0.0000 H   0  0  0  0  0  0  0  0  0  0  0  0
    3.8399   -4.2893    0.0000 H   0  0  0  0  0  0  0  0  0  0  0  0
    5.9502   -1.8618    0.0000 H   0  0  0  0  0  0  0  0  0  0  0  0
    2.4385   -3.0710    0.0000 H   0  0  0  0  0  0  0  0  0  0  0  0
    4.5488   -0.6435    0.0000 H   0  0  0  0  0  0  0  0  0  0  0  0
    0.8843   -0.7733    0.0000 H   0  0  0  0  0  0  0  0  0  0  0  0
   -0.5172    0.4450    0.0000 H   0  0  0  0  0  0  0  0  0  0  0  0
   -0.9262    4.2819    0.0000 H   0  0  0  0  0  0  0  0  0  0  0  0
   -2.4862    0.1964    0.0000 H   0  0  0  0  0  0  0  0  0  0  0  0
   -2.6563    1.4880    0.0000 H   0  0  0  0  0  0  0  0  0  0  0  0
   -5.1646    0.1964    0.0000 H   0  0  0  0  0  0  0  0  0  0  0  0
   -4.9945    1.4880    0.0000 H   0  0  0  0  0  0  0  0  0  0  0  0
   -3.8045    3.0913    0.0000 H   0  0  0  0  0  0  0  0  0  0  0  0
   -4.4181    2.2148    0.0000 H   0  0  0  0  0  0  0  0  0  0  0  0
    0.9499    3.4854    0.0000 H   0  0  0  0  0  0  0  0  0  0  0  0
   -2.0781    1.0801    0.0000 H   0  0  0  0  0  0  0  0  0  0  0  0
   -1.4645    1.9566    0.0000 H   0  0  0  0  0  0  0  0  0  0  0  0
    4.4785    3.2666    0.0000 H   0  0  0  0  0  0  0  0  0  0  0  0
    3.3625    3.3349    0.0000 H   0  0  0  0  0  0  0  0  0  0  0  0
    3.4931    0.0438    0.0000 H   0  0  0  0  0  0  0  0  0  0  0  0
    2.5297    0.6113    0.0000 H   0  0  0  0  0  0  0  0  0  0  0  0
  1 44  1  0  0  0  0
  1 45  1  0  0  0  0
  1 46  1  0  0  0  0
  2 26  1  0  0  0  0
  2 47  1  0  0  0  0
  2 48  1  0  0  0  0
  2 49  1  0  0  0  0
  3 26  1  0  0  0  0
  3 50  1  0  0  0  0
  3 51  1  0  0  0  0
  3 52  1  0  0  0  0
  4  5  2  0  0  0  0
  4  6  1  0  0  0  0
  4 53  1  0  0  0  0
  5  7  1  0  0  0  0
  5 54  1  0  0  0  0
  6  8  2  0  0  0  0
  6 55  1  0  0  0  0
  7 20  2  0  0  0  0
  7 56  1  0  0  0  0
  8 20  1  0  0  0  0
  8 57  1  0  0  0  0
  9 10  2  0  0  0  0
  9 21  1  0  0  0  0
  9 58  1  0  0  0  0
 10 22  1  0  0  0  0
 10 59  1  0  0  0  0
 11 15  2  0  0  0  0
 11 23  1  0  0  0  0
 11 60  1  0  0  0  0
 12 13  1  0  0  0  0
 12 27  1  0  0  0  0
 12 61  1  0  0  0  0
 12 62  1  0  0  0  0
 13 27  1  0  0  0  0
 13 63  1  0  0  0  0
 13 64  1  0  0  0  0
 14 16  1  0  0  0  0
 14 27  1  0  0  0  0
 14 65  1  0  0  0  0
 14 66  1  0  0  0  0
 15 36  1  0  0  0  0
 15 67  1  0  0  0  0
 16 40  1  0  0  0  0
 16 68  1  0  0  0  0
 16 69  1  0  0  0  0
 17 26  1  0  0  0  0
 17 70  1  0  0  0  0
 17 71  1  0  0  0  0
 18 35  1  0  0  0  0
 18 72  1  0  0  0  0
 18 73  1  0  0  0  0
 19  1  1  0  0  0  0
 19 17  1  0  0  0  0
 19 18  1  0  0  0  0
 19 43  1  1  0  0  0
 20 41  1  0  0  0  0
 21 24  2  0  0  0  0
 21 25  1  0  0  0  0
 22 32  2  0  0  0  0
 22 36  1  0  0  0  0
 23 33  2  0  0  0  0
 23 40  1  0  0  0  0
 24 32  1  0  0  0  0
 24 35  1  0  0  0  0
 25 34  2  0  0  0  0
 25 37  1  0  0  0  0
 26 35  1  0  0  0  0
 27 28  1  0  0  0  0
 28 29  1  0  0  0  0
 28 30  1  0  0  0  0
 28 31  1  0  0  0  0
 33 36  1  0  0  0  0
 34 41  1  0  0  0  0
 38 41  2  0  0  0  0
 39 41  2  0  0  0  0
M  CHG  2  37  -1  42   1
M  END
>  <DRUGBANK_ID>
DB17863

>  <COMMON_NAME>
Potassium (Benzenesulfonyl)({[6-(3-{2-[1-(Trifluoromethyl)Cyclopropyl]Ethoxy}-1H-Pyrazol-1-Yl)-2-[(4S)-2,2,4-Trimethylpyrrolidin-1-Yl]Pyridin-3-Yl]Carbonyl})Azanide

>  <UNII>
VY7D8MTV72

$$$$
