
 OpenBabel10282417072D

 60 64  0  0  0  0  0  0  0  0999 V2000
   -1.5025   -0.4721    0.0000 C   0  0  0  0  0  0  0  0  0  0  0  0
   -1.7575    0.3126    0.0000 C   0  0  0  0  0  0  0  0  0  0  0  0
   -1.2054    0.9256    0.0000 C   0  0  0  0  0  0  0  0  0  0  0  0
   -1.4604    1.7103    0.0000 C   0  0  0  0  0  0  0  0  0  0  0  0
   -0.9083    2.3234    0.0000 C   0  0  0  0  0  0  0  0  0  0  0  0
   -0.1014    2.1518    0.0000 C   0  0  0  0  0  0  0  0  0  0  0  0
    0.1536    1.3672    0.0000 C   0  0  0  0  0  0  0  0  0  0  0  0
   -0.3984    0.7541    0.0000 C   0  0  0  0  0  0  0  0  0  0  0  0
   -0.1435   -0.0305    0.0000 N   0  0  0  0  0  0  0  0  0  0  0  0
   -0.6284   -0.6979    0.0000 N   0  0  0  0  0  0  0  0  0  0  0  0
   -0.1435   -1.3654    0.0000 C   0  0  0  0  0  0  0  0  0  0  0  0
   -0.3984   -2.1500    0.0000 C   0  0  0  0  0  0  0  0  0  0  0  0
    0.1536   -2.7631    0.0000 C   0  0  0  0  0  0  0  0  0  0  0  0
   -1.2054   -2.3215    0.0000 C   0  0  0  0  0  0  0  0  0  0  0  0
    0.6411   -1.1104    0.0000 C   0  0  0  0  0  0  0  0  0  0  0  0
    0.6411   -0.2854    0.0000 C   0  0  0  0  0  0  0  0  0  0  0  0
    1.3556    0.1271    0.0000 N   0  0  0  0  0  0  0  0  0  0  0  0
    2.0701   -0.2854    0.0000 C   0  0  0  0  0  0  0  0  0  0  0  0
    2.0701   -1.1104    0.0000 C   0  0  0  0  0  0  0  0  0  0  0  0
    1.3556   -1.5229    0.0000 C   0  0  0  0  0  0  0  0  0  0  0  0
    1.3556   -2.3479    0.0000 N   0  0  0  0  0  0  0  0  0  0  0  0
    2.0230   -2.8329    0.0000 C   0  0  0  0  0  0  0  0  0  0  0  0
    1.7681   -3.6175    0.0000 N   0  0  0  0  0  0  0  0  0  0  0  0
    0.9431   -3.6175    0.0000 C   0  0  0  0  0  0  0  0  0  0  0  0
    0.6881   -2.8329    0.0000 C   0  0  0  0  0  0  0  0  0  0  0  0
    0.4582   -4.2849    0.0000 C   0  0  0  0  0  0  0  0  0  0  0  0
    0.7131   -5.0695    0.0000 C   0  0  0  0  0  0  0  0  0  0  0  0
    0.0457   -5.5545    0.0000 N   0  0  0  0  0  0  0  0  0  0  0  0
    0.0457   -6.3795    0.0000 C   0  0  0  0  0  0  0  0  0  0  0  0
   -0.6218   -5.0695    0.0000 N   0  0  0  0  0  0  0  0  0  0  0  0
   -0.3668   -4.2849    0.0000 C   0  0  0  0  0  0  0  0  0  0  0  0
   -1.1633    3.1080    0.0000 C   0  0  0  0  0  0  0  0  0  0  0  0
   -1.9702    3.2795    0.0000 N   0  0  0  0  0  0  0  0  0  0  0  0
   -0.6112    3.7211    0.0000 O   0  0  0  0  0  0  0  0  0  0  0  0
   -2.2184   -1.2673    0.0000 H   0  0  0  0  0  0  0  0  0  0  0  0
   -0.4559   -0.6945    0.0000 H   0  0  0  0  0  0  0  0  0  0  0  0
   -1.1718   -1.4897    0.0000 H   0  0  0  0  0  0  0  0  0  0  0  0
   -2.8041    0.5351    0.0000 H   0  0  0  0  0  0  0  0  0  0  0  0
   -2.0881    1.3303    0.0000 H   0  0  0  0  0  0  0  0  0  0  0  0
   -2.4698    1.9249    0.0000 H   0  0  0  0  0  0  0  0  0  0  0  0
    0.5892    2.9187    0.0000 H   0  0  0  0  0  0  0  0  0  0  0  0
    1.1631    1.1527    0.0000 H   0  0  0  0  0  0  0  0  0  0  0  0
   -0.7291   -3.1676    0.0000 H   0  0  0  0  0  0  0  0  0  0  0  0
   -0.1771   -3.7807    0.0000 H   0  0  0  0  0  0  0  0  0  0  0  0
    1.2002   -2.5407    0.0000 H   0  0  0  0  0  0  0  0  0  0  0  0
    0.8695   -3.5583    0.0000 H   0  0  0  0  0  0  0  0  0  0  0  0
   -1.9213   -1.5263    0.0000 H   0  0  0  0  0  0  0  0  0  0  0  0
   -1.5361   -3.3391    0.0000 H   0  0  0  0  0  0  0  0  0  0  0  0
   -2.2520   -2.5439    0.0000 H   0  0  0  0  0  0  0  0  0  0  0  0
    2.9638    0.2306    0.0000 H   0  0  0  0  0  0  0  0  0  0  0  0
    2.9638   -1.6264    0.0000 H   0  0  0  0  0  0  0  0  0  0  0  0
    3.0045   -2.5140    0.0000 H   0  0  0  0  0  0  0  0  0  0  0  0
   -0.2934   -2.5140    0.0000 H   0  0  0  0  0  0  0  0  0  0  0  0
    1.6946   -5.3884    0.0000 H   0  0  0  0  0  0  0  0  0  0  0  0
   -0.8809   -6.9145    0.0000 H   0  0  0  0  0  0  0  0  0  0  0  0
    0.9723   -6.9145    0.0000 H   0  0  0  0  0  0  0  0  0  0  0  0
    0.0457   -7.4495    0.0000 H   0  0  0  0  0  0  0  0  0  0  0  0
   -0.9734   -3.4500    0.0000 H   0  0  0  0  0  0  0  0  0  0  0  0
   -2.2744    4.2158    0.0000 H   0  0  0  0  0  0  0  0  0  0  0  0
   -2.6289    2.5479    0.0000 H   0  0  0  0  0  0  0  0  0  0  0  0
  1  2  1  0  0  0  0
  1 35  1  0  0  0  0
  1 36  1  0  0  0  0
  1 37  1  0  0  0  0
  2  3  1  0  0  0  0
  2 38  1  0  0  0  0
  2 39  1  0  0  0  0
  3  4  2  0  0  0  0
  3  8  1  0  0  0  0
  4  5  1  0  0  0  0
  4 40  1  0  0  0  0
  5  6  2  0  0  0  0
  5 32  1  0  0  0  0
  6  7  1  0  0  0  0
  6 41  1  0  0  0  0
  7  8  2  0  0  0  0
  7 42  1  0  0  0  0
  8  9  1  0  0  0  0
  9 10  1  0  0  0  0
  9 16  1  0  0  0  0
 10 11  2  0  0  0  0
 11 12  1  0  0  0  0
 11 15  1  0  0  0  0
 12 13  1  0  0  0  0
 12 14  1  0  0  0  0
 12 43  1  0  0  0  0
 13 44  1  0  0  0  0
 13 45  1  0  0  0  0
 13 46  1  0  0  0  0
 14 47  1  0  0  0  0
 14 48  1  0  0  0  0
 14 49  1  0  0  0  0
 15 16  2  0  0  0  0
 15 20  1  0  0  0  0
 16 17  1  0  0  0  0
 17 18  2  0  0  0  0
 18 19  1  0  0  0  0
 18 50  1  0  0  0  0
 19 20  2  0  0  0  0
 19 51  1  0  0  0  0
 20 21  1  0  0  0  0
 21 22  1  0  0  0  0
 21 25  1  0  0  0  0
 22 23  2  0  0  0  0
 22 52  1  0  0  0  0
 23 24  1  0  0  0  0
 24 25  2  0  0  0  0
 24 26  1  0  0  0  0
 25 53  1  0  0  0  0
 26 27  2  0  0  0  0
 26 31  1  0  0  0  0
 27 28  1  0  0  0  0
 27 54  1  0  0  0  0
 28 29  1  0  0  0  0
 28 30  1  0  0  0  0
 29 55  1  0  0  0  0
 29 56  1  0  0  0  0
 29 57  1  0  0  0  0
 30 31  2  0  0  0  0
 31 58  1  0  0  0  0
 32 33  1  0  0  0  0
 32 34  2  0  0  0  0
 33 59  1  0  0  0  0
 33 60  1  0  0  0  0
M  END
>  <DRUGBANK_ID>
DB14876

>  <COMMON_NAME>
TAS-116

>  <CAS_NUMBER>
1260533-36-5

>  <UNII>
PLO044MUDZ

$$$$
