
 OpenBabel10282417072D

 69 72  0  0  1  0  0  0  0  0999 V2000
    0.4631    3.3652    0.0000 C   0  0  0  0  0  0  0  0  0  0  0  0
    0.3769    2.5447    0.0000 C   0  0  0  0  0  0  0  0  0  0  0  0
   -0.3768    2.2092    0.0000 O   0  0  0  0  0  0  0  0  0  0  0  0
   -0.4630    1.3887    0.0000 C   0  0  3  0  0  0  0  0  0  0  0  0
   -1.1775    0.9762    0.0000 C   0  0  1  0  0  0  0  0  0  0  0  0
   -1.0060    0.1692    0.0000 C   0  0  2  0  0  0  0  0  0  0  0  0
   -0.1855    0.0830    0.0000 C   0  0  2  0  0  0  0  0  0  0  0  0
    0.1501    0.8366    0.0000 O   0  0  0  0  0  0  0  0  0  0  0  0
    0.2270   -0.6315    0.0000 C   0  0  1  0  0  0  0  0  0  0  0  0
   -0.1855   -1.3460    0.0000 C   0  0  0  0  0  0  0  0  0  0  0  0
   -1.0105   -1.3460    0.0000 O   0  0  0  0  0  0  0  0  0  0  0  0
   -1.4230   -2.0605    0.0000 C   0  0  0  0  0  0  0  0  0  0  0  0
   -1.0105   -2.7749    0.0000 C   0  0  0  0  0  0  0  0  0  0  0  0
   -0.1855   -2.7749    0.0000 C   0  0  0  0  0  0  0  0  0  0  0  0
    0.2270   -3.4894    0.0000 C   0  0  0  0  0  0  0  0  0  0  0  0
   -0.1855   -4.2039    0.0000 C   0  0  0  0  0  0  0  0  0  0  0  0
   -1.0105   -4.2039    0.0000 C   0  0  0  0  0  0  0  0  0  0  0  0
   -1.4230   -3.4894    0.0000 C   0  0  0  0  0  0  0  0  0  0  0  0
    1.0520   -0.6315    0.0000 O   0  0  0  0  0  0  0  0  0  0  0  0
    1.4645   -1.3460    0.0000 C   0  0  0  0  0  0  0  0  0  0  0  0
    2.2895   -1.3460    0.0000 C   0  0  0  0  0  0  0  0  0  0  0  0
    2.7020   -0.6315    0.0000 C   0  0  0  0  0  0  0  0  0  0  0  0
    3.5270   -0.6315    0.0000 C   0  0  0  0  0  0  0  0  0  0  0  0
    3.9395   -1.3460    0.0000 C   0  0  0  0  0  0  0  0  0  0  0  0
    3.5270   -2.0605    0.0000 C   0  0  0  0  0  0  0  0  0  0  0  0
    2.7020   -2.0605    0.0000 C   0  0  0  0  0  0  0  0  0  0  0  0
   -1.5580   -0.4439    0.0000 O   0  0  0  0  0  0  0  0  0  0  0  0
   -2.3650   -0.2724    0.0000 C   0  0  0  0  0  0  0  0  0  0  0  0
   -2.9170   -0.8855    0.0000 C   0  0  0  0  0  0  0  0  0  0  0  0
   -2.6621   -1.6701    0.0000 C   0  0  0  0  0  0  0  0  0  0  0  0
   -3.2141   -2.2832    0.0000 C   0  0  0  0  0  0  0  0  0  0  0  0
   -4.0211   -2.1117    0.0000 C   0  0  0  0  0  0  0  0  0  0  0  0
   -4.2760   -1.3270    0.0000 C   0  0  0  0  0  0  0  0  0  0  0  0
   -3.7240   -0.7139    0.0000 C   0  0  0  0  0  0  0  0  0  0  0  0
   -1.9312    1.3117    0.0000 O   0  0  0  0  0  0  0  0  0  0  0  0
    1.4406    3.8005    0.0000 H   0  0  0  0  0  0  0  0  0  0  0  0
   -0.4026    3.9941    0.0000 H   0  0  0  0  0  0  0  0  0  0  0  0
    0.5749    4.4293    0.0000 H   0  0  0  0  0  0  0  0  0  0  0  0
    1.2425    1.9158    0.0000 H   0  0  0  0  0  0  0  0  0  0  0  0
    0.2650    1.4806    0.0000 H   0  0  0  0  0  0  0  0  0  0  0  0
   -1.3604    1.9715    0.0000 H   0  0  0  0  0  0  0  0  0  0  0  0
   -1.2335    2.0447    0.0000 H   0  0  0  0  0  0  0  0  0  0  0  0
   -2.0395    0.4461    0.0000 H   0  0  0  0  0  0  0  0  0  0  0  0
   -0.7683   -0.8144    0.0000 H   0  0  0  0  0  0  0  0  0  0  0  0
   -0.8430   -0.6315    0.0000 H   0  0  0  0  0  0  0  0  0  0  0  0
    0.3495   -2.2726    0.0000 H   0  0  0  0  0  0  0  0  0  0  0  0
   -0.7205   -2.2726    0.0000 H   0  0  0  0  0  0  0  0  0  0  0  0
   -2.4930   -2.0605    0.0000 H   0  0  0  0  0  0  0  0  0  0  0  0
   -1.9580   -2.9872    0.0000 H   0  0  0  0  0  0  0  0  0  0  0  0
    0.3305   -1.8812    0.0000 H   0  0  0  0  0  0  0  0  0  0  0  0
    1.2590   -3.4894    0.0000 H   0  0  0  0  0  0  0  0  0  0  0  0
    0.3305   -5.0976    0.0000 H   0  0  0  0  0  0  0  0  0  0  0  0
   -1.5265   -5.0976    0.0000 H   0  0  0  0  0  0  0  0  0  0  0  0
   -2.4550   -3.4894    0.0000 H   0  0  0  0  0  0  0  0  0  0  0  0
    0.9295   -2.2726    0.0000 H   0  0  0  0  0  0  0  0  0  0  0  0
    1.9995   -2.2726    0.0000 H   0  0  0  0  0  0  0  0  0  0  0  0
    2.1860    0.2622    0.0000 H   0  0  0  0  0  0  0  0  0  0  0  0
    4.0430    0.2622    0.0000 H   0  0  0  0  0  0  0  0  0  0  0  0
    4.9715   -1.3460    0.0000 H   0  0  0  0  0  0  0  0  0  0  0  0
    4.0430   -2.9542    0.0000 H   0  0  0  0  0  0  0  0  0  0  0  0
    2.1860   -2.9542    0.0000 H   0  0  0  0  0  0  0  0  0  0  0  0
   -2.6957    0.7452    0.0000 H   0  0  0  0  0  0  0  0  0  0  0  0
   -3.4116   -0.0500    0.0000 H   0  0  0  0  0  0  0  0  0  0  0  0
   -1.6527   -1.8847    0.0000 H   0  0  0  0  0  0  0  0  0  0  0  0
   -2.8952   -3.2647    0.0000 H   0  0  0  0  0  0  0  0  0  0  0  0
   -4.7117   -2.8786    0.0000 H   0  0  0  0  0  0  0  0  0  0  0  0
   -5.2854   -1.1124    0.0000 H   0  0  0  0  0  0  0  0  0  0  0  0
   -4.0429    0.2676    0.0000 H   0  0  0  0  0  0  0  0  0  0  0  0
   -2.0327    2.2764    0.0000 H   0  0  0  0  0  0  0  0  0  0  0  0
  1  2  1  0  0  0  0
  1 36  1  0  0  0  0
  1 37  1  0  0  0  0
  1 38  1  0  0  0  0
  2  3  1  0  0  0  0
  2 39  1  0  0  0  0
  2 40  1  0  0  0  0
  3  4  1  0  0  0  0
  4  5  1  0  0  0  0
  4  8  1  0  0  0  0
  4 41  1  0  0  0  0
  5  6  1  0  0  0  0
  5 35  1  0  0  0  0
  5 42  1  6  0  0  0
  6  7  1  0  0  0  0
  6 27  1  0  0  0  0
  6 43  1  1  0  0  0
  7  8  1  0  0  0  0
  7  9  1  0  0  0  0
  7 44  1  1  0  0  0
  9 10  1  0  0  0  0
  9 19  1  0  0  0  0
  9 45  1  1  0  0  0
 10 11  1  0  0  0  0
 10 46  1  0  0  0  0
 10 47  1  0  0  0  0
 11 12  1  0  0  0  0
 12 13  1  0  0  0  0
 12 48  1  0  0  0  0
 12 49  1  0  0  0  0
 13 14  2  0  0  0  0
 13 18  1  0  0  0  0
 14 15  1  0  0  0  0
 14 50  1  0  0  0  0
 15 16  2  0  0  0  0
 15 51  1  0  0  0  0
 16 17  1  0  0  0  0
 16 52  1  0  0  0  0
 17 18  2  0  0  0  0
 17 53  1  0  0  0  0
 18 54  1  0  0  0  0
 19 20  1  0  0  0  0
 20 21  1  0  0  0  0
 20 55  1  0  0  0  0
 20 56  1  0  0  0  0
 21 22  2  0  0  0  0
 21 26  1  0  0  0  0
 22 23  1  0  0  0  0
 22 57  1  0  0  0  0
 23 24  2  0  0  0  0
 23 58  1  0  0  0  0
 24 25  1  0  0  0  0
 24 59  1  0  0  0  0
 25 26  2  0  0  0  0
 25 60  1  0  0  0  0
 26 61  1  0  0  0  0
 27 28  1  0  0  0  0
 28 29  1  0  0  0  0
 28 62  1  0  0  0  0
 28 63  1  0  0  0  0
 29 30  2  0  0  0  0
 29 34  1  0  0  0  0
 30 31  1  0  0  0  0
 30 64  1  0  0  0  0
 31 32  2  0  0  0  0
 31 65  1  0  0  0  0
 32 33  1  0  0  0  0
 32 66  1  0  0  0  0
 33 34  2  0  0  0  0
 33 67  1  0  0  0  0
 34 68  1  0  0  0  0
 35 69  1  0  0  0  0
M  END
>  <DRUGBANK_ID>
DB13227

>  <COMMON_NAME>
Tribenoside

>  <CAS_NUMBER>
10310-32-4

>  <UNII>
Z7N0Y673NU

>  <SYNONYMS>
TBGF; Tribenoside; Tribenosido; Tribenosidum

$$$$
