
 OpenBabel10282417072D

 70 75  0  0  0  0  0  0  0  0999 V2000
   -1.5683   -1.2136    0.0000 C   0  0  0  0  0  0  0  0  0  0  0  0
   -1.9787   -1.9309    0.0000 C   0  0  0  0  0  0  0  0  0  0  0  0
   -1.5683   -2.6436    0.0000 N   0  0  0  0  0  0  0  0  0  0  0  0
   -0.7433   -2.6436    0.0000 C   0  0  0  0  0  0  0  0  0  0  0  0
   -0.3284   -1.9309    0.0000 N   0  0  0  0  0  0  0  0  0  0  0  0
   -0.7433   -1.2136    0.0000 C   0  0  0  0  0  0  0  0  0  0  0  0
   -0.4857   -0.4271    0.0000 N   0  0  0  0  0  0  0  0  0  0  0  0
   -1.1536    0.0558    0.0000 C   0  0  0  0  0  0  0  0  0  0  0  0
   -1.8212   -0.4271    0.0000 S   0  0  0  0  0  0  0  0  0  0  0  0
   -1.1536    0.8810    0.0000 N   0  0  0  0  0  0  0  0  0  0  0  0
   -1.8709    1.2912    0.0000 C   0  0  0  0  0  0  0  0  0  0  0  0
   -1.8709    2.1164    0.0000 C   0  0  0  0  0  0  0  0  0  0  0  0
   -1.1536    2.5312    0.0000 N   0  0  0  0  0  0  0  0  0  0  0  0
   -0.4362    2.1164    0.0000 C   0  0  2  0  0  0  0  0  0  0  0  0
   -0.4362    1.2912    0.0000 C   0  0  0  0  0  0  0  0  0  0  0  0
    0.2764    2.5312    0.0000 C   0  0  0  0  0  0  0  0  0  0  0  0
    0.9891    2.1164    0.0000 N   0  0  0  0  0  0  0  0  0  0  0  0
    1.7064    2.5312    0.0000 C   0  0  0  0  0  0  0  0  0  0  0  0
    2.4191    2.1164    0.0000 C   0  0  0  0  0  0  0  0  0  0  0  0
    3.1318    2.5312    0.0000 C   0  0  0  0  0  0  0  0  0  0  0  0
    3.8491    2.1164    0.0000 C   0  0  0  0  0  0  0  0  0  0  0  0
    3.8491    1.2912    0.0000 C   0  0  0  0  0  0  0  0  0  0  0  0
    3.1318    0.8810    0.0000 C   0  0  0  0  0  0  0  0  0  0  0  0
    2.4191    1.2912    0.0000 C   0  0  0  0  0  0  0  0  0  0  0  0
    4.5617    0.8811    0.0000 O   0  0  0  0  0  0  0  0  0  0  0  0
    4.5617    0.0558    0.0000 C   0  0  0  0  0  0  0  0  0  0  0  0
    5.2791   -0.3589    0.0000 F   0  0  0  0  0  0  0  0  0  0  0  0
    3.8491   -0.3589    0.0000 F   0  0  0  0  0  0  0  0  0  0  0  0
    4.5617   -0.7691    0.0000 F   0  0  0  0  0  0  0  0  0  0  0  0
    4.5617    2.5312    0.0000 F   0  0  0  0  0  0  0  0  0  0  0  0
    0.2764    3.3564    0.0000 O   0  0  0  0  0  0  0  0  0  0  0  0
   -1.1536    3.3564    0.0000 S   0  0  0  0  0  0  0  0  0  0  0  0
   -1.9787    3.3564    0.0000 C   0  0  0  0  0  0  0  0  0  0  0  0
   -2.3936    2.6391    0.0000 C   0  0  0  0  0  0  0  0  0  0  0  0
   -3.2186    2.6391    0.0000 C   0  0  0  0  0  0  0  0  0  0  0  0
   -3.6289    3.3564    0.0000 C   0  0  0  0  0  0  0  0  0  0  0  0
   -3.2186    4.0691    0.0000 C   0  0  0  0  0  0  0  0  0  0  0  0
   -2.3936    4.0691    0.0000 C   0  0  0  0  0  0  0  0  0  0  0  0
   -4.4541    3.3564    0.0000 C   0  0  0  0  0  0  0  0  0  0  0  0
   -4.8689    2.6391    0.0000 F   0  0  0  0  0  0  0  0  0  0  0  0
   -4.8689    4.0691    0.0000 F   0  0  0  0  0  0  0  0  0  0  0  0
   -5.2791    3.3564    0.0000 F   0  0  0  0  0  0  0  0  0  0  0  0
   -1.1536    4.1814    0.0000 O   0  0  0  0  0  0  0  0  0  0  0  0
   -0.3284    3.3564    0.0000 O   0  0  0  0  0  0  0  0  0  0  0  0
   -0.3284   -3.3564    0.0000 C   0  0  0  0  0  0  0  0  0  0  0  0
   -0.3284   -4.1814    0.0000 C   0  0  0  0  0  0  0  0  0  0  0  0
    0.3843   -3.7712    0.0000 C   0  0  0  0  0  0  0  0  0  0  0  0
   -3.0107   -1.9323    0.0000 H   0  0  0  0  0  0  0  0  0  0  0  0
   -2.7964    0.7543    0.0000 H   0  0  0  0  0  0  0  0  0  0  0  0
   -2.7981    1.8252    0.0000 H   0  0  0  0  0  0  0  0  0  0  0  0
   -2.7977    2.6511    0.0000 H   0  0  0  0  0  0  0  0  0  0  0  0
   -1.8715    3.1864    0.0000 H   0  0  0  0  0  0  0  0  0  0  0  0
   -0.4378    3.1864    0.0000 H   0  0  0  0  0  0  0  0  0  0  0  0
    0.4893    0.7543    0.0000 H   0  0  0  0  0  0  0  0  0  0  0  0
   -0.4396    0.2212    0.0000 H   0  0  0  0  0  0  0  0  0  0  0  0
    0.9877    1.1319    0.0000 H   0  0  0  0  0  0  0  0  0  0  0  0
    1.7079    3.6012    0.0000 H   0  0  0  0  0  0  0  0  0  0  0  0
    2.6344    3.0639    0.0000 H   0  0  0  0  0  0  0  0  0  0  0  0
    3.1304    3.5632    0.0000 H   0  0  0  0  0  0  0  0  0  0  0  0
    3.1304   -0.1510    0.0000 H   0  0  0  0  0  0  0  0  0  0  0  0
    1.5257    0.7746    0.0000 H   0  0  0  0  0  0  0  0  0  0  0  0
   -1.8780    1.7452    0.0000 H   0  0  0  0  0  0  0  0  0  0  0  0
   -3.7364    1.7464    0.0000 H   0  0  0  0  0  0  0  0  0  0  0  0
   -3.7352    4.9625    0.0000 H   0  0  0  0  0  0  0  0  0  0  0  0
   -1.8792    4.9638    0.0000 H   0  0  0  0  0  0  0  0  0  0  0  0
    0.2050   -4.2840    0.0000 H   0  0  0  0  0  0  0  0  0  0  0  0
   -0.8640   -5.1077    0.0000 H   0  0  0  0  0  0  0  0  0  0  0  0
    0.4274   -4.9388    0.0000 H   0  0  0  0  0  0  0  0  0  0  0  0
    1.4543   -3.7738    0.0000 H   0  0  0  0  0  0  0  0  0  0  0  0
    0.6643   -2.7385    0.0000 H   0  0  0  0  0  0  0  0  0  0  0  0
  1  2  1  0  0  0  0
  1  9  1  0  0  0  0
  2  3  2  0  0  0  0
  2 48  1  0  0  0  0
  3  4  1  0  0  0  0
  4  5  2  0  0  0  0
  4 45  1  0  0  0  0
  5  6  1  0  0  0  0
  6  1  2  0  0  0  0
  6  7  1  0  0  0  0
  7  8  2  0  0  0  0
  8  9  1  0  0  0  0
  8 10  1  0  0  0  0
 10 15  1  0  0  0  0
 11 10  1  0  0  0  0
 11 49  1  0  0  0  0
 11 50  1  0  0  0  0
 12 11  1  0  0  0  0
 12 51  1  0  0  0  0
 12 52  1  0  0  0  0
 13 12  1  0  0  0  0
 13 32  1  0  0  0  0
 14 13  1  0  0  0  0
 14 16  1  0  0  0  0
 14 53  1  6  0  0  0
 15 14  1  0  0  0  0
 15 54  1  0  0  0  0
 15 55  1  0  0  0  0
 16 17  1  0  0  0  0
 16 31  2  0  0  0  0
 17 18  1  0  0  0  0
 17 56  1  0  0  0  0
 18 19  1  0  0  0  0
 18 57  1  0  0  0  0
 18 58  1  0  0  0  0
 19 24  1  0  0  0  0
 20 19  2  0  0  0  0
 20 59  1  0  0  0  0
 21 20  1  0  0  0  0
 21 30  1  0  0  0  0
 22 21  2  0  0  0  0
 22 25  1  0  0  0  0
 23 22  1  0  0  0  0
 23 60  1  0  0  0  0
 24 23  2  0  0  0  0
 24 61  1  0  0  0  0
 25 26  1  0  0  0  0
 26 27  1  0  0  0  0
 26 28  1  0  0  0  0
 26 29  1  0  0  0  0
 32 33  1  0  0  0  0
 32 43  2  0  0  0  0
 32 44  2  0  0  0  0
 33 38  1  0  0  0  0
 34 33  2  0  0  0  0
 34 62  1  0  0  0  0
 35 34  1  0  0  0  0
 35 63  1  0  0  0  0
 36 35  2  0  0  0  0
 36 39  1  0  0  0  0
 37 36  1  0  0  0  0
 37 64  1  0  0  0  0
 38 37  2  0  0  0  0
 38 65  1  0  0  0  0
 39 40  1  0  0  0  0
 39 41  1  0  0  0  0
 39 42  1  0  0  0  0
 45 47  1  0  0  0  0
 45 66  1  0  0  0  0
 46 45  1  0  0  0  0
 46 47  1  0  0  0  0
 46 67  1  0  0  0  0
 46 68  1  0  0  0  0
 47 69  1  0  0  0  0
 47 70  1  0  0  0  0
M  END
>  <DRUGBANK_ID>
DB13095

>  <COMMON_NAME>
JTK-853

>  <CAS_NUMBER>
954389-09-4

>  <UNII>
WDX8QQD13B

$$$$
