
 OpenBabel10282417072D

 83 87  0  0  0  0  0  0  0  0999 V2000
    4.5080    3.1161    0.0000 O   0  0  0  0  0  0  0  0  0  0  0  0
    6.6316   -2.2666    0.0000 O   0  0  0  0  0  0  0  0  0  0  0  0
    4.5080    1.4661    0.0000 O   0  0  0  0  0  0  0  0  0  0  0  0
    8.0223   -5.5830    0.0000 O   0  0  0  0  0  0  0  0  0  0  0  0
    3.0791    5.5911    0.0000 N   0  0  0  0  0  0  0  0  0  0  0  0
    7.3795    0.6125    0.0000 N   0  0  0  0  0  0  0  0  0  0  0  0
    7.3603   -1.0375    0.0000 N   0  0  0  0  0  0  0  0  0  0  0  0
    8.1365    1.8614    0.0000 N   0  0  0  0  0  0  0  0  0  0  0  0
    8.0605   -2.2832    0.0000 N   0  0  0  0  0  0  0  0  0  0  0  0
    7.3889    3.1447    0.0000 N   0  0  0  0  0  0  0  0  0  0  0  0
    3.0791    6.4162    0.0000 C   0  0  0  0  0  0  0  0  0  0  0  0
    2.3645    5.1786    0.0000 C   0  0  0  0  0  0  0  0  0  0  0  0
    2.3645    6.8287    0.0000 C   0  0  0  0  0  0  0  0  0  0  0  0
    1.6500    5.5911    0.0000 C   0  0  0  0  0  0  0  0  0  0  0  0
    1.6500    6.4162    0.0000 C   0  0  0  0  0  0  0  0  0  0  0  0
    3.7935    5.1786    0.0000 C   0  0  0  0  0  0  0  0  0  0  0  0
    3.7935    4.3536    0.0000 C   0  0  0  0  0  0  0  0  0  0  0  0
    6.6602    0.2083    0.0000 C   0  0  0  0  0  0  0  0  0  0  0  0
    8.0891    0.1917    0.0000 C   0  0  0  0  0  0  0  0  0  0  0  0
    6.6506   -0.6167    0.0000 C   0  0  0  0  0  0  0  0  0  0  0  0
    8.0796   -0.6332    0.0000 C   0  0  0  0  0  0  0  0  0  0  0  0
    4.5080    3.9411    0.0000 C   0  0  0  0  0  0  0  0  0  0  0  0
    7.3889    1.4374    0.0000 C   0  0  0  0  0  0  0  0  0  0  0  0
    6.6515    1.8786    0.0000 C   0  0  0  0  0  0  0  0  0  0  0  0
    7.3508   -1.8624    0.0000 C   0  0  0  0  0  0  0  0  0  0  0  0
    6.6515    2.7036    0.0000 C   0  0  0  0  0  0  0  0  0  0  0  0
    5.2224    2.7036    0.0000 C   0  0  0  0  0  0  0  0  0  0  0  0
    5.9370    1.4661    0.0000 C   0  0  0  0  0  0  0  0  0  0  0  0
    5.9370    3.1161    0.0000 C   0  0  0  0  0  0  0  0  0  0  0  0
    5.2224    1.8786    0.0000 C   0  0  0  0  0  0  0  0  0  0  0  0
    8.1365    2.7207    0.0000 C   0  0  0  0  0  0  0  0  0  0  0  0
    8.0509   -3.1081    0.0000 C   0  0  0  0  0  0  0  0  0  0  0  0
    8.7606   -3.5289    0.0000 C   0  0  0  0  0  0  0  0  0  0  0  0
    7.3317   -3.5123    0.0000 C   0  0  0  0  0  0  0  0  0  0  0  0
    3.7935    1.8786    0.0000 C   0  0  0  0  0  0  0  0  0  0  0  0
    8.7511   -4.3538    0.0000 C   0  0  0  0  0  0  0  0  0  0  0  0
    7.3222   -4.3373    0.0000 C   0  0  0  0  0  0  0  0  0  0  0  0
    8.0319   -4.7580    0.0000 C   0  0  0  0  0  0  0  0  0  0  0  0
    8.7320   -6.0037    0.0000 C   0  0  0  0  0  0  0  0  0  0  0  0
    8.7224   -6.8287    0.0000 C   0  0  0  0  0  0  0  0  0  0  0  0
    9.4512   -5.5995    0.0000 C   0  0  0  0  0  0  0  0  0  0  0  0
    8.9188   -1.8009    0.0000 H   0  0  0  0  0  0  0  0  0  0  0  0
    4.0057    6.9512    0.0000 H   0  0  0  0  0  0  0  0  0  0  0  0
    3.0790    7.4862    0.0000 H   0  0  0  0  0  0  0  0  0  0  0  0
    2.3645    4.1086    0.0000 H   0  0  0  0  0  0  0  0  0  0  0  0
    1.4378    4.6436    0.0000 H   0  0  0  0  0  0  0  0  0  0  0  0
    2.3645    7.8987    0.0000 H   0  0  0  0  0  0  0  0  0  0  0  0
    1.4378    7.3637    0.0000 H   0  0  0  0  0  0  0  0  0  0  0  0
    0.7234    5.0561    0.0000 H   0  0  0  0  0  0  0  0  0  0  0  0
    0.7234    6.1261    0.0000 H   0  0  0  0  0  0  0  0  0  0  0  0
    0.7234    6.9512    0.0000 H   0  0  0  0  0  0  0  0  0  0  0  0
    0.7234    5.8812    0.0000 H   0  0  0  0  0  0  0  0  0  0  0  0
    4.7202    5.7136    0.0000 H   0  0  0  0  0  0  0  0  0  0  0  0
    4.7201    4.6436    0.0000 H   0  0  0  0  0  0  0  0  0  0  0  0
    2.8669    3.8186    0.0000 H   0  0  0  0  0  0  0  0  0  0  0  0
    3.7935    3.2836    0.0000 H   0  0  0  0  0  0  0  0  0  0  0  0
    5.7398    0.7540    0.0000 H   0  0  0  0  0  0  0  0  0  0  0  0
    5.7274   -0.3159    0.0000 H   0  0  0  0  0  0  0  0  0  0  0  0
    9.0219    0.7159    0.0000 H   0  0  0  0  0  0  0  0  0  0  0  0
    9.0095   -0.3540    0.0000 H   0  0  0  0  0  0  0  0  0  0  0  0
    5.7178   -1.1409    0.0000 H   0  0  0  0  0  0  0  0  0  0  0  0
    5.7302   -0.0710    0.0000 H   0  0  0  0  0  0  0  0  0  0  0  0
    9.0000   -1.1788    0.0000 H   0  0  0  0  0  0  0  0  0  0  0  0
    9.0123   -0.1089    0.0000 H   0  0  0  0  0  0  0  0  0  0  0  0
    5.4346    4.4761    0.0000 H   0  0  0  0  0  0  0  0  0  0  0  0
    4.5080    5.0111    0.0000 H   0  0  0  0  0  0  0  0  0  0  0  0
    5.9370    0.4341    0.0000 H   0  0  0  0  0  0  0  0  0  0  0  0
    5.9370    4.1481    0.0000 H   0  0  0  0  0  0  0  0  0  0  0  0
    9.0282    3.2401    0.0000 H   0  0  0  0  0  0  0  0  0  0  0  0
    9.6602   -3.0233    0.0000 H   0  0  0  0  0  0  0  0  0  0  0  0
    6.4440   -2.9860    0.0000 H   0  0  0  0  0  0  0  0  0  0  0  0
    3.7935    2.9486    0.0000 H   0  0  0  0  0  0  0  0  0  0  0  0
    2.8669    1.3436    0.0000 H   0  0  0  0  0  0  0  0  0  0  0  0
    2.8668    2.4136    0.0000 H   0  0  0  0  0  0  0  0  0  0  0  0
    9.6388   -4.8801    0.0000 H   0  0  0  0  0  0  0  0  0  0  0  0
    6.4226   -4.8430    0.0000 H   0  0  0  0  0  0  0  0  0  0  0  0
    9.6524   -6.5494    0.0000 H   0  0  0  0  0  0  0  0  0  0  0  0
    7.7896   -7.3529    0.0000 H   0  0  0  0  0  0  0  0  0  0  0  0
    9.6428   -7.3744    0.0000 H   0  0  0  0  0  0  0  0  0  0  0  0
    8.7099   -7.8986    0.0000 H   0  0  0  0  0  0  0  0  0  0  0  0
   10.3716   -6.1452    0.0000 H   0  0  0  0  0  0  0  0  0  0  0  0
    9.4636   -4.5296    0.0000 H   0  0  0  0  0  0  0  0  0  0  0  0
   10.3840   -5.0753    0.0000 H   0  0  0  0  0  0  0  0  0  0  0  0
  1 22  1  0  0  0  0
  1 27  1  0  0  0  0
  2 25  2  0  0  0  0
  3 30  1  0  0  0  0
  3 35  1  0  0  0  0
  4 38  1  0  0  0  0
  4 39  1  0  0  0  0
  5 11  1  0  0  0  0
  5 12  1  0  0  0  0
  5 16  1  0  0  0  0
  6 18  1  0  0  0  0
  6 19  1  0  0  0  0
  6 23  1  0  0  0  0
  7 20  1  0  0  0  0
  7 21  1  0  0  0  0
  7 25  1  0  0  0  0
  8 23  2  0  0  0  0
  8 31  1  0  0  0  0
  9 25  1  0  0  0  0
  9 32  1  0  0  0  0
  9 42  1  0  0  0  0
 10 26  1  0  0  0  0
 10 31  2  0  0  0  0
 11 13  1  0  0  0  0
 11 43  1  0  0  0  0
 11 44  1  0  0  0  0
 12 14  1  0  0  0  0
 12 45  1  0  0  0  0
 12 46  1  0  0  0  0
 13 15  1  0  0  0  0
 13 47  1  0  0  0  0
 13 48  1  0  0  0  0
 14 15  1  0  0  0  0
 14 49  1  0  0  0  0
 14 50  1  0  0  0  0
 15 51  1  0  0  0  0
 15 52  1  0  0  0  0
 16 17  1  0  0  0  0
 16 53  1  0  0  0  0
 16 54  1  0  0  0  0
 17 22  1  0  0  0  0
 17 55  1  0  0  0  0
 17 56  1  0  0  0  0
 18 20  1  0  0  0  0
 18 57  1  0  0  0  0
 18 58  1  0  0  0  0
 19 21  1  0  0  0  0
 19 59  1  0  0  0  0
 19 60  1  0  0  0  0
 20 61  1  0  0  0  0
 20 62  1  0  0  0  0
 21 63  1  0  0  0  0
 21 64  1  0  0  0  0
 22 65  1  0  0  0  0
 22 66  1  0  0  0  0
 23 24  1  0  0  0  0
 24 26  1  0  0  0  0
 24 28  2  0  0  0  0
 26 29  2  0  0  0  0
 27 29  1  0  0  0  0
 27 30  2  0  0  0  0
 28 30  1  0  0  0  0
 28 67  1  0  0  0  0
 29 68  1  0  0  0  0
 31 69  1  0  0  0  0
 32 33  2  0  0  0  0
 32 34  1  0  0  0  0
 33 36  1  0  0  0  0
 33 70  1  0  0  0  0
 34 37  2  0  0  0  0
 34 71  1  0  0  0  0
 35 72  1  0  0  0  0
 35 73  1  0  0  0  0
 35 74  1  0  0  0  0
 36 38  2  0  0  0  0
 36 75  1  0  0  0  0
 37 38  1  0  0  0  0
 37 76  1  0  0  0  0
 39 40  1  0  0  0  0
 39 41  1  0  0  0  0
 39 77  1  0  0  0  0
 40 78  1  0  0  0  0
 40 79  1  0  0  0  0
 40 80  1  0  0  0  0
 41 81  1  0  0  0  0
 41 82  1  0  0  0  0
 41 83  1  0  0  0  0
M  END
>  <DRUGBANK_ID>
DB05465

>  <COMMON_NAME>
Tandutinib

>  <CAS_NUMBER>
387867-13-2

>  <UNII>
E1IO3ICJ9A

>  <SYNONYMS>
Tandutinib

$$$$
