1IG
 OpenBabel10282417072D

 55 57  0  0  0  0  0  0  0  0999 V2000
   -1.9404    2.1404    0.0000 C   0  0  0  0  0  0  0  0  0  0  0  0
   -1.9404    2.9654    0.0000 N   0  0  0  0  0  0  0  0  0  0  0  0
   -1.2259    3.3779    0.0000 C   0  0  0  0  0  0  0  0  0  0  0  0
   -0.5115    2.9654    0.0000 N   0  0  0  0  0  0  0  0  0  0  0  0
   -0.5115    2.1404    0.0000 C   0  0  0  0  0  0  0  0  0  0  0  0
   -1.2259    1.7279    0.0000 C   0  0  0  0  0  0  0  0  0  0  0  0
   -2.6549    1.7279    0.0000 N   0  0  0  0  0  0  0  0  0  0  0  0
   -1.2259    4.2029    0.0000 N   0  0  0  0  0  0  0  0  0  0  0  0
    0.2030    1.7279    0.0000 C   0  0  0  0  0  0  0  0  0  0  0  0
    0.2030    0.9029    0.0000 C   0  0  0  0  0  0  0  0  0  0  0  0
   -1.9404    0.4904    0.0000 C   0  0  0  0  0  0  0  0  0  0  0  0
   -1.9404   -0.3346    0.0000 C   0  0  0  0  0  0  0  0  0  0  0  0
   -1.2259   -0.7471    0.0000 C   0  0  0  0  0  0  0  0  0  0  0  0
   -0.5115   -0.3346    0.0000 C   0  0  0  0  0  0  0  0  0  0  0  0
   -0.5115    0.4904    0.0000 C   0  0  0  0  0  0  0  0  0  0  0  0
   -1.2259    0.9029    0.0000 C   0  0  0  0  0  0  0  0  0  0  0  0
   -1.2259   -1.5721    0.0000 S   0  0  0  0  0  0  0  0  0  0  0  0
   -0.5115   -1.9846    0.0000 C   0  0  0  0  0  0  0  0  0  0  0  0
    0.2030   -1.5721    0.0000 C   0  0  0  0  0  0  0  0  0  0  0  0
    0.2030   -0.7471    0.0000 N   0  0  0  0  0  0  0  0  0  0  0  0
    0.9175   -0.3346    0.0000 C   0  0  0  0  0  0  0  0  0  0  0  0
    1.6319   -0.7471    0.0000 C   0  0  0  0  0  0  0  0  0  0  0  0
    2.3464   -0.3346    0.0000 N   0  0  0  0  0  0  0  0  0  0  0  0
    3.0609   -0.7471    0.0000 C   0  0  0  0  0  0  0  0  0  0  0  0
    3.7753   -0.3346    0.0000 C   0  0  0  0  0  0  0  0  0  0  0  0
   -0.8988   -2.7130    0.0000 C   0  0  0  0  0  0  0  0  0  0  0  0
   -0.1242   -2.7130    0.0000 C   0  0  0  0  0  0  0  0  0  0  0  0
    0.9175   -1.9846    0.0000 O   0  0  0  0  0  0  0  0  0  0  0  0
    3.0609   -1.5721    0.0000 O   0  0  0  0  0  0  0  0  0  0  0  0
   -3.5075    2.2202    0.0000 H   0  0  0  0  0  0  0  0  0  0  0  0
   -2.6549    0.7434    0.0000 H   0  0  0  0  0  0  0  0  0  0  0  0
   -0.3733    4.6951    0.0000 H   0  0  0  0  0  0  0  0  0  0  0  0
   -2.0785    4.6951    0.0000 H   0  0  0  0  0  0  0  0  0  0  0  0
    1.1296    2.2629    0.0000 H   0  0  0  0  0  0  0  0  0  0  0  0
    1.1296    1.1929    0.0000 H   0  0  0  0  0  0  0  0  0  0  0  0
   -0.7236    0.3679    0.0000 H   0  0  0  0  0  0  0  0  0  0  0  0
    1.1296    0.3679    0.0000 H   0  0  0  0  0  0  0  0  0  0  0  0
    0.2030   -0.1671    0.0000 H   0  0  0  0  0  0  0  0  0  0  0  0
   -2.8341    1.0064    0.0000 H   0  0  0  0  0  0  0  0  0  0  0  0
   -2.8341   -0.8506    0.0000 H   0  0  0  0  0  0  0  0  0  0  0  0
    0.3822    1.0064    0.0000 H   0  0  0  0  0  0  0  0  0  0  0  0
    0.9175    0.7354    0.0000 H   0  0  0  0  0  0  0  0  0  0  0  0
    1.8442    0.2004    0.0000 H   0  0  0  0  0  0  0  0  0  0  0  0
    1.6319   -1.8171    0.0000 H   0  0  0  0  0  0  0  0  0  0  0  0
    2.5585   -1.2821    0.0000 H   0  0  0  0  0  0  0  0  0  0  0  0
    2.3464    0.6499    0.0000 H   0  0  0  0  0  0  0  0  0  0  0  0
    4.7020   -0.8696    0.0000 H   0  0  0  0  0  0  0  0  0  0  0  0
    3.7753    0.7354    0.0000 H   0  0  0  0  0  0  0  0  0  0  0  0
    4.7019    0.2004    0.0000 H   0  0  0  0  0  0  0  0  0  0  0  0
   -1.9681   -2.7503    0.0000 H   0  0  0  0  0  0  0  0  0  0  0  0
   -0.3318   -3.6204    0.0000 H   0  0  0  0  0  0  0  0  0  0  0  0
   -1.4011   -3.6578    0.0000 H   0  0  0  0  0  0  0  0  0  0  0  0
   -0.6912   -3.6204    0.0000 H   0  0  0  0  0  0  0  0  0  0  0  0
    0.9451   -2.7503    0.0000 H   0  0  0  0  0  0  0  0  0  0  0  0
    0.3781   -3.6578    0.0000 H   0  0  0  0  0  0  0  0  0  0  0  0
  1  2  1  0  0  0  0
  1  6  2  0  0  0  0
  1  7  1  0  0  0  0
  2  3  2  0  0  0  0
  3  4  1  0  0  0  0
  3  8  1  0  0  0  0
  4  5  2  0  0  0  0
  5  6  1  0  0  0  0
  5  9  1  0  0  0  0
  6 16  1  0  0  0  0
  7 30  1  0  0  0  0
  7 31  1  0  0  0  0
  8 32  1  0  0  0  0
  8 33  1  0  0  0  0
  9 10  1  0  0  0  0
  9 34  1  0  0  0  0
  9 35  1  0  0  0  0
 10 36  1  0  0  0  0
 10 37  1  0  0  0  0
 10 38  1  0  0  0  0
 11 12  1  0  0  0  0
 11 16  2  0  0  0  0
 11 39  1  0  0  0  0
 12 13  2  0  0  0  0
 12 40  1  0  0  0  0
 13 14  1  0  0  0  0
 13 17  1  0  0  0  0
 14 15  2  0  0  0  0
 14 20  1  0  0  0  0
 15 16  1  0  0  0  0
 15 41  1  0  0  0  0
 17 18  1  0  0  0  0
 18 19  1  0  0  0  0
 18 26  1  0  0  0  0
 18 27  1  0  0  0  0
 19 20  1  0  0  0  0
 19 28  2  0  0  0  0
 20 21  1  0  0  0  0
 21 22  1  0  0  0  0
 21 42  1  0  0  0  0
 21 43  1  0  0  0  0
 22 23  1  0  0  0  0
 22 44  1  0  0  0  0
 22 45  1  0  0  0  0
 23 24  1  0  0  0  0
 23 46  1  0  0  0  0
 24 25  1  0  0  0  0
 24 29  2  0  0  0  0
 25 47  1  0  0  0  0
 25 48  1  0  0  0  0
 25 49  1  0  0  0  0
 26 50  1  0  0  0  0
 26 51  1  0  0  0  0
 26 52  1  0  0  0  0
 27 53  1  0  0  0  0
 27 54  1  0  0  0  0
 27 55  1  0  0  0  0
M  END
>  <DRUGBANK_ID>
DB06899

>  <COMMON_NAME>
N-{2-[6-(2,4-DIAMINO-6-ETHYLPYRIMIDIN-5-YL)-2,2-DIMETHYL-3-OXO-2,3-DIHYDRO-4H-1,4-BENZOTHIAZIN-4-YL]ETHYL}ACETAMIDE

$$$$
