
 OpenBabel10282417072D

 67 70  0  0  0  0  0  0  0  0999 V2000
    4.9441   -4.4555    0.0000 C   0  0  0  0  0  0  0  0  0  0  0  0
    4.9441   -3.6305    0.0000 C   0  0  0  0  0  0  0  0  0  0  0  0
    5.6585   -3.2180    0.0000 C   0  0  0  0  0  0  0  0  0  0  0  0
    5.6585   -2.3930    0.0000 C   0  0  0  0  0  0  0  0  0  0  0  0
    6.3730   -1.9805    0.0000 N   0  0  0  0  0  0  0  0  0  0  0  0
    7.0875   -2.3930    0.0000 C   0  0  0  0  0  0  0  0  0  0  0  0
    7.0875   -3.2180    0.0000 C   0  0  0  0  0  0  0  0  0  0  0  0
    7.8020   -3.6305    0.0000 C   0  0  0  0  0  0  0  0  0  0  0  0
    7.8020   -4.4555    0.0000 C   0  0  0  0  0  0  0  0  0  0  0  0
    6.3730   -1.1555    0.0000 C   0  0  0  0  0  0  0  0  0  0  0  0
    7.0875   -0.7430    0.0000 C   0  0  3  0  0  0  0  0  0  0  0  0
    7.0875    0.0820    0.0000 C   0  0  0  0  0  0  0  0  0  0  0  0
    7.8020    0.4945    0.0000 C   0  0  0  0  0  0  0  0  0  0  0  0
    8.5866    0.2395    0.0000 C   0  0  0  0  0  0  0  0  0  0  0  0
    9.0715    0.9070    0.0000 C   0  0  0  0  0  0  0  0  0  0  0  0
    9.8920    0.8207    0.0000 C   0  0  0  0  0  0  0  0  0  0  0  0
   10.2275    0.0671    0.0000 C   0  0  0  0  0  0  0  0  0  0  0  0
    9.7426   -0.6004    0.0000 C   0  0  0  0  0  0  0  0  0  0  0  0
    8.9221   -0.5141    0.0000 C   0  0  0  0  0  0  0  0  0  0  0  0
   11.0480   -0.0192    0.0000 Cl  0  0  0  0  0  0  0  0  0  0  0  0
    8.5866    1.5744    0.0000 C   0  0  0  0  0  0  0  0  0  0  0  0
    8.8415    2.3590    0.0000 C   0  0  0  0  0  0  0  0  0  0  0  0
    8.2895    2.9721    0.0000 C   0  0  0  0  0  0  0  0  0  0  0  0
    7.4825    2.8006    0.0000 C   0  0  0  0  0  0  0  0  0  0  0  0
    6.9305    3.4137    0.0000 C   0  0  0  0  0  0  0  0  0  0  0  0
    7.1854    4.1983    0.0000 C   0  0  0  0  0  0  0  0  0  0  0  0
    7.9924    4.3699    0.0000 C   0  0  0  0  0  0  0  0  0  0  0  0
    8.5444    3.7568    0.0000 C   0  0  0  0  0  0  0  0  0  0  0  0
    6.6334    4.8114    0.0000 Cl  0  0  0  0  0  0  0  0  0  0  0  0
    7.8020    1.3195    0.0000 C   0  0  0  0  0  0  0  0  0  0  0  0
    7.0875    1.7320    0.0000 C   0  0  0  0  0  0  0  0  0  0  0  0
    6.3730    1.3195    0.0000 C   0  0  0  0  0  0  0  0  0  0  0  0
    6.3730    0.4945    0.0000 C   0  0  0  0  0  0  0  0  0  0  0  0
    5.6585    1.7320    0.0000 Cl  0  0  0  0  0  0  0  0  0  0  0  0
    7.8020   -1.1555    0.0000 O   0  0  0  0  0  0  0  0  0  0  0  0
    4.0175   -4.9905    0.0000 H   0  0  0  0  0  0  0  0  0  0  0  0
    5.8707   -4.9905    0.0000 H   0  0  0  0  0  0  0  0  0  0  0  0
    4.9441   -5.5255    0.0000 H   0  0  0  0  0  0  0  0  0  0  0  0
    4.0174   -3.0955    0.0000 H   0  0  0  0  0  0  0  0  0  0  0  0
    4.9441   -2.5605    0.0000 H   0  0  0  0  0  0  0  0  0  0  0  0
    6.5852   -3.7530    0.0000 H   0  0  0  0  0  0  0  0  0  0  0  0
    6.5851   -2.6830    0.0000 H   0  0  0  0  0  0  0  0  0  0  0  0
    4.7319   -1.8580    0.0000 H   0  0  0  0  0  0  0  0  0  0  0  0
    5.6585   -1.3230    0.0000 H   0  0  0  0  0  0  0  0  0  0  0  0
    8.0141   -1.8580    0.0000 H   0  0  0  0  0  0  0  0  0  0  0  0
    8.0141   -2.9280    0.0000 H   0  0  0  0  0  0  0  0  0  0  0  0
    6.1609   -3.7530    0.0000 H   0  0  0  0  0  0  0  0  0  0  0  0
    7.0875   -4.2880    0.0000 H   0  0  0  0  0  0  0  0  0  0  0  0
    8.7286   -3.0955    0.0000 H   0  0  0  0  0  0  0  0  0  0  0  0
    8.7286   -4.1655    0.0000 H   0  0  0  0  0  0  0  0  0  0  0  0
    6.8754   -4.9905    0.0000 H   0  0  0  0  0  0  0  0  0  0  0  0
    8.7286   -4.9905    0.0000 H   0  0  0  0  0  0  0  0  0  0  0  0
    7.8020   -5.5255    0.0000 H   0  0  0  0  0  0  0  0  0  0  0  0
    5.4464   -0.6205    0.0000 H   0  0  0  0  0  0  0  0  0  0  0  0
    6.3730   -0.0855    0.0000 H   0  0  0  0  0  0  0  0  0  0  0  0
    6.1609   -0.2080    0.0000 H   0  0  0  0  0  0  0  0  0  0  0  0
   10.4986    1.6556    0.0000 H   0  0  0  0  0  0  0  0  0  0  0  0
   10.1623   -1.5432    0.0000 H   0  0  0  0  0  0  0  0  0  0  0  0
    8.3155   -1.3490    0.0000 H   0  0  0  0  0  0  0  0  0  0  0  0
    9.8509    2.5736    0.0000 H   0  0  0  0  0  0  0  0  0  0  0  0
    7.1636    1.8191    0.0000 H   0  0  0  0  0  0  0  0  0  0  0  0
    5.9211    3.1991    0.0000 H   0  0  0  0  0  0  0  0  0  0  0  0
    8.3113    5.3514    0.0000 H   0  0  0  0  0  0  0  0  0  0  0  0
    9.5538    3.9714    0.0000 H   0  0  0  0  0  0  0  0  0  0  0  0
    7.0875    2.7640    0.0000 H   0  0  0  0  0  0  0  0  0  0  0  0
    5.4793   -0.0215    0.0000 H   0  0  0  0  0  0  0  0  0  0  0  0
    7.8020   -2.1255    0.0000 H   0  0  0  0  0  0  0  0  0  0  0  0
  1  2  1  0  0  0  0
  1 36  1  0  0  0  0
  1 37  1  0  0  0  0
  1 38  1  0  0  0  0
  2  3  1  0  0  0  0
  2 39  1  0  0  0  0
  2 40  1  0  0  0  0
  3  4  1  0  0  0  0
  3 41  1  0  0  0  0
  3 42  1  0  0  0  0
  4  5  1  0  0  0  0
  4 43  1  0  0  0  0
  4 44  1  0  0  0  0
  5  6  1  0  0  0  0
  5 10  1  0  0  0  0
  6  7  1  0  0  0  0
  6 45  1  0  0  0  0
  6 46  1  0  0  0  0
  7  8  1  0  0  0  0
  7 47  1  0  0  0  0
  7 48  1  0  0  0  0
  8  9  1  0  0  0  0
  8 49  1  0  0  0  0
  8 50  1  0  0  0  0
  9 51  1  0  0  0  0
  9 52  1  0  0  0  0
  9 53  1  0  0  0  0
 10 11  1  0  0  0  0
 10 54  1  0  0  0  0
 10 55  1  0  0  0  0
 11 12  1  0  0  0  0
 11 35  1  0  0  0  0
 11 56  1  0  0  0  0
 12 13  2  0  0  0  0
 12 33  1  0  0  0  0
 13 14  1  0  0  0  0
 13 30  1  0  0  0  0
 14 15  2  0  0  0  0
 14 19  1  0  0  0  0
 15 16  1  0  0  0  0
 15 21  1  0  0  0  0
 16 17  2  0  0  0  0
 16 57  1  0  0  0  0
 17 18  1  0  0  0  0
 17 20  1  0  0  0  0
 18 19  2  0  0  0  0
 18 58  1  0  0  0  0
 19 59  1  0  0  0  0
 21 22  2  0  0  0  0
 21 30  1  0  0  0  0
 22 23  1  0  0  0  0
 22 60  1  0  0  0  0
 23 24  2  0  0  0  0
 23 28  1  0  0  0  0
 24 25  1  0  0  0  0
 24 61  1  0  0  0  0
 25 26  2  0  0  0  0
 25 62  1  0  0  0  0
 26 27  1  0  0  0  0
 26 29  1  0  0  0  0
 27 28  2  0  0  0  0
 27 63  1  0  0  0  0
 28 64  1  0  0  0  0
 30 31  2  0  0  0  0
 31 32  1  0  0  0  0
 31 65  1  0  0  0  0
 32 33  2  0  0  0  0
 32 34  1  0  0  0  0
 33 66  1  0  0  0  0
 35 67  1  0  0  0  0
M  END
>  <DRUGBANK_ID>
DB06708

>  <COMMON_NAME>
Lumefantrine

>  <CAS_NUMBER>
82186-77-4

>  <UNII>
F38R0JR742

>  <SYNONYMS>
(±)-2,7-Dichloro-9-((Z)-p-chlorobenzylidene)-α-((dibutylamino)methyl)fluorene-4-methanol; 2-Dibutylamino-1-[2,7-dichloro-9-(4-chloro-benzylidene)-9H-fluoren-4-yl]-ethanol; 2-Dibutylamino-1-{2,7-dichloro-9-[1-(4-chloro-phenyl)-meth-(Z)-ylidene]-9H-fluoren-4-yl}-ethanol; Benflumetol; dl-Benflumelol; Lumefantrine

$$$$
