
 OpenBabel10282417072D

 30 30  0  0  0  0  0  0  0  0999 V2000
    0.7557    1.3210    0.0000 C   0  0  0  0  0  0  0  0  0  0  0  0
    1.2536    0.6839    0.0000 C   0  0  0  0  0  0  0  0  0  0  0  0
    1.5282    0.1189    0.0000 C   0  0  0  0  0  0  0  0  0  0  0  0
    0.8342   -0.3272    0.0000 C   0  0  0  0  0  0  0  0  0  0  0  0
    0.1009    0.0509    0.0000 C   0  0  0  0  0  0  0  0  0  0  0  0
    0.0617    0.8750    0.0000 C   0  0  0  0  0  0  0  0  0  0  0  0
   -0.7251    1.3446    0.0000 F   0  0  0  0  0  0  0  0  0  0  0  0
   -0.8037    0.6163    0.0000 F   0  0  0  0  0  0  0  0  0  0  0  0
   -0.7635   -0.2230    0.0000 F   0  0  0  0  0  0  0  0  0  0  0  0
   -0.2889   -0.7582    0.0000 F   0  0  0  0  0  0  0  0  0  0  0  0
    1.1784   -1.1665    0.0000 F   0  0  0  0  0  0  0  0  0  0  0  0
    0.4460   -1.1426    0.0000 F   0  0  0  0  0  0  0  0  0  0  0  0
    2.3961   -0.2148    0.0000 F   0  0  0  0  0  0  0  0  0  0  0  0
    1.8706   -0.7203    0.0000 F   0  0  0  0  0  0  0  0  0  0  0  0
    1.9286    1.1086    0.0000 F   0  0  0  0  0  0  0  0  0  0  0  0
    2.1948    0.5279    0.0000 F   0  0  0  0  0  0  0  0  0  0  0  0
    0.9544    2.4218    0.0000 C   0  0  0  0  0  0  0  0  0  0  0  0
    1.0998    3.3536    0.0000 C   0  0  0  0  0  0  0  0  0  0  0  0
    1.7089    4.0393    0.0000 F   0  0  0  0  0  0  0  0  0  0  0  0
    1.8955    3.0742    0.0000 F   0  0  0  0  0  0  0  0  0  0  0  0
    0.3239    3.9269    0.0000 F   0  0  0  0  0  0  0  0  0  0  0  0
    1.9203    2.3635    0.0000 C   0  0  0  0  0  0  0  0  0  0  0  0
    2.8486    2.0591    0.0000 F   0  0  0  0  0  0  0  0  0  0  0  0
    2.4673    3.2124    0.0000 F   0  0  0  0  0  0  0  0  0  0  0  0
    1.3323    1.6533    0.0000 F   0  0  0  0  0  0  0  0  0  0  0  0
    0.3273    3.2063    0.0000 C   0  0  0  0  0  0  0  0  0  0  0  0
   -0.4497    3.6786    0.0000 F   0  0  0  0  0  0  0  0  0  0  0  0
    0.8451    4.0421    0.0000 F   0  0  0  0  0  0  0  0  0  0  0  0
   -0.5362    2.9502    0.0000 F   0  0  0  0  0  0  0  0  0  0  0  0
    0.0202    1.6782    0.0000 F   0  0  0  0  0  0  0  0  0  0  0  0
  1  2  1  0  0  0  0
  1  6  1  0  0  0  0
  1 17  1  0  0  0  0
  1 30  1  0  0  0  0
  2  3  1  0  0  0  0
  2 15  1  0  0  0  0
  2 16  1  0  0  0  0
  3  4  1  0  0  0  0
  3 13  1  0  0  0  0
  3 14  1  0  0  0  0
  4  5  1  0  0  0  0
  4 11  1  0  0  0  0
  4 12  1  0  0  0  0
  5  6  1  0  0  0  0
  5  9  1  0  0  0  0
  5 10  1  0  0  0  0
  6  7  1  0  0  0  0
  6  8  1  0  0  0  0
 17 18  1  0  0  0  0
 17 22  1  0  0  0  0
 17 26  1  0  0  0  0
 18 19  1  0  0  0  0
 18 20  1  0  0  0  0
 18 21  1  0  0  0  0
 22 23  1  0  0  0  0
 22 24  1  0  0  0  0
 22 25  1  0  0  0  0
 26 27  1  0  0  0  0
 26 28  1  0  0  0  0
 26 29  1  0  0  0  0
M  END
>  <DRUGBANK_ID>
DB12477

>  <COMMON_NAME>
Perfluoro tert-butylcyclohexane

>  <CAS_NUMBER>
84808-64-0

>  <UNII>
3ZX1Z33VUU

>  <SYNONYMS>
Oxycyte

$$$$
