
 OpenBabel10282417072D

 48 49  0  0  0  0  0  0  0  0999 V2000
    2.9747   -2.0410    0.0000 N   0  0  0  0  0  0  0  0  0  0  0  0
    2.9747   -3.3438    0.0000 S   0  0  0  0  0  0  0  0  0  0  0  0
    3.4958   -2.6924    0.0000 C   0  0  0  0  0  0  0  0  0  0  0  0
    2.1930   -2.2581    0.0000 C   0  0  0  0  0  0  0  0  0  0  0  0
    2.1930   -3.1267    0.0000 C   0  0  0  0  0  0  0  0  0  0  0  0
    1.4981   -3.5175    0.0000 C   0  0  0  0  0  0  0  0  0  0  0  0
    0.8033   -3.1267    0.0000 C   0  0  0  0  0  0  0  0  0  0  0  0
    0.8033   -2.2581    0.0000 C   0  0  0  0  0  0  0  0  0  0  0  0
    1.4981   -1.8673    0.0000 C   0  0  0  0  0  0  0  0  0  0  0  0
    1.4547   -1.0422    0.0000 O   0  0  0  0  0  0  0  0  0  0  0  0
    1.4547   -4.3426    0.0000 O   0  0  0  0  0  0  0  0  0  0  0  0
    0.0651   -3.5175    0.0000 O   0  0  0  0  0  0  0  0  0  0  0  0
    0.0651   -1.8673    0.0000 C   0  0  0  0  0  0  0  0  0  0  0  0
    0.0651   -1.0422    0.0000 C   0  0  0  0  0  0  0  0  0  0  0  0
   -0.6296   -0.6079    0.0000 C   0  0  0  0  0  0  0  0  0  0  0  0
   -0.6296    0.2171    0.0000 C   0  0  0  0  0  0  0  0  0  0  0  0
   -1.3679    0.6513    0.0000 C   0  0  0  0  0  0  0  0  0  0  0  0
   -1.3679    1.4764    0.0000 C   0  0  0  0  0  0  0  0  0  0  0  0
   -2.0627    1.8673    0.0000 C   0  0  0  0  0  0  0  0  0  0  0  0
   -2.0627    2.6924    0.0000 C   0  0  0  0  0  0  0  0  0  0  0  0
   -2.7575    3.1267    0.0000 C   0  0  0  0  0  0  0  0  0  0  0  0
   -2.7575    3.9517    0.0000 C   0  0  0  0  0  0  0  0  0  0  0  0
   -3.4958    4.3426    0.0000 C   0  0  0  0  0  0  0  0  0  0  0  0
    4.5278   -2.6924    0.0000 H   0  0  0  0  0  0  0  0  0  0  0  0
   -0.7286   -3.0195    0.0000 H   0  0  0  0  0  0  0  0  0  0  0  0
   -0.8516   -2.4192    0.0000 H   0  0  0  0  0  0  0  0  0  0  0  0
   -0.8664   -1.3408    0.0000 H   0  0  0  0  0  0  0  0  0  0  0  0
    1.0010   -0.5236    0.0000 H   0  0  0  0  0  0  0  0  0  0  0  0
    0.0933    0.0274    0.0000 H   0  0  0  0  0  0  0  0  0  0  0  0
   -1.5655   -1.1265    0.0000 H   0  0  0  0  0  0  0  0  0  0  0  0
   -1.5515   -0.0648    0.0000 H   0  0  0  0  0  0  0  0  0  0  0  0
    0.2992    0.7484    0.0000 H   0  0  0  0  0  0  0  0  0  0  0  0
   -0.6232    1.2871    0.0000 H   0  0  0  0  0  0  0  0  0  0  0  0
   -2.2967    0.1200    0.0000 H   0  0  0  0  0  0  0  0  0  0  0  0
   -2.2935    1.1882    0.0000 H   0  0  0  0  0  0  0  0  0  0  0  0
   -0.4442    2.0165    0.0000 H   0  0  0  0  0  0  0  0  0  0  0  0
   -1.3768    2.5464    0.0000 H   0  0  0  0  0  0  0  0  0  0  0  0
   -2.9864    1.3272    0.0000 H   0  0  0  0  0  0  0  0  0  0  0  0
   -2.9908    2.3997    0.0000 H   0  0  0  0  0  0  0  0  0  0  0  0
   -1.1268    3.2111    0.0000 H   0  0  0  0  0  0  0  0  0  0  0  0
   -2.0346    3.7620    0.0000 H   0  0  0  0  0  0  0  0  0  0  0  0
   -3.6934    2.6080    0.0000 H   0  0  0  0  0  0  0  0  0  0  0  0
   -3.6794    3.6698    0.0000 H   0  0  0  0  0  0  0  0  0  0  0  0
   -1.8408    4.5036    0.0000 H   0  0  0  0  0  0  0  0  0  0  0  0
   -2.7869    5.0213    0.0000 H   0  0  0  0  0  0  0  0  0  0  0  0
   -3.5350    5.4119    0.0000 H   0  0  0  0  0  0  0  0  0  0  0  0
   -4.4022    3.7740    0.0000 H   0  0  0  0  0  0  0  0  0  0  0  0
   -4.4414    4.8433    0.0000 H   0  0  0  0  0  0  0  0  0  0  0  0
  1  3  2  0  0  0  0
  1  4  1  0  0  0  0
  2  3  1  0  0  0  0
  2  5  1  0  0  0  0
  3 24  1  0  0  0  0
  4  5  2  0  0  0  0
  4  9  1  0  0  0  0
  5  6  1  0  0  0  0
  6  7  1  0  0  0  0
  6 11  2  0  0  0  0
  7  8  2  0  0  0  0
  7 12  1  0  0  0  0
  8  9  1  0  0  0  0
  8 13  1  0  0  0  0
  9 10  2  0  0  0  0
 12 25  1  0  0  0  0
 13 14  1  0  0  0  0
 13 26  1  0  0  0  0
 13 27  1  0  0  0  0
 14 15  1  0  0  0  0
 14 28  1  0  0  0  0
 14 29  1  0  0  0  0
 15 16  1  0  0  0  0
 15 30  1  0  0  0  0
 15 31  1  0  0  0  0
 16 17  1  0  0  0  0
 16 32  1  0  0  0  0
 16 33  1  0  0  0  0
 17 18  1  0  0  0  0
 17 34  1  0  0  0  0
 17 35  1  0  0  0  0
 18 19  1  0  0  0  0
 18 36  1  0  0  0  0
 18 37  1  0  0  0  0
 19 20  1  0  0  0  0
 19 38  1  0  0  0  0
 19 39  1  0  0  0  0
 20 21  1  0  0  0  0
 20 40  1  0  0  0  0
 20 41  1  0  0  0  0
 21 22  1  0  0  0  0
 21 42  1  0  0  0  0
 21 43  1  0  0  0  0
 22 23  1  0  0  0  0
 22 44  1  0  0  0  0
 22 45  1  0  0  0  0
 23 46  1  0  0  0  0
 23 47  1  0  0  0  0
 23 48  1  0  0  0  0
M  END
>  <DRUGBANK_ID>
DB04799

>  <COMMON_NAME>
6-Hydroxy-5-undecyl-4,7-benzothiazoledione

>  <CAS_NUMBER>
43152-58-5

>  <SYNONYMS>
5-n-undecyl-6-hydroxy-4,7-dioxobenzothiazole; 6-hydroxy-5-undecyl-1,3-benzothiazole-4,7-dione; 6-Hydroxy-5-undecyl-4,7-benzothiazoledione; UHDBT

$$$$
