
 OpenBabel10282417072D

 82 87  0  0  1  0  0  0  0  0999 V2000
    7.8592    7.0125    0.0000 C   0  0  0  0  0  0  0  0  0  0  0  0
    2.8579    4.9500    0.0000 C   0  0  0  0  0  0  0  0  0  0  0  0
   10.0026    8.2500    0.0000 C   0  0  0  0  0  0  0  0  0  0  0  0
    9.2881    8.6625    0.0000 C   0  0  0  0  0  0  0  0  0  0  0  0
    1.4289    2.4750    0.0000 C   0  0  0  0  0  0  0  0  0  0  0  0
    2.1434    2.0625    0.0000 C   0  0  0  0  0  0  0  0  0  0  0  0
    1.4289    3.3000    0.0000 C   0  0  0  0  0  0  0  0  0  0  0  0
   10.0026    7.4250    0.0000 C   0  0  0  0  0  0  0  0  0  0  0  0
    8.5737    8.2500    0.0000 C   0  0  0  0  0  0  0  0  0  0  0  0
    7.8592    4.5375    0.0000 C   0  0  0  0  0  0  0  0  0  0  0  0
    6.4302    2.0625    0.0000 C   0  0  0  0  0  0  0  0  0  0  0  0
    7.1447    3.3000    0.0000 C   0  0  0  0  0  0  0  0  0  0  0  0
    7.1946    1.0469    0.0000 C   0  0  0  0  0  0  0  0  0  0  0  0
    7.8592    6.1875    0.0000 C   0  0  1  0  0  0  0  0  0  0  0  0
    2.8579    2.4750    0.0000 C   0  0  0  0  0  0  0  0  0  0  0  0
    5.7158    2.4750    0.0000 C   0  0  0  0  0  0  0  0  0  0  0  0
    8.5737    4.9500    0.0000 C   0  0  1  0  0  0  0  0  0  0  0  0
    2.1434    3.7125    0.0000 C   0  0  0  0  0  0  0  0  0  0  0  0
    6.4302    3.7125    0.0000 C   0  0  1  0  0  0  0  0  0  0  0  0
    7.5819    1.7754    0.0000 C   0  0  0  0  0  0  0  0  0  0  0  0
    9.2881    7.0125    0.0000 C   0  0  2  0  0  0  0  0  0  0  0  0
    7.1447    4.9500    0.0000 C   0  0  1  0  0  0  0  0  0  0  0  0
    2.8579    3.3000    0.0000 C   0  0  0  0  0  0  0  0  0  0  0  0
    5.7158    3.3000    0.0000 C   0  0  0  0  0  0  0  0  0  0  0  0
    4.2868    2.4750    0.0000 C   0  0  0  0  0  0  0  0  0  0  0  0
    4.2868    3.3000    0.0000 C   0  0  0  0  0  0  0  0  0  0  0  0
    3.5724    2.0625    0.0000 C   0  0  0  0  0  0  0  0  0  0  0  0
    5.0013    2.0625    0.0000 C   0  0  0  0  0  0  0  0  0  0  0  0
    3.5724    3.7125    0.0000 C   0  0  0  0  0  0  0  0  0  0  0  0
    5.0013    3.7125    0.0000 C   0  0  0  0  0  0  0  0  0  0  0  0
    8.5737    5.7750    0.0000 C   0  0  2  0  0  0  0  0  0  0  0  0
    7.1447    2.4750    0.0000 C   0  0  2  0  0  0  0  0  0  0  0  0
    9.2881    4.5375    0.0000 N   0  0  0  0  0  0  0  0  0  0  0  0
    6.3701    1.0181    0.0000 O   0  0  0  0  0  0  0  0  0  0  0  0
    8.4064    1.8042    0.0000 O   0  0  0  0  0  0  0  0  0  0  0  0
    3.5724    1.2375    0.0000 O   0  0  0  0  0  0  0  0  0  0  0  0
    5.0013    1.2375    0.0000 O   0  0  0  0  0  0  0  0  0  0  0  0
    3.5724    4.5375    0.0000 O   0  0  0  0  0  0  0  0  0  0  0  0
    5.0013    4.5375    0.0000 O   0  0  0  0  0  0  0  0  0  0  0  0
    7.9692    2.4462    0.0000 O   0  0  0  0  0  0  0  0  0  0  0  0
    2.1434    4.5375    0.0000 O   0  0  0  0  0  0  0  0  0  0  0  0
    8.5737    7.4250    0.0000 O   0  0  0  0  0  0  0  0  0  0  0  0
    7.1447    5.7750    0.0000 O   0  0  0  0  0  0  0  0  0  0  0  0
    6.4302    4.5375    0.0000 O   0  0  0  0  0  0  0  0  0  0  0  0
    9.2881    6.1875    0.0000 O   0  0  0  0  0  0  0  0  0  0  0  0
    8.5737    6.6000    0.0000 H   0  0  0  0  0  0  0  0  0  0  0  0
    9.2881    5.3625    0.0000 H   0  0  0  0  0  0  0  0  0  0  0  0
    5.7158    4.1250    0.0000 H   0  0  0  0  0  0  0  0  0  0  0  0
   10.0026    6.6000    0.0000 H   0  0  0  0  0  0  0  0  0  0  0  0
    6.4302    5.3625    0.0000 H   0  0  0  0  0  0  0  0  0  0  0  0
    7.8592    5.3625    0.0000 H   0  0  0  0  0  0  0  0  0  0  0  0
    8.7858    7.5475    0.0000 H   0  0  0  0  0  0  0  0  0  0  0  0
    6.9326    7.5475    0.0000 H   0  0  0  0  0  0  0  0  0  0  0  0
    7.8592    8.0825    0.0000 H   0  0  0  0  0  0  0  0  0  0  0  0
    3.7845    4.4150    0.0000 H   0  0  0  0  0  0  0  0  0  0  0  0
    2.8579    6.0200    0.0000 H   0  0  0  0  0  0  0  0  0  0  0  0
    3.7846    5.4850    0.0000 H   0  0  0  0  0  0  0  0  0  0  0  0
   10.9292    8.7850    0.0000 H   0  0  0  0  0  0  0  0  0  0  0  0
   10.9292    7.7150    0.0000 H   0  0  0  0  0  0  0  0  0  0  0  0
    9.2881    9.7325    0.0000 H   0  0  0  0  0  0  0  0  0  0  0  0
    8.3614    9.1975    0.0000 H   0  0  0  0  0  0  0  0  0  0  0  0
    0.5352    1.9590    0.0000 H   0  0  0  0  0  0  0  0  0  0  0  0
    2.1434    1.0305    0.0000 H   0  0  0  0  0  0  0  0  0  0  0  0
    0.5352    3.8160    0.0000 H   0  0  0  0  0  0  0  0  0  0  0  0
   10.9292    6.8900    0.0000 H   0  0  0  0  0  0  0  0  0  0  0  0
   10.0026    6.3550    0.0000 H   0  0  0  0  0  0  0  0  0  0  0  0
    7.6470    8.7850    0.0000 H   0  0  0  0  0  0  0  0  0  0  0  0
    7.6471    7.7150    0.0000 H   0  0  0  0  0  0  0  0  0  0  0  0
    7.8592    3.4675    0.0000 H   0  0  0  0  0  0  0  0  0  0  0  0
    6.9326    4.0025    0.0000 H   0  0  0  0  0  0  0  0  0  0  0  0
    6.4302    0.9925    0.0000 H   0  0  0  0  0  0  0  0  0  0  0  0
    7.3568    1.5275    0.0000 H   0  0  0  0  0  0  0  0  0  0  0  0
    8.0713    3.8350    0.0000 H   0  0  0  0  0  0  0  0  0  0  0  0
    8.0713    2.7650    0.0000 H   0  0  0  0  0  0  0  0  0  0  0  0
    7.7616    0.1395    0.0000 H   0  0  0  0  0  0  0  0  0  0  0  0
    6.6923    0.1021    0.0000 H   0  0  0  0  0  0  0  0  0  0  0  0
    9.2881    3.5175    0.0000 H   0  0  0  0  0  0  0  0  0  0  0  0
   10.1715    5.0475    0.0000 H   0  0  0  0  0  0  0  0  0  0  0  0
    5.8561    1.8407    0.0000 H   0  0  0  0  0  0  0  0  0  0  0  0
    4.1898    0.7690    0.0000 H   0  0  0  0  0  0  0  0  0  0  0  0
    5.8128    5.0060    0.0000 H   0  0  0  0  0  0  0  0  0  0  0  0
    8.4246    1.5897    0.0000 H   0  0  0  0  0  0  0  0  0  0  0  0
  1 52  1  0  0  0  0
  1 53  1  0  0  0  0
  1 54  1  0  0  0  0
  2 55  1  0  0  0  0
  2 56  1  0  0  0  0
  2 57  1  0  0  0  0
  3 58  1  0  0  0  0
  3 59  1  0  0  0  0
  4  3  1  0  0  0  0
  4 60  1  0  0  0  0
  4 61  1  0  0  0  0
  5 62  1  0  0  0  0
  6  5  2  0  0  0  0
  6 63  1  0  0  0  0
  7  5  1  0  0  0  0
  7 64  1  0  0  0  0
  8  3  1  0  0  0  0
  8 65  1  0  0  0  0
  8 66  1  0  0  0  0
  9  4  1  0  0  0  0
  9 67  1  0  0  0  0
  9 68  1  0  0  0  0
 10 69  1  0  0  0  0
 10 70  1  0  0  0  0
 11 71  1  0  0  0  0
 11 72  1  0  0  0  0
 12 73  1  0  0  0  0
 12 74  1  0  0  0  0
 13 75  1  0  0  0  0
 13 76  1  0  0  0  0
 14  1  1  0  0  0  0
 14 46  1  6  0  0  0
 15  6  1  0  0  0  0
 16 11  1  0  0  0  0
 17 10  1  0  0  0  0
 17 33  1  0  0  0  0
 17 47  1  6  0  0  0
 18  7  2  0  0  0  0
 19 12  1  0  0  0  0
 19 44  1  0  0  0  0
 19 48  1  6  0  0  0
 20 13  1  0  0  0  0
 21  8  1  0  0  0  0
 21 45  1  0  0  0  0
 21 49  1  6  0  0  0
 22 10  1  0  0  0  0
 22 44  1  0  0  0  0
 22 50  1  1  0  0  0
 23 15  2  0  0  0  0
 23 18  1  0  0  0  0
 24 16  1  0  0  0  0
 24 19  1  0  0  0  0
 26 25  2  0  0  0  0
 27 15  1  0  0  0  0
 27 25  1  0  0  0  0
 28 16  2  0  0  0  0
 28 25  1  0  0  0  0
 29 23  1  0  0  0  0
 29 26  1  0  0  0  0
 30 24  2  0  0  0  0
 30 26  1  0  0  0  0
 31 14  1  0  0  0  0
 31 17  1  0  0  0  0
 31 45  1  0  0  0  0
 31 51  1  6  0  0  0
 32 11  1  0  0  0  0
 32 12  1  0  0  0  0
 32 20  1  6  0  0  0
 32 40  1  0  0  0  0
 33 77  1  0  0  0  0
 33 78  1  0  0  0  0
 34 13  1  0  0  0  0
 34 79  1  0  0  0  0
 35 20  2  0  0  0  0
 36 27  2  0  0  0  0
 37 28  1  0  0  0  0
 37 80  1  0  0  0  0
 38 29  2  0  0  0  0
 39 30  1  0  0  0  0
 39 81  1  0  0  0  0
 40 82  1  0  0  0  0
 41  2  1  0  0  0  0
 41 18  1  0  0  0  0
 42  9  1  0  0  0  0
 42 21  1  0  0  0  0
 43 14  1  0  0  0  0
 43 22  1  0  0  0  0
M  END
>  <DRUGBANK_ID>
DB11616

>  <COMMON_NAME>
Pirarubicin

>  <CAS_NUMBER>
72496-41-4

>  <UNII>
D58G680W0G

>  <SYNONYMS>
Adriamycin, tetrahydropyranyl; Pirarubicin; Theprubicin; THP-Adm; THP-Doxorubicin

$$$$
