
 OpenBabel10282417072D

 51 54  0  0  0  0  0  0  0  0999 V2000
    4.1027   -0.6055    0.0000 O   0  0  0  0  0  0  0  0  0  0  0  0
    3.5724   -1.2375    0.0000 C   0  0  0  0  0  0  0  0  0  0  0  0
    3.0421   -0.6055    0.0000 C   0  0  0  0  0  0  0  0  0  0  0  0
    3.3242    0.1697    0.0000 C   0  0  0  0  0  0  0  0  0  0  0  0
    2.7939    0.8017    0.0000 C   0  0  0  0  0  0  0  0  0  0  0  0
    3.0761    1.5770    0.0000 C   0  0  0  0  0  0  0  0  0  0  0  0
    3.8886    1.7202    0.0000 C   0  0  0  0  0  0  0  0  0  0  0  0
    4.4189    1.0882    0.0000 C   0  0  0  0  0  0  0  0  0  0  0  0
    4.1367    0.3130    0.0000 C   0  0  0  0  0  0  0  0  0  0  0  0
    4.2868   -1.6500    0.0000 C   0  0  0  0  0  0  0  0  0  0  0  0
    4.2868   -2.4750    0.0000 C   0  0  0  0  0  0  0  0  0  0  0  0
    3.5724   -2.8875    0.0000 N   0  0  0  0  0  0  0  0  0  0  0  0
    2.8579   -2.4750    0.0000 C   0  0  0  0  0  0  0  0  0  0  0  0
    2.8579   -1.6500    0.0000 C   0  0  0  0  0  0  0  0  0  0  0  0
    3.5724   -3.7125    0.0000 C   0  0  0  0  0  0  0  0  0  0  0  0
    2.8579   -4.1250    0.0000 O   0  0  0  0  0  0  0  0  0  0  0  0
    4.2868   -4.1250    0.0000 C   0  0  0  0  0  0  0  0  0  0  0  0
    5.0013   -3.7125    0.0000 C   0  0  0  0  0  0  0  0  0  0  0  0
    5.7158   -4.1250    0.0000 C   0  0  0  0  0  0  0  0  0  0  0  0
    5.7158   -4.9500    0.0000 C   0  0  0  0  0  0  0  0  0  0  0  0
    5.0013   -5.3625    0.0000 N   0  0  0  0  0  0  0  0  0  0  0  0
    4.2868   -4.9500    0.0000 C   0  0  0  0  0  0  0  0  0  0  0  0
    3.5724   -5.3625    0.0000 C   0  0  0  0  0  0  0  0  0  0  0  0
    3.5724   -6.1875    0.0000 C   0  0  0  0  0  0  0  0  0  0  0  0
    2.8579   -6.6000    0.0000 C   0  0  0  0  0  0  0  0  0  0  0  0
    2.1434   -6.1875    0.0000 N   0  0  0  0  0  0  0  0  0  0  0  0
    2.1434   -5.3625    0.0000 C   0  0  0  0  0  0  0  0  0  0  0  0
    2.8579   -4.9500    0.0000 C   0  0  0  0  0  0  0  0  0  0  0  0
    5.0580   -0.7739    0.0000 H   0  0  0  0  0  0  0  0  0  0  0  0
    1.9884   -0.7913    0.0000 H   0  0  0  0  0  0  0  0  0  0  0  0
    2.3543    0.2141    0.0000 H   0  0  0  0  0  0  0  0  0  0  0  0
    1.7776    0.6225    0.0000 H   0  0  0  0  0  0  0  0  0  0  0  0
    2.4128    2.3676    0.0000 H   0  0  0  0  0  0  0  0  0  0  0  0
    4.2416    2.6899    0.0000 H   0  0  0  0  0  0  0  0  0  0  0  0
    5.4352    1.2674    0.0000 H   0  0  0  0  0  0  0  0  0  0  0  0
    4.8001   -0.4776    0.0000 H   0  0  0  0  0  0  0  0  0  0  0  0
    5.2135   -1.1150    0.0000 H   0  0  0  0  0  0  0  0  0  0  0  0
    5.2134   -2.1850    0.0000 H   0  0  0  0  0  0  0  0  0  0  0  0
    5.2135   -3.0100    0.0000 H   0  0  0  0  0  0  0  0  0  0  0  0
    4.2868   -3.5450    0.0000 H   0  0  0  0  0  0  0  0  0  0  0  0
    1.9313   -3.0100    0.0000 H   0  0  0  0  0  0  0  0  0  0  0  0
    1.9313   -1.9400    0.0000 H   0  0  0  0  0  0  0  0  0  0  0  0
    1.9313   -1.1150    0.0000 H   0  0  0  0  0  0  0  0  0  0  0  0
    2.8579   -0.5800    0.0000 H   0  0  0  0  0  0  0  0  0  0  0  0
    5.0013   -2.6805    0.0000 H   0  0  0  0  0  0  0  0  0  0  0  0
    6.6095   -3.6090    0.0000 H   0  0  0  0  0  0  0  0  0  0  0  0
    6.6095   -5.4660    0.0000 H   0  0  0  0  0  0  0  0  0  0  0  0
    4.4661   -6.7035    0.0000 H   0  0  0  0  0  0  0  0  0  0  0  0
    2.8579   -7.6320    0.0000 H   0  0  0  0  0  0  0  0  0  0  0  0
    1.2497   -4.8465    0.0000 H   0  0  0  0  0  0  0  0  0  0  0  0
    2.8579   -3.9180    0.0000 H   0  0  0  0  0  0  0  0  0  0  0  0
  1  2  1  0  0  0  0
  1 29  1  0  0  0  0
  2  3  1  0  0  0  0
  2 10  1  0  0  0  0
  2 14  1  0  0  0  0
  3  4  1  0  0  0  0
  3 30  1  0  0  0  0
  3 31  1  0  0  0  0
  4  5  2  0  0  0  0
  4  9  1  0  0  0  0
  5  6  1  0  0  0  0
  5 32  1  0  0  0  0
  6  7  2  0  0  0  0
  6 33  1  0  0  0  0
  7  8  1  0  0  0  0
  7 34  1  0  0  0  0
  8  9  2  0  0  0  0
  8 35  1  0  0  0  0
  9 36  1  0  0  0  0
 10 11  1  0  0  0  0
 10 37  1  0  0  0  0
 10 38  1  0  0  0  0
 11 12  1  0  0  0  0
 11 39  1  0  0  0  0
 11 40  1  0  0  0  0
 12 13  1  0  0  0  0
 12 15  1  0  0  0  0
 13 14  1  0  0  0  0
 13 41  1  0  0  0  0
 13 42  1  0  0  0  0
 14 43  1  0  0  0  0
 14 44  1  0  0  0  0
 15 16  2  0  0  0  0
 15 17  1  0  0  0  0
 17 18  2  0  0  0  0
 17 22  1  0  0  0  0
 18 19  1  0  0  0  0
 18 45  1  0  0  0  0
 19 20  2  0  0  0  0
 19 46  1  0  0  0  0
 20 21  1  0  0  0  0
 20 47  1  0  0  0  0
 21 22  2  0  0  0  0
 22 23  1  0  0  0  0
 23 24  2  0  0  0  0
 23 28  1  0  0  0  0
 24 25  1  0  0  0  0
 24 48  1  0  0  0  0
 25 26  2  0  0  0  0
 25 49  1  0  0  0  0
 26 27  1  0  0  0  0
 27 28  2  0  0  0  0
 27 50  1  0  0  0  0
 28 51  1  0  0  0  0
M  END
>  <DRUGBANK_ID>
DB16987

>  <COMMON_NAME>
Soticlestat

>  <CAS_NUMBER>
1429505-03-2

>  <UNII>
1766MU795L

$$$$
