
 OpenBabel10282417072D

 41 40  0  0  1  0  0  0  0  0999 V2000
   11.1888   -2.3349    0.0000 C   0  0  0  0  0  0  0  0  0  0  0  0
   10.4743   -2.7474    0.0000 C   0  0  2  0  0  0  0  0  0  0  0  0
    9.7599   -2.3349    0.0000 N   0  0  0  0  0  0  0  0  0  0  0  0
   10.4743   -3.5724    0.0000 C   0  0  1  0  0  0  0  0  0  0  0  0
    9.7599   -3.9849    0.0000 C   0  0  0  0  0  0  0  0  0  0  0  0
    9.0454   -3.5724    0.0000 C   0  0  0  0  0  0  0  0  0  0  0  0
    8.3309   -3.9849    0.0000 C   0  0  0  0  0  0  0  0  0  0  0  0
    7.6164   -3.5724    0.0000 C   0  0  0  0  0  0  0  0  0  0  0  0
    6.9020   -3.9849    0.0000 C   0  0  0  0  0  0  0  0  0  0  0  0
    6.1875   -3.5724    0.0000 C   0  0  0  0  0  0  0  0  0  0  0  0
    5.4730   -3.9849    0.0000 O   0  0  0  0  0  0  0  0  0  0  0  0
    6.1875   -2.7474    0.0000 O   0  0  0  0  0  0  0  0  0  0  0  0
   11.1888   -3.9849    0.0000 N   0  0  0  0  0  0  0  0  0  0  0  0
   11.9033   -3.5724    0.0000 C   0  0  0  0  0  0  0  0  0  0  0  0
   11.9033   -2.7474    0.0000 O   0  0  0  0  0  0  0  0  0  0  0  0
   12.6177   -3.9849    0.0000 O   0  0  0  0  0  0  0  0  0  0  0  0
   13.3322   -3.5724    0.0000 P   0  0  0  0  0  0  0  0  0  0  0  0
   14.0467   -3.1599    0.0000 O   0  0  0  0  0  0  0  0  0  0  0  0
   13.7447   -4.2868    0.0000 O   0  0  0  0  0  0  0  0  0  0  0  0
   12.9197   -2.8579    0.0000 O   0  0  0  0  0  0  0  0  0  0  0  0
   12.1154   -2.8699    0.0000 H   0  0  0  0  0  0  0  0  0  0  0  0
   11.1888   -1.2649    0.0000 H   0  0  0  0  0  0  0  0  0  0  0  0
   12.1155   -1.7999    0.0000 H   0  0  0  0  0  0  0  0  0  0  0  0
   10.4743   -1.6774    0.0000 H   0  0  0  0  0  0  0  0  0  0  0  0
    9.7599   -1.3149    0.0000 H   0  0  0  0  0  0  0  0  0  0  0  0
    8.8765   -2.8449    0.0000 H   0  0  0  0  0  0  0  0  0  0  0  0
   11.4009   -3.0374    0.0000 H   0  0  0  0  0  0  0  0  0  0  0  0
    9.7599   -5.0549    0.0000 H   0  0  0  0  0  0  0  0  0  0  0  0
    8.8333   -4.5199    0.0000 H   0  0  0  0  0  0  0  0  0  0  0  0
    9.0454   -2.5024    0.0000 H   0  0  0  0  0  0  0  0  0  0  0  0
    8.1188   -3.0374    0.0000 H   0  0  0  0  0  0  0  0  0  0  0  0
    8.3309   -5.0549    0.0000 H   0  0  0  0  0  0  0  0  0  0  0  0
    7.4043   -4.5199    0.0000 H   0  0  0  0  0  0  0  0  0  0  0  0
    7.6164   -2.5024    0.0000 H   0  0  0  0  0  0  0  0  0  0  0  0
    6.6897   -3.0374    0.0000 H   0  0  0  0  0  0  0  0  0  0  0  0
    6.9020   -5.0549    0.0000 H   0  0  0  0  0  0  0  0  0  0  0  0
    5.9754   -4.5199    0.0000 H   0  0  0  0  0  0  0  0  0  0  0  0
    4.6615   -3.5164    0.0000 H   0  0  0  0  0  0  0  0  0  0  0  0
   11.1888   -4.9694    0.0000 H   0  0  0  0  0  0  0  0  0  0  0  0
   14.8867   -3.6449    0.0000 H   0  0  0  0  0  0  0  0  0  0  0  0
   13.2597   -5.1269    0.0000 H   0  0  0  0  0  0  0  0  0  0  0  0
  1  2  1  0  0  0  0
  1 21  1  0  0  0  0
  1 22  1  0  0  0  0
  1 23  1  0  0  0  0
  2  3  1  0  0  0  0
  2  4  1  0  0  0  0
  2 24  1  6  0  0  0
  3 25  1  0  0  0  0
  3 26  1  0  0  0  0
  4  5  1  0  0  0  0
  4 13  1  0  0  0  0
  4 27  1  1  0  0  0
  5  6  1  0  0  0  0
  5 28  1  0  0  0  0
  5 29  1  0  0  0  0
  6  7  1  0  0  0  0
  6 30  1  0  0  0  0
  6 31  1  0  0  0  0
  7  8  1  0  0  0  0
  7 32  1  0  0  0  0
  7 33  1  0  0  0  0
  8  9  1  0  0  0  0
  8 34  1  0  0  0  0
  8 35  1  0  0  0  0
  9 10  1  0  0  0  0
  9 36  1  0  0  0  0
  9 37  1  0  0  0  0
 10 11  1  0  0  0  0
 10 12  2  0  0  0  0
 11 38  1  0  0  0  0
 13 14  1  0  0  0  0
 13 39  1  0  0  0  0
 14 15  2  0  0  0  0
 14 16  1  0  0  0  0
 16 17  1  0  0  0  0
 17 18  1  0  0  0  0
 17 19  1  0  0  0  0
 17 20  2  0  0  0  0
 18 40  1  0  0  0  0
 19 41  1  0  0  0  0
M  END
>  <DRUGBANK_ID>
DB02927

>  <SECONDARY_ACCESSION_NUMBERS>
EXPT01262

>  <COMMON_NAME>
Mixed Carbamic Phosphoric Acid Anhydride of 7,8-Diaminononanic Acid

$$$$
