
 OpenBabel10282417072D

 51 52  0  0  0  0  0  0  0  0999 V2000
    1.7861    3.7125    0.0000 C   0  0  0  0  0  0  0  0  0  0  0  0
    2.5006    3.3000    0.0000 S   0  0  0  0  0  0  0  0  0  0  0  0
    2.5006    2.4750    0.0000 C   0  0  0  0  0  0  0  0  0  0  0  0
    3.2151    2.0625    0.0000 C   0  0  0  0  0  0  0  0  0  0  0  0
    3.2151    1.2375    0.0000 C   0  0  0  0  0  0  0  0  0  0  0  0
    2.5006    0.8250    0.0000 C   0  0  0  0  0  0  0  0  0  0  0  0
    1.7861    1.2375    0.0000 C   0  0  0  0  0  0  0  0  0  0  0  0
    1.7861    2.0625    0.0000 C   0  0  0  0  0  0  0  0  0  0  0  0
    2.5006    0.0000    0.0000 C   0  0  0  0  0  0  0  0  0  0  0  0
    3.2151   -0.4125    0.0000 O   0  0  0  0  0  0  0  0  0  0  0  0
    1.7861   -0.4125    0.0000 C   0  0  0  0  0  0  0  0  0  0  0  0
    1.7861   -1.2375    0.0000 C   0  0  0  0  0  0  0  0  0  0  0  0
    1.0717   -1.6500    0.0000 C   0  0  0  0  0  0  0  0  0  0  0  0
    1.0717   -2.4750    0.0000 C   0  0  0  0  0  0  0  0  0  0  0  0
    0.3572   -2.8875    0.0000 C   0  0  0  0  0  0  0  0  0  0  0  0
    0.3572   -3.7125    0.0000 C   0  0  0  0  0  0  0  0  0  0  0  0
   -0.3572   -2.4750    0.0000 C   0  0  0  0  0  0  0  0  0  0  0  0
   -1.0717   -2.8875    0.0000 O   0  0  0  0  0  0  0  0  0  0  0  0
   -1.7861   -2.4750    0.0000 C   0  0  0  0  0  0  0  0  0  0  0  0
   -1.3736   -1.7605    0.0000 C   0  0  0  0  0  0  0  0  0  0  0  0
   -2.1986   -3.1894    0.0000 C   0  0  0  0  0  0  0  0  0  0  0  0
   -2.5006   -2.0625    0.0000 C   0  0  0  0  0  0  0  0  0  0  0  0
   -3.2151   -2.4750    0.0000 O   0  0  0  0  0  0  0  0  0  0  0  0
   -2.5006   -1.2375    0.0000 O   0  0  0  0  0  0  0  0  0  0  0  0
   -0.3572   -1.6500    0.0000 C   0  0  0  0  0  0  0  0  0  0  0  0
   -1.0717   -1.2375    0.0000 C   0  0  0  0  0  0  0  0  0  0  0  0
    0.3572   -1.2375    0.0000 C   0  0  0  0  0  0  0  0  0  0  0  0
    1.7861    4.7825    0.0000 H   0  0  0  0  0  0  0  0  0  0  0  0
    0.8595    3.1775    0.0000 H   0  0  0  0  0  0  0  0  0  0  0  0
    0.8594    4.2475    0.0000 H   0  0  0  0  0  0  0  0  0  0  0  0
    4.1088    2.5785    0.0000 H   0  0  0  0  0  0  0  0  0  0  0  0
    4.1088    0.7215    0.0000 H   0  0  0  0  0  0  0  0  0  0  0  0
    0.8924    0.7215    0.0000 H   0  0  0  0  0  0  0  0  0  0  0  0
    0.8924    2.5785    0.0000 H   0  0  0  0  0  0  0  0  0  0  0  0
    0.8924    0.1035    0.0000 H   0  0  0  0  0  0  0  0  0  0  0  0
    2.6798   -1.7535    0.0000 H   0  0  0  0  0  0  0  0  0  0  0  0
    1.9654   -2.9910    0.0000 H   0  0  0  0  0  0  0  0  0  0  0  0
   -0.5694   -4.2475    0.0000 H   0  0  0  0  0  0  0  0  0  0  0  0
    1.2838   -4.2475    0.0000 H   0  0  0  0  0  0  0  0  0  0  0  0
    0.3572   -4.7825    0.0000 H   0  0  0  0  0  0  0  0  0  0  0  0
   -0.3036   -1.7605    0.0000 H   0  0  0  0  0  0  0  0  0  0  0  0
   -1.9086   -0.8339    0.0000 H   0  0  0  0  0  0  0  0  0  0  0  0
   -0.8386   -0.8338    0.0000 H   0  0  0  0  0  0  0  0  0  0  0  0
   -3.2686   -3.1894    0.0000 H   0  0  0  0  0  0  0  0  0  0  0  0
   -1.6636   -4.1161    0.0000 H   0  0  0  0  0  0  0  0  0  0  0  0
   -2.7336   -4.1160    0.0000 H   0  0  0  0  0  0  0  0  0  0  0  0
   -1.6891   -0.7690    0.0000 H   0  0  0  0  0  0  0  0  0  0  0  0
   -1.0717   -0.1675    0.0000 H   0  0  0  0  0  0  0  0  0  0  0  0
   -1.9983   -1.7725    0.0000 H   0  0  0  0  0  0  0  0  0  0  0  0
   -1.9984   -0.7025    0.0000 H   0  0  0  0  0  0  0  0  0  0  0  0
    0.3572   -0.2055    0.0000 H   0  0  0  0  0  0  0  0  0  0  0  0
  1  2  1  0  0  0  0
  1 28  1  0  0  0  0
  1 29  1  0  0  0  0
  1 30  1  0  0  0  0
  2  3  1  0  0  0  0
  3  4  2  0  0  0  0
  3  8  1  0  0  0  0
  4  5  1  0  0  0  0
  4 31  1  0  0  0  0
  5  6  2  0  0  0  0
  5 32  1  0  0  0  0
  6  7  1  0  0  0  0
  6  9  1  0  0  0  0
  7  8  2  0  0  0  0
  7 33  1  0  0  0  0
  8 34  1  0  0  0  0
  9 10  2  0  0  0  0
  9 11  1  0  0  0  0
 11 12  2  0  0  0  0
 11 35  1  0  0  0  0
 12 13  1  0  0  0  0
 12 36  1  0  0  0  0
 13 14  2  0  0  0  0
 13 27  1  0  0  0  0
 14 15  1  0  0  0  0
 14 37  1  0  0  0  0
 15 16  1  0  0  0  0
 15 17  2  0  0  0  0
 16 38  1  0  0  0  0
 16 39  1  0  0  0  0
 16 40  1  0  0  0  0
 17 18  1  0  0  0  0
 17 25  1  0  0  0  0
 18 19  1  0  0  0  0
 19 20  1  0  0  0  0
 19 21  1  0  0  0  0
 19 22  1  0  0  0  0
 20 41  1  0  0  0  0
 20 42  1  0  0  0  0
 20 43  1  0  0  0  0
 21 44  1  0  0  0  0
 21 45  1  0  0  0  0
 21 46  1  0  0  0  0
 22 23  2  0  0  0  0
 22 24  1  0  0  0  0
 24 47  1  0  0  0  0
 25 26  1  0  0  0  0
 25 27  2  0  0  0  0
 26 48  1  0  0  0  0
 26 49  1  0  0  0  0
 26 50  1  0  0  0  0
 27 51  1  0  0  0  0
M  END
>  <DRUGBANK_ID>
DB05187

>  <COMMON_NAME>
Elafibranor

>  <CAS_NUMBER>
923978-27-2

>  <UNII>
2J3H5C81A5

>  <SYNONYMS>
Elafibranor

$$$$
