
 OpenBabel10282417072D

 73 76  0  0  1  0  0  0  0  0999 V2000
    8.0157   -1.4252    0.0000 C   0  0  0  0  0  0  0  0  0  0  0  0
    8.0157   -0.6002    0.0000 C   0  0  0  0  0  0  0  0  0  0  0  0
    7.1907   -0.6002    0.0000 C   0  0  0  0  0  0  0  0  0  0  0  0
    8.8407   -0.6002    0.0000 N   0  0  0  0  0  0  0  0  0  0  0  0
    8.0157    0.2248    0.0000 C   0  0  0  0  0  0  0  0  0  0  0  0
    7.3012    0.6373    0.0000 O   0  0  0  0  0  0  0  0  0  0  0  0
    8.7302    0.6373    0.0000 N   0  0  0  0  0  0  0  0  0  0  0  0
    8.7302    1.4623    0.0000 C   0  0  2  0  0  0  0  0  0  0  0  0
    8.0157    1.8748    0.0000 C   0  0  0  0  0  0  0  0  0  0  0  0
    7.3012    1.4623    0.0000 O   0  0  0  0  0  0  0  0  0  0  0  0
    6.5868    1.8748    0.0000 C   0  0  0  0  0  0  0  0  0  0  0  0
    6.5868    2.6998    0.0000 C   0  0  0  0  0  0  0  0  0  0  0  0
    5.8723    3.1123    0.0000 C   0  0  0  0  0  0  0  0  0  0  0  0
    5.8723    3.9373    0.0000 C   0  0  0  0  0  0  0  0  0  0  0  0
    6.5868    4.3498    0.0000 C   0  0  0  0  0  0  0  0  0  0  0  0
    7.3012    3.9373    0.0000 C   0  0  0  0  0  0  0  0  0  0  0  0
    7.3012    3.1123    0.0000 C   0  0  0  0  0  0  0  0  0  0  0  0
    9.4447    1.8748    0.0000 C   0  0  0  0  0  0  0  0  0  0  0  0
    9.4447    2.6998    0.0000 O   0  0  0  0  0  0  0  0  0  0  0  0
   10.1591    1.4623    0.0000 N   0  0  0  0  0  0  0  0  0  0  0  0
   10.8736    1.8748    0.0000 C   0  0  0  0  0  0  0  0  0  0  0  0
   11.5881    1.4623    0.0000 C   0  0  0  0  0  0  0  0  0  0  0  0
   11.5881    0.6373    0.0000 C   0  0  3  0  0  0  0  0  0  0  0  0
   12.3417    0.9729    0.0000 C   0  0  0  0  0  0  0  0  0  0  0  0
   12.8938    0.3598    0.0000 N   0  0  0  0  0  0  0  0  0  0  0  0
   12.4813   -0.3547    0.0000 C   0  0  0  0  0  0  0  0  0  0  0  0
   12.7362   -1.1393    0.0000 C   0  0  0  0  0  0  0  0  0  0  0  0
   12.1842   -1.7524    0.0000 C   0  0  0  0  0  0  0  0  0  0  0  0
   11.3772   -1.5809    0.0000 C   0  0  0  0  0  0  0  0  0  0  0  0
   11.1223   -0.7962    0.0000 C   0  0  0  0  0  0  0  0  0  0  0  0
   11.6743   -0.1831    0.0000 C   0  0  0  0  0  0  0  0  0  0  0  0
   13.7143    0.4460    0.0000 S   0  0  0  0  0  0  0  0  0  0  0  0
   14.5347    0.5323    0.0000 C   0  0  0  0  0  0  0  0  0  0  0  0
   13.8005   -0.3744    0.0000 O   0  0  0  0  0  0  0  0  0  0  0  0
   13.6280    1.2665    0.0000 O   0  0  0  0  0  0  0  0  0  0  0  0
   10.8736    0.2248    0.0000 C   0  0  0  0  0  0  0  0  0  0  0  0
   10.1591    0.6373    0.0000 C   0  0  0  0  0  0  0  0  0  0  0  0
    7.0891   -1.9602    0.0000 H   0  0  0  0  0  0  0  0  0  0  0  0
    8.9423   -1.9602    0.0000 H   0  0  0  0  0  0  0  0  0  0  0  0
    8.0157   -2.4952    0.0000 H   0  0  0  0  0  0  0  0  0  0  0  0
    6.6557    0.3264    0.0000 H   0  0  0  0  0  0  0  0  0  0  0  0
    6.6557   -1.5268    0.0000 H   0  0  0  0  0  0  0  0  0  0  0  0
    6.1207   -0.6002    0.0000 H   0  0  0  0  0  0  0  0  0  0  0  0
    9.3507   -1.4835    0.0000 H   0  0  0  0  0  0  0  0  0  0  0  0
    9.3507    0.2831    0.0000 H   0  0  0  0  0  0  0  0  0  0  0  0
    9.5828    0.1450    0.0000 H   0  0  0  0  0  0  0  0  0  0  0  0
    7.8036    0.9273    0.0000 H   0  0  0  0  0  0  0  0  0  0  0  0
    8.0157    2.9448    0.0000 H   0  0  0  0  0  0  0  0  0  0  0  0
    7.0891    2.4098    0.0000 H   0  0  0  0  0  0  0  0  0  0  0  0
    5.6601    1.3398    0.0000 H   0  0  0  0  0  0  0  0  0  0  0  0
    5.6602    2.4098    0.0000 H   0  0  0  0  0  0  0  0  0  0  0  0
    4.9786    2.5963    0.0000 H   0  0  0  0  0  0  0  0  0  0  0  0
    4.9786    4.4533    0.0000 H   0  0  0  0  0  0  0  0  0  0  0  0
    6.5868    5.3818    0.0000 H   0  0  0  0  0  0  0  0  0  0  0  0
    8.1949    4.4533    0.0000 H   0  0  0  0  0  0  0  0  0  0  0  0
    8.1949    2.5963    0.0000 H   0  0  0  0  0  0  0  0  0  0  0  0
   10.8736    2.9448    0.0000 H   0  0  0  0  0  0  0  0  0  0  0  0
   11.8002    2.4098    0.0000 H   0  0  0  0  0  0  0  0  0  0  0  0
   12.5147    1.9973    0.0000 H   0  0  0  0  0  0  0  0  0  0  0  0
   12.5147    0.9273    0.0000 H   0  0  0  0  0  0  0  0  0  0  0  0
   12.5641    2.0195    0.0000 H   0  0  0  0  0  0  0  0  0  0  0  0
   13.3752    1.2499    0.0000 H   0  0  0  0  0  0  0  0  0  0  0  0
   13.7456   -1.3539    0.0000 H   0  0  0  0  0  0  0  0  0  0  0  0
   12.5031   -2.7339    0.0000 H   0  0  0  0  0  0  0  0  0  0  0  0
   10.6866   -2.3478    0.0000 H   0  0  0  0  0  0  0  0  0  0  0  0
   10.1129   -0.5816    0.0000 H   0  0  0  0  0  0  0  0  0  0  0  0
   15.1637   -0.3333    0.0000 H   0  0  0  0  0  0  0  0  0  0  0  0
   14.9698    1.5098    0.0000 H   0  0  0  0  0  0  0  0  0  0  0  0
   15.5988    0.6442    0.0000 H   0  0  0  0  0  0  0  0  0  0  0  0
   10.8736   -0.8452    0.0000 H   0  0  0  0  0  0  0  0  0  0  0  0
    9.9470   -0.3102    0.0000 H   0  0  0  0  0  0  0  0  0  0  0  0
    9.2325    0.1023    0.0000 H   0  0  0  0  0  0  0  0  0  0  0  0
    9.2325    1.1723    0.0000 H   0  0  0  0  0  0  0  0  0  0  0  0
  1  2  1  0  0  0  0
  1 38  1  0  0  0  0
  1 39  1  0  0  0  0
  1 40  1  0  0  0  0
  2  3  1  0  0  0  0
  2  4  1  0  0  0  0
  2  5  1  0  0  0  0
  3 41  1  0  0  0  0
  3 42  1  0  0  0  0
  3 43  1  0  0  0  0
  4 44  1  0  0  0  0
  4 45  1  0  0  0  0
  5  6  2  0  0  0  0
  5  7  1  0  0  0  0
  7 46  1  0  0  0  0
  8  7  1  0  0  0  0
  8  9  1  0  0  0  0
  8 18  1  0  0  0  0
  8 47  1  1  0  0  0
  9 10  1  0  0  0  0
  9 48  1  0  0  0  0
  9 49  1  0  0  0  0
 10 11  1  0  0  0  0
 11 12  1  0  0  0  0
 11 50  1  0  0  0  0
 11 51  1  0  0  0  0
 12 13  2  0  0  0  0
 12 17  1  0  0  0  0
 13 14  1  0  0  0  0
 13 52  1  0  0  0  0
 14 15  2  0  0  0  0
 14 53  1  0  0  0  0
 15 16  1  0  0  0  0
 15 54  1  0  0  0  0
 16 17  2  0  0  0  0
 16 55  1  0  0  0  0
 17 56  1  0  0  0  0
 18 19  2  0  0  0  0
 18 20  1  0  0  0  0
 20 21  1  0  0  0  0
 20 37  1  0  0  0  0
 21 22  1  0  0  0  0
 21 57  1  0  0  0  0
 21 58  1  0  0  0  0
 22 23  1  0  0  0  0
 22 59  1  0  0  0  0
 22 60  1  0  0  0  0
 23 24  1  0  0  0  0
 23 31  1  0  0  0  0
 23 36  1  0  0  0  0
 24 25  1  0  0  0  0
 24 61  1  0  0  0  0
 24 62  1  0  0  0  0
 25 26  1  0  0  0  0
 25 32  1  0  0  0  0
 26 27  2  0  0  0  0
 26 31  1  0  0  0  0
 27 28  1  0  0  0  0
 27 63  1  0  0  0  0
 28 29  2  0  0  0  0
 28 64  1  0  0  0  0
 29 30  1  0  0  0  0
 29 65  1  0  0  0  0
 30 31  2  0  0  0  0
 30 66  1  0  0  0  0
 32 33  1  0  0  0  0
 32 34  2  0  0  0  0
 32 35  2  0  0  0  0
 33 67  1  0  0  0  0
 33 68  1  0  0  0  0
 33 69  1  0  0  0  0
 36 37  1  0  0  0  0
 36 70  1  0  0  0  0
 36 71  1  0  0  0  0
 37 72  1  0  0  0  0
 37 73  1  0  0  0  0
M  END
>  <DRUGBANK_ID>
DB18214

>  <COMMON_NAME>
Ibutamoren

>  <CAS_NUMBER>
159634-47-6

>  <UNII>
GJ0EGN38UL

>  <SYNONYMS>
2-amino-n-((r)-2-(benzyloxy)-1-((1-(methylsulfonyl)spiro(indoline-3,4'-piperidin)-1'-yl)carbonyl)ethyl)-2-methylpropionamide; 2-amino-n-(3-(benzyloxy)-1-(1-methanesulfonyl-1,2-dihydrospiro(indole-3,4'-piperidin)-1'-yl)-1-oxopropan-2-yl)-2-methylpropanamide

$$$$
