
 OpenBabel10282417072D

 28 28  0  0  0  0  0  0  0  0999 V2000
    1.3913    1.4268    0.0000 C   0  0  0  0  0  0  0  0  0  0  0  0
    1.4277    0.6024    0.0000 C   0  0  0  0  0  0  0  0  0  0  0  0
    2.1594    0.2219    0.0000 C   0  0  0  0  0  0  0  0  0  0  0  0
    2.1960   -0.6025    0.0000 C   0  0  0  0  0  0  0  0  0  0  0  0
    1.5006   -1.0462    0.0000 C   0  0  0  0  0  0  0  0  0  0  0  0
    0.7689   -0.6656    0.0000 C   0  0  0  0  0  0  0  0  0  0  0  0
    0.7324    0.1586    0.0000 C   0  0  0  0  0  0  0  0  0  0  0  0
    2.0866    1.8705    0.0000 O   0  0  0  0  0  0  0  0  0  0  0  0
    0.6594    1.8073    0.0000 O   0  0  0  0  0  0  0  0  0  0  0  0
    1.5371   -1.8705    0.0000 O   0  0  0  0  0  0  0  0  0  0  0  0
   -0.0363    1.3638    0.0000 C   0  0  0  0  0  0  0  0  0  0  0  0
   -0.7683    1.7444    0.0000 C   0  0  0  0  0  0  0  0  0  0  0  0
   -1.4640    1.3007    0.0000 C   0  0  0  0  0  0  0  0  0  0  0  0
   -2.1960    1.6815    0.0000 C   0  0  0  0  0  0  0  0  0  0  0  0
    3.0295    0.7769    0.0000 H   0  0  0  0  0  0  0  0  0  0  0  0
    3.1117   -1.0784    0.0000 H   0  0  0  0  0  0  0  0  0  0  0  0
   -0.1012   -1.2205    0.0000 H   0  0  0  0  0  0  0  0  0  0  0  0
   -0.1833    0.6344    0.0000 H   0  0  0  0  0  0  0  0  0  0  0  0
    0.7472   -2.3744    0.0000 H   0  0  0  0  0  0  0  0  0  0  0  0
    0.0108    0.2948    0.0000 H   0  0  0  0  0  0  0  0  0  0  0  0
   -0.9385    0.7885    0.0000 H   0  0  0  0  0  0  0  0  0  0  0  0
   -0.8155    2.8134    0.0000 H   0  0  0  0  0  0  0  0  0  0  0  0
   -1.7176    2.2380    0.0000 H   0  0  0  0  0  0  0  0  0  0  0  0
   -1.4169    0.2317    0.0000 H   0  0  0  0  0  0  0  0  0  0  0  0
   -2.3662    0.7255    0.0000 H   0  0  0  0  0  0  0  0  0  0  0  0
   -2.2430    2.7505    0.0000 H   0  0  0  0  0  0  0  0  0  0  0  0
   -3.0983    1.1063    0.0000 H   0  0  0  0  0  0  0  0  0  0  0  0
   -3.1452    2.1753    0.0000 H   0  0  0  0  0  0  0  0  0  0  0  0
  1  8  2  0  0  0  0
  1  9  1  0  0  0  0
  1  2  1  0  0  0  0
  2  7  2  0  0  0  0
  2  3  1  0  0  0  0
  3  4  2  0  0  0  0
  3 15  1  0  0  0  0
  4  5  1  0  0  0  0
  4 16  1  0  0  0  0
  5  6  2  0  0  0  0
  5 10  1  0  0  0  0
  6  7  1  0  0  0  0
  6 17  1  0  0  0  0
  7 18  1  0  0  0  0
  9 11  1  0  0  0  0
 10 19  1  0  0  0  0
 11 12  1  0  0  0  0
 11 20  1  0  0  0  0
 11 21  1  0  0  0  0
 12 13  1  0  0  0  0
 12 22  1  0  0  0  0
 12 23  1  0  0  0  0
 13 14  1  0  0  0  0
 13 24  1  0  0  0  0
 13 25  1  0  0  0  0
 14 26  1  0  0  0  0
 14 27  1  0  0  0  0
 14 28  1  0  0  0  0
M  END
>  <DRUGBANK_ID>
DB14084

>  <COMMON_NAME>
Butylparaben

>  <CAS_NUMBER>
94-26-8

>  <UNII>
3QPI1U3FV8

>  <SYNONYMS>
Butyl 4-hydroxybenzoate; Butyl hydroxybenzoate; Butyl p-hydroxy benzoate; Butyl parahydroxybenzoate

$$$$
