
 OpenBabel10282417072D

 80 86  0  0  0  0  0  0  0  0999 V2000
    4.8756   -1.4849    0.0000 C   0  0  0  0  0  0  0  0  0  0  0  0
    4.4124   -0.8022    0.0000 N   0  0  0  0  0  0  0  0  0  0  0  0
    3.5878   -0.7757    0.0000 N   0  0  0  0  0  0  0  0  0  0  0  0
    3.3582    0.0167    0.0000 C   0  0  0  0  0  0  0  0  0  0  0  0
    2.3303    0.4079    0.0000 C   0  0  0  0  0  0  0  0  0  0  0  0
    1.7439    0.9882    0.0000 S   0  0  0  0  0  0  0  0  0  0  0  0
    1.3545    1.7155    0.0000 C   0  0  0  0  0  0  0  0  0  0  0  0
    1.1969    2.5253    0.0000 C   0  0  0  0  0  0  0  0  0  0  0  0
    0.3896    2.3556    0.0000 N   0  0  0  0  0  0  0  0  0  0  0  0
   -0.0214    3.0710    0.0000 N   0  0  0  0  0  0  0  0  0  0  0  0
   -0.8416    3.1590    0.0000 C   0  0  0  0  0  0  0  0  0  0  0  0
    0.5320    3.6828    0.0000 C   0  0  0  0  0  0  0  0  0  0  0  0
    0.3623    4.4902    0.0000 C   0  0  0  0  0  0  0  0  0  0  0  0
    1.2850    3.3456    0.0000 C   0  0  0  0  0  0  0  0  0  0  0  0
    1.6109    4.1035    0.0000 C   0  0  0  0  0  0  0  0  0  0  0  0
    1.0020    4.6601    0.0000 C   0  0  0  0  0  0  0  0  0  0  0  0
    0.2193    4.9209    0.0000 Cl  0  0  0  0  0  0  0  0  0  0  0  0
    1.1795    5.4658    0.0000 C   0  0  0  0  0  0  0  0  0  0  0  0
    1.9660    5.7148    0.0000 C   0  0  0  0  0  0  0  0  0  0  0  0
    2.5750    5.1582    0.0000 C   0  0  0  0  0  0  0  0  0  0  0  0
    2.3974    4.3526    0.0000 C   0  0  0  0  0  0  0  0  0  0  0  0
    3.1088    3.9347    0.0000 N   0  0  0  0  0  0  0  0  0  0  0  0
    3.1889    3.1136    0.0000 C   0  0  0  0  0  0  0  0  0  0  0  0
    3.7260    4.4822    0.0000 C   0  0  0  0  0  0  0  0  0  0  0  0
    4.5316    4.3046    0.0000 C   0  0  0  0  0  0  0  0  0  0  0  0
    5.2492    4.7118    0.0000 O   0  0  0  0  0  0  0  0  0  0  0  0
    4.7807    3.5181    0.0000 O   0  0  0  0  0  0  0  0  0  0  0  0
    3.3961    5.2383    0.0000 C   0  0  0  0  0  0  0  0  0  0  0  0
    4.4623    5.3654    0.0000 C   0  0  0  0  0  0  0  0  0  0  0  0
    5.2424    5.0971    0.0000 C   0  0  0  0  0  0  0  0  0  0  0  0
    5.9088    4.6107    0.0000 C   0  0  0  0  0  0  0  0  0  0  0  0
    6.4022    3.9495    0.0000 O   0  0  0  0  0  0  0  0  0  0  0  0
    6.6787    3.1722    0.0000 C   0  0  0  0  0  0  0  0  0  0  0  0
    6.1923    2.5058    0.0000 C   0  0  0  0  0  0  0  0  0  0  0  0
    6.5262    1.7514    0.0000 C   0  0  0  0  0  0  0  0  0  0  0  0
    6.0693    0.8491    0.0000 S   0  0  0  0  0  0  0  0  0  0  0  0
    5.4469    0.3077    0.0000 C   0  0  0  0  0  0  0  0  0  0  0  0
    4.6924   -0.0262    0.0000 C   0  0  0  0  0  0  0  0  0  0  0  0
    4.0409    0.4799    0.0000 C   0  0  0  0  0  0  0  0  0  0  0  0
    7.3465    1.6634    0.0000 C   0  0  0  0  0  0  0  0  0  0  0  0
    7.8329    2.3297    0.0000 C   0  0  0  0  0  0  0  0  0  0  0  0
    7.4990    3.0841    0.0000 C   0  0  0  0  0  0  0  0  0  0  0  0
    7.9854    3.7505    0.0000 C   0  0  0  0  0  0  0  0  0  0  0  0
    8.8057    3.6624    0.0000 C   0  0  0  0  0  0  0  0  0  0  0  0
    9.1396    2.9080    0.0000 C   0  0  0  0  0  0  0  0  0  0  0  0
    8.6532    2.2417    0.0000 C   0  0  0  0  0  0  0  0  0  0  0  0
    4.4092   -2.4479    0.0000 H   0  0  0  0  0  0  0  0  0  0  0  0
    5.9428   -1.4074    0.0000 H   0  0  0  0  0  0  0  0  0  0  0  0
    5.4764   -2.3703    0.0000 H   0  0  0  0  0  0  0  0  0  0  0  0
    1.7512   -0.4918    0.0000 H   0  0  0  0  0  0  0  0  0  0  0  0
    1.2667    0.2911    0.0000 H   0  0  0  0  0  0  0  0  0  0  0  0
    0.3464    1.3568    0.0000 H   0  0  0  0  0  0  0  0  0  0  0  0
    0.4251    2.2456    0.0000 H   0  0  0  0  0  0  0  0  0  0  0  0
   -1.2747    4.1374    0.0000 H   0  0  0  0  0  0  0  0  0  0  0  0
   -1.4724    2.2947    0.0000 H   0  0  0  0  0  0  0  0  0  0  0  0
   -1.9055    3.2731    0.0000 H   0  0  0  0  0  0  0  0  0  0  0  0
    1.1591    5.2044    0.0000 H   0  0  0  0  0  0  0  0  0  0  0  0
   -0.6546    4.8232    0.0000 H   0  0  0  0  0  0  0  0  0  0  0  0
    0.1422    5.5373    0.0000 H   0  0  0  0  0  0  0  0  0  0  0  0
    0.4178    6.1621    0.0000 H   0  0  0  0  0  0  0  0  0  0  0  0
    2.1881    6.7226    0.0000 H   0  0  0  0  0  0  0  0  0  0  0  0
    2.3186    2.4912    0.0000 H   0  0  0  0  0  0  0  0  0  0  0  0
    4.1631    2.6711    0.0000 H   0  0  0  0  0  0  0  0  0  0  0  0
    3.2928    2.0487    0.0000 H   0  0  0  0  0  0  0  0  0  0  0  0
    6.0571    4.2373    0.0000 H   0  0  0  0  0  0  0  0  0  0  0  0
    4.5758    6.4294    0.0000 H   0  0  0  0  0  0  0  0  0  0  0  0
    5.3651    5.9398    0.0000 H   0  0  0  0  0  0  0  0  0  0  0  0
    5.7373    6.0457    0.0000 H   0  0  0  0  0  0  0  0  0  0  0  0
    6.2843    5.3407    0.0000 H   0  0  0  0  0  0  0  0  0  0  0  0
    6.6614    5.3713    0.0000 H   0  0  0  0  0  0  0  0  0  0  0  0
    6.9762    4.5364    0.0000 H   0  0  0  0  0  0  0  0  0  0  0  0
    5.1662    2.6159    0.0000 H   0  0  0  0  0  0  0  0  0  0  0  0
    6.0209   -0.5953    0.0000 H   0  0  0  0  0  0  0  0  0  0  0  0
    5.1369   -0.7164    0.0000 H   0  0  0  0  0  0  0  0  0  0  0  0
    4.0741    1.5114    0.0000 H   0  0  0  0  0  0  0  0  0  0  0  0
    7.7642    0.7197    0.0000 H   0  0  0  0  0  0  0  0  0  0  0  0
    7.5678    4.6942    0.0000 H   0  0  0  0  0  0  0  0  0  0  0  0
    9.4142    4.4959    0.0000 H   0  0  0  0  0  0  0  0  0  0  0  0
   10.1657    2.7978    0.0000 H   0  0  0  0  0  0  0  0  0  0  0  0
    9.0709    1.2980    0.0000 H   0  0  0  0  0  0  0  0  0  0  0  0
  1  2  1  0  0  0  0
  1 47  1  0  0  0  0
  1 48  1  0  0  0  0
  1 49  1  0  0  0  0
  2  3  1  0  0  0  0
  2 38  1  0  0  0  0
  3  4  2  0  0  0  0
  4  5  1  0  0  0  0
  4 39  1  0  0  0  0
  5  6  1  0  0  0  0
  5 50  1  0  0  0  0
  5 51  1  0  0  0  0
  6  7  1  0  0  0  0
  7  8  1  0  0  0  0
  7 52  1  0  0  0  0
  7 53  1  0  0  0  0
  8  9  2  0  0  0  0
  8 14  1  0  0  0  0
  9 10  1  0  0  0  0
 10 11  1  0  0  0  0
 10 12  1  0  0  0  0
 11 54  1  0  0  0  0
 11 55  1  0  0  0  0
 11 56  1  0  0  0  0
 12 13  1  0  0  0  0
 12 14  2  0  0  0  0
 13 57  1  0  0  0  0
 13 58  1  0  0  0  0
 13 59  1  0  0  0  0
 14 15  1  0  0  0  0
 15 16  2  0  0  0  0
 15 21  1  0  0  0  0
 16 17  1  0  0  0  0
 16 18  1  0  0  0  0
 18 19  2  0  0  0  0
 18 60  1  0  0  0  0
 19 20  1  0  0  0  0
 19 61  1  0  0  0  0
 20 21  2  0  0  0  0
 20 28  1  0  0  0  0
 21 22  1  0  0  0  0
 22 23  1  0  0  0  0
 22 24  1  0  0  0  0
 23 62  1  0  0  0  0
 23 63  1  0  0  0  0
 23 64  1  0  0  0  0
 24 25  1  0  0  0  0
 24 28  2  0  0  0  0
 25 26  1  0  0  0  0
 25 27  2  0  0  0  0
 26 65  1  0  0  0  0
 28 29  1  0  0  0  0
 29 30  1  0  0  0  0
 29 66  1  0  0  0  0
 29 67  1  0  0  0  0
 30 31  1  0  0  0  0
 30 68  1  0  0  0  0
 30 69  1  0  0  0  0
 31 32  1  0  0  0  0
 31 70  1  0  0  0  0
 31 71  1  0  0  0  0
 32 33  1  0  0  0  0
 33 34  2  0  0  0  0
 33 42  1  0  0  0  0
 34 35  1  0  0  0  0
 34 72  1  0  0  0  0
 35 36  1  0  0  0  0
 35 40  2  0  0  0  0
 36 37  1  0  0  0  0
 37 38  1  0  0  0  0
 37 73  1  0  0  0  0
 37 74  1  0  0  0  0
 38 39  2  0  0  0  0
 39 75  1  0  0  0  0
 40 41  1  0  0  0  0
 40 76  1  0  0  0  0
 41 42  2  0  0  0  0
 41 46  1  0  0  0  0
 42 43  1  0  0  0  0
 43 44  2  0  0  0  0
 43 77  1  0  0  0  0
 44 45  1  0  0  0  0
 44 78  1  0  0  0  0
 45 46  2  0  0  0  0
 45 79  1  0  0  0  0
 46 80  1  0  0  0  0
M  END
>  <DRUGBANK_ID>
DB14792

>  <COMMON_NAME>
AZD-5991

>  <CAS_NUMBER>
2143010-83-5

>  <UNII>
E3T5XXY9HX

$$$$
