
 OpenBabel10282417072D

 32 30  0  0  0  0  0  0  0  0999 V2000
    0.0000   -0.0000    0.0000 B   0  0  0  0  0  0  0  0  0  0  0  0
    0.4125    0.7145    0.0000 O   0  0  0  0  0  0  0  0  0  0  0  0
    0.4125   -0.7145    0.0000 O   0  0  0  0  0  0  0  0  0  0  0  0
   -0.8250   -0.0000    0.0000 O   0  5  0  0  0  0  0  0  0  0  0  0
    3.0127   -1.3406    0.0000 C   0  0  0  0  0  0  0  0  0  0  0  0
    2.2982   -0.9281    0.0000 C   0  0  0  0  0  0  0  0  0  0  0  0
    2.2982   -0.1031    0.0000 C   0  0  0  0  0  0  0  0  0  0  0  0
    3.0127    0.3094    0.0000 C   0  0  0  0  0  0  0  0  0  0  0  0
    3.7272   -0.1031    0.0000 C   0  0  0  0  0  0  0  0  0  0  0  0
    3.7272   -0.9281    0.0000 C   0  0  0  0  0  0  0  0  0  0  0  0
    3.0127    1.1344    0.0000 Hg  0  3  0  0  0  0  0  0  0  0  0  0
    0.0000   -5.4656    0.0000 C   0  0  0  0  0  0  0  0  0  0  0  0
   -0.7145   -5.0531    0.0000 C   0  0  0  0  0  0  0  0  0  0  0  0
   -0.7145   -4.2281    0.0000 C   0  0  0  0  0  0  0  0  0  0  0  0
    0.0000   -3.8156    0.0000 C   0  0  0  0  0  0  0  0  0  0  0  0
    0.7145   -4.2281    0.0000 C   0  0  0  0  0  0  0  0  0  0  0  0
    0.7145   -5.0531    0.0000 C   0  0  0  0  0  0  0  0  0  0  0  0
    0.0000   -2.9906    0.0000 Hg  0  3  0  0  0  0  0  0  0  0  0  0
    3.0127    1.9594    0.0000 O   0  5  0  0  0  0  0  0  0  0  0  0
    1.3825    0.7145    0.0000 H   0  0  0  0  0  0  0  0  0  0  0  0
   -0.0725   -1.5545    0.0000 H   0  0  0  0  0  0  0  0  0  0  0  0
    3.0127   -2.3726    0.0000 H   0  0  0  0  0  0  0  0  0  0  0  0
    1.4045   -1.4441    0.0000 H   0  0  0  0  0  0  0  0  0  0  0  0
    1.4045    0.4129    0.0000 H   0  0  0  0  0  0  0  0  0  0  0  0
    4.6209    0.4129    0.0000 H   0  0  0  0  0  0  0  0  0  0  0  0
    4.6209   -1.4441    0.0000 H   0  0  0  0  0  0  0  0  0  0  0  0
    0.0000   -6.4976    0.0000 H   0  0  0  0  0  0  0  0  0  0  0  0
   -1.6082   -5.5691    0.0000 H   0  0  0  0  0  0  0  0  0  0  0  0
   -1.6082   -3.7121    0.0000 H   0  0  0  0  0  0  0  0  0  0  0  0
    1.6082   -3.7121    0.0000 H   0  0  0  0  0  0  0  0  0  0  0  0
    1.6082   -5.5691    0.0000 H   0  0  0  0  0  0  0  0  0  0  0  0
    3.9827    1.9594    0.0000 H   0  0  0  0  0  0  0  0  0  0  0  0
  1  2  1  0  0  0  0
  1  3  1  0  0  0  0
  1  4  1  0  0  0  0
  2 20  1  0  0  0  0
  3 21  1  0  0  0  0
  5  6  2  0  0  0  0
  5 10  1  0  0  0  0
  5 22  1  0  0  0  0
  6  7  1  0  0  0  0
  6 23  1  0  0  0  0
  7  8  2  0  0  0  0
  7 24  1  0  0  0  0
  8  9  1  0  0  0  0
  8 11  1  0  0  0  0
  9 10  2  0  0  0  0
  9 25  1  0  0  0  0
 10 26  1  0  0  0  0
 12 13  2  0  0  0  0
 12 17  1  0  0  0  0
 12 27  1  0  0  0  0
 13 14  1  0  0  0  0
 13 28  1  0  0  0  0
 14 15  2  0  0  0  0
 14 29  1  0  0  0  0
 15 16  1  0  0  0  0
 15 18  1  0  0  0  0
 16 17  2  0  0  0  0
 16 30  1  0  0  0  0
 17 31  1  0  0  0  0
 19 32  1  0  0  0  0
M  CHG  4   4  -1  11   1  18   1  19  -1
M  END
>  <DRUGBANK_ID>
DB13834

>  <COMMON_NAME>
Phenylmercuric borate

>  <CAS_NUMBER>
8017-88-7

>  <UNII>
61RG8BXK1F

>  <SYNONYMS>
Phenylmercuric borate

$$$$
