EMT
 OpenBabel10282417072D

 23 23  0  0  0  0  0  0  0  0999 V2000
    1.0504   -0.3957    0.0000 S   0  0  0  0  0  0  0  0  0  0  0  0
    1.0504    0.4293    0.0000 Hg  0  0  0  0  0  0  0  0  0  0  0  0
    1.7648    0.8418    0.0000 C   0  0  0  0  0  0  0  0  0  0  0  0
    1.7648    1.6668    0.0000 C   0  0  0  0  0  0  0  0  0  0  0  0
    0.3359   -0.8082    0.0000 C   0  0  0  0  0  0  0  0  0  0  0  0
    0.3359   -1.6332    0.0000 C   0  0  0  0  0  0  0  0  0  0  0  0
   -0.3786   -2.0457    0.0000 C   0  0  0  0  0  0  0  0  0  0  0  0
   -1.0930   -1.6332    0.0000 C   0  0  0  0  0  0  0  0  0  0  0  0
   -1.0930   -0.8082    0.0000 C   0  0  0  0  0  0  0  0  0  0  0  0
   -0.3786   -0.3957    0.0000 C   0  0  0  0  0  0  0  0  0  0  0  0
   -0.3786    0.4293    0.0000 C   0  0  0  0  0  0  0  0  0  0  0  0
   -1.0930    0.8418    0.0000 O   0  0  0  0  0  0  0  0  0  0  0  0
    0.3359    0.8418    0.0000 O   0  0  0  0  0  0  0  0  0  0  0  0
    2.6915    0.3068    0.0000 H   0  0  0  0  0  0  0  0  0  0  0  0
    2.6914    1.3768    0.0000 H   0  0  0  0  0  0  0  0  0  0  0  0
    2.6914    2.2018    0.0000 H   0  0  0  0  0  0  0  0  0  0  0  0
    0.8382    2.2018    0.0000 H   0  0  0  0  0  0  0  0  0  0  0  0
    1.7648    2.7368    0.0000 H   0  0  0  0  0  0  0  0  0  0  0  0
    1.2296   -2.1492    0.0000 H   0  0  0  0  0  0  0  0  0  0  0  0
   -0.3786   -3.0777    0.0000 H   0  0  0  0  0  0  0  0  0  0  0  0
   -1.9867   -2.1492    0.0000 H   0  0  0  0  0  0  0  0  0  0  0  0
   -1.9867   -0.2922    0.0000 H   0  0  0  0  0  0  0  0  0  0  0  0
   -1.0930    1.7788    0.0000 H   0  0  0  0  0  0  0  0  0  0  0  0
  1  2  1  0  0  0  0
  1  5  1  0  0  0  0
  2  3  1  0  0  0  0
  3  4  1  0  0  0  0
  3 14  1  0  0  0  0
  3 15  1  0  0  0  0
  4 16  1  0  0  0  0
  4 17  1  0  0  0  0
  4 18  1  0  0  0  0
  5  6  2  0  0  0  0
  5 10  1  0  0  0  0
  6  7  1  0  0  0  0
  6 19  1  0  0  0  0
  7  8  2  0  0  0  0
  7 20  1  0  0  0  0
  8  9  1  0  0  0  0
  8 21  1  0  0  0  0
  9 10  2  0  0  0  0
  9 22  1  0  0  0  0
 10 11  1  0  0  0  0
 11 12  1  0  0  0  0
 11 13  2  0  0  0  0
 12 23  1  0  0  0  0
M  END
>  <DRUGBANK_ID>
DB02731

>  <SECONDARY_ACCESSION_NUMBERS>
EXPT01342

>  <COMMON_NAME>
Ethylmercurithiosalicylic acid

>  <CAS_NUMBER>
148-61-8

>  <UNII>
4071N4J64W

>  <SYNONYMS>
[(o-carboxyphenyl)thio]ethylmercury; 2-(ethylmercuri-thio)-benzoic acid; 2-(ethylmercuriothio)benzoic acid

$$$$
