W35
 OpenBabel10282417072D

 45 47  0  0  0  0  0  0  0  0999 V2000
   -4.2513    0.1049    0.0000 O   0  0  0  0  0  0  0  0  0  0  0  0
   -4.8033    0.7180    0.0000 N   0  0  0  0  0  0  0  0  0  0  0  0
   -4.3908    1.4324    0.0000 C   0  0  0  0  0  0  0  0  0  0  0  0
   -4.7264    2.1861    0.0000 C   0  0  0  0  0  0  0  0  0  0  0  0
   -3.5838    1.2609    0.0000 C   0  0  0  0  0  0  0  0  0  0  0  0
   -3.4976    0.4404    0.0000 C   0  0  0  0  0  0  0  0  0  0  0  0
   -2.7831    0.0279    0.0000 C   0  0  0  0  0  0  0  0  0  0  0  0
   -2.0686    0.4404    0.0000 C   0  0  0  0  0  0  0  0  0  0  0  0
   -1.3542    0.0279    0.0000 C   0  0  0  0  0  0  0  0  0  0  0  0
   -0.6397    0.4404    0.0000 C   0  0  0  0  0  0  0  0  0  0  0  0
    0.0748    0.0279    0.0000 C   0  0  0  0  0  0  0  0  0  0  0  0
    0.7892    0.4404    0.0000 O   0  0  0  0  0  0  0  0  0  0  0  0
    1.5037    0.0279    0.0000 C   0  0  0  0  0  0  0  0  0  0  0  0
    2.2182    0.4404    0.0000 C   0  0  0  0  0  0  0  0  0  0  0  0
    2.9326    0.0279    0.0000 C   0  0  0  0  0  0  0  0  0  0  0  0
    2.9326   -0.7971    0.0000 C   0  0  0  0  0  0  0  0  0  0  0  0
    2.2182   -1.2096    0.0000 C   0  0  0  0  0  0  0  0  0  0  0  0
    1.5037   -0.7971    0.0000 C   0  0  0  0  0  0  0  0  0  0  0  0
    3.6471   -1.2096    0.0000 C   0  0  0  0  0  0  0  0  0  0  0  0
    4.4008   -0.8740    0.0000 N   0  0  0  0  0  0  0  0  0  0  0  0
    4.9528   -1.4871    0.0000 C   0  0  0  0  0  0  0  0  0  0  0  0
    4.5403   -2.2016    0.0000 C   0  0  0  0  0  0  0  0  0  0  0  0
    3.7334   -2.0301    0.0000 O   0  0  0  0  0  0  0  0  0  0  0  0
   -4.0975    3.0518    0.0000 H   0  0  0  0  0  0  0  0  0  0  0  0
   -5.7905    2.2979    0.0000 H   0  0  0  0  0  0  0  0  0  0  0  0
   -5.1616    3.1636    0.0000 H   0  0  0  0  0  0  0  0  0  0  0  0
   -2.8169    1.9514    0.0000 H   0  0  0  0  0  0  0  0  0  0  0  0
   -2.7831   -1.0421    0.0000 H   0  0  0  0  0  0  0  0  0  0  0  0
   -1.8565   -0.5071    0.0000 H   0  0  0  0  0  0  0  0  0  0  0  0
   -2.0686    1.5104    0.0000 H   0  0  0  0  0  0  0  0  0  0  0  0
   -1.1419    0.9754    0.0000 H   0  0  0  0  0  0  0  0  0  0  0  0
   -1.3542   -1.0421    0.0000 H   0  0  0  0  0  0  0  0  0  0  0  0
   -0.4276   -0.5071    0.0000 H   0  0  0  0  0  0  0  0  0  0  0  0
   -0.6397    1.5104    0.0000 H   0  0  0  0  0  0  0  0  0  0  0  0
    0.2869    0.9754    0.0000 H   0  0  0  0  0  0  0  0  0  0  0  0
    0.0748   -1.0421    0.0000 H   0  0  0  0  0  0  0  0  0  0  0  0
    1.0015   -0.5071    0.0000 H   0  0  0  0  0  0  0  0  0  0  0  0
    2.2182    1.4724    0.0000 H   0  0  0  0  0  0  0  0  0  0  0  0
    3.8263    0.5439    0.0000 H   0  0  0  0  0  0  0  0  0  0  0  0
    2.2182   -2.2416    0.0000 H   0  0  0  0  0  0  0  0  0  0  0  0
    0.6100   -1.3131    0.0000 H   0  0  0  0  0  0  0  0  0  0  0  0
    6.0169   -1.3753    0.0000 H   0  0  0  0  0  0  0  0  0  0  0  0
    5.5356   -2.3845    0.0000 H   0  0  0  0  0  0  0  0  0  0  0  0
    4.9755   -3.1791    0.0000 H   0  0  0  0  0  0  0  0  0  0  0  0
    3.8669   -3.0332    0.0000 H   0  0  0  0  0  0  0  0  0  0  0  0
  1  2  1  0  0  0  0
  1  6  1  0  0  0  0
  2  3  2  0  0  0  0
  3  4  1  0  0  0  0
  3  5  1  0  0  0  0
  4 24  1  0  0  0  0
  4 25  1  0  0  0  0
  4 26  1  0  0  0  0
  5  6  2  0  0  0  0
  5 27  1  0  0  0  0
  6  7  1  0  0  0  0
  7  8  1  0  0  0  0
  7 28  1  0  0  0  0
  7 29  1  0  0  0  0
  8  9  1  0  0  0  0
  8 30  1  0  0  0  0
  8 31  1  0  0  0  0
  9 10  1  0  0  0  0
  9 32  1  0  0  0  0
  9 33  1  0  0  0  0
 10 11  1  0  0  0  0
 10 34  1  0  0  0  0
 10 35  1  0  0  0  0
 11 12  1  0  0  0  0
 11 36  1  0  0  0  0
 11 37  1  0  0  0  0
 12 13  1  0  0  0  0
 13 14  2  0  0  0  0
 13 18  1  0  0  0  0
 14 15  1  0  0  0  0
 14 38  1  0  0  0  0
 15 16  2  0  0  0  0
 15 39  1  0  0  0  0
 16 17  1  0  0  0  0
 16 19  1  0  0  0  0
 17 18  2  0  0  0  0
 17 40  1  0  0  0  0
 18 41  1  0  0  0  0
 19 20  2  0  0  0  0
 19 23  1  0  0  0  0
 20 21  1  0  0  0  0
 21 22  1  0  0  0  0
 21 42  1  0  0  0  0
 21 43  1  0  0  0  0
 22 23  1  0  0  0  0
 22 44  1  0  0  0  0
 22 45  1  0  0  0  0
M  END
>  <DRUGBANK_ID>
DB08720

>  <COMMON_NAME>
5-(5-(4-(4,5-dihydro-2-oxazoly)phenoxy)pentyl)-3-methyl osoxazole

>  <UNII>
APD6GOX5WK

$$$$
