
 OpenBabel10282417072D

 24 24  0  0  1  0  0  0  0  0999 V2000
    0.7145    2.0625    0.0000 O   0  0  0  0  0  0  0  0  0  0  0  0
    0.7145    1.2375    0.0000 C   0  0  1  0  0  0  0  0  0  0  0  0
    1.4289    0.8250    0.0000 C   0  0  2  0  0  0  0  0  0  0  0  0
    2.1434    1.2375    0.0000 O   0  0  0  0  0  0  0  0  0  0  0  0
    1.4289   -0.0000    0.0000 C   0  0  1  0  0  0  0  0  0  0  0  0
    2.1434   -0.4125    0.0000 O   0  0  0  0  0  0  0  0  0  0  0  0
    0.7145   -0.4125    0.0000 C   0  0  2  0  0  0  0  0  0  0  0  0
    0.7145   -1.2375    0.0000 O   0  0  0  0  0  0  0  0  0  0  0  0
    0.0000    0.0000    0.0000 C   0  0  2  0  0  0  0  0  0  0  0  0
   -0.7145   -0.4125    0.0000 O   0  0  0  0  0  0  0  0  0  0  0  0
    0.0000    0.8250    0.0000 C   0  0  1  0  0  0  0  0  0  0  0  0
   -0.7145    1.2375    0.0000 O   0  0  0  0  0  0  0  0  0  0  0  0
    1.5545    2.5475    0.0000 H   0  0  0  0  0  0  0  0  0  0  0  0
    1.6412    1.7725    0.0000 H   0  0  0  0  0  0  0  0  0  0  0  0
    1.4289    1.8950    0.0000 H   0  0  0  0  0  0  0  0  0  0  0  0
    2.9834    0.7525    0.0000 H   0  0  0  0  0  0  0  0  0  0  0  0
    2.3555    0.5350    0.0000 H   0  0  0  0  0  0  0  0  0  0  0  0
    2.1434   -1.3825    0.0000 H   0  0  0  0  0  0  0  0  0  0  0  0
    1.6412   -0.9475    0.0000 H   0  0  0  0  0  0  0  0  0  0  0  0
   -0.1255   -1.7225    0.0000 H   0  0  0  0  0  0  0  0  0  0  0  0
    0.0000   -1.0700    0.0000 H   0  0  0  0  0  0  0  0  0  0  0  0
   -1.5545    0.0725    0.0000 H   0  0  0  0  0  0  0  0  0  0  0  0
   -0.9266    0.2900    0.0000 H   0  0  0  0  0  0  0  0  0  0  0  0
   -0.7145    2.2075    0.0000 H   0  0  0  0  0  0  0  0  0  0  0  0
  1 13  1  0  0  0  0
  2  1  1  0  0  0  0
  2  3  1  0  0  0  0
  2 11  1  0  0  0  0
  2 14  1  6  0  0  0
  3  4  1  0  0  0  0
  3  5  1  0  0  0  0
  3 15  1  1  0  0  0
  4 16  1  0  0  0  0
  5  6  1  0  0  0  0
  5  7  1  0  0  0  0
  5 17  1  6  0  0  0
  6 18  1  0  0  0  0
  7  8  1  0  0  0  0
  7 19  1  1  0  0  0
  8 20  1  0  0  0  0
  9  7  1  0  0  0  0
  9 10  1  0  0  0  0
  9 21  1  1  0  0  0
 10 22  1  0  0  0  0
 11  9  1  0  0  0  0
 11 12  1  0  0  0  0
 11 23  1  6  0  0  0
 12 24  1  0  0  0  0
M  END
>  <DRUGBANK_ID>
DB15350

>  <COMMON_NAME>
D-chiro-Inositol

>  <CAS_NUMBER>
643-12-9

>  <UNII>
6R79WV4R10

>  <SYNONYMS>
D-Inositol

$$$$
