
 OpenBabel10282417072D

 65 68  0  0  0  0  0  0  0  0999 V2000
    8.5737    0.8250    0.0000 C   0  0  0  0  0  0  0  0  0  0  0  0
    7.8592    0.4125    0.0000 N   0  0  0  0  0  0  0  0  0  0  0  0
    7.1447    0.8250    0.0000 C   0  0  0  0  0  0  0  0  0  0  0  0
    7.8592   -0.4125    0.0000 S   0  0  0  0  0  0  0  0  0  0  0  0
    7.0342   -0.4125    0.0000 O   0  0  0  0  0  0  0  0  0  0  0  0
    8.6842   -0.4125    0.0000 O   0  0  0  0  0  0  0  0  0  0  0  0
    7.8592   -1.2375    0.0000 C   0  0  0  0  0  0  0  0  0  0  0  0
    7.1447   -1.6500    0.0000 C   0  0  0  0  0  0  0  0  0  0  0  0
    7.1447   -2.4750    0.0000 C   0  0  0  0  0  0  0  0  0  0  0  0
    7.8592   -2.8875    0.0000 C   0  0  0  0  0  0  0  0  0  0  0  0
    8.5737   -2.4750    0.0000 C   0  0  0  0  0  0  0  0  0  0  0  0
    8.5737   -1.6500    0.0000 C   0  0  0  0  0  0  0  0  0  0  0  0
    9.2881   -1.2375    0.0000 N   0  0  0  0  0  0  0  0  0  0  0  0
   10.0026   -1.6500    0.0000 C   0  0  0  0  0  0  0  0  0  0  0  0
   10.7171   -1.2375    0.0000 N   0  0  0  0  0  0  0  0  0  0  0  0
   11.4315   -1.6500    0.0000 C   0  0  0  0  0  0  0  0  0  0  0  0
   12.1460   -1.2375    0.0000 N   0  0  0  0  0  0  0  0  0  0  0  0
   12.8605   -1.6500    0.0000 C   0  0  0  0  0  0  0  0  0  0  0  0
   13.5749   -1.2375    0.0000 C   0  0  0  0  0  0  0  0  0  0  0  0
   14.2894   -1.6500    0.0000 C   0  0  0  0  0  0  0  0  0  0  0  0
   14.2894   -2.4750    0.0000 C   0  0  0  0  0  0  0  0  0  0  0  0
   15.0039   -2.8875    0.0000 C   0  0  0  0  0  0  0  0  0  0  0  0
   15.0039   -3.7125    0.0000 N   0  0  0  0  0  0  0  0  0  0  0  0
   15.7184   -4.1250    0.0000 C   0  0  0  0  0  0  0  0  0  0  0  0
   15.7184   -4.9500    0.0000 C   0  0  0  0  0  0  0  0  0  0  0  0
   15.0039   -5.3625    0.0000 N   0  0  0  0  0  0  0  0  0  0  0  0
   15.0039   -6.1875    0.0000 C   0  0  0  0  0  0  0  0  0  0  0  0
   14.2894   -4.9500    0.0000 C   0  0  0  0  0  0  0  0  0  0  0  0
   14.2894   -4.1250    0.0000 C   0  0  0  0  0  0  0  0  0  0  0  0
   13.5749   -2.8875    0.0000 C   0  0  0  0  0  0  0  0  0  0  0  0
   12.8605   -2.4750    0.0000 C   0  0  0  0  0  0  0  0  0  0  0  0
   11.4315   -2.4750    0.0000 N   0  0  0  0  0  0  0  0  0  0  0  0
   10.7171   -2.8875    0.0000 C   0  0  0  0  0  0  0  0  0  0  0  0
   10.0026   -2.4750    0.0000 C   0  0  0  0  0  0  0  0  0  0  0  0
    9.2881   -2.8875    0.0000 Cl  0  0  0  0  0  0  0  0  0  0  0  0
    9.5003    0.2900    0.0000 H   0  0  0  0  0  0  0  0  0  0  0  0
    8.5737    1.8950    0.0000 H   0  0  0  0  0  0  0  0  0  0  0  0
    9.5004    1.3600    0.0000 H   0  0  0  0  0  0  0  0  0  0  0  0
    7.1447    1.8950    0.0000 H   0  0  0  0  0  0  0  0  0  0  0  0
    6.2181    0.2900    0.0000 H   0  0  0  0  0  0  0  0  0  0  0  0
    6.2180    1.3600    0.0000 H   0  0  0  0  0  0  0  0  0  0  0  0
    6.2510   -1.1340    0.0000 H   0  0  0  0  0  0  0  0  0  0  0  0
    6.2510   -2.9910    0.0000 H   0  0  0  0  0  0  0  0  0  0  0  0
    7.8592   -3.9195    0.0000 H   0  0  0  0  0  0  0  0  0  0  0  0
    9.4674   -2.9910    0.0000 H   0  0  0  0  0  0  0  0  0  0  0  0
    9.2881   -0.2530    0.0000 H   0  0  0  0  0  0  0  0  0  0  0  0
   12.1460   -0.2530    0.0000 H   0  0  0  0  0  0  0  0  0  0  0  0
   13.5749   -0.2055    0.0000 H   0  0  0  0  0  0  0  0  0  0  0  0
   15.1831   -1.1340    0.0000 H   0  0  0  0  0  0  0  0  0  0  0  0
   15.9305   -2.3525    0.0000 H   0  0  0  0  0  0  0  0  0  0  0  0
   15.9305   -3.4225    0.0000 H   0  0  0  0  0  0  0  0  0  0  0  0
   16.6450   -3.5900    0.0000 H   0  0  0  0  0  0  0  0  0  0  0  0
   16.6450   -4.6600    0.0000 H   0  0  0  0  0  0  0  0  0  0  0  0
   16.6450   -5.4850    0.0000 H   0  0  0  0  0  0  0  0  0  0  0  0
   15.7184   -6.0200    0.0000 H   0  0  0  0  0  0  0  0  0  0  0  0
   14.0773   -6.7225    0.0000 H   0  0  0  0  0  0  0  0  0  0  0  0
   15.9305   -6.7225    0.0000 H   0  0  0  0  0  0  0  0  0  0  0  0
   15.0039   -7.2575    0.0000 H   0  0  0  0  0  0  0  0  0  0  0  0
   13.3628   -5.4850    0.0000 H   0  0  0  0  0  0  0  0  0  0  0  0
   13.3628   -4.4150    0.0000 H   0  0  0  0  0  0  0  0  0  0  0  0
   13.3628   -3.5900    0.0000 H   0  0  0  0  0  0  0  0  0  0  0  0
   14.2894   -3.0550    0.0000 H   0  0  0  0  0  0  0  0  0  0  0  0
   13.5749   -3.9195    0.0000 H   0  0  0  0  0  0  0  0  0  0  0  0
   11.9668   -2.9910    0.0000 H   0  0  0  0  0  0  0  0  0  0  0  0
   10.7171   -3.9195    0.0000 H   0  0  0  0  0  0  0  0  0  0  0  0
  1  2  1  0  0  0  0
  1 36  1  0  0  0  0
  1 37  1  0  0  0  0
  1 38  1  0  0  0  0
  2  3  1  0  0  0  0
  2  4  1  0  0  0  0
  3 39  1  0  0  0  0
  3 40  1  0  0  0  0
  3 41  1  0  0  0  0
  4  5  2  0  0  0  0
  4  6  2  0  0  0  0
  4  7  1  0  0  0  0
  7  8  2  0  0  0  0
  7 12  1  0  0  0  0
  8  9  1  0  0  0  0
  8 42  1  0  0  0  0
  9 10  2  0  0  0  0
  9 43  1  0  0  0  0
 10 11  1  0  0  0  0
 10 44  1  0  0  0  0
 11 12  2  0  0  0  0
 11 45  1  0  0  0  0
 12 13  1  0  0  0  0
 13 14  1  0  0  0  0
 13 46  1  0  0  0  0
 14 15  2  0  0  0  0
 14 34  1  0  0  0  0
 15 16  1  0  0  0  0
 16 17  1  0  0  0  0
 16 32  2  0  0  0  0
 17 18  1  0  0  0  0
 17 47  1  0  0  0  0
 18 19  2  0  0  0  0
 18 31  1  0  0  0  0
 19 20  1  0  0  0  0
 19 48  1  0  0  0  0
 20 21  2  0  0  0  0
 20 49  1  0  0  0  0
 21 22  1  0  0  0  0
 21 30  1  0  0  0  0
 22 23  1  0  0  0  0
 22 50  1  0  0  0  0
 22 51  1  0  0  0  0
 23 24  1  0  0  0  0
 23 29  1  0  0  0  0
 24 25  1  0  0  0  0
 24 52  1  0  0  0  0
 24 53  1  0  0  0  0
 25 26  1  0  0  0  0
 25 54  1  0  0  0  0
 25 55  1  0  0  0  0
 26 27  1  0  0  0  0
 26 28  1  0  0  0  0
 27 56  1  0  0  0  0
 27 57  1  0  0  0  0
 27 58  1  0  0  0  0
 28 29  1  0  0  0  0
 28 59  1  0  0  0  0
 28 60  1  0  0  0  0
 29 61  1  0  0  0  0
 29 62  1  0  0  0  0
 30 31  2  0  0  0  0
 30 63  1  0  0  0  0
 31 64  1  0  0  0  0
 32 33  1  0  0  0  0
 33 34  2  0  0  0  0
 33 65  1  0  0  0  0
 34 35  1  0  0  0  0
M  END
>  <DRUGBANK_ID>
DB15187

>  <COMMON_NAME>
Dubermatinib

>  <CAS_NUMBER>
1341200-45-0

>  <UNII>
14D65TV20J

>  <SYNONYMS>
Dubermatinib

$$$$
