
 OpenBabel10282417072D

 33 34  0  0  1  0  0  0  0  0999 V2000
    0.7145    6.7661    0.0000 N   0  0  0  0  0  0  0  0  0  0  0  0
    0.7145    5.9411    0.0000 C   0  0  0  0  0  0  0  0  0  0  0  0
    1.4289    5.5286    0.0000 N   0  0  0  0  0  0  0  0  0  0  0  0
    1.4289    4.7036    0.0000 C   0  0  0  0  0  0  0  0  0  0  0  0
    2.1434    4.2911    0.0000 O   0  0  0  0  0  0  0  0  0  0  0  0
    0.7145    4.2911    0.0000 N   0  0  0  0  0  0  0  0  0  0  0  0
    0.0000    4.7036    0.0000 C   0  0  0  0  0  0  0  0  0  0  0  0
    0.0000    5.5286    0.0000 C   0  0  0  0  0  0  0  0  0  0  0  0
    0.7145    3.4661    0.0000 C   0  0  1  0  0  0  0  0  0  0  0  0
    1.3819    2.9812    0.0000 C   0  0  0  0  0  0  0  0  0  0  0  0
    1.1270    2.1965    0.0000 C   0  0  0  0  0  0  0  0  0  0  0  0
    0.3020    2.1965    0.0000 C   0  0  1  0  0  0  0  0  0  0  0  0
   -0.1830    1.5291    0.0000 C   0  0  0  0  0  0  0  0  0  0  0  0
   -1.0034    1.6153    0.0000 O   0  0  0  0  0  0  0  0  0  0  0  0
   -1.4884    0.9479    0.0000 P   0  0  0  0  0  0  0  0  0  0  0  0
   -1.9733    0.2804    0.0000 O   0  0  0  0  0  0  0  0  0  0  0  0
   -2.1558    1.4328    0.0000 O   0  0  0  0  0  0  0  0  0  0  0  0
   -0.8209    0.4630    0.0000 O   0  0  0  0  0  0  0  0  0  0  0  0
    0.0470    2.9812    0.0000 O   0  0  0  0  0  0  0  0  0  0  0  0
    1.5671    7.2584    0.0000 H   0  0  0  0  0  0  0  0  0  0  0  0
   -0.1381    7.2584    0.0000 H   0  0  0  0  0  0  0  0  0  0  0  0
   -0.8937    4.1876    0.0000 H   0  0  0  0  0  0  0  0  0  0  0  0
   -0.8937    6.0446    0.0000 H   0  0  0  0  0  0  0  0  0  0  0  0
    1.6679    3.9519    0.0000 H   0  0  0  0  0  0  0  0  0  0  0  0
    2.3995    3.3119    0.0000 H   0  0  0  0  0  0  0  0  0  0  0  0
    2.1385    2.2246    0.0000 H   0  0  0  0  0  0  0  0  0  0  0  0
    1.7560    1.3309    0.0000 H   0  0  0  0  0  0  0  0  0  0  0  0
    0.6412    1.2431    0.0000 H   0  0  0  0  0  0  0  0  0  0  0  0
    0.7877    1.2431    0.0000 H   0  0  0  0  0  0  0  0  0  0  0  0
    0.2522    0.5516    0.0000 H   0  0  0  0  0  0  0  0  0  0  0  0
   -0.8119    0.6635    0.0000 H   0  0  0  0  0  0  0  0  0  0  0  0
   -2.9380    0.3817    0.0000 H   0  0  0  0  0  0  0  0  0  0  0  0
   -2.0544    2.3975    0.0000 H   0  0  0  0  0  0  0  0  0  0  0  0
  1  2  1  0  0  0  0
  1 20  1  0  0  0  0
  1 21  1  0  0  0  0
  2  3  2  0  0  0  0
  2  8  1  0  0  0  0
  3  4  1  0  0  0  0
  4  5  2  0  0  0  0
  4  6  1  0  0  0  0
  6  7  1  0  0  0  0
  7  8  2  0  0  0  0
  7 22  1  0  0  0  0
  8 23  1  0  0  0  0
  9  6  1  0  0  0  0
  9 10  1  0  0  0  0
  9 19  1  0  0  0  0
  9 24  1  6  0  0  0
 10 11  1  0  0  0  0
 10 25  1  0  0  0  0
 10 26  1  0  0  0  0
 11 12  1  0  0  0  0
 11 27  1  0  0  0  0
 11 28  1  0  0  0  0
 12 13  1  0  0  0  0
 12 19  1  0  0  0  0
 12 29  1  6  0  0  0
 13 14  1  0  0  0  0
 13 30  1  0  0  0  0
 13 31  1  0  0  0  0
 14 15  1  0  0  0  0
 15 16  1  0  0  0  0
 15 17  1  0  0  0  0
 15 18  2  0  0  0  0
 16 32  1  0  0  0  0
 17 33  1  0  0  0  0
M  END
>  <DRUGBANK_ID>
DB02883

>  <SECONDARY_ACCESSION_NUMBERS>
EXPT01242

>  <COMMON_NAME>
2',3'-Dideoxycytidine-5'-Monophosphate

>  <UNII>
X9M2W80KR9

$$$$
