PRD
 OpenBabel10282417072D

 45 47  0  0  0  0  0  0  0  0999 V2000
    2.2292    0.4429    0.0000 C   0  0  0  0  0  0  0  0  0  0  0  0
    2.2292    1.2679    0.0000 C   0  0  0  0  0  0  0  0  0  0  0  0
    2.9436    1.6804    0.0000 N   0  0  0  0  0  0  0  0  0  0  0  0
    1.5147    1.6804    0.0000 N   0  0  0  0  0  0  0  0  0  0  0  0
    0.8002    1.2679    0.0000 C   0  0  0  0  0  0  0  0  0  0  0  0
    0.8002    0.4429    0.0000 C   0  0  0  0  0  0  0  0  0  0  0  0
    0.0858    0.0304    0.0000 N   0  0  0  0  0  0  0  0  0  0  0  0
    0.0858   -0.7946    0.0000 C   0  0  0  0  0  0  0  0  0  0  0  0
    1.5147    0.0304    0.0000 C   0  0  0  0  0  0  0  0  0  0  0  0
    2.9436    0.0304    0.0000 C   0  0  0  0  0  0  0  0  0  0  0  0
    2.9436   -0.7946    0.0000 N   0  0  0  0  0  0  0  0  0  0  0  0
    3.6581    0.4429    0.0000 N   0  0  0  0  0  0  0  0  0  0  0  0
    3.6581    1.2679    0.0000 C   0  0  0  0  0  0  0  0  0  0  0  0
    4.3726    1.6804    0.0000 N   0  0  0  0  0  0  0  0  0  0  0  0
   -0.6287    0.4429    0.0000 C   0  0  0  0  0  0  0  0  0  0  0  0
   -1.3432    0.0304    0.0000 C   0  0  0  0  0  0  0  0  0  0  0  0
   -1.3432   -0.7946    0.0000 C   0  0  0  0  0  0  0  0  0  0  0  0
   -2.0577   -1.2071    0.0000 C   0  0  0  0  0  0  0  0  0  0  0  0
   -2.7721   -0.7946    0.0000 C   0  0  0  0  0  0  0  0  0  0  0  0
   -2.7721    0.0304    0.0000 C   0  0  0  0  0  0  0  0  0  0  0  0
   -2.0577    0.4429    0.0000 C   0  0  0  0  0  0  0  0  0  0  0  0
   -0.6287   -1.2071    0.0000 O   0  0  0  0  0  0  0  0  0  0  0  0
   -0.6287   -2.0321    0.0000 C   0  0  0  0  0  0  0  0  0  0  0  0
   -3.4866    0.4429    0.0000 O   0  0  0  0  0  0  0  0  0  0  0  0
   -4.2011    0.0304    0.0000 C   0  0  0  0  0  0  0  0  0  0  0  0
   -0.0935    1.7839    0.0000 H   0  0  0  0  0  0  0  0  0  0  0  0
   -0.8408   -1.3296    0.0000 H   0  0  0  0  0  0  0  0  0  0  0  0
    1.0124   -1.3296    0.0000 H   0  0  0  0  0  0  0  0  0  0  0  0
    0.0858   -1.8646    0.0000 H   0  0  0  0  0  0  0  0  0  0  0  0
    1.5147   -1.0016    0.0000 H   0  0  0  0  0  0  0  0  0  0  0  0
    2.0910   -1.2869    0.0000 H   0  0  0  0  0  0  0  0  0  0  0  0
    3.7962   -1.2868    0.0000 H   0  0  0  0  0  0  0  0  0  0  0  0
    5.2252    1.1881    0.0000 H   0  0  0  0  0  0  0  0  0  0  0  0
    4.3726    2.6649    0.0000 H   0  0  0  0  0  0  0  0  0  0  0  0
   -0.6287    1.5129    0.0000 H   0  0  0  0  0  0  0  0  0  0  0  0
   -1.5553    0.9779    0.0000 H   0  0  0  0  0  0  0  0  0  0  0  0
   -2.0577   -2.2391    0.0000 H   0  0  0  0  0  0  0  0  0  0  0  0
   -3.6658   -1.3106    0.0000 H   0  0  0  0  0  0  0  0  0  0  0  0
   -2.0577    1.4749    0.0000 H   0  0  0  0  0  0  0  0  0  0  0  0
   -1.5553   -2.5671    0.0000 H   0  0  0  0  0  0  0  0  0  0  0  0
    0.2979   -2.5671    0.0000 H   0  0  0  0  0  0  0  0  0  0  0  0
   -0.6287   -3.1021    0.0000 H   0  0  0  0  0  0  0  0  0  0  0  0
   -5.1277    0.5654    0.0000 H   0  0  0  0  0  0  0  0  0  0  0  0
   -4.2011   -1.0396    0.0000 H   0  0  0  0  0  0  0  0  0  0  0  0
   -5.1278   -0.5046    0.0000 H   0  0  0  0  0  0  0  0  0  0  0  0
  1  2  2  0  0  0  0
  1  9  1  0  0  0  0
  1 10  1  0  0  0  0
  2  3  1  0  0  0  0
  2  4  1  0  0  0  0
  3 13  2  0  0  0  0
  4  5  2  0  0  0  0
  5  6  1  0  0  0  0
  5 26  1  0  0  0  0
  6  7  1  0  0  0  0
  6  9  2  0  0  0  0
  7  8  1  0  0  0  0
  7 15  1  0  0  0  0
  8 27  1  0  0  0  0
  8 28  1  0  0  0  0
  8 29  1  0  0  0  0
  9 30  1  0  0  0  0
 10 11  1  0  0  0  0
 10 12  2  0  0  0  0
 11 31  1  0  0  0  0
 11 32  1  0  0  0  0
 12 13  1  0  0  0  0
 13 14  1  0  0  0  0
 14 33  1  0  0  0  0
 14 34  1  0  0  0  0
 15 16  1  0  0  0  0
 15 35  1  0  0  0  0
 15 36  1  0  0  0  0
 16 17  2  0  0  0  0
 16 21  1  0  0  0  0
 17 18  1  0  0  0  0
 17 22  1  0  0  0  0
 18 19  2  0  0  0  0
 18 37  1  0  0  0  0
 19 20  1  0  0  0  0
 19 38  1  0  0  0  0
 20 21  2  0  0  0  0
 20 24  1  0  0  0  0
 21 39  1  0  0  0  0
 22 23  1  0  0  0  0
 23 40  1  0  0  0  0
 23 41  1  0  0  0  0
 23 42  1  0  0  0  0
 24 25  1  0  0  0  0
 25 43  1  0  0  0  0
 25 44  1  0  0  0  0
 25 45  1  0  0  0  0
M  END
>  <DRUGBANK_ID>
DB02583

>  <SECONDARY_ACCESSION_NUMBERS>
EXPT02658

>  <COMMON_NAME>
N6-(2,5-Dimethoxy-Benzyl)-N6-Methyl-Pyrido[2,3-D]Pyrimidine-2,4,6-Triamine

>  <CAS_NUMBER>
175354-76-4

$$$$
