
 OpenBabel10282417072D

 62 65  0  0  1  0  0  0  0  0999 V2000
   -5.7158   -2.4750    0.0000 C   0  0  0  0  0  0  0  0  0  0  0  0
   -5.0013   -2.8875    0.0000 O   0  0  0  0  0  0  0  0  0  0  0  0
   -5.0013   -3.7125    0.0000 C   0  0  0  0  0  0  0  0  0  0  0  0
   -4.2868   -4.1250    0.0000 C   0  0  0  0  0  0  0  0  0  0  0  0
   -4.2868   -4.9500    0.0000 C   0  0  0  0  0  0  0  0  0  0  0  0
   -5.0013   -5.3625    0.0000 C   0  0  0  0  0  0  0  0  0  0  0  0
   -5.7158   -4.9500    0.0000 C   0  0  0  0  0  0  0  0  0  0  0  0
   -5.7158   -4.1250    0.0000 C   0  0  0  0  0  0  0  0  0  0  0  0
   -6.4302   -3.7125    0.0000 O   0  0  0  0  0  0  0  0  0  0  0  0
   -6.4302   -2.8875    0.0000 C   0  0  0  0  0  0  0  0  0  0  0  0
   -5.0013   -6.1875    0.0000 C   0  0  0  0  0  0  0  0  0  0  0  0
   -4.2868   -6.6000    0.0000 C   0  0  0  0  0  0  0  0  0  0  0  0
   -4.2868   -7.4250    0.0000 N   0  0  0  0  0  0  0  0  0  0  0  0
   -5.0013   -7.8375    0.0000 C   0  0  0  0  0  0  0  0  0  0  0  0
   -5.7158   -7.4250    0.0000 C   0  0  0  0  0  0  0  0  0  0  0  0
   -6.4302   -7.8375    0.0000 N   0  0  0  0  0  0  0  0  0  0  0  0
   -7.1447   -7.4250    0.0000 C   0  0  1  0  0  0  0  0  0  0  0  0
   -7.1447   -6.6000    0.0000 C   0  0  0  0  0  0  0  0  0  0  0  0
   -7.8592   -7.8375    0.0000 C   0  0  0  0  0  0  0  0  0  0  0  0
   -7.8592   -8.6625    0.0000 C   0  0  0  0  0  0  0  0  0  0  0  0
   -8.5737   -9.0750    0.0000 C   0  0  0  0  0  0  0  0  0  0  0  0
   -9.2881   -8.6625    0.0000 C   0  0  0  0  0  0  0  0  0  0  0  0
   -9.2881   -7.8375    0.0000 C   0  0  0  0  0  0  0  0  0  0  0  0
  -10.0026   -7.4250    0.0000 N   0  0  0  0  0  0  0  0  0  0  0  0
  -10.7171   -7.8375    0.0000 C   0  0  0  0  0  0  0  0  0  0  0  0
  -11.4315   -7.4250    0.0000 O   0  0  0  0  0  0  0  0  0  0  0  0
  -10.7171   -8.6625    0.0000 C   0  0  0  0  0  0  0  0  0  0  0  0
  -10.0026   -9.0750    0.0000 C   0  0  0  0  0  0  0  0  0  0  0  0
  -10.0026   -9.9000    0.0000 N   0  0  0  0  0  0  0  0  0  0  0  0
  -10.7171  -10.3125    0.0000 C   0  0  0  0  0  0  0  0  0  0  0  0
  -11.4315   -9.9000    0.0000 C   0  0  0  0  0  0  0  0  0  0  0  0
  -12.1460  -10.3125    0.0000 C   0  0  0  0  0  0  0  0  0  0  0  0
  -11.4315   -9.0750    0.0000 C   0  0  0  0  0  0  0  0  0  0  0  0
   -8.5737   -7.4250    0.0000 C   0  0  0  0  0  0  0  0  0  0  0  0
   -5.7158   -6.6000    0.0000 N   0  0  0  0  0  0  0  0  0  0  0  0
   -5.7158   -1.4050    0.0000 H   0  0  0  0  0  0  0  0  0  0  0  0
   -6.6424   -3.0100    0.0000 H   0  0  0  0  0  0  0  0  0  0  0  0
   -6.6425   -1.9400    0.0000 H   0  0  0  0  0  0  0  0  0  0  0  0
   -3.3931   -3.6090    0.0000 H   0  0  0  0  0  0  0  0  0  0  0  0
   -3.3931   -5.4660    0.0000 H   0  0  0  0  0  0  0  0  0  0  0  0
   -6.6095   -5.4660    0.0000 H   0  0  0  0  0  0  0  0  0  0  0  0
   -5.5036   -2.3525    0.0000 H   0  0  0  0  0  0  0  0  0  0  0  0
   -7.3568   -2.3525    0.0000 H   0  0  0  0  0  0  0  0  0  0  0  0
   -6.4302   -1.8175    0.0000 H   0  0  0  0  0  0  0  0  0  0  0  0
   -3.3931   -6.0840    0.0000 H   0  0  0  0  0  0  0  0  0  0  0  0
   -5.0013   -8.8695    0.0000 H   0  0  0  0  0  0  0  0  0  0  0  0
   -6.4302   -8.8220    0.0000 H   0  0  0  0  0  0  0  0  0  0  0  0
   -6.2181   -6.8900    0.0000 H   0  0  0  0  0  0  0  0  0  0  0  0
   -6.2181   -6.0650    0.0000 H   0  0  0  0  0  0  0  0  0  0  0  0
   -8.0713   -6.0650    0.0000 H   0  0  0  0  0  0  0  0  0  0  0  0
   -7.1447   -5.5300    0.0000 H   0  0  0  0  0  0  0  0  0  0  0  0
   -6.9655   -9.1785    0.0000 H   0  0  0  0  0  0  0  0  0  0  0  0
   -8.5737  -10.1070    0.0000 H   0  0  0  0  0  0  0  0  0  0  0  0
  -10.1818   -9.1785    0.0000 H   0  0  0  0  0  0  0  0  0  0  0  0
  -10.0026   -6.4405    0.0000 H   0  0  0  0  0  0  0  0  0  0  0  0
   -9.1089   -8.5590    0.0000 H   0  0  0  0  0  0  0  0  0  0  0  0
  -10.7171  -11.3445    0.0000 H   0  0  0  0  0  0  0  0  0  0  0  0
  -13.0726   -9.7775    0.0000 H   0  0  0  0  0  0  0  0  0  0  0  0
  -12.1460  -11.3825    0.0000 H   0  0  0  0  0  0  0  0  0  0  0  0
  -13.0727  -10.8475    0.0000 H   0  0  0  0  0  0  0  0  0  0  0  0
  -12.3252   -8.5590    0.0000 H   0  0  0  0  0  0  0  0  0  0  0  0
   -8.5737   -6.3930    0.0000 H   0  0  0  0  0  0  0  0  0  0  0  0
  1  2  1  0  0  0  0
  1 36  1  0  0  0  0
  1 37  1  0  0  0  0
  1 38  1  0  0  0  0
  2  3  1  0  0  0  0
  3  4  2  0  0  0  0
  3  8  1  0  0  0  0
  4  5  1  0  0  0  0
  4 39  1  0  0  0  0
  5  6  2  0  0  0  0
  5 40  1  0  0  0  0
  6  7  1  0  0  0  0
  6 11  1  0  0  0  0
  7  8  2  0  0  0  0
  7 41  1  0  0  0  0
  8  9  1  0  0  0  0
  9 10  1  0  0  0  0
 10 42  1  0  0  0  0
 10 43  1  0  0  0  0
 10 44  1  0  0  0  0
 11 12  2  0  0  0  0
 11 35  1  0  0  0  0
 12 13  1  0  0  0  0
 12 45  1  0  0  0  0
 13 14  2  0  0  0  0
 14 15  1  0  0  0  0
 14 46  1  0  0  0  0
 15 16  1  0  0  0  0
 15 35  2  0  0  0  0
 16 47  1  0  0  0  0
 17 16  1  0  0  0  0
 17 18  1  0  0  0  0
 17 19  1  0  0  0  0
 17 48  1  1  0  0  0
 18 49  1  0  0  0  0
 18 50  1  0  0  0  0
 18 51  1  0  0  0  0
 19 20  2  0  0  0  0
 19 34  1  0  0  0  0
 20 21  1  0  0  0  0
 20 52  1  0  0  0  0
 21 22  2  0  0  0  0
 21 53  1  0  0  0  0
 22 23  1  0  0  0  0
 22 54  1  0  0  0  0
 23 24  1  0  0  0  0
 23 34  2  0  0  0  0
 24 25  1  0  0  0  0
 24 55  1  0  0  0  0
 25 26  2  0  0  0  0
 25 27  1  0  0  0  0
 27 28  2  0  0  0  0
 27 33  1  0  0  0  0
 28 29  1  0  0  0  0
 28 56  1  0  0  0  0
 29 30  2  0  0  0  0
 30 31  1  0  0  0  0
 30 57  1  0  0  0  0
 31 32  1  0  0  0  0
 31 33  2  0  0  0  0
 32 58  1  0  0  0  0
 32 59  1  0  0  0  0
 32 60  1  0  0  0  0
 33 61  1  0  0  0  0
 34 62  1  0  0  0  0
M  END
>  <DRUGBANK_ID>
DB18072

>  <COMMON_NAME>
Seralutinib

>  <CAS_NUMBER>
1619931-27-9

>  <UNII>
3P63ZTE3OY

>  <SYNONYMS>
3-pyridinecarboxamide, n-(3-((1s)-1-((6-(3,4-dimethoxyphenyl)-2-pyrazinyl)amino)ethyl)phenyl)-5-methyl-; N-(3-((1s)-1-((6-(3,4-dimethoxyphenyl)-2-pyrazinyl)amino)ethyl)phenyl)-5-methyl-3-pyridinecarboxamide

$$$$
