
 OpenBabel10282417072D

 49 46  0  0  1  0  0  0  0  0999 V2000
   -2.0640    0.2292    0.0000 C   0  0  0  0  0  0  0  0  0  0  0  0
   -1.3496   -0.1833    0.0000 C   0  0  2  0  0  0  0  0  0  0  0  0
   -0.6351    0.2292    0.0000 C   0  0  2  0  0  0  0  0  0  0  0  0
    0.0794   -0.1833    0.0000 C   0  0  1  0  0  0  0  0  0  0  0  0
    0.7939    0.2292    0.0000 C   0  0  2  0  0  0  0  0  0  0  0  0
    1.5083   -0.1833    0.0000 C   0  0  0  0  0  0  0  0  0  0  0  0
   -2.7785   -0.1833    0.0000 O   0  0  0  0  0  0  0  0  0  0  0  0
   -1.3496   -1.0083    0.0000 O   0  0  0  0  0  0  0  0  0  0  0  0
   -0.6351    1.0542    0.0000 O   0  0  0  0  0  0  0  0  0  0  0  0
    0.0794   -1.0083    0.0000 O   0  0  0  0  0  0  0  0  0  0  0  0
    0.7939    1.0542    0.0000 O   0  0  0  0  0  0  0  0  0  0  0  0
    1.5083   -1.0083    0.0000 O   0  0  0  0  0  0  0  0  0  0  0  0
    2.2228    0.2292    0.0000 O   0  5  0  0  0  0  0  0  0  0  0  0
    5.5375    0.2669    0.0000 C   0  0  0  0  0  0  0  0  0  0  0  0
    6.2519   -0.1456    0.0000 C   0  0  2  0  0  0  0  0  0  0  0  0
    6.9664    0.2669    0.0000 C   0  0  2  0  0  0  0  0  0  0  0  0
    7.6809   -0.1456    0.0000 C   0  0  1  0  0  0  0  0  0  0  0  0
    8.3953    0.2669    0.0000 C   0  0  2  0  0  0  0  0  0  0  0  0
    9.1098   -0.1456    0.0000 C   0  0  0  0  0  0  0  0  0  0  0  0
    4.8230   -0.1456    0.0000 O   0  0  0  0  0  0  0  0  0  0  0  0
    6.2519   -0.9706    0.0000 O   0  0  0  0  0  0  0  0  0  0  0  0
    6.9664    1.0919    0.0000 O   0  0  0  0  0  0  0  0  0  0  0  0
    7.6809   -0.9706    0.0000 O   0  0  0  0  0  0  0  0  0  0  0  0
    8.3953    1.0919    0.0000 O   0  0  0  0  0  0  0  0  0  0  0  0
    9.8243    0.2669    0.0000 O   0  0  0  0  0  0  0  0  0  0  0  0
    9.1098   -0.9706    0.0000 O   0  5  0  0  0  0  0  0  0  0  0  0
    2.9373    0.6417    0.0000 Zn  0  2  0  0  0  0  0  0  0  0  0  0
   -1.3496    0.6417    0.0000 H   0  0  0  0  0  0  0  0  0  0  0  0
   -0.6351   -0.5958    0.0000 H   0  0  0  0  0  0  0  0  0  0  0  0
    0.0794    0.6417    0.0000 H   0  0  0  0  0  0  0  0  0  0  0  0
    0.7939   -0.5958    0.0000 H   0  0  0  0  0  0  0  0  0  0  0  0
    6.2519    0.6794    0.0000 H   0  0  0  0  0  0  0  0  0  0  0  0
    6.9664   -0.5581    0.0000 H   0  0  0  0  0  0  0  0  0  0  0  0
    7.6809    0.6794    0.0000 H   0  0  0  0  0  0  0  0  0  0  0  0
    8.3953   -0.5581    0.0000 H   0  0  0  0  0  0  0  0  0  0  0  0
   -2.0640    1.2992    0.0000 H   0  0  0  0  0  0  0  0  0  0  0  0
   -2.9906    0.7642    0.0000 H   0  0  0  0  0  0  0  0  0  0  0  0
   -3.6185    0.3017    0.0000 H   0  0  0  0  0  0  0  0  0  0  0  0
   -2.1896   -1.4933    0.0000 H   0  0  0  0  0  0  0  0  0  0  0  0
    0.2049    1.5392    0.0000 H   0  0  0  0  0  0  0  0  0  0  0  0
   -0.7606   -1.4933    0.0000 H   0  0  0  0  0  0  0  0  0  0  0  0
    1.6339    1.5392    0.0000 H   0  0  0  0  0  0  0  0  0  0  0  0
    5.5375    1.3369    0.0000 H   0  0  0  0  0  0  0  0  0  0  0  0
    4.6109    0.8019    0.0000 H   0  0  0  0  0  0  0  0  0  0  0  0
    3.9830    0.3394    0.0000 H   0  0  0  0  0  0  0  0  0  0  0  0
    5.4119   -1.4556    0.0000 H   0  0  0  0  0  0  0  0  0  0  0  0
    7.8064    1.5769    0.0000 H   0  0  0  0  0  0  0  0  0  0  0  0
    6.8409   -1.4556    0.0000 H   0  0  0  0  0  0  0  0  0  0  0  0
    9.2353    1.5769    0.0000 H   0  0  0  0  0  0  0  0  0  0  0  0
  1 36  1  0  0  0  0
  1 37  1  0  0  0  0
  2  1  1  0  0  0  0
  2  8  1  0  0  0  0
  2 28  1  1  0  0  0
  3  2  1  0  0  0  0
  3  9  1  0  0  0  0
  3 29  1  6  0  0  0
  4  3  1  0  0  0  0
  4 10  1  0  0  0  0
  4 30  1  6  0  0  0
  5  4  1  0  0  0  0
  5 11  1  0  0  0  0
  5 31  1  6  0  0  0
  6  5  1  0  0  0  0
  7  1  1  0  0  0  0
  7 38  1  0  0  0  0
  8 39  1  0  0  0  0
  9 40  1  0  0  0  0
 10 41  1  0  0  0  0
 11 42  1  0  0  0  0
 12  6  2  0  0  0  0
 13  6  1  0  0  0  0
 14 43  1  0  0  0  0
 14 44  1  0  0  0  0
 15 14  1  0  0  0  0
 15 21  1  0  0  0  0
 15 32  1  1  0  0  0
 16 15  1  0  0  0  0
 16 22  1  0  0  0  0
 16 33  1  6  0  0  0
 17 16  1  0  0  0  0
 17 23  1  0  0  0  0
 17 34  1  6  0  0  0
 18 17  1  0  0  0  0
 18 24  1  0  0  0  0
 18 35  1  6  0  0  0
 19 18  1  0  0  0  0
 20 14  1  0  0  0  0
 20 45  1  0  0  0  0
 21 46  1  0  0  0  0
 22 47  1  0  0  0  0
 23 48  1  0  0  0  0
 24 49  1  0  0  0  0
 25 19  2  0  0  0  0
 26 19  1  0  0  0  0
M  CHG  3  13  -1  26  -1  27   2
M  END
>  <DRUGBANK_ID>
DB11248

>  <COMMON_NAME>
Zinc gluconate

>  <CAS_NUMBER>
4468-02-4

>  <UNII>
U6WSN5SQ1Z

>  <SYNONYMS>
Zinc gluconate

$$$$
