T2M
 OpenBabel10282417072D

 25 24  0  0  0  0  0  0  0  0999 V2000
    1.7345   -0.5402    0.0000 C   0  0  0  0  0  0  0  0  0  0  0  0
    1.7345    0.2848    0.0000 N   0  0  0  0  0  0  0  0  0  0  0  0
    1.0200    0.6974    0.0000 N   0  0  0  0  0  0  0  0  0  0  0  0
    0.3054    0.2848    0.0000 C   0  0  0  0  0  0  0  0  0  0  0  0
    0.3054   -0.5402    0.0000 O   0  0  0  0  0  0  0  0  0  0  0  0
   -0.4090    0.6974    0.0000 O   0  0  0  0  0  0  0  0  0  0  0  0
   -1.1236    0.2848    0.0000 C   0  0  0  0  0  0  0  0  0  0  0  0
   -1.8381   -0.1277    0.0000 C   0  0  0  0  0  0  0  0  0  0  0  0
   -0.7111   -0.4297    0.0000 C   0  0  0  0  0  0  0  0  0  0  0  0
   -1.5361    0.9993    0.0000 C   0  0  0  0  0  0  0  0  0  0  0  0
    2.4491    0.6974    0.0000 C   0  0  0  0  0  0  0  0  0  0  0  0
    3.1635    1.1099    0.0000 N   0  0  0  0  0  0  0  0  0  0  0  0
    0.8079   -1.0752    0.0000 H   0  0  0  0  0  0  0  0  0  0  0  0
    2.6611   -1.0752    0.0000 H   0  0  0  0  0  0  0  0  0  0  0  0
    1.7345   -1.6102    0.0000 H   0  0  0  0  0  0  0  0  0  0  0  0
    1.0200    1.6819    0.0000 H   0  0  0  0  0  0  0  0  0  0  0  0
   -2.7647    0.4073    0.0000 H   0  0  0  0  0  0  0  0  0  0  0  0
   -1.8381   -1.1977    0.0000 H   0  0  0  0  0  0  0  0  0  0  0  0
   -2.7648   -0.6627    0.0000 H   0  0  0  0  0  0  0  0  0  0  0  0
   -1.2461   -1.3563    0.0000 H   0  0  0  0  0  0  0  0  0  0  0  0
    0.3589   -0.4297    0.0000 H   0  0  0  0  0  0  0  0  0  0  0  0
   -0.1761   -1.3564    0.0000 H   0  0  0  0  0  0  0  0  0  0  0  0
   -1.0011    1.9259    0.0000 H   0  0  0  0  0  0  0  0  0  0  0  0
   -2.6061    0.9993    0.0000 H   0  0  0  0  0  0  0  0  0  0  0  0
   -2.0711    1.9260    0.0000 H   0  0  0  0  0  0  0  0  0  0  0  0
  1  2  1  0  0  0  0
  1 13  1  0  0  0  0
  1 14  1  0  0  0  0
  1 15  1  0  0  0  0
  2  3  1  0  0  0  0
  2 11  1  0  0  0  0
  3  4  1  0  0  0  0
  3 16  1  0  0  0  0
  4  5  2  0  0  0  0
  4  6  1  0  0  0  0
  6  7  1  0  0  0  0
  7  8  1  0  0  0  0
  7  9  1  0  0  0  0
  7 10  1  0  0  0  0
  8 17  1  0  0  0  0
  8 18  1  0  0  0  0
  8 19  1  0  0  0  0
  9 20  1  0  0  0  0
  9 21  1  0  0  0  0
  9 22  1  0  0  0  0
 10 23  1  0  0  0  0
 10 24  1  0  0  0  0
 10 25  1  0  0  0  0
 11 12  3  0  0  0  0
M  END
>  <DRUGBANK_ID>
DB08594

>  <COMMON_NAME>
TERT-BUTYL 2-CYANO-2-METHYLHYDRAZINECARBOXYLATE

$$$$
