EPJ
 OpenBabel10282417072D

 27 29  0  0  0  0  0  0  0  0999 V2000
   -0.1763    0.0910    0.0000 C   0  0  1  0  0  0  0  0  0  0  0  0
    0.1890    0.7515    0.0000 C   0  0  0  0  0  0  0  0  0  0  0  0
    0.8293    1.2017    0.0000 C   0  0  2  0  0  0  0  0  0  0  0  0
    1.6248    0.7364    0.0000 C   0  0  0  0  0  0  0  0  0  0  0  0
    1.3297    0.1110    0.0000 C   0  0  0  0  0  0  0  0  0  0  0  0
    0.5992    0.4813    0.0000 C   0  0  1  0  0  0  0  0  0  0  0  0
    0.6693    2.0171    0.0000 N   0  0  0  0  0  0  0  0  0  0  0  0
   -0.7709   -0.4809    0.0000 C   0  0  0  0  0  0  0  0  0  0  0  0
   -0.5729   -1.2818    0.0000 C   0  0  0  0  0  0  0  0  0  0  0  0
   -1.1675   -1.8537    0.0000 C   0  0  0  0  0  0  0  0  0  0  0  0
   -1.9601   -1.6247    0.0000 C   0  0  0  0  0  0  0  0  0  0  0  0
   -2.5547   -2.1966    0.0000 Cl  0  0  0  0  0  0  0  0  0  0  0  0
   -2.1581   -0.8238    0.0000 N   0  0  0  0  0  0  0  0  0  0  0  0
   -1.5635   -0.2519    0.0000 C   0  0  0  0  0  0  0  0  0  0  0  0
   -0.6394    0.4467    0.0000 H   0  0  0  0  0  0  0  0  0  0  0  0
    1.0059    1.7583    0.0000 H   0  0  0  0  0  0  0  0  0  0  0  0
    0.5984   -0.1026    0.0000 H   0  0  0  0  0  0  0  0  0  0  0  0
   -0.6072    1.4663    0.0000 H   0  0  0  0  0  0  0  0  0  0  0  0
    0.2525    1.8196    0.0000 H   0  0  0  0  0  0  0  0  0  0  0  0
    2.6469    1.0529    0.0000 H   0  0  0  0  0  0  0  0  0  0  0  0
    2.3264   -0.0715    0.0000 H   0  0  0  0  0  0  0  0  0  0  0  0
    1.6768   -0.9011    0.0000 H   0  0  0  0  0  0  0  0  0  0  0  0
    0.5225   -0.5913    0.0000 H   0  0  0  0  0  0  0  0  0  0  0  0
    0.5938    3.0343    0.0000 H   0  0  0  0  0  0  0  0  0  0  0  0
    0.4186   -1.5682    0.0000 H   0  0  0  0  0  0  0  0  0  0  0  0
   -0.9198   -2.8555    0.0000 H   0  0  0  0  0  0  0  0  0  0  0  0
   -1.8112    0.7499    0.0000 H   0  0  0  0  0  0  0  0  0  0  0  0
  1  2  1  0  0  0  0
  1  6  1  0  0  0  0
  1  8  1  0  0  0  0
  1 15  1  6  0  0  0
  2  3  1  0  0  0  0
  2 18  1  0  0  0  0
  2 19  1  0  0  0  0
  3  4  1  0  0  0  0
  3  7  1  0  0  0  0
  3 16  1  6  0  0  0
  4  5  1  0  0  0  0
  4 20  1  0  0  0  0
  4 21  1  0  0  0  0
  5  6  1  0  0  0  0
  5 22  1  0  0  0  0
  5 23  1  0  0  0  0
  6  7  1  0  0  0  0
  6 17  1  1  0  0  0
  7 24  1  0  0  0  0
  8  9  2  0  0  0  0
  8 14  1  0  0  0  0
  9 10  1  0  0  0  0
  9 25  1  0  0  0  0
 10 11  2  0  0  0  0
 10 26  1  0  0  0  0
 11 12  1  0  0  0  0
 11 13  1  0  0  0  0
 13 14  2  0  0  0  0
 14 27  1  0  0  0  0
M  END
>  <DRUGBANK_ID>
DB07720

>  <COMMON_NAME>
Epibatidine

>  <CAS_NUMBER>
140111-52-0

>  <UNII>
M6K314F1XX

>  <SYNONYMS>
(+)-epibatidine; (1R,2R,4S)-epibatidine

$$$$
