
 OpenBabel10282417072D

 70 74  0  0  1  0  0  0  0  0999 V2000
   -1.8864   -2.3760    0.0000 C   0  0  0  0  0  0  0  0  0  0  0  0
   -2.6008   -1.9635    0.0000 C   0  0  0  0  0  0  0  0  0  0  0  0
   -1.1718   -1.9635    0.0000 C   0  0  0  0  0  0  0  0  0  0  0  0
   -2.6008   -1.1385    0.0000 C   0  0  1  0  0  0  0  0  0  0  0  0
   -1.8864   -0.7260    0.0000 C   0  0  2  0  0  0  0  0  0  0  0  0
   -1.1718   -1.1385    0.0000 C   0  0  2  0  0  0  0  0  0  0  0  0
   -3.3154   -0.7260    0.0000 C   0  0  0  0  0  0  0  0  0  0  0  0
   -4.0298   -1.1385    0.0000 C   0  0  0  0  0  0  0  0  0  0  0  0
   -3.3154   -2.3760    0.0000 C   0  0  0  0  0  0  0  0  0  0  0  0
   -1.8864    0.0989    0.0000 C   0  0  0  0  0  0  0  0  0  0  0  0
   -1.1718    0.5114    0.0000 C   0  0  0  0  0  0  0  0  0  0  0  0
    0.3271   -0.9809    0.0000 C   0  0  0  0  0  0  0  0  0  0  0  0
    0.8121   -0.3135    0.0000 C   0  0  0  0  0  0  0  0  0  0  0  0
   -1.8864   -1.5510    0.0000 H   0  0  0  0  0  0  0  0  0  0  0  0
   -1.1720   -0.3135    0.0000 H   0  0  0  0  0  0  0  0  0  0  0  0
   -0.4574   -0.7260    0.0000 C   0  0  2  0  0  0  0  0  0  0  0  0
   -0.4574    0.0989    0.0000 C   0  0  2  0  0  0  0  0  0  0  0  0
   -0.4574   -1.5510    0.0000 H   0  0  0  0  0  0  0  0  0  0  0  0
   -2.6008   -0.3135    0.0000 C   0  0  0  0  0  0  0  0  0  0  0  0
   -0.4573    0.9239    0.0000 C   0  0  0  0  0  0  0  0  0  0  0  0
    0.3271    0.3538    0.0000 C   0  0  1  0  0  0  0  0  0  0  0  0
    0.5821    1.1384    0.0000 O   0  0  0  0  0  0  0  0  0  0  0  0
   -4.0298   -1.9635    0.0000 C   0  0  0  0  0  0  0  0  0  0  0  0
   -4.7442   -2.3760    0.0000 O   0  0  0  0  0  0  0  0  0  0  0  0
    1.2966    1.5509    0.0000 C   0  0  0  0  0  0  0  0  0  0  0  0
    1.2966    2.3760    0.0000 O   0  0  0  0  0  0  0  0  0  0  0  0
    2.0110    1.1384    0.0000 C   0  0  0  0  0  0  0  0  0  0  0  0
    2.7255    1.5509    0.0000 C   0  0  0  0  0  0  0  0  0  0  0  0
    4.3284    0.1421    0.0000 C   0  0  0  0  0  0  0  0  0  0  0  0
    4.7443    0.8547    0.0000 C   0  0  0  0  0  0  0  0  0  0  0  0
    4.1953    1.4703    0.0000 C   0  0  0  0  0  0  0  0  0  0  0  0
    3.4399    1.1384    0.0000 C   0  0  0  0  0  0  0  0  0  0  0  0
    3.5223    0.3176    0.0000 C   0  0  0  0  0  0  0  0  0  0  0  0
   -1.8865   -3.4460    0.0000 H   0  0  0  0  0  0  0  0  0  0  0  0
   -0.9598   -2.9111    0.0000 H   0  0  0  0  0  0  0  0  0  0  0  0
   -0.2452   -2.4985    0.0000 H   0  0  0  0  0  0  0  0  0  0  0  0
   -0.2451   -1.4285    0.0000 H   0  0  0  0  0  0  0  0  0  0  0  0
   -3.3155    0.3440    0.0000 H   0  0  0  0  0  0  0  0  0  0  0  0
   -4.2421   -0.1910    0.0000 H   0  0  0  0  0  0  0  0  0  0  0  0
   -4.9565   -0.6035    0.0000 H   0  0  0  0  0  0  0  0  0  0  0  0
   -4.9564   -1.6735    0.0000 H   0  0  0  0  0  0  0  0  0  0  0  0
   -3.3155   -3.4080    0.0000 H   0  0  0  0  0  0  0  0  0  0  0  0
   -2.8130    0.6339    0.0000 H   0  0  0  0  0  0  0  0  0  0  0  0
   -1.8863    1.1689    0.0000 H   0  0  0  0  0  0  0  0  0  0  0  0
   -1.1717    1.5814    0.0000 H   0  0  0  0  0  0  0  0  0  0  0  0
   -0.2451    1.0464    0.0000 H   0  0  0  0  0  0  0  0  0  0  0  0
    0.6577   -1.9985    0.0000 H   0  0  0  0  0  0  0  0  0  0  0  0
    1.3839   -1.1484    0.0000 H   0  0  0  0  0  0  0  0  0  0  0  0
    1.8821   -0.3135    0.0000 H   0  0  0  0  0  0  0  0  0  0  0  0
    1.2978    0.6399    0.0000 H   0  0  0  0  0  0  0  0  0  0  0  0
   -1.6742    0.2215    0.0000 H   0  0  0  0  0  0  0  0  0  0  0  0
   -3.5274    0.2215    0.0000 H   0  0  0  0  0  0  0  0  0  0  0  0
   -2.6008    0.7565    0.0000 H   0  0  0  0  0  0  0  0  0  0  0  0
    0.4694    1.4588    0.0000 H   0  0  0  0  0  0  0  0  0  0  0  0
   -1.3839    1.4590    0.0000 H   0  0  0  0  0  0  0  0  0  0  0  0
   -0.4572    1.9939    0.0000 H   0  0  0  0  0  0  0  0  0  0  0  0
    1.3839    0.5212    0.0000 H   0  0  0  0  0  0  0  0  0  0  0  0
    2.0110    0.0684    0.0000 H   0  0  0  0  0  0  0  0  0  0  0  0
    2.9376    0.6034    0.0000 H   0  0  0  0  0  0  0  0  0  0  0  0
    2.7255    2.6209    0.0000 H   0  0  0  0  0  0  0  0  0  0  0  0
    3.6522    2.0859    0.0000 H   0  0  0  0  0  0  0  0  0  0  0  0
    4.7589   -0.8375    0.0000 H   0  0  0  0  0  0  0  0  0  0  0  0
    3.6510   -0.6862    0.0000 H   0  0  0  0  0  0  0  0  0  0  0  0
    5.8090    0.9615    0.0000 H   0  0  0  0  0  0  0  0  0  0  0  0
    5.1325    1.8518    0.0000 H   0  0  0  0  0  0  0  0  0  0  0  0
    4.4228    2.5158    0.0000 H   0  0  0  0  0  0  0  0  0  0  0  0
    3.3670    2.1477    0.0000 H   0  0  0  0  0  0  0  0  0  0  0  0
    4.3640    0.5990    0.0000 H   0  0  0  0  0  0  0  0  0  0  0  0
    2.7237   -0.3945    0.0000 H   0  0  0  0  0  0  0  0  0  0  0  0
    3.7942   -0.7173    0.0000 H   0  0  0  0  0  0  0  0  0  0  0  0
  1  3  1  0  0  0  0
  1 34  1  0  0  0  0
  1 35  1  0  0  0  0
  2  1  1  0  0  0  0
  2  9  2  0  0  0  0
  3 36  1  0  0  0  0
  3 37  1  0  0  0  0
  4  2  1  0  0  0  0
  4  7  1  0  0  0  0
  4 19  1  1  0  0  0
  5  4  1  0  0  0  0
  5 10  1  0  0  0  0
  5 14  1  6  0  0  0
  6  5  1  0  0  0  0
  6  3  1  0  0  0  0
  6 15  1  1  0  0  0
  7 38  1  0  0  0  0
  7 39  1  0  0  0  0
  8  7  1  0  0  0  0
  8 40  1  0  0  0  0
  8 41  1  0  0  0  0
  9 42  1  0  0  0  0
 10 11  1  0  0  0  0
 10 43  1  0  0  0  0
 10 44  1  0  0  0  0
 11 45  1  0  0  0  0
 11 46  1  0  0  0  0
 12 47  1  0  0  0  0
 12 48  1  0  0  0  0
 13 12  1  0  0  0  0
 13 21  1  0  0  0  0
 13 49  1  0  0  0  0
 13 50  1  0  0  0  0
 16  6  1  0  0  0  0
 16 12  1  0  0  0  0
 16 17  1  0  0  0  0
 16 18  1  6  0  0  0
 17 11  1  0  0  0  0
 17 21  1  0  0  0  0
 17 20  1  1  0  0  0
 19 51  1  0  0  0  0
 19 52  1  0  0  0  0
 19 53  1  0  0  0  0
 20 54  1  0  0  0  0
 20 55  1  0  0  0  0
 20 56  1  0  0  0  0
 21 22  1  0  0  0  0
 21 57  1  6  0  0  0
 22 25  1  0  0  0  0
 23  8  1  0  0  0  0
 23  9  1  0  0  0  0
 23 24  2  0  0  0  0
 25 26  2  0  0  0  0
 25 27  1  0  0  0  0
 27 28  1  0  0  0  0
 27 58  1  0  0  0  0
 27 59  1  0  0  0  0
 28 32  1  0  0  0  0
 28 60  1  0  0  0  0
 28 61  1  0  0  0  0
 29 30  1  0  0  0  0
 29 33  1  0  0  0  0
 29 62  1  0  0  0  0
 29 63  1  0  0  0  0
 30 31  1  0  0  0  0
 30 64  1  0  0  0  0
 30 65  1  0  0  0  0
 31 32  1  0  0  0  0
 31 66  1  0  0  0  0
 31 67  1  0  0  0  0
 32 33  1  0  0  0  0
 32 68  1  0  0  0  0
 33 69  1  0  0  0  0
 33 70  1  0  0  0  0
M  END
>  <DRUGBANK_ID>
DB13943

>  <SECONDARY_ACCESSION_NUMBERS>
DBSALT001298

>  <COMMON_NAME>
Testosterone cypionate

>  <CAS_NUMBER>
58-20-8

>  <UNII>
M0XW1UBI14

>  <SYNONYMS>
testosterone 17β-cyclopentanepropionate; testosterone 17β-cyclopentylpropionate; testosterone 17β-cypionate; Testosterone cipionate; Testosterone cyclopentanepropionate; Testosterone cyclopentylpropionate; Testosterone cypionate

$$$$
