1588
 OpenBabel10282417072D

 40 43  0  0  0  0  0  0  0  0999 V2000
    3.6651   -2.5532    0.0000 Cl  0  0  0  0  0  0  0  0  0  0  0  0
    3.4586    2.1652    0.0000 O   0  0  0  0  0  0  0  0  0  0  0  0
    3.3022    0.7769    0.0000 N   0  0  0  0  0  0  0  0  0  0  0  0
    5.1560    0.7769    0.0000 N   0  0  0  0  0  0  0  0  0  0  0  0
    2.2548    1.7488    0.0000 C   0  0  0  0  0  0  0  0  0  0  0  0
    2.4384    2.5532    0.0000 C   0  0  0  0  0  0  0  0  0  0  0  0
    1.6500    2.3100    0.0000 C   0  0  0  0  0  0  0  0  0  0  0  0
    2.4979    0.9605    0.0000 C   0  0  0  0  0  0  0  0  0  0  0  0
    3.4859   -0.0274    0.0000 C   0  0  0  0  0  0  0  0  0  0  0  0
    3.8166    1.4220    0.0000 C   0  0  0  0  0  0  0  0  0  0  0  0
    4.2291   -0.3854    0.0000 C   0  0  0  0  0  0  0  0  0  0  0  0
    4.6416    1.4220    0.0000 C   0  0  0  0  0  0  0  0  0  0  0  0
    2.7684   -0.5004    0.0000 C   0  0  0  0  0  0  0  0  0  0  0  0
    4.9724   -0.0274    0.0000 C   0  0  0  0  0  0  0  0  0  0  0  0
    4.3066   -1.2412    0.0000 C   0  0  0  0  0  0  0  0  0  0  0  0
    2.8260   -1.3579    0.0000 C   0  0  0  0  0  0  0  0  0  0  0  0
    5.6174   -0.5418    0.0000 C   0  0  0  0  0  0  0  0  0  0  0  0
    3.6003   -1.7308    0.0000 C   0  0  0  0  0  0  0  0  0  0  0  0
    6.3854   -0.2403    0.0000 C   0  0  0  0  0  0  0  0  0  0  0  0
    5.4945   -1.3575    0.0000 C   0  0  0  0  0  0  0  0  0  0  0  0
    7.0304   -0.7547    0.0000 C   0  0  0  0  0  0  0  0  0  0  0  0
    6.1395   -1.8719    0.0000 C   0  0  0  0  0  0  0  0  0  0  0  0
    6.9074   -1.5705    0.0000 C   0  0  0  0  0  0  0  0  0  0  0  0
    1.3488    1.1796    0.0000 H   0  0  0  0  0  0  0  0  0  0  0  0
    3.1662    3.3376    0.0000 H   0  0  0  0  0  0  0  0  0  0  0  0
    1.8691    3.4592    0.0000 H   0  0  0  0  0  0  0  0  0  0  0  0
    0.6068    2.5481    0.0000 H   0  0  0  0  0  0  0  0  0  0  0  0
    1.6100    3.3793    0.0000 H   0  0  0  0  0  0  0  0  0  0  0  0
    1.7701    0.1762    0.0000 H   0  0  0  0  0  0  0  0  0  0  0  0
    1.4547    1.1987    0.0000 H   0  0  0  0  0  0  0  0  0  0  0  0
    5.1059    2.3860    0.0000 H   0  0  0  0  0  0  0  0  0  0  0  0
    4.0723    2.3280    0.0000 H   0  0  0  0  0  0  0  0  0  0  0  0
    1.8439   -0.0418    0.0000 H   0  0  0  0  0  0  0  0  0  0  0  0
    5.2415   -1.6781    0.0000 H   0  0  0  0  0  0  0  0  0  0  0  0
    1.9711   -1.9359    0.0000 H   0  0  0  0  0  0  0  0  0  0  0  0
    6.5392    0.7802    0.0000 H   0  0  0  0  0  0  0  0  0  0  0  0
    4.5338   -1.7345    0.0000 H   0  0  0  0  0  0  0  0  0  0  0  0
    7.9911   -0.3777    0.0000 H   0  0  0  0  0  0  0  0  0  0  0  0
    5.9857   -2.8924    0.0000 H   0  0  0  0  0  0  0  0  0  0  0  0
    7.7142   -2.2140    0.0000 H   0  0  0  0  0  0  0  0  0  0  0  0
  1 18  1  0  0  0  0
  2 10  2  0  0  0  0
  3  8  1  0  0  0  0
  3  9  1  0  0  0  0
  3 10  1  0  0  0  0
  4 12  1  0  0  0  0
  4 14  2  0  0  0  0
  5  6  1  0  0  0  0
  5  7  1  0  0  0  0
  5  8  1  0  0  0  0
  5 24  1  0  0  0  0
  6  7  1  0  0  0  0
  6 25  1  0  0  0  0
  6 26  1  0  0  0  0
  7 27  1  0  0  0  0
  7 28  1  0  0  0  0
  8 29  1  0  0  0  0
  8 30  1  0  0  0  0
  9 11  2  0  0  0  0
  9 13  1  0  0  0  0
 10 12  1  0  0  0  0
 11 14  1  0  0  0  0
 11 15  1  0  0  0  0
 12 31  1  0  0  0  0
 12 32  1  0  0  0  0
 13 16  2  0  0  0  0
 13 33  1  0  0  0  0
 14 17  1  0  0  0  0
 15 18  2  0  0  0  0
 15 34  1  0  0  0  0
 16 18  1  0  0  0  0
 16 35  1  0  0  0  0
 17 19  2  0  0  0  0
 17 20  1  0  0  0  0
 19 21  1  0  0  0  0
 19 36  1  0  0  0  0
 20 22  2  0  0  0  0
 20 37  1  0  0  0  0
 21 23  2  0  0  0  0
 21 38  1  0  0  0  0
 22 23  1  0  0  0  0
 22 39  1  0  0  0  0
 23 40  1  0  0  0  0
M  END
>  <DRUGBANK_ID>
DB01588

>  <COMMON_NAME>
Prazepam

>  <CAS_NUMBER>
2955-38-6

>  <UNII>
Q30VCC064M

>  <SYNONYMS>
Prazepam; Prazepamum

$$$$
