
 OpenBabel10282417072D

  8  7  0  0  0  0  0  0  0  0999 V2000
    0.8250    1.4289    0.0000 O   0  0  0  0  0  0  0  0  0  0  0  0
    1.2375    0.7145    0.0000 C   0  0  0  0  0  0  0  0  0  0  0  0
    2.0625    0.7145    0.0000 O   0  0  0  0  0  0  0  0  0  0  0  0
    0.8250    0.0000    0.0000 C   0  0  0  0  0  0  0  0  0  0  0  0
    1.2375   -0.7145    0.0000 O   0  0  0  0  0  0  0  0  0  0  0  0
    0.0000    0.0000    0.0000 O   0  0  0  0  0  0  0  0  0  0  0  0
    1.2935    2.2404    0.0000 H   0  0  0  0  0  0  0  0  0  0  0  0
    0.7690   -1.5260    0.0000 H   0  0  0  0  0  0  0  0  0  0  0  0
  1  2  1  0  0  0  0
  1  7  1  0  0  0  0
  2  3  2  0  0  0  0
  2  4  1  0  0  0  0
  4  5  1  0  0  0  0
  4  6  2  0  0  0  0
  5  8  1  0  0  0  0
M  END
>  <DRUGBANK_ID>
DB03902

>  <SECONDARY_ACCESSION_NUMBERS>
EXPT02457; DB02737

>  <COMMON_NAME>
Oxalic Acid

>  <CAS_NUMBER>
144-62-7

>  <UNII>
9E7R5L6H31

$$$$
