
 OpenBabel10282417072D

 49 52  0  0  0  0  0  0  0  0999 V2000
   -3.2658    1.6429    0.0000 C   0  0  0  0  0  0  0  0  0  0  0  0
   -3.2674    0.8142    0.0000 C   0  0  0  0  0  0  0  0  0  0  0  0
   -2.5511    0.4011    0.0000 C   0  0  0  0  0  0  0  0  0  0  0  0
   -2.5537    2.0558    0.0000 C   0  0  0  0  0  0  0  0  0  0  0  0
   -3.9817    2.0551    0.0000 O   0  0  0  0  0  0  0  0  0  0  0  0
   -4.6974    1.6423    0.0000 C   0  0  0  0  0  0  0  0  0  0  0  0
   -3.9839    0.4026    0.0000 C   0  0  0  0  0  0  0  0  0  0  0  0
   -4.6950    0.8160    0.0000 N   0  0  0  0  0  0  0  0  0  0  0  0
   -3.9848   -0.4223    0.0000 O   0  0  0  0  0  0  0  0  0  0  0  0
   -1.8365    1.6442    0.0000 C   0  0  0  0  0  0  0  0  0  0  0  0
   -1.8395    0.8164    0.0000 C   0  0  0  0  0  0  0  0  0  0  0  0
   -1.1225    0.4062    0.0000 C   0  0  0  0  0  0  0  0  0  0  0  0
   -0.4099    0.8222    0.0000 C   0  0  0  0  0  0  0  0  0  0  0  0
   -0.4129    1.6505    0.0000 C   0  0  0  0  0  0  0  0  0  0  0  0
   -1.1268    2.0592    0.0000 N   0  0  0  0  0  0  0  0  0  0  0  0
   -1.1198   -0.4187    0.0000 O   0  0  0  0  0  0  0  0  0  0  0  0
   -0.4069   -0.8290    0.0000 C   0  0  0  0  0  0  0  0  0  0  0  0
   -0.4082   -1.6490    0.0000 C   0  0  0  0  0  0  0  0  0  0  0  0
    0.3039   -2.0592    0.0000 C   0  0  0  0  0  0  0  0  0  0  0  0
    1.0167   -1.6468    0.0000 C   0  0  0  0  0  0  0  0  0  0  0  0
    1.0128   -0.8200    0.0000 C   0  0  0  0  0  0  0  0  0  0  0  0
    0.3001   -0.4135    0.0000 C   0  0  0  0  0  0  0  0  0  0  0  0
    1.7253   -0.4038    0.0000 Cl  0  0  0  0  0  0  0  0  0  0  0  0
    1.7324   -2.0573    0.0000 N   0  0  0  0  0  0  0  0  0  0  0  0
    2.4457   -1.6428    0.0000 C   0  0  0  0  0  0  0  0  0  0  0  0
    3.1613   -2.0533    0.0000 N   0  0  0  0  0  0  0  0  0  0  0  0
    2.4434   -0.8178    0.0000 O   0  0  0  0  0  0  0  0  0  0  0  0
    3.8747   -1.6387    0.0000 C   0  0  0  0  0  0  0  0  0  0  0  0
    4.6974   -1.6353    0.0000 C   0  0  0  0  0  0  0  0  0  0  0  0
    4.2829   -0.9220    0.0000 C   0  0  0  0  0  0  0  0  0  0  0  0
   -2.5484   -0.6309    0.0000 H   0  0  0  0  0  0  0  0  0  0  0  0
   -2.5560    3.0878    0.0000 H   0  0  0  0  0  0  0  0  0  0  0  0
   -5.6238    2.1777    0.0000 H   0  0  0  0  0  0  0  0  0  0  0  0
   -4.6979    0.5723    0.0000 H   0  0  0  0  0  0  0  0  0  0  0  0
   -5.6243    1.1077    0.0000 H   0  0  0  0  0  0  0  0  0  0  0  0
   -4.6920    1.8005    0.0000 H   0  0  0  0  0  0  0  0  0  0  0  0
   -5.5491    0.3263    0.0000 H   0  0  0  0  0  0  0  0  0  0  0  0
    0.4860    0.3100    0.0000 H   0  0  0  0  0  0  0  0  0  0  0  0
    0.4790    2.1697    0.0000 H   0  0  0  0  0  0  0  0  0  0  0  0
   -1.3021   -2.1647    0.0000 H   0  0  0  0  0  0  0  0  0  0  0  0
    0.3049   -3.0912    0.0000 H   0  0  0  0  0  0  0  0  0  0  0  0
    0.2934    0.6185    0.0000 H   0  0  0  0  0  0  0  0  0  0  0  0
    1.7352   -3.0418    0.0000 H   0  0  0  0  0  0  0  0  0  0  0  0
    3.1641   -3.0378    0.0000 H   0  0  0  0  0  0  0  0  0  0  0  0
    4.7987   -1.0991    0.0000 H   0  0  0  0  0  0  0  0  0  0  0  0
    5.6259   -2.1671    0.0000 H   0  0  0  0  0  0  0  0  0  0  0  0
    5.4516   -0.8763    0.0000 H   0  0  0  0  0  0  0  0  0  0  0  0
    4.2783    0.1480    0.0000 H   0  0  0  0  0  0  0  0  0  0  0  0
    3.2480   -0.6503    0.0000 H   0  0  0  0  0  0  0  0  0  0  0  0
  1  2  2  0  0  0  0
  1  5  1  0  0  0  0
  2  3  1  0  0  0  0
  2  7  1  0  0  0  0
  3 11  2  0  0  0  0
  3 31  1  0  0  0  0
  4  1  1  0  0  0  0
  4 32  1  0  0  0  0
  5  6  1  0  0  0  0
  6 33  1  0  0  0  0
  6 34  1  0  0  0  0
  6 35  1  0  0  0  0
  7  8  1  0  0  0  0
  7  9  2  0  0  0  0
  8 36  1  0  0  0  0
  8 37  1  0  0  0  0
 10  4  2  0  0  0  0
 10 11  1  0  0  0  0
 11 12  1  0  0  0  0
 12 13  2  0  0  0  0
 12 16  1  0  0  0  0
 13 14  1  0  0  0  0
 13 38  1  0  0  0  0
 14 15  2  0  0  0  0
 14 39  1  0  0  0  0
 15 10  1  0  0  0  0
 16 17  1  0  0  0  0
 17 18  2  0  0  0  0
 18 19  1  0  0  0  0
 18 40  1  0  0  0  0
 19 20  2  0  0  0  0
 19 41  1  0  0  0  0
 20 21  1  0  0  0  0
 20 24  1  0  0  0  0
 21 22  2  0  0  0  0
 21 23  1  0  0  0  0
 22 17  1  0  0  0  0
 22 42  1  0  0  0  0
 24 25  1  0  0  0  0
 24 43  1  0  0  0  0
 25 26  1  0  0  0  0
 25 27  2  0  0  0  0
 26 28  1  0  0  0  0
 26 44  1  0  0  0  0
 28 30  1  0  0  0  0
 28 45  1  0  0  0  0
 29 28  1  0  0  0  0
 29 46  1  0  0  0  0
 29 47  1  0  0  0  0
 30 29  1  0  0  0  0
 30 48  1  0  0  0  0
 30 49  1  0  0  0  0
M  END
>  <DRUGBANK_ID>
DB09078

>  <COMMON_NAME>
Lenvatinib

>  <CAS_NUMBER>
417716-92-8

>  <UNII>
EE083865G2

>  <SYNONYMS>
4-{3-chloro-4-[(cyclopropylcarbamoyl)amino]phenoxy}-7-methoxyquinoline-6-carboxamide; Lenvatinib

$$$$
