
 OpenBabel10282417072D

 35 36  0  0  0  0  0  0  0  0999 V2000
    1.2225   -2.1368    0.0000 C   0  0  0  0  0  0  0  0  0  0  0  0
    2.0497   -2.1451    0.0000 C   0  0  0  0  0  0  0  0  0  0  0  0
    2.4688   -1.4341    0.0000 C   0  0  0  0  0  0  0  0  0  0  0  0
    0.8161   -1.4214    0.0000 C   0  0  0  0  0  0  0  0  0  0  0  0
    1.2314   -0.7097    0.0000 C   0  0  0  0  0  0  0  0  0  0  0  0
    2.0582   -0.7161    0.0000 C   0  0  0  0  0  0  0  0  0  0  0  0
    2.4753   -0.0045    0.0000 C   0  0  0  0  0  0  0  0  0  0  0  0
    2.0668    0.7138    0.0000 C   0  0  0  0  0  0  0  0  0  0  0  0
    1.2369    0.7163    0.0000 C   0  0  0  0  0  0  0  0  0  0  0  0
    0.8235    0.0041    0.0000 C   0  0  0  0  0  0  0  0  0  0  0  0
    0.8264    1.4319    0.0000 O   0  0  0  0  0  0  0  0  0  0  0  0
    1.2406    2.1451    0.0000 C   0  0  0  0  0  0  0  0  0  0  0  0
   -0.0087   -1.4167    0.0000 C   0  0  0  0  0  0  0  0  0  0  0  0
   -0.4171   -0.6998    0.0000 C   0  0  0  0  0  0  0  0  0  0  0  0
   -1.2420   -0.6952    0.0000 N   0  0  0  0  0  0  0  0  0  0  0  0
   -1.6503    0.0214    0.0000 C   0  0  0  0  0  0  0  0  0  0  0  0
   -2.4753    0.0263    0.0000 C   0  0  0  0  0  0  0  0  0  0  0  0
   -1.2338    0.7334    0.0000 O   0  0  0  0  0  0  0  0  0  0  0  0
    0.6989   -3.0261    0.0000 H   0  0  0  0  0  0  0  0  0  0  0  0
    2.5572   -3.0437    0.0000 H   0  0  0  0  0  0  0  0  0  0  0  0
    3.5008   -1.4409    0.0000 H   0  0  0  0  0  0  0  0  0  0  0  0
    3.5073   -0.0112    0.0000 H   0  0  0  0  0  0  0  0  0  0  0  0
    2.5870    1.6051    0.0000 H   0  0  0  0  0  0  0  0  0  0  0  0
   -0.2085    0.0076    0.0000 H   0  0  0  0  0  0  0  0  0  0  0  0
    2.3106    2.1424    0.0000 H   0  0  0  0  0  0  0  0  0  0  0  0
    0.7080    3.0731    0.0000 H   0  0  0  0  0  0  0  0  0  0  0  0
    1.7780    3.0704    0.0000 H   0  0  0  0  0  0  0  0  0  0  0  0
   -0.5490   -2.3403    0.0000 H   0  0  0  0  0  0  0  0  0  0  0  0
   -1.0787   -1.4105    0.0000 H   0  0  0  0  0  0  0  0  0  0  0  0
    0.1232    0.2238    0.0000 H   0  0  0  0  0  0  0  0  0  0  0  0
   -0.9469    0.2298    0.0000 H   0  0  0  0  0  0  0  0  0  0  0  0
   -1.7390   -1.5450    0.0000 H   0  0  0  0  0  0  0  0  0  0  0  0
   -3.0048    0.9561    0.0000 H   0  0  0  0  0  0  0  0  0  0  0  0
   -3.0158   -0.8972    0.0000 H   0  0  0  0  0  0  0  0  0  0  0  0
   -3.5453    0.0327    0.0000 H   0  0  0  0  0  0  0  0  0  0  0  0
  1  2  2  0  0  0  0
  1 19  1  0  0  0  0
  2  3  1  0  0  0  0
  2 20  1  0  0  0  0
  3  6  2  0  0  0  0
  3 21  1  0  0  0  0
  4  1  1  0  0  0  0
  4 13  1  0  0  0  0
  5  6  1  0  0  0  0
  5  4  2  0  0  0  0
  6  7  1  0  0  0  0
  7  8  2  0  0  0  0
  7 22  1  0  0  0  0
  8  9  1  0  0  0  0
  8 23  1  0  0  0  0
  9 10  2  0  0  0  0
  9 11  1  0  0  0  0
 10  5  1  0  0  0  0
 10 24  1  0  0  0  0
 11 12  1  0  0  0  0
 12 25  1  0  0  0  0
 12 26  1  0  0  0  0
 12 27  1  0  0  0  0
 13 14  1  0  0  0  0
 13 28  1  0  0  0  0
 13 29  1  0  0  0  0
 14 15  1  0  0  0  0
 14 30  1  0  0  0  0
 14 31  1  0  0  0  0
 15 16  1  0  0  0  0
 15 32  1  0  0  0  0
 16 17  1  0  0  0  0
 16 18  2  0  0  0  0
 17 33  1  0  0  0  0
 17 34  1  0  0  0  0
 17 35  1  0  0  0  0
M  END
>  <DRUGBANK_ID>
DB06594

>  <COMMON_NAME>
Agomelatine

>  <CAS_NUMBER>
138112-76-2

>  <UNII>
137R1N49AD

>  <SYNONYMS>
Agomelatina; Agomelatine

$$$$
