
 OpenBabel10282417072D

 58 61  0  0  0  0  0  0  0  0999 V2000
    2.1785   -1.0011    0.0000 C   0  0  0  0  0  0  0  0  0  0  0  0
    0.6794   -1.9837    0.0000 C   0  0  0  0  0  0  0  0  0  0  0  0
    2.1785    0.3337    0.0000 C   0  0  2  0  0  0  0  0  0  0  0  0
    0.6794    0.4912    0.0000 C   0  0  0  0  0  0  0  0  0  0  0  0
    2.6633   -0.3337    0.0000 C   0  0  0  0  0  0  0  0  0  0  0  0
   -0.7496   -1.1587    0.0000 C   0  0  2  0  0  0  0  0  0  0  0  0
   -0.0350    0.0787    0.0000 C   0  0  0  0  0  0  0  0  0  0  0  0
   -0.0350   -2.3962    0.0000 C   0  0  0  0  0  0  0  0  0  0  0  0
   -0.7496   -1.9837    0.0000 C   0  0  0  0  0  0  0  0  0  0  0  0
   -1.4641   -0.7462    0.0000 C   0  0  0  0  0  0  0  0  0  0  0  0
   -1.4641   -2.3962    0.0000 C   0  0  0  0  0  0  0  0  0  0  0  0
   -2.1785   -1.1587    0.0000 C   0  0  0  0  0  0  0  0  0  0  0  0
    0.6794   -1.1587    0.0000 C   0  0  2  0  0  0  0  0  0  0  0  0
    0.6794   -0.3337    0.0000 H   0  0  0  0  0  0  0  0  0  0  0  0
   -0.0350   -0.7462    0.0000 C   0  0  1  0  0  0  0  0  0  0  0  0
   -0.0350   -1.5712    0.0000 H   0  0  0  0  0  0  0  0  0  0  0  0
    1.3938    0.0787    0.0000 C   0  0  2  0  0  0  0  0  0  0  0  0
    1.3938    0.9037    0.0000 C   0  0  0  0  0  0  0  0  0  0  0  0
    1.3938   -0.7462    0.0000 C   0  0  1  0  0  0  0  0  0  0  0  0
    1.3938   -1.5712    0.0000 H   0  0  0  0  0  0  0  0  0  0  0  0
   -2.1785   -1.9837    0.0000 C   0  0  0  0  0  0  0  0  0  0  0  0
   -0.7496   -0.3337    0.0000 H   0  0  0  0  0  0  0  0  0  0  0  0
    2.8930    0.7462    0.0000 C   0  0  0  0  0  0  0  0  0  0  0  0
    2.1785    1.1587    0.0000 O   0  0  0  0  0  0  0  0  0  0  0  0
    3.6074    1.1587    0.0000 C   0  0  0  0  0  0  0  0  0  0  0  0
   -2.8930   -2.3962    0.0000 N   0  0  0  0  0  0  0  0  0  0  0  0
    0.6792    1.3162    0.0000 C   0  0  0  0  0  0  0  0  0  0  0  0
    2.1785    1.9837    0.0000 C   0  0  0  0  0  0  0  0  0  0  0  0
    2.8930    2.3962    0.0000 C   0  0  0  0  0  0  0  0  0  0  0  0
    1.4640    2.3962    0.0000 O   0  0  0  0  0  0  0  0  0  0  0  0
   -3.6074   -1.9837    0.0000 O   0  0  0  0  0  0  0  0  0  0  0  0
    2.5092   -2.0187    0.0000 H   0  0  0  0  0  0  0  0  0  0  0  0
    3.2353   -1.1684    0.0000 H   0  0  0  0  0  0  0  0  0  0  0  0
    1.6061   -2.5187    0.0000 H   0  0  0  0  0  0  0  0  0  0  0  0
    0.6794   -3.0537    0.0000 H   0  0  0  0  0  0  0  0  0  0  0  0
    0.6794    1.5612    0.0000 H   0  0  0  0  0  0  0  0  0  0  0  0
   -0.2473    1.0262    0.0000 H   0  0  0  0  0  0  0  0  0  0  0  0
    3.7333   -0.3337    0.0000 H   0  0  0  0  0  0  0  0  0  0  0  0
    3.1491    0.6197    0.0000 H   0  0  0  0  0  0  0  0  0  0  0  0
   -0.9617    0.6137    0.0000 H   0  0  0  0  0  0  0  0  0  0  0  0
   -0.0350    1.1487    0.0000 H   0  0  0  0  0  0  0  0  0  0  0  0
   -0.0349   -3.4662    0.0000 H   0  0  0  0  0  0  0  0  0  0  0  0
   -0.9616   -2.9313    0.0000 H   0  0  0  0  0  0  0  0  0  0  0  0
   -1.4641    0.3238    0.0000 H   0  0  0  0  0  0  0  0  0  0  0  0
   -2.3908   -0.2112    0.0000 H   0  0  0  0  0  0  0  0  0  0  0  0
   -1.4641   -3.4282    0.0000 H   0  0  0  0  0  0  0  0  0  0  0  0
   -3.1052   -0.6237    0.0000 H   0  0  0  0  0  0  0  0  0  0  0  0
   -3.1051   -1.6937    0.0000 H   0  0  0  0  0  0  0  0  0  0  0  0
    2.3204    1.4387    0.0000 H   0  0  0  0  0  0  0  0  0  0  0  0
    1.3937    1.9737    0.0000 H   0  0  0  0  0  0  0  0  0  0  0  0
    4.4682    1.6557    0.0000 H   0  0  0  0  0  0  0  0  0  0  0  0
    0.6791    2.3862    0.0000 H   0  0  0  0  0  0  0  0  0  0  0  0
   -0.2474    0.7811    0.0000 H   0  0  0  0  0  0  0  0  0  0  0  0
   -0.2475    1.8511    0.0000 H   0  0  0  0  0  0  0  0  0  0  0  0
    3.8196    1.8612    0.0000 H   0  0  0  0  0  0  0  0  0  0  0  0
    2.8930    3.4662    0.0000 H   0  0  0  0  0  0  0  0  0  0  0  0
    3.8197    2.9312    0.0000 H   0  0  0  0  0  0  0  0  0  0  0  0
   -3.6074   -1.0467    0.0000 H   0  0  0  0  0  0  0  0  0  0  0  0
  1 32  1  0  0  0  0
  1 33  1  0  0  0  0
  2  8  1  0  0  0  0
  2 34  1  0  0  0  0
  2 35  1  0  0  0  0
  3  5  1  0  0  0  0
  3 23  1  6  0  0  0
  3 24  1  0  0  0  0
  4  7  1  0  0  0  0
  4 36  1  0  0  0  0
  4 37  1  0  0  0  0
  5  1  1  0  0  0  0
  5 38  1  0  0  0  0
  5 39  1  0  0  0  0
  6  9  1  0  0  0  0
  6 10  1  0  0  0  0
  6 22  1  1  0  0  0
  7 40  1  0  0  0  0
  7 41  1  0  0  0  0
  8  9  1  0  0  0  0
  8 42  1  0  0  0  0
  8 43  1  0  0  0  0
  9 11  2  0  0  0  0
 10 12  1  0  0  0  0
 10 44  1  0  0  0  0
 10 45  1  0  0  0  0
 11 21  1  0  0  0  0
 11 46  1  0  0  0  0
 12 21  1  0  0  0  0
 12 47  1  0  0  0  0
 12 48  1  0  0  0  0
 13 15  1  0  0  0  0
 13  2  1  0  0  0  0
 13 14  1  1  0  0  0
 15  6  1  0  0  0  0
 15  7  1  0  0  0  0
 15 16  1  6  0  0  0
 17  3  1  0  0  0  0
 17  4  1  0  0  0  0
 17 18  1  1  0  0  0
 18 27  1  0  0  0  0
 18 49  1  0  0  0  0
 18 50  1  0  0  0  0
 19 13  1  0  0  0  0
 19 17  1  0  0  0  0
 19  1  1  0  0  0  0
 19 20  1  6  0  0  0
 21 26  2  0  0  0  0
 23 25  3  0  0  0  0
 24 28  1  0  0  0  0
 25 51  1  0  0  0  0
 26 31  1  0  0  0  0
 27 52  1  0  0  0  0
 27 53  1  0  0  0  0
 27 54  1  0  0  0  0
 28 29  1  0  0  0  0
 28 30  2  0  0  0  0
 29 55  1  0  0  0  0
 29 56  1  0  0  0  0
 29 57  1  0  0  0  0
 31 58  1  0  0  0  0
M  END
>  <DRUGBANK_ID>
DB00957

>  <SECONDARY_ACCESSION_NUMBERS>
APRD00569

>  <COMMON_NAME>
Norgestimate

>  <CAS_NUMBER>
35189-28-7

>  <UNII>
NKX8DN6TY9

>  <SYNONYMS>
(+)-13-Ethyl-17-hydroxy-18,19-dinor-17α-pregn-4-en-20-yn-3-one oxime acetate (ester); (17α)-17-(Acetyloxy)-13-ethyl-18,19-dinorpregn-4-en-20-yn-3-one 3-oxime; d-13β-Ethyl-17α-ethynyl-17β-acetoxygon-4-en-3-one oxime; Dexnorgestrel Acetime; Norgestimate; Norgestimato; Norgestimatum

$$$$
