
 OpenBabel10282417072D

 17 18  0  0  0  0  0  0  0  0999 V2000
   15.6014  -18.1299    0.0000 C   0  0  0  0  0  0  0  0  0  0  0  0
   15.6014  -18.9549    0.0000 C   0  0  0  0  0  0  0  0  0  0  0  0
   16.3158  -19.3674    0.0000 C   0  0  0  0  0  0  0  0  0  0  0  0
   17.0303  -18.9549    0.0000 C   0  0  0  0  0  0  0  0  0  0  0  0
   17.0303  -18.1299    0.0000 C   0  0  0  0  0  0  0  0  0  0  0  0
   16.3158  -17.7174    0.0000 C   0  0  0  0  0  0  0  0  0  0  0  0
   14.8869  -19.3674    0.0000 F   0  0  0  0  0  0  0  0  0  0  0  0
   17.8150  -19.2098    0.0000 C   0  0  0  0  0  0  0  0  0  0  0  0
   18.2999  -18.5424    0.0000 O   0  0  0  0  0  0  0  0  0  0  0  0
   17.8150  -17.8750    0.0000 B   0  0  0  0  0  0  0  0  0  0  0  0
   18.0690  -17.0931    0.0000 O   0  0  0  0  0  0  0  0  0  0  0  0
   14.7077  -17.6139    0.0000 H   0  0  0  0  0  0  0  0  0  0  0  0
   16.3158  -20.3994    0.0000 H   0  0  0  0  0  0  0  0  0  0  0  0
   16.3158  -16.6854    0.0000 H   0  0  0  0  0  0  0  0  0  0  0  0
   18.1457  -20.2274    0.0000 H   0  0  0  0  0  0  0  0  0  0  0  0
   18.8718  -19.3772    0.0000 H   0  0  0  0  0  0  0  0  0  0  0  0
   19.0178  -16.8914    0.0000 H   0  0  0  0  0  0  0  0  0  0  0  0
  1  2  2  0  0  0  0
  1  6  1  0  0  0  0
  1 12  1  0  0  0  0
  2  3  1  0  0  0  0
  2  7  1  0  0  0  0
  3  4  2  0  0  0  0
  3 13  1  0  0  0  0
  4  5  1  0  0  0  0
  4  8  1  0  0  0  0
  5  6  2  0  0  0  0
  5 10  1  0  0  0  0
  6 14  1  0  0  0  0
  8  9  1  0  0  0  0
  8 15  1  0  0  0  0
  8 16  1  0  0  0  0
  9 10  1  0  0  0  0
 10 11  1  0  0  0  0
 11 17  1  0  0  0  0
M  END
>  <DRUGBANK_ID>
DB09041

>  <SECONDARY_ACCESSION_NUMBERS>
DB05058

>  <COMMON_NAME>
Tavaborole

>  <CAS_NUMBER>
174671-46-6

>  <UNII>
K124A4EUQ3

>  <SYNONYMS>
5-Fluoro-1,3-dihydro-1-hydroxy-2,1-benzoxaborole; 5-Fluoro-2,1-benzoxaborol-1(3H)-ol; Tavaborole

$$$$
