L0D
 OpenBabel10282417072D

 22 24  0  0  0  0  0  0  0  0999 V2000
   -2.6278    0.3918    0.0000 C   0  0  0  0  0  0  0  0  0  0  0  0
   -1.8432    0.6467    0.0000 C   0  0  0  0  0  0  0  0  0  0  0  0
   -1.3583   -0.0207    0.0000 C   0  0  0  0  0  0  0  0  0  0  0  0
   -1.8432   -0.6882    0.0000 N   0  0  0  0  0  0  0  0  0  0  0  0
   -2.6278   -0.4332    0.0000 N   0  0  0  0  0  0  0  0  0  0  0  0
   -0.5333   -0.0207    0.0000 C   0  0  0  0  0  0  0  0  0  0  0  0
   -0.0484    0.6467    0.0000 N   0  0  0  0  0  0  0  0  0  0  0  0
    0.7363    0.3918    0.0000 C   0  0  0  0  0  0  0  0  0  0  0  0
    1.4507    0.8043    0.0000 C   0  0  0  0  0  0  0  0  0  0  0  0
    2.1652    0.3918    0.0000 C   0  0  0  0  0  0  0  0  0  0  0  0
    2.1652   -0.4332    0.0000 C   0  0  0  0  0  0  0  0  0  0  0  0
    1.4507   -0.8457    0.0000 C   0  0  0  0  0  0  0  0  0  0  0  0
    0.7363   -0.4332    0.0000 C   0  0  0  0  0  0  0  0  0  0  0  0
   -0.0484   -0.6882    0.0000 N   0  0  0  0  0  0  0  0  0  0  0  0
   -3.4627    0.9984    0.0000 H   0  0  0  0  0  0  0  0  0  0  0  0
   -1.5243    1.6282    0.0000 H   0  0  0  0  0  0  0  0  0  0  0  0
   -3.4243   -1.0118    0.0000 H   0  0  0  0  0  0  0  0  0  0  0  0
    1.4507    1.8363    0.0000 H   0  0  0  0  0  0  0  0  0  0  0  0
    3.0589    0.9078    0.0000 H   0  0  0  0  0  0  0  0  0  0  0  0
    3.0589   -0.9492    0.0000 H   0  0  0  0  0  0  0  0  0  0  0  0
    1.4507   -1.8777    0.0000 H   0  0  0  0  0  0  0  0  0  0  0  0
   -0.3526   -1.6245    0.0000 H   0  0  0  0  0  0  0  0  0  0  0  0
  1  2  2  0  0  0  0
  1  5  1  0  0  0  0
  1 15  1  0  0  0  0
  2  3  1  0  0  0  0
  2 16  1  0  0  0  0
  3  4  2  0  0  0  0
  3  6  1  0  0  0  0
  4  5  1  0  0  0  0
  5 17  1  0  0  0  0
  6  7  2  0  0  0  0
  6 14  1  0  0  0  0
  7  8  1  0  0  0  0
  8  9  2  0  0  0  0
  8 13  1  0  0  0  0
  9 10  1  0  0  0  0
  9 18  1  0  0  0  0
 10 11  2  0  0  0  0
 10 19  1  0  0  0  0
 11 12  1  0  0  0  0
 11 20  1  0  0  0  0
 12 13  2  0  0  0  0
 12 21  1  0  0  0  0
 13 14  1  0  0  0  0
 14 22  1  0  0  0  0
M  END
>  <DRUGBANK_ID>
DB08065

>  <COMMON_NAME>
2-(1H-pyrazol-3-yl)-1H-benzimidazole

>  <UNII>
C26MF22L5F

$$$$
