
 OpenBabel10282417072D

 31 31  0  0  1  0  0  0  0  0999 V2000
    0.5678    2.7643    0.0000 C   0  0  0  0  0  0  0  0  0  0  0  0
   -0.2572    1.9393    0.0000 C   0  0  0  0  0  0  0  0  0  0  0  0
    1.3928    1.9393    0.0000 C   0  0  0  0  0  0  0  0  0  0  0  0
    2.0198    0.8843    0.0000 C   0  0  0  0  0  0  0  0  0  0  0  0
    1.2352    0.6294    0.0000 C   0  0  0  0  0  0  0  0  0  0  0  0
    2.6329    0.3323    0.0000 C   0  0  1  0  0  0  0  0  0  0  0  0
    0.5678    1.1143    0.0000 C   0  0  0  0  0  0  0  0  0  0  0  0
    0.9803   -0.1553    0.0000 C   0  0  0  0  0  0  0  0  0  0  0  0
    3.4175    0.5872    0.0000 C   0  0  0  0  0  0  0  0  0  0  0  0
    0.5678    1.9393    0.0000 C   0  0  0  0  0  0  0  0  0  0  0  0
    2.4614   -0.4747    0.0000 N   0  0  0  0  0  0  0  0  0  0  0  0
    0.1553   -0.1553    0.0000 N   0  0  0  0  0  0  0  0  0  0  0  0
    1.4652   -0.8227    0.0000 O   0  5  0  0  0  0  0  0  0  0  0  0
    3.5891    1.3942    0.0000 O   0  0  0  0  0  0  0  0  0  0  0  0
    4.0306    0.0352    0.0000 O   0  0  0  0  0  0  0  0  0  0  0  0
   -0.0997    0.6294    0.0000 O   0  0  0  0  0  0  0  0  0  0  0  0
    2.8044    1.1392    0.0000 H   0  0  0  0  0  0  0  0  0  0  0  0
    1.4944    3.2993    0.0000 H   0  0  0  0  0  0  0  0  0  0  0  0
   -0.3588    3.2993    0.0000 H   0  0  0  0  0  0  0  0  0  0  0  0
    0.5678    3.8343    0.0000 H   0  0  0  0  0  0  0  0  0  0  0  0
   -0.7922    2.8659    0.0000 H   0  0  0  0  0  0  0  0  0  0  0  0
   -0.7922    1.0127    0.0000 H   0  0  0  0  0  0  0  0  0  0  0  0
   -1.3272    1.9393    0.0000 H   0  0  0  0  0  0  0  0  0  0  0  0
    1.9278    1.0127    0.0000 H   0  0  0  0  0  0  0  0  0  0  0  0
    1.9278    2.8659    0.0000 H   0  0  0  0  0  0  0  0  0  0  0  0
    2.4628    1.9393    0.0000 H   0  0  0  0  0  0  0  0  0  0  0  0
    2.2423    1.9309    0.0000 H   0  0  0  0  0  0  0  0  0  0  0  0
    3.0374    1.2150    0.0000 H   0  0  0  0  0  0  0  0  0  0  0  0
    1.4913   -0.7899    0.0000 H   0  0  0  0  0  0  0  0  0  0  0  0
    3.2194   -1.1572    0.0000 H   0  0  0  0  0  0  0  0  0  0  0  0
    3.8358   -0.8813    0.0000 H   0  0  0  0  0  0  0  0  0  0  0  0
  1 18  1  0  0  0  0
  1 19  1  0  0  0  0
  1 20  1  0  0  0  0
  2 21  1  0  0  0  0
  2 22  1  0  0  0  0
  2 23  1  0  0  0  0
  3 24  1  0  0  0  0
  3 25  1  0  0  0  0
  3 26  1  0  0  0  0
  4 27  1  0  0  0  0
  4 28  1  0  0  0  0
  5  4  1  0  0  0  0
  6  4  1  0  0  0  0
  6 11  1  0  0  0  0
  6 17  1  6  0  0  0
  7  5  2  0  0  0  0
  8  5  1  0  0  0  0
  9  6  1  0  0  0  0
 10  1  1  0  0  0  0
 10  2  1  0  0  0  0
 10  3  1  0  0  0  0
 10  7  1  0  0  0  0
 11 29  1  0  0  0  0
 11 30  1  0  0  0  0
 12  8  2  0  0  0  0
 13  8  1  0  0  0  0
 14  9  2  0  0  0  0
 15  9  1  0  0  0  0
 15 31  1  0  0  0  0
 16  7  1  0  0  0  0
 16 12  1  0  0  0  0
M  CHG  1  13  -1
M  END
>  <DRUGBANK_ID>
DB03319

>  <SECONDARY_ACCESSION_NUMBERS>
EXPT00882

>  <COMMON_NAME>
(2S)-2-Ammonio-3-[5-(2-methyl-2-propanyl)-3-oxido-1,2-oxazol-4-yl]propanoate

$$$$
