
 OpenBabel10282417072D

 52 57  0  0  0  0  0  0  0  0999 V2000
   -0.4474   -1.5630    0.0000 O   0  0  0  0  0  0  0  0  0  0  0  0
   -2.9843   -0.0278    0.0000 O   0  0  0  0  0  0  0  0  0  0  0  0
   -3.1850   -2.1573    0.0000 O   0  0  0  0  0  0  0  0  0  0  0  0
   -3.1850    2.0102    0.0000 O   0  0  0  0  0  0  0  0  0  0  0  0
    0.4240   -0.8985    0.0000 N   0  3  2  0  0  0  0  0  0  0  0  0
   -1.7194   -0.4860    0.0000 C   0  0  2  0  0  0  0  0  0  0  0  0
   -1.0049   -0.8985    0.0000 C   0  0  1  0  0  0  0  0  0  0  0  0
   -0.2904   -0.4860    0.0000 C   0  0  1  0  0  0  0  0  0  0  0  0
   -1.2427    0.1189    0.0000 C   0  0  0  0  0  0  0  0  0  0  0  0
   -0.0694    0.1189    0.0000 C   0  0  0  0  0  0  0  0  0  0  0  0
   -2.4338   -0.8985    0.0000 C   0  0  2  0  0  0  0  0  0  0  0  0
   -1.7194    0.3389    0.0000 C   0  0  0  0  0  0  0  0  0  0  0  0
    1.2532   -1.1531    0.0000 C   0  0  0  0  0  0  0  0  0  0  0  0
   -0.2904    0.3389    0.0000 C   0  0  0  0  0  0  0  0  0  0  0  0
   -1.0049   -1.7236    0.0000 C   0  0  0  0  0  0  0  0  0  0  0  0
    1.8882   -0.5622    0.0000 C   0  0  0  0  0  0  0  0  0  0  0  0
   -1.0049    0.7514    0.0000 C   0  0  0  0  0  0  0  0  0  0  0  0
    0.6181   -1.7440    0.0000 C   0  0  0  0  0  0  0  0  0  0  0  0
   -1.7194   -2.1360    0.0000 C   0  0  0  0  0  0  0  0  0  0  0  0
   -2.4338   -1.7236    0.0000 C   0  0  0  0  0  0  0  0  0  0  0  0
   -2.4338    0.7514    0.0000 C   0  0  0  0  0  0  0  0  0  0  0  0
    2.7337   -0.3680    0.0000 C   0  0  0  0  0  0  0  0  0  0  0  0
    2.1428    0.2670    0.0000 C   0  0  0  0  0  0  0  0  0  0  0  0
   -1.0049    1.5764    0.0000 C   0  0  0  0  0  0  0  0  0  0  0  0
   -2.4338    1.5764    0.0000 C   0  0  0  0  0  0  0  0  0  0  0  0
   -1.7194    1.9888    0.0000 C   0  0  0  0  0  0  0  0  0  0  0  0
   -0.7792   -2.4745    0.0000 H   0  0  0  0  0  0  0  0  0  0  0  0
   -3.1849    2.9472    0.0000 H   0  0  0  0  0  0  0  0  0  0  0  0
    0.6363    0.0490    0.0000 H   0  0  0  0  0  0  0  0  0  0  0  0
   -1.7097    1.0816    0.0000 H   0  0  0  0  0  0  0  0  0  0  0  0
   -0.6747    1.0257    0.0000 H   0  0  0  0  0  0  0  0  0  0  0  0
    0.4986    1.0257    0.0000 H   0  0  0  0  0  0  0  0  0  0  0  0
   -0.5876    1.0550    0.0000 H   0  0  0  0  0  0  0  0  0  0  0  0
   -2.1777    0.1404    0.0000 H   0  0  0  0  0  0  0  0  0  0  0  0
    1.4927   -2.1959    0.0000 H   0  0  0  0  0  0  0  0  0  0  0  0
    2.2761   -1.4671    0.0000 H   0  0  0  0  0  0  0  0  0  0  0  0
    0.6362    0.8739    0.0000 H   0  0  0  0  0  0  0  0  0  0  0  0
   -0.2904    1.4089    0.0000 H   0  0  0  0  0  0  0  0  0  0  0  0
   -0.0783   -2.2587    0.0000 H   0  0  0  0  0  0  0  0  0  0  0  0
   -1.0050   -2.7936    0.0000 H   0  0  0  0  0  0  0  0  0  0  0  0
    2.6716    0.1666    0.0000 H   0  0  0  0  0  0  0  0  0  0  0  0
   -0.1653   -2.4728    0.0000 H   0  0  0  0  0  0  0  0  0  0  0  0
    1.6410   -2.0581    0.0000 H   0  0  0  0  0  0  0  0  0  0  0  0
    0.8575   -2.7869    0.0000 H   0  0  0  0  0  0  0  0  0  0  0  0
   -1.7194   -3.2060    0.0000 H   0  0  0  0  0  0  0  0  0  0  0  0
   -2.6460   -2.6710    0.0000 H   0  0  0  0  0  0  0  0  0  0  0  0
    3.7566   -0.6819    0.0000 H   0  0  0  0  0  0  0  0  0  0  0  0
    3.3017    0.5388    0.0000 H   0  0  0  0  0  0  0  0  0  0  0  0
    1.9033    1.3098    0.0000 H   0  0  0  0  0  0  0  0  0  0  0  0
    3.0881    0.7683    0.0000 H   0  0  0  0  0  0  0  0  0  0  0  0
   -0.1112    2.0925    0.0000 H   0  0  0  0  0  0  0  0  0  0  0  0
   -1.7194    3.0208    0.0000 H   0  0  0  0  0  0  0  0  0  0  0  0
  1 27  1  0  0  0  0
  2 21  1  0  0  0  0
  3 20  2  0  0  0  0
  4 25  1  0  0  0  0
  4 28  1  0  0  0  0
  5  8  1  0  0  0  0
  5 10  1  0  0  0  0
  5 13  1  6  0  0  0
  5 18  1  0  0  0  0
  6  7  1  0  0  0  0
  6  9  1  0  0  0  0
  6 11  1  0  0  0  0
  6 12  1  6  0  0  0
  7  1  1  1  0  0  0
  7  8  1  0  0  0  0
  7 15  1  0  0  0  0
  8 14  1  0  0  0  0
  8 29  1  6  0  0  0
  9 10  1  0  0  0  0
  9 30  1  0  0  0  0
  9 31  1  0  0  0  0
 10 32  1  0  0  0  0
 10 33  1  0  0  0  0
 11  2  1  0  0  0  0
 11 20  1  0  0  0  0
 11 34  1  1  0  0  0
 12 17  2  0  0  0  0
 12 21  1  0  0  0  0
 13 16  1  0  0  0  0
 13 35  1  0  0  0  0
 13 36  1  0  0  0  0
 14 17  1  0  0  0  0
 14 37  1  0  0  0  0
 14 38  1  0  0  0  0
 15 19  1  0  0  0  0
 15 39  1  0  0  0  0
 15 40  1  0  0  0  0
 16 22  1  0  0  0  0
 16 23  1  0  0  0  0
 16 41  1  0  0  0  0
 17 24  1  0  0  0  0
 18 42  1  0  0  0  0
 18 43  1  0  0  0  0
 18 44  1  0  0  0  0
 19 20  1  0  0  0  0
 19 45  1  0  0  0  0
 19 46  1  0  0  0  0
 21 25  2  0  0  0  0
 22 23  1  0  0  0  0
 22 47  1  0  0  0  0
 22 48  1  0  0  0  0
 23 49  1  0  0  0  0
 23 50  1  0  0  0  0
 24 26  2  0  0  0  0
 24 51  1  0  0  0  0
 25 26  1  0  0  0  0
 26 52  1  0  0  0  0
M  CHG  1   5   1
M  END
>  <DRUGBANK_ID>
DB06800

>  <COMMON_NAME>
Methylnaltrexone

>  <CAS_NUMBER>
916055-93-1

>  <UNII>
0RK7M7IABE

>  <SYNONYMS>
MNTX

$$$$
