
 OpenBabel10282417072D

 21 17  0  0  0  0  0  0  0  0999 V2000
    4.0507    4.2545    0.0000 Pt  0  2  0  0  0  0  0  0  0  0  0  0
    3.3362    4.6670    0.0000 Cl  0  5  0  0  0  0  0  0  0  0  0  0
    4.7652    4.6670    0.0000 Cl  0  5  0  0  0  0  0  0  0  0  0  0
    4.4080    0.4430    0.0000 N   0  0  0  0  0  0  0  0  0  0  0  0
    0.4430    2.4614    0.0000 N   0  0  0  0  0  0  0  0  0  0  0  0
    3.6934    0.8555    0.0000 C   0  0  0  0  0  0  0  0  0  0  0  0
    3.6934    1.6805    0.0000 C   0  0  0  0  0  0  0  0  0  0  0  0
    2.9790    0.4430    0.0000 C   0  0  0  0  0  0  0  0  0  0  0  0
    4.4080    2.0930    0.0000 C   0  0  0  0  0  0  0  0  0  0  0  0
    5.1225    1.6805    0.0000 C   0  0  0  0  0  0  0  0  0  0  0  0
    5.1225    0.8555    0.0000 C   0  0  0  0  0  0  0  0  0  0  0  0
    1.4630    2.4614    0.0000 H   0  0  0  0  0  0  0  0  0  0  0  0
   -0.0670    3.3447    0.0000 H   0  0  0  0  0  0  0  0  0  0  0  0
   -0.0670    1.5781    0.0000 H   0  0  0  0  0  0  0  0  0  0  0  0
    2.7997    2.1965    0.0000 H   0  0  0  0  0  0  0  0  0  0  0  0
    2.0523    0.9780    0.0000 H   0  0  0  0  0  0  0  0  0  0  0  0
    2.9790   -0.6270    0.0000 H   0  0  0  0  0  0  0  0  0  0  0  0
    2.0524   -0.0920    0.0000 H   0  0  0  0  0  0  0  0  0  0  0  0
    4.4080    3.1250    0.0000 H   0  0  0  0  0  0  0  0  0  0  0  0
    6.0162    2.1965    0.0000 H   0  0  0  0  0  0  0  0  0  0  0  0
    6.0162    0.3395    0.0000 H   0  0  0  0  0  0  0  0  0  0  0  0
  4  6  1  0  0  0  0
  4 11  2  0  0  0  0
  5 12  1  0  0  0  0
  5 13  1  0  0  0  0
  5 14  1  0  0  0  0
  6  7  2  0  0  0  0
  6  8  1  0  0  0  0
  7  9  1  0  0  0  0
  7 15  1  0  0  0  0
  8 16  1  0  0  0  0
  8 17  1  0  0  0  0
  8 18  1  0  0  0  0
  9 10  2  0  0  0  0
  9 19  1  0  0  0  0
 10 11  1  0  0  0  0
 10 20  1  0  0  0  0
 11 21  1  0  0  0  0
M  CHG  3   1   2   2  -1   3  -1
M  END
>  <DRUGBANK_ID>
DB04874

>  <COMMON_NAME>
Picoplatin

>  <CAS_NUMBER>
181630-15-9

>  <UNII>
B5TAN0L720

>  <SYNONYMS>
(SP-4-3)-Amminedichloro(2-methylpyridine)platinium; Picoplatin

$$$$
