
 OpenBabel10282417072D

 75 76  0  0  0  0  0  0  0  0999 V2000
    1.8414   -8.1395    0.0000 C   0  0  0  0  0  0  0  0  0  0  0  0
    1.4289   -7.4250    0.0000 C   0  0  0  0  0  0  0  0  0  0  0  0
    1.0164   -6.7105    0.0000 C   0  0  0  0  0  0  0  0  0  0  0  0
    0.7145   -7.8375    0.0000 C   0  0  0  0  0  0  0  0  0  0  0  0
    0.7145   -8.6625    0.0000 C   0  0  0  0  0  0  0  0  0  0  0  0
    1.4289   -9.0750    0.0000 C   0  0  0  0  0  0  0  0  0  0  0  0
    1.4289   -9.9000    0.0000 C   0  0  0  0  0  0  0  0  0  0  0  0
    0.7145  -10.3125    0.0000 C   0  0  0  0  0  0  0  0  0  0  0  0
    0.0000   -9.9000    0.0000 C   0  0  0  0  0  0  0  0  0  0  0  0
    0.0000   -9.0750    0.0000 C   0  0  0  0  0  0  0  0  0  0  0  0
    2.1434   -7.0125    0.0000 N   0  0  0  0  0  0  0  0  0  0  0  0
    2.8579   -7.4250    0.0000 C   0  0  0  0  0  0  0  0  0  0  0  0
    2.1434   -6.1875    0.0000 C   0  0  0  0  0  0  0  0  0  0  0  0
    1.4289   -5.7750    0.0000 O   0  0  0  0  0  0  0  0  0  0  0  0
    2.8579   -5.7750    0.0000 C   0  0  0  0  0  0  0  0  0  0  0  0
    2.8579   -4.9500    0.0000 N   0  0  0  0  0  0  0  0  0  0  0  0
    2.1434   -4.5375    0.0000 C   0  0  0  0  0  0  0  0  0  0  0  0
    1.4289   -4.9500    0.0000 C   0  0  0  0  0  0  0  0  0  0  0  0
    0.7145   -4.5375    0.0000 O   0  0  0  0  0  0  0  0  0  0  0  0
    3.5724   -4.5375    0.0000 C   0  0  0  0  0  0  0  0  0  0  0  0
    3.5724   -3.7125    0.0000 C   0  0  0  0  0  0  0  0  0  0  0  0
    2.8579   -3.3000    0.0000 O   0  0  0  0  0  0  0  0  0  0  0  0
    4.2868   -3.3000    0.0000 N   0  0  0  0  0  0  0  0  0  0  0  0
    5.0013   -3.7125    0.0000 C   0  0  0  0  0  0  0  0  0  0  0  0
    4.2868   -2.4750    0.0000 C   0  0  0  0  0  0  0  0  0  0  0  0
    5.1118   -2.4750    0.0000 C   0  0  0  0  0  0  0  0  0  0  0  0
    3.4618   -2.4750    0.0000 C   0  0  0  0  0  0  0  0  0  0  0  0
    4.2868   -1.6500    0.0000 C   0  0  0  0  0  0  0  0  0  0  0  0
    5.0013   -1.2375    0.0000 C   0  0  0  0  0  0  0  0  0  0  0  0
    5.0013   -0.4125    0.0000 C   0  0  0  0  0  0  0  0  0  0  0  0
    5.7158   -0.0000    0.0000 C   0  0  0  0  0  0  0  0  0  0  0  0
    6.4302   -0.4125    0.0000 C   0  0  0  0  0  0  0  0  0  0  0  0
    6.4302   -1.2375    0.0000 C   0  0  0  0  0  0  0  0  0  0  0  0
    5.7158   -1.6500    0.0000 C   0  0  0  0  0  0  0  0  0  0  0  0
    1.3064   -9.0661    0.0000 H   0  0  0  0  0  0  0  0  0  0  0  0
    2.9114   -8.1395    0.0000 H   0  0  0  0  0  0  0  0  0  0  0  0
    2.3764   -9.0662    0.0000 H   0  0  0  0  0  0  0  0  0  0  0  0
    1.5514   -5.7839    0.0000 H   0  0  0  0  0  0  0  0  0  0  0  0
   -0.0536   -6.7105    0.0000 H   0  0  0  0  0  0  0  0  0  0  0  0
    0.4814   -5.7838    0.0000 H   0  0  0  0  0  0  0  0  0  0  0  0
   -0.2122   -7.3025    0.0000 H   0  0  0  0  0  0  0  0  0  0  0  0
   -0.2121   -8.3725    0.0000 H   0  0  0  0  0  0  0  0  0  0  0  0
    2.3226   -8.5590    0.0000 H   0  0  0  0  0  0  0  0  0  0  0  0
    2.3226  -10.4160    0.0000 H   0  0  0  0  0  0  0  0  0  0  0  0
    0.7145  -11.3445    0.0000 H   0  0  0  0  0  0  0  0  0  0  0  0
   -0.8937  -10.4160    0.0000 H   0  0  0  0  0  0  0  0  0  0  0  0
   -0.8937   -8.5590    0.0000 H   0  0  0  0  0  0  0  0  0  0  0  0
    2.8579   -8.4950    0.0000 H   0  0  0  0  0  0  0  0  0  0  0  0
    3.7845   -6.8900    0.0000 H   0  0  0  0  0  0  0  0  0  0  0  0
    3.7846   -7.9600    0.0000 H   0  0  0  0  0  0  0  0  0  0  0  0
    3.7845   -6.3100    0.0000 H   0  0  0  0  0  0  0  0  0  0  0  0
    3.7845   -5.2400    0.0000 H   0  0  0  0  0  0  0  0  0  0  0  0
    2.1434   -3.4675    0.0000 H   0  0  0  0  0  0  0  0  0  0  0  0
    1.2168   -4.0025    0.0000 H   0  0  0  0  0  0  0  0  0  0  0  0
    1.4289   -6.0200    0.0000 H   0  0  0  0  0  0  0  0  0  0  0  0
    0.5022   -5.4850    0.0000 H   0  0  0  0  0  0  0  0  0  0  0  0
    0.7145   -3.5675    0.0000 H   0  0  0  0  0  0  0  0  0  0  0  0
    4.4990   -5.0725    0.0000 H   0  0  0  0  0  0  0  0  0  0  0  0
    4.4990   -4.0025    0.0000 H   0  0  0  0  0  0  0  0  0  0  0  0
    5.0013   -4.7825    0.0000 H   0  0  0  0  0  0  0  0  0  0  0  0
    5.9279   -3.1775    0.0000 H   0  0  0  0  0  0  0  0  0  0  0  0
    5.9280   -4.2475    0.0000 H   0  0  0  0  0  0  0  0  0  0  0  0
    5.6468   -3.4016    0.0000 H   0  0  0  0  0  0  0  0  0  0  0  0
    5.6468   -1.5484    0.0000 H   0  0  0  0  0  0  0  0  0  0  0  0
    6.1818   -2.4750    0.0000 H   0  0  0  0  0  0  0  0  0  0  0  0
    2.9268   -1.5484    0.0000 H   0  0  0  0  0  0  0  0  0  0  0  0
    2.9268   -3.4016    0.0000 H   0  0  0  0  0  0  0  0  0  0  0  0
    2.3918   -2.4750    0.0000 H   0  0  0  0  0  0  0  0  0  0  0  0
    3.3602   -1.1150    0.0000 H   0  0  0  0  0  0  0  0  0  0  0  0
    4.2868   -0.5800    0.0000 H   0  0  0  0  0  0  0  0  0  0  0  0
    4.1076    0.1035    0.0000 H   0  0  0  0  0  0  0  0  0  0  0  0
    5.7158    1.0320    0.0000 H   0  0  0  0  0  0  0  0  0  0  0  0
    7.3239    0.1035    0.0000 H   0  0  0  0  0  0  0  0  0  0  0  0
    7.3239   -1.7535    0.0000 H   0  0  0  0  0  0  0  0  0  0  0  0
    5.7158   -2.6820    0.0000 H   0  0  0  0  0  0  0  0  0  0  0  0
  1  2  1  0  0  0  0
  1 35  1  0  0  0  0
  1 36  1  0  0  0  0
  1 37  1  0  0  0  0
  2  3  1  0  0  0  0
  2  4  1  0  0  0  0
  2 11  1  0  0  0  0
  3 38  1  0  0  0  0
  3 39  1  0  0  0  0
  3 40  1  0  0  0  0
  4  5  1  0  0  0  0
  4 41  1  0  0  0  0
  4 42  1  0  0  0  0
  5  6  2  0  0  0  0
  5 10  1  0  0  0  0
  6  7  1  0  0  0  0
  6 43  1  0  0  0  0
  7  8  2  0  0  0  0
  7 44  1  0  0  0  0
  8  9  1  0  0  0  0
  8 45  1  0  0  0  0
  9 10  2  0  0  0  0
  9 46  1  0  0  0  0
 10 47  1  0  0  0  0
 11 12  1  0  0  0  0
 11 13  1  0  0  0  0
 12 48  1  0  0  0  0
 12 49  1  0  0  0  0
 12 50  1  0  0  0  0
 13 14  2  0  0  0  0
 13 15  1  0  0  0  0
 15 16  1  0  0  0  0
 15 51  1  0  0  0  0
 15 52  1  0  0  0  0
 16 17  1  0  0  0  0
 16 20  1  0  0  0  0
 17 18  1  0  0  0  0
 17 53  1  0  0  0  0
 17 54  1  0  0  0  0
 18 19  1  0  0  0  0
 18 55  1  0  0  0  0
 18 56  1  0  0  0  0
 19 57  1  0  0  0  0
 20 21  1  0  0  0  0
 20 58  1  0  0  0  0
 20 59  1  0  0  0  0
 21 22  2  0  0  0  0
 21 23  1  0  0  0  0
 23 24  1  0  0  0  0
 23 25  1  0  0  0  0
 24 60  1  0  0  0  0
 24 61  1  0  0  0  0
 24 62  1  0  0  0  0
 25 26  1  0  0  0  0
 25 27  1  0  0  0  0
 25 28  1  0  0  0  0
 26 63  1  0  0  0  0
 26 64  1  0  0  0  0
 26 65  1  0  0  0  0
 27 66  1  0  0  0  0
 27 67  1  0  0  0  0
 27 68  1  0  0  0  0
 28 29  1  0  0  0  0
 28 69  1  0  0  0  0
 28 70  1  0  0  0  0
 29 30  2  0  0  0  0
 29 34  1  0  0  0  0
 30 31  1  0  0  0  0
 30 71  1  0  0  0  0
 31 32  2  0  0  0  0
 31 72  1  0  0  0  0
 32 33  1  0  0  0  0
 32 73  1  0  0  0  0
 33 34  2  0  0  0  0
 33 74  1  0  0  0  0
 34 75  1  0  0  0  0
M  END
>  <DRUGBANK_ID>
DB12532

>  <COMMON_NAME>
Oxetacaine

>  <CAS_NUMBER>
126-27-2

>  <UNII>
IP8QT76V17

>  <SYNONYMS>
Oxetacaine

$$$$
