
 OpenBabel10282417072D

 59 62  0  0  0  0  0  0  0  0999 V2000
    3.3853   -0.1400    0.0000 N   0  3  0  0  0  0  0  0  0  0  0  0
    4.0833    0.2863    0.0000 C   0  0  0  0  0  0  0  0  0  0  0  0
    2.6706    0.2863    0.0000 C   0  0  0  0  0  0  0  0  0  0  0  0
    2.6706    1.0636    0.0000 C   0  0  0  0  0  0  0  0  0  0  0  0
    4.0833    1.0636    0.0000 C   0  0  0  0  0  0  0  0  0  0  0  0
    4.7896   -0.1400    0.0000 C   0  0  0  0  0  0  0  0  0  0  0  0
    2.0061   -0.1400    0.0000 C   0  0  0  0  0  0  0  0  0  0  0  0
    3.3853    1.4899    0.0000 C   0  0  0  0  0  0  0  0  0  0  0  0
    2.0061    1.5150    0.0000 C   0  0  0  0  0  0  0  0  0  0  0  0
    4.7896    1.4899    0.0000 C   0  0  0  0  0  0  0  0  0  0  0  0
    3.3853   -0.9675    0.0000 C   0  0  0  0  0  0  0  0  0  0  0  0
    1.2789    0.2863    0.0000 C   0  0  0  0  0  0  0  0  0  0  0  0
    5.5043    0.2863    0.0000 C   0  0  0  0  0  0  0  0  0  0  0  0
    0.8233    0.0104    0.0000 N   0  0  0  0  0  0  0  0  0  0  0  0
    6.0435   -0.1275    0.0000 N   0  0  0  0  0  0  0  0  0  0  0  0
    1.2789    1.0636    0.0000 C   0  0  0  0  0  0  0  0  0  0  0  0
    5.5043    1.0929    0.0000 C   0  0  0  0  0  0  0  0  0  0  0  0
   -3.5483   -0.0982    0.0000 N   0  0  0  0  0  0  0  0  0  0  0  0
   -2.8462    0.3113    0.0000 C   0  0  0  0  0  0  0  0  0  0  0  0
   -4.2630    0.3489    0.0000 C   0  0  0  0  0  0  0  0  0  0  0  0
   -4.2630    1.1263    0.0000 C   0  0  0  0  0  0  0  0  0  0  0  0
   -2.8462    1.1263    0.0000 C   0  0  0  0  0  0  0  0  0  0  0  0
   -2.1314   -0.1107    0.0000 C   0  0  0  0  0  0  0  0  0  0  0  0
   -4.9902   -0.1107    0.0000 C   0  0  0  0  0  0  0  0  0  0  0  0
   -3.5483    1.5819    0.0000 C   0  0  0  0  0  0  0  0  0  0  0  0
   -4.9902    1.5819    0.0000 C   0  0  0  0  0  0  0  0  0  0  0  0
   -2.1314    1.5819    0.0000 C   0  0  0  0  0  0  0  0  0  0  0  0
   -1.4419    0.3113    0.0000 C   0  0  0  0  0  0  0  0  0  0  0  0
   -5.6924    0.3489    0.0000 C   0  0  0  0  0  0  0  0  0  0  0  0
   -1.1076   -0.0104    0.0000 N   0  0  0  0  0  0  0  0  0  0  0  0
   -6.0435   -0.0104    0.0000 N   0  0  0  0  0  0  0  0  0  0  0  0
   -1.4419    1.1012    0.0000 C   0  0  0  0  0  0  0  0  0  0  0  0
   -5.6924    1.1263    0.0000 C   0  0  0  0  0  0  0  0  0  0  0  0
    1.7261   -1.5819    0.0000 Cl  0  5  0  0  0  0  0  0  0  0  0  0
    4.7869   -1.1720    0.0000 H   0  0  0  0  0  0  0  0  0  0  0  0
    2.0268   -1.1718    0.0000 H   0  0  0  0  0  0  0  0  0  0  0  0
    3.3907    2.5219    0.0000 H   0  0  0  0  0  0  0  0  0  0  0  0
    2.0273    2.5468    0.0000 H   0  0  0  0  0  0  0  0  0  0  0  0
    4.7710    2.5217    0.0000 H   0  0  0  0  0  0  0  0  0  0  0  0
    2.4587   -1.5025    0.0000 H   0  0  0  0  0  0  0  0  0  0  0  0
    4.3119   -1.5025    0.0000 H   0  0  0  0  0  0  0  0  0  0  0  0
    3.3853   -2.0375    0.0000 H   0  0  0  0  0  0  0  0  0  0  0  0
   -0.0394    0.4847    0.0000 H   0  0  0  0  0  0  0  0  0  0  0  0
    0.8439   -0.9739    0.0000 H   0  0  0  0  0  0  0  0  0  0  0  0
    5.9149   -1.1036    0.0000 H   0  0  0  0  0  0  0  0  0  0  0  0
    6.9531    0.2492    0.0000 H   0  0  0  0  0  0  0  0  0  0  0  0
    0.3770    1.5653    0.0000 H   0  0  0  0  0  0  0  0  0  0  0  0
    6.3937    1.6163    0.0000 H   0  0  0  0  0  0  0  0  0  0  0  0
   -2.1232   -1.1427    0.0000 H   0  0  0  0  0  0  0  0  0  0  0  0
   -4.9984   -1.1427    0.0000 H   0  0  0  0  0  0  0  0  0  0  0  0
   -3.5441    2.6139    0.0000 H   0  0  0  0  0  0  0  0  0  0  0  0
   -4.9984    2.6139    0.0000 H   0  0  0  0  0  0  0  0  0  0  0  0
   -2.1101    2.6137    0.0000 H   0  0  0  0  0  0  0  0  0  0  0  0
   -1.3441   -0.9661    0.0000 H   0  0  0  0  0  0  0  0  0  0  0  0
   -0.1617    0.2626    0.0000 H   0  0  0  0  0  0  0  0  0  0  0  0
   -6.9973    0.2334    0.0000 H   0  0  0  0  0  0  0  0  0  0  0  0
   -5.7777   -0.9583    0.0000 H   0  0  0  0  0  0  0  0  0  0  0  0
   -0.5270    1.5787    0.0000 H   0  0  0  0  0  0  0  0  0  0  0  0
   -6.5992    1.6189    0.0000 H   0  0  0  0  0  0  0  0  0  0  0  0
  2  1  1  0  0  0  0
  3  1  2  0  0  0  0
  4  3  1  0  0  0  0
  5  8  1  0  0  0  0
  5  2  2  0  0  0  0
  6  2  1  0  0  0  0
  6 35  1  0  0  0  0
  7  3  1  0  0  0  0
  7 36  1  0  0  0  0
  8  4  2  0  0  0  0
  8 37  1  0  0  0  0
  9 16  2  0  0  0  0
  9  4  1  0  0  0  0
  9 38  1  0  0  0  0
 10 17  2  0  0  0  0
 10  5  1  0  0  0  0
 10 39  1  0  0  0  0
 11  1  1  0  0  0  0
 11 40  1  0  0  0  0
 11 41  1  0  0  0  0
 11 42  1  0  0  0  0
 12  7  2  0  0  0  0
 13  6  2  0  0  0  0
 14 12  1  0  0  0  0
 14 43  1  0  0  0  0
 14 44  1  0  0  0  0
 15 13  1  0  0  0  0
 15 45  1  0  0  0  0
 15 46  1  0  0  0  0
 16 12  1  0  0  0  0
 16 47  1  0  0  0  0
 17 13  1  0  0  0  0
 17 48  1  0  0  0  0
 19 18  1  0  0  0  0
 20 18  2  0  0  0  0
 21 20  1  0  0  0  0
 22 19  2  0  0  0  0
 22 25  1  0  0  0  0
 23 19  1  0  0  0  0
 23 49  1  0  0  0  0
 24 20  1  0  0  0  0
 24 50  1  0  0  0  0
 25 21  2  0  0  0  0
 25 51  1  0  0  0  0
 26 21  1  0  0  0  0
 26 33  2  0  0  0  0
 26 52  1  0  0  0  0
 27 22  1  0  0  0  0
 27 32  2  0  0  0  0
 27 53  1  0  0  0  0
 28 23  2  0  0  0  0
 29 24  2  0  0  0  0
 30 28  1  0  0  0  0
 30 54  1  0  0  0  0
 30 55  1  0  0  0  0
 31 29  1  0  0  0  0
 31 56  1  0  0  0  0
 31 57  1  0  0  0  0
 32 28  1  0  0  0  0
 32 58  1  0  0  0  0
 33 29  1  0  0  0  0
 33 59  1  0  0  0  0
M  CHG  2   1   1  34  -1
M  END
>  <DRUGBANK_ID>
DB13373

>  <COMMON_NAME>
Acriflavine

>  <CAS_NUMBER>
65589-70-0

>  <UNII>
1T3A50395T

>  <SYNONYMS>
Acriflavinium chloride

$$$$
