
 OpenBabel10282417072D

 89 91  0  0  0  0  0  0  0  0999 V2000
   -5.9653    2.7368    0.0000 P   0  0  0  0  0  0  0  0  0  0  0  0
   -3.3910    1.7141    0.0000 P   0  0  1  0  0  0  0  0  0  0  0  0
   -1.9697    1.8609    0.0000 P   0  0  2  0  0  0  0  0  0  0  0  0
    7.2268    3.2262    0.0000 F   0  0  0  0  0  0  0  0  0  0  0  0
   -5.4821    0.2584    0.0000 O   0  0  0  0  0  0  0  0  0  0  0  0
   -6.5184    2.1248    0.0000 O   0  0  0  0  0  0  0  0  0  0  0  0
   -7.5760    0.6745    0.0000 O   0  0  0  0  0  0  0  0  0  0  0  0
   -4.0593    1.2303    0.0000 O   0  0  0  0  0  0  0  0  0  0  0  0
   -6.5775    3.2900    0.0000 O   0  0  0  0  0  0  0  0  0  0  0  0
   -5.4122    3.3490    0.0000 O   0  0  0  0  0  0  0  0  0  0  0  0
   -2.7227    2.1978    0.0000 O   0  0  0  0  0  0  0  0  0  0  0  0
   -1.2165    1.5241    0.0000 O   0  0  0  0  0  0  0  0  0  0  0  0
   -5.3531    2.1838    0.0000 O   0  0  0  0  0  0  0  0  0  0  0  0
    1.0426    0.5136    0.0000 O   0  0  0  0  0  0  0  0  0  0  0  0
   -2.9073    1.0457    0.0000 O   0  0  0  0  0  0  0  0  0  0  0  0
   -3.8747    2.3823    0.0000 O   0  0  0  0  0  0  0  0  0  0  0  0
   -1.6328    2.6140    0.0000 O   0  0  0  0  0  0  0  0  0  0  0  0
    1.5413    2.6385    0.0000 O   0  0  0  0  0  0  0  0  0  0  0  0
   -2.3065    1.1078    0.0000 O   0  0  0  0  0  0  0  0  0  0  0  0
    4.3841    2.9323    0.0000 O   0  0  0  0  0  0  0  0  0  0  0  0
    8.7330    2.5524    0.0000 O   0  0  0  0  0  0  0  0  0  0  0  0
    8.1497    1.2480    0.0000 O   0  0  0  0  0  0  0  0  0  0  0  0
   -6.5235   -0.7793    0.0000 N   0  0  0  0  0  0  0  0  0  0  0  0
   -6.5235   -2.1071    0.0000 N   0  0  0  0  0  0  0  0  0  0  0  0
   -8.0186   -0.6183    0.0000 N   0  0  0  0  0  0  0  0  0  0  0  0
   -8.7330   -1.8557    0.0000 N   0  0  0  0  0  0  0  0  0  0  0  0
   -8.0186   -3.0932    0.0000 N   0  0  0  0  0  0  0  0  0  0  0  0
    2.3792    1.4810    0.0000 N   0  0  0  0  0  0  0  0  0  0  0  0
    5.2219    1.7749    0.0000 N   0  0  0  0  0  0  0  0  0  0  0  0
   -6.2649    1.3397    0.0000 C   0  0  1  0  0  0  0  0  0  0  0  0
   -6.7509    0.6731    0.0000 C   0  0  2  0  0  0  0  0  0  0  0  0
   -5.4806    1.0833    0.0000 C   0  0  1  0  0  0  0  0  0  0  0  0
   -6.2672    0.0047    0.0000 C   0  0  1  0  0  0  0  0  0  0  0  0
   -4.8124    1.5671    0.0000 C   0  0  0  0  0  0  0  0  0  0  0  0
   -7.3040   -1.0307    0.0000 C   0  0  0  0  0  0  0  0  0  0  0  0
   -6.0420   -1.4432    0.0000 C   0  0  0  0  0  0  0  0  0  0  0  0
   -7.3040   -1.8557    0.0000 C   0  0  0  0  0  0  0  0  0  0  0  0
    0.2047    1.6710    0.0000 C   0  0  0  0  0  0  0  0  0  0  0  0
    0.9578    1.3341    0.0000 C   0  0  2  0  0  0  0  0  0  0  0  0
   -0.5483    2.0079    0.0000 C   0  0  0  0  0  0  0  0  0  0  0  0
   -0.1320    0.9178    0.0000 C   0  0  0  0  0  0  0  0  0  0  0  0
    0.5417    2.4240    0.0000 C   0  0  0  0  0  0  0  0  0  0  0  0
   -8.0186   -2.2682    0.0000 C   0  0  0  0  0  0  0  0  0  0  0  0
    1.6261    1.8179    0.0000 C   0  0  0  0  0  0  0  0  0  0  0  0
   -8.7330   -1.0307    0.0000 C   0  0  0  0  0  0  0  0  0  0  0  0
    3.0475    1.9648    0.0000 C   0  0  0  0  0  0  0  0  0  0  0  0
    3.8005    1.6279    0.0000 C   0  0  0  0  0  0  0  0  0  0  0  0
    4.4689    2.1118    0.0000 C   0  0  0  0  0  0  0  0  0  0  0  0
    5.8902    2.2585    0.0000 C   0  0  0  0  0  0  0  0  0  0  0  0
    6.6434    1.9217    0.0000 C   0  0  0  0  0  0  0  0  0  0  0  0
    7.3116    2.4055    0.0000 C   0  0  2  0  0  0  0  0  0  0  0  0
    8.0648    2.0687    0.0000 C   0  0  0  0  0  0  0  0  0  0  0  0
   -8.4615   -3.3490    0.0000 H   0  0  0  0  0  0  0  0  0  0  0  0
   -7.5756   -3.3490    0.0000 H   0  0  0  0  0  0  0  0  0  0  0  0
    2.4318    0.9722    0.0000 H   0  0  0  0  0  0  0  0  0  0  0  0
    5.2745    1.2660    0.0000 H   0  0  0  0  0  0  0  0  0  0  0  0
   -8.0596    1.5154    0.0000 H   0  0  0  0  0  0  0  0  0  0  0  0
   -6.3741    4.2384    0.0000 H   0  0  0  0  0  0  0  0  0  0  0  0
   -4.4637    3.1457    0.0000 H   0  0  0  0  0  0  0  0  0  0  0  0
    0.2569   -0.0552    0.0000 H   0  0  0  0  0  0  0  0  0  0  0  0
   -3.3035    0.1603    0.0000 H   0  0  0  0  0  0  0  0  0  0  0  0
   -0.6679    2.7137    0.0000 H   0  0  0  0  0  0  0  0  0  0  0  0
    9.5883    2.1698    0.0000 H   0  0  0  0  0  0  0  0  0  0  0  0
   -7.3214    1.5089    0.0000 H   0  0  0  0  0  0  0  0  0  0  0  0
   -7.2351    1.6273    0.0000 H   0  0  0  0  0  0  0  0  0  0  0  0
   -4.5281    0.5959    0.0000 H   0  0  0  0  0  0  0  0  0  0  0  0
   -5.5119   -0.7532    0.0000 H   0  0  0  0  0  0  0  0  0  0  0  0
   -4.9225    2.6314    0.0000 H   0  0  0  0  0  0  0  0  0  0  0  0
   -5.7892    2.0039    0.0000 H   0  0  0  0  0  0  0  0  0  0  0  0
   -5.0100   -1.4432    0.0000 H   0  0  0  0  0  0  0  0  0  0  0  0
    0.0911    0.7067    0.0000 H   0  0  0  0  0  0  0  0  0  0  0  0
   -0.6583    3.0722    0.0000 H   0  0  0  0  0  0  0  0  0  0  0  0
    0.3185    2.6353    0.0000 H   0  0  0  0  0  0  0  0  0  0  0  0
   -1.1963    0.8075    0.0000 H   0  0  0  0  0  0  0  0  0  0  0  0
    0.4956    0.0512    0.0000 H   0  0  0  0  0  0  0  0  0  0  0  0
   -0.5687   -0.0590    0.0000 H   0  0  0  0  0  0  0  0  0  0  0  0
    1.6061    2.5338    0.0000 H   0  0  0  0  0  0  0  0  0  0  0  0
   -0.0856    3.2909    0.0000 H   0  0  0  0  0  0  0  0  0  0  0  0
    0.9788    3.4007    0.0000 H   0  0  0  0  0  0  0  0  0  0  0  0
   -9.6267   -0.5147    0.0000 H   0  0  0  0  0  0  0  0  0  0  0  0
    2.9375    3.0291    0.0000 H   0  0  0  0  0  0  0  0  0  0  0  0
    3.9143    2.5922    0.0000 H   0  0  0  0  0  0  0  0  0  0  0  0
    3.9105    0.5636    0.0000 H   0  0  0  0  0  0  0  0  0  0  0  0
    4.7772    1.1910    0.0000 H   0  0  0  0  0  0  0  0  0  0  0  0
    5.7802    3.3228    0.0000 H   0  0  0  0  0  0  0  0  0  0  0  0
    6.7569    2.8860    0.0000 H   0  0  0  0  0  0  0  0  0  0  0  0
    6.7535    0.8574    0.0000 H   0  0  0  0  0  0  0  0  0  0  0  0
    7.6202    1.4849    0.0000 H   0  0  0  0  0  0  0  0  0  0  0  0
    6.3348    2.8424    0.0000 H   0  0  0  0  0  0  0  0  0  0  0  0
  1  6  1  0  0  0  0
  1  9  1  0  0  0  0
  1 10  1  0  0  0  0
  1 13  2  0  0  0  0
  2  8  1  0  0  0  0
  2 11  1  0  0  0  0
  2 15  1  0  0  0  0
  2 16  2  6  0  0  0
  3 11  1  0  0  0  0
  3 12  1  0  0  0  0
  3 17  1  0  0  0  0
  3 19  2  6  0  0  0
  4 51  1  0  0  0  0
  5 32  1  0  0  0  0
  5 33  1  0  0  0  0
  7 57  1  0  0  0  0
  8 34  1  0  0  0  0
  9 58  1  0  0  0  0
 10 59  1  0  0  0  0
 12 40  1  0  0  0  0
 14 60  1  0  0  0  0
 15 61  1  0  0  0  0
 17 62  1  0  0  0  0
 18 44  2  0  0  0  0
 20 48  2  0  0  0  0
 21 52  1  0  0  0  0
 21 63  1  0  0  0  0
 22 52  2  0  0  0  0
 23 35  1  0  0  0  0
 23 36  1  0  0  0  0
 24 36  2  0  0  0  0
 24 37  1  0  0  0  0
 25 35  2  0  0  0  0
 25 45  1  0  0  0  0
 26 43  1  0  0  0  0
 26 45  2  0  0  0  0
 27 43  1  0  0  0  0
 27 53  1  0  0  0  0
 27 54  1  0  0  0  0
 28 44  1  0  0  0  0
 28 46  1  0  0  0  0
 28 55  1  0  0  0  0
 29 48  1  0  0  0  0
 29 49  1  0  0  0  0
 29 56  1  0  0  0  0
 30  6  1  0  0  0  0
 30 31  1  0  0  0  0
 30 32  1  0  0  0  0
 30 64  1  1  0  0  0
 31  7  1  0  0  0  0
 31 33  1  0  0  0  0
 31 65  1  1  0  0  0
 32 34  1  0  0  0  0
 32 66  1  6  0  0  0
 33 23  1  0  0  0  0
 33 67  1  6  0  0  0
 34 68  1  0  0  0  0
 34 69  1  0  0  0  0
 35 37  1  0  0  0  0
 36 70  1  0  0  0  0
 37 43  2  0  0  0  0
 38 39  1  0  0  0  0
 38 40  1  0  0  0  0
 38 41  1  0  0  0  0
 38 42  1  0  0  0  0
 39 14  1  0  0  0  0
 39 44  1  0  0  0  0
 39 71  1  1  0  0  0
 40 72  1  0  0  0  0
 40 73  1  0  0  0  0
 41 74  1  0  0  0  0
 41 75  1  0  0  0  0
 41 76  1  0  0  0  0
 42 77  1  0  0  0  0
 42 78  1  0  0  0  0
 42 79  1  0  0  0  0
 45 80  1  0  0  0  0
 46 47  1  0  0  0  0
 46 81  1  0  0  0  0
 46 82  1  0  0  0  0
 47 48  1  0  0  0  0
 47 83  1  0  0  0  0
 47 84  1  0  0  0  0
 49 50  1  0  0  0  0
 49 85  1  0  0  0  0
 49 86  1  0  0  0  0
 50 87  1  0  0  0  0
 50 88  1  0  0  0  0
 51 50  1  0  0  0  0
 51 52  1  0  0  0  0
 51 89  1  6  0  0  0
M  END
>  <DRUGBANK_ID>
DB03182

>  <SECONDARY_ACCESSION_NUMBERS>
EXPT01407

>  <COMMON_NAME>
alpha-Fluoro-carboxymethyldethia coenzyme A complex

$$$$
