
 OpenBabel10282417072D

 95100  0  0  1  0  0  0  0  0999 V2000
    5.6007    3.6483    0.0000 O   0  0  0  0  0  0  0  0  0  0  0  0
    5.6172    2.2197    0.0000 O   0  0  0  0  0  0  0  0  0  0  0  0
    7.2650    5.1254    0.0000 O   0  0  0  0  0  0  0  0  0  0  0  0
    6.0305    4.4062    0.0000 O   0  0  0  0  0  0  0  0  0  0  0  0
    2.3642   -0.6543    0.0000 O   0  0  0  0  0  0  0  0  0  0  0  0
    3.0786   -1.8915    0.0000 O   0  0  0  0  0  0  0  0  0  0  0  0
    6.7152   -5.4588    0.0000 O   0  0  0  0  0  0  0  0  0  0  0  0
    5.6554   -4.5005    0.0000 O   0  0  0  0  0  0  0  0  0  0  0  0
    7.7006    0.8884    0.0000 N   0  0  0  0  0  0  0  0  0  0  0  0
    6.4881   -0.2413    0.0000 N   0  0  0  0  0  0  0  0  0  0  0  0
    8.9670   -0.2413    0.0000 N   0  0  0  0  0  0  0  0  0  0  0  0
    7.7283   -1.3710    0.0000 N   0  0  0  0  0  0  0  0  0  0  0  0
    7.2876    2.2100    0.0000 C   0  0  2  0  0  0  0  0  0  0  0  0
    6.8461    2.9483    0.0000 C   0  0  1  0  0  0  0  0  0  0  0  0
    8.1135    2.2100    0.0000 C   0  0  0  0  0  0  0  0  0  0  0  0
    7.0392    1.4118    0.0000 C   0  0  0  0  0  0  0  0  0  0  0  0
    6.4627    2.2100    0.0000 C   0  0  0  0  0  0  0  0  0  0  0  0
    7.2705    3.6966    0.0000 C   0  0  0  0  0  0  0  0  0  0  0  0
    8.3898    1.4394    0.0000 C   0  0  0  0  0  0  0  0  0  0  0  0
    8.5552    2.9483    0.0000 C   0  0  0  0  0  0  0  0  0  0  0  0
    8.1307    3.6966    0.0000 C   0  0  0  0  0  0  0  0  0  0  0  0
    6.0213    2.9388    0.0000 C   0  0  0  0  0  0  0  0  0  0  0  0
    6.2409    1.1908    0.0000 C   0  0  0  0  0  0  0  0  0  0  0  0
    9.1880    1.1908    0.0000 C   0  0  0  0  0  0  0  0  0  0  0  0
    6.0199    0.3925    0.0000 C   0  0  0  0  0  0  0  0  0  0  0  0
    6.8554    4.4094    0.0000 C   0  0  0  0  0  0  0  0  0  0  0  0
    5.2216    0.1717    0.0000 C   0  0  0  0  0  0  0  0  0  0  0  0
    9.4352    0.4202    0.0000 C   0  0  0  0  0  0  0  0  0  0  0  0
    5.2216   -0.6542    0.0000 C   0  0  0  0  0  0  0  0  0  0  0  0
    6.0199   -0.8752    0.0000 C   0  0  0  0  0  0  0  0  0  0  0  0
   10.2348    0.1993    0.0000 C   0  0  0  0  0  0  0  0  0  0  0  0
    4.5073   -1.0667    0.0000 C   0  0  0  0  0  0  0  0  0  0  0  0
    4.5652    0.6711    0.0000 C   0  0  0  0  0  0  0  0  0  0  0  0
    9.4628   -0.8476    0.0000 C   0  0  0  0  0  0  0  0  0  0  0  0
   10.2348   -0.6266    0.0000 C   0  0  0  0  0  0  0  0  0  0  0  0
    6.2686   -1.6458    0.0000 C   0  0  0  0  0  0  0  0  0  0  0  0
    7.0667   -1.8943    0.0000 C   0  0  0  0  0  0  0  0  0  0  0  0
    4.7758    3.6387    0.0000 C   0  0  0  0  0  0  0  0  0  0  0  0
    7.3153   -2.6649    0.0000 C   0  0  0  0  0  0  0  0  0  0  0  0
    3.7929   -0.6542    0.0000 C   0  0  0  0  0  0  0  0  0  0  0  0
    9.2156   -1.6458    0.0000 C   0  0  0  0  0  0  0  0  0  0  0  0
    8.3898   -1.8668    0.0000 C   0  0  0  0  0  0  0  0  0  0  0  0
   10.8912    0.6988    0.0000 C   0  0  0  0  0  0  0  0  0  0  0  0
    8.1412   -2.6649    0.0000 C   0  0  0  0  0  0  0  0  0  0  0  0
    6.7621   -3.2768    0.0000 C   0  0  0  0  0  0  0  0  0  0  0  0
    6.8498    5.8381    0.0000 C   0  0  0  0  0  0  0  0  0  0  0  0
   10.8935   -1.1232    0.0000 C   0  0  0  0  0  0  0  0  0  0  0  0
    8.6302   -3.3294    0.0000 C   0  0  0  0  0  0  0  0  0  0  0  0
    3.0786   -1.0667    0.0000 C   0  0  0  0  0  0  0  0  0  0  0  0
    7.0153   -4.0620    0.0000 C   0  0  0  0  0  0  0  0  0  0  0  0
   11.6529   -0.8011    0.0000 C   0  0  0  0  0  0  0  0  0  0  0  0
    6.4619   -4.6738    0.0000 C   0  0  0  0  0  0  0  0  0  0  0  0
    1.6498   -1.0668    0.0000 C   0  0  0  0  0  0  0  0  0  0  0  0
    6.0868   -6.1539    0.0000 H   0  0  0  0  0  0  0  0  0  0  0  0
    7.4726   -0.2413    0.0000 H   0  0  0  0  0  0  0  0  0  0  0  0
    7.9831   -0.2755    0.0000 H   0  0  0  0  0  0  0  0  0  0  0  0
    6.3236    2.0146    0.0000 H   0  0  0  0  0  0  0  0  0  0  0  0
    5.9277    3.1366    0.0000 H   0  0  0  0  0  0  0  0  0  0  0  0
    5.9277    1.2834    0.0000 H   0  0  0  0  0  0  0  0  0  0  0  0
    5.3927    2.2100    0.0000 H   0  0  0  0  0  0  0  0  0  0  0  0
    9.5871    2.9364    0.0000 H   0  0  0  0  0  0  0  0  0  0  0  0
    8.6501    4.5884    0.0000 H   0  0  0  0  0  0  0  0  0  0  0  0
    5.5112    1.9205    0.0000 H   0  0  0  0  0  0  0  0  0  0  0  0
    9.9146    1.9236    0.0000 H   0  0  0  0  0  0  0  0  0  0  0  0
    4.5073   -2.1367    0.0000 H   0  0  0  0  0  0  0  0  0  0  0  0
    3.5806   -1.6017    0.0000 H   0  0  0  0  0  0  0  0  0  0  0  0
    4.7005    1.7325    0.0000 H   0  0  0  0  0  0  0  0  0  0  0  0
    3.5783    0.2576    0.0000 H   0  0  0  0  0  0  0  0  0  0  0  0
    3.7136    1.3190    0.0000 H   0  0  0  0  0  0  0  0  0  0  0  0
    5.5426   -2.3793    0.0000 H   0  0  0  0  0  0  0  0  0  0  0  0
    4.2301    4.5591    0.0000 H   0  0  0  0  0  0  0  0  0  0  0  0
    4.2516    2.7059    0.0000 H   0  0  0  0  0  0  0  0  0  0  0  0
    3.7059    3.6262    0.0000 H   0  0  0  0  0  0  0  0  0  0  0  0
    3.7929    0.4158    0.0000 H   0  0  0  0  0  0  0  0  0  0  0  0
    2.8662   -0.1193    0.0000 H   0  0  0  0  0  0  0  0  0  0  0  0
    9.9310   -2.3896    0.0000 H   0  0  0  0  0  0  0  0  0  0  0  0
   11.8781    0.2854    0.0000 H   0  0  0  0  0  0  0  0  0  0  0  0
   10.7558    1.7602    0.0000 H   0  0  0  0  0  0  0  0  0  0  0  0
   11.7427    1.3468    0.0000 H   0  0  0  0  0  0  0  0  0  0  0  0
    5.7160   -3.0521    0.0000 H   0  0  0  0  0  0  0  0  0  0  0  0
    6.0444   -4.0704    0.0000 H   0  0  0  0  0  0  0  0  0  0  0  0
    7.3812    6.7668    0.0000 H   0  0  0  0  0  0  0  0  0  0  0  0
    5.7798    5.8339    0.0000 H   0  0  0  0  0  0  0  0  0  0  0  0
    6.3112    6.7626    0.0000 H   0  0  0  0  0  0  0  0  0  0  0  0
   10.7675   -2.1475    0.0000 H   0  0  0  0  0  0  0  0  0  0  0  0
    8.2010   -4.3095    0.0000 H   0  0  0  0  0  0  0  0  0  0  0  0
    9.6936   -3.2111    0.0000 H   0  0  0  0  0  0  0  0  0  0  0  0
    9.2644   -4.1912    0.0000 H   0  0  0  0  0  0  0  0  0  0  0  0
    8.0614   -4.2868    0.0000 H   0  0  0  0  0  0  0  0  0  0  0  0
    7.3436   -5.0804    0.0000 H   0  0  0  0  0  0  0  0  0  0  0  0
   12.4769   -1.4224    0.0000 H   0  0  0  0  0  0  0  0  0  0  0  0
   11.7790    0.2232    0.0000 H   0  0  0  0  0  0  0  0  0  0  0  0
    0.7231   -0.5318    0.0000 H   0  0  0  0  0  0  0  0  0  0  0  0
    1.6498   -2.1368    0.0000 H   0  0  0  0  0  0  0  0  0  0  0  0
    0.7232   -1.6018    0.0000 H   0  0  0  0  0  0  0  0  0  0  0  0
  1 22  1  0  0  0  0
  1 38  1  0  0  0  0
  2 22  2  0  0  0  0
  3 26  1  0  0  0  0
  3 46  1  0  0  0  0
  4 26  2  0  0  0  0
  5 49  1  0  0  0  0
  5 53  1  0  0  0  0
  6 49  2  0  0  0  0
  7 52  1  0  0  0  0
  7 54  1  0  0  0  0
  8 52  2  0  0  0  0
  9 16  1  0  0  0  0
  9 19  2  0  0  0  0
 10 25  1  0  0  0  0
 10 30  1  0  0  0  0
 10 55  1  0  0  0  0
 11 28  1  0  0  0  0
 11 34  1  0  0  0  0
 11 56  1  0  0  0  0
 12 37  1  0  0  0  0
 12 42  2  0  0  0  0
 13 14  1  0  0  0  0
 13 15  1  0  0  0  0
 13 16  1  0  0  0  0
 13 17  1  1  0  0  0
 14 18  1  0  0  0  0
 14 22  1  0  0  0  0
 14 57  1  1  0  0  0
 15 19  1  0  0  0  0
 15 20  2  0  0  0  0
 16 23  2  0  0  0  0
 17 58  1  0  0  0  0
 17 59  1  0  0  0  0
 17 60  1  0  0  0  0
 18 21  2  0  0  0  0
 18 26  1  0  0  0  0
 19 24  1  0  0  0  0
 20 21  1  0  0  0  0
 20 61  1  0  0  0  0
 21 62  1  0  0  0  0
 23 25  1  0  0  0  0
 23 63  1  0  0  0  0
 24 28  2  0  0  0  0
 24 64  1  0  0  0  0
 25 27  2  0  0  0  0
 27 29  1  0  0  0  0
 27 33  1  0  0  0  0
 28 31  1  0  0  0  0
 29 30  2  0  0  0  0
 29 32  1  0  0  0  0
 30 36  1  0  0  0  0
 31 35  2  0  0  0  0
 31 43  1  0  0  0  0
 32 40  1  0  0  0  0
 32 65  1  0  0  0  0
 32 66  1  0  0  0  0
 33 67  1  0  0  0  0
 33 68  1  0  0  0  0
 33 69  1  0  0  0  0
 34 35  1  0  0  0  0
 34 41  2  0  0  0  0
 35 47  1  0  0  0  0
 36 37  2  0  0  0  0
 36 70  1  0  0  0  0
 37 39  1  0  0  0  0
 38 71  1  0  0  0  0
 38 72  1  0  0  0  0
 38 73  1  0  0  0  0
 39 44  2  0  0  0  0
 39 45  1  0  0  0  0
 40 49  1  0  0  0  0
 40 74  1  0  0  0  0
 40 75  1  0  0  0  0
 41 42  1  0  0  0  0
 41 76  1  0  0  0  0
 42 44  1  0  0  0  0
 43 77  1  0  0  0  0
 43 78  1  0  0  0  0
 43 79  1  0  0  0  0
 44 48  1  0  0  0  0
 45 50  1  0  0  0  0
 45 80  1  0  0  0  0
 45 81  1  0  0  0  0
 46 82  1  0  0  0  0
 46 83  1  0  0  0  0
 46 84  1  0  0  0  0
 47 51  2  0  0  0  0
 47 85  1  0  0  0  0
 48 86  1  0  0  0  0
 48 87  1  0  0  0  0
 48 88  1  0  0  0  0
 50 52  1  0  0  0  0
 50 89  1  0  0  0  0
 50 90  1  0  0  0  0
 51 91  1  0  0  0  0
 51 92  1  0  0  0  0
 53 93  1  0  0  0  0
 53 94  1  0  0  0  0
 53 95  1  0  0  0  0
M  END
>  <DRUGBANK_ID>
DB00460

>  <SECONDARY_ACCESSION_NUMBERS>
APRD01290

>  <COMMON_NAME>
Verteporfin

>  <CAS_NUMBER>
129497-78-5

>  <UNII>
WU713D62N9

>  <SYNONYMS>
Verteporfin; Verteporfina; Vert√©porfine; Verteporfinum

$$$$
