
 OpenBabel10282417072D

 52 54  0  0  1  0  0  0  0  0999 V2000
    3.4927   -3.1676    0.0000 C   0  0  0  0  0  0  0  0  0  0  0  0
    2.9406   -2.5545    0.0000 C   0  0  0  0  0  0  0  0  0  0  0  0
    3.1956   -1.7698    0.0000 N   0  0  0  0  0  0  0  0  0  0  0  0
    4.0025   -1.5983    0.0000 C   0  0  0  0  0  0  0  0  0  0  0  0
    4.2575   -0.8137    0.0000 C   0  0  0  0  0  0  0  0  0  0  0  0
    2.6435   -1.1567    0.0000 C   0  0  0  0  0  0  0  0  0  0  0  0
    1.8366   -1.3283    0.0000 O   0  0  0  0  0  0  0  0  0  0  0  0
    2.8985   -0.3721    0.0000 C   0  0  1  0  0  0  0  0  0  0  0  0
    3.7054   -0.2006    0.0000 C   0  0  0  0  0  0  0  0  0  0  0  0
    3.9604    0.5840    0.0000 C   0  0  0  0  0  0  0  0  0  0  0  0
    3.4084    1.1971    0.0000 C   0  0  0  0  0  0  0  0  0  0  0  0
    2.6014    1.0256    0.0000 C   0  0  0  0  0  0  0  0  0  0  0  0
    2.3464    0.2410    0.0000 C   0  0  0  0  0  0  0  0  0  0  0  0
    1.5214    0.2410    0.0000 C   0  0  0  0  0  0  0  0  0  0  0  0
    0.9694   -0.3721    0.0000 C   0  0  0  0  0  0  0  0  0  0  0  0
    1.2243   -1.1567    0.0000 O   0  0  0  0  0  0  0  0  0  0  0  0
    0.6723   -1.7698    0.0000 C   0  0  0  0  0  0  0  0  0  0  0  0
    0.1624   -0.2006    0.0000 C   0  0  0  0  0  0  0  0  0  0  0  0
   -0.0925    0.5840    0.0000 C   0  0  0  0  0  0  0  0  0  0  0  0
    0.4595    1.1971    0.0000 C   0  0  0  0  0  0  0  0  0  0  0  0
    1.2665    1.0256    0.0000 C   0  0  0  0  0  0  0  0  0  0  0  0
    1.9339    1.5105    0.0000 N   0  0  0  0  0  0  0  0  0  0  0  0
    1.9339    2.3355    0.0000 C   0  0  0  0  0  0  0  0  0  0  0  0
    2.6484    2.7480    0.0000 C   0  0  0  0  0  0  0  0  0  0  0  0
    2.6484    3.5730    0.0000 F   0  0  0  0  0  0  0  0  0  0  0  0
    3.1621   -4.1852    0.0000 H   0  0  0  0  0  0  0  0  0  0  0  0
    4.5393   -2.9451    0.0000 H   0  0  0  0  0  0  0  0  0  0  0  0
    4.2087   -3.9627    0.0000 H   0  0  0  0  0  0  0  0  0  0  0  0
    1.8940   -2.7770    0.0000 H   0  0  0  0  0  0  0  0  0  0  0  0
    2.2246   -1.7593    0.0000 H   0  0  0  0  0  0  0  0  0  0  0  0
    4.7184   -2.3935    0.0000 H   0  0  0  0  0  0  0  0  0  0  0  0
    5.0491   -1.3759    0.0000 H   0  0  0  0  0  0  0  0  0  0  0  0
    5.3041   -0.5913    0.0000 H   0  0  0  0  0  0  0  0  0  0  0  0
    3.5416   -0.0185    0.0000 H   0  0  0  0  0  0  0  0  0  0  0  0
    4.5882    0.2039    0.0000 H   0  0  0  0  0  0  0  0  0  0  0  0
    3.6144   -1.1673    0.0000 H   0  0  0  0  0  0  0  0  0  0  0  0
    4.4213   -0.9958    0.0000 H   0  0  0  0  0  0  0  0  0  0  0  0
    4.7520    0.0218    0.0000 H   0  0  0  0  0  0  0  0  0  0  0  0
    5.0070    0.8064    0.0000 H   0  0  0  0  0  0  0  0  0  0  0  0
    4.2911    1.6016    0.0000 H   0  0  0  0  0  0  0  0  0  0  0  0
    3.7391    2.2147    0.0000 H   0  0  0  0  0  0  0  0  0  0  0  0
    2.6925    1.9923    0.0000 H   0  0  0  0  0  0  0  0  0  0  0  0
   -0.3743   -1.5474    0.0000 H   0  0  0  0  0  0  0  0  0  0  0  0
    1.0030   -2.7874    0.0000 H   0  0  0  0  0  0  0  0  0  0  0  0
   -0.0436   -2.5650    0.0000 H   0  0  0  0  0  0  0  0  0  0  0  0
   -0.5281   -0.9675    0.0000 H   0  0  0  0  0  0  0  0  0  0  0  0
   -1.1019    0.7986    0.0000 H   0  0  0  0  0  0  0  0  0  0  0  0
    0.1406    2.1786    0.0000 H   0  0  0  0  0  0  0  0  0  0  0  0
    1.0073    2.8705    0.0000 H   0  0  0  0  0  0  0  0  0  0  0  0
    1.9339    3.4055    0.0000 H   0  0  0  0  0  0  0  0  0  0  0  0
    3.5750    2.2130    0.0000 H   0  0  0  0  0  0  0  0  0  0  0  0
    3.5750    3.2830    0.0000 H   0  0  0  0  0  0  0  0  0  0  0  0
  1  2  1  0  0  0  0
  1 26  1  0  0  0  0
  1 27  1  0  0  0  0
  1 28  1  0  0  0  0
  2  3  1  0  0  0  0
  2 29  1  0  0  0  0
  2 30  1  0  0  0  0
  3  4  1  0  0  0  0
  3  6  1  0  0  0  0
  4  5  1  0  0  0  0
  4 31  1  0  0  0  0
  4 32  1  0  0  0  0
  5 33  1  0  0  0  0
  5 34  1  0  0  0  0
  5 35  1  0  0  0  0
  6  7  2  0  0  0  0
  8  6  1  0  0  0  0
  8  9  1  0  0  0  0
  8 13  1  0  0  0  0
  8 36  1  1  0  0  0
  9 10  1  0  0  0  0
  9 37  1  0  0  0  0
  9 38  1  0  0  0  0
 10 11  1  0  0  0  0
 10 39  1  0  0  0  0
 10 40  1  0  0  0  0
 11 12  1  0  0  0  0
 11 41  1  0  0  0  0
 11 42  1  0  0  0  0
 12 13  2  0  0  0  0
 12 22  1  0  0  0  0
 13 14  1  0  0  0  0
 14 15  2  0  0  0  0
 14 21  1  0  0  0  0
 15 16  1  0  0  0  0
 15 18  1  0  0  0  0
 16 17  1  0  0  0  0
 17 43  1  0  0  0  0
 17 44  1  0  0  0  0
 17 45  1  0  0  0  0
 18 19  2  0  0  0  0
 18 46  1  0  0  0  0
 19 20  1  0  0  0  0
 19 47  1  0  0  0  0
 20 21  2  0  0  0  0
 20 48  1  0  0  0  0
 21 22  1  0  0  0  0
 22 23  1  0  0  0  0
 23 24  1  0  0  0  0
 23 49  1  0  0  0  0
 23 50  1  0  0  0  0
 24 25  1  0  0  0  0
 24 51  1  0  0  0  0
 24 52  1  0  0  0  0
M  ISO  1  25  18
M  END
>  <DRUGBANK_ID>
DB15380

>  <COMMON_NAME>
Flutriciclamide F-18

>  <CAS_NUMBER>
1274863-98-7

>  <UNII>
M96ARL6373

>  <SYNONYMS>
18F-GE-180

$$$$
