
 OpenBabel10282417072D

 59 59  0  0  0  0  0  0  0  0999 V2000
   -2.2225    0.4234    0.0000 C   0  0  2  0  0  0  0  0  0  0  0  0
   -2.2260   -0.4063    0.0000 C   0  0  2  0  0  0  0  0  0  0  0  0
   -3.0113    0.6773    0.0000 C   0  0  0  0  0  0  0  0  0  0  0  0
   -1.5092    0.8385    0.0000 C   0  0  0  0  0  0  0  0  0  0  0  0
   -3.0011   -0.6602    0.0000 C   0  0  1  0  0  0  0  0  0  0  0  0
   -1.5092   -0.8146    0.0000 C   0  0  0  0  0  0  0  0  0  0  0  0
   -3.4950    0.0051    0.0000 C   0  0  0  0  0  0  0  0  0  0  0  0
   -3.2686    1.4593    0.0000 O   0  0  0  0  0  0  0  0  0  0  0  0
   -0.7956    0.4234    0.0000 C   0  0  0  0  0  0  0  0  0  0  0  0
   -3.2481   -1.4457    0.0000 O   0  0  0  0  0  0  0  0  0  0  0  0
   -0.7956   -0.4063    0.0000 C   0  0  0  0  0  0  0  0  0  0  0  0
   -0.0788    0.8385    0.0000 C   0  0  0  0  0  0  0  0  0  0  0  0
   -0.0788   -0.8146    0.0000 C   0  0  2  0  0  0  0  0  0  0  0  0
    0.6310    0.4234    0.0000 C   0  0  0  0  0  0  0  0  0  0  0  0
    0.6345   -0.4063    0.0000 C   0  0  0  0  0  0  0  0  0  0  0  0
   -0.0788   -1.6412    0.0000 O   0  0  0  0  0  0  0  0  0  0  0  0
    1.3478    0.8385    0.0000 C   0  0  0  0  0  0  0  0  0  0  0  0
    1.3478   -0.8146    0.0000 C   0  0  0  0  0  0  0  0  0  0  0  0
    2.0647    0.4234    0.0000 C   0  0  0  0  0  0  0  0  0  0  0  0
    2.0647   -0.4063    0.0000 C   0  0  0  0  0  0  0  0  0  0  0  0
    2.7781    0.8385    0.0000 C   0  0  0  0  0  0  0  0  0  0  0  0
    2.7781   -0.8146    0.0000 C   0  0  0  0  0  0  0  0  0  0  0  0
    3.4915    0.4201    0.0000 O   0  0  0  0  0  0  0  0  0  0  0  0
    2.7919    1.6412    0.0000 O   0  0  0  0  0  0  0  0  0  0  0  0
    3.4950   -0.4063    0.0000 C   0  0  0  0  0  0  0  0  0  0  0  0
   -1.2961   -0.1120    0.0000 H   0  0  0  0  0  0  0  0  0  0  0  0
   -1.2998    0.1294    0.0000 H   0  0  0  0  0  0  0  0  0  0  0  0
   -1.5093    1.9085    0.0000 H   0  0  0  0  0  0  0  0  0  0  0  0
   -0.5817    1.3720    0.0000 H   0  0  0  0  0  0  0  0  0  0  0  0
   -2.2400   -1.4123    0.0000 H   0  0  0  0  0  0  0  0  0  0  0  0
   -1.5082   -1.8466    0.0000 H   0  0  0  0  0  0  0  0  0  0  0  0
   -4.5650   -0.0028    0.0000 H   0  0  0  0  0  0  0  0  0  0  0  0
   -3.9723   -0.9525    0.0000 H   0  0  0  0  0  0  0  0  0  0  0  0
   -0.7966   -0.6466    0.0000 H   0  0  0  0  0  0  0  0  0  0  0  0
    0.1311   -0.1114    0.0000 H   0  0  0  0  0  0  0  0  0  0  0  0
   -4.1949   -1.6564    0.0000 H   0  0  0  0  0  0  0  0  0  0  0  0
   -0.7966    0.6257    0.0000 H   0  0  0  0  0  0  0  0  0  0  0  0
   -0.0765    1.9085    0.0000 H   0  0  0  0  0  0  0  0  0  0  0  0
    0.8499    1.3699    0.0000 H   0  0  0  0  0  0  0  0  0  0  0  0
   -1.0039   -1.3523    0.0000 H   0  0  0  0  0  0  0  0  0  0  0  0
    0.6287   -0.6466    0.0000 H   0  0  0  0  0  0  0  0  0  0  0  0
    1.5574   -0.1120    0.0000 H   0  0  0  0  0  0  0  0  0  0  0  0
    0.6345    0.6637    0.0000 H   0  0  0  0  0  0  0  0  0  0  0  0
    1.5602    0.1304    0.0000 H   0  0  0  0  0  0  0  0  0  0  0  0
   -0.9188   -2.1262    0.0000 H   0  0  0  0  0  0  0  0  0  0  0  0
    1.3478    1.9085    0.0000 H   0  0  0  0  0  0  0  0  0  0  0  0
    2.2748    1.3729    0.0000 H   0  0  0  0  0  0  0  0  0  0  0  0
    1.3466   -1.8846    0.0000 H   0  0  0  0  0  0  0  0  0  0  0  0
    2.2726   -1.3528    0.0000 H   0  0  0  0  0  0  0  0  0  0  0  0
    2.0658   -0.6466    0.0000 H   0  0  0  0  0  0  0  0  0  0  0  0
    2.9925   -0.1095    0.0000 H   0  0  0  0  0  0  0  0  0  0  0  0
    2.0658    0.6637    0.0000 H   0  0  0  0  0  0  0  0  0  0  0  0
    2.9906    0.1300    0.0000 H   0  0  0  0  0  0  0  0  0  0  0  0
    2.7770   -1.8846    0.0000 H   0  0  0  0  0  0  0  0  0  0  0  0
    3.7029   -1.3528    0.0000 H   0  0  0  0  0  0  0  0  0  0  0  0
    3.4851   -0.5169    0.0000 H   0  0  0  0  0  0  0  0  0  0  0  0
    4.4185   -0.9467    0.0000 H   0  0  0  0  0  0  0  0  0  0  0  0
    3.5013    0.6637    0.0000 H   0  0  0  0  0  0  0  0  0  0  0  0
    4.4248    0.1232    0.0000 H   0  0  0  0  0  0  0  0  0  0  0  0
  1  2  1  0  0  0  0
  1  3  1  0  0  0  0
  1  4  1  0  0  0  0
  1 26  1  1  0  0  0
  2  5  1  0  0  0  0
  2  6  1  0  0  0  0
  2 27  1  6  0  0  0
  3  7  1  0  0  0  0
  3  8  2  0  0  0  0
  4  9  1  0  0  0  0
  4 28  1  0  0  0  0
  4 29  1  0  0  0  0
  5 10  1  0  0  0  0
  5  7  1  0  0  0  0
  5 30  1  1  0  0  0
  6 11  2  0  0  0  0
  6 31  1  0  0  0  0
  7 32  1  0  0  0  0
  7 33  1  0  0  0  0
  9 12  1  0  0  0  0
  9 34  1  0  0  0  0
  9 35  1  0  0  0  0
 10 36  1  0  0  0  0
 11 13  1  0  0  0  0
 11 37  1  0  0  0  0
 12 14  1  0  0  0  0
 12 38  1  0  0  0  0
 12 39  1  0  0  0  0
 13 15  1  0  0  0  0
 13 16  1  0  0  0  0
 13 40  1  1  0  0  0
 14 17  1  0  0  0  0
 14 41  1  0  0  0  0
 14 42  1  0  0  0  0
 15 18  1  0  0  0  0
 15 43  1  0  0  0  0
 15 44  1  0  0  0  0
 16 45  1  0  0  0  0
 17 19  1  0  0  0  0
 17 46  1  0  0  0  0
 17 47  1  0  0  0  0
 18 20  1  0  0  0  0
 18 48  1  0  0  0  0
 18 49  1  0  0  0  0
 19 21  1  0  0  0  0
 19 50  1  0  0  0  0
 19 51  1  0  0  0  0
 20 22  1  0  0  0  0
 20 52  1  0  0  0  0
 20 53  1  0  0  0  0
 21 23  1  0  0  0  0
 21 24  2  0  0  0  0
 22 25  1  0  0  0  0
 22 54  1  0  0  0  0
 22 55  1  0  0  0  0
 23 56  1  0  0  0  0
 25 57  1  0  0  0  0
 25 58  1  0  0  0  0
 25 59  1  0  0  0  0
M  END
>  <DRUGBANK_ID>
DB00770

>  <SECONDARY_ACCESSION_NUMBERS>
APRD00785

>  <COMMON_NAME>
Alprostadil

>  <CAS_NUMBER>
745-65-3

>  <UNII>
F5TD010360

>  <SYNONYMS>
(11α,13E,15S)-11,15-dihydroxy-9-oxoprost-13-en-1-oic acid; (13E)-(15S)-11alpha,15-Dihydroxy-9-oxoprost-13-enoate; 11α,15α-dihydroxy-9-oxo-13-trans-prostenoic acid; Alprostadil; Alprostadilum; PGE-1; PGE1; Prostaglandin E1

$$$$
