ChEBI
 OpenBabel10282417072D

 34 33  0  0  1  0  0  0  0  0999 V2000
   14.7400   -5.7318    0.0000 C   0  0  0  0  0  0  0  0  0  0  0  0
   14.7400   -6.5568    0.0000 C   0  0  0  0  0  0  0  0  0  0  0  0
   14.7400   -7.3818    0.0000 C   0  0  2  0  0  0  0  0  0  0  0  0
   14.7400   -8.2068    0.0000 C   0  0  1  0  0  0  0  0  0  0  0  0
   14.7400   -9.0318    0.0000 C   0  0  1  0  0  0  0  0  0  0  0  0
   14.7400   -9.8568    0.0000 C   0  0  0  0  0  0  0  0  0  0  0  0
   15.4545  -10.2693    0.0000 O   0  0  0  0  0  0  0  0  0  0  0  0
   15.4545   -5.3193    0.0000 O   0  0  0  0  0  0  0  0  0  0  0  0
   15.5650   -6.5568    0.0000 O   0  0  0  0  0  0  0  0  0  0  0  0
   13.9150   -7.3818    0.0000 O   0  0  0  0  0  0  0  0  0  0  0  0
   15.5650   -7.3818    0.0000 H   0  0  0  0  0  0  0  0  0  0  0  0
   13.9150   -8.2068    0.0000 H   0  0  0  0  0  0  0  0  0  0  0  0
   15.5650   -8.2068    0.0000 O   0  0  0  0  0  0  0  0  0  0  0  0
   13.9150   -9.0318    0.0000 H   0  0  0  0  0  0  0  0  0  0  0  0
   15.5650   -9.0318    0.0000 O   0  0  0  0  0  0  0  0  0  0  0  0
   16.2874   -5.3271    0.0000 P   0  0  0  0  0  0  0  0  0  0  0  0
   17.0809   -5.3428    0.0000 O   0  0  0  0  0  0  0  0  0  0  0  0
   16.2795   -6.1600    0.0000 O   0  0  0  0  0  0  0  0  0  0  0  0
   16.2795   -4.4943    0.0000 O   0  0  0  0  0  0  0  0  0  0  0  0
   16.5073  -10.2536    0.0000 P   0  0  0  0  0  0  0  0  0  0  0  0
   17.2459  -10.2536    0.0000 O   0  0  0  0  0  0  0  0  0  0  0  0
   16.4994   -9.4207    0.0000 O   0  0  0  0  0  0  0  0  0  0  0  0
   16.4994  -10.9214    0.0000 O   0  0  0  0  0  0  0  0  0  0  0  0
   13.8134   -5.1968    0.0000 H   0  0  0  0  0  0  0  0  0  0  0  0
   14.7400   -4.6618    0.0000 H   0  0  0  0  0  0  0  0  0  0  0  0
   13.8134  -10.3918    0.0000 H   0  0  0  0  0  0  0  0  0  0  0  0
   14.7400  -10.9268    0.0000 H   0  0  0  0  0  0  0  0  0  0  0  0
   13.4300   -6.5418    0.0000 H   0  0  0  0  0  0  0  0  0  0  0  0
   16.0500   -9.0468    0.0000 H   0  0  0  0  0  0  0  0  0  0  0  0
   16.0500   -9.8718    0.0000 H   0  0  0  0  0  0  0  0  0  0  0  0
   15.4349   -6.6370    0.0000 H   0  0  0  0  0  0  0  0  0  0  0  0
   17.1149   -4.0014    0.0000 H   0  0  0  0  0  0  0  0  0  0  0  0
   17.3348   -8.9278    0.0000 H   0  0  0  0  0  0  0  0  0  0  0  0
   15.6537  -11.3964    0.0000 H   0  0  0  0  0  0  0  0  0  0  0  0
  1 24  1  0  0  0  0
  1 25  1  0  0  0  0
  2  1  1  0  0  0  0
  2  9  2  0  0  0  0
  3  2  1  0  0  0  0
  3 10  1  0  0  0  0
  3 11  1  1  0  0  0
  4  3  1  0  0  0  0
  4 12  1  1  0  0  0
  4 13  1  0  0  0  0
  5  4  1  0  0  0  0
  5 14  1  1  0  0  0
  5 15  1  0  0  0  0
  6  5  1  0  0  0  0
  6 26  1  0  0  0  0
  6 27  1  0  0  0  0
  7  6  1  0  0  0  0
  7 20  1  0  0  0  0
  8  1  1  0  0  0  0
  8 16  1  0  0  0  0
 10 28  1  0  0  0  0
 13 29  1  0  0  0  0
 15 30  1  0  0  0  0
 17 16  2  0  0  0  0
 18 16  1  0  0  0  0
 18 31  1  0  0  0  0
 19 16  1  0  0  0  0
 19 32  1  0  0  0  0
 21 20  2  0  0  0  0
 22 20  1  0  0  0  0
 22 33  1  0  0  0  0
 23 20  1  0  0  0  0
 23 34  1  0  0  0  0
M  END
>  <DRUGBANK_ID>
DB13863

>  <COMMON_NAME>
Fosfructose

>  <CAS_NUMBER>
488-69-7

>  <UNII>
M7522JYX1H

>  <SYNONYMS>
1,6-di-O-phosphono-D-fructose; D-fructose 1,6-bisphosphate; Fosfructose; Fructose 1,6-bisphosphate; Fructose 1,6-diphosphate; Fructose-1,6-diphosphate; Harden-young ester; keto-D-fructose 1,6-bisphosphate

$$$$
