
 OpenBabel10282417072D

 37 38  0  0  0  0  0  0  0  0999 V2000
   -4.0042   -0.3365    0.0000 N   0  0  0  0  0  0  0  0  0  0  0  0
   -3.2897    0.0759    0.0000 C   0  0  0  0  0  0  0  0  0  0  0  0
   -3.2897    0.9009    0.0000 N   0  0  0  0  0  0  0  0  0  0  0  0
   -2.5753   -0.3365    0.0000 N   0  0  0  0  0  0  0  0  0  0  0  0
   -1.8608    0.0759    0.0000 C   0  0  0  0  0  0  0  0  0  0  0  0
   -1.1463   -0.3365    0.0000 C   0  0  0  0  0  0  0  0  0  0  0  0
   -0.4319    0.0759    0.0000 C   0  0  0  0  0  0  0  0  0  0  0  0
    0.2824   -0.3365    0.0000 C   0  0  2  0  0  0  0  0  0  0  0  0
    0.2824   -1.1615    0.0000 N   0  0  0  0  0  0  0  0  0  0  0  0
    0.9970   -1.5740    0.0000 C   0  0  0  0  0  0  0  0  0  0  0  0
    1.7115   -1.1615    0.0000 C   0  0  1  0  0  0  0  0  0  0  0  0
    1.7115   -0.3365    0.0000 N   0  0  0  0  0  0  0  0  0  0  0  0
    0.9970    0.0759    0.0000 C   0  0  0  0  0  0  0  0  0  0  0  0
    2.4961   -1.4164    0.0000 C   0  0  0  0  0  0  0  0  0  0  0  0
    2.9810   -0.7490    0.0000 C   0  0  0  0  0  0  0  0  0  0  0  0
    2.4961   -0.0815    0.0000 C   0  0  0  0  0  0  0  0  0  0  0  0
    0.9970   -2.3990    0.0000 O   0  0  0  0  0  0  0  0  0  0  0  0
    0.9970    0.9009    0.0000 O   0  0  0  0  0  0  0  0  0  0  0  0
    1.7977   -1.9819    0.0000 H   0  0  0  0  0  0  0  0  0  0  0  0
   -4.8567    0.1559    0.0000 H   0  0  0  0  0  0  0  0  0  0  0  0
   -4.0043   -1.3210    0.0000 H   0  0  0  0  0  0  0  0  0  0  0  0
   -2.4371    1.3932    0.0000 H   0  0  0  0  0  0  0  0  0  0  0  0
   -2.5753   -1.3210    0.0000 H   0  0  0  0  0  0  0  0  0  0  0  0
   -1.8608    1.1459    0.0000 H   0  0  0  0  0  0  0  0  0  0  0  0
   -2.7874    0.6110    0.0000 H   0  0  0  0  0  0  0  0  0  0  0  0
   -1.1463   -1.4065    0.0000 H   0  0  0  0  0  0  0  0  0  0  0  0
   -0.2197   -0.8715    0.0000 H   0  0  0  0  0  0  0  0  0  0  0  0
   -0.4319    1.1459    0.0000 H   0  0  0  0  0  0  0  0  0  0  0  0
    0.4948    0.6109    0.0000 H   0  0  0  0  0  0  0  0  0  0  0  0
    0.2825    0.7335    0.0000 H   0  0  0  0  0  0  0  0  0  0  0  0
   -0.5702   -1.6538    0.0000 H   0  0  0  0  0  0  0  0  0  0  0  0
    2.8268   -2.4340    0.0000 H   0  0  0  0  0  0  0  0  0  0  0  0
    1.7395   -2.1730    0.0000 H   0  0  0  0  0  0  0  0  0  0  0  0
    4.0510   -0.7490    0.0000 H   0  0  0  0  0  0  0  0  0  0  0  0
    3.4668    0.2044    0.0000 H   0  0  0  0  0  0  0  0  0  0  0  0
    2.8267    0.9361    0.0000 H   0  0  0  0  0  0  0  0  0  0  0  0
    1.7395    0.6751    0.0000 H   0  0  0  0  0  0  0  0  0  0  0  0
  1  2  1  0  0  0  0
  1 20  1  0  0  0  0
  1 21  1  0  0  0  0
  2  3  2  0  0  0  0
  2  4  1  0  0  0  0
  3 22  1  0  0  0  0
  4  5  1  0  0  0  0
  4 23  1  0  0  0  0
  5  6  1  0  0  0  0
  5 24  1  0  0  0  0
  5 25  1  0  0  0  0
  6  7  1  0  0  0  0
  6 26  1  0  0  0  0
  6 27  1  0  0  0  0
  7 28  1  0  0  0  0
  7 29  1  0  0  0  0
  8  7  1  0  0  0  0
  8 13  1  0  0  0  0
  8 30  1  6  0  0  0
  9 10  1  0  0  0  0
  9  8  1  0  0  0  0
  9 31  1  0  0  0  0
 10 11  1  0  0  0  0
 10 17  2  0  0  0  0
 11 14  1  0  0  0  0
 11 12  1  0  0  0  0
 11 19  1  6  0  0  0
 12 13  1  0  0  0  0
 12 16  1  0  0  0  0
 13 18  2  0  0  0  0
 14 15  1  0  0  0  0
 14 32  1  0  0  0  0
 14 33  1  0  0  0  0
 15 16  1  0  0  0  0
 15 34  1  0  0  0  0
 15 35  1  0  0  0  0
 16 36  1  0  0  0  0
 16 37  1  0  0  0  0
M  END
>  <DRUGBANK_ID>
DB04433

>  <SECONDARY_ACCESSION_NUMBERS>
EXPT00499

>  <COMMON_NAME>
Verpacamide A

>  <SYNONYMS>
Cyclo-(L-arginine-L-proline) inhibitor

$$$$
