
 OpenBabel10282417072D

 14 13  0  0  0  0  0  0  0  0999 V2000
    0.1105   -2.0625    0.0000 N   0  0  0  0  0  0  0  0  0  0  0  0
    0.1105   -1.2375    0.0000 C   0  0  0  0  0  0  0  0  0  0  0  0
    0.8250   -0.8250    0.0000 C   0  0  0  0  0  0  0  0  0  0  0  0
    0.8250    0.0000    0.0000 S   0  0  0  0  0  0  0  0  0  0  0  0
    0.8250    0.8250    0.0000 O   0  0  0  0  0  0  0  0  0  0  0  0
    1.6500    0.0000    0.0000 O   0  0  0  0  0  0  0  0  0  0  0  0
    0.0000    0.0000    0.0000 O   0  0  0  0  0  0  0  0  0  0  0  0
   -0.7728   -2.5725    0.0000 H   0  0  0  0  0  0  0  0  0  0  0  0
    0.9938   -2.5725    0.0000 H   0  0  0  0  0  0  0  0  0  0  0  0
   -0.8161   -0.7025    0.0000 H   0  0  0  0  0  0  0  0  0  0  0  0
    0.1105   -0.1675    0.0000 H   0  0  0  0  0  0  0  0  0  0  0  0
    1.7516   -1.3600    0.0000 H   0  0  0  0  0  0  0  0  0  0  0  0
    1.7516   -0.2900    0.0000 H   0  0  0  0  0  0  0  0  0  0  0  0
    1.6650    1.3100    0.0000 H   0  0  0  0  0  0  0  0  0  0  0  0
  1  2  1  0  0  0  0
  1  8  1  0  0  0  0
  1  9  1  0  0  0  0
  2  3  1  0  0  0  0
  2 10  1  0  0  0  0
  2 11  1  0  0  0  0
  3  4  1  0  0  0  0
  3 12  1  0  0  0  0
  3 13  1  0  0  0  0
  4  5  1  0  0  0  0
  4  6  2  0  0  0  0
  4  7  2  0  0  0  0
  5 14  1  0  0  0  0
M  END
>  <DRUGBANK_ID>
DB01956

>  <SECONDARY_ACCESSION_NUMBERS>
EXPT03010; DB11103

>  <COMMON_NAME>
Taurine

>  <CAS_NUMBER>
107-35-7

>  <UNII>
1EQV5MLY3D

>  <SYNONYMS>
Aminoethylsulfonic acid; Taurine; Taurineold

$$$$
