
 OpenBabel10282417072D

 46 46  0  0  0  0  0  0  0  0999 V2000
    0.3572    0.7293    0.0000 O   0  0  0  0  0  0  0  0  0  0  0  0
    2.5006   -0.5082    0.0000 O   0  0  0  0  0  0  0  0  0  0  0  0
   -0.3572   -1.3332    0.0000 O   0  0  0  0  0  0  0  0  0  0  0  0
   -1.0716    0.7293    0.0000 O   0  0  0  0  0  0  0  0  0  0  0  0
    2.3092    1.8562    0.0000 O   0  0  0  0  0  0  0  0  0  0  0  0
    1.0717    2.5707    0.0000 O   0  0  0  0  0  0  0  0  0  0  0  0
   -2.5006   -0.0957    0.0000 O   0  0  0  0  0  0  0  0  0  0  0  0
    2.5006   -1.3332    0.0000 O   0  0  0  0  0  0  0  0  0  0  0  0
    1.0717   -1.3332    0.0000 N   0  0  0  0  0  0  0  0  0  0  0  0
    1.0717   -0.5082    0.0000 C   0  0  1  0  0  0  0  0  0  0  0  0
    0.3572   -0.0957    0.0000 C   0  0  2  0  0  0  0  0  0  0  0  0
    1.0717    1.1418    0.0000 C   0  0  1  0  0  0  0  0  0  0  0  0
    1.7862   -0.0957    0.0000 C   0  0  2  0  0  0  0  0  0  0  0  0
    1.7862    0.7293    0.0000 C   0  0  0  0  0  0  0  0  0  0  0  0
   -0.3572   -0.5082    0.0000 C   0  0  1  0  0  0  0  0  0  0  0  0
    0.6592    1.8562    0.0000 C   0  0  0  0  0  0  0  0  0  0  0  0
   -1.0716   -0.0957    0.0000 C   0  0  1  0  0  0  0  0  0  0  0  0
    1.4842    1.8562    0.0000 C   0  0  0  0  0  0  0  0  0  0  0  0
   -1.7861   -0.5082    0.0000 C   0  0  0  0  0  0  0  0  0  0  0  0
   -0.1657    1.8562    0.0000 C   0  0  0  0  0  0  0  0  0  0  0  0
    1.7862   -1.7457    0.0000 C   0  0  0  0  0  0  0  0  0  0  0  0
    1.7862   -2.5707    0.0000 C   0  0  0  0  0  0  0  0  0  0  0  0
   -0.5782    2.5707    0.0000 C   0  0  0  0  0  0  0  0  0  0  0  0
   -0.2143    0.2343    0.0000 H   0  0  0  0  0  0  0  0  0  0  0  0
    0.6287   -1.5889    0.0000 H   0  0  0  0  0  0  0  0  0  0  0  0
    2.5006   -1.4782    0.0000 H   0  0  0  0  0  0  0  0  0  0  0  0
   -1.1972   -1.8182    0.0000 H   0  0  0  0  0  0  0  0  0  0  0  0
   -0.2316    1.2143    0.0000 H   0  0  0  0  0  0  0  0  0  0  0  0
    2.7777    1.0447    0.0000 H   0  0  0  0  0  0  0  0  0  0  0  0
   -2.5006    0.8743    0.0000 H   0  0  0  0  0  0  0  0  0  0  0  0
    0.1451   -1.0432    0.0000 H   0  0  0  0  0  0  0  0  0  0  0  0
    1.7862   -1.1657    0.0000 H   0  0  0  0  0  0  0  0  0  0  0  0
    2.7128    1.2643    0.0000 H   0  0  0  0  0  0  0  0  0  0  0  0
    2.7128    0.1943    0.0000 H   0  0  0  0  0  0  0  0  0  0  0  0
    0.5695   -1.0432    0.0000 H   0  0  0  0  0  0  0  0  0  0  0  0
    1.1942    2.7829    0.0000 H   0  0  0  0  0  0  0  0  0  0  0  0
    0.1242    2.7828    0.0000 H   0  0  0  0  0  0  0  0  0  0  0  0
   -0.1449    0.4393    0.0000 H   0  0  0  0  0  0  0  0  0  0  0  0
   -1.7861   -1.5782    0.0000 H   0  0  0  0  0  0  0  0  0  0  0  0
   -0.8595   -1.0432    0.0000 H   0  0  0  0  0  0  0  0  0  0  0  0
   -0.6817    0.9625    0.0000 H   0  0  0  0  0  0  0  0  0  0  0  0
    0.8596   -3.1057    0.0000 H   0  0  0  0  0  0  0  0  0  0  0  0
    2.7128   -3.1057    0.0000 H   0  0  0  0  0  0  0  0  0  0  0  0
    1.7862   -3.6407    0.0000 H   0  0  0  0  0  0  0  0  0  0  0  0
   -0.0622    3.4644    0.0000 H   0  0  0  0  0  0  0  0  0  0  0  0
   -1.6102    2.5707    0.0000 H   0  0  0  0  0  0  0  0  0  0  0  0
  1 11  1  0  0  0  0
  1 12  1  0  0  0  0
  2 26  1  0  0  0  0
  3 27  1  0  0  0  0
  4 28  1  0  0  0  0
  5 18  1  0  0  0  0
  5 29  1  0  0  0  0
  6 18  2  0  0  0  0
  7 19  1  0  0  0  0
  7 30  1  0  0  0  0
  8 21  2  0  0  0  0
  9 21  1  0  0  0  0
  9 25  1  0  0  0  0
 10  9  1  0  0  0  0
 10 11  1  0  0  0  0
 10 13  1  0  0  0  0
 10 31  1  6  0  0  0
 11 15  1  0  0  0  0
 11 24  1  1  0  0  0
 12 14  1  0  0  0  0
 12 16  1  0  0  0  0
 12 18  1  1  0  0  0
 13  2  1  0  0  0  0
 13 14  1  0  0  0  0
 13 32  1  1  0  0  0
 14 33  1  0  0  0  0
 14 34  1  0  0  0  0
 15  3  1  0  0  0  0
 15 17  1  0  0  0  0
 15 35  1  1  0  0  0
 16 20  1  0  0  0  0
 16 36  1  0  0  0  0
 16 37  1  0  0  0  0
 17  4  1  0  0  0  0
 17 19  1  0  0  0  0
 17 38  1  6  0  0  0
 19 39  1  0  0  0  0
 19 40  1  0  0  0  0
 20 23  2  0  0  0  0
 20 41  1  0  0  0  0
 21 22  1  0  0  0  0
 22 42  1  0  0  0  0
 22 43  1  0  0  0  0
 22 44  1  0  0  0  0
 23 45  1  0  0  0  0
 23 46  1  0  0  0  0
M  END
>  <DRUGBANK_ID>
DB01716

>  <SECONDARY_ACCESSION_NUMBERS>
EXPT00972

>  <COMMON_NAME>
2-propenyl-N-acetyl-neuramic acid

$$$$
