1490
 OpenBabel10282417072D

 22 23  0  0  1  0  0  0  0  0999 V2000
    2.3888    0.5203    0.0000 O   0  0  0  0  0  0  0  0  0  0  0  0
    3.4687    1.3049    0.0000 N   0  0  0  0  0  0  0  0  0  0  0  0
    2.1587    1.9724    0.0000 N   0  0  0  0  0  0  0  0  0  0  0  0
    3.0562    0.0354    0.0000 C   0  0  3  0  0  0  0  0  0  0  0  0
    3.7236    0.5203    0.0000 C   0  0  0  0  0  0  0  0  0  0  0  0
    3.0562   -0.7896    0.0000 C   0  0  0  0  0  0  0  0  0  0  0  0
    3.7707   -1.2021    0.0000 C   0  0  0  0  0  0  0  0  0  0  0  0
    2.3417   -1.2021    0.0000 C   0  0  0  0  0  0  0  0  0  0  0  0
    2.6437    1.3049    0.0000 C   0  0  0  0  0  0  0  0  0  0  0  0
    3.7707   -2.0272    0.0000 C   0  0  0  0  0  0  0  0  0  0  0  0
    2.3417   -2.0272    0.0000 C   0  0  0  0  0  0  0  0  0  0  0  0
    3.0562   -2.4397    0.0000 C   0  0  0  0  0  0  0  0  0  0  0  0
    2.5591    2.8718    0.0000 H   0  0  0  0  0  0  0  0  0  0  0  0
    1.1796    1.8695    0.0000 H   0  0  0  0  0  0  0  0  0  0  0  0
    3.0562    1.1054    0.0000 H   0  0  0  0  0  0  0  0  0  0  0  0
    4.7412    0.1896    0.0000 H   0  0  0  0  0  0  0  0  0  0  0  0
    3.8910   -0.5365    0.0000 H   0  0  0  0  0  0  0  0  0  0  0  0
    4.6644   -0.6861    0.0000 H   0  0  0  0  0  0  0  0  0  0  0  0
    1.4480   -0.6861    0.0000 H   0  0  0  0  0  0  0  0  0  0  0  0
    4.6644   -2.5432    0.0000 H   0  0  0  0  0  0  0  0  0  0  0  0
    1.4480   -2.5432    0.0000 H   0  0  0  0  0  0  0  0  0  0  0  0
    3.0562   -3.4717    0.0000 H   0  0  0  0  0  0  0  0  0  0  0  0
  1  4  1  0  0  0  0
  1  9  1  0  0  0  0
  2  5  1  0  0  0  0
  2  9  2  0  0  0  0
  3  9  1  0  0  0  0
  3 13  1  0  0  0  0
  3 14  1  0  0  0  0
  4  5  1  0  0  0  0
  4  6  1  0  0  0  0
  4 15  1  0  0  0  0
  5 16  1  0  0  0  0
  5 17  1  0  0  0  0
  6  7  2  0  0  0  0
  6  8  1  0  0  0  0
  7 10  1  0  0  0  0
  7 18  1  0  0  0  0
  8 11  2  0  0  0  0
  8 19  1  0  0  0  0
 10 12  2  0  0  0  0
 10 20  1  0  0  0  0
 11 12  1  0  0  0  0
 11 21  1  0  0  0  0
 12 22  1  0  0  0  0
M  END
>  <DRUGBANK_ID>
DB01490

>  <COMMON_NAME>
Aminorex

>  <CAS_NUMBER>
2207-50-3

>  <UNII>
2SH16612I9

>  <SYNONYMS>
Aminorex; Aminorexum

$$$$
