
 OpenBabel10282417072D

 65 67  0  0  0  0  0  0  0  0999 V2000
   -4.2869   -2.2687    0.0000 C   0  0  0  0  0  0  0  0  0  0  0  0
   -4.2869   -1.4437    0.0000 C   0  0  0  0  0  0  0  0  0  0  0  0
   -5.0013   -1.0312    0.0000 C   0  0  0  0  0  0  0  0  0  0  0  0
   -3.5724   -1.0312    0.0000 C   0  0  0  0  0  0  0  0  0  0  0  0
   -3.5724   -0.2062    0.0000 O   0  0  0  0  0  0  0  0  0  0  0  0
   -2.8579    0.2062    0.0000 C   0  0  0  0  0  0  0  0  0  0  0  0
   -2.8579    1.0312    0.0000 C   0  0  0  0  0  0  0  0  0  0  0  0
   -2.1435    1.4437    0.0000 C   0  0  0  0  0  0  0  0  0  0  0  0
   -1.4290    1.0312    0.0000 C   0  0  0  0  0  0  0  0  0  0  0  0
   -0.7145    1.4437    0.0000 C   0  0  0  0  0  0  0  0  0  0  0  0
    0.0000    1.0312    0.0000 N   0  0  0  0  0  0  0  0  0  0  0  0
    0.7144    1.4437    0.0000 C   0  0  0  0  0  0  0  0  0  0  0  0
    0.7144    2.2687    0.0000 O   0  0  0  0  0  0  0  0  0  0  0  0
    1.4288    1.0312    0.0000 N   0  0  0  0  0  0  0  0  0  0  0  0
    2.1433    1.4437    0.0000 C   0  0  0  0  0  0  0  0  0  0  0  0
    2.8577    1.0312    0.0000 C   0  0  0  0  0  0  0  0  0  0  0  0
    3.5723    1.4437    0.0000 C   0  0  0  0  0  0  0  0  0  0  0  0
    4.2867    1.0312    0.0000 C   0  0  0  0  0  0  0  0  0  0  0  0
    4.2867    0.2062    0.0000 C   0  0  0  0  0  0  0  0  0  0  0  0
    5.0013   -0.2062    0.0000 F   0  0  0  0  0  0  0  0  0  0  0  0
    3.5723   -0.2062    0.0000 C   0  0  0  0  0  0  0  0  0  0  0  0
    2.8577    0.2062    0.0000 C   0  0  0  0  0  0  0  0  0  0  0  0
    1.4288    0.2062    0.0000 C   0  0  0  0  0  0  0  0  0  0  0  0
    2.1433   -0.2062    0.0000 C   0  0  0  0  0  0  0  0  0  0  0  0
    2.1433   -1.0312    0.0000 C   0  0  0  0  0  0  0  0  0  0  0  0
    1.4288   -1.4437    0.0000 N   0  0  0  0  0  0  0  0  0  0  0  0
    1.4288   -2.2687    0.0000 C   0  0  0  0  0  0  0  0  0  0  0  0
    0.7144   -1.0312    0.0000 C   0  0  0  0  0  0  0  0  0  0  0  0
    0.7144   -0.2062    0.0000 C   0  0  0  0  0  0  0  0  0  0  0  0
   -1.4290    0.2062    0.0000 C   0  0  0  0  0  0  0  0  0  0  0  0
   -2.1435   -0.2062    0.0000 C   0  0  0  0  0  0  0  0  0  0  0  0
   -5.2135   -2.8037    0.0000 H   0  0  0  0  0  0  0  0  0  0  0  0
   -3.3603   -2.8037    0.0000 H   0  0  0  0  0  0  0  0  0  0  0  0
   -4.2869   -3.3387    0.0000 H   0  0  0  0  0  0  0  0  0  0  0  0
   -4.2869   -0.3737    0.0000 H   0  0  0  0  0  0  0  0  0  0  0  0
   -5.0013    0.0388    0.0000 H   0  0  0  0  0  0  0  0  0  0  0  0
   -5.9280   -1.5662    0.0000 H   0  0  0  0  0  0  0  0  0  0  0  0
   -5.9279   -0.4962    0.0000 H   0  0  0  0  0  0  0  0  0  0  0  0
   -2.6458   -1.5662    0.0000 H   0  0  0  0  0  0  0  0  0  0  0  0
   -2.6458   -0.4962    0.0000 H   0  0  0  0  0  0  0  0  0  0  0  0
   -3.7516    1.5472    0.0000 H   0  0  0  0  0  0  0  0  0  0  0  0
   -2.1435    2.4757    0.0000 H   0  0  0  0  0  0  0  0  0  0  0  0
   -0.7145    2.5137    0.0000 H   0  0  0  0  0  0  0  0  0  0  0  0
    0.2121    1.9787    0.0000 H   0  0  0  0  0  0  0  0  0  0  0  0
    0.0000    0.0467    0.0000 H   0  0  0  0  0  0  0  0  0  0  0  0
    2.1433    2.5137    0.0000 H   0  0  0  0  0  0  0  0  0  0  0  0
    3.0700    1.9787    0.0000 H   0  0  0  0  0  0  0  0  0  0  0  0
    3.5724    2.4757    0.0000 H   0  0  0  0  0  0  0  0  0  0  0  0
    5.1804    1.5472    0.0000 H   0  0  0  0  0  0  0  0  0  0  0  0
    3.5724   -1.2382    0.0000 H   0  0  0  0  0  0  0  0  0  0  0  0
    1.9640   -0.3099    0.0000 H   0  0  0  0  0  0  0  0  0  0  0  0
    1.4288   -0.8638    0.0000 H   0  0  0  0  0  0  0  0  0  0  0  0
    3.0699    0.3289    0.0000 H   0  0  0  0  0  0  0  0  0  0  0  0
    3.0700   -0.7412    0.0000 H   0  0  0  0  0  0  0  0  0  0  0  0
    3.0699   -1.5662    0.0000 H   0  0  0  0  0  0  0  0  0  0  0  0
    2.1433   -2.1012    0.0000 H   0  0  0  0  0  0  0  0  0  0  0  0
    0.5022   -2.8037    0.0000 H   0  0  0  0  0  0  0  0  0  0  0  0
    2.3554   -2.8037    0.0000 H   0  0  0  0  0  0  0  0  0  0  0  0
    1.4288   -3.3387    0.0000 H   0  0  0  0  0  0  0  0  0  0  0  0
   -0.2123   -1.5662    0.0000 H   0  0  0  0  0  0  0  0  0  0  0  0
   -0.2122   -0.4962    0.0000 H   0  0  0  0  0  0  0  0  0  0  0  0
   -0.2122    0.3288    0.0000 H   0  0  0  0  0  0  0  0  0  0  0  0
    0.7144    0.8638    0.0000 H   0  0  0  0  0  0  0  0  0  0  0  0
   -0.5353   -0.3099    0.0000 H   0  0  0  0  0  0  0  0  0  0  0  0
   -2.1435   -1.2382    0.0000 H   0  0  0  0  0  0  0  0  0  0  0  0
  1  2  1  0  0  0  0
  1 32  1  0  0  0  0
  1 33  1  0  0  0  0
  1 34  1  0  0  0  0
  2  3  1  0  0  0  0
  2  4  1  0  0  0  0
  2 35  1  0  0  0  0
  3 36  1  0  0  0  0
  3 37  1  0  0  0  0
  3 38  1  0  0  0  0
  4  5  1  0  0  0  0
  4 39  1  0  0  0  0
  4 40  1  0  0  0  0
  5  6  1  0  0  0  0
  6  7  2  0  0  0  0
  6 31  1  0  0  0  0
  7  8  1  0  0  0  0
  7 41  1  0  0  0  0
  8  9  2  0  0  0  0
  8 42  1  0  0  0  0
  9 10  1  0  0  0  0
  9 30  1  0  0  0  0
 10 11  1  0  0  0  0
 10 43  1  0  0  0  0
 10 44  1  0  0  0  0
 11 12  1  0  0  0  0
 11 45  1  0  0  0  0
 12 13  2  0  0  0  0
 12 14  1  0  0  0  0
 14 15  1  0  0  0  0
 14 23  1  0  0  0  0
 15 16  1  0  0  0  0
 15 46  1  0  0  0  0
 15 47  1  0  0  0  0
 16 17  2  0  0  0  0
 16 22  1  0  0  0  0
 17 18  1  0  0  0  0
 17 48  1  0  0  0  0
 18 19  2  0  0  0  0
 18 49  1  0  0  0  0
 19 20  1  0  0  0  0
 19 21  1  0  0  0  0
 21 22  2  0  0  0  0
 21 50  1  0  0  0  0
 22 51  1  0  0  0  0
 23 24  1  0  0  0  0
 23 29  1  0  0  0  0
 23 52  1  0  0  0  0
 24 25  1  0  0  0  0
 24 53  1  0  0  0  0
 24 54  1  0  0  0  0
 25 26  1  0  0  0  0
 25 55  1  0  0  0  0
 25 56  1  0  0  0  0
 26 27  1  0  0  0  0
 26 28  1  0  0  0  0
 27 57  1  0  0  0  0
 27 58  1  0  0  0  0
 27 59  1  0  0  0  0
 28 29  1  0  0  0  0
 28 60  1  0  0  0  0
 28 61  1  0  0  0  0
 29 62  1  0  0  0  0
 29 63  1  0  0  0  0
 30 31  2  0  0  0  0
 30 64  1  0  0  0  0
 31 65  1  0  0  0  0
M  END
>  <DRUGBANK_ID>
DB05316

>  <COMMON_NAME>
Pimavanserin

>  <CAS_NUMBER>
706779-91-1

>  <UNII>
JZ963P0DIK

>  <SYNONYMS>
Pimavanserin

$$$$
