TQ4
 OpenBabel10282417072D

 34 36  0  0  0  0  0  0  0  0999 V2000
   -1.0647   -1.6362    0.0000 C   0  0  0  0  0  0  0  0  0  0  0  0
   -1.0647   -0.8112    0.0000 C   0  0  0  0  0  0  0  0  0  0  0  0
   -1.7792   -0.3987    0.0000 C   0  0  0  0  0  0  0  0  0  0  0  0
   -2.4937   -0.8112    0.0000 N   0  0  0  0  0  0  0  0  0  0  0  0
   -2.4937   -1.6362    0.0000 C   0  0  0  0  0  0  0  0  0  0  0  0
   -1.7792   -2.0487    0.0000 N   0  0  0  0  0  0  0  0  0  0  0  0
   -1.7792    0.4263    0.0000 N   0  0  0  0  0  0  0  0  0  0  0  0
   -0.3503   -2.0487    0.0000 C   0  0  0  0  0  0  0  0  0  0  0  0
    0.3642   -1.6362    0.0000 C   0  0  0  0  0  0  0  0  0  0  0  0
    0.3642   -0.8112    0.0000 C   0  0  0  0  0  0  0  0  0  0  0  0
   -0.3503   -0.3987    0.0000 C   0  0  0  0  0  0  0  0  0  0  0  0
   -3.2082   -2.0487    0.0000 N   0  0  0  0  0  0  0  0  0  0  0  0
   -0.3503    0.4263    0.0000 S   0  0  0  0  0  0  0  0  0  0  0  0
    0.3642    0.8388    0.0000 C   0  0  0  0  0  0  0  0  0  0  0  0
    0.3642    1.6638    0.0000 C   0  0  0  0  0  0  0  0  0  0  0  0
    1.0787    2.0763    0.0000 C   0  0  0  0  0  0  0  0  0  0  0  0
    1.7931    1.6638    0.0000 C   0  0  0  0  0  0  0  0  0  0  0  0
    1.7931    0.8388    0.0000 C   0  0  0  0  0  0  0  0  0  0  0  0
    1.0787    0.4263    0.0000 C   0  0  0  0  0  0  0  0  0  0  0  0
    2.5076    2.0763    0.0000 C   0  0  0  0  0  0  0  0  0  0  0  0
   -0.9266    0.9186    0.0000 H   0  0  0  0  0  0  0  0  0  0  0  0
   -2.6318    0.9185    0.0000 H   0  0  0  0  0  0  0  0  0  0  0  0
   -0.3503   -3.0807    0.0000 H   0  0  0  0  0  0  0  0  0  0  0  0
    1.2579   -2.1522    0.0000 H   0  0  0  0  0  0  0  0  0  0  0  0
    1.2579   -0.2952    0.0000 H   0  0  0  0  0  0  0  0  0  0  0  0
   -4.0608   -1.5564    0.0000 H   0  0  0  0  0  0  0  0  0  0  0  0
   -3.2082   -3.0332    0.0000 H   0  0  0  0  0  0  0  0  0  0  0  0
   -0.5295    2.1798    0.0000 H   0  0  0  0  0  0  0  0  0  0  0  0
    1.0787    3.1083    0.0000 H   0  0  0  0  0  0  0  0  0  0  0  0
    2.6868    0.3228    0.0000 H   0  0  0  0  0  0  0  0  0  0  0  0
    1.0787   -0.6057    0.0000 H   0  0  0  0  0  0  0  0  0  0  0  0
    3.4342    1.5413    0.0000 H   0  0  0  0  0  0  0  0  0  0  0  0
    2.5076    3.1463    0.0000 H   0  0  0  0  0  0  0  0  0  0  0  0
    3.4343    2.6113    0.0000 H   0  0  0  0  0  0  0  0  0  0  0  0
  1  2  2  0  0  0  0
  1  6  1  0  0  0  0
  1  8  1  0  0  0  0
  2  3  1  0  0  0  0
  2 11  1  0  0  0  0
  3  4  2  0  0  0  0
  3  7  1  0  0  0  0
  4  5  1  0  0  0  0
  5  6  2  0  0  0  0
  5 12  1  0  0  0  0
  7 21  1  0  0  0  0
  7 22  1  0  0  0  0
  8  9  2  0  0  0  0
  8 23  1  0  0  0  0
  9 10  1  0  0  0  0
  9 24  1  0  0  0  0
 10 11  2  0  0  0  0
 10 25  1  0  0  0  0
 11 13  1  0  0  0  0
 12 26  1  0  0  0  0
 12 27  1  0  0  0  0
 13 14  1  0  0  0  0
 14 15  2  0  0  0  0
 14 19  1  0  0  0  0
 15 16  1  0  0  0  0
 15 28  1  0  0  0  0
 16 17  2  0  0  0  0
 16 29  1  0  0  0  0
 17 18  1  0  0  0  0
 17 20  1  0  0  0  0
 18 19  2  0  0  0  0
 18 30  1  0  0  0  0
 19 31  1  0  0  0  0
 20 32  1  0  0  0  0
 20 33  1  0  0  0  0
 20 34  1  0  0  0  0
M  END
>  <DRUGBANK_ID>
DB04306

>  <SECONDARY_ACCESSION_NUMBERS>
EXPT03100

>  <COMMON_NAME>
5-[(4-Methylphenyl)Sulfanyl]-2,4-Quinazolinediamine

$$$$
