
 OpenBabel10282417072D

 29 28  0  0  1  0  0  0  0  0999 V2000
    2.7770   -0.3020    0.0000 C   0  0  0  0  0  0  0  0  0  0  0  0
    4.9204   -0.7145    0.0000 C   0  0  0  0  0  0  0  0  0  0  0  0
    2.0625   -0.7145    0.0000 C   0  0  1  0  0  0  0  0  0  0  0  0
    5.6349   -0.3020    0.0000 C   0  0  1  0  0  0  0  0  0  0  0  0
    3.4914   -0.7145    0.0000 C   0  0  2  0  0  0  0  0  0  0  0  0
    1.3480   -0.3020    0.0000 C   0  0  0  0  0  0  0  0  0  0  0  0
    6.3493   -0.7145    0.0000 C   0  0  0  0  0  0  0  0  0  0  0  0
    2.0625   -1.5395    0.0000 N   0  0  0  0  0  0  0  0  0  0  0  0
    5.6349    0.5230    0.0000 N   0  0  0  0  0  0  0  0  0  0  0  0
    3.4914   -1.5395    0.0000 O   0  0  0  0  0  0  0  0  0  0  0  0
    0.6336   -0.7145    0.0000 O   0  0  0  0  0  0  0  0  0  0  0  0
    1.3480    0.5230    0.0000 O   0  0  0  0  0  0  0  0  0  0  0  0
    7.0638   -0.3020    0.0000 O   0  0  0  0  0  0  0  0  0  0  0  0
    6.3493   -1.5395    0.0000 O   0  0  0  0  0  0  0  0  0  0  0  0
    4.2059   -0.3020    0.0000 S   0  0  0  0  0  0  0  0  0  0  0  0
    2.0625    0.1105    0.0000 H   0  0  0  0  0  0  0  0  0  0  0  0
    5.6349   -1.1270    0.0000 H   0  0  0  0  0  0  0  0  0  0  0  0
    2.7770   -1.1270    0.0000 H   0  0  0  0  0  0  0  0  0  0  0  0
    2.7770    0.7680    0.0000 H   0  0  0  0  0  0  0  0  0  0  0  0
    3.7037    0.2330    0.0000 H   0  0  0  0  0  0  0  0  0  0  0  0
    4.9204   -1.7845    0.0000 H   0  0  0  0  0  0  0  0  0  0  0  0
    3.9938   -1.2495    0.0000 H   0  0  0  0  0  0  0  0  0  0  0  0
    1.1792   -2.0495    0.0000 H   0  0  0  0  0  0  0  0  0  0  0  0
    2.9458   -2.0495    0.0000 H   0  0  0  0  0  0  0  0  0  0  0  0
    6.5182    1.0330    0.0000 H   0  0  0  0  0  0  0  0  0  0  0  0
    4.7516    1.0330    0.0000 H   0  0  0  0  0  0  0  0  0  0  0  0
    2.6514   -2.0245    0.0000 H   0  0  0  0  0  0  0  0  0  0  0  0
    2.1595    0.9915    0.0000 H   0  0  0  0  0  0  0  0  0  0  0  0
    5.5378   -2.0080    0.0000 H   0  0  0  0  0  0  0  0  0  0  0  0
  1 19  1  0  0  0  0
  1 20  1  0  0  0  0
  2 21  1  0  0  0  0
  2 22  1  0  0  0  0
  3  1  1  0  0  0  0
  3  8  1  0  0  0  0
  3 16  1  1  0  0  0
  4  2  1  0  0  0  0
  4  9  1  0  0  0  0
  4 17  1  1  0  0  0
  5  1  1  0  0  0  0
  5 10  1  0  0  0  0
  5 18  1  6  0  0  0
  6  3  1  0  0  0  0
  7  4  1  0  0  0  0
  8 23  1  0  0  0  0
  8 24  1  0  0  0  0
  9 25  1  0  0  0  0
  9 26  1  0  0  0  0
 10 27  1  0  0  0  0
 11  6  2  0  0  0  0
 12  6  1  0  0  0  0
 12 28  1  0  0  0  0
 13  7  2  0  0  0  0
 14  7  1  0  0  0  0
 14 29  1  0  0  0  0
 15  2  1  0  0  0  0
 15  5  1  0  0  0  0
M  END
>  <DRUGBANK_ID>
DB03502

>  <SECONDARY_ACCESSION_NUMBERS>
EXPT01789

>  <COMMON_NAME>
(4s)-4-{[(2s)-2-Amino-3-Oxopropyl]Sulfanyl}-L-Homoserinate

$$$$
