
 OpenBabel10282417072D

 86 91  0  0  0  0  0  0  0  0999 V2000
   -5.2595   -1.3439    0.0000 C   0  0  0  0  0  0  0  0  0  0  0  0
   -4.4334   -1.3576    0.0000 C   0  0  0  0  0  0  0  0  0  0  0  0
   -4.0076   -0.6477    0.0000 C   0  0  0  0  0  0  0  0  0  0  0  0
   -4.4137    0.0773    0.0000 C   0  0  0  0  0  0  0  0  0  0  0  0
   -5.6605   -0.6195    0.0000 C   0  0  0  0  0  0  0  0  0  0  0  0
   -5.2388    0.0860    0.0000 C   0  0  0  0  0  0  0  0  0  0  0  0
   -5.6388    0.8018    0.0000 C   0  0  0  0  0  0  0  0  0  0  0  0
   -6.4605    0.8134    0.0000 C   0  0  0  0  0  0  0  0  0  0  0  0
   -6.8804    0.1033    0.0000 C   0  0  0  0  0  0  0  0  0  0  0  0
   -6.4780   -0.6096    0.0000 C   0  0  0  0  0  0  0  0  0  0  0  0
   -3.9926    0.7873    0.0000 O   0  0  0  0  0  0  0  0  0  0  0  0
   -3.1821   -0.6602    0.0000 N   0  0  0  0  0  0  0  0  0  0  0  0
   -2.7587    0.0487    0.0000 N   0  0  0  0  0  0  0  0  0  0  0  0
   -1.9332    0.0364    0.0000 C   0  0  0  0  0  0  0  0  0  0  0  0
   -1.5358   -0.6857    0.0000 C   0  0  0  0  0  0  0  0  0  0  0  0
   -0.7112   -0.6982    0.0000 C   0  0  0  0  0  0  0  0  0  0  0  0
   -0.2869    0.0109    0.0000 C   0  0  0  0  0  0  0  0  0  0  0  0
   -0.6934    0.7344    0.0000 C   0  0  0  0  0  0  0  0  0  0  0  0
   -1.5168    0.7436    0.0000 C   0  0  0  0  0  0  0  0  0  0  0  0
    0.5356   -0.0009    0.0000 C   0  0  0  0  0  0  0  0  0  0  0  0
    0.9380   -0.7231    0.0000 C   0  0  0  0  0  0  0  0  0  0  0  0
    1.7627   -0.7347    0.0000 C   0  0  0  0  0  0  0  0  0  0  0  0
    2.1860   -0.0247    0.0000 C   0  0  0  0  0  0  0  0  0  0  0  0
    1.7787    0.6980    0.0000 C   0  0  0  0  0  0  0  0  0  0  0  0
    0.9551    0.7062    0.0000 C   0  0  0  0  0  0  0  0  0  0  0  0
    3.0117   -0.0349    0.0000 N   0  0  0  0  0  0  0  0  0  0  0  0
    3.4331    0.6748    0.0000 N   0  0  0  0  0  0  0  0  0  0  0  0
    4.2587    0.6648    0.0000 C   0  0  0  0  0  0  0  0  0  0  0  0
    4.6617   -0.0566    0.0000 C   0  0  0  0  0  0  0  0  0  0  0  0
    4.6770    1.3727    0.0000 C   0  0  0  0  0  0  0  0  0  0  0  0
    5.5005    1.3657    0.0000 C   0  0  0  0  0  0  0  0  0  0  0  0
    4.2708    2.0914    0.0000 S   0  0  0  0  0  0  0  0  0  0  0  0
    4.6903    2.8025    0.0000 O   0  0  0  0  0  0  0  0  0  0  0  0
    3.5447    1.6947    0.0000 O   0  0  0  0  0  0  0  0  0  0  0  0
    3.5556    2.5165    0.0000 O   0  0  0  0  0  0  0  0  0  0  0  0
   -5.2161    1.5109    0.0000 N   0  0  0  0  0  0  0  0  0  0  0  0
   -7.7060    0.1115    0.0000 S   0  0  0  0  0  0  0  0  0  0  0  0
   -8.1117    0.8306    0.0000 O   0  0  0  0  0  0  0  0  0  0  0  0
   -8.5380    0.1238    0.0000 O   0  0  0  0  0  0  0  0  0  0  0  0
   -7.2971   -0.6058    0.0000 O   0  0  0  0  0  0  0  0  0  0  0  0
   -4.0327   -2.0794    0.0000 S   0  0  0  0  0  0  0  0  0  0  0  0
   -4.4573   -2.7874    0.0000 O   0  0  0  0  0  0  0  0  0  0  0  0
   -3.6398   -2.8025    0.0000 O   0  0  0  0  0  0  0  0  0  0  0  0
   -3.3155   -1.6778    0.0000 O   0  0  0  0  0  0  0  0  0  0  0  0
   -1.9227    1.4627    0.0000 C   0  0  0  0  0  0  0  0  0  0  0  0
    2.1654   -1.4554    0.0000 C   0  0  0  0  0  0  0  0  0  0  0  0
    4.2394   -0.7660    0.0000 O   0  0  0  0  0  0  0  0  0  0  0  0
    5.9056    0.6424    0.0000 C   0  0  0  0  0  0  0  0  0  0  0  0
    5.4839   -0.0653    0.0000 C   0  0  0  0  0  0  0  0  0  0  0  0
    5.8860   -0.7825    0.0000 C   0  0  0  0  0  0  0  0  0  0  0  0
    6.7098   -0.7928    0.0000 C   0  0  0  0  0  0  0  0  0  0  0  0
    7.1296   -0.0801    0.0000 C   0  0  0  0  0  0  0  0  0  0  0  0
    6.7251    0.6340    0.0000 C   0  0  0  0  0  0  0  0  0  0  0  0
    5.4642   -1.4922    0.0000 N   0  0  0  0  0  0  0  0  0  0  0  0
    7.9552   -0.0872    0.0000 S   0  0  0  0  0  0  0  0  0  0  0  0
    8.3619   -0.8056    0.0000 O   0  0  0  0  0  0  0  0  0  0  0  0
    7.9501    0.7401    0.0000 O   0  0  0  0  0  0  0  0  0  0  0  0
    8.5380    0.5023    0.0000 O   0  0  0  0  0  0  0  0  0  0  0  0
   -5.7909   -2.2286    0.0000 H   0  0  0  0  0  0  0  0  0  0  0  0
   -6.9655    1.7134    0.0000 H   0  0  0  0  0  0  0  0  0  0  0  0
   -7.0037   -1.4977    0.0000 H   0  0  0  0  0  0  0  0  0  0  0  0
   -3.0557    0.7763    0.0000 H   0  0  0  0  0  0  0  0  0  0  0  0
   -2.0676   -1.5701    0.0000 H   0  0  0  0  0  0  0  0  0  0  0  0
   -0.2090   -1.5998    0.0000 H   0  0  0  0  0  0  0  0  0  0  0  0
   -0.1672    1.6222    0.0000 H   0  0  0  0  0  0  0  0  0  0  0  0
    0.4090   -1.6092    0.0000 H   0  0  0  0  0  0  0  0  0  0  0  0
    2.3038    1.5864    0.0000 H   0  0  0  0  0  0  0  0  0  0  0  0
    0.4489    1.6055    0.0000 H   0  0  0  0  0  0  0  0  0  0  0  0
    6.0261    2.2538    0.0000 H   0  0  0  0  0  0  0  0  0  0  0  0
    5.6603    2.7934    0.0000 H   0  0  0  0  0  0  0  0  0  0  0  0
   -4.2317    1.4972    0.0000 H   0  0  0  0  0  0  0  0  0  0  0  0
   -5.6964    2.3703    0.0000 H   0  0  0  0  0  0  0  0  0  0  0  0
   -7.7867   -1.4432    0.0000 H   0  0  0  0  0  0  0  0  0  0  0  0
   -2.4819   -2.1738    0.0000 H   0  0  0  0  0  0  0  0  0  0  0  0
   -1.3787    2.3841    0.0000 H   0  0  0  0  0  0  0  0  0  0  0  0
   -2.9926    1.4731    0.0000 H   0  0  0  0  0  0  0  0  0  0  0  0
   -2.4487    2.3945    0.0000 H   0  0  0  0  0  0  0  0  0  0  0  0
    1.6174   -2.3744    0.0000 H   0  0  0  0  0  0  0  0  0  0  0  0
    3.2353   -1.4704    0.0000 H   0  0  0  0  0  0  0  0  0  0  0  0
    2.6873   -2.3895    0.0000 H   0  0  0  0  0  0  0  0  0  0  0  0
    3.3025   -0.7535    0.0000 H   0  0  0  0  0  0  0  0  0  0  0  0
    7.2163   -1.6920    0.0000 H   0  0  0  0  0  0  0  0  0  0  0  0
    7.2493    1.5229    0.0000 H   0  0  0  0  0  0  0  0  0  0  0  0
    4.4798   -1.4798    0.0000 H   0  0  0  0  0  0  0  0  0  0  0  0
    5.9456   -2.3510    0.0000 H   0  0  0  0  0  0  0  0  0  0  0  0
    7.8698   -1.6415    0.0000 H   0  0  0  0  0  0  0  0  0  0  0  0
  1  2  1  0  0  0  0
  1 59  1  0  0  0  0
  2 41  1  0  0  0  0
  2  3  2  0  0  0  0
  3  4  1  0  0  0  0
  3 12  1  0  0  0  0
  4  6  2  0  0  0  0
  4 11  1  0  0  0  0
  5  1  2  0  0  0  0
  5  6  1  0  0  0  0
  6  7  1  0  0  0  0
  7  8  2  0  0  0  0
  7 36  1  0  0  0  0
  8  9  1  0  0  0  0
  8 60  1  0  0  0  0
  9 10  2  0  0  0  0
  9 37  1  0  0  0  0
 10  5  1  0  0  0  0
 10 61  1  0  0  0  0
 11 62  1  0  0  0  0
 12 13  2  0  0  0  0
 13 14  1  0  0  0  0
 14 15  2  0  0  0  0
 15 16  1  0  0  0  0
 15 63  1  0  0  0  0
 16 17  2  0  0  0  0
 16 64  1  0  0  0  0
 17 18  1  0  0  0  0
 17 20  1  0  0  0  0
 18 19  2  0  0  0  0
 18 65  1  0  0  0  0
 19 14  1  0  0  0  0
 19 45  1  0  0  0  0
 20 21  2  0  0  0  0
 21 22  1  0  0  0  0
 21 66  1  0  0  0  0
 22 23  2  0  0  0  0
 22 46  1  0  0  0  0
 23 24  1  0  0  0  0
 23 26  1  0  0  0  0
 24 25  2  0  0  0  0
 24 67  1  0  0  0  0
 25 20  1  0  0  0  0
 25 68  1  0  0  0  0
 26 27  2  0  0  0  0
 27 28  1  0  0  0  0
 28 29  2  0  0  0  0
 29 49  1  0  0  0  0
 29 47  1  0  0  0  0
 30 28  1  0  0  0  0
 30 32  1  0  0  0  0
 31 30  2  0  0  0  0
 31 48  1  0  0  0  0
 31 69  1  0  0  0  0
 32 33  1  0  0  0  0
 32 34  2  0  0  0  0
 32 35  2  0  0  0  0
 33 70  1  0  0  0  0
 36 71  1  0  0  0  0
 36 72  1  0  0  0  0
 37 38  2  0  0  0  0
 37 39  2  0  0  0  0
 37 40  1  0  0  0  0
 40 73  1  0  0  0  0
 41 42  2  0  0  0  0
 41 43  2  0  0  0  0
 41 44  1  0  0  0  0
 44 74  1  0  0  0  0
 45 75  1  0  0  0  0
 45 76  1  0  0  0  0
 45 77  1  0  0  0  0
 46 78  1  0  0  0  0
 46 79  1  0  0  0  0
 46 80  1  0  0  0  0
 47 81  1  0  0  0  0
 48 49  1  0  0  0  0
 49 50  2  0  0  0  0
 50 51  1  0  0  0  0
 50 54  1  0  0  0  0
 51 52  2  0  0  0  0
 51 82  1  0  0  0  0
 52 53  1  0  0  0  0
 52 55  1  0  0  0  0
 53 48  2  0  0  0  0
 53 83  1  0  0  0  0
 54 84  1  0  0  0  0
 54 85  1  0  0  0  0
 55 56  1  0  0  0  0
 55 57  2  0  0  0  0
 55 58  2  0  0  0  0
 56 86  1  0  0  0  0
M  END
>  <DRUGBANK_ID>
DB09158

>  <COMMON_NAME>
Trypan blue free acid

>  <CAS_NUMBER>
2538-83-2

>  <UNII>
768N7QO4KH

$$$$
