
 OpenBabel10282417072D

132137  0  0  0  0  0  0  0  0999 V2000
   -0.0425    0.1782    0.0000 O   0  0  0  0  0  0  0  0  0  0  0  0
   -2.5046    1.4519    0.0000 O   0  0  0  0  0  0  0  0  0  0  0  0
   -3.5244    0.0411    0.0000 O   0  0  0  0  0  0  0  0  0  0  0  0
    1.3829    0.0813    0.0000 O   0  0  0  0  0  0  0  0  0  0  0  0
    0.5080   -2.6259    0.0000 O   0  0  0  0  0  0  0  0  0  0  0  0
    3.3904    1.1568    0.0000 O   0  0  0  0  0  0  0  0  0  0  0  0
   -1.1193   -0.7610    0.0000 O   0  0  0  0  0  0  0  0  0  0  0  0
    3.7807    2.7289    0.0000 O   0  0  0  0  0  0  0  0  0  0  0  0
   -0.8439   -2.1633    0.0000 O   0  0  0  0  0  0  0  0  0  0  0  0
    2.8871    1.2808    0.0000 O   0  0  0  0  0  0  0  0  0  0  0  0
   -0.9865    5.4010    0.0000 O   0  0  0  0  0  0  0  0  0  0  0  0
    2.4581    5.3418    0.0000 O   0  0  0  0  0  0  0  0  0  0  0  0
    1.7253    2.4340    0.0000 O   0  0  0  0  0  0  0  0  0  0  0  0
    1.0157    5.3704    0.0000 O   0  0  0  0  0  0  0  0  0  0  0  0
   -1.4786    2.4579    0.0000 O   0  0  0  0  0  0  0  0  0  0  0  0
    2.1353   -4.4908    0.0000 N   0  0  0  0  0  0  0  0  0  0  0  0
   -0.1563    3.9751    0.0000 N   0  0  0  0  0  0  0  0  0  0  0  0
   -0.4820    3.7584    0.0000 N   0  0  0  0  0  0  0  0  0  0  0  0
   -0.8863    1.4479    0.0000 C   0  0  2  0  0  0  0  0  0  0  0  0
   -1.6959    1.2889    0.0000 C   0  0  1  0  0  0  0  0  0  0  0  0
   -0.2014    0.9879    0.0000 C   0  0  1  0  0  0  0  0  0  0  0  0
   -2.1560    0.6041    0.0000 C   0  0  1  0  0  0  0  0  0  0  0  0
    0.5392    1.3509    0.0000 C   0  0  1  0  0  0  0  0  0  0  0  0
   -2.9790    0.6600    0.0000 C   0  0  2  0  0  0  0  0  0  0  0  0
   -0.9383    2.2713    0.0000 C   0  0  0  0  0  0  0  0  0  0  0  0
    1.2240    0.8908    0.0000 C   0  0  2  0  0  0  0  0  0  0  0  0
   -3.5214    1.2817    0.0000 C   0  0  1  0  0  0  0  0  0  0  0  0
   -2.2835   -0.2107    0.0000 C   0  0  0  0  0  0  0  0  0  0  0  0
    1.3487    1.5098    0.0000 C   0  0  0  0  0  0  0  0  0  0  0  0
    0.7833   -4.0280    0.0000 C   0  0  3  0  0  0  0  0  0  0  0  0
   -4.2757    1.6158    0.0000 C   0  0  0  0  0  0  0  0  0  0  0  0
    1.9647    1.2539    0.0000 C   0  0  0  0  0  0  0  0  0  0  0  0
    0.5161   -4.8085    0.0000 C   0  0  0  0  0  0  0  0  0  0  0  0
   -3.2543    2.0622    0.0000 C   0  0  0  0  0  0  0  0  0  0  0  0
    1.5928   -3.8691    0.0000 C   0  0  0  0  0  0  0  0  0  0  0  0
    1.0586   -5.4302    0.0000 C   0  0  0  0  0  0  0  0  0  0  0  0
    1.8680   -5.2713    0.0000 C   0  0  0  0  0  0  0  0  0  0  0  0
   -0.3096   -0.6020    0.0000 C   0  0  0  0  0  0  0  0  0  0  0  0
    0.2407   -3.4064    0.0000 C   0  0  0  0  0  0  0  0  0  0  0  0
    0.2326   -1.2237    0.0000 C   0  0  0  0  0  0  0  0  0  0  0  0
    2.6496    0.7939    0.0000 C   0  0  0  0  0  0  0  0  0  0  0  0
   -2.5134    2.4253    0.0000 C   0  0  0  0  0  0  0  0  0  0  0  0
    2.1636   -0.1856    0.0000 C   0  0  0  0  0  0  0  0  0  0  0  0
    2.9446   -4.3317    0.0000 C   0  0  0  0  0  0  0  0  0  0  0  0
    3.4463    1.9799    0.0000 C   0  0  1  0  0  0  0  0  0  0  0  0
   -0.0343   -2.0042    0.0000 C   0  0  0  0  0  0  0  0  0  0  0  0
    2.4581    2.8668    0.0000 C   0  0  0  0  0  0  0  0  0  0  0  0
    2.6307    2.0650    0.0000 C   0  0  0  0  0  0  0  0  0  0  0  0
    3.1726    3.2793    0.0000 C   0  0  0  0  0  0  0  0  0  0  0  0
    1.7436    3.2793    0.0000 C   0  0  0  0  0  0  0  0  0  0  0  0
   -2.4575    3.2484    0.0000 C   0  0  0  0  0  0  0  0  0  0  0  0
    1.7436    4.1042    0.0000 C   0  0  0  0  0  0  0  0  0  0  0  0
    4.2470    1.7807    0.0000 C   0  0  0  0  0  0  0  0  0  0  0  0
    3.1726    4.1042    0.0000 C   0  0  0  0  0  0  0  0  0  0  0  0
    0.2586    3.2621    0.0000 C   0  0  0  0  0  0  0  0  0  0  0  0
    1.0062    2.8382    0.0000 C   0  0  0  0  0  0  0  0  0  0  0  0
    2.4581    4.5168    0.0000 C   0  0  0  0  0  0  0  0  0  0  0  0
    0.2586    4.1214    0.0000 C   0  0  0  0  0  0  0  0  0  0  0  0
    1.0062    4.5454    0.0000 C   0  0  0  0  0  0  0  0  0  0  0  0
   -1.7166    3.6116    0.0000 C   0  0  0  0  0  0  0  0  0  0  0  0
    0.2534    4.6910    0.0000 C   0  0  0  0  0  0  0  0  0  0  0  0
   -0.9813    3.9721    0.0000 C   0  0  0  0  0  0  0  0  0  0  0  0
    3.8871    4.5168    0.0000 C   0  0  0  0  0  0  0  0  0  0  0  0
   -1.0318    3.1514    0.0000 C   0  0  0  0  0  0  0  0  0  0  0  0
   -1.3964    4.6849    0.0000 C   0  0  0  0  0  0  0  0  0  0  0  0
   -0.1614    5.4040    0.0000 C   0  0  0  0  0  0  0  0  0  0  0  0
   -1.9455    4.4041    0.0000 C   0  0  0  0  0  0  0  0  0  0  0  0
   -2.8141    2.3712    0.0000 H   0  0  0  0  0  0  0  0  0  0  0  0
   -4.4753    0.2326    0.0000 H   0  0  0  0  0  0  0  0  0  0  0  0
    3.2696    5.8103    0.0000 H   0  0  0  0  0  0  0  0  0  0  0  0
   -1.0741    4.5450    0.0000 H   0  0  0  0  0  0  0  0  0  0  0  0
   -1.7336    2.1013    0.0000 H   0  0  0  0  0  0  0  0  0  0  0  0
   -1.6932    2.3589    0.0000 H   0  0  0  0  0  0  0  0  0  0  0  0
   -1.0925    0.3956    0.0000 H   0  0  0  0  0  0  0  0  0  0  0  0
   -1.1597    0.2138    0.0000 H   0  0  0  0  0  0  0  0  0  0  0  0
    0.8806    0.3368    0.0000 H   0  0  0  0  0  0  0  0  0  0  0  0
   -2.5719   -0.3295    0.0000 H   0  0  0  0  0  0  0  0  0  0  0  0
   -0.0472    2.8636    0.0000 H   0  0  0  0  0  0  0  0  0  0  0  0
   -1.8968    2.7468    0.0000 H   0  0  0  0  0  0  0  0  0  0  0  0
   -1.0057    3.3392    0.0000 H   0  0  0  0  0  0  0  0  0  0  0  0
    0.3328    0.2986    0.0000 H   0  0  0  0  0  0  0  0  0  0  0  0
   -4.1563    0.4204    0.0000 H   0  0  0  0  0  0  0  0  0  0  0  0
   -3.2817   -0.5960    0.0000 H   0  0  0  0  0  0  0  0  0  0  0  0
   -1.4507   -0.8825    0.0000 H   0  0  0  0  0  0  0  0  0  0  0  0
   -2.4489   -1.2678    0.0000 H   0  0  0  0  0  0  0  0  0  0  0  0
    2.0522    0.7036    0.0000 H   0  0  0  0  0  0  0  0  0  0  0  0
    1.6952    2.5221    0.0000 H   0  0  0  0  0  0  0  0  0  0  0  0
    2.3987    1.7159    0.0000 H   0  0  0  0  0  0  0  0  0  0  0  0
    1.4867   -4.8343    0.0000 H   0  0  0  0  0  0  0  0  0  0  0  0
   -4.3896    2.6797    0.0000 H   0  0  0  0  0  0  0  0  0  0  0  0
   -5.1401    0.9852    0.0000 H   0  0  0  0  0  0  0  0  0  0  0  0
   -5.2540    2.0491    0.0000 H   0  0  0  0  0  0  0  0  0  0  0  0
    2.0346    2.2835    0.0000 H   0  0  0  0  0  0  0  0  0  0  0  0
   -0.5339   -5.0146    0.0000 H   0  0  0  0  0  0  0  0  0  0  0  0
    0.1696   -5.8209    0.0000 H   0  0  0  0  0  0  0  0  0  0  0  0
   -4.0285    2.7446    0.0000 H   0  0  0  0  0  0  0  0  0  0  0  0
    1.9393   -2.8567    0.0000 H   0  0  0  0  0  0  0  0  0  0  0  0
    0.8893   -3.0629    0.0000 H   0  0  0  0  0  0  0  0  0  0  0  0
    0.7121   -6.4426    0.0000 H   0  0  0  0  0  0  0  0  0  0  0  0
    1.7621   -6.2364    0.0000 H   0  0  0  0  0  0  0  0  0  0  0  0
    2.5714   -6.0776    0.0000 H   0  0  0  0  0  0  0  0  0  0  0  0
    1.5215   -6.2836    0.0000 H   0  0  0  0  0  0  0  0  0  0  0  0
   -0.8093   -3.6125    0.0000 H   0  0  0  0  0  0  0  0  0  0  0  0
   -0.1057   -4.4188    0.0000 H   0  0  0  0  0  0  0  0  0  0  0  0
    1.2826   -1.0176    0.0000 H   0  0  0  0  0  0  0  0  0  0  0  0
    0.9362   -2.0298    0.0000 H   0  0  0  0  0  0  0  0  0  0  0  0
    2.5795   -0.2357    0.0000 H   0  0  0  0  0  0  0  0  0  0  0  0
   -1.6567    1.8499    0.0000 H   0  0  0  0  0  0  0  0  0  0  0  0
    2.3701   -1.2355    0.0000 H   0  0  0  0  0  0  0  0  0  0  0  0
    2.9696    0.5182    0.0000 H   0  0  0  0  0  0  0  0  0  0  0  0
    3.1761   -0.5317    0.0000 H   0  0  0  0  0  0  0  0  0  0  0  0
    3.6483   -5.1377    0.0000 H   0  0  0  0  0  0  0  0  0  0  0  0
    3.2908   -3.3193    0.0000 H   0  0  0  0  0  0  0  0  0  0  0  0
    3.9945   -4.1253    0.0000 H   0  0  0  0  0  0  0  0  0  0  0  0
   -3.3142    3.8238    0.0000 H   0  0  0  0  0  0  0  0  0  0  0  0
    4.5425    0.7523    0.0000 H   0  0  0  0  0  0  0  0  0  0  0  0
    4.9899    2.5508    0.0000 H   0  0  0  0  0  0  0  0  0  0  0  0
    5.2853    1.5224    0.0000 H   0  0  0  0  0  0  0  0  0  0  0  0
    1.3234    4.6948    0.0000 H   0  0  0  0  0  0  0  0  0  0  0  0
    0.7852    5.6195    0.0000 H   0  0  0  0  0  0  0  0  0  0  0  0
   -1.5129    3.0435    0.0000 H   0  0  0  0  0  0  0  0  0  0  0  0
   -2.0513    3.9681    0.0000 H   0  0  0  0  0  0  0  0  0  0  0  0
    4.8138    3.9819    0.0000 H   0  0  0  0  0  0  0  0  0  0  0  0
    3.8870    5.5868    0.0000 H   0  0  0  0  0  0  0  0  0  0  0  0
    4.8137    5.0519    0.0000 H   0  0  0  0  0  0  0  0  0  0  0  0
   -2.4664    4.6809    0.0000 H   0  0  0  0  0  0  0  0  0  0  0  0
   -1.9279    3.7563    0.0000 H   0  0  0  0  0  0  0  0  0  0  0  0
    0.3704    6.3325    0.0000 H   0  0  0  0  0  0  0  0  0  0  0  0
    0.9086    5.4076    0.0000 H   0  0  0  0  0  0  0  0  0  0  0  0
   -1.2037    5.1752    0.0000 H   0  0  0  0  0  0  0  0  0  0  0  0
   -2.9842    4.6610    0.0000 H   0  0  0  0  0  0  0  0  0  0  0  0
   -2.2424    5.4321    0.0000 H   0  0  0  0  0  0  0  0  0  0  0  0
  1 38  1  0  0  0  0
  2 68  1  0  0  0  0
  3 69  1  0  0  0  0
  4 43  1  0  0  0  0
  5 39  1  0  0  0  0
  5 46  1  0  0  0  0
  6 41  1  0  0  0  0
  6 45  1  0  0  0  0
  7 38  2  0  0  0  0
  8 45  1  0  0  0  0
  8 49  1  0  0  0  0
  9 46  2  0  0  0  0
 10 48  2  0  0  0  0
 11 65  1  0  0  0  0
 11 66  1  0  0  0  0
 12 57  1  0  0  0  0
 12 70  1  0  0  0  0
 13 56  2  0  0  0  0
 14 59  2  0  0  0  0
 15 64  2  0  0  0  0
 16 35  1  0  0  0  0
 16 37  1  0  0  0  0
 16 44  1  0  0  0  0
 17 55  1  0  0  0  0
 17 61  1  0  0  0  0
 17 62  1  0  0  0  0
 18 58  1  0  0  0  0
 18 64  1  0  0  0  0
 18 71  1  0  0  0  0
 19 20  1  0  0  0  0
 19 21  1  0  0  0  0
 19 25  1  0  0  0  0
 19 72  1  6  0  0  0
 20  2  1  0  0  0  0
 20 22  1  0  0  0  0
 20 73  1  6  0  0  0
 21  1  1  0  0  0  0
 21 23  1  0  0  0  0
 21 74  1  6  0  0  0
 22 24  1  0  0  0  0
 22 28  1  0  0  0  0
 22 75  1  1  0  0  0
 23 26  1  0  0  0  0
 23 29  1  0  0  0  0
 23 76  1  1  0  0  0
 24  3  1  0  0  0  0
 24 27  1  0  0  0  0
 24 77  1  6  0  0  0
 25 78  1  0  0  0  0
 25 79  1  0  0  0  0
 25 80  1  0  0  0  0
 26  4  1  0  0  0  0
 26 32  1  0  0  0  0
 26 81  1  1  0  0  0
 27 31  1  0  0  0  0
 27 34  1  0  0  0  0
 27 82  1  6  0  0  0
 28 83  1  0  0  0  0
 28 84  1  0  0  0  0
 28 85  1  0  0  0  0
 29 86  1  0  0  0  0
 29 87  1  0  0  0  0
 29 88  1  0  0  0  0
 30 33  1  0  0  0  0
 30 35  1  0  0  0  0
 30 39  1  0  0  0  0
 30 89  1  0  0  0  0
 31 90  1  0  0  0  0
 31 91  1  0  0  0  0
 31 92  1  0  0  0  0
 32 41  2  0  0  0  0
 32 93  1  0  0  0  0
 33 36  1  0  0  0  0
 33 94  1  0  0  0  0
 33 95  1  0  0  0  0
 34 42  2  0  0  0  0
 34 96  1  0  0  0  0
 35 97  1  0  0  0  0
 35 98  1  0  0  0  0
 36 37  1  0  0  0  0
 36 99  1  0  0  0  0
 36100  1  0  0  0  0
 37101  1  0  0  0  0
 37102  1  0  0  0  0
 38 40  1  0  0  0  0
 39103  1  0  0  0  0
 39104  1  0  0  0  0
 40 46  1  0  0  0  0
 40105  1  0  0  0  0
 40106  1  0  0  0  0
 41107  1  0  0  0  0
 42 51  1  0  0  0  0
 42108  1  0  0  0  0
 43109  1  0  0  0  0
 43110  1  0  0  0  0
 43111  1  0  0  0  0
 44112  1  0  0  0  0
 44113  1  0  0  0  0
 44114  1  0  0  0  0
 45 48  1  0  0  0  0
 45 53  1  1  0  0  0
 47 48  1  0  0  0  0
 47 49  2  0  0  0  0
 47 50  1  0  0  0  0
 49 54  1  0  0  0  0
 50 52  2  0  0  0  0
 50 56  1  0  0  0  0
 51 60  2  0  0  0  0
 51115  1  0  0  0  0
 52 57  1  0  0  0  0
 52 59  1  0  0  0  0
 53116  1  0  0  0  0
 53117  1  0  0  0  0
 53118  1  0  0  0  0
 54 57  2  0  0  0  0
 54 63  1  0  0  0  0
 55 56  1  0  0  0  0
 55 58  2  0  0  0  0
 58 59  1  0  0  0  0
 60 64  1  0  0  0  0
 60 67  1  0  0  0  0
 61 66  1  0  0  0  0
 61119  1  0  0  0  0
 61120  1  0  0  0  0
 62 65  1  0  0  0  0
 62121  1  0  0  0  0
 62122  1  0  0  0  0
 63123  1  0  0  0  0
 63124  1  0  0  0  0
 63125  1  0  0  0  0
 65126  1  0  0  0  0
 65127  1  0  0  0  0
 66128  1  0  0  0  0
 66129  1  0  0  0  0
 67130  1  0  0  0  0
 67131  1  0  0  0  0
 67132  1  0  0  0  0
M  END
>  <DRUGBANK_ID>
DB04220

>  <SECONDARY_ACCESSION_NUMBERS>
EXPT02784

>  <COMMON_NAME>
CGP 4832

>  <CAS_NUMBER>
113303-81-4

>  <UNII>
XUF8PWG90O

$$$$
