
 OpenBabel10282417072D

 48 51  0  0  0  0  0  0  0  0999 V2000
    2.6505   -0.3622    0.0000 C   0  0  0  0  0  0  0  0  0  0  0  0
    1.1514   -1.3448    0.0000 C   0  0  0  0  0  0  0  0  0  0  0  0
    2.6505    0.9726    0.0000 C   0  0  2  0  0  0  0  0  0  0  0  0
    1.1514    1.1302    0.0000 C   0  0  0  0  0  0  0  0  0  0  0  0
    3.1354    0.3051    0.0000 C   0  0  0  0  0  0  0  0  0  0  0  0
   -0.2775   -0.5198    0.0000 C   0  0  0  0  0  0  0  0  0  0  0  0
    0.4369    0.7176    0.0000 C   0  0  0  0  0  0  0  0  0  0  0  0
    0.4369   -1.7573    0.0000 C   0  0  0  0  0  0  0  0  0  0  0  0
    2.9054    1.7573    0.0000 O   0  0  0  0  0  0  0  0  0  0  0  0
   -0.2775   -1.3448    0.0000 C   0  0  0  0  0  0  0  0  0  0  0  0
   -0.9920   -0.1073    0.0000 C   0  0  0  0  0  0  0  0  0  0  0  0
   -0.9920   -1.7573    0.0000 C   0  0  0  0  0  0  0  0  0  0  0  0
   -1.7064   -1.3448    0.0000 C   0  0  0  0  0  0  0  0  0  0  0  0
   -2.4210   -1.7573    0.0000 O   0  0  0  0  0  0  0  0  0  0  0  0
    1.1514   -0.5198    0.0000 C   0  0  2  0  0  0  0  0  0  0  0  0
    1.1514    0.3051    0.0000 H   0  0  0  0  0  0  0  0  0  0  0  0
    0.4369   -0.1073    0.0000 C   0  0  1  0  0  0  0  0  0  0  0  0
    0.4369   -0.9323    0.0000 H   0  0  0  0  0  0  0  0  0  0  0  0
    1.8658    0.7176    0.0000 C   0  0  2  0  0  0  0  0  0  0  0  0
    1.8658    1.5426    0.0000 C   0  0  0  0  0  0  0  0  0  0  0  0
    1.8658   -0.1073    0.0000 C   0  0  1  0  0  0  0  0  0  0  0  0
    1.8658   -0.9323    0.0000 H   0  0  0  0  0  0  0  0  0  0  0  0
   -1.7064   -0.5198    0.0000 C   0  0  0  0  0  0  0  0  0  0  0  0
   -2.4210   -0.1073    0.0000 O   0  0  0  0  0  0  0  0  0  0  0  0
   -3.1353   -0.5198    0.0000 C   0  0  0  0  0  0  0  0  0  0  0  0
    2.9811   -1.3798    0.0000 H   0  0  0  0  0  0  0  0  0  0  0  0
    3.7073   -0.5296    0.0000 H   0  0  0  0  0  0  0  0  0  0  0  0
    2.0780   -1.8798    0.0000 H   0  0  0  0  0  0  0  0  0  0  0  0
    1.1514   -2.4148    0.0000 H   0  0  0  0  0  0  0  0  0  0  0  0
    1.8939    1.7292    0.0000 H   0  0  0  0  0  0  0  0  0  0  0  0
    1.1514    2.2002    0.0000 H   0  0  0  0  0  0  0  0  0  0  0  0
    0.2247    1.6652    0.0000 H   0  0  0  0  0  0  0  0  0  0  0  0
    4.2054    0.3050    0.0000 H   0  0  0  0  0  0  0  0  0  0  0  0
    3.6212    1.2584    0.0000 H   0  0  0  0  0  0  0  0  0  0  0  0
   -0.4898    1.2526    0.0000 H   0  0  0  0  0  0  0  0  0  0  0  0
    0.4368    1.7876    0.0000 H   0  0  0  0  0  0  0  0  0  0  0  0
    0.4369   -2.8273    0.0000 H   0  0  0  0  0  0  0  0  0  0  0  0
   -0.4898   -2.2923    0.0000 H   0  0  0  0  0  0  0  0  0  0  0  0
    3.8542    1.9590    0.0000 H   0  0  0  0  0  0  0  0  0  0  0  0
   -0.9920    0.9247    0.0000 H   0  0  0  0  0  0  0  0  0  0  0  0
   -0.9920   -2.7893    0.0000 H   0  0  0  0  0  0  0  0  0  0  0  0
   -3.2324   -1.2887    0.0000 H   0  0  0  0  0  0  0  0  0  0  0  0
    2.7924    2.0776    0.0000 H   0  0  0  0  0  0  0  0  0  0  0  0
    0.9392    2.0776    0.0000 H   0  0  0  0  0  0  0  0  0  0  0  0
    1.8658    2.6126    0.0000 H   0  0  0  0  0  0  0  0  0  0  0  0
   -4.0620    0.0151    0.0000 H   0  0  0  0  0  0  0  0  0  0  0  0
   -3.1352   -1.5898    0.0000 H   0  0  0  0  0  0  0  0  0  0  0  0
   -4.0619   -1.0549    0.0000 H   0  0  0  0  0  0  0  0  0  0  0  0
  1 26  1  0  0  0  0
  1 27  1  0  0  0  0
  2  8  1  0  0  0  0
  2 28  1  0  0  0  0
  2 29  1  0  0  0  0
  3  9  1  0  0  0  0
  3  5  1  0  0  0  0
  3 30  1  6  0  0  0
  4  7  1  0  0  0  0
  4 31  1  0  0  0  0
  4 32  1  0  0  0  0
  5  1  1  0  0  0  0
  5 33  1  0  0  0  0
  5 34  1  0  0  0  0
  6 10  2  0  0  0  0
  6 11  1  0  0  0  0
  7 35  1  0  0  0  0
  7 36  1  0  0  0  0
  8 10  1  0  0  0  0
  8 37  1  0  0  0  0
  8 38  1  0  0  0  0
  9 39  1  0  0  0  0
 10 12  1  0  0  0  0
 11 23  2  0  0  0  0
 11 40  1  0  0  0  0
 12 13  2  0  0  0  0
 12 41  1  0  0  0  0
 13 14  1  0  0  0  0
 14 42  1  0  0  0  0
 15 17  1  0  0  0  0
 15  2  1  0  0  0  0
 15 16  1  1  0  0  0
 17  6  1  0  0  0  0
 17  7  1  0  0  0  0
 17 18  1  6  0  0  0
 19  3  1  0  0  0  0
 19  4  1  0  0  0  0
 19 20  1  1  0  0  0
 20 43  1  0  0  0  0
 20 44  1  0  0  0  0
 20 45  1  0  0  0  0
 21 15  1  0  0  0  0
 21 19  1  0  0  0  0
 21  1  1  0  0  0  0
 21 22  1  6  0  0  0
 23 13  1  0  0  0  0
 23 24  1  0  0  0  0
 24 25  1  0  0  0  0
 25 46  1  0  0  0  0
 25 47  1  0  0  0  0
 25 48  1  0  0  0  0
M  END
>  <DRUGBANK_ID>
DB02342

>  <SECONDARY_ACCESSION_NUMBERS>
EXPT01362

>  <COMMON_NAME>
2-Methoxyestradiol

>  <CAS_NUMBER>
362-07-2

>  <UNII>
6I2QW73SR5

>  <SYNONYMS>
2-Hydroxyestradiol 2-methyl ether; 2-Hydroxyestradol 2-methyl ether; 2-ME2; 2-methoxy-17Î²-estradiol; 2-Methoxyestradiol-17beta; 2ME2

$$$$
