E20
 OpenBabel10282417072D

 57 60  0  0  0  0  0  0  0  0999 V2000
    3.1375    1.5305    0.0000 C   0  0  0  0  0  0  0  0  0  0  0  0
    3.1375    0.7055    0.0000 C   0  0  0  0  0  0  0  0  0  0  0  0
    2.4231    0.2930    0.0000 C   0  0  0  0  0  0  0  0  0  0  0  0
    1.7086    0.7055    0.0000 C   0  0  0  0  0  0  0  0  0  0  0  0
    1.7086    1.5305    0.0000 C   0  0  0  0  0  0  0  0  0  0  0  0
    2.4231    1.9430    0.0000 C   0  0  0  0  0  0  0  0  0  0  0  0
    0.9240    1.7854    0.0000 C   0  0  0  0  0  0  0  0  0  0  0  0
    0.4390    1.1180    0.0000 C   0  0  1  0  0  0  0  0  0  0  0  0
    0.9240    0.4505    0.0000 C   0  0  0  0  0  0  0  0  0  0  0  0
   -0.3860    1.1180    0.0000 C   0  0  0  0  0  0  0  0  0  0  0  0
   -0.7985    0.4035    0.0000 C   0  0  0  0  0  0  0  0  0  0  0  0
   -0.3860   -0.3110    0.0000 C   0  0  0  0  0  0  0  0  0  0  0  0
   -0.7985   -1.0254    0.0000 C   0  0  0  0  0  0  0  0  0  0  0  0
   -1.6235   -1.0254    0.0000 N   0  0  0  0  0  0  0  0  0  0  0  0
   -2.0360   -0.3110    0.0000 C   0  0  0  0  0  0  0  0  0  0  0  0
   -1.6235    0.4035    0.0000 C   0  0  0  0  0  0  0  0  0  0  0  0
   -2.0360   -1.7399    0.0000 C   0  0  0  0  0  0  0  0  0  0  0  0
   -2.8610   -1.7399    0.0000 C   0  0  0  0  0  0  0  0  0  0  0  0
   -3.2735   -2.4544    0.0000 C   0  0  0  0  0  0  0  0  0  0  0  0
   -4.0985   -2.4544    0.0000 C   0  0  0  0  0  0  0  0  0  0  0  0
   -4.5110   -1.7399    0.0000 C   0  0  0  0  0  0  0  0  0  0  0  0
   -4.0985   -1.0254    0.0000 C   0  0  0  0  0  0  0  0  0  0  0  0
   -3.2735   -1.0254    0.0000 C   0  0  0  0  0  0  0  0  0  0  0  0
    0.6690    2.5700    0.0000 O   0  0  0  0  0  0  0  0  0  0  0  0
    3.8520    1.9430    0.0000 O   0  0  0  0  0  0  0  0  0  0  0  0
    3.8520    2.7680    0.0000 C   0  0  0  0  0  0  0  0  0  0  0  0
    3.8520    0.2930    0.0000 O   0  0  0  0  0  0  0  0  0  0  0  0
    3.8520   -0.5320    0.0000 C   0  0  0  0  0  0  0  0  0  0  0  0
    0.1739    1.6383    0.0000 H   0  0  0  0  0  0  0  0  0  0  0  0
    2.4231   -0.7390    0.0000 H   0  0  0  0  0  0  0  0  0  0  0  0
    2.4231    2.9750    0.0000 H   0  0  0  0  0  0  0  0  0  0  0  0
    0.5934   -0.5671    0.0000 H   0  0  0  0  0  0  0  0  0  0  0  0
   -0.1328    0.2831    0.0000 H   0  0  0  0  0  0  0  0  0  0  0  0
   -0.9210    2.0446    0.0000 H   0  0  0  0  0  0  0  0  0  0  0  0
   -1.4560    1.1180    0.0000 H   0  0  0  0  0  0  0  0  0  0  0  0
   -1.3335   -0.5231    0.0000 H   0  0  0  0  0  0  0  0  0  0  0  0
    0.6840   -0.3110    0.0000 H   0  0  0  0  0  0  0  0  0  0  0  0
    0.1490   -1.2377    0.0000 H   0  0  0  0  0  0  0  0  0  0  0  0
   -0.2635   -1.9521    0.0000 H   0  0  0  0  0  0  0  0  0  0  0  0
   -1.3335   -1.9520    0.0000 H   0  0  0  0  0  0  0  0  0  0  0  0
   -3.1060   -0.3110    0.0000 H   0  0  0  0  0  0  0  0  0  0  0  0
   -2.5710    0.6156    0.0000 H   0  0  0  0  0  0  0  0  0  0  0  0
   -2.1585    1.3301    0.0000 H   0  0  0  0  0  0  0  0  0  0  0  0
   -2.6935    0.4035    0.0000 H   0  0  0  0  0  0  0  0  0  0  0  0
   -1.5010   -2.6665    0.0000 H   0  0  0  0  0  0  0  0  0  0  0  0
   -2.5710   -2.6665    0.0000 H   0  0  0  0  0  0  0  0  0  0  0  0
   -2.7575   -3.3481    0.0000 H   0  0  0  0  0  0  0  0  0  0  0  0
   -4.6145   -3.3481    0.0000 H   0  0  0  0  0  0  0  0  0  0  0  0
   -5.5430   -1.7399    0.0000 H   0  0  0  0  0  0  0  0  0  0  0  0
   -4.6145   -0.1317    0.0000 H   0  0  0  0  0  0  0  0  0  0  0  0
   -2.7575   -0.1317    0.0000 H   0  0  0  0  0  0  0  0  0  0  0  0
    4.7786    3.3030    0.0000 H   0  0  0  0  0  0  0  0  0  0  0  0
    2.9254    3.3030    0.0000 H   0  0  0  0  0  0  0  0  0  0  0  0
    3.8520    3.8380    0.0000 H   0  0  0  0  0  0  0  0  0  0  0  0
    2.9254   -1.0670    0.0000 H   0  0  0  0  0  0  0  0  0  0  0  0
    4.7786   -1.0670    0.0000 H   0  0  0  0  0  0  0  0  0  0  0  0
    3.8520   -1.6020    0.0000 H   0  0  0  0  0  0  0  0  0  0  0  0
  1  2  2  0  0  0  0
  1  6  1  0  0  0  0
  1 25  1  0  0  0  0
  2  3  1  0  0  0  0
  2 27  1  0  0  0  0
  3  4  2  0  0  0  0
  3 30  1  0  0  0  0
  4  5  1  0  0  0  0
  4  9  1  0  0  0  0
  5  6  2  0  0  0  0
  5  7  1  0  0  0  0
  6 31  1  0  0  0  0
  7  8  1  0  0  0  0
  7 24  2  0  0  0  0
  8  9  1  0  0  0  0
  8 10  1  0  0  0  0
  8 29  1  6  0  0  0
  9 32  1  0  0  0  0
  9 33  1  0  0  0  0
 10 11  1  0  0  0  0
 10 34  1  0  0  0  0
 10 35  1  0  0  0  0
 11 12  1  0  0  0  0
 11 16  1  0  0  0  0
 11 36  1  0  0  0  0
 12 13  1  0  0  0  0
 12 37  1  0  0  0  0
 12 38  1  0  0  0  0
 13 14  1  0  0  0  0
 13 39  1  0  0  0  0
 13 40  1  0  0  0  0
 14 15  1  0  0  0  0
 14 17  1  0  0  0  0
 15 16  1  0  0  0  0
 15 41  1  0  0  0  0
 15 42  1  0  0  0  0
 16 43  1  0  0  0  0
 16 44  1  0  0  0  0
 17 18  1  0  0  0  0
 17 45  1  0  0  0  0
 17 46  1  0  0  0  0
 18 19  2  0  0  0  0
 18 23  1  0  0  0  0
 19 20  1  0  0  0  0
 19 47  1  0  0  0  0
 20 21  2  0  0  0  0
 20 48  1  0  0  0  0
 21 22  1  0  0  0  0
 21 49  1  0  0  0  0
 22 23  2  0  0  0  0
 22 50  1  0  0  0  0
 23 51  1  0  0  0  0
 25 26  1  0  0  0  0
 26 52  1  0  0  0  0
 26 53  1  0  0  0  0
 26 54  1  0  0  0  0
 27 28  1  0  0  0  0
 28 55  1  0  0  0  0
 28 56  1  0  0  0  0
 28 57  1  0  0  0  0
M  END
>  <DRUGBANK_ID>
DB07701

>  <COMMON_NAME>
1-BENZYL-4-[(5,6-DIMETHOXY-1-INDANON-2-YL)METHYL]PIPERIDINE

$$$$
