
 OpenBabel10282417072D

 22 22  0  0  0  0  0  0  0  0999 V2000
   -0.7144    0.0000    0.0000 C   0  0  0  0  0  0  0  0  0  0  0  0
   -1.4289    0.4126    0.0000 C   0  0  0  0  0  0  0  0  0  0  0  0
    0.0000    0.4126    0.0000 C   0  0  0  0  0  0  0  0  0  0  0  0
   -0.7144   -0.8249    0.0000 C   0  0  0  0  0  0  0  0  0  0  0  0
   -2.1434    0.0000    0.0000 C   0  0  0  0  0  0  0  0  0  0  0  0
    0.7144    0.0000    0.0000 O   0  0  0  0  0  0  0  0  0  0  0  0
    0.0000    1.2375    0.0000 O   0  0  0  0  0  0  0  0  0  0  0  0
   -1.4290   -1.2374    0.0000 C   0  0  0  0  0  0  0  0  0  0  0  0
   -2.1434   -0.8249    0.0000 C   0  0  0  0  0  0  0  0  0  0  0  0
    1.4289    0.4124    0.0000 C   0  0  0  0  0  0  0  0  0  0  0  0
    2.1434    0.0000    0.0000 C   0  0  0  0  0  0  0  0  0  0  0  0
    0.0000   -1.2375    0.0000 O   0  0  0  0  0  0  0  0  0  0  0  0
   -1.4289    1.4446    0.0000 H   0  0  0  0  0  0  0  0  0  0  0  0
   -3.0372    0.5160    0.0000 H   0  0  0  0  0  0  0  0  0  0  0  0
   -1.4291   -2.2694    0.0000 H   0  0  0  0  0  0  0  0  0  0  0  0
   -3.0371   -1.3409    0.0000 H   0  0  0  0  0  0  0  0  0  0  0  0
    1.4289    1.4824    0.0000 H   0  0  0  0  0  0  0  0  0  0  0  0
    2.3555    0.9475    0.0000 H   0  0  0  0  0  0  0  0  0  0  0  0
    2.1435   -1.0700    0.0000 H   0  0  0  0  0  0  0  0  0  0  0  0
    3.0700    0.5351    0.0000 H   0  0  0  0  0  0  0  0  0  0  0  0
    3.0701   -0.5349    0.0000 H   0  0  0  0  0  0  0  0  0  0  0  0
   -0.0001   -2.1745    0.0000 H   0  0  0  0  0  0  0  0  0  0  0  0
  1  2  2  0  0  0  0
  1  3  1  0  0  0  0
  1  4  1  0  0  0  0
  2  5  1  0  0  0  0
  2 13  1  0  0  0  0
  3  6  1  0  0  0  0
  3  7  2  0  0  0  0
  4  8  2  0  0  0  0
  4 12  1  0  0  0  0
  5  9  2  0  0  0  0
  5 14  1  0  0  0  0
  6 10  1  0  0  0  0
  8  9  1  0  0  0  0
  8 15  1  0  0  0  0
  9 16  1  0  0  0  0
 10 11  1  0  0  0  0
 10 17  1  0  0  0  0
 10 18  1  0  0  0  0
 11 19  1  0  0  0  0
 11 20  1  0  0  0  0
 11 21  1  0  0  0  0
 12 22  1  0  0  0  0
M  END
>  <DRUGBANK_ID>
DB15576

>  <COMMON_NAME>
Ethyl salicylate

>  <CAS_NUMBER>
118-61-6

>  <UNII>
555U6TZ2MV

>  <SYNONYMS>
Ethyl 2-hydroxybenzoate; Ethyl o-hydroxybenzoate; Ethyl salicylate; Salicyclic acid, ethyl ester; Salicylic ether; Salicylic ethyl ester

$$$$
