
 OpenBabel10282417072D

 82 86  0  0  0  0  0  0  0  0999 V2000
   -3.3833   -1.0156    0.0000 C   0  0  0  0  0  0  0  0  0  0  0  0
   -2.8562   -1.6502    0.0000 C   0  0  3  0  0  0  0  0  0  0  0  0
   -3.1422   -2.4241    0.0000 O   0  0  0  0  0  0  0  0  0  0  0  0
   -2.0430   -1.5110    0.0000 C   0  0  0  0  0  0  0  0  0  0  0  0
   -1.4819   -2.0624    0.0000 C   0  0  0  0  0  0  0  0  0  0  0  0
   -1.5946   -2.8797    0.0000 C   0  0  0  0  0  0  0  0  0  0  0  0
   -0.7243   -1.6459    0.0000 C   0  0  0  0  0  0  0  0  0  0  0  0
    0.0112   -2.0494    0.0000 C   0  0  0  0  0  0  0  0  0  0  0  0
    0.7106   -1.6627    0.0000 C   0  0  0  0  0  0  0  0  0  0  0  0
    1.5044   -2.0364    0.0000 C   0  0  0  0  0  0  0  0  0  0  0  0
    1.6497   -2.8485    0.0000 C   0  0  3  0  0  0  0  0  0  0  0  0
    2.4257   -3.1287    0.0000 C   0  0  0  0  0  0  0  0  0  0  0  0
    1.0191   -3.3804    0.0000 O   0  0  0  0  0  0  0  0  0  0  0  0
    2.0558   -1.4752    0.0000 C   0  0  0  0  0  0  0  0  0  0  0  0
    2.8703   -1.6063    0.0000 C   0  0  0  0  0  0  0  0  0  0  0  0
    1.6683   -0.6881    0.0000 C   0  0  0  0  0  0  0  0  0  0  0  0
    0.8501   -0.8709    0.0000 N   0  0  0  0  0  0  0  0  0  0  0  0
    2.0427    0.0179    0.0000 C   0  0  0  0  0  0  0  0  0  0  0  0
    1.6265    0.7462    0.0000 C   0  0  0  0  0  0  0  0  0  0  0  0
    0.8643    0.8567    0.0000 N   0  0  0  0  0  0  0  0  0  0  0  0
    0.7107    1.6752    0.0000 C   0  0  0  0  0  0  0  0  0  0  0  0
    0.0047    2.0496    0.0000 C   0  0  0  0  0  0  0  0  0  0  0  0
   -0.7239    1.6627    0.0000 C   0  0  0  0  0  0  0  0  0  0  0  0
   -0.8926    0.8706    0.0000 N   0  0  0  0  0  0  0  0  0  0  0  0
   -1.6818    0.7174    0.0000 C   0  0  0  0  0  0  0  0  0  0  0  0
   -2.0558   -0.0472    0.0000 C   0  0  0  0  0  0  0  0  0  0  0  0
   -1.6690   -0.7465    0.0000 C   0  0  0  0  0  0  0  0  0  0  0  0
   -0.8480   -0.8857    0.0000 N   0  0  0  0  0  0  0  0  0  0  0  0
   -2.0393    1.4169    0.0000 C   0  0  0  0  0  0  0  0  0  0  0  0
   -2.8548    1.5419    0.0000 C   0  0  0  0  0  0  0  0  0  0  0  0
   -1.4588    2.0076    0.0000 C   0  0  0  0  0  0  0  0  0  0  0  0
   -1.6046    2.8196    0.0000 C   0  0  0  0  0  0  0  0  0  0  0  0
   -2.3807    3.0994    0.0000 C   0  0  0  0  0  0  0  0  0  0  0  0
   -2.5265    3.9114    0.0000 C   0  0  0  0  0  0  0  0  0  0  0  0
   -3.3026    4.1911    0.0000 O   0  0  0  0  0  0  0  0  0  0  0  0
   -1.8962    4.4436    0.0000 O   0  0  0  0  0  0  0  0  0  0  0  0
    1.4686    2.0624    0.0000 C   0  0  0  0  0  0  0  0  0  0  0  0
    1.5937    2.8779    0.0000 C   0  0  0  0  0  0  0  0  0  0  0  0
    2.3624    3.1773    0.0000 C   0  0  0  0  0  0  0  0  0  0  0  0
    2.4875    3.9928    0.0000 C   0  0  0  0  0  0  0  0  0  0  0  0
    1.8438    4.5088    0.0000 O   0  0  0  0  0  0  0  0  0  0  0  0
    3.2562    4.2922    0.0000 O   0  0  0  0  0  0  0  0  0  0  0  0
    2.0297    1.5110    0.0000 C   0  0  0  0  0  0  0  0  0  0  0  0
    2.8449    1.6379    0.0000 C   0  0  0  0  0  0  0  0  0  0  0  0
   -3.0123   -0.0120    0.0000 H   0  0  0  0  0  0  0  0  0  0  0  0
   -4.4380   -1.1961    0.0000 H   0  0  0  0  0  0  0  0  0  0  0  0
   -4.0670   -0.1925    0.0000 H   0  0  0  0  0  0  0  0  0  0  0  0
   -3.9109   -1.8308    0.0000 H   0  0  0  0  0  0  0  0  0  0  0  0
   -4.0983   -2.5878    0.0000 H   0  0  0  0  0  0  0  0  0  0  0  0
   -2.5856   -3.2831    0.0000 H   0  0  0  0  0  0  0  0  0  0  0  0
   -0.7497   -3.5363    0.0000 H   0  0  0  0  0  0  0  0  0  0  0  0
   -1.7408   -3.9397    0.0000 H   0  0  0  0  0  0  0  0  0  0  0  0
    0.0129   -3.0814    0.0000 H   0  0  0  0  0  0  0  0  0  0  0  0
    2.4676   -2.1586    0.0000 H   0  0  0  0  0  0  0  0  0  0  0  0
    2.6142   -4.1820    0.0000 H   0  0  0  0  0  0  0  0  0  0  0  0
    3.2436   -2.4388    0.0000 H   0  0  0  0  0  0  0  0  0  0  0  0
    3.4321   -3.4921    0.0000 H   0  0  0  0  0  0  0  0  0  0  0  0
    0.1067   -3.0510    0.0000 H   0  0  0  0  0  0  0  0  0  0  0  0
    3.2512   -2.6062    0.0000 H   0  0  0  0  0  0  0  0  0  0  0  0
    3.5458   -0.7764    0.0000 H   0  0  0  0  0  0  0  0  0  0  0  0
    3.9267   -1.7763    0.0000 H   0  0  0  0  0  0  0  0  0  0  0  0
    0.1383   -0.1907    0.0000 H   0  0  0  0  0  0  0  0  0  0  0  0
    3.0746    0.0342    0.0000 H   0  0  0  0  0  0  0  0  0  0  0  0
    0.0044    3.0816    0.0000 H   0  0  0  0  0  0  0  0  0  0  0  0
   -0.2028    0.1682    0.0000 H   0  0  0  0  0  0  0  0  0  0  0  0
   -3.0875   -0.0732    0.0000 H   0  0  0  0  0  0  0  0  0  0  0  0
   -3.2432    2.5389    0.0000 H   0  0  0  0  0  0  0  0  0  0  0  0
   -3.5240    0.7070    0.0000 H   0  0  0  0  0  0  0  0  0  0  0  0
   -3.9124    1.7040    0.0000 H   0  0  0  0  0  0  0  0  0  0  0  0
   -0.7871    3.5099    0.0000 H   0  0  0  0  0  0  0  0  0  0  0  0
   -1.7936    3.8728    0.0000 H   0  0  0  0  0  0  0  0  0  0  0  0
   -3.1982    2.4091    0.0000 H   0  0  0  0  0  0  0  0  0  0  0  0
   -3.3873    3.4622    0.0000 H   0  0  0  0  0  0  0  0  0  0  0  0
   -3.4682    5.1133    0.0000 H   0  0  0  0  0  0  0  0  0  0  0  0
    0.7589    3.5472    0.0000 H   0  0  0  0  0  0  0  0  0  0  0  0
    1.7559    3.9355    0.0000 H   0  0  0  0  0  0  0  0  0  0  0  0
    3.1972    2.5080    0.0000 H   0  0  0  0  0  0  0  0  0  0  0  0
    3.3595    3.5656    0.0000 H   0  0  0  0  0  0  0  0  0  0  0  0
    1.9858    5.4350    0.0000 H   0  0  0  0  0  0  0  0  0  0  0  0
    3.5161    0.8046    0.0000 H   0  0  0  0  0  0  0  0  0  0  0  0
    3.2310    2.6358    0.0000 H   0  0  0  0  0  0  0  0  0  0  0  0
    3.9022    1.8025    0.0000 H   0  0  0  0  0  0  0  0  0  0  0  0
  1  2  1  0  0  0  0
  1 45  1  0  0  0  0
  1 46  1  0  0  0  0
  1 47  1  0  0  0  0
  2  3  1  0  0  0  0
  2  4  1  0  0  0  0
  2 48  1  0  0  0  0
  3 49  1  0  0  0  0
  4  5  2  0  0  0  0
  4 27  1  0  0  0  0
  5  6  1  0  0  0  0
  5  7  1  0  0  0  0
  6 50  1  0  0  0  0
  6 51  1  0  0  0  0
  6 52  1  0  0  0  0
  7  8  2  0  0  0  0
  7 28  1  0  0  0  0
  8  9  1  0  0  0  0
  8 53  1  0  0  0  0
  9 10  2  0  0  0  0
  9 17  1  0  0  0  0
 10 11  1  0  0  0  0
 10 14  1  0  0  0  0
 11 12  1  0  0  0  0
 11 13  1  0  0  0  0
 11 54  1  0  0  0  0
 12 55  1  0  0  0  0
 12 56  1  0  0  0  0
 12 57  1  0  0  0  0
 13 58  1  0  0  0  0
 14 15  1  0  0  0  0
 14 16  2  0  0  0  0
 15 59  1  0  0  0  0
 15 60  1  0  0  0  0
 15 61  1  0  0  0  0
 16 17  1  0  0  0  0
 16 18  1  0  0  0  0
 17 62  1  0  0  0  0
 18 19  2  0  0  0  0
 18 63  1  0  0  0  0
 19 20  1  0  0  0  0
 19 43  1  0  0  0  0
 20 21  2  0  0  0  0
 21 22  1  0  0  0  0
 21 37  1  0  0  0  0
 22 23  2  0  0  0  0
 22 64  1  0  0  0  0
 23 24  1  0  0  0  0
 23 31  1  0  0  0  0
 24 25  1  0  0  0  0
 24 65  1  0  0  0  0
 25 26  2  0  0  0  0
 25 29  1  0  0  0  0
 26 27  1  0  0  0  0
 26 66  1  0  0  0  0
 27 28  2  0  0  0  0
 29 30  1  0  0  0  0
 29 31  2  0  0  0  0
 30 67  1  0  0  0  0
 30 68  1  0  0  0  0
 30 69  1  0  0  0  0
 31 32  1  0  0  0  0
 32 33  1  0  0  0  0
 32 70  1  0  0  0  0
 32 71  1  0  0  0  0
 33 34  1  0  0  0  0
 33 72  1  0  0  0  0
 33 73  1  0  0  0  0
 34 35  1  0  0  0  0
 34 36  2  0  0  0  0
 35 74  1  0  0  0  0
 37 38  1  0  0  0  0
 37 43  2  0  0  0  0
 38 39  1  0  0  0  0
 38 75  1  0  0  0  0
 38 76  1  0  0  0  0
 39 40  1  0  0  0  0
 39 77  1  0  0  0  0
 39 78  1  0  0  0  0
 40 41  1  0  0  0  0
 40 42  2  0  0  0  0
 41 79  1  0  0  0  0
 43 44  1  0  0  0  0
 44 80  1  0  0  0  0
 44 81  1  0  0  0  0
 44 82  1  0  0  0  0
M  END
>  <DRUGBANK_ID>
DB16183

>  <COMMON_NAME>
Hemoporfin

>  <CAS_NUMBER>
14459-29-1

>  <UNII>
HBT6M5H379

>  <SYNONYMS>
Haematoporphyrin; Hematoporphyrin; Hematoporphyrin ix; Hemoporfin; Photodyn

$$$$
