
 OpenBabel10282417072D

 94 95  0  0  0  0  0  0  0  0999 V2000
    5.2224   -1.4673    0.0000 S   0  0  0  0  0  0  0  0  0  0  0  0
    3.7935   -2.2923    0.0000 S   0  0  0  0  0  0  0  0  0  0  0  0
    5.2224    1.8328    0.0000 O   0  0  0  0  0  0  0  0  0  0  0  0
    3.7935   -5.5924    0.0000 O   0  0  0  0  0  0  0  0  0  0  0  0
    6.4600    2.5472    0.0000 O   0  0  0  0  0  0  0  0  0  0  0  0
    5.6350    5.4052    0.0000 O   0  0  0  0  0  0  0  0  0  0  0  0
    4.3974    4.6907    0.0000 O   0  0  0  0  0  0  0  0  0  0  0  0
    3.7935    1.0078    0.0000 C   0  0  0  0  0  0  0  0  0  0  0  0
    6.7620    0.5953    0.0000 C   0  0  0  0  0  0  0  0  0  0  0  0
    5.2224   -4.7674    0.0000 C   0  0  0  0  0  0  0  0  0  0  0  0
    2.3645   -4.7674    0.0000 C   0  0  0  0  0  0  0  0  0  0  0  0
    4.5080    0.5953    0.0000 C   0  0  0  0  0  0  0  0  0  0  0  0
    5.9370    0.5953    0.0000 C   0  0  0  0  0  0  0  0  0  0  0  0
    4.5080   -4.3549    0.0000 C   0  0  0  0  0  0  0  0  0  0  0  0
    3.0791   -4.3549    0.0000 C   0  0  0  0  0  0  0  0  0  0  0  0
    5.2224    1.0078    0.0000 C   0  0  0  0  0  0  0  0  0  0  0  0
    3.7935   -4.7674    0.0000 C   0  0  0  0  0  0  0  0  0  0  0  0
    4.5080   -0.2298    0.0000 C   0  0  0  0  0  0  0  0  0  0  0  0
    5.9370   -0.2298    0.0000 C   0  0  0  0  0  0  0  0  0  0  0  0
    5.2224   -0.6423    0.0000 C   0  0  0  0  0  0  0  0  0  0  0  0
    4.2060    1.7222    0.0000 C   0  0  0  0  0  0  0  0  0  0  0  0
    3.3810    0.2932    0.0000 C   0  0  0  0  0  0  0  0  0  0  0  0
    3.0791    1.4203    0.0000 C   0  0  0  0  0  0  0  0  0  0  0  0
    6.7620   -0.2298    0.0000 C   0  0  0  0  0  0  0  0  0  0  0  0
    6.7620    1.4203    0.0000 C   0  0  0  0  0  0  0  0  0  0  0  0
    7.5870    0.5953    0.0000 C   0  0  0  0  0  0  0  0  0  0  0  0
    3.7935   -3.1173    0.0000 C   0  0  0  0  0  0  0  0  0  0  0  0
    4.5080   -3.5298    0.0000 C   0  0  0  0  0  0  0  0  0  0  0  0
    3.0791   -3.5298    0.0000 C   0  0  0  0  0  0  0  0  0  0  0  0
    4.5080   -1.8798    0.0000 C   0  0  0  0  0  0  0  0  0  0  0  0
    5.6350   -4.0529    0.0000 C   0  0  0  0  0  0  0  0  0  0  0  0
    4.8099   -5.4819    0.0000 C   0  0  0  0  0  0  0  0  0  0  0  0
    5.9370   -5.1799    0.0000 C   0  0  0  0  0  0  0  0  0  0  0  0
    2.7770   -5.4819    0.0000 C   0  0  0  0  0  0  0  0  0  0  0  0
    1.9520   -4.0529    0.0000 C   0  0  0  0  0  0  0  0  0  0  0  0
    1.6500   -5.1799    0.0000 C   0  0  0  0  0  0  0  0  0  0  0  0
    4.9205   -2.5944    0.0000 C   0  0  0  0  0  0  0  0  0  0  0  0
    4.0955   -1.1653    0.0000 C   0  0  0  0  0  0  0  0  0  0  0  0
    5.6350    2.5472    0.0000 C   0  0  0  0  0  0  0  0  0  0  0  0
    5.2224    3.2617    0.0000 C   0  0  0  0  0  0  0  0  0  0  0  0
    5.6350    3.9762    0.0000 C   0  0  0  0  0  0  0  0  0  0  0  0
    5.2224    4.6907    0.0000 C   0  0  0  0  0  0  0  0  0  0  0  0
    2.9820   -6.0609    0.0000 H   0  0  0  0  0  0  0  0  0  0  0  0
    6.5720    5.4051    0.0000 H   0  0  0  0  0  0  0  0  0  0  0  0
    3.6143   -0.7458    0.0000 H   0  0  0  0  0  0  0  0  0  0  0  0
    6.8307   -0.7458    0.0000 H   0  0  0  0  0  0  0  0  0  0  0  0
    5.2760    1.7222    0.0000 H   0  0  0  0  0  0  0  0  0  0  0  0
    3.6710    2.6489    0.0000 H   0  0  0  0  0  0  0  0  0  0  0  0
    4.7410    2.6488    0.0000 H   0  0  0  0  0  0  0  0  0  0  0  0
    2.3110    0.2931    0.0000 H   0  0  0  0  0  0  0  0  0  0  0  0
    3.9161   -0.6334    0.0000 H   0  0  0  0  0  0  0  0  0  0  0  0
    2.8461   -0.6335    0.0000 H   0  0  0  0  0  0  0  0  0  0  0  0
    3.0791    2.4903    0.0000 H   0  0  0  0  0  0  0  0  0  0  0  0
    2.1524    0.8853    0.0000 H   0  0  0  0  0  0  0  0  0  0  0  0
    2.1525    1.9553    0.0000 H   0  0  0  0  0  0  0  0  0  0  0  0
    5.8354   -0.7648    0.0000 H   0  0  0  0  0  0  0  0  0  0  0  0
    7.6886   -0.7648    0.0000 H   0  0  0  0  0  0  0  0  0  0  0  0
    6.7620   -1.2998    0.0000 H   0  0  0  0  0  0  0  0  0  0  0  0
    7.6886    1.9553    0.0000 H   0  0  0  0  0  0  0  0  0  0  0  0
    5.8354    1.9553    0.0000 H   0  0  0  0  0  0  0  0  0  0  0  0
    6.7620    2.4903    0.0000 H   0  0  0  0  0  0  0  0  0  0  0  0
    8.1220   -0.3313    0.0000 H   0  0  0  0  0  0  0  0  0  0  0  0
    8.1220    1.5219    0.0000 H   0  0  0  0  0  0  0  0  0  0  0  0
    8.6570    0.5953    0.0000 H   0  0  0  0  0  0  0  0  0  0  0  0
    5.4017   -3.0138    0.0000 H   0  0  0  0  0  0  0  0  0  0  0  0
    2.1854   -3.0138    0.0000 H   0  0  0  0  0  0  0  0  0  0  0  0
    6.7050   -4.0530    0.0000 H   0  0  0  0  0  0  0  0  0  0  0  0
    5.1001   -3.1262    0.0000 H   0  0  0  0  0  0  0  0  0  0  0  0
    6.1701   -3.1263    0.0000 H   0  0  0  0  0  0  0  0  0  0  0  0
    3.7399   -5.4819    0.0000 H   0  0  0  0  0  0  0  0  0  0  0  0
    5.3449   -6.4085    0.0000 H   0  0  0  0  0  0  0  0  0  0  0  0
    4.2749   -6.4086    0.0000 H   0  0  0  0  0  0  0  0  0  0  0  0
    5.9371   -6.2499    0.0000 H   0  0  0  0  0  0  0  0  0  0  0  0
    6.8636   -4.6448    0.0000 H   0  0  0  0  0  0  0  0  0  0  0  0
    6.8637   -5.7148    0.0000 H   0  0  0  0  0  0  0  0  0  0  0  0
    2.2420   -6.4085    0.0000 H   0  0  0  0  0  0  0  0  0  0  0  0
    3.8470   -5.4819    0.0000 H   0  0  0  0  0  0  0  0  0  0  0  0
    3.3120   -6.4086    0.0000 H   0  0  0  0  0  0  0  0  0  0  0  0
    2.4870   -3.1263    0.0000 H   0  0  0  0  0  0  0  0  0  0  0  0
    0.8820   -4.0529    0.0000 H   0  0  0  0  0  0  0  0  0  0  0  0
    1.4170   -3.1262    0.0000 H   0  0  0  0  0  0  0  0  0  0  0  0
    0.7234   -4.6449    0.0000 H   0  0  0  0  0  0  0  0  0  0  0  0
    1.6500   -6.2499    0.0000 H   0  0  0  0  0  0  0  0  0  0  0  0
    0.7233   -5.7149    0.0000 H   0  0  0  0  0  0  0  0  0  0  0  0
    4.3854   -3.5210    0.0000 H   0  0  0  0  0  0  0  0  0  0  0  0
    5.9905   -2.5945    0.0000 H   0  0  0  0  0  0  0  0  0  0  0  0
    5.4554   -3.5211    0.0000 H   0  0  0  0  0  0  0  0  0  0  0  0
    4.6305   -0.2387    0.0000 H   0  0  0  0  0  0  0  0  0  0  0  0
    3.0255   -1.1653    0.0000 H   0  0  0  0  0  0  0  0  0  0  0  0
    3.5605   -0.2386    0.0000 H   0  0  0  0  0  0  0  0  0  0  0  0
    4.1524    3.2617    0.0000 H   0  0  0  0  0  0  0  0  0  0  0  0
    4.6874    4.1884    0.0000 H   0  0  0  0  0  0  0  0  0  0  0  0
    6.7050    3.9762    0.0000 H   0  0  0  0  0  0  0  0  0  0  0  0
    6.1700    4.9029    0.0000 H   0  0  0  0  0  0  0  0  0  0  0  0
  1 20  1  0  0  0  0
  1 30  1  0  0  0  0
  2 27  1  0  0  0  0
  2 30  1  0  0  0  0
  3 16  1  0  0  0  0
  3 39  1  0  0  0  0
  4 17  1  0  0  0  0
  4 43  1  0  0  0  0
  5 39  2  0  0  0  0
  6 42  1  0  0  0  0
  6 44  1  0  0  0  0
  7 42  2  0  0  0  0
  8 12  1  0  0  0  0
  8 21  1  0  0  0  0
  8 22  1  0  0  0  0
  8 23  1  0  0  0  0
  9 13  1  0  0  0  0
  9 24  1  0  0  0  0
  9 25  1  0  0  0  0
  9 26  1  0  0  0  0
 10 14  1  0  0  0  0
 10 31  1  0  0  0  0
 10 32  1  0  0  0  0
 10 33  1  0  0  0  0
 11 15  1  0  0  0  0
 11 34  1  0  0  0  0
 11 35  1  0  0  0  0
 11 36  1  0  0  0  0
 12 16  2  0  0  0  0
 12 18  1  0  0  0  0
 13 16  1  0  0  0  0
 13 19  2  0  0  0  0
 14 17  2  0  0  0  0
 14 28  1  0  0  0  0
 15 17  1  0  0  0  0
 15 29  2  0  0  0  0
 18 20  2  0  0  0  0
 18 45  1  0  0  0  0
 19 20  1  0  0  0  0
 19 46  1  0  0  0  0
 21 47  1  0  0  0  0
 21 48  1  0  0  0  0
 21 49  1  0  0  0  0
 22 50  1  0  0  0  0
 22 51  1  0  0  0  0
 22 52  1  0  0  0  0
 23 53  1  0  0  0  0
 23 54  1  0  0  0  0
 23 55  1  0  0  0  0
 24 56  1  0  0  0  0
 24 57  1  0  0  0  0
 24 58  1  0  0  0  0
 25 59  1  0  0  0  0
 25 60  1  0  0  0  0
 25 61  1  0  0  0  0
 26 62  1  0  0  0  0
 26 63  1  0  0  0  0
 26 64  1  0  0  0  0
 27 28  2  0  0  0  0
 27 29  1  0  0  0  0
 28 65  1  0  0  0  0
 29 66  1  0  0  0  0
 30 37  1  0  0  0  0
 30 38  1  0  0  0  0
 31 67  1  0  0  0  0
 31 68  1  0  0  0  0
 31 69  1  0  0  0  0
 32 70  1  0  0  0  0
 32 71  1  0  0  0  0
 32 72  1  0  0  0  0
 33 73  1  0  0  0  0
 33 74  1  0  0  0  0
 33 75  1  0  0  0  0
 34 76  1  0  0  0  0
 34 77  1  0  0  0  0
 34 78  1  0  0  0  0
 35 79  1  0  0  0  0
 35 80  1  0  0  0  0
 35 81  1  0  0  0  0
 36 82  1  0  0  0  0
 36 83  1  0  0  0  0
 36 84  1  0  0  0  0
 37 85  1  0  0  0  0
 37 86  1  0  0  0  0
 37 87  1  0  0  0  0
 38 88  1  0  0  0  0
 38 89  1  0  0  0  0
 38 90  1  0  0  0  0
 39 40  1  0  0  0  0
 40 41  1  0  0  0  0
 40 91  1  0  0  0  0
 40 92  1  0  0  0  0
 41 42  1  0  0  0  0
 41 93  1  0  0  0  0
 41 94  1  0  0  0  0
M  END
>  <DRUGBANK_ID>
DB05399

>  <COMMON_NAME>
Succinobucol

>  <CAS_NUMBER>
216167-82-7

>  <UNII>
J1J54V24R4

>  <SYNONYMS>
Succinobucol

$$$$
