32A
 OpenBabel10282417072D

 36 36  0  0  0  0  0  0  0  0999 V2000
    1.5932    0.0117    0.0000 C   0  0  0  0  0  0  0  0  0  0  0  0
    2.3077    0.4242    0.0000 C   0  0  0  0  0  0  0  0  0  0  0  0
    4.4511    0.0117    0.0000 C   0  0  0  0  0  0  0  0  0  0  0  0
    0.2875   -0.2659    0.0000 C   0  0  0  0  0  0  0  0  0  0  0  0
    1.5070   -0.8088    0.0000 C   0  0  0  0  0  0  0  0  0  0  0  0
   -0.5329   -0.1796    0.0000 C   0  0  0  0  0  0  0  0  0  0  0  0
   -1.3534   -0.0934    0.0000 C   0  0  0  0  0  0  0  0  0  0  0  0
    3.0222    0.0117    0.0000 N   0  0  0  0  0  0  0  0  0  0  0  0
    3.7367    0.4242    0.0000 N   0  0  0  0  0  0  0  0  0  0  0  0
    5.1656    0.4242    0.0000 N   0  0  0  0  0  0  0  0  0  0  0  0
   -2.1739   -0.0072    0.0000 C   0  0  0  0  0  0  0  0  0  0  0  0
    0.7000   -0.9803    0.0000 C   0  0  0  0  0  0  0  0  0  0  0  0
    2.3077    1.2492    0.0000 O   0  0  0  0  0  0  0  0  0  0  0  0
    5.8801    0.0117    0.0000 C   0  0  0  0  0  0  0  0  0  0  0  0
    4.4511   -0.8133    0.0000 S   0  0  0  0  0  0  0  0  0  0  0  0
    0.8396    0.3472    0.0000 O   0  0  0  0  0  0  0  0  0  0  0  0
   -2.6588   -0.6746    0.0000 C   0  0  0  0  0  0  0  0  0  0  0  0
   -3.4793   -0.5884    0.0000 C   0  0  0  0  0  0  0  0  0  0  0  0
   -3.9642   -1.2558    0.0000 C   0  0  0  0  0  0  0  0  0  0  0  0
    2.2739   -1.4993    0.0000 H   0  0  0  0  0  0  0  0  0  0  0  0
    3.0222   -0.9728    0.0000 H   0  0  0  0  0  0  0  0  0  0  0  0
    3.7367    1.4087    0.0000 H   0  0  0  0  0  0  0  0  0  0  0  0
    5.1656    1.4087    0.0000 H   0  0  0  0  0  0  0  0  0  0  0  0
   -2.6091    0.9703    0.0000 H   0  0  0  0  0  0  0  0  0  0  0  0
   -3.2380    0.1046    0.0000 H   0  0  0  0  0  0  0  0  0  0  0  0
    0.2802   -1.9231    0.0000 H   0  0  0  0  0  0  0  0  0  0  0  0
    5.8801   -1.0583    0.0000 H   0  0  0  0  0  0  0  0  0  0  0  0
    6.8067    0.5467    0.0000 H   0  0  0  0  0  0  0  0  0  0  0  0
    6.8068   -0.5233    0.0000 H   0  0  0  0  0  0  0  0  0  0  0  0
   -2.2236   -1.6521    0.0000 H   0  0  0  0  0  0  0  0  0  0  0  0
   -3.2877   -1.5403    0.0000 H   0  0  0  0  0  0  0  0  0  0  0  0
   -3.9145    0.3891    0.0000 H   0  0  0  0  0  0  0  0  0  0  0  0
   -4.5434   -0.4766    0.0000 H   0  0  0  0  0  0  0  0  0  0  0  0
   -5.0283   -1.1439    0.0000 H   0  0  0  0  0  0  0  0  0  0  0  0
   -3.5290   -2.2333    0.0000 H   0  0  0  0  0  0  0  0  0  0  0  0
   -4.5931   -2.1214    0.0000 H   0  0  0  0  0  0  0  0  0  0  0  0
  1  2  1  0  0  0  0
  1  5  2  0  0  0  0
  1 16  1  0  0  0  0
  2  8  1  0  0  0  0
  2 13  2  0  0  0  0
  3  9  1  0  0  0  0
  3 10  1  0  0  0  0
  3 15  2  0  0  0  0
  4  6  1  0  0  0  0
  4 12  2  0  0  0  0
  4 16  1  0  0  0  0
  5 12  1  0  0  0  0
  5 20  1  0  0  0  0
  6  7  3  0  0  0  0
  7 11  1  0  0  0  0
  8  9  1  0  0  0  0
  8 21  1  0  0  0  0
  9 22  1  0  0  0  0
 10 14  1  0  0  0  0
 10 23  1  0  0  0  0
 11 17  1  0  0  0  0
 11 24  1  0  0  0  0
 11 25  1  0  0  0  0
 12 26  1  0  0  0  0
 14 27  1  0  0  0  0
 14 28  1  0  0  0  0
 14 29  1  0  0  0  0
 17 18  1  0  0  0  0
 17 30  1  0  0  0  0
 17 31  1  0  0  0  0
 18 19  1  0  0  0  0
 18 32  1  0  0  0  0
 18 33  1  0  0  0  0
 19 34  1  0  0  0  0
 19 35  1  0  0  0  0
 19 36  1  0  0  0  0
M  END
>  <DRUGBANK_ID>
DB07004

>  <COMMON_NAME>
2-[(5-hex-1-yn-1-ylfuran-2-yl)carbonyl]-N-methylhydrazinecarbothioamide

$$$$
