853
 OpenBabel10282417072D

 20 21  0  0  0  0  0  0  0  0999 V2000
    3.0791    1.8772    0.0000 O   0  0  0  0  0  0  0  0  0  0  0  0
    4.2795   -1.8350    0.0000 O   0  0  0  0  0  0  0  0  0  0  0  0
    3.7935    0.6397    0.0000 N   0  0  0  0  0  0  0  0  0  0  0  0
    2.3645    0.6397    0.0000 N   0  0  0  0  0  0  0  0  0  0  0  0
    5.0556    0.2272    0.0000 N   0  0  0  0  0  0  0  0  0  0  0  0
    3.0791   -0.5978    0.0000 N   0  0  0  0  0  0  0  0  0  0  0  0
    2.3645   -0.1853    0.0000 N   0  0  0  0  0  0  0  0  0  0  0  0
    5.6378   -1.3911    0.0000 N   0  0  0  0  0  0  0  0  0  0  0  0
    3.7935   -0.1853    0.0000 C   0  0  0  0  0  0  0  0  0  0  0  0
    4.5741   -0.4367    0.0000 C   0  0  0  0  0  0  0  0  0  0  0  0
    3.0791    1.0522    0.0000 C   0  0  0  0  0  0  0  0  0  0  0  0
    4.5741    0.8911    0.0000 C   0  0  0  0  0  0  0  0  0  0  0  0
    1.6500    1.0522    0.0000 C   0  0  0  0  0  0  0  0  0  0  0  0
    4.8305   -1.2209    0.0000 C   0  0  0  0  0  0  0  0  0  0  0  0
    5.9436   -2.3269    0.0000 H   0  0  0  0  0  0  0  0  0  0  0  0
    6.2953   -0.6584    0.0000 H   0  0  0  0  0  0  0  0  0  0  0  0
    4.8947    1.8720    0.0000 H   0  0  0  0  0  0  0  0  0  0  0  0
    1.6500    2.1222    0.0000 H   0  0  0  0  0  0  0  0  0  0  0  0
    0.7234    0.5172    0.0000 H   0  0  0  0  0  0  0  0  0  0  0  0
    0.7233    1.5872    0.0000 H   0  0  0  0  0  0  0  0  0  0  0  0
  1 11  2  0  0  0  0
  2 14  2  0  0  0  0
  3  9  1  0  0  0  0
  3 11  1  0  0  0  0
  3 12  1  0  0  0  0
  4  7  1  0  0  0  0
  4 11  1  0  0  0  0
  4 13  1  0  0  0  0
  5 10  1  0  0  0  0
  5 12  2  0  0  0  0
  6  7  2  0  0  0  0
  6  9  1  0  0  0  0
  8 14  1  0  0  0  0
  8 15  1  0  0  0  0
  8 16  1  0  0  0  0
  9 10  2  0  0  0  0
 10 14  1  0  0  0  0
 12 17  1  0  0  0  0
 13 18  1  0  0  0  0
 13 19  1  0  0  0  0
 13 20  1  0  0  0  0
M  END
>  <DRUGBANK_ID>
DB00853

>  <SECONDARY_ACCESSION_NUMBERS>
APRD00557

>  <COMMON_NAME>
Temozolomide

>  <CAS_NUMBER>
85622-93-1

>  <UNII>
YF1K15M17Y

>  <SYNONYMS>
(S)-perillyl alcohol temozolomide; 3-methyl-4-oxo-3,4-dihydroimidazo(5,1-d)(1,2,3,5)tetrazine-8-carboxamide; 3,4-dihydro-3-methyl-4-oxoimidazo(5,1-d)-1,2,3,5-tetrazine-8-carboxamide; 3,4-dihydro-3-methyl-4-oxoimidazo(5,1-d)-as-tetrazine-8-carboxamide; 8-carbamoyl-3-methylimidazo(5,1-d)-1,2,3,5-tetrazin-4(3H)-one; Methazolastone; Temozolodida; Temozolomid; Temozolomida; Temozolomide; TÃ©mozolomide; Temozolomidum; TMZ

$$$$
