
 OpenBabel10282417072D

 82 83  0  0  0  0  0  0  0  0999 V2000
    1.4289    1.6500    0.0000 O   0  0  0  0  0  0  0  0  0  0  0  0
   -2.8578    1.6500    0.0000 O   0  0  0  0  0  0  0  0  0  0  0  0
    3.5723    2.0625    0.0000 O   0  0  0  0  0  0  0  0  0  0  0  0
   -4.2867   -1.6500    0.0000 O   0  0  0  0  0  0  0  0  0  0  0  0
    2.1434    2.0625    0.0000 O   0  0  0  0  0  0  0  0  0  0  0  0
   -5.0013   -0.4125    0.0000 O   0  0  0  0  0  0  0  0  0  0  0  0
   -0.7144   -0.4125    0.0000 O   0  0  0  0  0  0  0  0  0  0  0  0
    2.8578    0.8250    0.0000 N   0  0  0  0  0  0  0  0  0  0  0  0
   -3.5723   -0.4125    0.0000 N   0  0  0  0  0  0  0  0  0  0  0  0
    0.7144    0.4125    0.0000 N   0  0  0  0  0  0  0  0  0  0  0  0
   -2.1434    0.4125    0.0000 N   0  0  0  0  0  0  0  0  0  0  0  0
    0.0000    0.8250    0.0000 N   0  0  0  0  0  0  0  0  0  0  0  0
   -1.4289    0.8250    0.0000 N   0  0  0  0  0  0  0  0  0  0  0  0
    2.8578   -0.8250    0.0000 C   0  0  0  0  0  0  0  0  0  0  0  0
   -4.2867    1.6500    0.0000 C   0  0  0  0  0  0  0  0  0  0  0  0
    2.1434   -0.4125    0.0000 C   0  0  0  0  0  0  0  0  0  0  0  0
   -4.2867    0.8250    0.0000 C   0  0  0  0  0  0  0  0  0  0  0  0
    2.1434    0.4125    0.0000 C   0  0  1  0  0  0  0  0  0  0  0  0
   -3.5723    0.4125    0.0000 C   0  0  1  0  0  0  0  0  0  0  0  0
    2.8578   -1.6500    0.0000 C   0  0  0  0  0  0  0  0  0  0  0  0
    3.5723   -0.4125    0.0000 C   0  0  0  0  0  0  0  0  0  0  0  0
   -5.0013    2.0625    0.0000 C   0  0  0  0  0  0  0  0  0  0  0  0
   -3.5723    2.0625    0.0000 C   0  0  0  0  0  0  0  0  0  0  0  0
    1.4289    0.8250    0.0000 C   0  0  0  0  0  0  0  0  0  0  0  0
   -2.8578    0.8250    0.0000 C   0  0  0  0  0  0  0  0  0  0  0  0
    2.8578    1.6500    0.0000 C   0  0  0  0  0  0  0  0  0  0  0  0
   -4.2867   -0.8250    0.0000 C   0  0  0  0  0  0  0  0  0  0  0  0
   -0.7144    0.4125    0.0000 C   0  0  0  0  0  0  0  0  0  0  0  0
    3.5723    2.8875    0.0000 C   0  0  0  0  0  0  0  0  0  0  0  0
   -5.0013   -2.0625    0.0000 C   0  0  0  0  0  0  0  0  0  0  0  0
    4.2868    3.3000    0.0000 C   0  0  0  0  0  0  0  0  0  0  0  0
   -5.0013   -2.8875    0.0000 C   0  0  0  0  0  0  0  0  0  0  0  0
    4.2868    4.1250    0.0000 C   0  0  0  0  0  0  0  0  0  0  0  0
   -4.2867   -3.3000    0.0000 C   0  0  0  0  0  0  0  0  0  0  0  0
    5.0013    2.8875    0.0000 C   0  0  0  0  0  0  0  0  0  0  0  0
   -5.7157   -3.3000    0.0000 C   0  0  0  0  0  0  0  0  0  0  0  0
    5.0013    4.5375    0.0000 C   0  0  0  0  0  0  0  0  0  0  0  0
   -4.2867   -4.1250    0.0000 C   0  0  0  0  0  0  0  0  0  0  0  0
    5.7157    3.3000    0.0000 C   0  0  0  0  0  0  0  0  0  0  0  0
   -5.7157   -4.1250    0.0000 C   0  0  0  0  0  0  0  0  0  0  0  0
    5.7157    4.1250    0.0000 C   0  0  0  0  0  0  0  0  0  0  0  0
   -5.0013   -4.5375    0.0000 C   0  0  0  0  0  0  0  0  0  0  0  0
    3.3008    0.5692    0.0000 H   0  0  0  0  0  0  0  0  0  0  0  0
   -3.1293   -0.6682    0.0000 H   0  0  0  0  0  0  0  0  0  0  0  0
    0.7144   -0.0990    0.0000 H   0  0  0  0  0  0  0  0  0  0  0  0
   -2.1434   -0.0990    0.0000 H   0  0  0  0  0  0  0  0  0  0  0  0
    0.0000    1.3365    0.0000 H   0  0  0  0  0  0  0  0  0  0  0  0
   -1.4289    1.3365    0.0000 H   0  0  0  0  0  0  0  0  0  0  0  0
    3.7844   -1.3600    0.0000 H   0  0  0  0  0  0  0  0  0  0  0  0
   -4.2868    2.7200    0.0000 H   0  0  0  0  0  0  0  0  0  0  0  0
    1.2167   -0.9475    0.0000 H   0  0  0  0  0  0  0  0  0  0  0  0
    1.2168    0.1225    0.0000 H   0  0  0  0  0  0  0  0  0  0  0  0
   -5.2134    0.2900    0.0000 H   0  0  0  0  0  0  0  0  0  0  0  0
   -4.2867   -0.2450    0.0000 H   0  0  0  0  0  0  0  0  0  0  0  0
    3.0701   -0.1225    0.0000 H   0  0  0  0  0  0  0  0  0  0  0  0
   -4.4990   -0.1225    0.0000 H   0  0  0  0  0  0  0  0  0  0  0  0
    1.9312   -2.1850    0.0000 H   0  0  0  0  0  0  0  0  0  0  0  0
    3.7844   -2.1850    0.0000 H   0  0  0  0  0  0  0  0  0  0  0  0
    2.8578   -2.7200    0.0000 H   0  0  0  0  0  0  0  0  0  0  0  0
    4.4989   -0.9475    0.0000 H   0  0  0  0  0  0  0  0  0  0  0  0
    3.5723    0.6575    0.0000 H   0  0  0  0  0  0  0  0  0  0  0  0
    4.4990    0.1225    0.0000 H   0  0  0  0  0  0  0  0  0  0  0  0
   -5.0014    3.1325    0.0000 H   0  0  0  0  0  0  0  0  0  0  0  0
   -5.9279    1.5274    0.0000 H   0  0  0  0  0  0  0  0  0  0  0  0
   -5.9280    2.5974    0.0000 H   0  0  0  0  0  0  0  0  0  0  0  0
   -2.6456    1.5275    0.0000 H   0  0  0  0  0  0  0  0  0  0  0  0
   -3.5723    3.1325    0.0000 H   0  0  0  0  0  0  0  0  0  0  0  0
   -2.6457    2.5975    0.0000 H   0  0  0  0  0  0  0  0  0  0  0  0
    2.6457    3.4225    0.0000 H   0  0  0  0  0  0  0  0  0  0  0  0
    3.5723    3.9575    0.0000 H   0  0  0  0  0  0  0  0  0  0  0  0
   -5.9279   -1.5275    0.0000 H   0  0  0  0  0  0  0  0  0  0  0  0
   -5.9280   -2.5975    0.0000 H   0  0  0  0  0  0  0  0  0  0  0  0
    3.3931    4.6410    0.0000 H   0  0  0  0  0  0  0  0  0  0  0  0
   -3.3930   -2.7840    0.0000 H   0  0  0  0  0  0  0  0  0  0  0  0
    5.0013    1.8555    0.0000 H   0  0  0  0  0  0  0  0  0  0  0  0
   -6.6094   -2.7840    0.0000 H   0  0  0  0  0  0  0  0  0  0  0  0
    5.0013    5.5695    0.0000 H   0  0  0  0  0  0  0  0  0  0  0  0
   -3.3930   -4.6410    0.0000 H   0  0  0  0  0  0  0  0  0  0  0  0
    6.6094    2.7840    0.0000 H   0  0  0  0  0  0  0  0  0  0  0  0
   -6.6094   -4.6410    0.0000 H   0  0  0  0  0  0  0  0  0  0  0  0
    6.6094    4.6410    0.0000 H   0  0  0  0  0  0  0  0  0  0  0  0
   -5.0014   -5.5695    0.0000 H   0  0  0  0  0  0  0  0  0  0  0  0
  1 24  2  0  0  0  0
  2 25  2  0  0  0  0
  3 26  1  0  0  0  0
  3 29  1  0  0  0  0
  4 27  1  0  0  0  0
  4 30  1  0  0  0  0
  5 26  2  0  0  0  0
  6 27  2  0  0  0  0
  7 28  2  0  0  0  0
  8 26  1  0  0  0  0
  8 43  1  0  0  0  0
  9 27  1  0  0  0  0
  9 44  1  0  0  0  0
 10 12  1  0  0  0  0
 10 24  1  0  0  0  0
 10 45  1  0  0  0  0
 11 13  1  0  0  0  0
 11 25  1  0  0  0  0
 11 46  1  0  0  0  0
 12 28  1  0  0  0  0
 12 47  1  0  0  0  0
 13 28  1  0  0  0  0
 13 48  1  0  0  0  0
 14 16  1  0  0  0  0
 14 20  1  0  0  0  0
 14 21  1  0  0  0  0
 14 49  1  0  0  0  0
 15 17  1  0  0  0  0
 15 22  1  0  0  0  0
 15 23  1  0  0  0  0
 15 50  1  0  0  0  0
 16 18  1  0  0  0  0
 16 51  1  0  0  0  0
 16 52  1  0  0  0  0
 17 19  1  0  0  0  0
 17 53  1  0  0  0  0
 17 54  1  0  0  0  0
 18  8  1  0  0  0  0
 18 24  1  0  0  0  0
 18 55  1  6  0  0  0
 19  9  1  0  0  0  0
 19 25  1  0  0  0  0
 19 56  1  6  0  0  0
 20 57  1  0  0  0  0
 20 58  1  0  0  0  0
 20 59  1  0  0  0  0
 21 60  1  0  0  0  0
 21 61  1  0  0  0  0
 21 62  1  0  0  0  0
 22 63  1  0  0  0  0
 22 64  1  0  0  0  0
 22 65  1  0  0  0  0
 23 66  1  0  0  0  0
 23 67  1  0  0  0  0
 23 68  1  0  0  0  0
 29 31  1  0  0  0  0
 29 69  1  0  0  0  0
 29 70  1  0  0  0  0
 30 32  1  0  0  0  0
 30 71  1  0  0  0  0
 30 72  1  0  0  0  0
 31 33  2  0  0  0  0
 31 35  1  0  0  0  0
 32 34  2  0  0  0  0
 32 36  1  0  0  0  0
 33 37  1  0  0  0  0
 33 73  1  0  0  0  0
 34 38  1  0  0  0  0
 34 74  1  0  0  0  0
 35 39  2  0  0  0  0
 35 75  1  0  0  0  0
 36 40  2  0  0  0  0
 36 76  1  0  0  0  0
 37 41  2  0  0  0  0
 37 77  1  0  0  0  0
 38 42  2  0  0  0  0
 38 78  1  0  0  0  0
 39 41  1  0  0  0  0
 39 79  1  0  0  0  0
 40 42  1  0  0  0  0
 40 80  1  0  0  0  0
 41 81  1  0  0  0  0
 42 82  1  0  0  0  0
M  END
>  <DRUGBANK_ID>
DB03891

>  <SECONDARY_ACCESSION_NUMBERS>
EXPT01880

>  <COMMON_NAME>
Dibenzyl (carbonylbis{2,1-hydrazinediyl[(2S)-4-methyl-1-oxo-1,2-pentanediyl]})biscarbamate

>  <SYNONYMS>
1,5-Bis(N-benzyloxycarbonyl-L-leucinyl)carbohydrazide

$$$$
