
 OpenBabel10282417072D

 52 55  0  0  0  0  0  0  0  0999 V2000
    1.2279   -0.4170    0.0000 C   0  0  0  0  0  0  0  0  0  0  0  0
    1.1417    0.4035    0.0000 C   0  0  3  0  0  0  0  0  0  0  0  0
    0.4272    0.8160    0.0000 S   0  0  0  0  0  0  0  0  0  0  0  0
    0.5987    1.6230    0.0000 C   0  0  0  0  0  0  0  0  0  0  0  0
    1.4192    1.7092    0.0000 C   0  0  0  0  0  0  0  0  0  0  0  0
    1.7548    0.9555    0.0000 N   0  0  0  0  0  0  0  0  0  0  0  0
    2.5617    0.7840    0.0000 C   0  0  0  0  0  0  0  0  0  0  0  0
    3.1138    1.3971    0.0000 O   0  0  0  0  0  0  0  0  0  0  0  0
    2.8167   -0.0006    0.0000 C   0  0  0  0  0  0  0  0  0  0  0  0
    3.6236   -0.1721    0.0000 C   0  0  0  0  0  0  0  0  0  0  0  0
    3.8786   -0.9568    0.0000 C   0  0  0  0  0  0  0  0  0  0  0  0
    3.3937   -1.6242    0.0000 C   0  0  0  0  0  0  0  0  0  0  0  0
    3.8786   -2.2916    0.0000 N   0  0  0  0  0  0  0  0  0  0  0  0
    4.6632   -2.0367    0.0000 C   0  0  0  0  0  0  0  0  0  0  0  0
    4.6632   -1.2117    0.0000 C   0  0  0  0  0  0  0  0  0  0  0  0
    5.3777   -0.7992    0.0000 C   0  0  0  0  0  0  0  0  0  0  0  0
    6.0921   -1.2117    0.0000 C   0  0  0  0  0  0  0  0  0  0  0  0
    6.0921   -2.0367    0.0000 C   0  0  0  0  0  0  0  0  0  0  0  0
    5.3777   -2.4492    0.0000 C   0  0  0  0  0  0  0  0  0  0  0  0
   -0.2083    1.4514    0.0000 C   0  0  0  0  0  0  0  0  0  0  0  0
   -0.7603    2.0645    0.0000 C   0  0  0  0  0  0  0  0  0  0  0  0
   -0.5054    2.8492    0.0000 N   0  0  0  0  0  0  0  0  0  0  0  0
   -1.0574    3.4623    0.0000 C   0  0  0  0  0  0  0  0  0  0  0  0
    0.3016    3.0207    0.0000 C   0  0  0  0  0  0  0  0  0  0  0  0
    0.8537    2.4076    0.0000 C   0  0  0  0  0  0  0  0  0  0  0  0
    0.3622   -1.0459    0.0000 H   0  0  0  0  0  0  0  0  0  0  0  0
    2.2054   -0.8523    0.0000 H   0  0  0  0  0  0  0  0  0  0  0  0
    1.3397   -1.4811    0.0000 H   0  0  0  0  0  0  0  0  0  0  0  0
    0.2443   -0.1793    0.0000 H   0  0  0  0  0  0  0  0  0  0  0  0
    1.9542    2.6358    0.0000 H   0  0  0  0  0  0  0  0  0  0  0  0
    2.4877    1.6532    0.0000 H   0  0  0  0  0  0  0  0  0  0  0  0
    2.1008   -0.7958    0.0000 H   0  0  0  0  0  0  0  0  0  0  0  0
    3.1474   -1.0182    0.0000 H   0  0  0  0  0  0  0  0  0  0  0  0
    4.3395    0.6231    0.0000 H   0  0  0  0  0  0  0  0  0  0  0  0
    4.6702   -0.3945    0.0000 H   0  0  0  0  0  0  0  0  0  0  0  0
    2.3617   -1.6242    0.0000 H   0  0  0  0  0  0  0  0  0  0  0  0
    3.5744   -3.2279    0.0000 H   0  0  0  0  0  0  0  0  0  0  0  0
    5.3777    0.2328    0.0000 H   0  0  0  0  0  0  0  0  0  0  0  0
    6.9858   -0.6957    0.0000 H   0  0  0  0  0  0  0  0  0  0  0  0
    6.9858   -2.5527    0.0000 H   0  0  0  0  0  0  0  0  0  0  0  0
    5.3777   -3.4812    0.0000 H   0  0  0  0  0  0  0  0  0  0  0  0
   -0.5389    0.4338    0.0000 H   0  0  0  0  0  0  0  0  0  0  0  0
   -1.2549    1.2289    0.0000 H   0  0  0  0  0  0  0  0  0  0  0  0
   -1.8069    1.8420    0.0000 H   0  0  0  0  0  0  0  0  0  0  0  0
   -1.4763    2.8596    0.0000 H   0  0  0  0  0  0  0  0  0  0  0  0
   -0.7267    4.4799    0.0000 H   0  0  0  0  0  0  0  0  0  0  0  0
   -2.1040    3.2399    0.0000 H   0  0  0  0  0  0  0  0  0  0  0  0
   -1.7733    4.2575    0.0000 H   0  0  0  0  0  0  0  0  0  0  0  0
    0.6322    4.0383    0.0000 H   0  0  0  0  0  0  0  0  0  0  0  0
    1.3482    3.2432    0.0000 H   0  0  0  0  0  0  0  0  0  0  0  0
    1.9003    2.6301    0.0000 H   0  0  0  0  0  0  0  0  0  0  0  0
    1.5696    1.6124    0.0000 H   0  0  0  0  0  0  0  0  0  0  0  0
  1  2  1  0  0  0  0
  1 26  1  0  0  0  0
  1 27  1  0  0  0  0
  1 28  1  0  0  0  0
  2  3  1  0  0  0  0
  2  6  1  0  0  0  0
  2 29  1  0  0  0  0
  3  4  1  0  0  0  0
  4  5  1  0  0  0  0
  4 20  1  0  0  0  0
  4 25  1  0  0  0  0
  5  6  1  0  0  0  0
  5 30  1  0  0  0  0
  5 31  1  0  0  0  0
  6  7  1  0  0  0  0
  7  8  2  0  0  0  0
  7  9  1  0  0  0  0
  9 10  1  0  0  0  0
  9 32  1  0  0  0  0
  9 33  1  0  0  0  0
 10 11  1  0  0  0  0
 10 34  1  0  0  0  0
 10 35  1  0  0  0  0
 11 12  2  0  0  0  0
 11 15  1  0  0  0  0
 12 13  1  0  0  0  0
 12 36  1  0  0  0  0
 13 14  1  0  0  0  0
 13 37  1  0  0  0  0
 14 15  2  0  0  0  0
 14 19  1  0  0  0  0
 15 16  1  0  0  0  0
 16 17  2  0  0  0  0
 16 38  1  0  0  0  0
 17 18  1  0  0  0  0
 17 39  1  0  0  0  0
 18 19  2  0  0  0  0
 18 40  1  0  0  0  0
 19 41  1  0  0  0  0
 20 21  1  0  0  0  0
 20 42  1  0  0  0  0
 20 43  1  0  0  0  0
 21 22  1  0  0  0  0
 21 44  1  0  0  0  0
 21 45  1  0  0  0  0
 22 23  1  0  0  0  0
 22 24  1  0  0  0  0
 23 46  1  0  0  0  0
 23 47  1  0  0  0  0
 23 48  1  0  0  0  0
 24 25  1  0  0  0  0
 24 49  1  0  0  0  0
 24 50  1  0  0  0  0
 25 51  1  0  0  0  0
 25 52  1  0  0  0  0
M  END
>  <DRUGBANK_ID>
DB16911

>  <COMMON_NAME>
AF-710B

>  <CAS_NUMBER>
1235733-73-9

>  <UNII>
AAE07Z061B

>  <SYNONYMS>
1-(2,8-dimethyl-1-thia-3,8-diazaspiro(4.5)dec-3-yl)-3-(1h-indol-3-yl)propan-1-one; 1-(2,8-Dimethyl-1-Thia-3,8-Diazaspiro[4.5]Dec-3-yl)-3-(1H-Indol-3-yl)Propan-1-one; 1-propanone, 1-(2,8-dimethyl-1-thia-3,8-diazaspiro(4.5)dec-3-yl)-3-(1h-indol-3-yl)-; Anavex 3-71; ANAVEX3-71

$$$$
