
 OpenBabel10282417072D

 41 41  0  0  0  0  0  0  0  0999 V2000
    2.1434   -6.1875    0.0000 O   0  0  0  0  0  0  0  0  0  0  0  0
    2.8579   -6.6000    0.0000 C   0  0  0  0  0  0  0  0  0  0  0  0
    2.8579   -7.4250    0.0000 O   0  0  0  0  0  0  0  0  0  0  0  0
    3.5724   -6.1875    0.0000 C   0  0  0  0  0  0  0  0  0  0  0  0
    4.2868   -6.6000    0.0000 C   0  0  0  0  0  0  0  0  0  0  0  0
    5.0013   -6.1875    0.0000 C   0  0  0  0  0  0  0  0  0  0  0  0
    5.7158   -6.6000    0.0000 C   0  0  0  0  0  0  0  0  0  0  0  0
    6.4302   -6.1875    0.0000 C   0  0  0  0  0  0  0  0  0  0  0  0
    7.1447   -6.6000    0.0000 C   0  0  0  0  0  0  0  0  0  0  0  0
    7.8592   -6.1875    0.0000 C   0  0  0  0  0  0  0  0  0  0  0  0
    8.5737   -6.6000    0.0000 N   0  0  0  0  0  0  0  0  0  0  0  0
    9.2881   -6.1875    0.0000 C   0  0  0  0  0  0  0  0  0  0  0  0
    9.2881   -5.3625    0.0000 O   0  0  0  0  0  0  0  0  0  0  0  0
   10.0026   -6.6000    0.0000 C   0  0  0  0  0  0  0  0  0  0  0  0
   10.7171   -6.1875    0.0000 C   0  0  0  0  0  0  0  0  0  0  0  0
   11.4315   -6.6000    0.0000 C   0  0  0  0  0  0  0  0  0  0  0  0
   11.4315   -7.4250    0.0000 C   0  0  0  0  0  0  0  0  0  0  0  0
   10.7171   -7.8375    0.0000 C   0  0  0  0  0  0  0  0  0  0  0  0
   10.0026   -7.4250    0.0000 C   0  0  0  0  0  0  0  0  0  0  0  0
    9.2881   -7.8375    0.0000 O   0  0  0  0  0  0  0  0  0  0  0  0
    2.1434   -5.2505    0.0000 H   0  0  0  0  0  0  0  0  0  0  0  0
    3.5724   -5.1175    0.0000 H   0  0  0  0  0  0  0  0  0  0  0  0
    4.4991   -5.6525    0.0000 H   0  0  0  0  0  0  0  0  0  0  0  0
    4.2868   -7.6700    0.0000 H   0  0  0  0  0  0  0  0  0  0  0  0
    5.2134   -7.1350    0.0000 H   0  0  0  0  0  0  0  0  0  0  0  0
    5.0013   -5.1175    0.0000 H   0  0  0  0  0  0  0  0  0  0  0  0
    5.9279   -5.6525    0.0000 H   0  0  0  0  0  0  0  0  0  0  0  0
    5.7158   -7.6700    0.0000 H   0  0  0  0  0  0  0  0  0  0  0  0
    6.6425   -7.1350    0.0000 H   0  0  0  0  0  0  0  0  0  0  0  0
    6.4302   -5.1175    0.0000 H   0  0  0  0  0  0  0  0  0  0  0  0
    7.3568   -5.6525    0.0000 H   0  0  0  0  0  0  0  0  0  0  0  0
    7.1447   -7.6700    0.0000 H   0  0  0  0  0  0  0  0  0  0  0  0
    8.0713   -7.1350    0.0000 H   0  0  0  0  0  0  0  0  0  0  0  0
    7.8592   -5.1175    0.0000 H   0  0  0  0  0  0  0  0  0  0  0  0
    8.7858   -5.6525    0.0000 H   0  0  0  0  0  0  0  0  0  0  0  0
    8.5737   -7.5845    0.0000 H   0  0  0  0  0  0  0  0  0  0  0  0
   10.7171   -5.1555    0.0000 H   0  0  0  0  0  0  0  0  0  0  0  0
   12.3252   -6.0840    0.0000 H   0  0  0  0  0  0  0  0  0  0  0  0
   12.3252   -7.9410    0.0000 H   0  0  0  0  0  0  0  0  0  0  0  0
   10.7171   -8.8695    0.0000 H   0  0  0  0  0  0  0  0  0  0  0  0
    8.4766   -7.3690    0.0000 H   0  0  0  0  0  0  0  0  0  0  0  0
  1  2  1  0  0  0  0
  1 21  1  0  0  0  0
  2  3  2  0  0  0  0
  2  4  1  0  0  0  0
  4  5  1  0  0  0  0
  4 22  1  0  0  0  0
  4 23  1  0  0  0  0
  5  6  1  0  0  0  0
  5 24  1  0  0  0  0
  5 25  1  0  0  0  0
  6  7  1  0  0  0  0
  6 26  1  0  0  0  0
  6 27  1  0  0  0  0
  7  8  1  0  0  0  0
  7 28  1  0  0  0  0
  7 29  1  0  0  0  0
  8  9  1  0  0  0  0
  8 30  1  0  0  0  0
  8 31  1  0  0  0  0
  9 10  1  0  0  0  0
  9 32  1  0  0  0  0
  9 33  1  0  0  0  0
 10 11  1  0  0  0  0
 10 34  1  0  0  0  0
 10 35  1  0  0  0  0
 11 12  1  0  0  0  0
 11 36  1  0  0  0  0
 12 13  2  0  0  0  0
 12 14  1  0  0  0  0
 14 15  2  0  0  0  0
 14 19  1  0  0  0  0
 15 16  1  0  0  0  0
 15 37  1  0  0  0  0
 16 17  2  0  0  0  0
 16 38  1  0  0  0  0
 17 18  1  0  0  0  0
 17 39  1  0  0  0  0
 18 19  2  0  0  0  0
 18 40  1  0  0  0  0
 19 20  1  0  0  0  0
 20 41  1  0  0  0  0
M  END
>  <DRUGBANK_ID>
DB18517

>  <COMMON_NAME>
Salcaprozic acid

>  <CAS_NUMBER>
183990-46-7

>  <UNII>
X88E147FCU

$$$$
