
 OpenBabel10282417072D

 33 35  0  0  1  0  0  0  0  0999 V2000
    0.0992   -1.0091    0.0000 C   0  0  0  0  0  0  0  0  0  0  0  0
    3.3523    1.1104    0.0000 C   0  0  0  0  0  0  0  0  0  0  0  0
    0.6538    1.5229    0.0000 C   0  0  0  0  0  0  0  0  0  0  0  0
    0.8838   -1.2640    0.0000 C   0  0  1  0  0  0  0  0  0  0  0  0
    1.9233    1.9354    0.0000 C   0  0  0  0  0  0  0  0  0  0  0  0
    1.3687   -0.5966    0.0000 C   0  0  2  0  0  0  0  0  0  0  0  0
    2.6378    2.3479    0.0000 C   0  0  0  0  0  0  0  0  0  0  0  0
    1.9233    1.1104    0.0000 C   0  0  0  0  0  0  0  0  0  0  0  0
    0.8838    0.0709    0.0000 C   0  0  2  0  0  0  0  0  0  0  0  0
    2.6378    3.1729    0.0000 N   0  0  0  0  0  0  0  0  0  0  0  0
    3.3523    1.9354    0.0000 N   0  0  0  0  0  0  0  0  0  0  0  0
    2.6378    0.6979    0.0000 N   0  0  0  0  0  0  0  0  0  0  0  0
    1.1387    2.1904    0.0000 N   0  0  0  0  0  0  0  0  0  0  0  0
    1.1387    0.8555    0.0000 N   0  0  0  0  0  0  0  0  0  0  0  0
    2.1937   -0.5966    0.0000 O   0  0  0  0  0  0  0  0  0  0  0  0
    2.7527   -2.3917    0.0000 O   0  0  0  0  0  0  0  0  0  0  0  0
    1.7742   -3.0271    0.0000 O   0  0  0  0  0  0  0  0  0  0  0  0
    2.1172   -1.4132    0.0000 O   0  0  0  0  0  0  0  0  0  0  0  0
    0.0992   -0.1841    0.0000 O   0  0  0  0  0  0  0  0  0  0  0  0
    1.1387   -2.0486    0.0000 O   0  0  0  0  0  0  0  0  0  0  0  0
    1.9457   -2.2201    0.0000 P   0  0  0  0  0  0  0  0  0  0  0  0
    0.3004   -1.8474    0.0000 H   0  0  0  0  0  0  0  0  0  0  0  0
    1.7432   -1.3316    0.0000 H   0  0  0  0  0  0  0  0  0  0  0  0
    1.6986    0.1999    0.0000 H   0  0  0  0  0  0  0  0  0  0  0  0
   -0.7664   -1.6380    0.0000 H   0  0  0  0  0  0  0  0  0  0  0  0
   -0.8542   -0.5233    0.0000 H   0  0  0  0  0  0  0  0  0  0  0  0
    4.2460    0.5944    0.0000 H   0  0  0  0  0  0  0  0  0  0  0  0
   -0.3782    1.5229    0.0000 H   0  0  0  0  0  0  0  0  0  0  0  0
    3.4904    3.6651    0.0000 H   0  0  0  0  0  0  0  0  0  0  0  0
    1.7852    3.6651    0.0000 H   0  0  0  0  0  0  0  0  0  0  0  0
    2.6787   -1.4366    0.0000 H   0  0  0  0  0  0  0  0  0  0  0  0
    3.0524   -3.3142    0.0000 H   0  0  0  0  0  0  0  0  0  0  0  0
    0.8517   -3.3269    0.0000 H   0  0  0  0  0  0  0  0  0  0  0  0
  1 25  1  0  0  0  0
  1 26  1  0  0  0  0
  2 27  1  0  0  0  0
  3 28  1  0  0  0  0
  4  1  1  0  0  0  0
  4 20  1  0  0  0  0
  4 22  1  6  0  0  0
  6  4  1  0  0  0  0
  6 15  1  0  0  0  0
  6 23  1  1  0  0  0
  7  5  2  0  0  0  0
  8  5  1  0  0  0  0
  9  6  1  0  0  0  0
  9 14  1  0  0  0  0
  9 24  1  6  0  0  0
 10  7  1  0  0  0  0
 10 29  1  0  0  0  0
 10 30  1  0  0  0  0
 11  2  2  0  0  0  0
 11  7  1  0  0  0  0
 12  2  1  0  0  0  0
 12  8  2  0  0  0  0
 13  3  2  0  0  0  0
 13  5  1  0  0  0  0
 14  3  1  0  0  0  0
 14  8  1  0  0  0  0
 15 31  1  0  0  0  0
 16 32  1  0  0  0  0
 17 33  1  0  0  0  0
 19  1  1  0  0  0  0
 19  9  1  0  0  0  0
 21 16  1  0  0  0  0
 21 17  1  0  0  0  0
 21 18  2  0  0  0  0
 21 20  1  0  0  0  0
M  END
>  <DRUGBANK_ID>
DB02454

>  <SECONDARY_ACCESSION_NUMBERS>
EXPT01386

>  <COMMON_NAME>
5-(6-Amino-9h-Purin-9-Yl)-4-Hydroxytetrahydrofuran-3-Yl Dihydrogen Phosphate

$$$$
