
 OpenBabel10282417072D

 68 71  0  0  1  0  0  0  0  0999 V2000
   12.1249   -7.6292    0.0000 C   0  0  1  0  0  0  0  0  0  0  0  0
   12.1249   -8.4368    0.0000 C   0  0  2  0  0  0  0  0  0  0  0  0
   10.6963   -8.4368    0.0000 C   0  0  1  0  0  0  0  0  0  0  0  0
   11.4261   -8.8327    0.0000 C   0  0  1  0  0  0  0  0  0  0  0  0
    9.9820   -8.8327    0.0000 C   0  0  1  0  0  0  0  0  0  0  0  0
   12.9091   -7.3730    0.0000 C   0  0  2  0  0  0  0  0  0  0  0  0
   11.4261   -7.2100    0.0000 C   0  0  0  0  0  0  0  0  0  0  0  0
   10.6963   -7.6292    0.0000 C   0  0  0  0  0  0  0  0  0  0  0  0
   12.9091   -8.6930    0.0000 C   0  0  0  0  0  0  0  0  0  0  0  0
   13.3750   -8.0408    0.0000 C   0  0  0  0  0  0  0  0  0  0  0  0
   11.4261   -9.6712    0.0000 C   0  0  1  0  0  0  0  0  0  0  0  0
    9.9820   -9.6712    0.0000 C   0  0  2  0  0  0  0  0  0  0  0  0
   10.6963  -10.0827    0.0000 C   0  0  0  0  0  0  0  0  0  0  0  0
   12.9091   -6.5268    0.0000 C   0  0  1  0  0  0  0  0  0  0  0  0
   12.1249   -6.7829    0.0000 C   0  0  0  0  0  0  0  0  0  0  0  0
    9.9820   -8.0252    0.0000 C   0  0  0  0  0  0  0  0  0  0  0  0
    9.2832   -8.4368    0.0000 C   0  0  0  0  0  0  0  0  0  0  0  0
   14.3454   -6.5034    0.0000 C   0  0  0  0  0  0  0  0  0  0  0  0
   13.6390   -6.0997    0.0000 C   0  0  0  0  0  0  0  0  0  0  0  0
    9.2832  -10.0827    0.0000 C   0  0  0  0  0  0  0  0  0  0  0  0
   12.1560   -5.8815    0.0000 C   0  0  0  0  0  0  0  0  0  0  0  0
   15.0520   -6.0764    0.0000 C   0  0  0  0  0  0  0  0  0  0  0  0
    8.5612   -8.8395    0.0000 C   0  0  0  0  0  0  0  0  0  0  0  0
    8.5612   -9.6644    0.0000 C   0  0  1  0  0  0  0  0  0  0  0  0
   12.1249   -9.2675    0.0000 H   0  0  0  0  0  0  0  0  0  0  0  0
   11.4339   -8.0175    0.0000 H   0  0  0  0  0  0  0  0  0  0  0  0
   10.6963   -9.2675    0.0000 H   0  0  0  0  0  0  0  0  0  0  0  0
   13.6312   -6.9693    0.0000 H   0  0  0  0  0  0  0  0  0  0  0  0
    9.9779  -10.3883    0.0000 H   0  0  0  0  0  0  0  0  0  0  0  0
   15.7802   -6.6071    0.0000 O   0  0  0  0  0  0  0  0  0  0  0  0
   15.1752   -5.3559    0.0000 O   0  0  0  0  0  0  0  0  0  0  0  0
    7.9818   -9.9500    0.0000 O   0  0  0  0  0  0  0  0  0  0  0  0
   11.9976   -9.8804    0.0000 O   0  0  0  0  0  0  0  0  0  0  0  0
   11.4362   -6.1400    0.0000 H   0  0  0  0  0  0  0  0  0  0  0  0
   10.5026   -6.6696    0.0000 H   0  0  0  0  0  0  0  0  0  0  0  0
    9.7702   -7.0932    0.0000 H   0  0  0  0  0  0  0  0  0  0  0  0
   10.6981   -6.5592    0.0000 H   0  0  0  0  0  0  0  0  0  0  0  0
   13.2430   -9.7096    0.0000 H   0  0  0  0  0  0  0  0  0  0  0  0
   13.9668   -8.8544    0.0000 H   0  0  0  0  0  0  0  0  0  0  0  0
   14.4450   -8.0468    0.0000 H   0  0  0  0  0  0  0  0  0  0  0  0
   13.8619   -8.9936    0.0000 H   0  0  0  0  0  0  0  0  0  0  0  0
   12.3032   -9.0583    0.0000 H   0  0  0  0  0  0  0  0  0  0  0  0
   10.6914  -11.1527    0.0000 H   0  0  0  0  0  0  0  0  0  0  0  0
    9.7687  -10.6160    0.0000 H   0  0  0  0  0  0  0  0  0  0  0  0
   11.9370   -6.9740    0.0000 H   0  0  0  0  0  0  0  0  0  0  0  0
   13.0515   -6.2479    0.0000 H   0  0  0  0  0  0  0  0  0  0  0  0
   11.1983   -6.2479    0.0000 H   0  0  0  0  0  0  0  0  0  0  0  0
   12.1249   -5.7129    0.0000 H   0  0  0  0  0  0  0  0  0  0  0  0
   10.9086   -7.4902    0.0000 H   0  0  0  0  0  0  0  0  0  0  0  0
    9.0554   -7.4902    0.0000 H   0  0  0  0  0  0  0  0  0  0  0  0
    9.9820   -6.9552    0.0000 H   0  0  0  0  0  0  0  0  0  0  0  0
    9.2868   -7.3668    0.0000 H   0  0  0  0  0  0  0  0  0  0  0  0
    8.3614   -7.8934    0.0000 H   0  0  0  0  0  0  0  0  0  0  0  0
   14.3584   -7.5733    0.0000 H   0  0  0  0  0  0  0  0  0  0  0  0
   15.2805   -7.0234    0.0000 H   0  0  0  0  0  0  0  0  0  0  0  0
   13.6335   -5.0297    0.0000 H   0  0  0  0  0  0  0  0  0  0  0  0
   14.5631   -5.5603    0.0000 H   0  0  0  0  0  0  0  0  0  0  0  0
    9.2870  -11.1527    0.0000 H   0  0  0  0  0  0  0  0  0  0  0  0
    8.3571  -10.6186    0.0000 H   0  0  0  0  0  0  0  0  0  0  0  0
   12.3527   -4.8297    0.0000 H   0  0  0  0  0  0  0  0  0  0  0  0
   11.1468   -6.2371    0.0000 H   0  0  0  0  0  0  0  0  0  0  0  0
   11.3435   -5.1853    0.0000 H   0  0  0  0  0  0  0  0  0  0  0  0
    7.6385   -8.2976    0.0000 H   0  0  0  0  0  0  0  0  0  0  0  0
    7.6326   -9.3711    0.0000 H   0  0  0  0  0  0  0  0  0  0  0  0
    8.5253  -10.7338    0.0000 H   0  0  0  0  0  0  0  0  0  0  0  0
   16.0540   -5.0309    0.0000 H   0  0  0  0  0  0  0  0  0  0  0  0
    7.1754   -9.4110    0.0000 H   0  0  0  0  0  0  0  0  0  0  0  0
   12.1643  -10.8360    0.0000 H   0  0  0  0  0  0  0  0  0  0  0  0
  1 15  1  1  0  0  0
  2  1  1  0  0  0  0
  2 25  1  6  0  0  0
  3 27  1  6  0  0  0
  4  2  1  0  0  0  0
  4  3  1  0  0  0  0
  4 26  1  1  0  0  0
  5  3  1  0  0  0  0
  5 16  1  1  0  0  0
  6  1  1  0  0  0  0
  6 28  1  6  0  0  0
  7  1  1  0  0  0  0
  7 34  1  0  0  0  0
  7 35  1  0  0  0  0
  8  3  1  0  0  0  0
  8  7  1  0  0  0  0
  8 36  1  0  0  0  0
  8 37  1  0  0  0  0
  9  2  1  0  0  0  0
  9 38  1  0  0  0  0
  9 39  1  0  0  0  0
 10  6  1  0  0  0  0
 10  9  1  0  0  0  0
 10 40  1  0  0  0  0
 10 41  1  0  0  0  0
 11  4  1  0  0  0  0
 11 33  1  0  0  0  0
 11 42  1  1  0  0  0
 12  5  1  0  0  0  0
 12 29  1  1  0  0  0
 13 11  1  0  0  0  0
 13 12  1  0  0  0  0
 13 43  1  0  0  0  0
 13 44  1  0  0  0  0
 14  6  1  0  0  0  0
 14 21  1  0  0  0  0
 14 45  1  1  0  0  0
 15 46  1  0  0  0  0
 15 47  1  0  0  0  0
 15 48  1  0  0  0  0
 16 49  1  0  0  0  0
 16 50  1  0  0  0  0
 16 51  1  0  0  0  0
 17  5  1  0  0  0  0
 17 52  1  0  0  0  0
 17 53  1  0  0  0  0
 18 54  1  0  0  0  0
 18 55  1  0  0  0  0
 19 14  1  0  0  0  0
 19 18  1  0  0  0  0
 19 56  1  0  0  0  0
 19 57  1  0  0  0  0
 20 12  1  0  0  0  0
 20 58  1  0  0  0  0
 20 59  1  0  0  0  0
 21 60  1  0  0  0  0
 21 61  1  0  0  0  0
 21 62  1  0  0  0  0
 22 18  1  0  0  0  0
 23 17  1  0  0  0  0
 23 63  1  0  0  0  0
 23 64  1  0  0  0  0
 24 20  1  0  0  0  0
 24 23  1  0  0  0  0
 24 32  1  0  0  0  0
 24 65  1  1  0  0  0
 30 22  2  0  0  0  0
 31 22  1  0  0  0  0
 31 66  1  0  0  0  0
 32 67  1  0  0  0  0
 33 68  1  0  0  0  0
M  END
>  <DRUGBANK_ID>
DB06777

>  <COMMON_NAME>
Chenodeoxycholic acid

>  <CAS_NUMBER>
474-25-9

>  <UNII>
0GEI24LG0J

>  <SYNONYMS>
3alpha,7alpha-Dihydroxy-5beta-cholanic acid; 7Î±-hydroxylithocholic acid; Acide chenodeoxycholique; Acido chenodeoxicholico; Acidum chenodeoxycholicum; Anthropodeoxycholic acid; Anthropodesoxycholic acid; CDCA; Chenic acid; Chenocholic acid; Chenodeoxycholate; Chenodeoxycholic acid; Chenodesoxycholic acid; Chenodiol; Gallodesoxycholic acid

$$$$
