E4H
 OpenBabel10282417072D

 49 49  0  0  0  0  0  0  0  0999 V2000
    0.3291   -0.0919    0.0000 C   0  0  0  0  0  0  0  0  0  0  0  0
    0.7416    0.6226    0.0000 C   0  0  1  0  0  0  0  0  0  0  0  0
    1.5666    0.6226    0.0000 C   0  0  0  0  0  0  0  0  0  0  0  0
    1.9791   -0.0919    0.0000 C   0  0  1  0  0  0  0  0  0  0  0  0
    2.8041   -0.0919    0.0000 C   0  0  0  0  0  0  0  0  0  0  0  0
    1.5666   -0.8063    0.0000 C   0  0  0  0  0  0  0  0  0  0  0  0
    1.9791   -1.5208    0.0000 O   0  0  0  0  0  0  0  0  0  0  0  0
    0.7416   -0.8063    0.0000 C   0  0  0  0  0  0  0  0  0  0  0  0
    0.3291   -1.5208    0.0000 C   0  0  0  0  0  0  0  0  0  0  0  0
   -0.4959   -1.5208    0.0000 C   0  0  1  0  0  0  0  0  0  0  0  0
   -0.9084   -2.2353    0.0000 C   0  0  0  0  0  0  0  0  0  0  0  0
   -0.9084   -0.8063    0.0000 C   0  0  1  0  0  0  0  0  0  0  0  0
   -1.7334   -0.8063    0.0000 C   0  0  0  0  0  0  0  0  0  0  0  0
   -2.1459   -0.0919    0.0000 C   0  0  0  0  0  0  0  0  0  0  0  0
   -0.4959   -0.0919    0.0000 O   0  0  0  0  0  0  0  0  0  0  0  0
   -0.9084    0.6226    0.0000 C   0  0  0  0  0  0  0  0  0  0  0  0
   -1.7334    0.6226    0.0000 O   0  0  0  0  0  0  0  0  0  0  0  0
   -0.4959    1.3371    0.0000 C   0  0  2  0  0  0  0  0  0  0  0  0
   -0.9084    2.0515    0.0000 C   0  0  0  0  0  0  0  0  0  0  0  0
    0.3291    1.3371    0.0000 C   0  0  1  0  0  0  0  0  0  0  0  0
    0.7416    2.0515    0.0000 O   0  0  0  0  0  0  0  0  0  0  0  0
    1.0336    0.1169    0.0000 H   0  0  0  0  0  0  0  0  0  0  0  0
    2.2711    0.4138    0.0000 H   0  0  0  0  0  0  0  0  0  0  0  0
   -0.2039   -2.0265    0.0000 H   0  0  0  0  0  0  0  0  0  0  0  0
   -1.2004   -1.3120    0.0000 H   0  0  0  0  0  0  0  0  0  0  0  0
   -1.0798    1.3371    0.0000 H   0  0  0  0  0  0  0  0  0  0  0  0
    0.9130    1.3371    0.0000 H   0  0  0  0  0  0  0  0  0  0  0  0
   -0.7409   -0.0919    0.0000 H   0  0  0  0  0  0  0  0  0  0  0  0
    0.8641   -1.0185    0.0000 H   0  0  0  0  0  0  0  0  0  0  0  0
   -0.2059   -1.0186    0.0000 H   0  0  0  0  0  0  0  0  0  0  0  0
    2.1016    1.5492    0.0000 H   0  0  0  0  0  0  0  0  0  0  0  0
    2.6366    0.6226    0.0000 H   0  0  0  0  0  0  0  0  0  0  0  0
    3.3391   -1.0185    0.0000 H   0  0  0  0  0  0  0  0  0  0  0  0
    3.3391    0.8347    0.0000 H   0  0  0  0  0  0  0  0  0  0  0  0
    3.8741   -0.0919    0.0000 H   0  0  0  0  0  0  0  0  0  0  0  0
    0.2256    0.0874    0.0000 H   0  0  0  0  0  0  0  0  0  0  0  0
    0.8451   -2.4145    0.0000 H   0  0  0  0  0  0  0  0  0  0  0  0
   -1.9784   -2.2353    0.0000 H   0  0  0  0  0  0  0  0  0  0  0  0
   -0.3734   -3.1619    0.0000 H   0  0  0  0  0  0  0  0  0  0  0  0
   -1.4434   -3.1620    0.0000 H   0  0  0  0  0  0  0  0  0  0  0  0
   -2.2684   -1.7330    0.0000 H   0  0  0  0  0  0  0  0  0  0  0  0
   -2.8034   -0.8063    0.0000 H   0  0  0  0  0  0  0  0  0  0  0  0
   -1.6109    0.8348    0.0000 H   0  0  0  0  0  0  0  0  0  0  0  0
   -3.2159   -0.0919    0.0000 H   0  0  0  0  0  0  0  0  0  0  0  0
   -2.6809    0.8347    0.0000 H   0  0  0  0  0  0  0  0  0  0  0  0
   -0.3734    2.9782    0.0000 H   0  0  0  0  0  0  0  0  0  0  0  0
   -1.9784    2.0515    0.0000 H   0  0  0  0  0  0  0  0  0  0  0  0
   -1.4434    2.9781    0.0000 H   0  0  0  0  0  0  0  0  0  0  0  0
    1.7116    2.0515    0.0000 H   0  0  0  0  0  0  0  0  0  0  0  0
  1 28  1  0  0  0  0
  1 29  1  0  0  0  0
  1 30  1  0  0  0  0
  2  1  1  0  0  0  0
  2  3  1  0  0  0  0
  2 20  1  0  0  0  0
  2 22  1  1  0  0  0
  3  4  1  0  0  0  0
  3 31  1  0  0  0  0
  3 32  1  0  0  0  0
  4  5  1  0  0  0  0
  4  6  1  0  0  0  0
  4 23  1  6  0  0  0
  5 33  1  0  0  0  0
  5 34  1  0  0  0  0
  5 35  1  0  0  0  0
  6  7  2  0  0  0  0
  6  8  1  0  0  0  0
  8  9  2  0  0  0  0
  8 36  1  0  0  0  0
  9 10  1  0  0  0  0
  9 37  1  0  0  0  0
 10 11  1  0  0  0  0
 10 12  1  0  0  0  0
 10 24  1  6  0  0  0
 11 38  1  0  0  0  0
 11 39  1  0  0  0  0
 11 40  1  0  0  0  0
 12 13  1  0  0  0  0
 12 15  1  0  0  0  0
 12 25  1  6  0  0  0
 13 14  1  0  0  0  0
 13 41  1  0  0  0  0
 13 42  1  0  0  0  0
 14 43  1  0  0  0  0
 14 44  1  0  0  0  0
 14 45  1  0  0  0  0
 15 16  1  0  0  0  0
 16 17  2  0  0  0  0
 16 18  1  0  0  0  0
 18 19  1  0  0  0  0
 18 20  1  0  0  0  0
 18 26  1  1  0  0  0
 19 46  1  0  0  0  0
 19 47  1  0  0  0  0
 19 48  1  0  0  0  0
 20 21  1  0  0  0  0
 20 27  1  6  0  0  0
 21 49  1  0  0  0  0
M  END
>  <DRUGBANK_ID>
DB07703

>  <COMMON_NAME>
(3R,4S,5S,7R,9E,11R,12R)-12-ETHYL-4-HYDROXY-3,5,7,11-TETRAMETHYLOXACYCLODODEC-9-ENE-2,8-DIONE

$$$$
