
 OpenBabel10282417072D

 62 67  0  0  1  0  0  0  0  0999 V2000
    0.6695    2.5989    0.0000 O   0  0  0  0  0  0  0  0  0  0  0  0
    2.2389    2.6709    0.0000 O   0  0  0  0  0  0  0  0  0  0  0  0
   -0.0071    0.7704    0.0000 O   0  0  0  0  0  0  0  0  0  0  0  0
    3.5997    1.9222    0.0000 O   0  0  0  0  0  0  0  0  0  0  0  0
    2.1886   -0.2519    0.0000 O   0  0  0  0  0  0  0  0  0  0  0  0
   -1.4399    0.7919    0.0000 O   0  0  0  0  0  0  0  0  0  0  0  0
   -0.0288   -0.8783    0.0000 O   0  0  0  0  0  0  0  0  0  0  0  0
    0.7630   -0.2448    0.0000 O   0  0  0  0  0  0  0  0  0  0  0  0
   -1.4615   -1.6847    0.0000 O   0  0  0  0  0  0  0  0  0  0  0  0
   -2.8797   -0.8423    0.0000 O   0  0  0  0  0  0  0  0  0  0  0  0
   -3.5997    0.3958    0.0000 O   0  0  0  0  0  0  0  0  0  0  0  0
    1.5046    1.4759    0.0000 C   0  0  1  0  0  0  0  0  0  0  0  0
    0.7343    1.1806    0.0000 C   0  0  2  0  0  0  0  0  0  0  0  0
    2.2893    1.2527    0.0000 C   0  0  2  0  0  0  0  0  0  0  0  0
    1.5046    2.3830    0.0000 C   0  0  2  0  0  0  0  0  0  0  0  0
    0.2159    1.8287    0.0000 C   0  0  2  0  0  0  0  0  0  0  0  0
    2.7502    1.9367    0.0000 C   0  0  1  0  0  0  0  0  0  0  0  0
    1.4687    0.8495    0.0000 C   0  0  0  0  0  0  0  0  0  0  0  0
    1.0654    2.1598    0.0000 C   0  0  0  0  0  0  0  0  0  0  0  0
    2.1958    0.5903    0.0000 C   0  0  0  0  0  0  0  0  0  0  0  0
   -0.6263    1.8287    0.0000 C   0  0  0  0  0  0  0  0  0  0  0  0
   -0.7271    0.3671    0.0000 C   0  0  2  0  0  0  0  0  0  0  0  0
   -0.7415   -0.4535    0.0000 C   0  0  1  0  0  0  0  0  0  0  0  0
    1.4759   -0.6551    0.0000 C   0  0  0  0  0  0  0  0  0  0  0  0
   -1.4542   -0.8639    0.0000 C   0  0  2  0  0  0  0  0  0  0  0  0
   -2.1526    0.3815    0.0000 C   0  0  1  0  0  0  0  0  0  0  0  0
   -2.1670   -0.4391    0.0000 C   0  0  1  0  0  0  0  0  0  0  0  0
    1.4687   -1.4830    0.0000 C   0  0  0  0  0  0  0  0  0  0  0  0
   -2.8654    0.7991    0.0000 C   0  0  0  0  0  0  0  0  0  0  0  0
    0.7558   -1.8935    0.0000 C   0  0  0  0  0  0  0  0  0  0  0  0
    2.1813   -1.8935    0.0000 C   0  0  0  0  0  0  0  0  0  0  0  0
    0.7126   -2.7141    0.0000 C   0  0  0  0  0  0  0  0  0  0  0  0
    2.1813   -2.7141    0.0000 C   0  0  0  0  0  0  0  0  0  0  0  0
    1.4687   -3.1245    0.0000 C   0  0  0  0  0  0  0  0  0  0  0  0
    2.9661    0.8927    0.0000 H   0  0  0  0  0  0  0  0  0  0  0  0
    1.4974    3.1245    0.0000 H   0  0  0  0  0  0  0  0  0  0  0  0
    4.0703    1.0740    0.0000 H   0  0  0  0  0  0  0  0  0  0  0  0
   -0.0423   -1.8482    0.0000 H   0  0  0  0  0  0  0  0  0  0  0  0
   -2.3058   -2.1622    0.0000 H   0  0  0  0  0  0  0  0  0  0  0  0
   -3.7155   -0.3500    0.0000 H   0  0  0  0  0  0  0  0  0  0  0  0
   -4.4292    0.8986    0.0000 H   0  0  0  0  0  0  0  0  0  0  0  0
    1.4864   -0.2204    0.0000 H   0  0  0  0  0  0  0  0  0  0  0  0
    2.3816    0.2914    0.0000 H   0  0  0  0  0  0  0  0  0  0  0  0
    0.9373    3.2221    0.0000 H   0  0  0  0  0  0  0  0  0  0  0  0
    1.8264    2.9120    0.0000 H   0  0  0  0  0  0  0  0  0  0  0  0
    3.2091    0.9341    0.0000 H   0  0  0  0  0  0  0  0  0  0  0  0
    2.5023    1.6155    0.0000 H   0  0  0  0  0  0  0  0  0  0  0  0
   -1.1613    2.7553    0.0000 H   0  0  0  0  0  0  0  0  0  0  0  0
   -1.1613    0.9021    0.0000 H   0  0  0  0  0  0  0  0  0  0  0  0
   -1.6963    1.8287    0.0000 H   0  0  0  0  0  0  0  0  0  0  0  0
   -0.7127    1.4370    0.0000 H   0  0  0  0  0  0  0  0  0  0  0  0
    0.1934    0.0669    0.0000 H   0  0  0  0  0  0  0  0  0  0  0  0
   -0.5302   -1.4035    0.0000 H   0  0  0  0  0  0  0  0  0  0  0  0
   -2.1486    1.4515    0.0000 H   0  0  0  0  0  0  0  0  0  0  0  0
   -2.1791   -1.5090    0.0000 H   0  0  0  0  0  0  0  0  0  0  0  0
   -2.8506    1.8690    0.0000 H   0  0  0  0  0  0  0  0  0  0  0  0
   -1.9334    1.3247    0.0000 H   0  0  0  0  0  0  0  0  0  0  0  0
   -0.1238   -1.3537    0.0000 H   0  0  0  0  0  0  0  0  0  0  0  0
    3.0748   -1.3771    0.0000 H   0  0  0  0  0  0  0  0  0  0  0  0
   -0.1878   -3.2183    0.0000 H   0  0  0  0  0  0  0  0  0  0  0  0
    3.0748   -3.2306    0.0000 H   0  0  0  0  0  0  0  0  0  0  0  0
    1.4817   -4.1564    0.0000 H   0  0  0  0  0  0  0  0  0  0  0  0
  1 15  1  0  0  0  0
  1 16  1  0  0  0  0
  2 15  1  0  0  0  0
  2 17  1  0  0  0  0
  4 37  1  0  0  0  0
  5 20  1  0  0  0  0
  5 24  1  0  0  0  0
  6 22  1  0  0  0  0
  6 26  1  0  0  0  0
  7 38  1  0  0  0  0
  8 24  2  0  0  0  0
  9 39  1  0  0  0  0
 10 40  1  0  0  0  0
 11 29  1  0  0  0  0
 11 41  1  0  0  0  0
 12 13  1  0  0  0  0
 12 14  1  0  0  0  0
 12 15  1  0  0  0  0
 12 20  1  1  0  0  0
 13  3  1  1  0  0  0
 13 16  1  0  0  0  0
 13 18  1  0  0  0  0
 14 17  1  0  0  0  0
 14 18  1  0  0  0  0
 14 35  1  1  0  0  0
 15 36  1  1  0  0  0
 16 19  1  0  0  0  0
 16 21  1  6  0  0  0
 17  4  1  6  0  0  0
 17 19  1  0  0  0  0
 18 42  1  0  0  0  0
 18 43  1  0  0  0  0
 19 44  1  0  0  0  0
 19 45  1  0  0  0  0
 20 46  1  0  0  0  0
 20 47  1  0  0  0  0
 21 48  1  0  0  0  0
 21 49  1  0  0  0  0
 21 50  1  0  0  0  0
 22  3  1  0  0  0  0
 22 23  1  0  0  0  0
 22 51  1  6  0  0  0
 23  7  1  0  0  0  0
 23 25  1  0  0  0  0
 23 52  1  1  0  0  0
 24 28  1  0  0  0  0
 25  9  1  0  0  0  0
 25 27  1  0  0  0  0
 25 53  1  6  0  0  0
 26 27  1  0  0  0  0
 26 29  1  0  0  0  0
 26 54  1  6  0  0  0
 27 10  1  0  0  0  0
 27 55  1  1  0  0  0
 28 30  2  0  0  0  0
 28 31  1  0  0  0  0
 29 56  1  0  0  0  0
 29 57  1  0  0  0  0
 30 32  1  0  0  0  0
 30 58  1  0  0  0  0
 31 33  2  0  0  0  0
 31 59  1  0  0  0  0
 32 34  2  0  0  0  0
 32 60  1  0  0  0  0
 33 34  1  0  0  0  0
 33 61  1  0  0  0  0
 34 62  1  0  0  0  0
M  END
>  <DRUGBANK_ID>
DB16288

>  <COMMON_NAME>
Peoniflorin

>  <CAS_NUMBER>
23180-57-6

>  <UNII>
21AIQ4EV64

>  <SYNONYMS>
Paeoniflorin

$$$$
