CLI
 OpenBabel10282417072D

 28 29  0  0  0  0  0  0  0  0999 V2000
   -2.2637   -2.0084    0.0000 O   0  0  0  0  0  0  0  0  0  0  0  0
   -1.4567   -1.8369    0.0000 C   0  0  0  0  0  0  0  0  0  0  0  0
   -0.9047   -2.4500    0.0000 O   0  0  0  0  0  0  0  0  0  0  0  0
   -1.2018   -1.0523    0.0000 C   0  0  0  0  0  0  0  0  0  0  0  0
   -0.3948   -0.8807    0.0000 C   0  0  0  0  0  0  0  0  0  0  0  0
   -0.1399   -0.0961    0.0000 C   0  0  0  0  0  0  0  0  0  0  0  0
    0.6447    0.1588    0.0000 C   0  0  0  0  0  0  0  0  0  0  0  0
   -0.6248    0.5713    0.0000 C   0  0  0  0  0  0  0  0  0  0  0  0
   -1.4498    0.5713    0.0000 C   0  0  0  0  0  0  0  0  0  0  0  0
   -1.8623    1.2858    0.0000 O   0  0  0  0  0  0  0  0  0  0  0  0
   -1.8623   -0.1431    0.0000 O   0  0  0  0  0  0  0  0  0  0  0  0
   -0.1399    1.2388    0.0000 N   0  0  0  0  0  0  0  0  0  0  0  0
    0.6447    0.9838    0.0000 C   0  0  0  0  0  0  0  0  0  0  0  0
    1.3592    1.3963    0.0000 C   0  0  0  0  0  0  0  0  0  0  0  0
    2.0737    0.9838    0.0000 C   0  0  0  0  0  0  0  0  0  0  0  0
    2.7881    1.3963    0.0000 Cl  0  0  0  0  0  0  0  0  0  0  0  0
    2.0737    0.1588    0.0000 C   0  0  0  0  0  0  0  0  0  0  0  0
    1.3592   -0.2537    0.0000 C   0  0  0  0  0  0  0  0  0  0  0  0
    1.3592   -1.0787    0.0000 Cl  0  0  0  0  0  0  0  0  0  0  0  0
   -2.8906   -1.3120    0.0000 H   0  0  0  0  0  0  0  0  0  0  0  0
   -1.9178   -0.2572    0.0000 H   0  0  0  0  0  0  0  0  0  0  0  0
   -0.8712   -0.0346    0.0000 H   0  0  0  0  0  0  0  0  0  0  0  0
    0.3212   -1.6758    0.0000 H   0  0  0  0  0  0  0  0  0  0  0  0
    0.6518   -0.6582    0.0000 H   0  0  0  0  0  0  0  0  0  0  0  0
   -1.3938    2.0973    0.0000 H   0  0  0  0  0  0  0  0  0  0  0  0
   -0.4441    2.1751    0.0000 H   0  0  0  0  0  0  0  0  0  0  0  0
    1.3592    2.4283    0.0000 H   0  0  0  0  0  0  0  0  0  0  0  0
    2.9674   -0.3572    0.0000 H   0  0  0  0  0  0  0  0  0  0  0  0
  1  2  1  0  0  0  0
  1 20  1  0  0  0  0
  2  3  2  0  0  0  0
  2  4  1  0  0  0  0
  4  5  1  0  0  0  0
  4 21  1  0  0  0  0
  4 22  1  0  0  0  0
  5  6  1  0  0  0  0
  5 23  1  0  0  0  0
  5 24  1  0  0  0  0
  6  7  1  0  0  0  0
  6  8  2  0  0  0  0
  7 13  2  0  0  0  0
  7 18  1  0  0  0  0
  8  9  1  0  0  0  0
  8 12  1  0  0  0  0
  9 10  1  0  0  0  0
  9 11  2  0  0  0  0
 10 25  1  0  0  0  0
 12 13  1  0  0  0  0
 12 26  1  0  0  0  0
 13 14  1  0  0  0  0
 14 15  2  0  0  0  0
 14 27  1  0  0  0  0
 15 16  1  0  0  0  0
 15 17  1  0  0  0  0
 17 18  2  0  0  0  0
 17 28  1  0  0  0  0
 18 19  1  0  0  0  0
M  END
>  <DRUGBANK_ID>
DB04175

>  <SECONDARY_ACCESSION_NUMBERS>
EXPT00939

>  <COMMON_NAME>
Mdl-29951

>  <CAS_NUMBER>
101861-63-6

$$$$
