
 OpenBabel10282417072D

 57 60  0  0  0  0  0  0  0  0999 V2000
   -3.1601   -0.8877    0.0000 N   0  0  0  0  0  0  0  0  0  0  0  0
    1.1266   -0.8877    0.0000 N   0  0  0  0  0  0  0  0  0  0  0  0
   -2.4457   -1.3001    0.0000 C   0  0  0  0  0  0  0  0  0  0  0  0
    0.4121   -1.3001    0.0000 C   0  0  0  0  0  0  0  0  0  0  0  0
   -3.8746   -1.3001    0.0000 C   0  0  0  0  0  0  0  0  0  0  0  0
   -1.7312   -0.8877    0.0000 N   0  0  0  0  0  0  0  0  0  0  0  0
    1.8411   -1.3001    0.0000 C   0  0  0  0  0  0  0  0  0  0  0  0
   -3.1601   -2.5376    0.0000 O   0  0  0  0  0  0  0  0  0  0  0  0
   -3.8746   -2.1252    0.0000 C   0  0  0  0  0  0  0  0  0  0  0  0
   -0.3022   -0.8877    0.0000 N   0  0  0  0  0  0  0  0  0  0  0  0
    0.4121   -2.1252    0.0000 C   0  0  0  0  0  0  0  0  0  0  0  0
    2.5555    1.5873    0.0000 C   0  0  0  0  0  0  0  0  0  0  0  0
   -2.4457   -2.1252    0.0000 C   0  0  0  0  0  0  0  0  0  0  0  0
   -1.0167   -1.3001    0.0000 C   0  0  0  0  0  0  0  0  0  0  0  0
    3.2700    1.1748    0.0000 C   0  0  0  0  0  0  0  0  0  0  0  0
    1.8411    1.1748    0.0000 C   0  0  0  0  0  0  0  0  0  0  0  0
    1.8411   -2.1252    0.0000 N   0  0  0  0  0  0  0  0  0  0  0  0
    2.5555   -0.0626    0.0000 C   0  0  0  0  0  0  0  0  0  0  0  0
    3.2700    0.3498    0.0000 C   0  0  0  0  0  0  0  0  0  0  0  0
    1.8411    0.3498    0.0000 C   0  0  0  0  0  0  0  0  0  0  0  0
    2.5555   -0.8877    0.0000 N   0  0  0  0  0  0  0  0  0  0  0  0
    1.1266   -2.5376    0.0000 C   0  0  0  0  0  0  0  0  0  0  0  0
   -4.5891   -0.8877    0.0000 O   0  0  0  0  0  0  0  0  0  0  0  0
   -1.7312   -2.5376    0.0000 C   0  0  0  0  0  0  0  0  0  0  0  0
   -0.3022   -2.5376    0.0000 F   0  0  0  0  0  0  0  0  0  0  0  0
   -1.0167   -2.1252    0.0000 C   0  0  0  0  0  0  0  0  0  0  0  0
    2.5555    2.4123    0.0000 O   0  0  0  0  0  0  0  0  0  0  0  0
    1.1266    1.5873    0.0000 O   0  0  0  0  0  0  0  0  0  0  0  0
    3.9845    1.5873    0.0000 O   0  0  0  0  0  0  0  0  0  0  0  0
   -4.6991   -2.1540    0.0000 C   0  0  0  0  0  0  0  0  0  0  0  0
   -4.3118   -2.8247    0.0000 C   0  0  0  0  0  0  0  0  0  0  0  0
    1.8411    2.8247    0.0000 C   0  0  0  0  0  0  0  0  0  0  0  0
    0.4121    1.1748    0.0000 C   0  0  0  0  0  0  0  0  0  0  0  0
    4.6990    1.1748    0.0000 C   0  0  0  0  0  0  0  0  0  0  0  0
   -3.1601    0.0968    0.0000 H   0  0  0  0  0  0  0  0  0  0  0  0
   -0.3021    0.0968    0.0000 H   0  0  0  0  0  0  0  0  0  0  0  0
    4.1637   -0.1663    0.0000 H   0  0  0  0  0  0  0  0  0  0  0  0
    0.9474   -0.1662    0.0000 H   0  0  0  0  0  0  0  0  0  0  0  0
    3.4081   -1.3800    0.0000 H   0  0  0  0  0  0  0  0  0  0  0  0
    1.1266   -3.5696    0.0000 H   0  0  0  0  0  0  0  0  0  0  0  0
   -1.7312   -3.5696    0.0000 H   0  0  0  0  0  0  0  0  0  0  0  0
   -0.1230   -2.6413    0.0000 H   0  0  0  0  0  0  0  0  0  0  0  0
   -5.2661   -1.2466    0.0000 H   0  0  0  0  0  0  0  0  0  0  0  0
   -5.2014   -3.0988    0.0000 H   0  0  0  0  0  0  0  0  0  0  0  0
   -5.7684   -2.1914    0.0000 H   0  0  0  0  0  0  0  0  0  0  0  0
   -5.3811   -2.7872    0.0000 H   0  0  0  0  0  0  0  0  0  0  0  0
   -3.8096   -3.7695    0.0000 H   0  0  0  0  0  0  0  0  0  0  0  0
   -4.8789   -3.7321    0.0000 H   0  0  0  0  0  0  0  0  0  0  0  0
    1.8410    3.8947    0.0000 H   0  0  0  0  0  0  0  0  0  0  0  0
    0.9145    2.2896    0.0000 H   0  0  0  0  0  0  0  0  0  0  0  0
    0.9144    3.3596    0.0000 H   0  0  0  0  0  0  0  0  0  0  0  0
   -0.5145    1.7098    0.0000 H   0  0  0  0  0  0  0  0  0  0  0  0
    0.4121    0.1048    0.0000 H   0  0  0  0  0  0  0  0  0  0  0  0
   -0.5146    0.6398    0.0000 H   0  0  0  0  0  0  0  0  0  0  0  0
    4.6990    0.1048    0.0000 H   0  0  0  0  0  0  0  0  0  0  0  0
    5.6256    1.7098    0.0000 H   0  0  0  0  0  0  0  0  0  0  0  0
    5.6257    0.6398    0.0000 H   0  0  0  0  0  0  0  0  0  0  0  0
  1 35  1  0  0  0  0
  3  1  1  0  0  0  0
  3  6  2  0  0  0  0
  4  2  2  0  0  0  0
  4 10  1  0  0  0  0
  5  1  1  0  0  0  0
  5  9  1  0  0  0  0
  5 23  2  0  0  0  0
  7  2  1  0  0  0  0
  7 17  2  0  0  0  0
  7 21  1  0  0  0  0
  9  8  1  0  0  0  0
 10 36  1  0  0  0  0
 11  4  1  0  0  0  0
 11 22  2  0  0  0  0
 11 25  1  0  0  0  0
 12 15  2  0  0  0  0
 12 16  1  0  0  0  0
 12 27  1  0  0  0  0
 13  3  1  0  0  0  0
 13  8  1  0  0  0  0
 13 24  2  0  0  0  0
 14  6  1  0  0  0  0
 14 10  1  0  0  0  0
 14 26  2  0  0  0  0
 15 19  1  0  0  0  0
 15 29  1  0  0  0  0
 16 20  2  0  0  0  0
 16 28  1  0  0  0  0
 18 19  2  0  0  0  0
 18 20  1  0  0  0  0
 18 21  1  0  0  0  0
 19 37  1  0  0  0  0
 20 38  1  0  0  0  0
 21 39  1  0  0  0  0
 22 17  1  0  0  0  0
 22 40  1  0  0  0  0
 24 26  1  0  0  0  0
 24 41  1  0  0  0  0
 26 42  1  0  0  0  0
 30  9  1  0  0  0  0
 30 43  1  0  0  0  0
 30 44  1  0  0  0  0
 30 45  1  0  0  0  0
 31  9  1  0  0  0  0
 31 46  1  0  0  0  0
 31 47  1  0  0  0  0
 31 48  1  0  0  0  0
 32 27  1  0  0  0  0
 32 49  1  0  0  0  0
 32 50  1  0  0  0  0
 32 51  1  0  0  0  0
 33 28  1  0  0  0  0
 33 52  1  0  0  0  0
 33 53  1  0  0  0  0
 33 54  1  0  0  0  0
 34 29  1  0  0  0  0
 34 55  1  0  0  0  0
 34 56  1  0  0  0  0
 34 57  1  0  0  0  0
M  END
>  <DRUGBANK_ID>
DB07159

>  <SECONDARY_ACCESSION_NUMBERS>
DB06646

>  <COMMON_NAME>
Tamatinib

>  <CAS_NUMBER>
841290-80-0

>  <UNII>
RC3A285J2G

>  <SYNONYMS>
6-({5-fluoro-2-[(3,4,5-trimethoxyphenyl)amino]pyrimidin-4-yl}amino)-2,2-dimethyl-2H-pyrido[3,2-b][1,4]oxazin-3(4H)-one

$$$$
