
 OpenBabel10282417072D

 20 20  0  0  0  0  0  0  0  0999 V2000
   -0.0616    0.2897    0.0000 C   0  0  0  0  0  0  0  0  0  0  0  0
    0.6529   -0.1227    0.0000 C   0  0  1  0  0  0  0  0  0  0  0  0
    1.3673    0.2897    0.0000 C   0  0  0  0  0  0  0  0  0  0  0  0
    2.0820   -0.1227    0.0000 O   0  0  0  0  0  0  0  0  0  0  0  0
    1.3673    1.1148    0.0000 O   0  0  0  0  0  0  0  0  0  0  0  0
    0.6529   -0.9478    0.0000 N   0  0  0  0  0  0  0  0  0  0  0  0
   -0.7761   -0.1227    0.0000 C   0  0  0  0  0  0  0  0  0  0  0  0
   -0.8623   -0.9432    0.0000 C   0  0  0  0  0  0  0  0  0  0  0  0
   -1.6694   -1.1148    0.0000 C   0  0  0  0  0  0  0  0  0  0  0  0
   -2.0820   -0.4002    0.0000 C   0  0  0  0  0  0  0  0  0  0  0  0
   -1.5299    0.2128    0.0000 S   0  0  0  0  0  0  0  0  0  0  0  0
   -0.0616    1.3597    0.0000 H   0  0  0  0  0  0  0  0  0  0  0  0
   -0.9882    0.8248    0.0000 H   0  0  0  0  0  0  0  0  0  0  0  0
   -0.2737   -0.6578    0.0000 H   0  0  0  0  0  0  0  0  0  0  0  0
    2.0822   -1.0597    0.0000 H   0  0  0  0  0  0  0  0  0  0  0  0
   -0.2304   -1.4578    0.0000 H   0  0  0  0  0  0  0  0  0  0  0  0
    1.5362   -1.4578    0.0000 H   0  0  0  0  0  0  0  0  0  0  0  0
   -0.0953   -1.6337    0.0000 H   0  0  0  0  0  0  0  0  0  0  0  0
   -2.0891   -2.0576    0.0000 H   0  0  0  0  0  0  0  0  0  0  0  0
   -3.1083   -0.2923    0.0000 H   0  0  0  0  0  0  0  0  0  0  0  0
  1  2  1  0  0  0  0
  1  7  1  0  0  0  0
  1 12  1  0  0  0  0
  1 13  1  0  0  0  0
  2  3  1  0  0  0  0
  2  6  1  0  0  0  0
  2 14  1  6  0  0  0
  3  4  1  0  0  0  0
  3  5  2  0  0  0  0
  4 15  1  0  0  0  0
  6 16  1  0  0  0  0
  6 17  1  0  0  0  0
  7  8  2  0  0  0  0
  7 11  1  0  0  0  0
  8  9  1  0  0  0  0
  8 18  1  0  0  0  0
  9 10  2  0  0  0  0
  9 19  1  0  0  0  0
 10 20  1  0  0  0  0
 11 10  1  0  0  0  0
M  END
>  <DRUGBANK_ID>
DB03673

>  <SECONDARY_ACCESSION_NUMBERS>
EXPT03063

>  <COMMON_NAME>
beta-2-Thienyl-L-alanine

>  <CAS_NUMBER>
22951-96-8

>  <UNII>
2EMW41BM77

>  <SYNONYMS>
beta-(2-Thienyl)-L-alanine; L-3-(2-thienyl)alanine

$$$$
