
 OpenBabel10282417072D

123127  0  0  1  0  0  0  0  0999 V2000
    8.2820    5.4138    0.0000 C   0  0  0  0  0  0  0  0  0  0  0  0
    2.0945    4.6993    0.0000 C   0  0  0  0  0  0  0  0  0  0  0  0
   -3.8988    5.4701    0.0000 C   0  0  0  0  0  0  0  0  0  0  0  0
    5.3945    1.8414    0.0000 C   0  0  0  0  0  0  0  0  0  0  0  0
    2.9195    1.8414    0.0000 C   0  0  0  0  0  0  0  0  0  0  0  0
    0.4445    0.4125    0.0000 C   0  0  0  0  0  0  0  0  0  0  0  0
    2.9195    4.6993    0.0000 C   0  0  0  0  0  0  0  0  0  0  0  0
    4.1570    2.5559    0.0000 C   0  0  0  0  0  0  0  0  0  0  0  0
   -3.6813    5.0240    0.0000 C   0  0  0  0  0  0  0  0  0  0  0  0
   -0.4574    4.4137    0.0000 C   0  0  0  0  0  0  0  0  0  0  0  0
    7.8695    4.6993    0.0000 C   0  0  0  0  0  0  0  0  0  0  0  0
    1.6820    3.9849    0.0000 C   0  0  0  0  0  0  0  0  0  0  0  0
   -3.3258    6.0635    0.0000 C   0  0  0  0  0  0  0  0  0  0  0  0
    6.6320    2.5559    0.0000 C   0  0  0  0  0  0  0  0  0  0  0  0
    7.0445    3.2704    0.0000 C   0  0  0  0  0  0  0  0  0  0  0  0
   -0.7930    1.1270    0.0000 C   0  0  0  0  0  0  0  0  0  0  0  0
   -1.2199    5.2827    0.0000 C   0  0  0  0  0  0  0  0  0  0  0  0
   -1.7048    5.9502    0.0000 C   0  0  0  0  0  0  0  0  0  0  0  0
    0.0320    1.1270    0.0000 C   0  0  0  0  0  0  0  0  0  0  0  0
   -1.7850    3.4491    0.0000 C   0  0  0  0  0  0  0  0  0  0  0  0
   -1.6134    2.6421    0.0000 C   0  0  0  0  0  0  0  0  0  0  0  0
    1.6820    1.1270    0.0000 C   0  0  0  0  0  0  0  0  0  0  0  0
    5.8070    2.5559    0.0000 C   0  0  1  0  0  0  0  0  0  0  0  0
    2.0945    1.8414    0.0000 C   0  0  1  0  0  0  0  0  0  0  0  0
    0.8570    1.1270    0.0000 C   0  0  2  0  0  0  0  0  0  0  0  0
    3.3320    3.9849    0.0000 C   0  0  1  0  0  0  0  0  0  0  0  0
    4.5695    3.2704    0.0000 C   0  0  1  0  0  0  0  0  0  0  0  0
   -2.8608    5.1103    0.0000 C   0  0  1  0  0  0  0  0  0  0  0  0
    7.0445    4.6993    0.0000 C   0  0  2  0  0  0  0  0  0  0  0  0
    2.0945    3.2704    0.0000 C   0  0  1  0  0  0  0  0  0  0  0  0
    6.6320    3.9849    0.0000 C   0  0  2  0  0  0  0  0  0  0  0  0
   -1.2055    1.8414    0.0000 C   0  0  2  0  0  0  0  0  0  0  0  0
   -1.5554    4.5291    0.0000 C   0  0  2  0  0  0  0  0  0  0  0  0
    4.1570    3.9849    0.0000 C   0  0  2  0  0  0  0  0  0  0  0  0
    2.9195    3.2704    0.0000 C   0  0  0  0  0  0  0  0  0  0  0  0
    5.3945    3.2704    0.0000 C   0  0  2  0  0  0  0  0  0  0  0  0
    1.6820    2.5559    0.0000 C   0  0  1  0  0  0  0  0  0  0  0  0
    6.6320    5.4138    0.0000 C   0  0  0  0  0  0  0  0  0  0  0  0
   -1.0705    3.8616    0.0000 C   0  0  2  0  0  0  0  0  0  0  0  0
   -2.5253    5.8639    0.0000 C   0  0  1  0  0  0  0  0  0  0  0  0
    0.4445    1.8414    0.0000 C   0  0  2  0  0  0  0  0  0  0  0  0
   -0.7930    2.5559    0.0000 C   0  0  2  0  0  0  0  0  0  0  0  0
   -2.0305    1.8414    0.0000 O   0  0  0  0  0  0  0  0  0  0  0  0
    4.5695    4.6993    0.0000 O   0  0  0  0  0  0  0  0  0  0  0  0
    3.3320    2.5559    0.0000 O   0  0  0  0  0  0  0  0  0  0  0  0
    5.8070    5.4138    0.0000 O   0  0  0  0  0  0  0  0  0  0  0  0
    7.0445    6.1283    0.0000 O   0  0  0  0  0  0  0  0  0  0  0  0
   -2.4677    6.6869    0.0000 O   0  0  0  0  0  0  0  0  0  0  0  0
   -2.3759    4.4428    0.0000 O   0  0  0  0  0  0  0  0  0  0  0  0
    5.8070    3.9849    0.0000 O   0  0  0  0  0  0  0  0  0  0  0  0
    0.8570    2.5559    0.0000 O   0  0  0  0  0  0  0  0  0  0  0  0
   -0.4574    3.3096    0.0000 O   0  0  0  0  0  0  0  0  0  0  0  0
    0.0320    2.5559    0.0000 O   0  0  0  0  0  0  0  0  0  0  0  0
    4.9820    2.5559    0.0000 H   0  0  0  0  0  0  0  0  0  0  0  0
    2.5070    2.5559    0.0000 H   0  0  0  0  0  0  0  0  0  0  0  0
    1.2695    0.4125    0.0000 H   0  0  0  0  0  0  0  0  0  0  0  0
    3.7445    4.6993    0.0000 H   0  0  0  0  0  0  0  0  0  0  0  0
    3.7445    3.2704    0.0000 H   0  0  0  0  0  0  0  0  0  0  0  0
   -3.3457    5.7777    0.0000 H   0  0  0  0  0  0  0  0  0  0  0  0
    7.4570    3.9849    0.0000 H   0  0  0  0  0  0  0  0  0  0  0  0
    2.5070    3.9849    0.0000 H   0  0  0  0  0  0  0  0  0  0  0  0
    6.2195    3.2704    0.0000 H   0  0  0  0  0  0  0  0  0  0  0  0
   -0.3805    1.8414    0.0000 H   0  0  0  0  0  0  0  0  0  0  0  0
   -1.8910    3.7754    0.0000 H   0  0  0  0  0  0  0  0  0  0  0  0
    4.9820    3.9849    0.0000 H   0  0  0  0  0  0  0  0  0  0  0  0
    5.3945    4.0954    0.0000 H   0  0  0  0  0  0  0  0  0  0  0  0
    1.2695    1.8414    0.0000 H   0  0  0  0  0  0  0  0  0  0  0  0
    9.3520    5.4138    0.0000 H   0  0  0  0  0  0  0  0  0  0  0  0
    7.7470    6.3404    0.0000 H   0  0  0  0  0  0  0  0  0  0  0  0
    8.8170    6.3405    0.0000 H   0  0  0  0  0  0  0  0  0  0  0  0
    3.1645    4.6993    0.0000 H   0  0  0  0  0  0  0  0  0  0  0  0
    1.5595    5.6260    0.0000 H   0  0  0  0  0  0  0  0  0  0  0  0
    2.6295    5.6259    0.0000 H   0  0  0  0  0  0  0  0  0  0  0  0
   -4.9370    5.7289    0.0000 H   0  0  0  0  0  0  0  0  0  0  0  0
   -3.6038    4.4416    0.0000 H   0  0  0  0  0  0  0  0  0  0  0  0
   -4.6421    4.7004    0.0000 H   0  0  0  0  0  0  0  0  0  0  0  0
    4.3245    1.8414    0.0000 H   0  0  0  0  0  0  0  0  0  0  0  0
    5.9295    0.9148    0.0000 H   0  0  0  0  0  0  0  0  0  0  0  0
    4.8595    0.9147    0.0000 H   0  0  0  0  0  0  0  0  0  0  0  0
    3.4545    0.9148    0.0000 H   0  0  0  0  0  0  0  0  0  0  0  0
    3.4545    2.7680    0.0000 H   0  0  0  0  0  0  0  0  0  0  0  0
    3.9895    1.8414    0.0000 H   0  0  0  0  0  0  0  0  0  0  0  0
   -0.6255    0.4125    0.0000 H   0  0  0  0  0  0  0  0  0  0  0  0
    0.9795   -0.5141    0.0000 H   0  0  0  0  0  0  0  0  0  0  0  0
   -0.0905   -0.5142    0.0000 H   0  0  0  0  0  0  0  0  0  0  0  0
    3.4545    5.6260    0.0000 H   0  0  0  0  0  0  0  0  0  0  0  0
    1.8495    4.6993    0.0000 H   0  0  0  0  0  0  0  0  0  0  0  0
    2.3845    5.6259    0.0000 H   0  0  0  0  0  0  0  0  0  0  0  0
    3.0870    2.5559    0.0000 H   0  0  0  0  0  0  0  0  0  0  0  0
    4.6920    1.6293    0.0000 H   0  0  0  0  0  0  0  0  0  0  0  0
    3.6220    1.6292    0.0000 H   0  0  0  0  0  0  0  0  0  0  0  0
   -4.3103    5.8896    0.0000 H   0  0  0  0  0  0  0  0  0  0  0  0
   -4.1164    4.0465    0.0000 H   0  0  0  0  0  0  0  0  0  0  0  0
   -4.7454    4.9121    0.0000 H   0  0  0  0  0  0  0  0  0  0  0  0
    0.5602    4.0831    0.0000 H   0  0  0  0  0  0  0  0  0  0  0  0
   -0.6799    5.4603    0.0000 H   0  0  0  0  0  0  0  0  0  0  0  0
    0.3377    5.1297    0.0000 H   0  0  0  0  0  0  0  0  0  0  0  0
    8.4045    3.7727    0.0000 H   0  0  0  0  0  0  0  0  0  0  0  0
    7.3345    3.7727    0.0000 H   0  0  0  0  0  0  0  0  0  0  0  0
    0.6120    3.9849    0.0000 H   0  0  0  0  0  0  0  0  0  0  0  0
    1.1470    3.0583    0.0000 H   0  0  0  0  0  0  0  0  0  0  0  0
   -3.6207    7.0920    0.0000 H   0  0  0  0  0  0  0  0  0  0  0  0
   -2.5825    6.8332    0.0000 H   0  0  0  0  0  0  0  0  0  0  0  0
    7.1670    1.6293    0.0000 H   0  0  0  0  0  0  0  0  0  0  0  0
    6.0970    1.6293    0.0000 H   0  0  0  0  0  0  0  0  0  0  0  0
    8.1145    3.2704    0.0000 H   0  0  0  0  0  0  0  0  0  0  0  0
    7.5795    4.1970    0.0000 H   0  0  0  0  0  0  0  0  0  0  0  0
   -1.3090    0.2333    0.0000 H   0  0  0  0  0  0  0  0  0  0  0  0
   -0.1558    5.3945    0.0000 H   0  0  0  0  0  0  0  0  0  0  0  0
   -0.5910    4.4171    0.0000 H   0  0  0  0  0  0  0  0  0  0  0  0
   -1.2696    6.9277    0.0000 H   0  0  0  0  0  0  0  0  0  0  0  0
   -2.3338    6.8158    0.0000 H   0  0  0  0  0  0  0  0  0  0  0  0
    0.5480    0.2333    0.0000 H   0  0  0  0  0  0  0  0  0  0  0  0
   -2.7625    3.8843    0.0000 H   0  0  0  0  0  0  0  0  0  0  0  0
   -1.8410    4.5176    0.0000 H   0  0  0  0  0  0  0  0  0  0  0  0
   -2.3293    1.8469    0.0000 H   0  0  0  0  0  0  0  0  0  0  0  0
   -1.2299    1.6432    0.0000 H   0  0  0  0  0  0  0  0  0  0  0  0
    2.2170    0.2003    0.0000 H   0  0  0  0  0  0  0  0  0  0  0  0
    1.1470    0.2004    0.0000 H   0  0  0  0  0  0  0  0  0  0  0  0
   -2.5155    2.6814    0.0000 H   0  0  0  0  0  0  0  0  0  0  0  0
    5.5395    4.6993    0.0000 H   0  0  0  0  0  0  0  0  0  0  0  0
    7.9815    6.1283    0.0000 H   0  0  0  0  0  0  0  0  0  0  0  0
   -1.5958    7.1121    0.0000 H   0  0  0  0  0  0  0  0  0  0  0  0
  1 68  1  0  0  0  0
  1 69  1  0  0  0  0
  1 70  1  0  0  0  0
  2 71  1  0  0  0  0
  2 72  1  0  0  0  0
  2 73  1  0  0  0  0
  3 74  1  0  0  0  0
  3 75  1  0  0  0  0
  3 76  1  0  0  0  0
  4 77  1  0  0  0  0
  4 78  1  0  0  0  0
  4 79  1  0  0  0  0
  5 80  1  0  0  0  0
  5 81  1  0  0  0  0
  5 82  1  0  0  0  0
  6 83  1  0  0  0  0
  6 84  1  0  0  0  0
  6 85  1  0  0  0  0
  7 86  1  0  0  0  0
  7 87  1  0  0  0  0
  7 88  1  0  0  0  0
  8 89  1  0  0  0  0
  8 90  1  0  0  0  0
  8 91  1  0  0  0  0
  9 92  1  0  0  0  0
  9 93  1  0  0  0  0
  9 94  1  0  0  0  0
 10 95  1  0  0  0  0
 10 96  1  0  0  0  0
 10 97  1  0  0  0  0
 11  1  1  0  0  0  0
 11 98  1  0  0  0  0
 11 99  1  0  0  0  0
 12  2  1  0  0  0  0
 12100  1  0  0  0  0
 12101  1  0  0  0  0
 13  3  1  0  0  0  0
 13102  1  0  0  0  0
 13103  1  0  0  0  0
 14104  1  0  0  0  0
 14105  1  0  0  0  0
 15 14  1  0  0  0  0
 15106  1  0  0  0  0
 15107  1  0  0  0  0
 16108  1  0  0  0  0
 17109  1  0  0  0  0
 17110  1  0  0  0  0
 18 17  1  0  0  0  0
 18111  1  0  0  0  0
 18112  1  0  0  0  0
 19 16  2  0  0  0  0
 19113  1  0  0  0  0
 20114  1  0  0  0  0
 20115  1  0  0  0  0
 21 20  1  0  0  0  0
 21116  1  0  0  0  0
 21117  1  0  0  0  0
 22118  1  0  0  0  0
 22119  1  0  0  0  0
 23  4  1  0  0  0  0
 23 14  1  0  0  0  0
 23 54  1  1  0  0  0
 24  5  1  0  0  0  0
 24 22  1  0  0  0  0
 24 55  1  6  0  0  0
 25  6  1  0  0  0  0
 25 22  1  0  0  0  0
 25 56  1  6  0  0  0
 26  7  1  0  0  0  0
 26 57  1  6  0  0  0
 27  8  1  0  0  0  0
 27 58  1  6  0  0  0
 28  9  1  0  0  0  0
 28 59  1  6  0  0  0
 29 11  1  0  0  0  0
 29 38  1  0  0  0  0
 29 60  1  1  0  0  0
 30 12  1  0  0  0  0
 30 35  1  0  0  0  0
 30 61  1  6  0  0  0
 31 15  1  0  0  0  0
 31 29  1  0  0  0  0
 31 62  1  6  0  0  0
 32 16  1  0  0  0  0
 32 43  1  0  0  0  0
 32 63  1  6  0  0  0
 33 17  1  0  0  0  0
 33 39  1  0  0  0  0
 33 64  1  1  0  0  0
 34 26  1  0  0  0  0
 34 27  1  0  0  0  0
 34 44  1  0  0  0  0
 34 65  1  6  0  0  0
 35 26  1  0  0  0  0
 36 23  1  0  0  0  0
 36 27  1  0  0  0  0
 36 66  1  1  0  0  0
 37 24  1  0  0  0  0
 37 30  1  0  0  0  0
 37 67  1  1  0  0  0
 39 10  1  6  0  0  0
 39 20  1  0  0  0  0
 40 13  1  0  0  0  0
 40 18  1  0  0  0  0
 40 28  1  0  0  0  0
 40 48  1  6  0  0  0
 41 19  1  1  0  0  0
 41 25  1  0  0  0  0
 41 51  1  0  0  0  0
 42 21  1  0  0  0  0
 42 32  1  0  0  0  0
 42 52  1  1  0  0  0
 43120  1  0  0  0  0
 44121  1  0  0  0  0
 45 35  2  0  0  0  0
 46 38  2  0  0  0  0
 47 38  1  0  0  0  0
 47122  1  0  0  0  0
 48123  1  0  0  0  0
 49 28  1  0  0  0  0
 49 33  1  0  0  0  0
 50 31  1  0  0  0  0
 50 36  1  0  0  0  0
 51 37  1  0  0  0  0
 52 39  1  0  0  0  0
 53 41  1  0  0  0  0
 53 42  1  0  0  0  0
M  END
>  <DRUGBANK_ID>
DB11544

>  <COMMON_NAME>
Salinomycin

>  <CAS_NUMBER>
53003-10-4

>  <UNII>
62UXS86T64

>  <SYNONYMS>
Procoxacin; Salinomycin

$$$$
