580
 OpenBabel10282417072D

 36 38  0  0  0  0  0  0  0  0999 V2000
    3.1021   -1.7444    0.0000 S   0  0  0  0  0  0  0  0  0  0  0  0
    2.6896    2.8251    0.0000 O   0  0  0  0  0  0  0  0  0  0  0  0
    3.9271   -1.7444    0.0000 O   0  0  0  0  0  0  0  0  0  0  0  0
    2.2771   -1.7444    0.0000 O   0  0  0  0  0  0  0  0  0  0  0  0
    3.5146    2.8251    0.0000 N   0  0  0  0  0  0  0  0  0  0  0  0
    3.1021   -2.5694    0.0000 N   0  0  0  0  0  0  0  0  0  0  0  0
    3.1021    1.5556    0.0000 C   0  0  0  0  0  0  0  0  0  0  0  0
    3.1021    0.7306    0.0000 C   0  0  0  0  0  0  0  0  0  0  0  0
    3.7695    2.0406    0.0000 C   0  0  0  0  0  0  0  0  0  0  0  0
    2.4347    2.0406    0.0000 C   0  0  0  0  0  0  0  0  0  0  0  0
    3.1021   -0.9194    0.0000 C   0  0  0  0  0  0  0  0  0  0  0  0
    3.8166    0.3181    0.0000 C   0  0  0  0  0  0  0  0  0  0  0  0
    2.3876    0.3181    0.0000 C   0  0  0  0  0  0  0  0  0  0  0  0
    4.5541    1.7856    0.0000 C   0  0  0  0  0  0  0  0  0  0  0  0
    3.8166   -0.5069    0.0000 C   0  0  0  0  0  0  0  0  0  0  0  0
    2.3876   -0.5069    0.0000 C   0  0  0  0  0  0  0  0  0  0  0  0
    1.6500    1.7856    0.0000 C   0  0  0  0  0  0  0  0  0  0  0  0
    5.1672    2.3376    0.0000 C   0  0  0  0  0  0  0  0  0  0  0  0
    4.7257    0.9786    0.0000 C   0  0  0  0  0  0  0  0  0  0  0  0
    5.9518    2.0827    0.0000 C   0  0  0  0  0  0  0  0  0  0  0  0
    5.5103    0.7237    0.0000 C   0  0  0  0  0  0  0  0  0  0  0  0
    6.1234    1.2757    0.0000 C   0  0  0  0  0  0  0  0  0  0  0  0
    2.2188   -3.0794    0.0000 H   0  0  0  0  0  0  0  0  0  0  0  0
    3.9854   -3.0794    0.0000 H   0  0  0  0  0  0  0  0  0  0  0  0
    4.7103    0.8341    0.0000 H   0  0  0  0  0  0  0  0  0  0  0  0
    1.4939    0.8341    0.0000 H   0  0  0  0  0  0  0  0  0  0  0  0
    4.7103   -1.0229    0.0000 H   0  0  0  0  0  0  0  0  0  0  0  0
    1.4939   -1.0229    0.0000 H   0  0  0  0  0  0  0  0  0  0  0  0
    0.8548    2.5015    0.0000 H   0  0  0  0  0  0  0  0  0  0  0  0
    1.4276    0.7390    0.0000 H   0  0  0  0  0  0  0  0  0  0  0  0
    0.6324    1.4549    0.0000 H   0  0  0  0  0  0  0  0  0  0  0  0
    4.9526    3.3470    0.0000 H   0  0  0  0  0  0  0  0  0  0  0  0
    3.9588    0.2880    0.0000 H   0  0  0  0  0  0  0  0  0  0  0  0
    6.7187    2.7733    0.0000 H   0  0  0  0  0  0  0  0  0  0  0  0
    5.7249   -0.2857    0.0000 H   0  0  0  0  0  0  0  0  0  0  0  0
    7.1049    0.9568    0.0000 H   0  0  0  0  0  0  0  0  0  0  0  0
  1  3  2  0  0  0  0
  1  4  2  0  0  0  0
  1  6  1  0  0  0  0
  1 11  1  0  0  0  0
  2  5  1  0  0  0  0
  2 10  1  0  0  0  0
  5  9  2  0  0  0  0
  6 23  1  0  0  0  0
  6 24  1  0  0  0  0
  7  8  1  0  0  0  0
  7  9  1  0  0  0  0
  7 10  2  0  0  0  0
  8 12  2  0  0  0  0
  8 13  1  0  0  0  0
  9 14  1  0  0  0  0
 10 17  1  0  0  0  0
 11 15  2  0  0  0  0
 11 16  1  0  0  0  0
 12 15  1  0  0  0  0
 12 25  1  0  0  0  0
 13 16  2  0  0  0  0
 13 26  1  0  0  0  0
 14 18  2  0  0  0  0
 14 19  1  0  0  0  0
 15 27  1  0  0  0  0
 16 28  1  0  0  0  0
 17 29  1  0  0  0  0
 17 30  1  0  0  0  0
 17 31  1  0  0  0  0
 18 20  1  0  0  0  0
 18 32  1  0  0  0  0
 19 21  2  0  0  0  0
 19 33  1  0  0  0  0
 20 22  2  0  0  0  0
 20 34  1  0  0  0  0
 21 22  1  0  0  0  0
 21 35  1  0  0  0  0
 22 36  1  0  0  0  0
M  END
>  <DRUGBANK_ID>
DB00580

>  <SECONDARY_ACCESSION_NUMBERS>
APRD00183; DB07576

>  <COMMON_NAME>
Valdecoxib

>  <CAS_NUMBER>
181695-72-7

>  <UNII>
2919279Q3W

>  <SYNONYMS>
Valdecoxib

$$$$
