
 OpenBabel10282417072D

138145  0  0  0  0  0  0  0  0999 V2000
    2.0451   -1.9803    0.0000 C   0  0  2  0  0  0  0  0  0  0  0  0
    1.3252   -2.3906    0.0000 C   0  0  1  0  0  0  0  0  0  0  0  0
    1.3252   -3.1230    0.0000 C   0  0  2  0  0  0  0  0  0  0  0  0
    2.0451   -1.1642    0.0000 C   0  0  0  0  0  0  0  0  0  0  0  0
    3.5268    1.3803    0.0000 C   0  0  2  0  0  0  0  0  0  0  0  0
    2.7609   -2.3906    0.0000 C   0  0  0  0  0  0  0  0  0  0  0  0
    2.7609   -3.2067    0.0000 C   0  0  0  0  0  0  0  0  0  0  0  0
   -0.0265   -3.1230    0.0000 O   0  0  0  0  0  0  0  0  0  0  0  0
    0.6514   -1.9134    0.0000 C   0  0  0  0  0  0  0  0  0  0  0  0
   -3.5020    3.2362    0.0000 C   0  0  2  0  0  0  0  0  0  0  0  0
    2.0451   -3.6295    0.0000 C   0  0  1  0  0  0  0  0  0  0  0  0
    4.2425    0.9660    0.0000 O   0  0  0  0  0  0  0  0  0  0  0  0
   -4.9249    3.3015    0.0000 C   0  0  2  0  0  0  0  0  0  0  0  0
   -2.1127    2.3438    0.0000 C   0  0  2  0  0  0  0  0  0  0  0  0
    2.8069   -0.6745    0.0000 O   0  0  0  0  0  0  0  0  0  0  0  0
   -2.1127    3.1702    0.0000 O   0  0  0  0  0  0  0  0  0  0  0  0
   -5.6205    3.7457    0.0000 O   0  0  0  0  0  0  0  0  0  0  0  0
   -2.8370    1.9698    0.0000 C   0  0  0  0  0  0  0  0  0  0  0  0
   -4.9249    2.4800    0.0000 C   0  0  0  0  0  0  0  0  0  0  0  0
   -3.5020    2.4090    0.0000 C   0  0  2  0  0  0  0  0  0  0  0  0
   -6.3794    2.5453    0.0000 C   0  0  2  0  0  0  0  0  0  0  0  0
   -0.7799    1.3803    0.0000 C   0  0  1  0  0  0  0  0  0  0  0  0
    3.5268    0.5517    0.0000 C   0  0  0  0  0  0  0  0  0  0  0  0
    2.8069    1.7822    0.0000 O   0  0  0  0  0  0  0  0  0  0  0  0
   -2.7726    3.6135    0.0000 C   0  0  1  0  0  0  0  0  0  0  0  0
    4.9583    1.3803    0.0000 C   0  0  1  0  0  0  0  0  0  0  0  0
   -5.6857    2.0971    0.0000 C   0  0  1  0  0  0  0  0  0  0  0  0
    2.8069    0.1416    0.0000 C   0  0  2  0  0  0  0  0  0  0  0  0
   -6.3794    3.3635    0.0000 C   0  0  2  0  0  0  0  0  0  0  0  0
   -0.0641    1.7822    0.0000 C   0  0  0  0  0  0  0  0  0  0  0  0
   -4.2007    3.6797    0.0000 O   0  0  0  0  0  0  0  0  0  0  0  0
    3.5268    2.1882    0.0000 C   0  0  0  0  0  0  0  0  0  0  0  0
   -1.4998    1.7822    0.0000 O   0  0  0  0  0  0  0  0  0  0  0  0
    4.2425    2.6026    0.0000 C   0  0  0  0  0  0  0  0  0  0  0  0
    0.6514    1.3803    0.0000 C   0  0  0  0  0  0  0  0  0  0  0  0
   -0.0265   -2.3906    0.0000 C   0  0  0  0  0  0  0  0  0  0  0  0
    0.6514   -1.0889    0.0000 C   0  0  0  0  0  0  0  0  0  0  0  0
    1.3169   -0.7666    0.0000 O   0  0  0  0  0  0  0  0  0  0  0  0
   -0.0641   -0.7039    0.0000 C   0  0  0  0  0  0  0  0  0  0  0  0
    4.9583    2.1882    0.0000 C   0  0  2  0  0  0  0  0  0  0  0  0
    2.0912    0.5517    0.0000 C   0  0  0  0  0  0  0  0  0  0  0  0
    2.0912    1.3803    0.0000 C   0  0  1  0  0  0  0  0  0  0  0  0
   -0.7799    0.5517    0.0000 C   0  0  2  0  0  0  0  0  0  0  0  0
   -0.0641    0.1416    0.0000 C   0  0  0  0  0  0  0  0  0  0  0  0
    1.3252   -1.5660    0.0000 O   0  0  0  0  0  0  0  0  0  0  0  0
    5.6740    0.9660    0.0000 C   0  0  0  0  0  0  0  0  0  0  0  0
    1.3713    1.7822    0.0000 C   0  0  0  0  0  0  0  0  0  0  0  0
    2.0451   -4.4456    0.0000 O   0  0  0  0  0  0  0  0  0  0  0  0
   -7.1094    2.1632    0.0000 O   0  0  0  0  0  0  0  0  0  0  0  0
   -4.2651    2.0358    0.0000 O   0  0  0  0  0  0  0  0  0  0  0  0
   -5.6857    1.2699    0.0000 O   0  0  0  0  0  0  0  0  0  0  0  0
    3.4849   -3.6295    0.0000 C   0  0  0  0  0  0  0  0  0  0  0  0
   -0.0641    2.6026    0.0000 C   0  0  0  0  0  0  0  0  0  0  0  0
   -2.7726    4.4456    0.0000 C   0  0  0  0  0  0  0  0  0  0  0  0
   -7.0315    3.7939    0.0000 C   0  0  0  0  0  0  0  0  0  0  0  0
    5.6740    2.6026    0.0000 C   0  0  0  0  0  0  0  0  0  0  0  0
   -1.4997    0.1416    0.0000 C   0  0  0  0  0  0  0  0  0  0  0  0
    6.3854    1.3720    0.0000 C   0  0  0  0  0  0  0  0  0  0  0  0
    5.6740    0.1416    0.0000 C   0  0  0  0  0  0  0  0  0  0  0  0
   -4.2651    1.2047    0.0000 C   0  0  0  0  0  0  0  0  0  0  0  0
   -5.0223    0.8226    0.0000 C   0  0  0  0  0  0  0  0  0  0  0  0
    6.3854   -0.2727    0.0000 C   0  0  0  0  0  0  0  0  0  0  0  0
    7.1094    0.9660    0.0000 C   0  0  0  0  0  0  0  0  0  0  0  0
    7.1094    0.1416    0.0000 C   0  0  0  0  0  0  0  0  0  0  0  0
   -4.9249    4.1261    0.0000 H   0  0  0  0  0  0  0  0  0  0  0  0
   -1.3993    2.7700    0.0000 H   0  0  0  0  0  0  0  0  0  0  0  0
    1.1997   -4.0772    0.0000 H   0  0  0  0  0  0  0  0  0  0  0  0
    2.8044   -1.5145    0.0000 H   0  0  0  0  0  0  0  0  0  0  0  0
    3.6538   -1.8732    0.0000 H   0  0  0  0  0  0  0  0  0  0  0  0
   -4.4397    2.7208    0.0000 H   0  0  0  0  0  0  0  0  0  0  0  0
    2.9744   -4.1599    0.0000 H   0  0  0  0  0  0  0  0  0  0  0  0
   -2.8942    0.9013    0.0000 H   0  0  0  0  0  0  0  0  0  0  0  0
   -3.7925    1.4883    0.0000 H   0  0  0  0  0  0  0  0  0  0  0  0
   -4.0140    1.9187    0.0000 H   0  0  0  0  0  0  0  0  0  0  0  0
   -4.9709    1.4110    0.0000 H   0  0  0  0  0  0  0  0  0  0  0  0
   -4.4097    2.9755    0.0000 H   0  0  0  0  0  0  0  0  0  0  0  0
   -6.4283    1.4764    0.0000 H   0  0  0  0  0  0  0  0  0  0  0  0
   -1.7027    0.8386    0.0000 H   0  0  0  0  0  0  0  0  0  0  0  0
    4.4519    0.0140    0.0000 H   0  0  0  0  0  0  0  0  0  0  0  0
    3.5222   -0.5183    0.0000 H   0  0  0  0  0  0  0  0  0  0  0  0
   -1.8283    4.1167    0.0000 H   0  0  0  0  0  0  0  0  0  0  0  0
    4.9583    0.3103    0.0000 H   0  0  0  0  0  0  0  0  0  0  0  0
   -6.6254    1.5854    0.0000 H   0  0  0  0  0  0  0  0  0  0  0  0
    3.7320   -0.3961    0.0000 H   0  0  0  0  0  0  0  0  0  0  0  0
   -6.3169    4.4317    0.0000 H   0  0  0  0  0  0  0  0  0  0  0  0
    2.6327    2.7036    0.0000 H   0  0  0  0  0  0  0  0  0  0  0  0
    4.2425    3.6346    0.0000 H   0  0  0  0  0  0  0  0  0  0  0  0
    0.6501    0.3483    0.0000 H   0  0  0  0  0  0  0  0  0  0  0  0
   -0.9762   -1.8977    0.0000 H   0  0  0  0  0  0  0  0  0  0  0  0
   -0.9409   -2.9463    0.0000 H   0  0  0  0  0  0  0  0  0  0  0  0
    1.5373   -0.5596    0.0000 H   0  0  0  0  0  0  0  0  0  0  0  0
   -0.9500   -1.2332    0.0000 H   0  0  0  0  0  0  0  0  0  0  0  0
    4.9583    3.2582    0.0000 H   0  0  0  0  0  0  0  0  0  0  0  0
    1.1654    0.0152    0.0000 H   0  0  0  0  0  0  0  0  0  0  0  0
    1.1641    1.0859    0.0000 H   0  0  0  0  0  0  0  0  0  0  0  0
    2.0899    2.4503    0.0000 H   0  0  0  0  0  0  0  0  0  0  0  0
   -1.7050    1.0894    0.0000 H   0  0  0  0  0  0  0  0  0  0  0  0
    0.8288    0.6591    0.0000 H   0  0  0  0  0  0  0  0  0  0  0  0
    2.1652   -1.0810    0.0000 H   0  0  0  0  0  0  0  0  0  0  0  0
    6.5993    0.4287    0.0000 H   0  0  0  0  0  0  0  0  0  0  0  0
    1.3713    2.8522    0.0000 H   0  0  0  0  0  0  0  0  0  0  0  0
    2.2941    2.3239    0.0000 H   0  0  0  0  0  0  0  0  0  0  0  0
    1.2051   -4.9306    0.0000 H   0  0  0  0  0  0  0  0  0  0  0  0
   -7.9287    2.6825    0.0000 H   0  0  0  0  0  0  0  0  0  0  0  0
    3.4796   -4.6995    0.0000 H   0  0  0  0  0  0  0  0  0  0  0  0
    4.4142   -3.0991    0.0000 H   0  0  0  0  0  0  0  0  0  0  0  0
    4.4089   -4.1691    0.0000 H   0  0  0  0  0  0  0  0  0  0  0  0
    0.8625    3.1376    0.0000 H   0  0  0  0  0  0  0  0  0  0  0  0
   -0.9907    3.1376    0.0000 H   0  0  0  0  0  0  0  0  0  0  0  0
   -0.0641    3.6726    0.0000 H   0  0  0  0  0  0  0  0  0  0  0  0
   -1.8460    4.9806    0.0000 H   0  0  0  0  0  0  0  0  0  0  0  0
   -3.6992    4.9806    0.0000 H   0  0  0  0  0  0  0  0  0  0  0  0
   -2.7726    5.5156    0.0000 H   0  0  0  0  0  0  0  0  0  0  0  0
   -6.9676    4.8620    0.0000 H   0  0  0  0  0  0  0  0  0  0  0  0
   -7.9885    3.3152    0.0000 H   0  0  0  0  0  0  0  0  0  0  0  0
   -7.9245    4.3833    0.0000 H   0  0  0  0  0  0  0  0  0  0  0  0
    6.6013    2.0688    0.0000 H   0  0  0  0  0  0  0  0  0  0  0  0
    5.6727    3.6726    0.0000 H   0  0  0  0  0  0  0  0  0  0  0  0
    6.6000    3.1388    0.0000 H   0  0  0  0  0  0  0  0  0  0  0  0
   -2.4233    0.6819    0.0000 H   0  0  0  0  0  0  0  0  0  0  0  0
   -1.5058   -0.9284    0.0000 H   0  0  0  0  0  0  0  0  0  0  0  0
   -2.4294   -0.3881    0.0000 H   0  0  0  0  0  0  0  0  0  0  0  0
    6.3814    2.4420    0.0000 H   0  0  0  0  0  0  0  0  0  0  0  0
    7.3077    1.9145    0.0000 H   0  0  0  0  0  0  0  0  0  0  0  0
    4.7463   -0.3917    0.0000 H   0  0  0  0  0  0  0  0  0  0  0  0
    5.6710   -0.9284    0.0000 H   0  0  0  0  0  0  0  0  0  0  0  0
   -5.1917    0.6697    0.0000 H   0  0  0  0  0  0  0  0  0  0  0  0
   -3.3385    0.6697    0.0000 H   0  0  0  0  0  0  0  0  0  0  0  0
   -4.2651    0.1347    0.0000 H   0  0  0  0  0  0  0  0  0  0  0  0
   -5.0968   -0.2448    0.0000 H   0  0  0  0  0  0  0  0  0  0  0  0
   -4.0607    1.2918    0.0000 H   0  0  0  0  0  0  0  0  0  0  0  0
   -4.1351    0.2244    0.0000 H   0  0  0  0  0  0  0  0  0  0  0  0
    6.3813   -1.3427    0.0000 H   0  0  0  0  0  0  0  0  0  0  0  0
    7.3100   -0.8112    0.0000 H   0  0  0  0  0  0  0  0  0  0  0  0
    8.0327    1.5068    0.0000 H   0  0  0  0  0  0  0  0  0  0  0  0
    8.0377    0.4339    0.0000 H   0  0  0  0  0  0  0  0  0  0  0  0
    8.0350   -0.3952    0.0000 H   0  0  0  0  0  0  0  0  0  0  0  0
    8.0366    0.6757    0.0000 H   0  0  0  0  0  0  0  0  0  0  0  0
  1 68  1  1  0  0  0
  2 45  1  6  0  0  0
  2  1  1  0  0  0  0
  3 11  1  0  0  0  0
  3  2  1  0  0  0  0
  3 67  1  6  0  0  0
  4  1  1  0  0  0  0
  5 23  1  0  0  0  0
  5 12  1  6  0  0  0
  5 32  1  0  0  0  0
  6  1  1  0  0  0  0
  6 69  1  0  0  0  0
  7  6  2  0  0  0  0
  8  3  1  0  0  0  0
  8 36  1  0  0  0  0
  9  2  1  0  0  0  0
 10 20  1  0  0  0  0
 10 31  1  0  0  0  0
 10 25  1  0  0  0  0
 10 70  1  6  0  0  0
 11  7  1  0  0  0  0
 11 48  1  0  0  0  0
 11 71  1  6  0  0  0
 13 31  1  0  0  0  0
 13 65  1  6  0  0  0
 14 33  1  0  0  0  0
 14 66  1  6  0  0  0
 15  4  1  0  0  0  0
 16 14  1  0  0  0  0
 17 13  1  0  0  0  0
 18 14  1  0  0  0  0
 18 72  1  0  0  0  0
 18 73  1  0  0  0  0
 19 13  1  0  0  0  0
 19 74  1  0  0  0  0
 19 75  1  0  0  0  0
 20 18  1  0  0  0  0
 20 50  1  0  0  0  0
 20 76  1  1  0  0  0
 21 27  1  0  0  0  0
 21 49  1  0  0  0  0
 21 29  1  0  0  0  0
 21 77  1  6  0  0  0
 22 43  1  0  0  0  0
 22 33  1  0  0  0  0
 22 30  1  0  0  0  0
 22 78  1  1  0  0  0
 23 28  1  0  0  0  0
 23 79  1  0  0  0  0
 23 80  1  0  0  0  0
 24 42  1  0  0  0  0
 24  5  1  0  0  0  0
 25 16  1  0  0  0  0
 25 54  1  0  0  0  0
 25 81  1  1  0  0  0
 26 12  1  0  0  0  0
 26 46  1  0  0  0  0
 26 40  1  0  0  0  0
 26 82  1  6  0  0  0
 27 19  1  0  0  0  0
 27 51  1  0  0  0  0
 27 83  1  1  0  0  0
 28 15  1  0  0  0  0
 28 84  1  6  0  0  0
 29 17  1  0  0  0  0
 29 55  1  0  0  0  0
 29 85  1  1  0  0  0
 30 35  2  0  0  0  0
 32 86  1  0  0  0  0
 34 32  2  0  0  0  0
 34 87  1  0  0  0  0
 35 47  1  0  0  0  0
 35 88  1  0  0  0  0
 36  9  1  0  0  0  0
 36 89  1  0  0  0  0
 36 90  1  0  0  0  0
 37  9  2  0  0  0  0
 37 91  1  0  0  0  0
 38  4  2  0  0  0  0
 39 37  1  0  0  0  0
 39 92  1  0  0  0  0
 40 34  1  0  0  0  0
 40 56  1  0  0  0  0
 40 93  1  1  0  0  0
 41 28  1  0  0  0  0
 41 94  1  0  0  0  0
 41 95  1  0  0  0  0
 42 41  1  0  0  0  0
 42 47  1  0  0  0  0
 42 96  1  6  0  0  0
 43 44  1  0  0  0  0
 43 57  1  0  0  0  0
 43 97  1  1  0  0  0
 44 39  2  0  0  0  0
 44 98  1  0  0  0  0
 45 99  1  0  0  0  0
 46100  1  0  0  0  0
 47101  1  0  0  0  0
 47102  1  0  0  0  0
 48103  1  0  0  0  0
 49104  1  0  0  0  0
 52  7  1  0  0  0  0
 52105  1  0  0  0  0
 52106  1  0  0  0  0
 52107  1  0  0  0  0
 53 30  1  0  0  0  0
 53108  1  0  0  0  0
 53109  1  0  0  0  0
 53110  1  0  0  0  0
 54111  1  0  0  0  0
 54112  1  0  0  0  0
 54113  1  0  0  0  0
 55114  1  0  0  0  0
 55115  1  0  0  0  0
 55116  1  0  0  0  0
 56117  1  0  0  0  0
 56118  1  0  0  0  0
 56119  1  0  0  0  0
 57120  1  0  0  0  0
 57121  1  0  0  0  0
 57122  1  0  0  0  0
 58 46  1  0  0  0  0
 58123  1  0  0  0  0
 58124  1  0  0  0  0
 59 46  1  0  0  0  0
 59125  1  0  0  0  0
 59126  1  0  0  0  0
 60 50  1  0  0  0  0
 60127  1  0  0  0  0
 60128  1  0  0  0  0
 60129  1  0  0  0  0
 61 51  1  0  0  0  0
 61130  1  0  0  0  0
 61131  1  0  0  0  0
 61132  1  0  0  0  0
 62 59  1  0  0  0  0
 62133  1  0  0  0  0
 62134  1  0  0  0  0
 63 58  1  0  0  0  0
 63135  1  0  0  0  0
 63136  1  0  0  0  0
 64 62  1  0  0  0  0
 64 63  1  0  0  0  0
 64137  1  0  0  0  0
 64138  1  0  0  0  0
M  END
>  <DRUGBANK_ID>
DB11400

>  <COMMON_NAME>
Doramectin

>  <CAS_NUMBER>
117704-25-3

>  <UNII>
KGD7A54H5P

>  <SYNONYMS>
Doramectin; Doramectina; Doramectine; Doramectinum

$$$$
