
 OpenBabel10282417072D

 52 52  0  0  1  0  0  0  0  0999 V2000
    7.0636   -7.0578    0.0000 C   0  0  0  0  0  0  0  0  0  0  0  0
    7.0636   -6.2328    0.0000 C   0  0  1  0  0  0  0  0  0  0  0  0
    6.3491   -5.8203    0.0000 C   0  0  0  0  0  0  0  0  0  0  0  0
    5.6346   -6.2328    0.0000 O   0  0  0  0  0  0  0  0  0  0  0  0
    6.3491   -4.9953    0.0000 O   0  0  0  0  0  0  0  0  0  0  0  0
    7.7781   -5.8203    0.0000 N   0  0  0  0  0  0  0  0  0  0  0  0
    8.4925   -6.2328    0.0000 C   0  0  0  0  0  0  0  0  0  0  0  0
    8.4925   -7.0578    0.0000 O   0  0  0  0  0  0  0  0  0  0  0  0
    9.2070   -5.8203    0.0000 C   0  0  2  0  0  0  0  0  0  0  0  0
    9.2070   -4.9953    0.0000 C   0  0  0  0  0  0  0  0  0  0  0  0
    9.9215   -4.5828    0.0000 C   0  0  0  0  0  0  0  0  0  0  0  0
    9.9215   -3.7578    0.0000 C   0  0  0  0  0  0  0  0  0  0  0  0
    9.2070   -3.3453    0.0000 O   0  0  0  0  0  0  0  0  0  0  0  0
   10.6359   -3.3453    0.0000 O   0  0  0  0  0  0  0  0  0  0  0  0
    9.9215   -6.2328    0.0000 N   0  0  0  0  0  0  0  0  0  0  0  0
   10.6359   -5.8203    0.0000 C   0  0  0  0  0  0  0  0  0  0  0  0
   10.6359   -4.9953    0.0000 O   0  0  0  0  0  0  0  0  0  0  0  0
   11.3504   -6.2328    0.0000 C   0  0  0  0  0  0  0  0  0  0  0  0
   12.0649   -5.8203    0.0000 C   0  0  0  0  0  0  0  0  0  0  0  0
   12.7794   -6.2328    0.0000 C   0  0  0  0  0  0  0  0  0  0  0  0
   13.4938   -5.8203    0.0000 C   0  0  0  0  0  0  0  0  0  0  0  0
   14.2083   -6.2328    0.0000 C   0  0  2  0  0  0  0  0  0  0  0  0
   14.9620   -5.8972    0.0000 C   0  0  0  0  0  0  0  0  0  0  0  0
   15.5140   -6.5103    0.0000 C   0  0  0  0  0  0  0  0  0  0  0  0
   15.1015   -7.2248    0.0000 S   0  0  0  0  0  0  0  0  0  0  0  0
   14.2945   -7.0533    0.0000 S   0  0  0  0  0  0  0  0  0  0  0  0
    6.1370   -7.5928    0.0000 H   0  0  0  0  0  0  0  0  0  0  0  0
    7.9902   -7.5928    0.0000 H   0  0  0  0  0  0  0  0  0  0  0  0
    7.0636   -8.1278    0.0000 H   0  0  0  0  0  0  0  0  0  0  0  0
    6.1370   -6.7678    0.0000 H   0  0  0  0  0  0  0  0  0  0  0  0
    7.1606   -4.5268    0.0000 H   0  0  0  0  0  0  0  0  0  0  0  0
    7.7781   -4.8358    0.0000 H   0  0  0  0  0  0  0  0  0  0  0  0
    9.2070   -6.8903    0.0000 H   0  0  0  0  0  0  0  0  0  0  0  0
    8.2804   -4.4603    0.0000 H   0  0  0  0  0  0  0  0  0  0  0  0
    9.2070   -3.9253    0.0000 H   0  0  0  0  0  0  0  0  0  0  0  0
   10.8481   -5.1178    0.0000 H   0  0  0  0  0  0  0  0  0  0  0  0
   10.8481   -4.0478    0.0000 H   0  0  0  0  0  0  0  0  0  0  0  0
   11.4474   -3.8138    0.0000 H   0  0  0  0  0  0  0  0  0  0  0  0
    9.9215   -7.2173    0.0000 H   0  0  0  0  0  0  0  0  0  0  0  0
   11.3504   -7.3028    0.0000 H   0  0  0  0  0  0  0  0  0  0  0  0
   12.2770   -6.7678    0.0000 H   0  0  0  0  0  0  0  0  0  0  0  0
   12.0649   -4.7503    0.0000 H   0  0  0  0  0  0  0  0  0  0  0  0
   12.9915   -5.2853    0.0000 H   0  0  0  0  0  0  0  0  0  0  0  0
   12.7794   -7.3028    0.0000 H   0  0  0  0  0  0  0  0  0  0  0  0
   13.7061   -6.7678    0.0000 H   0  0  0  0  0  0  0  0  0  0  0  0
   13.4938   -4.7503    0.0000 H   0  0  0  0  0  0  0  0  0  0  0  0
   14.4204   -5.2853    0.0000 H   0  0  0  0  0  0  0  0  0  0  0  0
   14.2643   -5.1643    0.0000 H   0  0  0  0  0  0  0  0  0  0  0  0
   15.1845   -4.8506    0.0000 H   0  0  0  0  0  0  0  0  0  0  0  0
   15.9955   -5.6203    0.0000 H   0  0  0  0  0  0  0  0  0  0  0  0
   16.5781   -6.3985    0.0000 H   0  0  0  0  0  0  0  0  0  0  0  0
   16.0968   -7.4077    0.0000 H   0  0  0  0  0  0  0  0  0  0  0  0
  1 27  1  0  0  0  0
  1 28  1  0  0  0  0
  1 29  1  0  0  0  0
  2  1  1  0  0  0  0
  2  3  1  0  0  0  0
  2  6  1  0  0  0  0
  2 30  1  6  0  0  0
  3  4  2  0  0  0  0
  3  5  1  0  0  0  0
  5 31  1  0  0  0  0
  6  7  1  0  0  0  0
  6 32  1  0  0  0  0
  7  8  2  0  0  0  0
  7  9  1  0  0  0  0
  9 10  1  0  0  0  0
  9 15  1  0  0  0  0
  9 33  1  1  0  0  0
 10 11  1  0  0  0  0
 10 34  1  0  0  0  0
 10 35  1  0  0  0  0
 11 12  1  0  0  0  0
 11 36  1  0  0  0  0
 11 37  1  0  0  0  0
 12 13  2  0  0  0  0
 12 14  1  0  0  0  0
 14 38  1  0  0  0  0
 15 16  1  0  0  0  0
 15 39  1  0  0  0  0
 16 17  2  0  0  0  0
 16 18  1  0  0  0  0
 18 19  1  0  0  0  0
 18 40  1  0  0  0  0
 18 41  1  0  0  0  0
 19 20  1  0  0  0  0
 19 42  1  0  0  0  0
 19 43  1  0  0  0  0
 20 21  1  0  0  0  0
 20 44  1  0  0  0  0
 20 45  1  0  0  0  0
 21 46  1  0  0  0  0
 21 47  1  0  0  0  0
 22 21  1  0  0  0  0
 22 23  1  0  0  0  0
 22 26  1  0  0  0  0
 22 48  1  1  0  0  0
 23 24  1  0  0  0  0
 23 49  1  0  0  0  0
 23 50  1  0  0  0  0
 24 25  1  0  0  0  0
 24 51  1  0  0  0  0
 24 52  1  0  0  0  0
 25 26  1  0  0  0  0
M  END
>  <DRUGBANK_ID>
DB12795

>  <COMMON_NAME>
CMX-2043

>  <CAS_NUMBER>
910627-26-8

>  <UNII>
83V80O4XY1

$$$$
