740
 OpenBabel10282417072D

 20 21  0  0  0  0  0  0  0  0999 V2000
    6.0031    0.5129    0.0000 S   0  0  0  0  0  0  0  0  0  0  0  0
    2.7770   -0.4529    0.0000 F   0  0  0  0  0  0  0  0  0  0  0  0
    1.6500   -0.1510    0.0000 F   0  0  0  0  0  0  0  0  0  0  0  0
    1.9520    0.9760    0.0000 F   0  0  0  0  0  0  0  0  0  0  0  0
    3.0791    0.6740    0.0000 O   0  0  0  0  0  0  0  0  0  0  0  0
    6.0031   -0.8149    0.0000 N   0  0  0  0  0  0  0  0  0  0  0  0
    7.3097   -0.1510    0.0000 N   0  0  0  0  0  0  0  0  0  0  0  0
    5.2224    0.2615    0.0000 C   0  0  0  0  0  0  0  0  0  0  0  0
    5.2224   -0.5635    0.0000 C   0  0  0  0  0  0  0  0  0  0  0  0
    4.5080    0.6740    0.0000 C   0  0  0  0  0  0  0  0  0  0  0  0
    3.7935    0.2615    0.0000 C   0  0  0  0  0  0  0  0  0  0  0  0
    4.5080   -0.9760    0.0000 C   0  0  0  0  0  0  0  0  0  0  0  0
    3.7935   -0.5635    0.0000 C   0  0  0  0  0  0  0  0  0  0  0  0
    6.4846   -0.1510    0.0000 C   0  0  0  0  0  0  0  0  0  0  0  0
    2.3645    0.2615    0.0000 C   0  0  0  0  0  0  0  0  0  0  0  0
    7.8020   -1.0036    0.0000 H   0  0  0  0  0  0  0  0  0  0  0  0
    7.8019    0.7016    0.0000 H   0  0  0  0  0  0  0  0  0  0  0  0
    4.5080    1.7060    0.0000 H   0  0  0  0  0  0  0  0  0  0  0  0
    4.5080   -2.0080    0.0000 H   0  0  0  0  0  0  0  0  0  0  0  0
    2.8998   -1.0795    0.0000 H   0  0  0  0  0  0  0  0  0  0  0  0
  1  8  1  0  0  0  0
  1 14  1  0  0  0  0
  2 15  1  0  0  0  0
  3 15  1  0  0  0  0
  4 15  1  0  0  0  0
  5 11  1  0  0  0  0
  5 15  1  0  0  0  0
  6  9  1  0  0  0  0
  6 14  2  0  0  0  0
  7 14  1  0  0  0  0
  7 16  1  0  0  0  0
  7 17  1  0  0  0  0
  8  9  2  0  0  0  0
  8 10  1  0  0  0  0
  9 12  1  0  0  0  0
 10 11  2  0  0  0  0
 10 18  1  0  0  0  0
 11 13  1  0  0  0  0
 12 13  2  0  0  0  0
 12 19  1  0  0  0  0
 13 20  1  0  0  0  0
M  END
>  <DRUGBANK_ID>
DB00740

>  <SECONDARY_ACCESSION_NUMBERS>
APRD00145

>  <COMMON_NAME>
Riluzole

>  <CAS_NUMBER>
1744-22-5

>  <UNII>
7LJ087RS6F

>  <SYNONYMS>
Riluzol; Riluzole; Riluzolum

$$$$
