
 OpenBabel10282417072D

 40 21  0  0  0  0  0  0  0  0999 V2000
    0.1375    0.2382    0.0000 N   0  3  0  0  0  0  0  0  0  0  0  0
    0.5500    0.9526    0.0000 O   0  0  0  0  0  0  0  0  0  0  0  0
    0.5500   -0.4763    0.0000 O   0  5  0  0  0  0  0  0  0  0  0  0
   -0.6875    0.2382    0.0000 O   0  5  0  0  0  0  0  0  0  0  0  0
    5.2054    0.2382    0.0000 N   0  3  0  0  0  0  0  0  0  0  0  0
    5.6179    0.9526    0.0000 O   0  0  0  0  0  0  0  0  0  0  0  0
    5.6179   -0.4763    0.0000 O   0  5  0  0  0  0  0  0  0  0  0  0
    4.3804    0.2382    0.0000 O   0  5  0  0  0  0  0  0  0  0  0  0
   10.2732    0.0000    0.0000 N   0  3  0  0  0  0  0  0  0  0  0  0
   10.6857   -0.7145    0.0000 O   0  0  0  0  0  0  0  0  0  0  0  0
    9.4482    0.0000    0.0000 O   0  5  0  0  0  0  0  0  0  0  0  0
   10.6857    0.7145    0.0000 O   0  5  0  0  0  0  0  0  0  0  0  0
   13.7500   -0.0000    0.0000 N   0  3  0  0  0  0  0  0  0  0  0  0
   14.1625    0.7145    0.0000 O   0  0  0  0  0  0  0  0  0  0  0  0
   14.1625   -0.7145    0.0000 O   0  5  0  0  0  0  0  0  0  0  0  0
   12.9250   -0.0000    0.0000 O   0  5  0  0  0  0  0  0  0  0  0  0
    0.0000   -2.8408    0.0000 O   0  5  0  0  0  0  0  0  0  0  0  0
    1.1196   -2.8408    0.0000 O   0  5  0  0  0  0  0  0  0  0  0  0
    2.2393   -2.8408    0.0000 O   0  5  0  0  0  0  0  0  0  0  0  0
    3.3589   -2.8408    0.0000 O   0  5  0  0  0  0  0  0  0  0  0  0
    0.0000   -4.4908    0.0000 O   0  5  0  0  0  0  0  0  0  0  0  0
    1.1196   -4.4908    0.0000 O   0  5  0  0  0  0  0  0  0  0  0  0
    2.2393   -4.4908    0.0000 O   0  5  0  0  0  0  0  0  0  0  0  0
    3.3589   -4.4908    0.0000 O   0  5  0  0  0  0  0  0  0  0  0  0
    0.0000   -6.1408    0.0000 O   0  5  0  0  0  0  0  0  0  0  0  0
    1.1196   -6.1408    0.0000 O   0  6  0  0  0  0  0  0  0  0  0  0
    0.9625   -1.1908    0.0000 Bi  0  1  0  0  0  0  0  0  0  0  0  0
   -1.5125    0.2382    0.0000 Bi  0  1  0  0  0  0  0  0  0  0  0  0
    6.0304   -1.1908    0.0000 Bi  0  1  0  0  0  0  0  0  0  0  0  0
    3.5554    0.2382    0.0000 Bi  0  1  0  0  0  0  0  0  0  0  0  0
    8.6232    0.0000    0.0000 Bi  0  1  0  0  0  0  0  0  0  0  0  0
    0.9700   -2.8408    0.0000 H   0  0  0  0  0  0  0  0  0  0  0  0
    2.0896   -2.8408    0.0000 H   0  0  0  0  0  0  0  0  0  0  0  0
    3.2093   -2.8408    0.0000 H   0  0  0  0  0  0  0  0  0  0  0  0
    4.3289   -2.8408    0.0000 H   0  0  0  0  0  0  0  0  0  0  0  0
    0.9700   -4.4908    0.0000 H   0  0  0  0  0  0  0  0  0  0  0  0
    2.0896   -4.4908    0.0000 H   0  0  0  0  0  0  0  0  0  0  0  0
    3.2093   -4.4908    0.0000 H   0  0  0  0  0  0  0  0  0  0  0  0
    4.3289   -4.4908    0.0000 H   0  0  0  0  0  0  0  0  0  0  0  0
    0.9700   -6.1408    0.0000 H   0  0  0  0  0  0  0  0  0  0  0  0
  1  2  2  0  0  0  0
  1  3  1  0  0  0  0
  1  4  1  0  0  0  0
  5  6  2  0  0  0  0
  5  7  1  0  0  0  0
  5  8  1  0  0  0  0
  9 10  2  0  0  0  0
  9 11  1  0  0  0  0
  9 12  1  0  0  0  0
 13 14  2  0  0  0  0
 13 15  1  0  0  0  0
 13 16  1  0  0  0  0
 17 32  1  0  0  0  0
 18 33  1  0  0  0  0
 19 34  1  0  0  0  0
 20 35  1  0  0  0  0
 21 36  1  0  0  0  0
 22 37  1  0  0  0  0
 23 38  1  0  0  0  0
 24 39  1  0  0  0  0
 25 40  1  0  0  0  0
M  CHG  8   1   1   3  -1   4  -1   5   1   7  -1   8  -1   9   1  11  -1
M  CHG  8  12  -1  13   1  15  -1  16  -1  17  -1  18  -1  19  -1  20  -1
M  CHG  8  21  -1  22  -1  23  -1  24  -1  25  -1  26  -2  27   3  28   3
M  CHG  3  29   3  30   3  31   3
M  END
>  <DRUGBANK_ID>
DB13209

>  <COMMON_NAME>
Bismuth subnitrate

>  <CAS_NUMBER>
1304-85-4

>  <UNII>
H19J064BA5

>  <SYNONYMS>
Bismuth hydroxide nitrate oxide; Bismuth nitrate, basic; Bismuth subnitrate; Bismuthum subnitricum

$$$$
