
 OpenBabel10282417072D

 33 33  0  0  0  0  0  0  0  0999 V2000
   -1.0717    0.4125    0.0000 O   0  0  0  0  0  0  0  0  0  0  0  0
    0.3572    1.2375    0.0000 N   0  0  0  0  0  0  0  0  0  0  0  0
    0.3572    0.4125    0.0000 C   0  0  2  0  0  0  0  0  0  0  0  0
   -0.3572    0.0000    0.0000 C   0  0  1  0  0  0  0  0  0  0  0  0
    1.0717    0.0000    0.0000 C   0  0  0  0  0  0  0  0  0  0  0  0
    1.0717    1.6500    0.0000 C   0  0  0  0  0  0  0  0  0  0  0  0
   -0.3572   -0.8250    0.0000 C   0  0  0  0  0  0  0  0  0  0  0  0
   -0.3572    1.6500    0.0000 C   0  0  0  0  0  0  0  0  0  0  0  0
    1.0717    2.4750    0.0000 C   0  0  0  0  0  0  0  0  0  0  0  0
    0.3572   -1.2375    0.0000 C   0  0  0  0  0  0  0  0  0  0  0  0
   -1.0717   -1.2375    0.0000 C   0  0  0  0  0  0  0  0  0  0  0  0
    0.3572   -2.0625    0.0000 C   0  0  0  0  0  0  0  0  0  0  0  0
   -1.0717   -2.0625    0.0000 C   0  0  0  0  0  0  0  0  0  0  0  0
   -0.3572   -2.4750    0.0000 C   0  0  0  0  0  0  0  0  0  0  0  0
   -1.0717    1.3825    0.0000 H   0  0  0  0  0  0  0  0  0  0  0  0
   -0.5695    0.9475    0.0000 H   0  0  0  0  0  0  0  0  0  0  0  0
   -0.3572    1.0700    0.0000 H   0  0  0  0  0  0  0  0  0  0  0  0
    1.0717   -1.0700    0.0000 H   0  0  0  0  0  0  0  0  0  0  0  0
    1.9983    0.5350    0.0000 H   0  0  0  0  0  0  0  0  0  0  0  0
    1.9984   -0.5350    0.0000 H   0  0  0  0  0  0  0  0  0  0  0  0
    1.9983    1.1150    0.0000 H   0  0  0  0  0  0  0  0  0  0  0  0
    1.9983    2.1850    0.0000 H   0  0  0  0  0  0  0  0  0  0  0  0
   -0.3572    2.7200    0.0000 H   0  0  0  0  0  0  0  0  0  0  0  0
   -1.2839    1.1150    0.0000 H   0  0  0  0  0  0  0  0  0  0  0  0
   -1.2838    2.1850    0.0000 H   0  0  0  0  0  0  0  0  0  0  0  0
    1.9983    3.0100    0.0000 H   0  0  0  0  0  0  0  0  0  0  0  0
    0.1451    3.0100    0.0000 H   0  0  0  0  0  0  0  0  0  0  0  0
    1.0717    3.5450    0.0000 H   0  0  0  0  0  0  0  0  0  0  0  0
    1.2509   -0.7215    0.0000 H   0  0  0  0  0  0  0  0  0  0  0  0
   -1.9654   -0.7215    0.0000 H   0  0  0  0  0  0  0  0  0  0  0  0
    1.2509   -2.5785    0.0000 H   0  0  0  0  0  0  0  0  0  0  0  0
   -1.9654   -2.5785    0.0000 H   0  0  0  0  0  0  0  0  0  0  0  0
   -0.3572   -3.5070    0.0000 H   0  0  0  0  0  0  0  0  0  0  0  0
  1 15  1  0  0  0  0
  2  6  1  0  0  0  0
  2  8  1  0  0  0  0
  3  2  1  0  0  0  0
  3  4  1  0  0  0  0
  3  5  1  0  0  0  0
  3 16  1  6  0  0  0
  4  1  1  0  0  0  0
  4  7  1  0  0  0  0
  4 17  1  6  0  0  0
  5 18  1  0  0  0  0
  5 19  1  0  0  0  0
  5 20  1  0  0  0  0
  6  9  1  0  0  0  0
  6 21  1  0  0  0  0
  6 22  1  0  0  0  0
  7 10  2  0  0  0  0
  7 11  1  0  0  0  0
  8 23  1  0  0  0  0
  8 24  1  0  0  0  0
  8 25  1  0  0  0  0
  9 26  1  0  0  0  0
  9 27  1  0  0  0  0
  9 28  1  0  0  0  0
 10 12  1  0  0  0  0
 10 29  1  0  0  0  0
 11 13  2  0  0  0  0
 11 30  1  0  0  0  0
 12 14  2  0  0  0  0
 12 31  1  0  0  0  0
 13 14  1  0  0  0  0
 13 32  1  0  0  0  0
 14 33  1  0  0  0  0
M  END
>  <DRUGBANK_ID>
DB11587

>  <COMMON_NAME>
Etafedrine

>  <CAS_NUMBER>
48141-64-6

>  <UNII>
2Y6VQU63E8

>  <SYNONYMS>
(-)-etafedrine; alpha-(1-(ethylmethylamino)ethyl)benzyl alcohol; Etafedrine

$$$$
