
 OpenBabel10282417072D

 89 91  0  0  1  0  0  0  0  0999 V2000
    4.1027    1.8695    0.0000 C   0  0  0  0  0  0  0  0  0  0  0  0
    3.5724    1.2375    0.0000 C   0  0  2  0  0  0  0  0  0  0  0  0
    2.8579    0.8250    0.0000 C   0  0  0  0  0  0  0  0  0  0  0  0
    2.8579    0.0000    0.0000 O   0  0  0  0  0  0  0  0  0  0  0  0
    3.5724   -0.4125    0.0000 C   0  0  1  0  0  0  0  0  0  0  0  0
    4.2868    0.0000    0.0000 C   0  0  1  0  0  0  0  0  0  0  0  0
    4.2868    0.8250    0.0000 C   0  0  1  0  0  0  0  0  0  0  0  0
    5.0013    1.2375    0.0000 N   0  0  0  0  0  0  0  0  0  0  0  0
    5.0013    2.0625    0.0000 C   0  0  0  0  0  0  0  0  0  0  0  0
    5.0013   -0.4125    0.0000 O   0  0  0  0  0  0  0  0  0  0  0  0
    3.5724   -1.2375    0.0000 O   0  0  0  0  0  0  0  0  0  0  0  0
    2.8579   -1.6500    0.0000 C   0  0  1  0  0  0  0  0  0  0  0  0
    2.8579   -2.4750    0.0000 C   0  0  1  0  0  0  0  0  0  0  0  0
    2.1434   -2.8875    0.0000 C   0  0  0  0  0  0  0  0  0  0  0  0
    1.4289   -2.4750    0.0000 C   0  0  1  0  0  0  0  0  0  0  0  0
    1.4289   -1.6500    0.0000 C   0  0  2  0  0  0  0  0  0  0  0  0
    2.1434   -1.2375    0.0000 C   0  0  2  0  0  0  0  0  0  0  0  0
    2.1434   -0.4125    0.0000 O   0  0  0  0  0  0  0  0  0  0  0  0
    0.7145   -1.2375    0.0000 O   0  0  0  0  0  0  0  0  0  0  0  0
    0.7145   -0.4125    0.0000 C   0  0  2  0  0  0  0  0  0  0  0  0
    0.0000    0.0000    0.0000 C   0  0  1  0  0  0  0  0  0  0  0  0
    0.0000    0.8250    0.0000 C   0  0  0  0  0  0  0  0  0  0  0  0
    0.7145    1.2375    0.0000 C   0  0  0  0  0  0  0  0  0  0  0  0
    1.4289    0.8250    0.0000 C   0  0  0  0  0  0  0  0  0  0  0  0
    1.4289    0.0000    0.0000 O   0  0  0  0  0  0  0  0  0  0  0  0
    2.1434    1.2375    0.0000 C   0  0  0  0  0  0  0  0  0  0  0  0
    2.1434    2.0625    0.0000 N   0  0  0  0  0  0  0  0  0  0  0  0
    2.8579    2.4750    0.0000 C   0  0  0  0  0  0  0  0  0  0  0  0
    2.8579    3.3000    0.0000 C   0  0  0  0  0  0  0  0  0  0  0  0
    2.1434    3.7125    0.0000 O   0  0  0  0  0  0  0  0  0  0  0  0
   -0.7145   -0.4125    0.0000 N   0  0  0  0  0  0  0  0  0  0  0  0
    0.7145   -2.8875    0.0000 N   0  0  0  0  0  0  0  0  0  0  0  0
    3.5724   -2.8875    0.0000 N   0  0  0  0  0  0  0  0  0  0  0  0
    4.2868   -2.4750    0.0000 C   0  0  0  0  0  0  0  0  0  0  0  0
    4.2868   -1.6500    0.0000 O   0  0  0  0  0  0  0  0  0  0  0  0
    5.0013   -2.8875    0.0000 C   0  0  2  0  0  0  0  0  0  0  0  0
    5.7158   -2.4750    0.0000 C   0  0  0  0  0  0  0  0  0  0  0  0
    6.4302   -2.8875    0.0000 C   0  0  0  0  0  0  0  0  0  0  0  0
    7.1447   -2.4750    0.0000 N   0  0  0  0  0  0  0  0  0  0  0  0
    5.0013   -3.7125    0.0000 O   0  0  0  0  0  0  0  0  0  0  0  0
    3.0421    1.8695    0.0000 O   0  0  0  0  0  0  0  0  0  0  0  0
    5.1564    1.6837    0.0000 H   0  0  0  0  0  0  0  0  0  0  0  0
    3.7367    2.8750    0.0000 H   0  0  0  0  0  0  0  0  0  0  0  0
    4.7905    2.6892    0.0000 H   0  0  0  0  0  0  0  0  0  0  0  0
    1.9313    1.3600    0.0000 H   0  0  0  0  0  0  0  0  0  0  0  0
    1.9313    0.2900    0.0000 H   0  0  0  0  0  0  0  0  0  0  0  0
    2.6458   -0.9475    0.0000 H   0  0  0  0  0  0  0  0  0  0  0  0
    4.2868   -1.0700    0.0000 H   0  0  0  0  0  0  0  0  0  0  0  0
    5.2134    0.2900    0.0000 H   0  0  0  0  0  0  0  0  0  0  0  0
    5.8846    0.7275    0.0000 H   0  0  0  0  0  0  0  0  0  0  0  0
    5.9279    2.5975    0.0000 H   0  0  0  0  0  0  0  0  0  0  0  0
    4.0747    2.5975    0.0000 H   0  0  0  0  0  0  0  0  0  0  0  0
    5.0013    3.1325    0.0000 H   0  0  0  0  0  0  0  0  0  0  0  0
    5.0013   -1.3825    0.0000 H   0  0  0  0  0  0  0  0  0  0  0  0
    3.7845   -2.1850    0.0000 H   0  0  0  0  0  0  0  0  0  0  0  0
    3.7845   -1.9400    0.0000 H   0  0  0  0  0  0  0  0  0  0  0  0
    2.1434   -3.9575    0.0000 H   0  0  0  0  0  0  0  0  0  0  0  0
    1.2168   -3.4225    0.0000 H   0  0  0  0  0  0  0  0  0  0  0  0
    1.4289   -3.5450    0.0000 H   0  0  0  0  0  0  0  0  0  0  0  0
    0.5022   -2.1850    0.0000 H   0  0  0  0  0  0  0  0  0  0  0  0
    1.2168   -0.7025    0.0000 H   0  0  0  0  0  0  0  0  0  0  0  0
    2.9834    0.0725    0.0000 H   0  0  0  0  0  0  0  0  0  0  0  0
   -0.2121   -0.9475    0.0000 H   0  0  0  0  0  0  0  0  0  0  0  0
    0.0000   -1.0700    0.0000 H   0  0  0  0  0  0  0  0  0  0  0  0
   -0.9266    1.3600    0.0000 H   0  0  0  0  0  0  0  0  0  0  0  0
    0.0000    1.8950    0.0000 H   0  0  0  0  0  0  0  0  0  0  0  0
    0.7145    2.2695    0.0000 H   0  0  0  0  0  0  0  0  0  0  0  0
    3.0700    0.7025    0.0000 H   0  0  0  0  0  0  0  0  0  0  0  0
    3.0700    1.7725    0.0000 H   0  0  0  0  0  0  0  0  0  0  0  0
    1.2601    2.5725    0.0000 H   0  0  0  0  0  0  0  0  0  0  0  0
    3.7845    1.9400    0.0000 H   0  0  0  0  0  0  0  0  0  0  0  0
    3.7845    3.0100    0.0000 H   0  0  0  0  0  0  0  0  0  0  0  0
    3.7845    3.8350    0.0000 H   0  0  0  0  0  0  0  0  0  0  0  0
    2.8579    4.3700    0.0000 H   0  0  0  0  0  0  0  0  0  0  0  0
    2.1434    4.6825    0.0000 H   0  0  0  0  0  0  0  0  0  0  0  0
   -1.5978    0.0975    0.0000 H   0  0  0  0  0  0  0  0  0  0  0  0
   -0.7145   -1.4325    0.0000 H   0  0  0  0  0  0  0  0  0  0  0  0
   -0.1689   -2.3775    0.0000 H   0  0  0  0  0  0  0  0  0  0  0  0
    0.7145   -3.9075    0.0000 H   0  0  0  0  0  0  0  0  0  0  0  0
    3.5724   -3.8720    0.0000 H   0  0  0  0  0  0  0  0  0  0  0  0
    4.0747   -3.4225    0.0000 H   0  0  0  0  0  0  0  0  0  0  0  0
    5.7158   -1.4050    0.0000 H   0  0  0  0  0  0  0  0  0  0  0  0
    6.6425   -1.9400    0.0000 H   0  0  0  0  0  0  0  0  0  0  0  0
    6.4302   -3.9575    0.0000 H   0  0  0  0  0  0  0  0  0  0  0  0
    7.3568   -3.4225    0.0000 H   0  0  0  0  0  0  0  0  0  0  0  0
    8.0280   -2.9850    0.0000 H   0  0  0  0  0  0  0  0  0  0  0  0
    7.1447   -1.4550    0.0000 H   0  0  0  0  0  0  0  0  0  0  0  0
    4.1613   -4.1975    0.0000 H   0  0  0  0  0  0  0  0  0  0  0  0
    3.3739    2.7810    0.0000 H   0  0  0  0  0  0  0  0  0  0  0  0
  1 42  1  0  0  0  0
  1 43  1  0  0  0  0
  1 44  1  0  0  0  0
  2  1  1  0  0  0  0
  2  3  1  0  0  0  0
  2  7  1  0  0  0  0
  2 41  1  6  0  0  0
  3  4  1  0  0  0  0
  3 45  1  0  0  0  0
  3 46  1  0  0  0  0
  4  5  1  0  0  0  0
  5  6  1  0  0  0  0
  5 11  1  0  0  0  0
  5 47  1  6  0  0  0
  6  7  1  0  0  0  0
  6 10  1  0  0  0  0
  6 48  1  6  0  0  0
  7  8  1  0  0  0  0
  7 49  1  1  0  0  0
  8  9  1  0  0  0  0
  8 50  1  0  0  0  0
  9 51  1  0  0  0  0
  9 52  1  0  0  0  0
  9 53  1  0  0  0  0
 10 54  1  0  0  0  0
 12 11  1  0  0  0  0
 12 13  1  0  0  0  0
 12 17  1  0  0  0  0
 12 55  1  6  0  0  0
 13 14  1  0  0  0  0
 13 33  1  0  0  0  0
 13 56  1  1  0  0  0
 14 15  1  0  0  0  0
 14 57  1  0  0  0  0
 14 58  1  0  0  0  0
 15 16  1  0  0  0  0
 15 32  1  0  0  0  0
 15 59  1  1  0  0  0
 16 17  1  0  0  0  0
 16 19  1  0  0  0  0
 16 60  1  6  0  0  0
 17 18  1  0  0  0  0
 17 61  1  1  0  0  0
 18 62  1  0  0  0  0
 20 19  1  0  0  0  0
 20 21  1  0  0  0  0
 20 25  1  0  0  0  0
 20 63  1  1  0  0  0
 21 22  1  0  0  0  0
 21 31  1  0  0  0  0
 21 64  1  1  0  0  0
 22 23  1  0  0  0  0
 22 65  1  0  0  0  0
 22 66  1  0  0  0  0
 23 24  2  0  0  0  0
 23 67  1  0  0  0  0
 24 25  1  0  0  0  0
 24 26  1  0  0  0  0
 26 27  1  0  0  0  0
 26 68  1  0  0  0  0
 26 69  1  0  0  0  0
 27 28  1  0  0  0  0
 27 70  1  0  0  0  0
 28 29  1  0  0  0  0
 28 71  1  0  0  0  0
 28 72  1  0  0  0  0
 29 30  1  0  0  0  0
 29 73  1  0  0  0  0
 29 74  1  0  0  0  0
 30 75  1  0  0  0  0
 31 76  1  0  0  0  0
 31 77  1  0  0  0  0
 32 78  1  0  0  0  0
 32 79  1  0  0  0  0
 33 34  1  0  0  0  0
 33 80  1  0  0  0  0
 34 35  2  0  0  0  0
 34 36  1  0  0  0  0
 36 37  1  0  0  0  0
 36 40  1  0  0  0  0
 36 81  1  1  0  0  0
 37 38  1  0  0  0  0
 37 82  1  0  0  0  0
 37 83  1  0  0  0  0
 38 39  1  0  0  0  0
 38 84  1  0  0  0  0
 38 85  1  0  0  0  0
 39 86  1  0  0  0  0
 39 87  1  0  0  0  0
 40 88  1  0  0  0  0
 41 89  1  0  0  0  0
M  END
>  <DRUGBANK_ID>
DB12615

>  <COMMON_NAME>
Plazomicin

>  <CAS_NUMBER>
1154757-24-0

>  <UNII>
LYO9XZ250J

>  <SYNONYMS>
Plazomicin

$$$$
