
 OpenBabel10282417072D

159159  0  0  0  0  0  0  0  0999 V2000
    0.3547    0.0679    0.0000 O   0  0  0  0  0  0  0  0  0  0  0  0
   -0.3596   -0.3445    0.0000 C   0  0  2  0  0  0  0  0  0  0  0  0
   -0.3596   -1.1695    0.0000 C   0  0  1  0  0  0  0  0  0  0  0  0
   -1.0743    0.0679    0.0000 O   0  0  0  0  0  0  0  0  0  0  0  0
   -1.0743   -1.5820    0.0000 C   0  0  2  0  0  0  0  0  0  0  0  0
   -1.7888   -0.3445    0.0000 C   0  0  1  0  0  0  0  0  0  0  0  0
   -1.7888   -1.1695    0.0000 C   0  0  2  0  0  0  0  0  0  0  0  0
    0.3547   -1.5820    0.0000 O   0  0  0  0  0  0  0  0  0  0  0  0
   -1.0743   -2.4069    0.0000 O   0  0  0  0  0  0  0  0  0  0  0  0
   -2.5032   -1.5820    0.0000 O   0  0  0  0  0  0  0  0  0  0  0  0
   -2.5032    0.0679    0.0000 C   0  0  0  0  0  0  0  0  0  0  0  0
   -3.2177   -0.3445    0.0000 O   0  0  0  0  0  0  0  0  0  0  0  0
    8.2381    1.1413    0.0000 C   0  0  0  0  0  0  0  0  0  0  0  0
    8.9440    0.7140    0.0000 C   0  0  0  0  0  0  0  0  0  0  0  0
    6.0865    0.7733    0.0000 C   0  0  0  0  0  0  0  0  0  0  0  0
    3.9178   -0.4190    0.0000 C   0  0  0  0  0  0  0  0  0  0  0  0
    4.6408   -0.0215    0.0000 C   0  0  0  0  0  0  0  0  0  0  0  0
    5.3465   -0.4487    0.0000 C   0  0  0  0  0  0  0  0  0  0  0  0
    6.0693   -0.0513    0.0000 C   0  0  0  0  0  0  0  0  0  0  0  0
    6.7751   -0.4786    0.0000 C   0  0  0  0  0  0  0  0  0  0  0  0
    7.4981   -0.0810    0.0000 C   0  0  0  0  0  0  0  0  0  0  0  0
    8.2038   -0.5084    0.0000 C   0  0  0  0  0  0  0  0  0  0  0  0
    8.9267   -0.1109    0.0000 C   0  0  0  0  0  0  0  0  0  0  0  0
    7.5153    0.7435    0.0000 C   0  0  0  0  0  0  0  0  0  0  0  0
    6.8095    1.1709    0.0000 C   0  0  0  0  0  0  0  0  0  0  0  0
    3.2119    0.0084    0.0000 C   0  0  2  0  0  0  0  0  0  0  0  0
    2.4891   -0.3893    0.0000 C   0  0  2  0  0  0  0  0  0  0  0  0
    1.7833    0.0380    0.0000 C   0  0  2  0  0  0  0  0  0  0  0  0
    1.0604   -0.3594    0.0000 C   0  0  0  0  0  0  0  0  0  0  0  0
    5.3808    1.2003    0.0000 C   0  0  0  0  0  0  0  0  0  0  0  0
    2.4718   -1.2139    0.0000 O   0  0  0  0  0  0  0  0  0  0  0  0
    1.8005    0.8628    0.0000 N   0  0  0  0  0  0  0  0  0  0  0  0
    1.0760    1.2576    0.0000 C   0  0  0  0  0  0  0  0  0  0  0  0
    0.3720    0.8278    0.0000 C   0  0  0  0  0  0  0  0  0  0  0  0
   -7.5155    1.8712    0.0000 C   0  0  0  0  0  0  0  0  0  0  0  0
   -6.8114    2.3012    0.0000 C   0  0  0  0  0  0  0  0  0  0  0  0
   -6.0869    1.9063    0.0000 C   0  0  0  0  0  0  0  0  0  0  0  0
   -5.3828    2.3365    0.0000 C   0  0  0  0  0  0  0  0  0  0  0  0
   -4.6585    1.9416    0.0000 C   0  0  0  0  0  0  0  0  0  0  0  0
   -3.9544    2.3716    0.0000 C   0  0  0  0  0  0  0  0  0  0  0  0
   -3.2299    1.9769    0.0000 C   0  0  0  0  0  0  0  0  0  0  0  0
   -2.5256    2.4069    0.0000 C   0  0  0  0  0  0  0  0  0  0  0  0
   -1.8013    2.0120    0.0000 C   0  0  0  0  0  0  0  0  0  0  0  0
   -7.4951    1.0464    0.0000 C   0  0  0  0  0  0  0  0  0  0  0  0
   -6.7707    0.6517    0.0000 C   0  0  0  0  0  0  0  0  0  0  0  0
   -6.0665    1.0817    0.0000 C   0  0  0  0  0  0  0  0  0  0  0  0
   -5.3420    0.6869    0.0000 C   0  0  0  0  0  0  0  0  0  0  0  0
   -4.6379    1.1168    0.0000 C   0  0  0  0  0  0  0  0  0  0  0  0
   -3.9135    0.7220    0.0000 C   0  0  0  0  0  0  0  0  0  0  0  0
   -3.2093    1.1521    0.0000 C   0  0  0  0  0  0  0  0  0  0  0  0
   -2.4849    0.7573    0.0000 C   0  0  0  0  0  0  0  0  0  0  0  0
   -1.7808    1.1872    0.0000 C   0  0  0  0  0  0  0  0  0  0  0  0
   -1.0564    0.7925    0.0000 C   0  0  0  0  0  0  0  0  0  0  0  0
   -0.3524    1.2225    0.0000 C   0  0  0  0  0  0  0  0  0  0  0  0
    1.0557    2.0826    0.0000 O   0  0  0  0  0  0  0  0  0  0  0  0
    3.2292    0.8332    0.0000 O   0  0  0  0  0  0  0  0  0  0  0  0
   -8.1991    0.6164    0.0000 C   0  0  0  0  0  0  0  0  0  0  0  0
   -8.9236    1.0113    0.0000 C   0  0  0  0  0  0  0  0  0  0  0  0
   -8.9440    1.8361    0.0000 C   0  0  0  0  0  0  0  0  0  0  0  0
   -8.2398    2.2660    0.0000 C   0  0  0  0  0  0  0  0  0  0  0  0
    0.5670   -0.8795    0.0000 H   0  0  0  0  0  0  0  0  0  0  0  0
    0.5671   -0.6345    0.0000 H   0  0  0  0  0  0  0  0  0  0  0  0
   -0.1477   -2.1171    0.0000 H   0  0  0  0  0  0  0  0  0  0  0  0
   -1.7888    0.7255    0.0000 H   0  0  0  0  0  0  0  0  0  0  0  0
   -1.7888   -2.2395    0.0000 H   0  0  0  0  0  0  0  0  0  0  0  0
    0.3546   -2.5520    0.0000 H   0  0  0  0  0  0  0  0  0  0  0  0
   -1.9143   -2.8919    0.0000 H   0  0  0  0  0  0  0  0  0  0  0  0
   -3.3433   -1.0970    0.0000 H   0  0  0  0  0  0  0  0  0  0  0  0
   -2.5032    1.1379    0.0000 H   0  0  0  0  0  0  0  0  0  0  0  0
   -3.4298    0.6030    0.0000 H   0  0  0  0  0  0  0  0  0  0  0  0
   -4.0577    0.1406    0.0000 H   0  0  0  0  0  0  0  0  0  0  0  0
    8.2601    2.2111    0.0000 H   0  0  0  0  0  0  0  0  0  0  0  0
    7.3226    1.6952    0.0000 H   0  0  0  0  0  0  0  0  0  0  0  0
    9.8816    1.2296    0.0000 H   0  0  0  0  0  0  0  0  0  0  0  0
    9.8593    0.1597    0.0000 H   0  0  0  0  0  0  0  0  0  0  0  0
    6.0644   -0.2965    0.0000 H   0  0  0  0  0  0  0  0  0  0  0  0
    7.0019    0.2192    0.0000 H   0  0  0  0  0  0  0  0  0  0  0  0
    3.8955   -1.4888    0.0000 H   0  0  0  0  0  0  0  0  0  0  0  0
    2.9802   -0.9346    0.0000 H   0  0  0  0  0  0  0  0  0  0  0  0
    4.6631    1.0483    0.0000 H   0  0  0  0  0  0  0  0  0  0  0  0
    5.5784    0.4941    0.0000 H   0  0  0  0  0  0  0  0  0  0  0  0
    5.3242   -1.5185    0.0000 H   0  0  0  0  0  0  0  0  0  0  0  0
    6.2618   -1.0029    0.0000 H   0  0  0  0  0  0  0  0  0  0  0  0
    6.0916    1.0185    0.0000 H   0  0  0  0  0  0  0  0  0  0  0  0
    7.0069    0.4643    0.0000 H   0  0  0  0  0  0  0  0  0  0  0  0
    6.7528   -1.5484    0.0000 H   0  0  0  0  0  0  0  0  0  0  0  0
    7.6904   -1.0328    0.0000 H   0  0  0  0  0  0  0  0  0  0  0  0
    7.5204    0.9888    0.0000 H   0  0  0  0  0  0  0  0  0  0  0  0
    8.4357    0.4345    0.0000 H   0  0  0  0  0  0  0  0  0  0  0  0
    8.1814   -1.5782    0.0000 H   0  0  0  0  0  0  0  0  0  0  0  0
    9.1191   -1.0626    0.0000 H   0  0  0  0  0  0  0  0  0  0  0  0
    9.8420   -0.6652    0.0000 H   0  0  0  0  0  0  0  0  0  0  0  0
    9.8643    0.4046    0.0000 H   0  0  0  0  0  0  0  0  0  0  0  0
    7.4932   -0.3263    0.0000 H   0  0  0  0  0  0  0  0  0  0  0  0
    6.5777    0.2279    0.0000 H   0  0  0  0  0  0  0  0  0  0  0  0
    6.8318    2.2407    0.0000 H   0  0  0  0  0  0  0  0  0  0  0  0
    7.7471    1.6864    0.0000 H   0  0  0  0  0  0  0  0  0  0  0  0
    4.1495    0.5239    0.0000 H   0  0  0  0  0  0  0  0  0  0  0  0
    3.4044   -0.9434    0.0000 H   0  0  0  0  0  0  0  0  0  0  0  0
    2.7209    0.5536    0.0000 H   0  0  0  0  0  0  0  0  0  0  0  0
    1.0380   -1.4292    0.0000 H   0  0  0  0  0  0  0  0  0  0  0  0
    0.1228   -0.8749    0.0000 H   0  0  0  0  0  0  0  0  0  0  0  0
    5.4028    2.2701    0.0000 H   0  0  0  0  0  0  0  0  0  0  0  0
    4.4434    0.6844    0.0000 H   0  0  0  0  0  0  0  0  0  0  0  0
    4.4653    1.7542    0.0000 H   0  0  0  0  0  0  0  0  0  0  0  0
    1.6218   -1.6812    0.0000 H   0  0  0  0  0  0  0  0  0  0  0  0
    2.6522    1.3567    0.0000 H   0  0  0  0  0  0  0  0  0  0  0  0
    0.3983   -0.2419    0.0000 H   0  0  0  0  0  0  0  0  0  0  0  0
   -0.5412    0.2701    0.0000 H   0  0  0  0  0  0  0  0  0  0  0  0
   -7.4892    0.8015    0.0000 H   0  0  0  0  0  0  0  0  0  0  0  0
   -8.4287    1.3136    0.0000 H   0  0  0  0  0  0  0  0  0  0  0  0
   -6.8377    3.3709    0.0000 H   0  0  0  0  0  0  0  0  0  0  0  0
   -5.8982    2.8588    0.0000 H   0  0  0  0  0  0  0  0  0  0  0  0
   -6.0605    0.8366    0.0000 H   0  0  0  0  0  0  0  0  0  0  0  0
   -5.1473    1.3944    0.0000 H   0  0  0  0  0  0  0  0  0  0  0  0
   -5.4092    3.4062    0.0000 H   0  0  0  0  0  0  0  0  0  0  0  0
   -4.4696    2.8941    0.0000 H   0  0  0  0  0  0  0  0  0  0  0  0
   -4.6322    0.8719    0.0000 H   0  0  0  0  0  0  0  0  0  0  0  0
   -3.7190    1.4296    0.0000 H   0  0  0  0  0  0  0  0  0  0  0  0
   -3.9808    3.4413    0.0000 H   0  0  0  0  0  0  0  0  0  0  0  0
   -3.0413    2.9294    0.0000 H   0  0  0  0  0  0  0  0  0  0  0  0
   -3.2035    0.9072    0.0000 H   0  0  0  0  0  0  0  0  0  0  0  0
   -2.2904    1.4648    0.0000 H   0  0  0  0  0  0  0  0  0  0  0  0
   -2.5518    3.4766    0.0000 H   0  0  0  0  0  0  0  0  0  0  0  0
   -1.6123    2.9644    0.0000 H   0  0  0  0  0  0  0  0  0  0  0  0
   -1.7752    0.9423    0.0000 H   0  0  0  0  0  0  0  0  0  0  0  0
   -0.8880    2.5695    0.0000 H   0  0  0  0  0  0  0  0  0  0  0  0
   -0.8619    1.4998    0.0000 H   0  0  0  0  0  0  0  0  0  0  0  0
   -7.5215    2.1161    0.0000 H   0  0  0  0  0  0  0  0  0  0  0  0
   -8.4347    1.5583    0.0000 H   0  0  0  0  0  0  0  0  0  0  0  0
   -6.7443   -0.4180    0.0000 H   0  0  0  0  0  0  0  0  0  0  0  0
   -5.8312    0.1397    0.0000 H   0  0  0  0  0  0  0  0  0  0  0  0
   -6.0928    2.1514    0.0000 H   0  0  0  0  0  0  0  0  0  0  0  0
   -5.1533    1.6394    0.0000 H   0  0  0  0  0  0  0  0  0  0  0  0
   -5.3157   -0.3828    0.0000 H   0  0  0  0  0  0  0  0  0  0  0  0
   -4.4025    0.1748    0.0000 H   0  0  0  0  0  0  0  0  0  0  0  0
   -4.6642    2.1865    0.0000 H   0  0  0  0  0  0  0  0  0  0  0  0
   -3.7247    1.6744    0.0000 H   0  0  0  0  0  0  0  0  0  0  0  0
   -3.8871   -0.3477    0.0000 H   0  0  0  0  0  0  0  0  0  0  0  0
   -2.9739    0.2100    0.0000 H   0  0  0  0  0  0  0  0  0  0  0  0
   -3.2357    2.2218    0.0000 H   0  0  0  0  0  0  0  0  0  0  0  0
   -2.2961    1.7098    0.0000 H   0  0  0  0  0  0  0  0  0  0  0  0
   -2.4586   -0.3124    0.0000 H   0  0  0  0  0  0  0  0  0  0  0  0
   -1.5454    0.2452    0.0000 H   0  0  0  0  0  0  0  0  0  0  0  0
   -1.8072    2.2569    0.0000 H   0  0  0  0  0  0  0  0  0  0  0  0
   -0.8676    1.7449    0.0000 H   0  0  0  0  0  0  0  0  0  0  0  0
   -1.0300   -0.2772    0.0000 H   0  0  0  0  0  0  0  0  0  0  0  0
   -0.1168    0.2806    0.0000 H   0  0  0  0  0  0  0  0  0  0  0  0
   -0.3788    2.2922    0.0000 H   0  0  0  0  0  0  0  0  0  0  0  0
   -1.2920    1.7344    0.0000 H   0  0  0  0  0  0  0  0  0  0  0  0
    4.0792    1.3005    0.0000 H   0  0  0  0  0  0  0  0  0  0  0  0
   -8.1727   -0.4533    0.0000 H   0  0  0  0  0  0  0  0  0  0  0  0
   -9.1123    0.0588    0.0000 H   0  0  0  0  0  0  0  0  0  0  0  0
   -9.8368    0.4536    0.0000 H   0  0  0  0  0  0  0  0  0  0  0  0
   -9.8632    1.5233    0.0000 H   0  0  0  0  0  0  0  0  0  0  0  0
   -9.8835    2.3481    0.0000 H   0  0  0  0  0  0  0  0  0  0  0  0
   -8.9703    2.9058    0.0000 H   0  0  0  0  0  0  0  0  0  0  0  0
   -8.2660    3.3357    0.0000 H   0  0  0  0  0  0  0  0  0  0  0  0
   -9.1793    2.7781    0.0000 H   0  0  0  0  0  0  0  0  0  0  0  0
  2  3  1  0  0  0  0
  2  4  1  0  0  0  0
  2  1  1  0  0  0  0
  2 61  1  1  0  0  0
  3  5  1  0  0  0  0
  3  8  1  0  0  0  0
  3 62  1  1  0  0  0
  4  6  1  0  0  0  0
  5  7  1  0  0  0  0
  5  9  1  0  0  0  0
  5 63  1  6  0  0  0
  6  7  1  0  0  0  0
  6 11  1  0  0  0  0
  6 64  1  6  0  0  0
  7 10  1  0  0  0  0
  7 65  1  6  0  0  0
  8 66  1  0  0  0  0
  9 67  1  0  0  0  0
 10 68  1  0  0  0  0
 11 69  1  0  0  0  0
 11 70  1  0  0  0  0
 12 11  1  0  0  0  0
 12 71  1  0  0  0  0
 13 24  1  0  0  0  0
 13 72  1  0  0  0  0
 13 73  1  0  0  0  0
 14 13  1  0  0  0  0
 14 74  1  0  0  0  0
 14 75  1  0  0  0  0
 15 30  1  0  0  0  0
 15 76  1  0  0  0  0
 15 77  1  0  0  0  0
 16 17  1  0  0  0  0
 16 78  1  0  0  0  0
 16 79  1  0  0  0  0
 17 18  1  0  0  0  0
 17 80  1  0  0  0  0
 17 81  1  0  0  0  0
 18 19  1  0  0  0  0
 18 82  1  0  0  0  0
 18 83  1  0  0  0  0
 19 20  1  0  0  0  0
 19 84  1  0  0  0  0
 19 85  1  0  0  0  0
 20 21  1  0  0  0  0
 20 86  1  0  0  0  0
 20 87  1  0  0  0  0
 21 22  1  0  0  0  0
 21 88  1  0  0  0  0
 21 89  1  0  0  0  0
 22 23  1  0  0  0  0
 22 90  1  0  0  0  0
 22 91  1  0  0  0  0
 23 14  1  0  0  0  0
 23 92  1  0  0  0  0
 23 93  1  0  0  0  0
 24 25  1  0  0  0  0
 24 94  1  0  0  0  0
 24 95  1  0  0  0  0
 25 15  1  0  0  0  0
 25 96  1  0  0  0  0
 25 97  1  0  0  0  0
 26 16  1  0  0  0  0
 26 56  1  0  0  0  0
 26 98  1  1  0  0  0
 27 26  1  0  0  0  0
 27 31  1  0  0  0  0
 27 28  1  0  0  0  0
 27 99  1  6  0  0  0
 28 29  1  0  0  0  0
 28 32  1  0  0  0  0
 28100  1  1  0  0  0
 29  1  1  0  0  0  0
 29101  1  0  0  0  0
 29102  1  0  0  0  0
 30103  1  0  0  0  0
 30104  1  0  0  0  0
 30105  1  0  0  0  0
 31106  1  0  0  0  0
 32 33  1  0  0  0  0
 32107  1  0  0  0  0
 33 34  1  0  0  0  0
 33 55  2  0  0  0  0
 34108  1  0  0  0  0
 34109  1  0  0  0  0
 35 36  1  0  0  0  0
 35110  1  0  0  0  0
 35111  1  0  0  0  0
 36 37  1  0  0  0  0
 36112  1  0  0  0  0
 36113  1  0  0  0  0
 37 38  1  0  0  0  0
 37114  1  0  0  0  0
 37115  1  0  0  0  0
 38 39  1  0  0  0  0
 38116  1  0  0  0  0
 38117  1  0  0  0  0
 39 40  1  0  0  0  0
 39118  1  0  0  0  0
 39119  1  0  0  0  0
 40 41  1  0  0  0  0
 40120  1  0  0  0  0
 40121  1  0  0  0  0
 41 42  1  0  0  0  0
 41122  1  0  0  0  0
 41123  1  0  0  0  0
 42 43  1  0  0  0  0
 42124  1  0  0  0  0
 42125  1  0  0  0  0
 43126  1  0  0  0  0
 43127  1  0  0  0  0
 43128  1  0  0  0  0
 44 45  1  0  0  0  0
 44129  1  0  0  0  0
 44130  1  0  0  0  0
 45 46  1  0  0  0  0
 45131  1  0  0  0  0
 45132  1  0  0  0  0
 46 47  1  0  0  0  0
 46133  1  0  0  0  0
 46134  1  0  0  0  0
 47 48  1  0  0  0  0
 47135  1  0  0  0  0
 47136  1  0  0  0  0
 48 49  1  0  0  0  0
 48137  1  0  0  0  0
 48138  1  0  0  0  0
 49 50  1  0  0  0  0
 49139  1  0  0  0  0
 49140  1  0  0  0  0
 50 51  1  0  0  0  0
 50141  1  0  0  0  0
 50142  1  0  0  0  0
 51 52  1  0  0  0  0
 51143  1  0  0  0  0
 51144  1  0  0  0  0
 52 53  1  0  0  0  0
 52145  1  0  0  0  0
 52146  1  0  0  0  0
 53 54  1  0  0  0  0
 53147  1  0  0  0  0
 53148  1  0  0  0  0
 54 34  1  0  0  0  0
 54149  1  0  0  0  0
 54150  1  0  0  0  0
 56151  1  0  0  0  0
 57 44  1  0  0  0  0
 57 58  1  0  0  0  0
 57152  1  0  0  0  0
 57153  1  0  0  0  0
 58 59  1  0  0  0  0
 58154  1  0  0  0  0
 58155  1  0  0  0  0
 59 60  1  0  0  0  0
 59156  1  0  0  0  0
 59157  1  0  0  0  0
 60 35  1  0  0  0  0
 60158  1  0  0  0  0
 60159  1  0  0  0  0
M  END
>  <DRUGBANK_ID>
DB12232

>  <COMMON_NAME>
KRN-7000

>  <CAS_NUMBER>
158021-47-7

>  <UNII>
WX671898JF

>  <SYNONYMS>
1-O-(α-D-galactopyranosyl)-N-hexacosanoylphytosphingosine

$$$$
