
 OpenBabel10282417072D

 51 53  0  0  0  0  0  0  0  0999 V2000
   -2.7754    1.7296    0.0000 C   0  0  0  0  0  0  0  0  0  0  0  0
   -2.7754    0.9002    0.0000 N   0  0  0  0  0  0  0  0  0  0  0  0
   -2.0623    0.4925    0.0000 C   0  0  0  0  0  0  0  0  0  0  0  0
   -1.3493    0.9002    0.0000 C   0  0  0  0  0  0  0  0  0  0  0  0
   -1.3493    1.7296    0.0000 C   0  0  0  0  0  0  0  0  0  0  0  0
   -2.0623    2.1467    0.0000 C   0  0  0  0  0  0  0  0  0  0  0  0
   -0.6394    2.1467    0.0000 N   0  0  0  0  0  0  0  0  0  0  0  0
    0.0741    1.7296    0.0000 C   0  0  0  0  0  0  0  0  0  0  0  0
    0.0741    0.9055    0.0000 N   0  0  0  0  0  0  0  0  0  0  0  0
    0.7826    0.4933    0.0000 C   0  0  0  0  0  0  0  0  0  0  0  0
    1.4983    0.9037    0.0000 C   0  0  0  0  0  0  0  0  0  0  0  0
    1.4983    1.7315    0.0000 C   0  0  0  0  0  0  0  0  0  0  0  0
    0.7832    2.1442    0.0000 N   0  0  0  0  0  0  0  0  0  0  0  0
    2.2056    2.1512    0.0000 N   0  0  0  0  0  0  0  0  0  0  0  0
    2.0805    0.3209    0.0000 C   0  0  0  0  0  0  0  0  0  0  0  0
    2.0805   -0.5037    0.0000 C   0  0  0  0  0  0  0  0  0  0  0  0
    2.7861   -0.9155    0.0000 C   0  0  0  0  0  0  0  0  0  0  0  0
    2.7861   -1.7379    0.0000 C   0  0  0  0  0  0  0  0  0  0  0  0
    2.0642   -2.1512    0.0000 C   0  0  0  0  0  0  0  0  0  0  0  0
    1.3551   -1.7339    0.0000 C   0  0  0  0  0  0  0  0  0  0  0  0
    1.3551   -0.9099    0.0000 C   0  0  0  0  0  0  0  0  0  0  0  0
    0.3800   -0.4898    0.0000 F   0  0  0  0  0  0  0  0  0  0  0  0
    0.6301   -2.1440    0.0000 F   0  0  0  0  0  0  0  0  0  0  0  0
    3.4983   -0.4944    0.0000 O   0  0  0  0  0  0  0  0  0  0  0  0
    4.2119   -0.9067    0.0000 C   0  0  0  0  0  0  0  0  0  0  0  0
    2.7941    0.7380    0.0000 O   0  0  0  0  0  0  0  0  0  0  0  0
   -3.4936    0.4925    0.0000 S   0  0  0  0  0  0  0  0  0  0  0  0
   -3.0859   -0.2210    0.0000 O   0  0  0  0  0  0  0  0  0  0  0  0
   -3.9107    1.2105    0.0000 O   0  0  0  0  0  0  0  0  0  0  0  0
   -4.2119    0.0846    0.0000 C   0  0  0  0  0  0  0  0  0  0  0  0
   -3.7036    2.2620    0.0000 H   0  0  0  0  0  0  0  0  0  0  0  0
   -2.7799    2.7996    0.0000 H   0  0  0  0  0  0  0  0  0  0  0  0
   -2.0623   -0.5775    0.0000 H   0  0  0  0  0  0  0  0  0  0  0  0
   -1.1368   -0.0444    0.0000 H   0  0  0  0  0  0  0  0  0  0  0  0
   -0.4238    0.3633    0.0000 H   0  0  0  0  0  0  0  0  0  0  0  0
   -0.4221    1.4342    0.0000 H   0  0  0  0  0  0  0  0  0  0  0  0
   -1.3503    2.7996    0.0000 H   0  0  0  0  0  0  0  0  0  0  0  0
   -2.0623    3.2167    0.0000 H   0  0  0  0  0  0  0  0  0  0  0  0
   -2.9904    2.6791    0.0000 H   0  0  0  0  0  0  0  0  0  0  0  0
   -0.6405    3.1312    0.0000 H   0  0  0  0  0  0  0  0  0  0  0  0
    0.7794   -0.5387    0.0000 H   0  0  0  0  0  0  0  0  0  0  0  0
    3.0640    1.6692    0.0000 H   0  0  0  0  0  0  0  0  0  0  0  0
    2.1938    3.1356    0.0000 H   0  0  0  0  0  0  0  0  0  0  0  0
    3.6789   -2.2555    0.0000 H   0  0  0  0  0  0  0  0  0  0  0  0
    2.0580   -3.1832    0.0000 H   0  0  0  0  0  0  0  0  0  0  0  0
    4.2116   -1.9767    0.0000 H   0  0  0  0  0  0  0  0  0  0  0  0
    5.1387   -0.3720    0.0000 H   0  0  0  0  0  0  0  0  0  0  0  0
    5.1384   -1.4420    0.0000 H   0  0  0  0  0  0  0  0  0  0  0  0
   -5.1347    0.6262    0.0000 H   0  0  0  0  0  0  0  0  0  0  0  0
   -4.2195   -0.9854    0.0000 H   0  0  0  0  0  0  0  0  0  0  0  0
   -5.1423   -0.4438    0.0000 H   0  0  0  0  0  0  0  0  0  0  0  0
  1  2  1  0  0  0  0
  1  6  1  0  0  0  0
  1 31  1  0  0  0  0
  1 32  1  0  0  0  0
  2  3  1  0  0  0  0
  2 27  1  0  0  0  0
  3  4  1  0  0  0  0
  3 33  1  0  0  0  0
  3 34  1  0  0  0  0
  4  5  1  0  0  0  0
  4 35  1  0  0  0  0
  4 36  1  0  0  0  0
  5  6  1  0  0  0  0
  5  7  1  0  0  0  0
  5 37  1  0  0  0  0
  6 38  1  0  0  0  0
  6 39  1  0  0  0  0
  7  8  1  0  0  0  0
  7 40  1  0  0  0  0
  8  9  2  0  0  0  0
  9 10  1  0  0  0  0
 10 11  2  0  0  0  0
 10 41  1  0  0  0  0
 11 12  1  0  0  0  0
 11 15  1  0  0  0  0
 12 13  2  0  0  0  0
 12 14  1  0  0  0  0
 13  8  1  0  0  0  0
 14 42  1  0  0  0  0
 14 43  1  0  0  0  0
 15 16  1  0  0  0  0
 15 26  2  0  0  0  0
 16 21  2  0  0  0  0
 17 16  1  0  0  0  0
 17 24  1  0  0  0  0
 18 17  2  0  0  0  0
 18 44  1  0  0  0  0
 19 18  1  0  0  0  0
 19 45  1  0  0  0  0
 20 19  2  0  0  0  0
 20 23  1  0  0  0  0
 21 20  1  0  0  0  0
 21 22  1  0  0  0  0
 24 25  1  0  0  0  0
 25 46  1  0  0  0  0
 25 47  1  0  0  0  0
 25 48  1  0  0  0  0
 27 28  2  0  0  0  0
 27 29  2  0  0  0  0
 27 30  1  0  0  0  0
 30 49  1  0  0  0  0
 30 50  1  0  0  0  0
 30 51  1  0  0  0  0
M  END
>  <DRUGBANK_ID>
DB08094

>  <COMMON_NAME>
RO-4584820

>  <CAS_NUMBER>
741713-40-6

>  <UNII>
T61871RKRI

$$$$
