658
 OpenBabel10282417072D

 21 20  0  0  1  0  0  0  0  0999 V2000
    0.1473    0.8043    0.0000 Cl  0  0  0  0  0  0  0  0  0  0  0  0
    1.9889    1.5189    0.0000 O   0  0  0  0  0  0  0  0  0  0  0  0
    0.4430    3.6804    0.0000 N   0  0  0  0  0  0  0  0  0  0  0  0
    1.5764    0.8043    0.0000 C   0  0  3  0  0  0  0  0  0  0  0  0
    2.4014    0.8043    0.0000 C   0  0  0  0  0  0  0  0  0  0  0  0
    0.8619    0.3918    0.0000 C   0  0  0  0  0  0  0  0  0  0  0  0
    1.1575    4.0929    0.0000 C   0  0  0  0  0  0  0  0  0  0  0  0
    1.8720    3.6804    0.0000 C   0  0  0  0  0  0  0  0  0  0  0  0
    2.5864    4.0929    0.0000 C   0  0  0  0  0  0  0  0  0  0  0  0
   -0.4403    4.1904    0.0000 H   0  0  0  0  0  0  0  0  0  0  0  0
    0.4430    2.6604    0.0000 H   0  0  0  0  0  0  0  0  0  0  0  0
    2.5030    1.3393    0.0000 H   0  0  0  0  0  0  0  0  0  0  0  0
    3.3280    0.2693    0.0000 H   0  0  0  0  0  0  0  0  0  0  0  0
    2.1244   -0.2292    0.0000 H   0  0  0  0  0  0  0  0  0  0  0  0
    0.8619   -0.6782    0.0000 H   0  0  0  0  0  0  0  0  0  0  0  0
    1.7886   -0.1432    0.0000 H   0  0  0  0  0  0  0  0  0  0  0  0
    1.1575    5.1629    0.0000 H   0  0  0  0  0  0  0  0  0  0  0  0
    2.0841    4.6279    0.0000 H   0  0  0  0  0  0  0  0  0  0  0  0
    1.8720    2.6484    0.0000 H   0  0  0  0  0  0  0  0  0  0  0  0
    3.4802    3.5769    0.0000 H   0  0  0  0  0  0  0  0  0  0  0  0
    2.5864    5.1249    0.0000 H   0  0  0  0  0  0  0  0  0  0  0  0
  1  6  1  0  0  0  0
  2  4  1  0  0  0  0
  2  5  1  0  0  0  0
  3  7  1  0  0  0  0
  3 10  1  0  0  0  0
  3 11  1  0  0  0  0
  4  5  1  0  0  0  0
  4  6  1  0  0  0  0
  4 12  1  0  0  0  0
  5 13  1  0  0  0  0
  5 14  1  0  0  0  0
  6 15  1  0  0  0  0
  6 16  1  0  0  0  0
  7  8  1  0  0  0  0
  7 17  1  0  0  0  0
  7 18  1  0  0  0  0
  8  9  2  0  0  0  0
  8 19  1  0  0  0  0
  9 20  1  0  0  0  0
  9 21  1  0  0  0  0
M  END
>  <DRUGBANK_ID>
DB00658

>  <SECONDARY_ACCESSION_NUMBERS>
APRD01226

>  <COMMON_NAME>
Sevelamer

>  <CAS_NUMBER>
52757-95-6

>  <UNII>
941N5DUU5C

>  <SYNONYMS>
Sevelamer; Sévélamer; Sevelamero; Sevelamerum

$$$$
