
 OpenBabel10282417072D

 53 56  0  0  1  0  0  0  0  0999 V2000
   -0.6313    0.4816    0.0000 C   0  0  0  0  0  0  0  0  0  0  0  0
   -0.6313   -0.3341    0.0000 C   0  0  2  0  0  0  0  0  0  0  0  0
   -1.3456    0.0852    0.0000 C   0  0  0  0  0  0  0  0  0  0  0  0
   -2.0645   -0.3341    0.0000 C   0  0  0  0  0  0  0  0  0  0  0  0
   -2.0645   -1.1591    0.0000 C   0  0  1  0  0  0  0  0  0  0  0  0
   -2.7743   -1.5691    0.0000 O   0  0  0  0  0  0  0  0  0  0  0  0
   -1.3456   -1.5692    0.0000 C   0  0  0  0  0  0  0  0  0  0  0  0
   -0.6313   -1.1591    0.0000 C   0  0  2  0  0  0  0  0  0  0  0  0
   -0.6313   -1.9792    0.0000 H   0  0  0  0  0  0  0  0  0  0  0  0
    0.0783   -1.5692    0.0000 C   0  0  0  0  0  0  0  0  0  0  0  0
    0.7926   -1.1591    0.0000 C   0  0  0  0  0  0  0  0  0  0  0  0
    0.7926   -0.3341    0.0000 C   0  0  1  0  0  0  0  0  0  0  0  0
    0.7926    0.4816    0.0000 H   0  0  0  0  0  0  0  0  0  0  0  0
    1.5024    0.0852    0.0000 C   0  0  1  0  0  0  0  0  0  0  0  0
    1.5024   -0.7350    0.0000 H   0  0  0  0  0  0  0  0  0  0  0  0
    1.5024    0.8963    0.0000 C   0  0  2  0  0  0  0  0  0  0  0  0
    1.5024    1.7213    0.0000 C   0  0  0  0  0  0  0  0  0  0  0  0
    0.7926    1.3203    0.0000 C   0  0  0  0  0  0  0  0  0  0  0  0
    0.0783    0.8963    0.0000 C   0  0  0  0  0  0  0  0  0  0  0  0
    0.0783    0.0852    0.0000 C   0  0  2  0  0  0  0  0  0  0  0  0
    0.0783   -0.7350    0.0000 H   0  0  0  0  0  0  0  0  0  0  0  0
    2.2951    1.1544    0.0000 C   0  0  1  0  0  0  0  0  0  0  0  0
    2.2951    1.9792    0.0000 O   0  0  0  0  0  0  0  0  0  0  0  0
    2.7743    0.4955    0.0000 C   0  0  0  0  0  0  0  0  0  0  0  0
    2.2951   -0.1774    0.0000 C   0  0  0  0  0  0  0  0  0  0  0  0
    0.2953    1.0166    0.0000 H   0  0  0  0  0  0  0  0  0  0  0  0
   -1.5579    1.0166    0.0000 H   0  0  0  0  0  0  0  0  0  0  0  0
   -0.6313    1.5516    0.0000 H   0  0  0  0  0  0  0  0  0  0  0  0
   -1.3441    1.1552    0.0000 H   0  0  0  0  0  0  0  0  0  0  0  0
   -2.2731    0.6188    0.0000 H   0  0  0  0  0  0  0  0  0  0  0  0
   -2.9923    0.1989    0.0000 H   0  0  0  0  0  0  0  0  0  0  0  0
   -2.9906   -0.8701    0.0000 H   0  0  0  0  0  0  0  0  0  0  0  0
   -2.9912   -0.6242    0.0000 H   0  0  0  0  0  0  0  0  0  0  0  0
   -3.6144   -1.0843    0.0000 H   0  0  0  0  0  0  0  0  0  0  0  0
   -1.3441   -2.6392    0.0000 H   0  0  0  0  0  0  0  0  0  0  0  0
   -0.4192   -2.1047    0.0000 H   0  0  0  0  0  0  0  0  0  0  0  0
    0.0768   -2.6392    0.0000 H   0  0  0  0  0  0  0  0  0  0  0  0
    1.0039   -2.1060    0.0000 H   0  0  0  0  0  0  0  0  0  0  0  0
    1.7186   -1.6952    0.0000 H   0  0  0  0  0  0  0  0  0  0  0  0
    1.7196   -0.6247    0.0000 H   0  0  0  0  0  0  0  0  0  0  0  0
    2.4290    2.2563    0.0000 H   0  0  0  0  0  0  0  0  0  0  0  0
    0.5758    2.2563    0.0000 H   0  0  0  0  0  0  0  0  0  0  0  0
    1.5024    2.7913    0.0000 H   0  0  0  0  0  0  0  0  0  0  0  0
    0.7941    2.3903    0.0000 H   0  0  0  0  0  0  0  0  0  0  0  0
   -0.1369    1.8503    0.0000 H   0  0  0  0  0  0  0  0  0  0  0  0
   -0.8516    1.4257    0.0000 H   0  0  0  0  0  0  0  0  0  0  0  0
   -0.8467    0.3585    0.0000 H   0  0  0  0  0  0  0  0  0  0  0  0
    1.4293    1.7831    0.0000 H   0  0  0  0  0  0  0  0  0  0  0  0
    3.1351    2.4642    0.0000 H   0  0  0  0  0  0  0  0  0  0  0  0
    3.8443    0.5008    0.0000 H   0  0  0  0  0  0  0  0  0  0  0  0
    3.2670   -0.4543    0.0000 H   0  0  0  0  0  0  0  0  0  0  0  0
    2.6277   -1.1944    0.0000 H   0  0  0  0  0  0  0  0  0  0  0  0
    1.5370   -0.9325    0.0000 H   0  0  0  0  0  0  0  0  0  0  0  0
  1 26  1  0  0  0  0
  1 27  1  0  0  0  0
  1 28  1  0  0  0  0
  2  1  1  1  0  0  0
  3  2  1  0  0  0  0
  3 29  1  0  0  0  0
  3 30  1  0  0  0  0
  4  3  1  0  0  0  0
  4 31  1  0  0  0  0
  4 32  1  0  0  0  0
  5  4  1  0  0  0  0
  5  6  1  0  0  0  0
  5  7  1  0  0  0  0
  5 33  1  1  0  0  0
  6 34  1  0  0  0  0
  7  8  1  0  0  0  0
  7 35  1  0  0  0  0
  7 36  1  0  0  0  0
  8  9  1  6  0  0  0
  8  2  1  0  0  0  0
 10  8  1  0  0  0  0
 10 37  1  0  0  0  0
 10 38  1  0  0  0  0
 11 10  1  0  0  0  0
 11 12  1  0  0  0  0
 11 39  1  0  0  0  0
 11 40  1  0  0  0  0
 12 13  1  1  0  0  0
 12 20  1  0  0  0  0
 14 12  1  0  0  0  0
 14 15  1  6  0  0  0
 16 14  1  0  0  0  0
 16 17  1  1  0  0  0
 16 18  1  0  0  0  0
 17 41  1  0  0  0  0
 17 42  1  0  0  0  0
 17 43  1  0  0  0  0
 18 19  1  0  0  0  0
 18 44  1  0  0  0  0
 18 45  1  0  0  0  0
 19 20  1  0  0  0  0
 19 46  1  0  0  0  0
 19 47  1  0  0  0  0
 20 21  1  6  0  0  0
 20  2  1  0  0  0  0
 22 16  1  0  0  0  0
 22 23  1  0  0  0  0
 22 24  1  0  0  0  0
 22 48  1  6  0  0  0
 23 49  1  0  0  0  0
 24 25  1  0  0  0  0
 24 50  1  0  0  0  0
 24 51  1  0  0  0  0
 25 14  1  0  0  0  0
 25 52  1  0  0  0  0
 25 53  1  0  0  0  0
M  END
>  <DRUGBANK_ID>
DB01530

>  <COMMON_NAME>
5alpha-androstane-3alpha,17beta-diol

>  <CAS_NUMBER>
1852-53-5

>  <UNII>
J34MX0M30Y

>  <SYNONYMS>
17beta-dihydroandrosterone; 3alpha-androstanediol; 3alpha,17beta-dihydroxy-5alpha-androstane; 3α,17β-dihydroxy-5α-androstane; Dihydroandrosterone; hombreol

$$$$
