
 OpenBabel10282417072D

 73 74  0  0  0  0  0  0  0  0999 V2000
    9.2881   11.9625    0.0000 C   0  0  0  0  0  0  0  0  0  0  0  0
   10.0026   10.7250    0.0000 C   0  0  0  0  0  0  0  0  0  0  0  0
    8.5737    8.2500    0.0000 C   0  0  0  0  0  0  0  0  0  0  0  0
    7.1447    5.7750    0.0000 C   0  0  0  0  0  0  0  0  0  0  0  0
    5.7158    3.3000    0.0000 C   0  0  0  0  0  0  0  0  0  0  0  0
    4.2868    0.8250    0.0000 C   0  0  0  0  0  0  0  0  0  0  0  0
    0.7145    1.2375    0.0000 C   0  0  0  0  0  0  0  0  0  0  0  0
    0.7145    2.0625    0.0000 C   0  0  0  0  0  0  0  0  0  0  0  0
    8.5737    9.9000    0.0000 C   0  0  0  0  0  0  0  0  0  0  0  0
    7.1447    7.4250    0.0000 C   0  0  0  0  0  0  0  0  0  0  0  0
    5.7158    4.9500    0.0000 C   0  0  0  0  0  0  0  0  0  0  0  0
    8.5737   10.7250    0.0000 C   0  0  0  0  0  0  0  0  0  0  0  0
    7.8592    9.4875    0.0000 C   0  0  0  0  0  0  0  0  0  0  0  0
    7.1447    8.2500    0.0000 C   0  0  0  0  0  0  0  0  0  0  0  0
    6.4302    7.0125    0.0000 C   0  0  0  0  0  0  0  0  0  0  0  0
    5.7158    5.7750    0.0000 C   0  0  0  0  0  0  0  0  0  0  0  0
    5.0013    4.5375    0.0000 C   0  0  0  0  0  0  0  0  0  0  0  0
    1.4289    0.8250    0.0000 C   0  0  0  0  0  0  0  0  0  0  0  0
    1.4289    2.4750    0.0000 C   0  0  0  0  0  0  0  0  0  0  0  0
    4.2868    3.3000    0.0000 C   0  0  0  0  0  0  0  0  0  0  0  0
    4.2868    2.4750    0.0000 C   0  0  0  0  0  0  0  0  0  0  0  0
    9.2881   11.1375    0.0000 C   0  0  0  0  0  0  0  0  0  0  0  0
    7.8592    8.6625    0.0000 C   0  0  0  0  0  0  0  0  0  0  0  0
    6.4302    6.1875    0.0000 C   0  0  0  0  0  0  0  0  0  0  0  0
    5.0013    3.7125    0.0000 C   0  0  0  0  0  0  0  0  0  0  0  0
    3.5724    1.2375    0.0000 C   0  0  0  0  0  0  0  0  0  0  0  0
    3.5724    2.0625    0.0000 C   0  0  0  0  0  0  0  0  0  0  0  0
    2.1434    1.2375    0.0000 C   0  0  0  0  0  0  0  0  0  0  0  0
    2.1434    2.0625    0.0000 C   0  0  0  0  0  0  0  0  0  0  0  0
    2.8579    0.8250    0.0000 C   0  0  0  0  0  0  0  0  0  0  0  0
    2.8579    2.4750    0.0000 C   0  0  0  0  0  0  0  0  0  0  0  0
    2.8579    0.0000    0.0000 O   0  0  0  0  0  0  0  0  0  0  0  0
    2.8579    3.3000    0.0000 O   0  0  0  0  0  0  0  0  0  0  0  0
    6.4302    8.6625    0.0000 H   0  0  0  0  0  0  0  0  0  0  0  0
    5.0013    6.1875    0.0000 H   0  0  0  0  0  0  0  0  0  0  0  0
    3.5724    3.7125    0.0000 H   0  0  0  0  0  0  0  0  0  0  0  0
   10.2147   12.4975    0.0000 H   0  0  0  0  0  0  0  0  0  0  0  0
    8.3615   12.4975    0.0000 H   0  0  0  0  0  0  0  0  0  0  0  0
    9.2881   13.0325    0.0000 H   0  0  0  0  0  0  0  0  0  0  0  0
   10.0026    9.6550    0.0000 H   0  0  0  0  0  0  0  0  0  0  0  0
   10.9292   11.2600    0.0000 H   0  0  0  0  0  0  0  0  0  0  0  0
   10.9293   10.1900    0.0000 H   0  0  0  0  0  0  0  0  0  0  0  0
    8.5737    7.1800    0.0000 H   0  0  0  0  0  0  0  0  0  0  0  0
    9.5003    8.7850    0.0000 H   0  0  0  0  0  0  0  0  0  0  0  0
    9.5004    7.7150    0.0000 H   0  0  0  0  0  0  0  0  0  0  0  0
    7.1447    4.7050    0.0000 H   0  0  0  0  0  0  0  0  0  0  0  0
    8.0713    6.3100    0.0000 H   0  0  0  0  0  0  0  0  0  0  0  0
    8.0714    5.2400    0.0000 H   0  0  0  0  0  0  0  0  0  0  0  0
    5.7158    2.2300    0.0000 H   0  0  0  0  0  0  0  0  0  0  0  0
    6.6424    3.8350    0.0000 H   0  0  0  0  0  0  0  0  0  0  0  0
    6.6425    2.7650    0.0000 H   0  0  0  0  0  0  0  0  0  0  0  0
    4.2868   -0.2450    0.0000 H   0  0  0  0  0  0  0  0  0  0  0  0
    5.2135    1.3600    0.0000 H   0  0  0  0  0  0  0  0  0  0  0  0
    5.2134    0.2900    0.0000 H   0  0  0  0  0  0  0  0  0  0  0  0
   -0.1792    0.7215    0.0000 H   0  0  0  0  0  0  0  0  0  0  0  0
   -0.1792    2.5785    0.0000 H   0  0  0  0  0  0  0  0  0  0  0  0
    9.5003    9.3650    0.0000 H   0  0  0  0  0  0  0  0  0  0  0  0
    8.5737    8.8300    0.0000 H   0  0  0  0  0  0  0  0  0  0  0  0
    8.0713    6.8900    0.0000 H   0  0  0  0  0  0  0  0  0  0  0  0
    7.1447    6.3550    0.0000 H   0  0  0  0  0  0  0  0  0  0  0  0
    6.6424    4.4150    0.0000 H   0  0  0  0  0  0  0  0  0  0  0  0
    5.7158    3.8800    0.0000 H   0  0  0  0  0  0  0  0  0  0  0  0
    7.6800   11.2410    0.0000 H   0  0  0  0  0  0  0  0  0  0  0  0
    6.9326   10.0225    0.0000 H   0  0  0  0  0  0  0  0  0  0  0  0
    6.9326    8.9525    0.0000 H   0  0  0  0  0  0  0  0  0  0  0  0
    5.5036    7.5475    0.0000 H   0  0  0  0  0  0  0  0  0  0  0  0
    5.5036    6.4775    0.0000 H   0  0  0  0  0  0  0  0  0  0  0  0
    4.0747    5.0725    0.0000 H   0  0  0  0  0  0  0  0  0  0  0  0
    4.0747    4.0025    0.0000 H   0  0  0  0  0  0  0  0  0  0  0  0
    1.4289   -0.2070    0.0000 H   0  0  0  0  0  0  0  0  0  0  0  0
    1.4289    3.5070    0.0000 H   0  0  0  0  0  0  0  0  0  0  0  0
    5.2135    1.9400    0.0000 H   0  0  0  0  0  0  0  0  0  0  0  0
    4.2868    1.4050    0.0000 H   0  0  0  0  0  0  0  0  0  0  0  0
  1 37  1  0  0  0  0
  1 38  1  0  0  0  0
  1 39  1  0  0  0  0
  2 40  1  0  0  0  0
  2 41  1  0  0  0  0
  2 42  1  0  0  0  0
  3 43  1  0  0  0  0
  3 44  1  0  0  0  0
  3 45  1  0  0  0  0
  4 46  1  0  0  0  0
  4 47  1  0  0  0  0
  4 48  1  0  0  0  0
  5 49  1  0  0  0  0
  5 50  1  0  0  0  0
  5 51  1  0  0  0  0
  6 52  1  0  0  0  0
  6 53  1  0  0  0  0
  6 54  1  0  0  0  0
  7 55  1  0  0  0  0
  8  7  2  0  0  0  0
  8 56  1  0  0  0  0
  9 57  1  0  0  0  0
  9 58  1  0  0  0  0
 10 59  1  0  0  0  0
 10 60  1  0  0  0  0
 11 61  1  0  0  0  0
 11 62  1  0  0  0  0
 12  9  1  0  0  0  0
 12 63  1  0  0  0  0
 13  9  1  0  0  0  0
 13 64  1  0  0  0  0
 13 65  1  0  0  0  0
 14 10  1  0  0  0  0
 15 10  1  0  0  0  0
 15 66  1  0  0  0  0
 15 67  1  0  0  0  0
 16 11  1  0  0  0  0
 17 11  1  0  0  0  0
 17 68  1  0  0  0  0
 17 69  1  0  0  0  0
 18  7  1  0  0  0  0
 18 70  1  0  0  0  0
 19  8  1  0  0  0  0
 19 71  1  0  0  0  0
 21 20  1  0  0  0  0
 21 72  1  0  0  0  0
 21 73  1  0  0  0  0
 22  1  1  0  0  0  0
 22  2  1  0  0  0  0
 22 12  2  0  0  0  0
 23  3  1  0  0  0  0
 23 13  1  0  0  0  0
 23 14  2  0  0  0  0
 24  4  1  0  0  0  0
 24 15  1  0  0  0  0
 24 16  2  0  0  0  0
 25  5  1  0  0  0  0
 25 17  1  0  0  0  0
 25 20  2  0  0  0  0
 26  6  1  0  0  0  0
 27 21  1  0  0  0  0
 27 26  2  0  0  0  0
 28 18  2  0  0  0  0
 29 19  2  0  0  0  0
 29 28  1  0  0  0  0
 30 26  1  0  0  0  0
 30 28  1  0  0  0  0
 31 27  1  0  0  0  0
 31 29  1  0  0  0  0
 32 30  2  0  0  0  0
 33 31  2  0  0  0  0
 34 14  1  0  0  0  0
 35 16  1  0  0  0  0
 36 20  1  0  0  0  0
M  END
>  <DRUGBANK_ID>
DB12148

>  <COMMON_NAME>
Menatetrenone

>  <CAS_NUMBER>
863-61-6

>  <UNII>
27Y876D139

>  <SYNONYMS>
menatetrenona; Menatetrenone

$$$$
