
 OpenBabel10282417072D

155155  0  0  0  0  0  0  0  0999 V2000
   28.4576  -15.3793    0.0000 C   0  0  0  0  0  0  0  0  0  0  0  0
   27.6326  -15.3793    0.0000 O   0  0  0  0  0  0  0  0  0  0  0  0
   27.2205  -14.6647    0.0000 C   0  0  0  0  0  0  0  0  0  0  0  0
   27.6326  -13.9500    0.0000 C   0  0  0  0  0  0  0  0  0  0  0  0
   28.4576  -13.9500    0.0000 O   0  0  0  0  0  0  0  0  0  0  0  0
   27.2205  -13.2353    0.0000 C   0  0  0  0  0  0  0  0  0  0  0  0
   27.6326  -12.5206    0.0000 C   0  0  0  0  0  0  0  0  0  0  0  0
   26.3948  -13.2353    0.0000 C   0  0  0  0  0  0  0  0  0  0  0  0
   25.9827  -12.5206    0.0000 C   0  0  0  0  0  0  0  0  0  0  0  0
   25.1577  -12.5206    0.0000 C   0  0  0  0  0  0  0  0  0  0  0  0
   24.7449  -11.8066    0.0000 C   0  0  0  0  0  0  0  0  0  0  0  0
   25.1577  -11.0919    0.0000 C   0  0  0  0  0  0  0  0  0  0  0  0
   23.9200  -11.8066    0.0000 C   0  0  0  0  0  0  0  0  0  0  0  0
   23.5072  -12.5206    0.0000 C   0  0  0  0  0  0  0  0  0  0  0  0
   22.6822  -12.5206    0.0000 C   0  0  0  0  0  0  0  0  0  0  0  0
   22.2694  -13.2353    0.0000 C   0  0  0  0  0  0  0  0  0  0  0  0
   22.6815  -13.9500    0.0000 C   0  0  0  0  0  0  0  0  0  0  0  0
   21.4437  -13.2347    0.0000 C   0  0  0  0  0  0  0  0  0  0  0  0
   21.0309  -13.9487    0.0000 C   0  0  0  0  0  0  0  0  0  0  0  0
   20.2060  -13.9487    0.0000 C   0  0  0  0  0  0  0  0  0  0  0  0
   19.7925  -14.6628    0.0000 C   0  0  0  0  0  0  0  0  0  0  0  0
   20.6150  -16.0928    0.0000 C   0  0  0  0  0  0  0  0  0  0  0  0
   18.1426  -14.6597    0.0000 C   0  0  0  0  0  0  0  0  0  0  0  0
   17.9353  -15.0164    0.0000 C   0  0  0  0  0  0  0  0  0  0  0  0
   17.1103  -15.0145    0.0000 C   0  0  0  0  0  0  0  0  0  0  0  0
   16.6962  -15.7279    0.0000 C   0  0  0  0  0  0  0  0  0  0  0  0
   17.1071  -16.4432    0.0000 C   0  0  0  0  0  0  0  0  0  0  0  0
   15.8719  -15.7254    0.0000 C   0  0  0  0  0  0  0  0  0  0  0  0
   15.4616  -15.0088    0.0000 C   0  0  0  0  0  0  0  0  0  0  0  0
   14.6366  -15.0063    0.0000 C   0  0  0  0  0  0  0  0  0  0  0  0
   14.2251  -14.2909    0.0000 C   0  0  0  0  0  0  0  0  0  0  0  0
   14.6404  -13.5769    0.0000 C   0  0  0  0  0  0  0  0  0  0  0  0
   13.4008  -14.2885    0.0000 C   0  0  0  0  0  0  0  0  0  0  0  0
   12.9854  -15.0006    0.0000 C   0  0  0  0  0  0  0  0  0  0  0  0
   12.1604  -14.9987    0.0000 C   0  0  0  0  0  0  0  0  0  0  0  0
   11.7464  -15.7115    0.0000 C   0  0  0  0  0  0  0  0  0  0  0  0
   12.1572  -16.4274    0.0000 C   0  0  0  0  0  0  0  0  0  0  0  0
   10.9220  -15.7109    0.0000 C   0  0  0  0  0  0  0  0  0  0  0  0
   10.5092  -16.4268    0.0000 C   0  0  0  0  0  0  0  0  0  0  0  0
    9.6849  -16.4268    0.0000 C   0  0  0  0  0  0  0  0  0  0  0  0
    9.2727  -17.1415    0.0000 C   0  0  0  0  0  0  0  0  0  0  0  0
    9.6855  -17.8562    0.0000 C   0  0  0  0  0  0  0  0  0  0  0  0
    8.4470  -17.1422    0.0000 C   0  0  0  0  0  0  0  0  0  0  0  0
    8.0343  -16.4281    0.0000 C   0  0  0  0  0  0  0  0  0  0  0  0
    7.6227  -16.4287    0.0000 C   0  0  0  0  0  0  0  0  0  0  0  0
    7.2094  -15.7140    0.0000 C   0  0  0  0  0  0  0  0  0  0  0  0
    7.6208  -15.0000    0.0000 C   0  0  0  0  0  0  0  0  0  0  0  0
    6.3837  -15.7147    0.0000 C   0  0  0  0  0  0  0  0  0  0  0  0
    5.9716  -16.4294    0.0000 C   0  0  0  0  0  0  0  0  0  0  0  0
    5.1459  -16.4306    0.0000 C   0  0  0  0  0  0  0  0  0  0  0  0
    4.7350  -17.1459    0.0000 C   0  0  0  0  0  0  0  0  0  0  0  0
    5.1491  -17.8600    0.0000 C   0  0  0  0  0  0  0  0  0  0  0  0
    3.9094  -17.1490    0.0000 C   0  0  0  0  0  0  0  0  0  0  0  0
    3.4947  -16.4356    0.0000 C   0  0  0  0  0  0  0  0  0  0  0  0
    2.6704  -16.4388    0.0000 C   0  0  0  0  0  0  0  0  0  0  0  0
    2.2544  -15.7260    0.0000 C   0  0  0  0  0  0  0  0  0  0  0  0
    1.4301  -15.7310    0.0000 C   0  0  0  0  0  0  0  0  0  0  0  0
    2.6628  -15.0094    0.0000 C   0  0  0  0  0  0  0  0  0  0  0  0
   25.9827  -13.9500    0.0000 C   0  0  0  0  0  0  0  0  0  0  0  0
   25.1577  -13.9500    0.0000 O   0  0  0  0  0  0  0  0  0  0  0  0
   26.3948  -14.6647    0.0000 C   0  0  0  0  0  0  0  0  0  0  0  0
   25.9827  -15.3793    0.0000 O   0  0  0  0  0  0  0  0  0  0  0  0
   25.1577  -15.3793    0.0000 C   0  0  0  0  0  0  0  0  0  0  0  0
   28.9926  -16.3059    0.0000 H   0  0  0  0  0  0  0  0  0  0  0  0
   28.9926  -14.4527    0.0000 H   0  0  0  0  0  0  0  0  0  0  0  0
   29.5276  -15.3793    0.0000 H   0  0  0  0  0  0  0  0  0  0  0  0
   28.9261  -14.7615    0.0000 H   0  0  0  0  0  0  0  0  0  0  0  0
   28.7026  -12.5200    0.0000 H   0  0  0  0  0  0  0  0  0  0  0  0
   27.0971  -11.5943    0.0000 H   0  0  0  0  0  0  0  0  0  0  0  0
   28.1671  -11.5937    0.0000 H   0  0  0  0  0  0  0  0  0  0  0  0
   26.5180  -11.5941    0.0000 H   0  0  0  0  0  0  0  0  0  0  0  0
   25.4478  -11.5939    0.0000 H   0  0  0  0  0  0  0  0  0  0  0  0
   24.6420  -13.4145    0.0000 H   0  0  0  0  0  0  0  0  0  0  0  0
   26.2277  -11.0921    0.0000 H   0  0  0  0  0  0  0  0  0  0  0  0
   24.6229  -10.1652    0.0000 H   0  0  0  0  0  0  0  0  0  0  0  0
   25.6929  -10.1653    0.0000 H   0  0  0  0  0  0  0  0  0  0  0  0
   23.3853  -10.8798    0.0000 H   0  0  0  0  0  0  0  0  0  0  0  0
   22.8500  -11.8061    0.0000 H   0  0  0  0  0  0  0  0  0  0  0  0
   24.0419  -13.4474    0.0000 H   0  0  0  0  0  0  0  0  0  0  0  0
   22.9721  -13.4472    0.0000 H   0  0  0  0  0  0  0  0  0  0  0  0
   22.1663  -11.6268    0.0000 H   0  0  0  0  0  0  0  0  0  0  0  0
   22.1460  -14.8763    0.0000 H   0  0  0  0  0  0  0  0  0  0  0  0
   23.7515  -13.9506    0.0000 H   0  0  0  0  0  0  0  0  0  0  0  0
   23.2160  -14.8769    0.0000 H   0  0  0  0  0  0  0  0  0  0  0  0
   20.9093  -12.3077    0.0000 H   0  0  0  0  0  0  0  0  0  0  0  0
   20.3737  -13.2340    0.0000 H   0  0  0  0  0  0  0  0  0  0  0  0
   21.5656  -14.8755    0.0000 H   0  0  0  0  0  0  0  0  0  0  0  0
   20.4958  -14.8753    0.0000 H   0  0  0  0  0  0  0  0  0  0  0  0
   19.6906  -13.0546    0.0000 H   0  0  0  0  0  0  0  0  0  0  0  0
   20.0785  -17.0186    0.0000 H   0  0  0  0  0  0  0  0  0  0  0  0
   21.6850  -16.0945    0.0000 H   0  0  0  0  0  0  0  0  0  0  0  0
   21.1485  -17.0203    0.0000 H   0  0  0  0  0  0  0  0  0  0  0  0
   17.6098  -13.7318    0.0000 H   0  0  0  0  0  0  0  0  0  0  0  0
   17.0726  -14.6569    0.0000 H   0  0  0  0  0  0  0  0  0  0  0  0
   18.4679  -15.9444    0.0000 H   0  0  0  0  0  0  0  0  0  0  0  0
   17.3980  -15.9417    0.0000 H   0  0  0  0  0  0  0  0  0  0  0  0
   16.5964  -14.1196    0.0000 H   0  0  0  0  0  0  0  0  0  0  0  0
   16.5701  -17.3687    0.0000 H   0  0  0  0  0  0  0  0  0  0  0  0
   18.1771  -16.4455    0.0000 H   0  0  0  0  0  0  0  0  0  0  0  0
   17.6401  -17.3710    0.0000 H   0  0  0  0  0  0  0  0  0  0  0  0
   15.3338  -16.6503    0.0000 H   0  0  0  0  0  0  0  0  0  0  0  0
   14.8019  -15.7217    0.0000 H   0  0  0  0  0  0  0  0  0  0  0  0
   15.9997  -14.0839    0.0000 H   0  0  0  0  0  0  0  0  0  0  0  0
   14.9295  -14.0805    0.0000 H   0  0  0  0  0  0  0  0  0  0  0  0
   14.1185  -15.8988    0.0000 H   0  0  0  0  0  0  0  0  0  0  0  0
   15.7104  -13.5803    0.0000 H   0  0  0  0  0  0  0  0  0  0  0  0
   14.1084  -12.6485    0.0000 H   0  0  0  0  0  0  0  0  0  0  0  0
   15.1784  -12.6520    0.0000 H   0  0  0  0  0  0  0  0  0  0  0  0
   12.8692  -13.3599    0.0000 H   0  0  0  0  0  0  0  0  0  0  0  0
   12.3308  -14.2841    0.0000 H   0  0  0  0  0  0  0  0  0  0  0  0
   13.5173  -15.9291    0.0000 H   0  0  0  0  0  0  0  0  0  0  0  0
   12.4478  -15.9257    0.0000 H   0  0  0  0  0  0  0  0  0  0  0  0
   11.6466  -14.1037    0.0000 H   0  0  0  0  0  0  0  0  0  0  0  0
   11.6197  -17.3526    0.0000 H   0  0  0  0  0  0  0  0  0  0  0  0
   13.2272  -16.4302    0.0000 H   0  0  0  0  0  0  0  0  0  0  0  0
   12.6897  -17.3555    0.0000 H   0  0  0  0  0  0  0  0  0  0  0  0
   10.3871  -14.7842    0.0000 H   0  0  0  0  0  0  0  0  0  0  0  0
    9.8520  -15.7111    0.0000 H   0  0  0  0  0  0  0  0  0  0  0  0
   11.0445  -17.3533    0.0000 H   0  0  0  0  0  0  0  0  0  0  0  0
    9.9743  -17.3535    0.0000 H   0  0  0  0  0  0  0  0  0  0  0  0
    9.1687  -15.5332    0.0000 H   0  0  0  0  0  0  0  0  0  0  0  0
    9.1507  -18.7829    0.0000 H   0  0  0  0  0  0  0  0  0  0  0  0
   10.7555  -17.8560    0.0000 H   0  0  0  0  0  0  0  0  0  0  0  0
   10.2207  -18.7828    0.0000 H   0  0  0  0  0  0  0  0  0  0  0  0
    7.9126  -18.0692    0.0000 H   0  0  0  0  0  0  0  0  0  0  0  0
    7.3770  -17.1428    0.0000 H   0  0  0  0  0  0  0  0  0  0  0  0
    8.5684  -15.5009    0.0000 H   0  0  0  0  0  0  0  0  0  0  0  0
    7.4982  -15.5021    0.0000 H   0  0  0  0  0  0  0  0  0  0  0  0
    7.1077  -17.3230    0.0000 H   0  0  0  0  0  0  0  0  0  0  0  0
    8.6908  -14.9991    0.0000 H   0  0  0  0  0  0  0  0  0  0  0  0
    7.0850  -14.0738    0.0000 H   0  0  0  0  0  0  0  0  0  0  0  0
    8.1550  -14.0729    0.0000 H   0  0  0  0  0  0  0  0  0  0  0  0
    5.8480  -14.7884    0.0000 H   0  0  0  0  0  0  0  0  0  0  0  0
    5.3137  -15.7154    0.0000 H   0  0  0  0  0  0  0  0  0  0  0  0
    6.5075  -17.3555    0.0000 H   0  0  0  0  0  0  0  0  0  0  0  0
    5.4377  -17.3567    0.0000 H   0  0  0  0  0  0  0  0  0  0  0  0
    4.6283  -15.5378    0.0000 H   0  0  0  0  0  0  0  0  0  0  0  0
    4.6159  -18.7877    0.0000 H   0  0  0  0  0  0  0  0  0  0  0  0
    6.2191  -17.8580    0.0000 H   0  0  0  0  0  0  0  0  0  0  0  0
    5.6859  -18.7856    0.0000 H   0  0  0  0  0  0  0  0  0  0  0  0
    3.3775  -18.0774    0.0000 H   0  0  0  0  0  0  0  0  0  0  0  0
    2.8394  -17.1524    0.0000 H   0  0  0  0  0  0  0  0  0  0  0  0
    4.0265  -15.5071    0.0000 H   0  0  0  0  0  0  0  0  0  0  0  0
    2.9563  -15.5109    0.0000 H   0  0  0  0  0  0  0  0  0  0  0  0
    2.1582  -17.3347    0.0000 H   0  0  0  0  0  0  0  0  0  0  0  0
    0.8895  -14.8076    0.0000 H   0  0  0  0  0  0  0  0  0  0  0  0
    0.9007  -16.6609    0.0000 H   0  0  0  0  0  0  0  0  0  0  0  0
    0.3601  -15.7375    0.0000 H   0  0  0  0  0  0  0  0  0  0  0  0
    3.7328  -15.0034    0.0000 H   0  0  0  0  0  0  0  0  0  0  0  0
    2.1226  -14.0858    0.0000 H   0  0  0  0  0  0  0  0  0  0  0  0
    3.1926  -14.0798    0.0000 H   0  0  0  0  0  0  0  0  0  0  0  0
   24.6892  -13.1385    0.0000 H   0  0  0  0  0  0  0  0  0  0  0  0
   24.6227  -14.4527    0.0000 H   0  0  0  0  0  0  0  0  0  0  0  0
   24.6227  -16.3059    0.0000 H   0  0  0  0  0  0  0  0  0  0  0  0
   24.0877  -15.3793    0.0000 H   0  0  0  0  0  0  0  0  0  0  0  0
  1  2  1  0  0  0  0
  1 64  1  0  0  0  0
  1 65  1  0  0  0  0
  1 66  1  0  0  0  0
  2  3  1  0  0  0  0
  3  4  1  0  0  0  0
  3 61  2  0  0  0  0
  4  5  1  0  0  0  0
  4  6  2  0  0  0  0
  5 67  1  0  0  0  0
  6  7  1  0  0  0  0
  6  8  1  0  0  0  0
  7 68  1  0  0  0  0
  7 69  1  0  0  0  0
  7 70  1  0  0  0  0
  8  9  1  0  0  0  0
  8 59  2  0  0  0  0
  9 10  1  0  0  0  0
  9 71  1  0  0  0  0
  9 72  1  0  0  0  0
 10 11  2  0  0  0  0
 10 73  1  0  0  0  0
 11 12  1  0  0  0  0
 11 13  1  0  0  0  0
 12 74  1  0  0  0  0
 12 75  1  0  0  0  0
 12 76  1  0  0  0  0
 13 14  1  0  0  0  0
 13 77  1  0  0  0  0
 13 78  1  0  0  0  0
 14 15  1  0  0  0  0
 14 79  1  0  0  0  0
 14 80  1  0  0  0  0
 15 16  2  0  0  0  0
 15 81  1  0  0  0  0
 16 17  1  0  0  0  0
 16 18  1  0  0  0  0
 17 82  1  0  0  0  0
 17 83  1  0  0  0  0
 17 84  1  0  0  0  0
 18 19  1  0  0  0  0
 18 85  1  0  0  0  0
 18 86  1  0  0  0  0
 19 20  1  0  0  0  0
 19 87  1  0  0  0  0
 19 88  1  0  0  0  0
 20 21  2  0  0  0  0
 20 89  1  0  0  0  0
 21 22  1  0  0  0  0
 21 23  1  0  0  0  0
 22 90  1  0  0  0  0
 22 91  1  0  0  0  0
 22 92  1  0  0  0  0
 23 24  1  0  0  0  0
 23 93  1  0  0  0  0
 23 94  1  0  0  0  0
 24 25  1  0  0  0  0
 24 95  1  0  0  0  0
 24 96  1  0  0  0  0
 25 26  2  0  0  0  0
 25 97  1  0  0  0  0
 26 27  1  0  0  0  0
 26 28  1  0  0  0  0
 27 98  1  0  0  0  0
 27 99  1  0  0  0  0
 27100  1  0  0  0  0
 28 29  1  0  0  0  0
 28101  1  0  0  0  0
 28102  1  0  0  0  0
 29 30  1  0  0  0  0
 29103  1  0  0  0  0
 29104  1  0  0  0  0
 30 31  2  0  0  0  0
 30105  1  0  0  0  0
 31 32  1  0  0  0  0
 31 33  1  0  0  0  0
 32106  1  0  0  0  0
 32107  1  0  0  0  0
 32108  1  0  0  0  0
 33 34  1  0  0  0  0
 33109  1  0  0  0  0
 33110  1  0  0  0  0
 34 35  1  0  0  0  0
 34111  1  0  0  0  0
 34112  1  0  0  0  0
 35 36  2  0  0  0  0
 35113  1  0  0  0  0
 36 37  1  0  0  0  0
 36 38  1  0  0  0  0
 37114  1  0  0  0  0
 37115  1  0  0  0  0
 37116  1  0  0  0  0
 38 39  1  0  0  0  0
 38117  1  0  0  0  0
 38118  1  0  0  0  0
 39 40  1  0  0  0  0
 39119  1  0  0  0  0
 39120  1  0  0  0  0
 40 41  2  0  0  0  0
 40121  1  0  0  0  0
 41 42  1  0  0  0  0
 41 43  1  0  0  0  0
 42122  1  0  0  0  0
 42123  1  0  0  0  0
 42124  1  0  0  0  0
 43 44  1  0  0  0  0
 43125  1  0  0  0  0
 43126  1  0  0  0  0
 44 45  1  0  0  0  0
 44127  1  0  0  0  0
 44128  1  0  0  0  0
 45 46  2  0  0  0  0
 45129  1  0  0  0  0
 46 47  1  0  0  0  0
 46 48  1  0  0  0  0
 47130  1  0  0  0  0
 47131  1  0  0  0  0
 47132  1  0  0  0  0
 48 49  1  0  0  0  0
 48133  1  0  0  0  0
 48134  1  0  0  0  0
 49 50  1  0  0  0  0
 49135  1  0  0  0  0
 49136  1  0  0  0  0
 50 51  2  0  0  0  0
 50137  1  0  0  0  0
 51 52  1  0  0  0  0
 51 53  1  0  0  0  0
 52138  1  0  0  0  0
 52139  1  0  0  0  0
 52140  1  0  0  0  0
 53 54  1  0  0  0  0
 53141  1  0  0  0  0
 53142  1  0  0  0  0
 54 55  1  0  0  0  0
 54143  1  0  0  0  0
 54144  1  0  0  0  0
 55 56  2  0  0  0  0
 55145  1  0  0  0  0
 56 57  1  0  0  0  0
 56 58  1  0  0  0  0
 57146  1  0  0  0  0
 57147  1  0  0  0  0
 57148  1  0  0  0  0
 58149  1  0  0  0  0
 58150  1  0  0  0  0
 58151  1  0  0  0  0
 59 60  1  0  0  0  0
 59 61  1  0  0  0  0
 60152  1  0  0  0  0
 61 62  1  0  0  0  0
 62 63  1  0  0  0  0
 63153  1  0  0  0  0
 63154  1  0  0  0  0
 63155  1  0  0  0  0
M  END
>  <DRUGBANK_ID>
DB11340

>  <COMMON_NAME>
Ubiquinol

>  <CAS_NUMBER>
992-78-9

>  <UNII>
M9NL0C577Y

$$$$
