
 OpenBabel10282417072D

 46 48  0  0  0  0  0  0  0  0999 V2000
   -1.5395    2.2836    0.0000 C   0  0  0  0  0  0  0  0  0  0  0  0
   -0.3020    4.4270    0.0000 C   0  0  0  0  0  0  0  0  0  0  0  0
   -0.7145    2.2836    0.0000 C   0  0  0  0  0  0  0  0  0  0  0  0
   -0.7145    3.7125    0.0000 C   0  0  0  0  0  0  0  0  0  0  0  0
    4.2355    3.7125    0.0000 C   0  0  0  0  0  0  0  0  0  0  0  0
    4.6480    4.4270    0.0000 C   0  0  0  0  0  0  0  0  0  0  0  0
    0.9355    3.7125    0.0000 C   0  0  0  0  0  0  0  0  0  0  0  0
    3.4105    3.7125    0.0000 C   0  0  0  0  0  0  0  0  0  0  0  0
    4.2355    5.1414    0.0000 C   0  0  0  0  0  0  0  0  0  0  0  0
    0.9355    6.5704    0.0000 C   0  0  0  0  0  0  0  0  0  0  0  0
    1.7605    6.5704    0.0000 C   0  0  0  0  0  0  0  0  0  0  0  0
    0.5230    2.9980    0.0000 C   0  0  0  0  0  0  0  0  0  0  0  0
    1.7605    3.7125    0.0000 C   0  0  0  0  0  0  0  0  0  0  0  0
    0.9355    5.1414    0.0000 C   0  0  0  0  0  0  0  0  0  0  0  0
    0.5230    5.8559    0.0000 C   0  0  0  0  0  0  0  0  0  0  0  0
    2.9980    4.4270    0.0000 C   0  0  0  0  0  0  0  0  0  0  0  0
    1.7605    5.1414    0.0000 C   0  0  0  0  0  0  0  0  0  0  0  0
    3.4105    5.1414    0.0000 C   0  0  0  0  0  0  0  0  0  0  0  0
    2.1730    5.8559    0.0000 C   0  0  0  0  0  0  0  0  0  0  0  0
   -0.3020    5.8559    0.0000 Cl  0  0  0  0  0  0  0  0  0  0  0  0
   -0.3020    2.9980    0.0000 N   0  0  0  0  0  0  0  0  0  0  0  0
    2.1730    4.4270    0.0000 N   0  0  0  0  0  0  0  0  0  0  0  0
    2.9980    5.8559    0.0000 S   0  0  0  0  0  0  0  0  0  0  0  0
   -2.0745    3.2102    0.0000 H   0  0  0  0  0  0  0  0  0  0  0  0
   -2.0745    1.3570    0.0000 H   0  0  0  0  0  0  0  0  0  0  0  0
   -2.6095    2.2836    0.0000 H   0  0  0  0  0  0  0  0  0  0  0  0
    0.7680    4.4270    0.0000 H   0  0  0  0  0  0  0  0  0  0  0  0
   -0.8370    5.3536    0.0000 H   0  0  0  0  0  0  0  0  0  0  0  0
    0.2330    5.3537    0.0000 H   0  0  0  0  0  0  0  0  0  0  0  0
   -0.1795    1.3569    0.0000 H   0  0  0  0  0  0  0  0  0  0  0  0
    0.3555    2.2836    0.0000 H   0  0  0  0  0  0  0  0  0  0  0  0
   -1.7845    3.7125    0.0000 H   0  0  0  0  0  0  0  0  0  0  0  0
   -1.2495    2.7859    0.0000 H   0  0  0  0  0  0  0  0  0  0  0  0
    4.7515    2.8188    0.0000 H   0  0  0  0  0  0  0  0  0  0  0  0
    5.6800    4.4270    0.0000 H   0  0  0  0  0  0  0  0  0  0  0  0
    0.4005    4.6391    0.0000 H   0  0  0  0  0  0  0  0  0  0  0  0
    1.4705    4.6391    0.0000 H   0  0  0  0  0  0  0  0  0  0  0  0
    2.8945    2.8188    0.0000 H   0  0  0  0  0  0  0  0  0  0  0  0
    4.7515    6.0351    0.0000 H   0  0  0  0  0  0  0  0  0  0  0  0
    0.4195    7.4641    0.0000 H   0  0  0  0  0  0  0  0  0  0  0  0
    2.2765    7.4641    0.0000 H   0  0  0  0  0  0  0  0  0  0  0  0
    1.0580    2.0714    0.0000 H   0  0  0  0  0  0  0  0  0  0  0  0
   -0.0120    2.0714    0.0000 H   0  0  0  0  0  0  0  0  0  0  0  0
    2.2955    2.7859    0.0000 H   0  0  0  0  0  0  0  0  0  0  0  0
    2.8305    3.7125    0.0000 H   0  0  0  0  0  0  0  0  0  0  0  0
    0.4195    4.2477    0.0000 H   0  0  0  0  0  0  0  0  0  0  0  0
  1 24  1  0  0  0  0
  1 25  1  0  0  0  0
  1 26  1  0  0  0  0
  2 27  1  0  0  0  0
  2 28  1  0  0  0  0
  2 29  1  0  0  0  0
  3  1  1  0  0  0  0
  3 30  1  0  0  0  0
  3 31  1  0  0  0  0
  4  2  1  0  0  0  0
  4 32  1  0  0  0  0
  4 33  1  0  0  0  0
  5 34  1  0  0  0  0
  6  5  2  0  0  0  0
  6 35  1  0  0  0  0
  7 36  1  0  0  0  0
  7 37  1  0  0  0  0
  8  5  1  0  0  0  0
  8 38  1  0  0  0  0
  9  6  1  0  0  0  0
  9 39  1  0  0  0  0
 10 40  1  0  0  0  0
 11 10  2  0  0  0  0
 11 41  1  0  0  0  0
 12  7  1  0  0  0  0
 12 42  1  0  0  0  0
 12 43  1  0  0  0  0
 13  7  1  0  0  0  0
 13 44  1  0  0  0  0
 13 45  1  0  0  0  0
 14 46  1  0  0  0  0
 15 10  1  0  0  0  0
 15 14  2  0  0  0  0
 16  8  2  0  0  0  0
 17 14  1  0  0  0  0
 18  9  2  0  0  0  0
 18 16  1  0  0  0  0
 19 11  1  0  0  0  0
 19 17  2  0  0  0  0
 20 15  1  0  0  0  0
 21  3  1  0  0  0  0
 21  4  1  0  0  0  0
 21 12  1  0  0  0  0
 22 13  1  0  0  0  0
 22 16  1  0  0  0  0
 22 17  1  0  0  0  0
 23 18  1  0  0  0  0
 23 19  1  0  0  0  0
M  END
>  <DRUGBANK_ID>
DB13382

>  <COMMON_NAME>
Chlorproethazine

>  <CAS_NUMBER>
84-01-5

>  <UNII>
960NX27Z07

>  <SYNONYMS>
Chlorproethazine

$$$$
