
 OpenBabel10282417072D

 60 62  0  0  1  0  0  0  0  0999 V2000
    4.3460   -6.2721    0.0000 C   0  0  0  0  0  0  0  0  0  0  0  0
    5.0605   -5.8596    0.0000 C   0  0  0  0  0  0  0  0  0  0  0  0
    5.0605   -5.0346    0.0000 O   0  0  0  0  0  0  0  0  0  0  0  0
    5.7749   -4.6221    0.0000 C   0  0  1  0  0  0  0  0  0  0  0  0
    5.7749   -3.7971    0.0000 C   0  0  0  0  0  0  0  0  0  0  0  0
    5.0605   -3.3846    0.0000 C   0  0  0  0  0  0  0  0  0  0  0  0
    4.3460   -3.7971    0.0000 C   0  0  0  0  0  0  0  0  0  0  0  0
    3.6315   -3.3846    0.0000 C   0  0  0  0  0  0  0  0  0  0  0  0
    3.6315   -2.5596    0.0000 C   0  0  0  0  0  0  0  0  0  0  0  0
    4.3460   -2.1471    0.0000 C   0  0  0  0  0  0  0  0  0  0  0  0
    5.0605   -2.5596    0.0000 C   0  0  0  0  0  0  0  0  0  0  0  0
    2.9171   -2.1471    0.0000 O   0  0  0  0  0  0  0  0  0  0  0  0
    2.2026   -2.5596    0.0000 C   0  0  0  0  0  0  0  0  0  0  0  0
    1.4881   -2.1471    0.0000 C   0  0  0  0  0  0  0  0  0  0  0  0
    0.7737   -2.5596    0.0000 N   0  0  0  0  0  0  0  0  0  0  0  0
    0.6874   -3.3801    0.0000 C   0  0  0  0  0  0  0  0  0  0  0  0
   -0.1196   -3.5516    0.0000 C   0  0  0  0  0  0  0  0  0  0  0  0
   -0.5321   -2.8372    0.0000 C   0  0  0  0  0  0  0  0  0  0  0  0
    0.0200   -2.2241    0.0000 C   0  0  0  0  0  0  0  0  0  0  0  0
   -0.1516   -1.4171    0.0000 C   0  0  0  0  0  0  0  0  0  0  0  0
   -0.9362   -1.1622    0.0000 C   0  0  0  0  0  0  0  0  0  0  0  0
   -1.1077   -0.3552    0.0000 C   0  0  0  0  0  0  0  0  0  0  0  0
   -0.4946    0.1969    0.0000 C   0  0  0  0  0  0  0  0  0  0  0  0
    0.2900   -0.0581    0.0000 C   0  0  0  0  0  0  0  0  0  0  0  0
    0.4615   -0.8651    0.0000 C   0  0  0  0  0  0  0  0  0  0  0  0
   -0.6661    1.0038    0.0000 S   0  0  0  0  0  0  0  0  0  0  0  0
   -1.4508    1.2588    0.0000 C   0  0  0  0  0  0  0  0  0  0  0  0
    1.3005   -3.9321    0.0000 C   0  0  0  0  0  0  0  0  0  0  0  0
    6.4894   -5.0346    0.0000 C   0  0  0  0  0  0  0  0  0  0  0  0
    7.2039   -4.6221    0.0000 O   0  0  0  0  0  0  0  0  0  0  0  0
    6.4894   -5.8596    0.0000 O   0  0  0  0  0  0  0  0  0  0  0  0
    3.4194   -5.7371    0.0000 H   0  0  0  0  0  0  0  0  0  0  0  0
    4.3460   -7.3421    0.0000 H   0  0  0  0  0  0  0  0  0  0  0  0
    3.4193   -6.8071    0.0000 H   0  0  0  0  0  0  0  0  0  0  0  0
    5.9871   -6.3946    0.0000 H   0  0  0  0  0  0  0  0  0  0  0  0
    5.9871   -5.3246    0.0000 H   0  0  0  0  0  0  0  0  0  0  0  0
    4.8482   -4.0871    0.0000 H   0  0  0  0  0  0  0  0  0  0  0  0
    6.7016   -3.2621    0.0000 H   0  0  0  0  0  0  0  0  0  0  0  0
    5.7749   -2.7271    0.0000 H   0  0  0  0  0  0  0  0  0  0  0  0
    4.3460   -4.8291    0.0000 H   0  0  0  0  0  0  0  0  0  0  0  0
    2.7378   -3.9006    0.0000 H   0  0  0  0  0  0  0  0  0  0  0  0
    4.3460   -1.1151    0.0000 H   0  0  0  0  0  0  0  0  0  0  0  0
    5.9542   -2.0436    0.0000 H   0  0  0  0  0  0  0  0  0  0  0  0
    2.2026   -3.6296    0.0000 H   0  0  0  0  0  0  0  0  0  0  0  0
    1.2760   -3.0946    0.0000 H   0  0  0  0  0  0  0  0  0  0  0  0
    1.4881   -1.0771    0.0000 H   0  0  0  0  0  0  0  0  0  0  0  0
    0.5614   -1.6121    0.0000 H   0  0  0  0  0  0  0  0  0  0  0  0
   -0.5394   -4.4944    0.0000 H   0  0  0  0  0  0  0  0  0  0  0  0
   -1.5584   -2.7293    0.0000 H   0  0  0  0  0  0  0  0  0  0  0  0
   -1.7031   -1.8527    0.0000 H   0  0  0  0  0  0  0  0  0  0  0  0
   -2.0892   -0.0363    0.0000 H   0  0  0  0  0  0  0  0  0  0  0  0
    1.0570    0.6324    0.0000 H   0  0  0  0  0  0  0  0  0  0  0  0
    1.4430   -1.1840    0.0000 H   0  0  0  0  0  0  0  0  0  0  0  0
   -1.6732    2.3054    0.0000 H   0  0  0  0  0  0  0  0  0  0  0  0
   -2.2460    0.5429    0.0000 H   0  0  0  0  0  0  0  0  0  0  0  0
   -2.4684    1.5895    0.0000 H   0  0  0  0  0  0  0  0  0  0  0  0
    1.0781   -4.9787    0.0000 H   0  0  0  0  0  0  0  0  0  0  0  0
    2.3181   -3.6014    0.0000 H   0  0  0  0  0  0  0  0  0  0  0  0
    2.0957   -4.6480    0.0000 H   0  0  0  0  0  0  0  0  0  0  0  0
    5.6779   -6.3281    0.0000 H   0  0  0  0  0  0  0  0  0  0  0  0
  1  2  1  0  0  0  0
  1 32  1  0  0  0  0
  1 33  1  0  0  0  0
  1 34  1  0  0  0  0
  2  3  1  0  0  0  0
  2 35  1  0  0  0  0
  2 36  1  0  0  0  0
  4  3  1  0  0  0  0
  4  5  1  0  0  0  0
  4 29  1  0  0  0  0
  4 37  1  6  0  0  0
  5  6  1  0  0  0  0
  5 38  1  0  0  0  0
  5 39  1  0  0  0  0
  6  7  2  0  0  0  0
  6 11  1  0  0  0  0
  7  8  1  0  0  0  0
  7 40  1  0  0  0  0
  8  9  2  0  0  0  0
  8 41  1  0  0  0  0
  9 10  1  0  0  0  0
  9 12  1  0  0  0  0
 10 11  2  0  0  0  0
 10 42  1  0  0  0  0
 11 43  1  0  0  0  0
 12 13  1  0  0  0  0
 13 14  1  0  0  0  0
 13 44  1  0  0  0  0
 13 45  1  0  0  0  0
 14 15  1  0  0  0  0
 14 46  1  0  0  0  0
 14 47  1  0  0  0  0
 15 16  1  0  0  0  0
 15 19  1  0  0  0  0
 16 17  2  0  0  0  0
 16 28  1  0  0  0  0
 17 18  1  0  0  0  0
 17 48  1  0  0  0  0
 18 19  2  0  0  0  0
 18 49  1  0  0  0  0
 19 20  1  0  0  0  0
 20 21  2  0  0  0  0
 20 25  1  0  0  0  0
 21 22  1  0  0  0  0
 21 50  1  0  0  0  0
 22 23  2  0  0  0  0
 22 51  1  0  0  0  0
 23 24  1  0  0  0  0
 23 26  1  0  0  0  0
 24 25  2  0  0  0  0
 24 52  1  0  0  0  0
 25 53  1  0  0  0  0
 26 27  1  0  0  0  0
 27 54  1  0  0  0  0
 27 55  1  0  0  0  0
 27 56  1  0  0  0  0
 28 57  1  0  0  0  0
 28 58  1  0  0  0  0
 28 59  1  0  0  0  0
 29 30  2  0  0  0  0
 29 31  1  0  0  0  0
 31 60  1  0  0  0  0
M  END
>  <DRUGBANK_ID>
DB13115

>  <COMMON_NAME>
Saroglitazar

>  <CAS_NUMBER>
495399-09-2

>  <UNII>
E0YMX3S4JD

>  <SYNONYMS>
Saroglitazar; Saroglitazarum

$$$$
