
 OpenBabel10282417072D

 30 33  0  0  0  0  0  0  0  0999 V2000
    0.3020   -1.9520    0.0000 C   0  0  0  0  0  0  0  0  0  0  0  0
    1.1270   -1.9520    0.0000 C   0  0  0  0  0  0  0  0  0  0  0  0
    1.1270    2.7770    0.0000 C   0  0  0  0  0  0  0  0  0  0  0  0
    0.3020    2.7770    0.0000 C   0  0  0  0  0  0  0  0  0  0  0  0
    2.9684    1.2375    0.0000 C   0  0  0  0  0  0  0  0  0  0  0  0
    2.5559    1.9520    0.0000 C   0  0  0  0  0  0  0  0  0  0  0  0
    0.0000    0.0000    0.0000 C   0  0  0  0  0  0  0  0  0  0  0  0
    0.7145   -0.4125    0.0000 C   0  0  0  0  0  0  0  0  0  0  0  0
    0.0000    0.8250    0.0000 C   0  0  0  0  0  0  0  0  0  0  0  0
    0.7145    1.2375    0.0000 C   0  0  0  0  0  0  0  0  0  0  0  0
    1.4289    0.8250    0.0000 C   0  0  0  0  0  0  0  0  0  0  0  0
    1.4289    0.0000    0.0000 C   0  0  0  0  0  0  0  0  0  0  0  0
    0.7145   -1.2375    0.0000 N   0  0  0  0  0  0  0  0  0  0  0  0
    0.7145    2.0625    0.0000 N   0  0  0  0  0  0  0  0  0  0  0  0
    2.1434    1.2375    0.0000 N   0  0  0  0  0  0  0  0  0  0  0  0
   -0.7145    1.2375    0.0000 O   0  0  0  0  0  0  0  0  0  0  0  0
    2.1434   -0.4125    0.0000 O   0  0  0  0  0  0  0  0  0  0  0  0
   -0.6246   -2.4870    0.0000 H   0  0  0  0  0  0  0  0  0  0  0  0
   -0.4546   -1.1954    0.0000 H   0  0  0  0  0  0  0  0  0  0  0  0
    2.0536   -2.4870    0.0000 H   0  0  0  0  0  0  0  0  0  0  0  0
    1.8836   -1.1954    0.0000 H   0  0  0  0  0  0  0  0  0  0  0  0
    2.0536    3.3120    0.0000 H   0  0  0  0  0  0  0  0  0  0  0  0
    1.8836    2.0204    0.0000 H   0  0  0  0  0  0  0  0  0  0  0  0
   -0.6246    3.3120    0.0000 H   0  0  0  0  0  0  0  0  0  0  0  0
   -0.4546    2.0204    0.0000 H   0  0  0  0  0  0  0  0  0  0  0  0
    3.8950    0.7025    0.0000 H   0  0  0  0  0  0  0  0  0  0  0  0
    2.6915    0.2040    0.0000 H   0  0  0  0  0  0  0  0  0  0  0  0
    2.5559    3.0220    0.0000 H   0  0  0  0  0  0  0  0  0  0  0  0
    1.5224    2.2289    0.0000 H   0  0  0  0  0  0  0  0  0  0  0  0
   -0.8937   -0.5160    0.0000 H   0  0  0  0  0  0  0  0  0  0  0  0
  1 18  1  0  0  0  0
  1 19  1  0  0  0  0
  2  1  1  0  0  0  0
  2 20  1  0  0  0  0
  2 21  1  0  0  0  0
  3 22  1  0  0  0  0
  3 23  1  0  0  0  0
  4  3  1  0  0  0  0
  4 24  1  0  0  0  0
  4 25  1  0  0  0  0
  5 26  1  0  0  0  0
  5 27  1  0  0  0  0
  6  5  1  0  0  0  0
  6 28  1  0  0  0  0
  6 29  1  0  0  0  0
  7 30  1  0  0  0  0
  8  7  2  0  0  0  0
  9  7  1  0  0  0  0
 10  9  1  0  0  0  0
 11 10  2  0  0  0  0
 12  8  1  0  0  0  0
 12 11  1  0  0  0  0
 13  1  1  0  0  0  0
 13  2  1  0  0  0  0
 13  8  1  0  0  0  0
 14  3  1  0  0  0  0
 14  4  1  0  0  0  0
 14 10  1  0  0  0  0
 15  5  1  0  0  0  0
 15  6  1  0  0  0  0
 15 11  1  0  0  0  0
 16  9  2  0  0  0  0
 17 12  2  0  0  0  0
M  END
>  <DRUGBANK_ID>
DB13304

>  <COMMON_NAME>
Triaziquone

>  <CAS_NUMBER>
68-76-8

>  <UNII>
F3D5D9P25I

>  <SYNONYMS>
triazicuona; Triaziquone

$$$$
