1623
 OpenBabel10282417072D

 59 62  0  0  0  0  0  0  0  0999 V2000
    6.7619   -0.9970    0.0000 S   0  0  0  0  0  0  0  0  0  0  0  0
    3.8495   -2.6670    0.0000 S   0  0  0  0  0  0  0  0  0  0  0  0
    6.3466   -0.2841    0.0000 O   0  0  0  0  0  0  0  0  0  0  0  0
    7.1771   -1.7099    0.0000 O   0  0  0  0  0  0  0  0  0  0  0  0
    5.2784    1.4580    0.0000 N   0  0  0  0  0  0  0  0  0  0  0  0
    6.7073    2.2830    0.0000 N   0  0  0  0  0  0  0  0  0  0  0  0
    7.4747   -0.5818    0.0000 N   0  0  0  0  0  0  0  0  0  0  0  0
    5.9929    1.0455    0.0000 C   0  0  0  0  0  0  0  0  0  0  0  0
    5.2784    2.2830    0.0000 C   0  0  0  0  0  0  0  0  0  0  0  0
    6.7073    1.4580    0.0000 C   0  0  0  0  0  0  0  0  0  0  0  0
    5.9929    2.6955    0.0000 C   0  0  0  0  0  0  0  0  0  0  0  0
    4.5640    1.0455    0.0000 C   0  0  0  0  0  0  0  0  0  0  0  0
    4.5640    0.2205    0.0000 C   0  0  0  0  0  0  0  0  0  0  0  0
    7.4219    2.6955    0.0000 C   0  0  0  0  0  0  0  0  0  0  0  0
    3.8495   -0.1920    0.0000 C   0  0  0  0  0  0  0  0  0  0  0  0
    3.8495   -1.0170    0.0000 C   0  0  0  0  0  0  0  0  0  0  0  0
    4.5640   -1.4295    0.0000 C   0  0  0  0  0  0  0  0  0  0  0  0
    3.1350   -1.4295    0.0000 C   0  0  0  0  0  0  0  0  0  0  0  0
    4.5640   -2.2545    0.0000 C   0  0  0  0  0  0  0  0  0  0  0  0
    5.3015   -0.9884    0.0000 C   0  0  0  0  0  0  0  0  0  0  0  0
    3.1350   -2.2545    0.0000 C   0  0  0  0  0  0  0  0  0  0  0  0
    6.0490   -1.4123    0.0000 C   0  0  0  0  0  0  0  0  0  0  0  0
    5.3015   -2.6955    0.0000 C   0  0  0  0  0  0  0  0  0  0  0  0
    2.3975   -0.9884    0.0000 C   0  0  0  0  0  0  0  0  0  0  0  0
    6.0490   -2.2716    0.0000 C   0  0  0  0  0  0  0  0  0  0  0  0
    2.3975   -2.6955    0.0000 C   0  0  0  0  0  0  0  0  0  0  0  0
    1.6500   -1.4123    0.0000 C   0  0  0  0  0  0  0  0  0  0  0  0
    1.6500   -2.2716    0.0000 C   0  0  0  0  0  0  0  0  0  0  0  0
    8.1908   -0.9915    0.0000 C   0  0  0  0  0  0  0  0  0  0  0  0
    7.4715    0.2432    0.0000 C   0  0  0  0  0  0  0  0  0  0  0  0
    5.9929   -0.0245    0.0000 H   0  0  0  0  0  0  0  0  0  0  0  0
    6.9196    0.5105    0.0000 H   0  0  0  0  0  0  0  0  0  0  0  0
    4.3518    2.8180    0.0000 H   0  0  0  0  0  0  0  0  0  0  0  0
    5.2784    3.3530    0.0000 H   0  0  0  0  0  0  0  0  0  0  0  0
    7.6340    0.9230    0.0000 H   0  0  0  0  0  0  0  0  0  0  0  0
    6.7073    0.3880    0.0000 H   0  0  0  0  0  0  0  0  0  0  0  0
    5.9929    3.7655    0.0000 H   0  0  0  0  0  0  0  0  0  0  0  0
    5.0663    3.2305    0.0000 H   0  0  0  0  0  0  0  0  0  0  0  0
    3.6373    1.5805    0.0000 H   0  0  0  0  0  0  0  0  0  0  0  0
    3.6374    0.5105    0.0000 H   0  0  0  0  0  0  0  0  0  0  0  0
    5.4906   -0.3145    0.0000 H   0  0  0  0  0  0  0  0  0  0  0  0
    4.5640   -0.8495    0.0000 H   0  0  0  0  0  0  0  0  0  0  0  0
    8.3485    2.1604    0.0000 H   0  0  0  0  0  0  0  0  0  0  0  0
    7.4220    3.7655    0.0000 H   0  0  0  0  0  0  0  0  0  0  0  0
    8.3486    3.2304    0.0000 H   0  0  0  0  0  0  0  0  0  0  0  0
    2.9558    0.3240    0.0000 H   0  0  0  0  0  0  0  0  0  0  0  0
    5.2896    0.0435    0.0000 H   0  0  0  0  0  0  0  0  0  0  0  0
    5.2896   -3.7274    0.0000 H   0  0  0  0  0  0  0  0  0  0  0  0
    2.4094    0.0435    0.0000 H   0  0  0  0  0  0  0  0  0  0  0  0
    6.9407   -2.7911    0.0000 H   0  0  0  0  0  0  0  0  0  0  0  0
    2.4094   -3.7274    0.0000 H   0  0  0  0  0  0  0  0  0  0  0  0
    0.7583   -0.8928    0.0000 H   0  0  0  0  0  0  0  0  0  0  0  0
    0.7583   -2.7911    0.0000 H   0  0  0  0  0  0  0  0  0  0  0  0
    8.1950   -2.0615    0.0000 H   0  0  0  0  0  0  0  0  0  0  0  0
    9.1153   -0.4529    0.0000 H   0  0  0  0  0  0  0  0  0  0  0  0
    9.1195   -1.5229    0.0000 H   0  0  0  0  0  0  0  0  0  0  0  0
    8.3961    0.7818    0.0000 H   0  0  0  0  0  0  0  0  0  0  0  0
    6.5428    0.7746    0.0000 H   0  0  0  0  0  0  0  0  0  0  0  0
    7.4673    1.3132    0.0000 H   0  0  0  0  0  0  0  0  0  0  0  0
  1  3  2  0  0  0  0
  1  4  2  0  0  0  0
  1  7  1  0  0  0  0
  1 22  1  0  0  0  0
  2 19  1  0  0  0  0
  2 21  1  0  0  0  0
  5  8  1  0  0  0  0
  5  9  1  0  0  0  0
  5 12  1  0  0  0  0
  6 10  1  0  0  0  0
  6 11  1  0  0  0  0
  6 14  1  0  0  0  0
  7 29  1  0  0  0  0
  7 30  1  0  0  0  0
  8 10  1  0  0  0  0
  8 31  1  0  0  0  0
  8 32  1  0  0  0  0
  9 11  1  0  0  0  0
  9 33  1  0  0  0  0
  9 34  1  0  0  0  0
 10 35  1  0  0  0  0
 10 36  1  0  0  0  0
 11 37  1  0  0  0  0
 11 38  1  0  0  0  0
 12 13  1  0  0  0  0
 12 39  1  0  0  0  0
 12 40  1  0  0  0  0
 13 15  1  0  0  0  0
 13 41  1  0  0  0  0
 13 42  1  0  0  0  0
 14 43  1  0  0  0  0
 14 44  1  0  0  0  0
 14 45  1  0  0  0  0
 15 16  2  0  0  0  0
 15 46  1  0  0  0  0
 16 17  1  0  0  0  0
 16 18  1  0  0  0  0
 17 19  2  0  0  0  0
 17 20  1  0  0  0  0
 18 21  1  0  0  0  0
 18 24  2  0  0  0  0
 19 23  1  0  0  0  0
 20 22  2  0  0  0  0
 20 47  1  0  0  0  0
 21 26  2  0  0  0  0
 22 25  1  0  0  0  0
 23 25  2  0  0  0  0
 23 48  1  0  0  0  0
 24 27  1  0  0  0  0
 24 49  1  0  0  0  0
 25 50  1  0  0  0  0
 26 28  1  0  0  0  0
 26 51  1  0  0  0  0
 27 28  2  0  0  0  0
 27 52  1  0  0  0  0
 28 53  1  0  0  0  0
 29 54  1  0  0  0  0
 29 55  1  0  0  0  0
 29 56  1  0  0  0  0
 30 57  1  0  0  0  0
 30 58  1  0  0  0  0
 30 59  1  0  0  0  0
M  END
>  <DRUGBANK_ID>
DB01623

>  <COMMON_NAME>
Thiothixene

>  <CAS_NUMBER>
3313-26-6

>  <UNII>
7318FJ13YJ

>  <SYNONYMS>
cis-thiothixene; Thiothixene; Tiotixene; Tiotixeno; Tiotixenum

$$$$
