OAC
 OpenBabel10282417072D

 25 25  0  0  0  0  0  0  0  0999 V2000
    1.3377    2.0397    0.0000 O   0  0  0  0  0  0  0  0  0  0  0  0
    1.3377    1.2147    0.0000 C   0  0  0  0  0  0  0  0  0  0  0  0
    0.6232    0.8022    0.0000 C   0  0  1  0  0  0  0  0  0  0  0  0
    0.6232   -0.0228    0.0000 C   0  0  0  0  0  0  0  0  0  0  0  0
   -0.0912    1.2147    0.0000 C   0  0  0  0  0  0  0  0  0  0  0  0
   -0.0912   -0.4353    0.0000 C   0  0  0  0  0  0  0  0  0  0  0  0
   -0.0912   -1.2603    0.0000 C   0  0  0  0  0  0  0  0  0  0  0  0
   -0.8057   -1.6728    0.0000 C   0  0  0  0  0  0  0  0  0  0  0  0
   -1.5202   -1.2603    0.0000 C   0  0  0  0  0  0  0  0  0  0  0  0
   -1.5202   -0.4353    0.0000 C   0  0  0  0  0  0  0  0  0  0  0  0
   -0.8057   -0.0228    0.0000 C   0  0  0  0  0  0  0  0  0  0  0  0
   -0.8057    0.8022    0.0000 O   0  0  0  0  0  0  0  0  0  0  0  0
    2.0522    0.8022    0.0000 O   0  0  0  0  0  0  0  0  0  0  0  0
    1.1289    0.5102    0.0000 H   0  0  0  0  0  0  0  0  0  0  0  0
    1.5499   -0.5578    0.0000 H   0  0  0  0  0  0  0  0  0  0  0  0
    0.6232   -1.0928    0.0000 H   0  0  0  0  0  0  0  0  0  0  0  0
   -0.0912    2.2847    0.0000 H   0  0  0  0  0  0  0  0  0  0  0  0
   -1.0179    0.6797    0.0000 H   0  0  0  0  0  0  0  0  0  0  0  0
   -1.0178    1.7497    0.0000 H   0  0  0  0  0  0  0  0  0  0  0  0
    0.8025   -1.7763    0.0000 H   0  0  0  0  0  0  0  0  0  0  0  0
   -0.8057   -2.7048    0.0000 H   0  0  0  0  0  0  0  0  0  0  0  0
   -2.4139   -1.7763    0.0000 H   0  0  0  0  0  0  0  0  0  0  0  0
   -2.4139    0.0807    0.0000 H   0  0  0  0  0  0  0  0  0  0  0  0
    0.0058    1.2707    0.0000 H   0  0  0  0  0  0  0  0  0  0  0  0
    2.0522   -0.1348    0.0000 H   0  0  0  0  0  0  0  0  0  0  0  0
  1  2  2  0  0  0  0
  2  3  1  0  0  0  0
  2 13  1  0  0  0  0
  3  4  1  0  0  0  0
  3  5  1  0  0  0  0
  3 14  1  6  0  0  0
  4  6  1  0  0  0  0
  4 15  1  0  0  0  0
  4 16  1  0  0  0  0
  5 17  1  0  0  0  0
  5 18  1  0  0  0  0
  5 19  1  0  0  0  0
  6  7  2  0  0  0  0
  6 11  1  0  0  0  0
  7  8  1  0  0  0  0
  7 20  1  0  0  0  0
  8  9  2  0  0  0  0
  8 21  1  0  0  0  0
  9 10  1  0  0  0  0
  9 22  1  0  0  0  0
 10 11  2  0  0  0  0
 10 23  1  0  0  0  0
 11 12  1  0  0  0  0
 12 24  1  0  0  0  0
 13 25  1  0  0  0  0
M  END
>  <DRUGBANK_ID>
DB01662

>  <SECONDARY_ACCESSION_NUMBERS>
EXPT02407

>  <COMMON_NAME>
Trans-O-Hydroxy-Alpha-Methyl Cinnamate

$$$$
