
 OpenBabel10282417072D

 26 26  0  0  1  0  0  0  0  0999 V2000
   -0.8612    3.5893    0.0000 C   0  0  0  0  0  0  0  0  0  0  0  0
   -0.1467    3.1768    0.0000 C   0  0  0  0  0  0  0  0  0  0  0  0
   -0.1467    2.3518    0.0000 C   0  0  0  0  0  0  0  0  0  0  0  0
    0.5678    1.9393    0.0000 C   0  0  0  0  0  0  0  0  0  0  0  0
   -0.0997    0.6294    0.0000 C   0  0  0  0  0  0  0  0  0  0  0  0
    0.1553   -0.1553    0.0000 C   0  0  0  0  0  0  0  0  0  0  0  0
    1.2352    0.6294    0.0000 C   0  0  0  0  0  0  0  0  0  0  0  0
    0.5678    1.1143    0.0000 C   0  0  1  0  0  0  0  0  0  0  0  0
    1.4652   -0.8227    0.0000 O   0  0  0  0  0  0  0  0  0  0  0  0
    0.9803   -0.1553    0.0000 S   0  0  1  0  0  0  0  0  0  0  0  0
   -0.1673    1.4888    0.0000 H   0  0  0  0  0  0  0  0  0  0  0  0
   -0.8612    4.6593    0.0000 H   0  0  0  0  0  0  0  0  0  0  0  0
   -1.7878    3.0543    0.0000 H   0  0  0  0  0  0  0  0  0  0  0  0
   -1.7879    4.1243    0.0000 H   0  0  0  0  0  0  0  0  0  0  0  0
    0.7799    3.7118    0.0000 H   0  0  0  0  0  0  0  0  0  0  0  0
    0.7799    2.6418    0.0000 H   0  0  0  0  0  0  0  0  0  0  0  0
   -1.0733    1.8168    0.0000 H   0  0  0  0  0  0  0  0  0  0  0  0
   -0.1467    1.2818    0.0000 H   0  0  0  0  0  0  0  0  0  0  0  0
    1.4944    2.4743    0.0000 H   0  0  0  0  0  0  0  0  0  0  0  0
    1.4944    1.4043    0.0000 H   0  0  0  0  0  0  0  0  0  0  0  0
   -1.1173    0.9601    0.0000 H   0  0  0  0  0  0  0  0  0  0  0  0
   -0.2670    1.6862    0.0000 H   0  0  0  0  0  0  0  0  0  0  0  0
   -0.4736   -1.0210    0.0000 H   0  0  0  0  0  0  0  0  0  0  0  0
    0.6411   -1.1087    0.0000 H   0  0  0  0  0  0  0  0  0  0  0  0
    2.2528    0.9601    0.0000 H   0  0  0  0  0  0  0  0  0  0  0  0
    1.9918   -0.1272    0.0000 H   0  0  0  0  0  0  0  0  0  0  0  0
  1 12  1  0  0  0  0
  1 13  1  0  0  0  0
  1 14  1  0  0  0  0
  2  1  1  0  0  0  0
  2 15  1  0  0  0  0
  2 16  1  0  0  0  0
  3  2  1  0  0  0  0
  3 17  1  0  0  0  0
  3 18  1  0  0  0  0
  4  3  1  0  0  0  0
  4 19  1  0  0  0  0
  4 20  1  0  0  0  0
  5 21  1  0  0  0  0
  5 22  1  0  0  0  0
  6  5  1  0  0  0  0
  6 23  1  0  0  0  0
  6 24  1  0  0  0  0
  7 25  1  0  0  0  0
  7 26  1  0  0  0  0
  8  4  1  0  0  0  0
  8  5  1  0  0  0  0
  8  7  1  0  0  0  0
  8 11  1  1  0  0  0
 10  6  1  0  0  0  0
 10  7  1  0  0  0  0
 10  9  2  1  0  0  0
M  END
>  <DRUGBANK_ID>
DB02871

>  <SECONDARY_ACCESSION_NUMBERS>
EXPT02956

>  <COMMON_NAME>
3-Butylthiolane 1-Oxide

$$$$
