T12
 OpenBabel10282417072D

 56 58  0  0  0  0  0  0  0  0999 V2000
   -5.1441    4.6527    0.0000 O   0  5  0  0  0  0  0  0  0  0  0  0
   -4.3191    4.6527    0.0000 N   0  3  0  0  0  0  0  0  0  0  0  0
   -3.9066    5.3671    0.0000 O   0  0  0  0  0  0  0  0  0  0  0  0
   -3.9066    3.9382    0.0000 C   0  0  0  0  0  0  0  0  0  0  0  0
   -4.3191    3.2237    0.0000 C   0  0  0  0  0  0  0  0  0  0  0  0
   -3.9066    2.5093    0.0000 C   0  0  0  0  0  0  0  0  0  0  0  0
   -3.0816    2.5093    0.0000 C   0  0  0  0  0  0  0  0  0  0  0  0
   -3.0816    3.9382    0.0000 C   0  0  0  0  0  0  0  0  0  0  0  0
   -2.6691    3.2237    0.0000 C   0  0  0  0  0  0  0  0  0  0  0  0
   -1.8441    3.2237    0.0000 C   0  0  0  0  0  0  0  0  0  0  0  0
   -1.4316    2.5093    0.0000 O   0  0  0  0  0  0  0  0  0  0  0  0
   -1.4316    3.9382    0.0000 N   0  0  0  0  0  0  0  0  0  0  0  0
   -0.6066    3.9382    0.0000 C   0  0  0  0  0  0  0  0  0  0  0  0
   -0.1216    4.6056    0.0000 N   0  0  0  0  0  0  0  0  0  0  0  0
    0.6630    4.3507    0.0000 C   0  0  0  0  0  0  0  0  0  0  0  0
    1.3775    4.7632    0.0000 C   0  0  0  0  0  0  0  0  0  0  0  0
    2.0919    4.3507    0.0000 C   0  0  0  0  0  0  0  0  0  0  0  0
    2.8064    4.7632    0.0000 O   0  0  0  0  0  0  0  0  0  0  0  0
    3.5209    4.3507    0.0000 C   0  0  0  0  0  0  0  0  0  0  0  0
    3.5209    3.5257    0.0000 O   0  0  0  0  0  0  0  0  0  0  0  0
    4.2353    4.7632    0.0000 C   0  0  0  0  0  0  0  0  0  0  0  0
    4.9498    5.1757    0.0000 C   0  0  0  0  0  0  0  0  0  0  0  0
    4.6478    4.0487    0.0000 C   0  0  0  0  0  0  0  0  0  0  0  0
    3.8228    5.4777    0.0000 C   0  0  0  0  0  0  0  0  0  0  0  0
    2.0919    3.5257    0.0000 C   0  0  0  0  0  0  0  0  0  0  0  0
    0.6630    3.5257    0.0000 C   0  0  0  0  0  0  0  0  0  0  0  0
    1.3775    3.1132    0.0000 C   0  0  0  0  0  0  0  0  0  0  0  0
   -0.1216    3.2708    0.0000 N   0  0  0  0  0  0  0  0  0  0  0  0
   -0.3766    2.4861    0.0000 C   0  0  0  0  0  0  0  0  0  0  0  0
    0.1755    1.8730    0.0000 C   0  0  0  0  0  0  0  0  0  0  0  0
    0.9824    2.0446    0.0000 C   0  0  0  0  0  0  0  0  0  0  0  0
    1.5345    1.4315    0.0000 O   0  0  0  0  0  0  0  0  0  0  0  0
   -5.3511    3.2237    0.0000 H   0  0  0  0  0  0  0  0  0  0  0  0
   -4.4226    1.6156    0.0000 H   0  0  0  0  0  0  0  0  0  0  0  0
   -2.5656    1.6156    0.0000 H   0  0  0  0  0  0  0  0  0  0  0  0
   -2.5656    4.8319    0.0000 H   0  0  0  0  0  0  0  0  0  0  0  0
   -1.9239    4.7908    0.0000 H   0  0  0  0  0  0  0  0  0  0  0  0
    1.3775    5.7952    0.0000 H   0  0  0  0  0  0  0  0  0  0  0  0
    5.8764    4.6407    0.0000 H   0  0  0  0  0  0  0  0  0  0  0  0
    4.9498    6.2457    0.0000 H   0  0  0  0  0  0  0  0  0  0  0  0
    5.8765    5.7107    0.0000 H   0  0  0  0  0  0  0  0  0  0  0  0
    4.1128    3.1221    0.0000 H   0  0  0  0  0  0  0  0  0  0  0  0
    5.7178    4.0487    0.0000 H   0  0  0  0  0  0  0  0  0  0  0  0
    5.1828    3.1220    0.0000 H   0  0  0  0  0  0  0  0  0  0  0  0
    4.3578    6.4043    0.0000 H   0  0  0  0  0  0  0  0  0  0  0  0
    2.7528    5.4777    0.0000 H   0  0  0  0  0  0  0  0  0  0  0  0
    3.2878    6.4044    0.0000 H   0  0  0  0  0  0  0  0  0  0  0  0
    2.9856    3.0097    0.0000 H   0  0  0  0  0  0  0  0  0  0  0  0
    1.3775    2.0812    0.0000 H   0  0  0  0  0  0  0  0  0  0  0  0
   -1.4232    2.2636    0.0000 H   0  0  0  0  0  0  0  0  0  0  0  0
   -0.7072    1.4685    0.0000 H   0  0  0  0  0  0  0  0  0  0  0  0
   -0.1551    0.8553    0.0000 H   0  0  0  0  0  0  0  0  0  0  0  0
    0.8915    1.0779    0.0000 H   0  0  0  0  0  0  0  0  0  0  0  0
    1.3130    3.0623    0.0000 H   0  0  0  0  0  0  0  0  0  0  0  0
    2.0290    2.2671    0.0000 H   0  0  0  0  0  0  0  0  0  0  0  0
    1.2348    0.5090    0.0000 H   0  0  0  0  0  0  0  0  0  0  0  0
  1  2  1  0  0  0  0
  2  3  2  0  0  0  0
  2  4  1  0  0  0  0
  4  8  1  0  0  0  0
  4  5  2  0  0  0  0
  5  6  1  0  0  0  0
  5 33  1  0  0  0  0
  6  7  2  0  0  0  0
  6 34  1  0  0  0  0
  7  9  1  0  0  0  0
  7 35  1  0  0  0  0
  8  9  2  0  0  0  0
  8 36  1  0  0  0  0
  9 10  1  0  0  0  0
 10 12  1  0  0  0  0
 10 11  2  0  0  0  0
 12 13  1  0  0  0  0
 12 37  1  0  0  0  0
 13 28  1  0  0  0  0
 13 14  2  0  0  0  0
 14 15  1  0  0  0  0
 15 16  2  0  0  0  0
 15 26  1  0  0  0  0
 16 17  1  0  0  0  0
 16 38  1  0  0  0  0
 17 18  1  0  0  0  0
 17 25  2  0  0  0  0
 18 19  1  0  0  0  0
 19 21  1  0  0  0  0
 19 20  2  0  0  0  0
 21 23  1  0  0  0  0
 21 24  1  0  0  0  0
 21 22  1  0  0  0  0
 22 39  1  0  0  0  0
 22 40  1  0  0  0  0
 22 41  1  0  0  0  0
 23 42  1  0  0  0  0
 23 43  1  0  0  0  0
 23 44  1  0  0  0  0
 24 45  1  0  0  0  0
 24 46  1  0  0  0  0
 24 47  1  0  0  0  0
 25 27  1  0  0  0  0
 25 48  1  0  0  0  0
 26 27  2  0  0  0  0
 26 28  1  0  0  0  0
 27 49  1  0  0  0  0
 28 29  1  0  0  0  0
 29 30  1  0  0  0  0
 29 50  1  0  0  0  0
 29 51  1  0  0  0  0
 30 31  1  0  0  0  0
 30 52  1  0  0  0  0
 30 53  1  0  0  0  0
 31 32  1  0  0  0  0
 31 54  1  0  0  0  0
 31 55  1  0  0  0  0
 32 56  1  0  0  0  0
M  CHG  2   1  -1   2   1
M  END
>  <DRUGBANK_ID>
DB08590

>  <COMMON_NAME>
1-(3-HYDROXYPROPYL)-2-[(3-NITROBENZOYL)AMINO]-1H-BENZIMIDAZOL-5-YL PIVALATE

>  <UNII>
QOL8WS9UXV

$$$$
