
 OpenBabel10282417072D

 43 45  0  0  0  0  0  0  0  0999 V2000
    6.0117   -1.8209    0.0000 C   0  0  0  0  0  0  0  0  0  0  0  0
    5.2972   -2.2334    0.0000 C   0  0  0  0  0  0  0  0  0  0  0  0
    4.5828   -1.8209    0.0000 C   0  0  0  0  0  0  0  0  0  0  0  0
    3.8683   -2.2334    0.0000 S   0  0  0  0  0  0  0  0  0  0  0  0
    3.4558   -1.5189    0.0000 O   0  0  0  0  0  0  0  0  0  0  0  0
    4.2808   -2.9478    0.0000 O   0  0  0  0  0  0  0  0  0  0  0  0
    3.1538   -2.6459    0.0000 N   0  0  0  0  0  0  0  0  0  0  0  0
    2.4394   -2.2334    0.0000 C   0  0  1  0  0  0  0  0  0  0  0  0
    1.6425   -2.4469    0.0000 C   0  0  0  0  0  0  0  0  0  0  0  0
    1.4289   -1.6500    0.0000 C   0  0  2  0  0  0  0  0  0  0  0  0
    2.2258   -1.4365    0.0000 C   0  0  0  0  0  0  0  0  0  0  0  0
    0.7145   -1.2375    0.0000 N   0  0  0  0  0  0  0  0  0  0  0  0
    0.0000   -1.6500    0.0000 C   0  0  0  0  0  0  0  0  0  0  0  0
    0.7145   -0.4125    0.0000 C   0  0  0  0  0  0  0  0  0  0  0  0
    0.0000    0.0000    0.0000 C   0  0  0  0  0  0  0  0  0  0  0  0
   -0.7846   -0.2549    0.0000 C   0  0  0  0  0  0  0  0  0  0  0  0
   -1.2695    0.4125    0.0000 C   0  0  0  0  0  0  0  0  0  0  0  0
   -0.7846    1.0799    0.0000 N   0  0  0  0  0  0  0  0  0  0  0  0
    0.0000    0.8250    0.0000 C   0  0  0  0  0  0  0  0  0  0  0  0
    0.7145    1.2375    0.0000 N   0  0  0  0  0  0  0  0  0  0  0  0
    1.4289    0.8250    0.0000 C   0  0  0  0  0  0  0  0  0  0  0  0
    1.4289    0.0000    0.0000 N   0  0  0  0  0  0  0  0  0  0  0  0
    6.9383   -2.3559    0.0000 H   0  0  0  0  0  0  0  0  0  0  0  0
    6.0117   -0.7509    0.0000 H   0  0  0  0  0  0  0  0  0  0  0  0
    6.9384   -1.2859    0.0000 H   0  0  0  0  0  0  0  0  0  0  0  0
    5.2972   -3.3034    0.0000 H   0  0  0  0  0  0  0  0  0  0  0  0
    4.3705   -2.7684    0.0000 H   0  0  0  0  0  0  0  0  0  0  0  0
    4.5828   -0.7509    0.0000 H   0  0  0  0  0  0  0  0  0  0  0  0
    3.6562   -1.2859    0.0000 H   0  0  0  0  0  0  0  0  0  0  0  0
    3.1538   -3.6659    0.0000 H   0  0  0  0  0  0  0  0  0  0  0  0
    2.2997   -3.2942    0.0000 H   0  0  0  0  0  0  0  0  0  0  0  0
    1.1075   -3.3736    0.0000 H   0  0  0  0  0  0  0  0  0  0  0  0
    0.5816   -2.3073    0.0000 H   0  0  0  0  0  0  0  0  0  0  0  0
    0.5800   -2.3014    0.0000 H   0  0  0  0  0  0  0  0  0  0  0  0
    2.7608   -0.5098    0.0000 H   0  0  0  0  0  0  0  0  0  0  0  0
    3.2867   -1.5761    0.0000 H   0  0  0  0  0  0  0  0  0  0  0  0
   -0.9266   -1.1150    0.0000 H   0  0  0  0  0  0  0  0  0  0  0  0
   -0.0000   -2.7200    0.0000 H   0  0  0  0  0  0  0  0  0  0  0  0
   -0.9267   -2.1850    0.0000 H   0  0  0  0  0  0  0  0  0  0  0  0
   -1.1035   -1.2364    0.0000 H   0  0  0  0  0  0  0  0  0  0  0  0
   -2.3015    0.4125    0.0000 H   0  0  0  0  0  0  0  0  0  0  0  0
   -1.0888    2.0162    0.0000 H   0  0  0  0  0  0  0  0  0  0  0  0
    2.3226    1.3410    0.0000 H   0  0  0  0  0  0  0  0  0  0  0  0
  1  2  1  0  0  0  0
  1 23  1  0  0  0  0
  1 24  1  0  0  0  0
  1 25  1  0  0  0  0
  2  3  1  0  0  0  0
  2 26  1  0  0  0  0
  2 27  1  0  0  0  0
  3  4  1  0  0  0  0
  3 28  1  0  0  0  0
  3 29  1  0  0  0  0
  4  5  2  0  0  0  0
  4  6  2  0  0  0  0
  4  7  1  0  0  0  0
  7 30  1  0  0  0  0
  8  7  1  0  0  0  0
  8  9  1  0  0  0  0
  8 11  1  0  0  0  0
  8 31  1  6  0  0  0
  9 32  1  0  0  0  0
  9 33  1  0  0  0  0
 10  9  1  0  0  0  0
 10 11  1  0  0  0  0
 10 12  1  0  0  0  0
 10 34  1  6  0  0  0
 11 35  1  0  0  0  0
 11 36  1  0  0  0  0
 12 13  1  0  0  0  0
 12 14  1  0  0  0  0
 13 37  1  0  0  0  0
 13 38  1  0  0  0  0
 13 39  1  0  0  0  0
 14 15  2  0  0  0  0
 14 22  1  0  0  0  0
 15 16  1  0  0  0  0
 15 19  1  0  0  0  0
 16 17  2  0  0  0  0
 16 40  1  0  0  0  0
 17 18  1  0  0  0  0
 17 41  1  0  0  0  0
 18 19  1  0  0  0  0
 18 42  1  0  0  0  0
 19 20  2  0  0  0  0
 20 21  1  0  0  0  0
 21 22  2  0  0  0  0
 21 43  1  0  0  0  0
M  END
>  <DRUGBANK_ID>
DB14973

>  <COMMON_NAME>
Abrocitinib

>  <CAS_NUMBER>
1622902-68-4

>  <UNII>
73SM5SF3OR

>  <SYNONYMS>
Abrocitinib; PF-04965842

$$$$
