
 OpenBabel10282417072D

 73 75  0  0  1  0  0  0  0  0999 V2000
   -7.8592   -7.8375    0.0000 O   0  0  0  0  0  0  0  0  0  0  0  0
   -7.1447   -8.2500    0.0000 N   0  0  0  0  0  0  0  0  0  0  0  0
   -6.4302   -7.8375    0.0000 C   0  0  0  0  0  0  0  0  0  0  0  0
   -6.4302   -7.0125    0.0000 O   0  0  0  0  0  0  0  0  0  0  0  0
   -5.7158   -8.2500    0.0000 C   0  0  0  0  0  0  0  0  0  0  0  0
   -5.0013   -7.8375    0.0000 C   0  0  0  0  0  0  0  0  0  0  0  0
   -4.2868   -8.2500    0.0000 C   0  0  0  0  0  0  0  0  0  0  0  0
   -3.5724   -7.8375    0.0000 C   0  0  0  0  0  0  0  0  0  0  0  0
   -2.8579   -8.2500    0.0000 C   0  0  0  0  0  0  0  0  0  0  0  0
   -2.1434   -7.8375    0.0000 C   0  0  0  0  0  0  0  0  0  0  0  0
   -1.4289   -8.2500    0.0000 C   0  0  0  0  0  0  0  0  0  0  0  0
   -1.4289   -9.0750    0.0000 O   0  0  0  0  0  0  0  0  0  0  0  0
   -0.7145   -7.8375    0.0000 N   0  0  0  0  0  0  0  0  0  0  0  0
    0.0000   -8.2500    0.0000 C   0  0  0  0  0  0  0  0  0  0  0  0
    0.7145   -7.8375    0.0000 C   0  0  0  0  0  0  0  0  0  0  0  0
    1.4289   -8.2500    0.0000 C   0  0  0  0  0  0  0  0  0  0  0  0
    1.4289   -9.0750    0.0000 C   0  0  0  0  0  0  0  0  0  0  0  0
    2.1434   -9.4875    0.0000 C   0  0  0  0  0  0  0  0  0  0  0  0
    2.1434  -10.3125    0.0000 N   0  0  0  0  0  0  0  0  0  0  0  0
    2.8579  -10.7250    0.0000 C   0  0  2  0  0  0  0  0  0  0  0  0
    2.8579  -11.5500    0.0000 C   0  0  0  0  0  0  0  0  0  0  0  0
    2.1434  -11.9625    0.0000 O   0  0  0  0  0  0  0  0  0  0  0  0
    3.5724  -11.9625    0.0000 O   0  0  0  0  0  0  0  0  0  0  0  0
    3.5724  -12.7875    0.0000 C   0  0  0  0  0  0  0  0  0  0  0  0
    4.2398  -13.2724    0.0000 C   0  0  0  0  0  0  0  0  0  0  0  0
    3.9849  -14.0570    0.0000 C   0  0  0  0  0  0  0  0  0  0  0  0
    3.1599  -14.0570    0.0000 C   0  0  0  0  0  0  0  0  0  0  0  0
    2.9049  -13.2724    0.0000 C   0  0  0  0  0  0  0  0  0  0  0  0
    3.5724  -10.3125    0.0000 C   0  0  0  0  0  0  0  0  0  0  0  0
    3.5724   -9.4875    0.0000 C   0  0  0  0  0  0  0  0  0  0  0  0
    4.2868   -9.0750    0.0000 C   0  0  0  0  0  0  0  0  0  0  0  0
    5.0013   -9.4875    0.0000 C   0  0  0  0  0  0  0  0  0  0  0  0
    5.0013  -10.3125    0.0000 C   0  0  0  0  0  0  0  0  0  0  0  0
    4.2868  -10.7250    0.0000 C   0  0  0  0  0  0  0  0  0  0  0  0
    0.7145   -9.4875    0.0000 C   0  0  0  0  0  0  0  0  0  0  0  0
    0.0000   -9.0750    0.0000 C   0  0  0  0  0  0  0  0  0  0  0  0
   -7.8592   -6.8675    0.0000 H   0  0  0  0  0  0  0  0  0  0  0  0
   -7.1447   -9.2345    0.0000 H   0  0  0  0  0  0  0  0  0  0  0  0
   -5.7158   -9.3200    0.0000 H   0  0  0  0  0  0  0  0  0  0  0  0
   -4.7892   -8.7850    0.0000 H   0  0  0  0  0  0  0  0  0  0  0  0
   -5.0013   -6.7675    0.0000 H   0  0  0  0  0  0  0  0  0  0  0  0
   -4.0747   -7.3025    0.0000 H   0  0  0  0  0  0  0  0  0  0  0  0
   -4.2868   -9.3200    0.0000 H   0  0  0  0  0  0  0  0  0  0  0  0
   -3.3601   -8.7850    0.0000 H   0  0  0  0  0  0  0  0  0  0  0  0
   -3.5724   -6.7675    0.0000 H   0  0  0  0  0  0  0  0  0  0  0  0
   -2.6458   -7.3025    0.0000 H   0  0  0  0  0  0  0  0  0  0  0  0
   -2.8579   -9.3200    0.0000 H   0  0  0  0  0  0  0  0  0  0  0  0
   -1.9313   -8.7850    0.0000 H   0  0  0  0  0  0  0  0  0  0  0  0
   -2.1434   -6.7675    0.0000 H   0  0  0  0  0  0  0  0  0  0  0  0
   -1.2168   -7.3025    0.0000 H   0  0  0  0  0  0  0  0  0  0  0  0
   -0.7145   -6.8530    0.0000 H   0  0  0  0  0  0  0  0  0  0  0  0
    0.7145   -6.8055    0.0000 H   0  0  0  0  0  0  0  0  0  0  0  0
    2.3226   -7.7340    0.0000 H   0  0  0  0  0  0  0  0  0  0  0  0
    3.0700   -8.9525    0.0000 H   0  0  0  0  0  0  0  0  0  0  0  0
    3.0700  -10.0225    0.0000 H   0  0  0  0  0  0  0  0  0  0  0  0
    1.2601  -10.8225    0.0000 H   0  0  0  0  0  0  0  0  0  0  0  0
    1.9313  -11.2600    0.0000 H   0  0  0  0  0  0  0  0  0  0  0  0
    3.5724  -13.8575    0.0000 H   0  0  0  0  0  0  0  0  0  0  0  0
    5.2574  -12.9417    0.0000 H   0  0  0  0  0  0  0  0  0  0  0  0
    4.9964  -14.0290    0.0000 H   0  0  0  0  0  0  0  0  0  0  0  0
    4.6138  -14.9226    0.0000 H   0  0  0  0  0  0  0  0  0  0  0  0
    3.4991  -15.0104    0.0000 H   0  0  0  0  0  0  0  0  0  0  0  0
    2.5310  -14.9227    0.0000 H   0  0  0  0  0  0  0  0  0  0  0  0
    2.1031  -13.8897    0.0000 H   0  0  0  0  0  0  0  0  0  0  0  0
    1.8873  -12.9418    0.0000 H   0  0  0  0  0  0  0  0  0  0  0  0
    2.7375  -12.2156    0.0000 H   0  0  0  0  0  0  0  0  0  0  0  0
    2.6787   -8.9715    0.0000 H   0  0  0  0  0  0  0  0  0  0  0  0
    4.2868   -8.0430    0.0000 H   0  0  0  0  0  0  0  0  0  0  0  0
    5.8950   -8.9715    0.0000 H   0  0  0  0  0  0  0  0  0  0  0  0
    5.8950  -10.8285    0.0000 H   0  0  0  0  0  0  0  0  0  0  0  0
    4.2868  -11.7570    0.0000 H   0  0  0  0  0  0  0  0  0  0  0  0
    0.7145  -10.5195    0.0000 H   0  0  0  0  0  0  0  0  0  0  0  0
   -0.8937   -9.5910    0.0000 H   0  0  0  0  0  0  0  0  0  0  0  0
  1  2  1  0  0  0  0
  1 37  1  0  0  0  0
  2  3  1  0  0  0  0
  2 38  1  0  0  0  0
  3  4  2  0  0  0  0
  3  5  1  0  0  0  0
  5  6  1  0  0  0  0
  5 39  1  0  0  0  0
  5 40  1  0  0  0  0
  6  7  1  0  0  0  0
  6 41  1  0  0  0  0
  6 42  1  0  0  0  0
  7  8  1  0  0  0  0
  7 43  1  0  0  0  0
  7 44  1  0  0  0  0
  8  9  1  0  0  0  0
  8 45  1  0  0  0  0
  8 46  1  0  0  0  0
  9 10  1  0  0  0  0
  9 47  1  0  0  0  0
  9 48  1  0  0  0  0
 10 11  1  0  0  0  0
 10 49  1  0  0  0  0
 10 50  1  0  0  0  0
 11 12  2  0  0  0  0
 11 13  1  0  0  0  0
 13 14  1  0  0  0  0
 13 51  1  0  0  0  0
 14 15  2  0  0  0  0
 14 36  1  0  0  0  0
 15 16  1  0  0  0  0
 15 52  1  0  0  0  0
 16 17  2  0  0  0  0
 16 53  1  0  0  0  0
 17 18  1  0  0  0  0
 17 35  1  0  0  0  0
 18 19  1  0  0  0  0
 18 54  1  0  0  0  0
 18 55  1  0  0  0  0
 19 56  1  0  0  0  0
 20 19  1  0  0  0  0
 20 21  1  0  0  0  0
 20 29  1  0  0  0  0
 20 57  1  6  0  0  0
 21 22  2  0  0  0  0
 21 23  1  0  0  0  0
 23 24  1  0  0  0  0
 24 25  1  0  0  0  0
 24 28  1  0  0  0  0
 24 58  1  0  0  0  0
 25 26  1  0  0  0  0
 25 59  1  0  0  0  0
 25 60  1  0  0  0  0
 26 27  1  0  0  0  0
 26 61  1  0  0  0  0
 26 62  1  0  0  0  0
 27 28  1  0  0  0  0
 27 63  1  0  0  0  0
 27 64  1  0  0  0  0
 28 65  1  0  0  0  0
 28 66  1  0  0  0  0
 29 30  2  0  0  0  0
 29 34  1  0  0  0  0
 30 31  1  0  0  0  0
 30 67  1  0  0  0  0
 31 32  2  0  0  0  0
 31 68  1  0  0  0  0
 32 33  1  0  0  0  0
 32 69  1  0  0  0  0
 33 34  2  0  0  0  0
 33 70  1  0  0  0  0
 34 71  1  0  0  0  0
 35 36  2  0  0  0  0
 35 72  1  0  0  0  0
 36 73  1  0  0  0  0
M  END
>  <DRUGBANK_ID>
DB15321

>  <COMMON_NAME>
Tefinostat

>  <CAS_NUMBER>
914382-60-8

>  <UNII>
ZAU91150SB

>  <SYNONYMS>
Tefinostat

$$$$
