
 OpenBabel10282417072D

 45 46  0  0  1  0  0  0  0  0999 V2000
   -3.1038   -2.0012    0.0000 O   0  0  0  0  0  0  0  0  0  0  0  0
   -2.3893   -1.5887    0.0000 C   0  0  0  0  0  0  0  0  0  0  0  0
   -1.6748   -2.0012    0.0000 C   0  0  1  0  0  0  0  0  0  0  0  0
   -0.9603   -1.5887    0.0000 O   0  0  0  0  0  0  0  0  0  0  0  0
   -0.2459   -2.0012    0.0000 C   0  0  2  0  0  0  0  0  0  0  0  0
   -0.2459   -2.8262    0.0000 C   0  0  2  0  0  0  0  0  0  0  0  0
    0.4686   -3.2387    0.0000 O   0  0  0  0  0  0  0  0  0  0  0  0
   -0.9603   -3.2387    0.0000 C   0  0  1  0  0  0  0  0  0  0  0  0
   -0.9603   -4.0637    0.0000 O   0  0  0  0  0  0  0  0  0  0  0  0
   -1.6748   -2.8262    0.0000 C   0  0  1  0  0  0  0  0  0  0  0  0
   -2.3893   -3.2387    0.0000 O   0  0  0  0  0  0  0  0  0  0  0  0
    0.4686   -0.7637    0.0000 C   0  0  2  0  0  0  0  0  0  0  0  0
   -0.2459   -0.3512    0.0000 C   0  0  1  0  0  0  0  0  0  0  0  0
   -0.9603   -0.7637    0.0000 C   0  0  0  0  0  0  0  0  0  0  0  0
   -1.6748   -0.3512    0.0000 O   0  0  0  0  0  0  0  0  0  0  0  0
   -0.2459    0.4738    0.0000 O   0  0  0  0  0  0  0  0  0  0  0  0
    0.4686    0.8863    0.0000 C   0  0  3  0  0  0  0  0  0  0  0  0
    0.4686    1.7113    0.0000 O   0  0  0  0  0  0  0  0  0  0  0  0
    1.1831    0.4738    0.0000 C   0  0  2  0  0  0  0  0  0  0  0  0
    1.8975    0.8863    0.0000 O   0  0  0  0  0  0  0  0  0  0  0  0
    1.1831   -0.3512    0.0000 C   0  0  1  0  0  0  0  0  0  0  0  0
    1.8975   -0.7637    0.0000 O   0  0  0  0  0  0  0  0  0  0  0  0
    0.4686   -1.5887    0.0000 O   0  0  0  0  0  0  0  0  0  0  0  0
   -3.9438   -1.5162    0.0000 H   0  0  0  0  0  0  0  0  0  0  0  0
   -2.3893   -0.5187    0.0000 H   0  0  0  0  0  0  0  0  0  0  0  0
   -1.4627   -1.0537    0.0000 H   0  0  0  0  0  0  0  0  0  0  0  0
   -1.6748   -0.9312    0.0000 H   0  0  0  0  0  0  0  0  0  0  0  0
   -0.2459   -0.9312    0.0000 H   0  0  0  0  0  0  0  0  0  0  0  0
    0.6807   -2.2912    0.0000 H   0  0  0  0  0  0  0  0  0  0  0  0
    0.4686   -4.2087    0.0000 H   0  0  0  0  0  0  0  0  0  0  0  0
   -0.0336   -3.7737    0.0000 H   0  0  0  0  0  0  0  0  0  0  0  0
   -1.8003   -4.5487    0.0000 H   0  0  0  0  0  0  0  0  0  0  0  0
   -1.6748   -3.8962    0.0000 H   0  0  0  0  0  0  0  0  0  0  0  0
   -3.2293   -2.7537    0.0000 H   0  0  0  0  0  0  0  0  0  0  0  0
   -0.4580   -1.2987    0.0000 H   0  0  0  0  0  0  0  0  0  0  0  0
   -0.2459   -1.4212    0.0000 H   0  0  0  0  0  0  0  0  0  0  0  0
   -0.9603   -1.8337    0.0000 H   0  0  0  0  0  0  0  0  0  0  0  0
   -1.8869   -1.2987    0.0000 H   0  0  0  0  0  0  0  0  0  0  0  0
   -1.6748    0.6188    0.0000 H   0  0  0  0  0  0  0  0  0  0  0  0
   -0.4580    1.4213    0.0000 H   0  0  0  0  0  0  0  0  0  0  0  0
    1.3086    2.1963    0.0000 H   0  0  0  0  0  0  0  0  0  0  0  0
    1.1831    1.5438    0.0000 H   0  0  0  0  0  0  0  0  0  0  0  0
    2.7376    0.4013    0.0000 H   0  0  0  0  0  0  0  0  0  0  0  0
    2.1098    0.1838    0.0000 H   0  0  0  0  0  0  0  0  0  0  0  0
    1.8975   -1.7337    0.0000 H   0  0  0  0  0  0  0  0  0  0  0  0
  1  2  1  0  0  0  0
  1 24  1  0  0  0  0
  2 25  1  0  0  0  0
  2 26  1  0  0  0  0
  3  2  1  0  0  0  0
  3  4  1  0  0  0  0
  3 10  1  0  0  0  0
  3 27  1  6  0  0  0
  4  5  1  0  0  0  0
  5 23  1  0  0  0  0
  5  6  1  0  0  0  0
  5 28  1  6  0  0  0
  6  7  1  0  0  0  0
  6  8  1  0  0  0  0
  6 29  1  1  0  0  0
  7 30  1  0  0  0  0
  8  9  1  0  0  0  0
  8 10  1  0  0  0  0
  8 31  1  6  0  0  0
  9 32  1  0  0  0  0
 10 11  1  0  0  0  0
 10 33  1  6  0  0  0
 11 34  1  0  0  0  0
 12 13  1  0  0  0  0
 12 21  1  0  0  0  0
 12 23  1  0  0  0  0
 12 35  1  1  0  0  0
 13 14  1  0  0  0  0
 13 16  1  0  0  0  0
 13 36  1  6  0  0  0
 14 15  1  0  0  0  0
 14 37  1  0  0  0  0
 14 38  1  0  0  0  0
 15 39  1  0  0  0  0
 16 17  1  0  0  0  0
 17 18  1  0  0  0  0
 17 19  1  0  0  0  0
 17 40  1  0  0  0  0
 18 41  1  0  0  0  0
 19 20  1  0  0  0  0
 19 21  1  0  0  0  0
 19 42  1  1  0  0  0
 20 43  1  0  0  0  0
 21 22  1  0  0  0  0
 21 44  1  6  0  0  0
 22 45  1  0  0  0  0
M  END
>  <DRUGBANK_ID>
DB04465

>  <SECONDARY_ACCESSION_NUMBERS>
EXPT02005

>  <COMMON_NAME>
Lactose

>  <CAS_NUMBER>
63-42-3

>  <UNII>
3SY5LH9PMK

$$$$
