
 OpenBabel10282417072D

 60 62  0  0  0  0  0  0  0  0999 V2000
   -1.0716    2.2687    0.0000 O   0  0  0  0  0  0  0  0  0  0  0  0
    0.3572   -0.2062    0.0000 N   0  0  0  0  0  0  0  0  0  0  0  0
    0.3572    2.2687    0.0000 N   0  0  0  0  0  0  0  0  0  0  0  0
   -0.3572    1.0312    0.0000 C   0  0  2  0  0  0  0  0  0  0  0  0
    0.3572    1.4437    0.0000 C   0  0  1  0  0  0  0  0  0  0  0  0
   -0.3572    0.2062    0.0000 C   0  0  0  0  0  0  0  0  0  0  0  0
    1.0716    1.0312    0.0000 C   0  0  0  0  0  0  0  0  0  0  0  0
    1.0716    0.2062    0.0000 C   0  0  0  0  0  0  0  0  0  0  0  0
   -1.0716    1.4437    0.0000 C   0  0  0  0  0  0  0  0  0  0  0  0
    0.3572   -1.0312    0.0000 C   0  0  0  0  0  0  0  0  0  0  0  0
   -0.3572   -1.4437    0.0000 C   0  0  0  0  0  0  0  0  0  0  0  0
    1.0716    2.6813    0.0000 C   0  0  0  0  0  0  0  0  0  0  0  0
   -0.3572    2.6813    0.0000 C   0  0  0  0  0  0  0  0  0  0  0  0
   -1.7862    1.0312    0.0000 C   0  0  0  0  0  0  0  0  0  0  0  0
   -0.3572    3.5063    0.0000 C   0  0  0  0  0  0  0  0  0  0  0  0
   -0.3572   -2.2687    0.0000 C   0  0  0  0  0  0  0  0  0  0  0  0
    1.0716    3.5063    0.0000 C   0  0  0  0  0  0  0  0  0  0  0  0
    1.7862    2.2687    0.0000 C   0  0  0  0  0  0  0  0  0  0  0  0
   -2.5007    1.4437    0.0000 C   0  0  0  0  0  0  0  0  0  0  0  0
   -1.0716    3.9188    0.0000 C   0  0  0  0  0  0  0  0  0  0  0  0
    1.7862    3.9188    0.0000 C   0  0  0  0  0  0  0  0  0  0  0  0
    2.5007    2.6813    0.0000 C   0  0  0  0  0  0  0  0  0  0  0  0
    0.3572   -2.6813    0.0000 C   0  0  0  0  0  0  0  0  0  0  0  0
   -1.0716   -2.6813    0.0000 C   0  0  0  0  0  0  0  0  0  0  0  0
    2.5007    3.5063    0.0000 C   0  0  0  0  0  0  0  0  0  0  0  0
    0.3572   -3.5063    0.0000 C   0  0  0  0  0  0  0  0  0  0  0  0
   -1.0716   -3.5063    0.0000 C   0  0  0  0  0  0  0  0  0  0  0  0
   -0.3572   -3.9188    0.0000 C   0  0  0  0  0  0  0  0  0  0  0  0
   -0.3572    2.1012    0.0000 H   0  0  0  0  0  0  0  0  0  0  0  0
   -0.5695    1.9787    0.0000 H   0  0  0  0  0  0  0  0  0  0  0  0
   -1.2838   -0.3288    0.0000 H   0  0  0  0  0  0  0  0  0  0  0  0
   -1.2839    0.7412    0.0000 H   0  0  0  0  0  0  0  0  0  0  0  0
    1.9983    1.5662    0.0000 H   0  0  0  0  0  0  0  0  0  0  0  0
    1.9982    0.4962    0.0000 H   0  0  0  0  0  0  0  0  0  0  0  0
    1.9982   -0.3288    0.0000 H   0  0  0  0  0  0  0  0  0  0  0  0
    1.9983    0.7412    0.0000 H   0  0  0  0  0  0  0  0  0  0  0  0
   -1.0715    2.5137    0.0000 H   0  0  0  0  0  0  0  0  0  0  0  0
   -1.9982    1.9788    0.0000 H   0  0  0  0  0  0  0  0  0  0  0  0
    1.2839   -1.5662    0.0000 H   0  0  0  0  0  0  0  0  0  0  0  0
    0.3572   -2.1012    0.0000 H   0  0  0  0  0  0  0  0  0  0  0  0
   -1.2839   -0.9087    0.0000 H   0  0  0  0  0  0  0  0  0  0  0  0
   -1.2838   -1.9787    0.0000 H   0  0  0  0  0  0  0  0  0  0  0  0
   -1.7862   -0.0008    0.0000 H   0  0  0  0  0  0  0  0  0  0  0  0
    0.5695    4.0413    0.0000 H   0  0  0  0  0  0  0  0  0  0  0  0
   -0.3572    4.5763    0.0000 H   0  0  0  0  0  0  0  0  0  0  0  0
    0.1779    4.0223    0.0000 H   0  0  0  0  0  0  0  0  0  0  0  0
    1.7862    1.2367    0.0000 H   0  0  0  0  0  0  0  0  0  0  0  0
   -2.5007    2.4757    0.0000 H   0  0  0  0  0  0  0  0  0  0  0  0
   -3.3944    0.9277    0.0000 H   0  0  0  0  0  0  0  0  0  0  0  0
   -1.0716    4.9888    0.0000 H   0  0  0  0  0  0  0  0  0  0  0  0
   -1.9983    3.3838    0.0000 H   0  0  0  0  0  0  0  0  0  0  0  0
   -1.9982    4.4538    0.0000 H   0  0  0  0  0  0  0  0  0  0  0  0
    1.7862    4.9508    0.0000 H   0  0  0  0  0  0  0  0  0  0  0  0
    3.3945    2.1653    0.0000 H   0  0  0  0  0  0  0  0  0  0  0  0
    1.2510   -2.1654    0.0000 H   0  0  0  0  0  0  0  0  0  0  0  0
   -1.9654   -2.1654    0.0000 H   0  0  0  0  0  0  0  0  0  0  0  0
    3.3944    4.0223    0.0000 H   0  0  0  0  0  0  0  0  0  0  0  0
    1.2509   -4.0223    0.0000 H   0  0  0  0  0  0  0  0  0  0  0  0
   -1.9653   -4.0223    0.0000 H   0  0  0  0  0  0  0  0  0  0  0  0
   -0.3572   -4.9508    0.0000 H   0  0  0  0  0  0  0  0  0  0  0  0
  1 13  2  0  0  0  0
  2  6  1  0  0  0  0
  2  8  1  0  0  0  0
  2 10  1  0  0  0  0
  3 12  1  0  0  0  0
  3 13  1  0  0  0  0
  4  5  1  0  0  0  0
  4  6  1  0  0  0  0
  4  9  1  0  0  0  0
  4 29  1  1  0  0  0
  5  3  1  0  0  0  0
  5  7  1  0  0  0  0
  5 30  1  1  0  0  0
  6 31  1  0  0  0  0
  6 32  1  0  0  0  0
  7  8  1  0  0  0  0
  7 33  1  0  0  0  0
  7 34  1  0  0  0  0
  8 35  1  0  0  0  0
  8 36  1  0  0  0  0
  9 14  1  0  0  0  0
  9 37  1  0  0  0  0
  9 38  1  0  0  0  0
 10 11  1  0  0  0  0
 10 39  1  0  0  0  0
 10 40  1  0  0  0  0
 11 16  1  0  0  0  0
 11 41  1  0  0  0  0
 11 42  1  0  0  0  0
 12 17  2  0  0  0  0
 12 18  1  0  0  0  0
 13 15  1  0  0  0  0
 14 19  2  0  0  0  0
 14 43  1  0  0  0  0
 15 20  1  0  0  0  0
 15 44  1  0  0  0  0
 15 45  1  0  0  0  0
 16 23  2  0  0  0  0
 16 24  1  0  0  0  0
 17 21  1  0  0  0  0
 17 46  1  0  0  0  0
 18 22  2  0  0  0  0
 18 47  1  0  0  0  0
 19 48  1  0  0  0  0
 19 49  1  0  0  0  0
 20 50  1  0  0  0  0
 20 51  1  0  0  0  0
 20 52  1  0  0  0  0
 21 25  2  0  0  0  0
 21 53  1  0  0  0  0
 22 25  1  0  0  0  0
 22 54  1  0  0  0  0
 23 26  1  0  0  0  0
 23 55  1  0  0  0  0
 24 27  2  0  0  0  0
 24 56  1  0  0  0  0
 25 57  1  0  0  0  0
 26 28  2  0  0  0  0
 26 58  1  0  0  0  0
 27 28  1  0  0  0  0
 27 59  1  0  0  0  0
 28 60  1  0  0  0  0
M  END
>  <DRUGBANK_ID>
DB09169

>  <COMMON_NAME>
3-Allylfentanyl

>  <CAS_NUMBER>
82208-84-2

>  <UNII>
V990X77S2I

$$$$
