XAO
 OpenBabel10282417072D

 46 46  0  0  0  0  0  0  0  0999 V2000
    0.1452    0.1186    0.0000 C   0  0  2  0  0  0  0  0  0  0  0  0
    0.1452   -0.7064    0.0000 N   0  0  0  0  0  0  0  0  0  0  0  0
   -0.5693    0.5311    0.0000 C   0  0  1  0  0  0  0  0  0  0  0  0
   -0.5693    1.3561    0.0000 O   0  0  0  0  0  0  0  0  0  0  0  0
   -1.2837    0.1186    0.0000 C   0  0  1  0  0  0  0  0  0  0  0  0
   -1.2837   -0.7064    0.0000 O   0  0  0  0  0  0  0  0  0  0  0  0
   -1.9982    0.5311    0.0000 C   0  0  0  0  0  0  0  0  0  0  0  0
   -2.7127    0.1186    0.0000 C   0  0  0  0  0  0  0  0  0  0  0  0
   -3.4272    0.5311    0.0000 C   0  0  0  0  0  0  0  0  0  0  0  0
   -2.7127   -0.7064    0.0000 C   0  0  0  0  0  0  0  0  0  0  0  0
    0.8597    0.5311    0.0000 C   0  0  0  0  0  0  0  0  0  0  0  0
    1.5741    0.1186    0.0000 C   0  0  0  0  0  0  0  0  0  0  0  0
    2.2886    0.5311    0.0000 C   0  0  0  0  0  0  0  0  0  0  0  0
    1.5741   -0.7064    0.0000 C   0  0  0  0  0  0  0  0  0  0  0  0
    3.0031    0.1186    0.0000 C   0  0  0  0  0  0  0  0  0  0  0  0
    2.2886   -1.1189    0.0000 C   0  0  0  0  0  0  0  0  0  0  0  0
    3.0031   -0.7064    0.0000 C   0  0  0  0  0  0  0  0  0  0  0  0
   -0.3605   -0.1734    0.0000 H   0  0  0  0  0  0  0  0  0  0  0  0
   -0.0636    0.8231    0.0000 H   0  0  0  0  0  0  0  0  0  0  0  0
   -0.7780   -0.1734    0.0000 H   0  0  0  0  0  0  0  0  0  0  0  0
   -0.7381   -1.2164    0.0000 H   0  0  0  0  0  0  0  0  0  0  0  0
    1.0285   -1.2164    0.0000 H   0  0  0  0  0  0  0  0  0  0  0  0
    0.2707    1.8411    0.0000 H   0  0  0  0  0  0  0  0  0  0  0  0
   -2.1237   -1.1914    0.0000 H   0  0  0  0  0  0  0  0  0  0  0  0
   -1.9982    1.6011    0.0000 H   0  0  0  0  0  0  0  0  0  0  0  0
   -2.9248    1.0661    0.0000 H   0  0  0  0  0  0  0  0  0  0  0  0
   -3.6393   -0.4164    0.0000 H   0  0  0  0  0  0  0  0  0  0  0  0
   -3.4272    1.6011    0.0000 H   0  0  0  0  0  0  0  0  0  0  0  0
   -4.3538   -0.0039    0.0000 H   0  0  0  0  0  0  0  0  0  0  0  0
   -4.3539    1.0661    0.0000 H   0  0  0  0  0  0  0  0  0  0  0  0
   -3.6393   -1.2414    0.0000 H   0  0  0  0  0  0  0  0  0  0  0  0
   -1.7861   -1.2414    0.0000 H   0  0  0  0  0  0  0  0  0  0  0  0
   -2.7127   -1.7764    0.0000 H   0  0  0  0  0  0  0  0  0  0  0  0
    0.8597    1.6011    0.0000 H   0  0  0  0  0  0  0  0  0  0  0  0
    1.7864    1.0661    0.0000 H   0  0  0  0  0  0  0  0  0  0  0  0
    2.5007   -0.4164    0.0000 H   0  0  0  0  0  0  0  0  0  0  0  0
    2.2886    1.6011    0.0000 H   0  0  0  0  0  0  0  0  0  0  0  0
    3.2152    1.0661    0.0000 H   0  0  0  0  0  0  0  0  0  0  0  0
    0.6475   -1.2414    0.0000 H   0  0  0  0  0  0  0  0  0  0  0  0
    1.5741   -1.7764    0.0000 H   0  0  0  0  0  0  0  0  0  0  0  0
    3.9297    0.6536    0.0000 H   0  0  0  0  0  0  0  0  0  0  0  0
    3.9297   -0.4164    0.0000 H   0  0  0  0  0  0  0  0  0  0  0  0
    2.2886   -2.1889    0.0000 H   0  0  0  0  0  0  0  0  0  0  0  0
    3.2152   -1.6539    0.0000 H   0  0  0  0  0  0  0  0  0  0  0  0
    3.9297   -1.2414    0.0000 H   0  0  0  0  0  0  0  0  0  0  0  0
    3.0031   -1.7764    0.0000 H   0  0  0  0  0  0  0  0  0  0  0  0
  1  2  1  0  0  0  0
  1  3  1  0  0  0  0
  1 11  1  0  0  0  0
  1 18  1  1  0  0  0
  2 21  1  0  0  0  0
  2 22  1  0  0  0  0
  3  4  1  0  0  0  0
  3  5  1  0  0  0  0
  3 19  1  1  0  0  0
  4 23  1  0  0  0  0
  5  6  1  0  0  0  0
  5  7  1  0  0  0  0
  5 20  1  6  0  0  0
  6 24  1  0  0  0  0
  7  8  1  0  0  0  0
  7 25  1  0  0  0  0
  7 26  1  0  0  0  0
  8  9  1  0  0  0  0
  8 10  1  0  0  0  0
  8 27  1  0  0  0  0
  9 28  1  0  0  0  0
  9 29  1  0  0  0  0
  9 30  1  0  0  0  0
 10 31  1  0  0  0  0
 10 32  1  0  0  0  0
 10 33  1  0  0  0  0
 11 12  1  0  0  0  0
 11 34  1  0  0  0  0
 11 35  1  0  0  0  0
 12 13  1  0  0  0  0
 12 14  1  0  0  0  0
 12 36  1  0  0  0  0
 13 15  1  0  0  0  0
 13 37  1  0  0  0  0
 13 38  1  0  0  0  0
 14 16  1  0  0  0  0
 14 39  1  0  0  0  0
 14 40  1  0  0  0  0
 15 17  1  0  0  0  0
 15 41  1  0  0  0  0
 15 42  1  0  0  0  0
 16 17  1  0  0  0  0
 16 43  1  0  0  0  0
 16 44  1  0  0  0  0
 17 45  1  0  0  0  0
 17 46  1  0  0  0  0
M  END
>  <DRUGBANK_ID>
DB08740

>  <COMMON_NAME>
CYCLOHEXYLMETHYL-2,3-DIHYDROXY-5-METHYL-HEXYLAMIDE

$$$$
