NOR
 OpenBabel10282417072D

 42 42  0  0  0  0  0  0  0  0999 V2000
   -0.1794   -0.7970    0.0000 N   0  0  0  0  0  0  0  0  0  0  0  0
   -0.1794    0.0280    0.0000 C   0  0  1  0  0  0  0  0  0  0  0  0
   -0.8939    0.4405    0.0000 C   0  0  0  0  0  0  0  0  0  0  0  0
   -1.6083    0.0280    0.0000 C   0  0  0  0  0  0  0  0  0  0  0  0
   -1.6083   -0.7970    0.0000 C   0  0  0  0  0  0  0  0  0  0  0  0
   -2.3228    0.4405    0.0000 C   0  0  0  0  0  0  0  0  0  0  0  0
   -2.3228   -1.2095    0.0000 C   0  0  0  0  0  0  0  0  0  0  0  0
   -3.0373    0.0280    0.0000 C   0  0  0  0  0  0  0  0  0  0  0  0
   -3.0373   -0.7970    0.0000 C   0  0  0  0  0  0  0  0  0  0  0  0
    0.5351    0.4405    0.0000 C   0  0  1  0  0  0  0  0  0  0  0  0
    0.5351    1.2655    0.0000 O   0  0  0  0  0  0  0  0  0  0  0  0
    1.2495    0.0280    0.0000 C   0  0  0  0  0  0  0  0  0  0  0  0
    1.2495   -0.7970    0.0000 O   0  0  0  0  0  0  0  0  0  0  0  0
    1.9640    0.4405    0.0000 O   0  0  0  0  0  0  0  0  0  0  0  0
    2.6785    0.0280    0.0000 C   0  0  0  0  0  0  0  0  0  0  0  0
    3.3930    0.4405    0.0000 C   0  0  0  0  0  0  0  0  0  0  0  0
    2.6785   -0.7970    0.0000 C   0  0  0  0  0  0  0  0  0  0  0  0
   -0.6851   -0.2639    0.0000 H   0  0  0  0  0  0  0  0  0  0  0  0
    0.0294    0.7325    0.0000 H   0  0  0  0  0  0  0  0  0  0  0  0
   -1.0627   -1.3070    0.0000 H   0  0  0  0  0  0  0  0  0  0  0  0
    0.7039   -1.3070    0.0000 H   0  0  0  0  0  0  0  0  0  0  0  0
   -0.8939    1.5105    0.0000 H   0  0  0  0  0  0  0  0  0  0  0  0
   -1.8206    0.9755    0.0000 H   0  0  0  0  0  0  0  0  0  0  0  0
   -2.5349   -0.5070    0.0000 H   0  0  0  0  0  0  0  0  0  0  0  0
   -0.6817   -1.3320    0.0000 H   0  0  0  0  0  0  0  0  0  0  0  0
   -1.6083   -1.8670    0.0000 H   0  0  0  0  0  0  0  0  0  0  0  0
   -2.3228    1.5105    0.0000 H   0  0  0  0  0  0  0  0  0  0  0  0
   -3.2494    0.9755    0.0000 H   0  0  0  0  0  0  0  0  0  0  0  0
   -2.3228   -2.2795    0.0000 H   0  0  0  0  0  0  0  0  0  0  0  0
   -3.2494   -1.7445    0.0000 H   0  0  0  0  0  0  0  0  0  0  0  0
   -3.9639    0.5630    0.0000 H   0  0  0  0  0  0  0  0  0  0  0  0
   -3.9639   -0.5070    0.0000 H   0  0  0  0  0  0  0  0  0  0  0  0
   -3.9639   -1.3320    0.0000 H   0  0  0  0  0  0  0  0  0  0  0  0
   -3.9639   -0.2620    0.0000 H   0  0  0  0  0  0  0  0  0  0  0  0
    1.3751    1.7505    0.0000 H   0  0  0  0  0  0  0  0  0  0  0  0
    3.6051   -0.5070    0.0000 H   0  0  0  0  0  0  0  0  0  0  0  0
    4.3196   -0.0945    0.0000 H   0  0  0  0  0  0  0  0  0  0  0  0
    3.3930    1.5105    0.0000 H   0  0  0  0  0  0  0  0  0  0  0  0
    4.3197    0.9755    0.0000 H   0  0  0  0  0  0  0  0  0  0  0  0
    1.7519   -1.3320    0.0000 H   0  0  0  0  0  0  0  0  0  0  0  0
    3.6051   -1.3320    0.0000 H   0  0  0  0  0  0  0  0  0  0  0  0
    2.6785   -1.8670    0.0000 H   0  0  0  0  0  0  0  0  0  0  0  0
  1 20  1  0  0  0  0
  1 21  1  0  0  0  0
  2  1  1  0  0  0  0
  2  3  1  0  0  0  0
  2 10  1  0  0  0  0
  2 18  1  6  0  0  0
  3  4  1  0  0  0  0
  3 22  1  0  0  0  0
  3 23  1  0  0  0  0
  4  5  1  0  0  0  0
  4  6  1  0  0  0  0
  4 24  1  0  0  0  0
  5  7  1  0  0  0  0
  5 25  1  0  0  0  0
  5 26  1  0  0  0  0
  6  8  1  0  0  0  0
  6 27  1  0  0  0  0
  6 28  1  0  0  0  0
  7  9  1  0  0  0  0
  7 29  1  0  0  0  0
  7 30  1  0  0  0  0
  8  9  1  0  0  0  0
  8 31  1  0  0  0  0
  8 32  1  0  0  0  0
  9 33  1  0  0  0  0
  9 34  1  0  0  0  0
 10 11  1  0  0  0  0
 10 12  1  0  0  0  0
 10 19  1  6  0  0  0
 11 35  1  0  0  0  0
 12 13  2  0  0  0  0
 12 14  1  0  0  0  0
 14 15  1  0  0  0  0
 15 16  1  0  0  0  0
 15 17  1  0  0  0  0
 15 36  1  0  0  0  0
 16 37  1  0  0  0  0
 16 38  1  0  0  0  0
 16 39  1  0  0  0  0
 17 40  1  0  0  0  0
 17 41  1  0  0  0  0
 17 42  1  0  0  0  0
M  END
>  <DRUGBANK_ID>
DB08288

>  <COMMON_NAME>
CYCLOHEXYL-NORSTATINE

$$$$
