
 OpenBabel10282417072D

 46 47  0  0  0  0  0  0  0  0999 V2000
   -0.6252    0.3939    0.0000 C   0  0  0  0  0  0  0  0  0  0  0  0
    0.0907    0.8165    0.0000 C   0  0  0  0  0  0  0  0  0  0  0  0
    0.0907    1.6483    0.0000 O   0  0  0  0  0  0  0  0  0  0  0  0
    0.8137    0.3939    0.0000 N   0  0  0  0  0  0  0  0  0  0  0  0
    1.5233    0.8165    0.0000 C   0  0  0  0  0  0  0  0  0  0  0  0
    2.2165    0.4286    0.0000 C   0  0  2  0  0  0  0  0  0  0  0  0
    2.9498    0.7501    0.0000 C   0  0  0  0  0  0  0  0  0  0  0  0
    3.5351    0.1769    0.0000 C   0  0  0  0  0  0  0  0  0  0  0  0
    3.1525   -0.5668    0.0000 C   0  0  0  0  0  0  0  0  0  0  0  0
    2.3335   -0.4169    0.0000 N   0  0  0  0  0  0  0  0  0  0  0  0
    1.8296   -0.9121    0.0000 C   0  0  0  0  0  0  0  0  0  0  0  0
    2.1166   -1.4427    0.0000 C   0  0  0  0  0  0  0  0  0  0  0  0
   -1.3415    0.8033    0.0000 C   0  0  0  0  0  0  0  0  0  0  0  0
   -2.0615    0.3771    0.0000 C   0  0  0  0  0  0  0  0  0  0  0  0
   -2.0615   -0.4322    0.0000 C   0  0  0  0  0  0  0  0  0  0  0  0
   -1.3415   -0.8394    0.0000 C   0  0  0  0  0  0  0  0  0  0  0  0
   -0.6252   -0.4322    0.0000 C   0  0  0  0  0  0  0  0  0  0  0  0
    0.0907   -0.8556    0.0000 O   0  0  0  0  0  0  0  0  0  0  0  0
    0.0827   -1.6483    0.0000 C   0  0  0  0  0  0  0  0  0  0  0  0
   -2.7644    0.7615    0.0000 S   0  0  0  0  0  0  0  0  0  0  0  0
   -3.0685    0.2195    0.0000 O   0  0  0  0  0  0  0  0  0  0  0  0
   -2.4709    1.2843    0.0000 O   0  0  0  0  0  0  0  0  0  0  0  0
   -3.5351    1.1357    0.0000 N   0  0  0  0  0  0  0  0  0  0  0  0
    0.8177   -0.5906    0.0000 H   0  0  0  0  0  0  0  0  0  0  0  0
    1.5089    1.8864    0.0000 H   0  0  0  0  0  0  0  0  0  0  0  0
    2.4427    1.3639    0.0000 H   0  0  0  0  0  0  0  0  0  0  0  0
    2.2684    1.4973    0.0000 H   0  0  0  0  0  0  0  0  0  0  0  0
    3.1423    1.8026    0.0000 H   0  0  0  0  0  0  0  0  0  0  0  0
    3.9696    1.0739    0.0000 H   0  0  0  0  0  0  0  0  0  0  0  0
    4.5914    0.3477    0.0000 H   0  0  0  0  0  0  0  0  0  0  0  0
    4.1638   -0.6889    0.0000 H   0  0  0  0  0  0  0  0  0  0  0  0
    3.6249   -1.5268    0.0000 H   0  0  0  0  0  0  0  0  0  0  0  0
    2.5073   -1.4204    0.0000 H   0  0  0  0  0  0  0  0  0  0  0  0
    0.7715   -0.7531    0.0000 H   0  0  0  0  0  0  0  0  0  0  0  0
    1.2148   -1.7879    0.0000 H   0  0  0  0  0  0  0  0  0  0  0  0
    1.5561   -2.3541    0.0000 H   0  0  0  0  0  0  0  0  0  0  0  0
    3.1862   -1.4724    0.0000 H   0  0  0  0  0  0  0  0  0  0  0  0
    2.6257   -2.3838    0.0000 H   0  0  0  0  0  0  0  0  0  0  0  0
   -1.3494    1.8353    0.0000 H   0  0  0  0  0  0  0  0  0  0  0  0
   -2.9529   -0.9522    0.0000 H   0  0  0  0  0  0  0  0  0  0  0  0
   -1.3404   -1.8714    0.0000 H   0  0  0  0  0  0  0  0  0  0  0  0
   -0.8493   -2.1739    0.0000 H   0  0  0  0  0  0  0  0  0  0  0  0
    1.0039   -2.1926    0.0000 H   0  0  0  0  0  0  0  0  0  0  0  0
    0.0719   -2.7182    0.0000 H   0  0  0  0  0  0  0  0  0  0  0  0
   -3.6081    2.1531    0.0000 H   0  0  0  0  0  0  0  0  0  0  0  0
   -4.3797    0.5638    0.0000 H   0  0  0  0  0  0  0  0  0  0  0  0
  1  2  1  0  0  0  0
  1 13  2  0  0  0  0
  1 17  1  0  0  0  0
  2  3  2  0  0  0  0
  2  4  1  0  0  0  0
  4  5  1  0  0  0  0
  4 24  1  0  0  0  0
  5 25  1  0  0  0  0
  5 26  1  0  0  0  0
  6  5  1  0  0  0  0
  6  7  1  0  0  0  0
  6 10  1  0  0  0  0
  6 27  1  1  0  0  0
  7  8  1  0  0  0  0
  7 28  1  0  0  0  0
  7 29  1  0  0  0  0
  8 30  1  0  0  0  0
  8 31  1  0  0  0  0
  9  8  1  0  0  0  0
  9 32  1  0  0  0  0
  9 33  1  0  0  0  0
 10  9  1  0  0  0  0
 10 11  1  0  0  0  0
 11 12  1  0  0  0  0
 11 34  1  0  0  0  0
 11 35  1  0  0  0  0
 12 36  1  0  0  0  0
 12 37  1  0  0  0  0
 12 38  1  0  0  0  0
 13 14  1  0  0  0  0
 13 39  1  0  0  0  0
 14 15  2  0  0  0  0
 14 20  1  0  0  0  0
 15 40  1  0  0  0  0
 16 15  1  0  0  0  0
 16 41  1  0  0  0  0
 17 16  2  0  0  0  0
 17 18  1  0  0  0  0
 18 19  1  0  0  0  0
 19 42  1  0  0  0  0
 19 43  1  0  0  0  0
 19 44  1  0  0  0  0
 20 21  2  0  0  0  0
 20 22  2  0  0  0  0
 20 23  1  0  0  0  0
 23 45  1  0  0  0  0
 23 46  1  0  0  0  0
M  END
>  <DRUGBANK_ID>
DB16021

>  <COMMON_NAME>
Levosulpiride

>  <CAS_NUMBER>
23672-07-3

>  <UNII>
JTG7R315LK

>  <SYNONYMS>
Levosulpirida; Levosulpiride; Levosulpiridum; S-(-)-Sulpiride

$$$$
