
 OpenBabel10282417072D

 65 68  0  0  0  0  0  0  0  0999 V2000
   -2.8011   -2.7297    0.0000 O   0  0  0  0  0  0  0  0  0  0  0  0
   -0.0041   -0.3824    0.0000 O   0  0  0  0  0  0  0  0  0  0  0  0
   -1.7510   -3.2135    0.0000 O   0  0  0  0  0  0  0  0  0  0  0  0
   -0.3221   -2.3885    0.0000 O   0  0  0  0  0  0  0  0  0  0  0  0
    0.0327    3.2134    0.0000 O   0  0  0  0  0  0  0  0  0  0  0  0
    0.3923   -1.1510    0.0000 O   0  0  0  0  0  0  0  0  0  0  0  0
    3.2502   -1.9760    0.0000 O   0  0  0  0  0  0  0  0  0  0  0  0
    2.5357   -3.2135    0.0000 O   0  0  0  0  0  0  0  0  0  0  0  0
   -1.9806   -1.3085    0.0000 C   0  0  2  0  0  0  0  0  0  0  0  0
   -2.4655   -1.9760    0.0000 C   0  0  1  0  0  0  0  0  0  0  0  0
   -2.4655   -0.6411    0.0000 C   0  0  2  0  0  0  0  0  0  0  0  0
   -1.3095    0.1987    0.0000 C   0  0  1  0  0  0  0  0  0  0  0  0
   -2.1299    0.1125    0.0000 C   0  0  1  0  0  0  0  0  0  0  0  0
   -0.9739    0.9524    0.0000 C   0  0  2  0  0  0  0  0  0  0  0  0
   -1.1601   -1.2223    0.0000 C   0  0  0  0  0  0  0  0  0  0  0  0
   -0.8245   -0.4686    0.0000 C   0  0  2  0  0  0  0  0  0  0  0  0
   -3.2501   -1.7210    0.0000 C   0  0  0  0  0  0  0  0  0  0  0  0
   -3.2501   -0.8960    0.0000 C   0  0  0  0  0  0  0  0  0  0  0  0
   -1.7510   -2.3885    0.0000 C   0  0  0  0  0  0  0  0  0  0  0  0
   -1.4588    1.6198    0.0000 C   0  0  0  0  0  0  0  0  0  0  0  0
   -2.6149    0.7799    0.0000 C   0  0  0  0  0  0  0  0  0  0  0  0
   -1.5681   -2.0230    0.0000 C   0  0  0  0  0  0  0  0  0  0  0  0
   -2.2793    1.5336    0.0000 C   0  0  0  0  0  0  0  0  0  0  0  0
   -0.1534    1.0387    0.0000 C   0  0  0  0  0  0  0  0  0  0  0  0
   -0.4890    0.2849    0.0000 C   0  0  0  0  0  0  0  0  0  0  0  0
   -1.1233    2.3735    0.0000 C   0  0  0  0  0  0  0  0  0  0  0  0
   -1.0366   -1.9760    0.0000 C   0  0  0  0  0  0  0  0  0  0  0  0
    0.1820    1.7923    0.0000 C   0  0  0  0  0  0  0  0  0  0  0  0
   -0.3028    2.4598    0.0000 C   0  0  0  0  0  0  0  0  0  0  0  0
    0.3923   -1.9760    0.0000 C   0  0  0  0  0  0  0  0  0  0  0  0
    1.1068   -2.3885    0.0000 C   0  0  0  0  0  0  0  0  0  0  0  0
    1.8212   -1.9760    0.0000 C   0  0  0  0  0  0  0  0  0  0  0  0
    2.5357   -2.3885    0.0000 C   0  0  0  0  0  0  0  0  0  0  0  0
   -3.1244    0.0079    0.0000 H   0  0  0  0  0  0  0  0  0  0  0  0
   -0.3150    0.3033    0.0000 H   0  0  0  0  0  0  0  0  0  0  0  0
   -3.1346    0.1020    0.0000 H   0  0  0  0  0  0  0  0  0  0  0  0
   -3.7658   -2.8311    0.0000 H   0  0  0  0  0  0  0  0  0  0  0  0
    0.5660   -1.1672    0.0000 H   0  0  0  0  0  0  0  0  0  0  0  0
    4.0617   -2.4445    0.0000 H   0  0  0  0  0  0  0  0  0  0  0  0
   -0.5312   -2.0880    0.0000 H   0  0  0  0  0  0  0  0  0  0  0  0
   -0.0960   -1.1105    0.0000 H   0  0  0  0  0  0  0  0  0  0  0  0
   -0.3894    0.5089    0.0000 H   0  0  0  0  0  0  0  0  0  0  0  0
   -4.1158   -2.3499    0.0000 H   0  0  0  0  0  0  0  0  0  0  0  0
   -4.2035   -1.2352    0.0000 H   0  0  0  0  0  0  0  0  0  0  0  0
   -4.1157   -0.2671    0.0000 H   0  0  0  0  0  0  0  0  0  0  0  0
   -4.2035   -1.3818    0.0000 H   0  0  0  0  0  0  0  0  0  0  0  0
   -3.6790    0.6680    0.0000 H   0  0  0  0  0  0  0  0  0  0  0  0
   -3.2438    1.6455    0.0000 H   0  0  0  0  0  0  0  0  0  0  0  0
   -2.1031   -2.9496    0.0000 H   0  0  0  0  0  0  0  0  0  0  0  0
   -0.4981   -2.0230    0.0000 H   0  0  0  0  0  0  0  0  0  0  0  0
   -1.0331   -2.9497    0.0000 H   0  0  0  0  0  0  0  0  0  0  0  0
   -2.9082    2.3993    0.0000 H   0  0  0  0  0  0  0  0  0  0  0  0
   -3.3434    1.4218    0.0000 H   0  0  0  0  0  0  0  0  0  0  0  0
    0.4533    0.2039    0.0000 H   0  0  0  0  0  0  0  0  0  0  0  0
   -0.9243   -0.6926    0.0000 H   0  0  0  0  0  0  0  0  0  0  0  0
    0.5751    0.3967    0.0000 H   0  0  0  0  0  0  0  0  0  0  0  0
    0.1399   -0.5808    0.0000 H   0  0  0  0  0  0  0  0  0  0  0  0
   -1.7300    3.2084    0.0000 H   0  0  0  0  0  0  0  0  0  0  0  0
   -1.0366   -0.9060    0.0000 H   0  0  0  0  0  0  0  0  0  0  0  0
   -1.9633   -1.4410    0.0000 H   0  0  0  0  0  0  0  0  0  0  0  0
    1.2083    1.9002    0.0000 H   0  0  0  0  0  0  0  0  0  0  0  0
    1.1068   -3.4585    0.0000 H   0  0  0  0  0  0  0  0  0  0  0  0
    2.0335   -2.9235    0.0000 H   0  0  0  0  0  0  0  0  0  0  0  0
    1.8212   -0.9060    0.0000 H   0  0  0  0  0  0  0  0  0  0  0  0
    2.7478   -1.4410    0.0000 H   0  0  0  0  0  0  0  0  0  0  0  0
  1 37  1  0  0  0  0
  2 38  1  0  0  0  0
  3 19  2  0  0  0  0
  4 27  1  0  0  0  0
  4 30  1  0  0  0  0
  5 29  2  0  0  0  0
  6 30  2  0  0  0  0
  7 33  1  0  0  0  0
  7 39  1  0  0  0  0
  8 33  2  0  0  0  0
  9 10  1  0  0  0  0
  9 11  1  0  0  0  0
  9 15  1  0  0  0  0
  9 22  1  1  0  0  0
 10  1  1  6  0  0  0
 10 17  1  0  0  0  0
 10 19  1  0  0  0  0
 11 13  1  0  0  0  0
 11 18  1  0  0  0  0
 11 36  1  6  0  0  0
 12 13  1  0  0  0  0
 12 14  1  0  0  0  0
 12 16  1  0  0  0  0
 12 35  1  6  0  0  0
 13 21  1  0  0  0  0
 13 34  1  1  0  0  0
 14 20  1  0  0  0  0
 14 24  1  0  0  0  0
 14 25  1  1  0  0  0
 15 16  1  0  0  0  0
 15 40  1  0  0  0  0
 15 41  1  0  0  0  0
 16  2  1  0  0  0  0
 16 42  1  6  0  0  0
 17 18  1  0  0  0  0
 17 43  1  0  0  0  0
 17 44  1  0  0  0  0
 18 45  1  0  0  0  0
 18 46  1  0  0  0  0
 19 27  1  0  0  0  0
 20 23  1  0  0  0  0
 20 26  2  0  0  0  0
 21 23  1  0  0  0  0
 21 47  1  0  0  0  0
 21 48  1  0  0  0  0
 22 49  1  0  0  0  0
 22 50  1  0  0  0  0
 22 51  1  0  0  0  0
 23 52  1  0  0  0  0
 23 53  1  0  0  0  0
 24 28  2  0  0  0  0
 24 54  1  0  0  0  0
 25 55  1  0  0  0  0
 25 56  1  0  0  0  0
 25 57  1  0  0  0  0
 26 29  1  0  0  0  0
 26 58  1  0  0  0  0
 27 59  1  0  0  0  0
 27 60  1  0  0  0  0
 28 29  1  0  0  0  0
 28 61  1  0  0  0  0
 30 31  1  0  0  0  0
 31 32  1  0  0  0  0
 31 62  1  0  0  0  0
 31 63  1  0  0  0  0
 32 33  1  0  0  0  0
 32 64  1  0  0  0  0
 32 65  1  0  0  0  0
M  END
>  <DRUGBANK_ID>
DB14633

>  <COMMON_NAME>
Prednisolone hemisuccinate

>  <CAS_NUMBER>
2920-86-7

>  <UNII>
G7080T74ON

>  <SYNONYMS>
(+)-prednisolone hemisuccinate; Prednisolonbisuccinat; Prednisolone 21-hemisuccinate; Prednisolone 21-succinate; Prednisolone bisuccinate; Prednisolone hemisuccinate; Prednisolone hydrogen succinate; Prednisolone succinate

$$$$
