
 OpenBabel10282417072D

 29 11  0  0  0  0  0  0  0  0999 V2000
    0.0000    0.0000    0.0000 Br  0  5  0  0  0  0  0  0  0  0  0  0
    2.2393    0.0000    0.0000 Br  0  0  0  0  0  0  0  0  0  0  0  0
    4.4786    0.0000    0.0000 Br  0  0  0  0  0  0  0  0  0  0  0  0
    6.7179    0.0000    0.0000 Br  0  0  0  0  0  0  0  0  0  0  0  0
    8.9571    0.0000    0.0000 Br  0  0  0  0  0  0  0  0  0  0  0  0
    0.0000   -1.6500    0.0000 Br  0  0  0  0  0  0  0  0  0  0  0  0
    2.2393   -1.6500    0.0000 Br  0  0  0  0  0  0  0  0  0  0  0  0
    4.4786   -1.6500    0.0000 Br  0  0  0  0  0  0  0  0  0  0  0  0
    6.7179   -1.6500    0.0000 Br  0  0  0  0  0  0  0  0  0  0  0  0
    8.9571   -1.6500    0.0000 Br  0  0  0  0  0  0  0  0  0  0  0  0
    0.0000   -3.3000    0.0000 Br  0  0  0  0  0  0  0  0  0  0  0  0
    2.2393   -3.3000    0.0000 Br  0  0  0  0  0  0  0  0  0  0  0  0
    4.3607   -3.3000    0.0000 Ta  0  0  0  0  0  0  0  0  0  0  0  0
    6.4821   -3.3000    0.0000 Ta  0  0  0  0  0  0  0  0  0  0  0  0
    8.6036   -3.3000    0.0000 Ta  0  0  0  0  0  0  0  0  0  0  0  0
    0.0000   -4.9500    0.0000 Ta  0  0  0  0  0  0  0  0  0  0  0  0
    2.1214   -4.9500    0.0000 Ta  0  0  0  0  0  0  0  0  0  0  0  0
    4.3607   -4.9500    0.0000 Ta  0  3  0  0  0  0  0  0  0  0  0  0
    3.6293    0.0000    0.0000 H   0  0  0  0  0  0  0  0  0  0  0  0
    5.8686    0.0000    0.0000 H   0  0  0  0  0  0  0  0  0  0  0  0
    8.1079    0.0000    0.0000 H   0  0  0  0  0  0  0  0  0  0  0  0
   10.3471    0.0000    0.0000 H   0  0  0  0  0  0  0  0  0  0  0  0
    1.3900   -1.6500    0.0000 H   0  0  0  0  0  0  0  0  0  0  0  0
    3.6293   -1.6500    0.0000 H   0  0  0  0  0  0  0  0  0  0  0  0
    5.8686   -1.6500    0.0000 H   0  0  0  0  0  0  0  0  0  0  0  0
    8.1079   -1.6500    0.0000 H   0  0  0  0  0  0  0  0  0  0  0  0
   10.3471   -1.6500    0.0000 H   0  0  0  0  0  0  0  0  0  0  0  0
    1.3900   -3.3000    0.0000 H   0  0  0  0  0  0  0  0  0  0  0  0
    3.6293   -3.3000    0.0000 H   0  0  0  0  0  0  0  0  0  0  0  0
  2 19  1  0  0  0  0
  3 20  1  0  0  0  0
  4 21  1  0  0  0  0
  5 22  1  0  0  0  0
  6 23  1  0  0  0  0
  7 24  1  0  0  0  0
  8 25  1  0  0  0  0
  9 26  1  0  0  0  0
 10 27  1  0  0  0  0
 11 28  1  0  0  0  0
 12 29  1  0  0  0  0
M  CHG  2   1  -1  18   1
M  END
>  <DRUGBANK_ID>
DB04119

>  <SECONDARY_ACCESSION_NUMBERS>
EXPT03019

>  <COMMON_NAME>
Hexatantalum Dodecabromide

$$$$
