1154
 OpenBabel10282417072D

 35 35  0  0  1  0  0  0  0  0999 V2000
    3.3001   -2.6665    0.0000 S   0  0  0  0  0  0  0  0  0  0  0  0
    4.7291   -0.1915    0.0000 O   0  0  0  0  0  0  0  0  0  0  0  0
    1.8711   -0.1915    0.0000 O   0  0  0  0  0  0  0  0  0  0  0  0
    4.0145   -1.4290    0.0000 N   0  0  0  0  0  0  0  0  0  0  0  0
    2.5856   -1.4290    0.0000 N   0  0  0  0  0  0  0  0  0  0  0  0
    3.3001   -0.1915    0.0000 C   0  0  0  0  0  0  0  0  0  0  0  0
    3.7126    0.5231    0.0000 C   0  0  3  0  0  0  0  0  0  0  0  0
    3.3001    1.2375    0.0000 C   0  0  0  0  0  0  0  0  0  0  0  0
    2.8876    0.5231    0.0000 C   0  0  0  0  0  0  0  0  0  0  0  0
    4.5376    0.5231    0.0000 C   0  0  0  0  0  0  0  0  0  0  0  0
    4.0145   -0.6040    0.0000 C   0  0  0  0  0  0  0  0  0  0  0  0
    2.5856   -0.6040    0.0000 C   0  0  0  0  0  0  0  0  0  0  0  0
    3.7126    1.9520    0.0000 C   0  0  0  0  0  0  0  0  0  0  0  0
    2.0625    0.5231    0.0000 C   0  0  0  0  0  0  0  0  0  0  0  0
    3.3001   -1.8415    0.0000 C   0  0  0  0  0  0  0  0  0  0  0  0
    3.3001    2.6665    0.0000 C   0  0  0  0  0  0  0  0  0  0  0  0
    1.6500    1.2375    0.0000 C   0  0  0  0  0  0  0  0  0  0  0  0
    4.8671   -1.9212    0.0000 H   0  0  0  0  0  0  0  0  0  0  0  0
    1.7330   -1.9213    0.0000 H   0  0  0  0  0  0  0  0  0  0  0  0
    2.6426    0.5230    0.0000 H   0  0  0  0  0  0  0  0  0  0  0  0
    2.2301    1.2375    0.0000 H   0  0  0  0  0  0  0  0  0  0  0  0
    2.7651    2.1641    0.0000 H   0  0  0  0  0  0  0  0  0  0  0  0
    3.4226    1.4497    0.0000 H   0  0  0  0  0  0  0  0  0  0  0  0
    2.3526    1.4498    0.0000 H   0  0  0  0  0  0  0  0  0  0  0  0
    5.0726   -0.4035    0.0000 H   0  0  0  0  0  0  0  0  0  0  0  0
    5.0726    1.4497    0.0000 H   0  0  0  0  0  0  0  0  0  0  0  0
    5.6076    0.5231    0.0000 H   0  0  0  0  0  0  0  0  0  0  0  0
    4.7826    1.9520    0.0000 H   0  0  0  0  0  0  0  0  0  0  0  0
    4.2476    2.8786    0.0000 H   0  0  0  0  0  0  0  0  0  0  0  0
    1.5465   -0.3706    0.0000 H   0  0  0  0  0  0  0  0  0  0  0  0
    3.8351    3.5931    0.0000 H   0  0  0  0  0  0  0  0  0  0  0  0
    2.2301    2.6665    0.0000 H   0  0  0  0  0  0  0  0  0  0  0  0
    2.7651    3.5932    0.0000 H   0  0  0  0  0  0  0  0  0  0  0  0
    2.1660    2.1313    0.0000 H   0  0  0  0  0  0  0  0  0  0  0  0
    0.6180    1.2375    0.0000 H   0  0  0  0  0  0  0  0  0  0  0  0
  1 15  2  0  0  0  0
  2 11  2  0  0  0  0
  3 12  2  0  0  0  0
  4 11  1  0  0  0  0
  4 15  1  0  0  0  0
  4 18  1  0  0  0  0
  5 12  1  0  0  0  0
  5 15  1  0  0  0  0
  5 19  1  0  0  0  0
  6  7  1  0  0  0  0
  6  9  1  0  0  0  0
  6 11  1  0  0  0  0
  6 12  1  0  0  0  0
  7  8  1  0  0  0  0
  7 10  1  0  0  0  0
  7 20  1  0  0  0  0
  8 13  1  0  0  0  0
  8 21  1  0  0  0  0
  8 22  1  0  0  0  0
  9 14  1  0  0  0  0
  9 23  1  0  0  0  0
  9 24  1  0  0  0  0
 10 25  1  0  0  0  0
 10 26  1  0  0  0  0
 10 27  1  0  0  0  0
 13 16  1  0  0  0  0
 13 28  1  0  0  0  0
 13 29  1  0  0  0  0
 14 17  2  0  0  0  0
 14 30  1  0  0  0  0
 16 31  1  0  0  0  0
 16 32  1  0  0  0  0
 16 33  1  0  0  0  0
 17 34  1  0  0  0  0
 17 35  1  0  0  0  0
M  END
>  <DRUGBANK_ID>
DB01154

>  <SECONDARY_ACCESSION_NUMBERS>
APRD00154

>  <COMMON_NAME>
Thiamylal

>  <CAS_NUMBER>
77-27-0

>  <UNII>
01T23W89FR

>  <SYNONYMS>
5-Allyl-5-(1-methylbutyl)-2-thiobarbituric acid; 5-allyl-5-(1-methylbutyl)-2-thioxodihydro-4,6(1H,5H)-pyrimidinedione; 5-allyl-5-(1-methylbutyl)-2-thioxodihydropyrimidine-4,6(1H,5H)-dione; dihydro-5-(1-methylbutyl)-5-(2-propenyl)-2-thioxo-4,6(1H,5H)-pyrimidinedione; Thiamylal

$$$$
