
 OpenBabel10282417072D

 82 85  0  0  0  0  0  0  0  0999 V2000
   -1.1825   -1.4039    0.0000 C   0  0  0  0  0  0  0  0  0  0  0  0
    2.3897    1.4835    0.0000 C   0  0  0  0  0  0  0  0  0  0  0  0
    1.5647    0.6585    0.0000 C   0  0  0  0  0  0  0  0  0  0  0  0
    1.6752   -1.4039    0.0000 C   0  0  0  0  0  0  0  0  0  0  0  0
   -2.8937    2.6712    0.0000 C   0  0  0  0  0  0  0  0  0  0  0  0
    0.2463   -3.0539    0.0000 C   0  0  0  0  0  0  0  0  0  0  0  0
    0.9608   -2.6414    0.0000 C   0  0  0  0  0  0  0  0  0  0  0  0
   -0.4681   -2.6414    0.0000 C   0  0  0  0  0  0  0  0  0  0  0  0
    0.9608   -1.8164    0.0000 C   0  0  0  0  0  0  0  0  0  0  0  0
   -1.1825    1.8960    0.0000 C   0  0  0  0  0  0  0  0  0  0  0  0
   -1.8970    0.6585    0.0000 C   0  0  0  0  0  0  0  0  0  0  0  0
   -1.8970    2.3085    0.0000 C   0  0  0  0  0  0  0  0  0  0  0  0
   -2.6115    1.0710    0.0000 C   0  0  0  0  0  0  0  0  0  0  0  0
    3.6272    1.3730    0.0000 C   0  0  0  0  0  0  0  0  0  0  0  0
    3.6272   -0.0559    0.0000 C   0  0  0  0  0  0  0  0  0  0  0  0
    4.8647    0.6585    0.0000 C   0  0  0  0  0  0  0  0  0  0  0  0
   -0.4681   -0.1664    0.0000 C   0  0  0  0  0  0  0  0  0  0  0  0
    0.9608    0.6585    0.0000 C   0  0  0  0  0  0  0  0  0  0  0  0
   -3.4240    1.7527    0.0000 C   0  0  0  0  0  0  0  0  0  0  0  0
   -0.4681   -1.8164    0.0000 C   0  0  0  0  0  0  0  0  0  0  0  0
    3.2147    0.6585    0.0000 C   0  0  0  0  0  0  0  0  0  0  0  0
    4.4522    1.3730    0.0000 C   0  0  0  0  0  0  0  0  0  0  0  0
    4.4522   -0.0559    0.0000 C   0  0  0  0  0  0  0  0  0  0  0  0
    0.2463   -1.4039    0.0000 C   0  0  0  0  0  0  0  0  0  0  0  0
    0.2463   -0.5789    0.0000 C   0  0  0  0  0  0  0  0  0  0  0  0
    0.9608   -0.1664    0.0000 C   0  0  0  0  0  0  0  0  0  0  0  0
   -0.4681    0.6585    0.0000 C   0  0  0  0  0  0  0  0  0  0  0  0
    2.3897   -0.1664    0.0000 C   0  0  0  0  0  0  0  0  0  0  0  0
    2.3897    0.6585    0.0000 C   0  0  0  0  0  0  0  0  0  0  0  0
    4.8647    2.0874    0.0000 C   0  0  0  0  0  0  0  0  0  0  0  0
    4.8647   -0.7704    0.0000 C   0  0  0  0  0  0  0  0  0  0  0  0
    5.2772    2.8019    0.0000 F   0  0  0  0  0  0  0  0  0  0  0  0
    4.1502    2.4999    0.0000 F   0  0  0  0  0  0  0  0  0  0  0  0
    5.5792    1.6749    0.0000 F   0  0  0  0  0  0  0  0  0  0  0  0
    5.2772   -1.4848    0.0000 F   0  0  0  0  0  0  0  0  0  0  0  0
    5.5792   -0.3579    0.0000 F   0  0  0  0  0  0  0  0  0  0  0  0
    4.1502   -1.1829    0.0000 F   0  0  0  0  0  0  0  0  0  0  0  0
    0.2463    1.0710    0.0000 N   0  0  0  0  0  0  0  0  0  0  0  0
    1.6752   -0.5789    0.0000 N   0  0  0  0  0  0  0  0  0  0  0  0
   -1.1825    1.0710    0.0000 N   0  0  0  0  0  0  0  0  0  0  0  0
   -2.6115    1.8960    0.0000 N   0  3  0  0  0  0  0  0  0  0  0  0
    3.1042   -0.5789    0.0000 O   0  0  0  0  0  0  0  0  0  0  0  0
   -5.5792    2.0982    0.0000 O   0  0  0  0  0  0  0  0  0  0  0  0
   -4.9100    3.0539    0.0000 O   0  5  0  0  0  0  0  0  0  0  0  0
   -4.6235    1.4290    0.0000 O   0  0  0  0  0  0  0  0  0  0  0  0
   -3.9543    2.3847    0.0000 O   0  0  0  0  0  0  0  0  0  0  0  0
   -4.7667    2.2415    0.0000 P   0  0  3  0  0  0  0  0  0  0  0  0
   -1.1825   -0.3339    0.0000 H   0  0  0  0  0  0  0  0  0  0  0  0
   -2.1092   -1.9389    0.0000 H   0  0  0  0  0  0  0  0  0  0  0  0
   -2.1091   -0.8689    0.0000 H   0  0  0  0  0  0  0  0  0  0  0  0
    3.3163    2.0185    0.0000 H   0  0  0  0  0  0  0  0  0  0  0  0
    1.4631    2.0185    0.0000 H   0  0  0  0  0  0  0  0  0  0  0  0
    2.3897    2.5535    0.0000 H   0  0  0  0  0  0  0  0  0  0  0  0
    1.0297    1.5851    0.0000 H   0  0  0  0  0  0  0  0  0  0  0  0
    1.0297   -0.2681    0.0000 H   0  0  0  0  0  0  0  0  0  0  0  0
    0.4947    0.6585    0.0000 H   0  0  0  0  0  0  0  0  0  0  0  0
    0.7486   -1.9389    0.0000 H   0  0  0  0  0  0  0  0  0  0  0  0
    2.6018   -1.9389    0.0000 H   0  0  0  0  0  0  0  0  0  0  0  0
    1.6752   -2.4739    0.0000 H   0  0  0  0  0  0  0  0  0  0  0  0
   -2.2060    3.4909    0.0000 H   0  0  0  0  0  0  0  0  0  0  0  0
   -3.9475    2.8569    0.0000 H   0  0  0  0  0  0  0  0  0  0  0  0
   -3.2597    3.6767    0.0000 H   0  0  0  0  0  0  0  0  0  0  0  0
    0.2463   -4.0859    0.0000 H   0  0  0  0  0  0  0  0  0  0  0  0
    1.8545   -3.1574    0.0000 H   0  0  0  0  0  0  0  0  0  0  0  0
   -1.3618   -3.1574    0.0000 H   0  0  0  0  0  0  0  0  0  0  0  0
    1.8545   -1.3004    0.0000 H   0  0  0  0  0  0  0  0  0  0  0  0
   -0.2559    2.4310    0.0000 H   0  0  0  0  0  0  0  0  0  0  0  0
   -0.2559    1.3610    0.0000 H   0  0  0  0  0  0  0  0  0  0  0  0
   -1.8970   -0.4115    0.0000 H   0  0  0  0  0  0  0  0  0  0  0  0
   -0.9704    0.1235    0.0000 H   0  0  0  0  0  0  0  0  0  0  0  0
   -1.8970    3.3785    0.0000 H   0  0  0  0  0  0  0  0  0  0  0  0
   -2.8236    2.8435    0.0000 H   0  0  0  0  0  0  0  0  0  0  0  0
   -3.5381    0.5360    0.0000 H   0  0  0  0  0  0  0  0  0  0  0  0
   -3.5381    1.6060    0.0000 H   0  0  0  0  0  0  0  0  0  0  0  0
    3.1112    2.2667    0.0000 H   0  0  0  0  0  0  0  0  0  0  0  0
    3.1112   -0.9496    0.0000 H   0  0  0  0  0  0  0  0  0  0  0  0
    5.8967    0.6585    0.0000 H   0  0  0  0  0  0  0  0  0  0  0  0
   -1.3618   -0.6824    0.0000 H   0  0  0  0  0  0  0  0  0  0  0  0
    1.8545    1.1745    0.0000 H   0  0  0  0  0  0  0  0  0  0  0  0
   -3.7899    0.7472    0.0000 H   0  0  0  0  0  0  0  0  0  0  0  0
   -4.4777    1.5669    0.0000 H   0  0  0  0  0  0  0  0  0  0  0  0
   -6.2027    2.8412    0.0000 H   0  0  0  0  0  0  0  0  0  0  0  0
  1 48  1  0  0  0  0
  1 49  1  0  0  0  0
  1 50  1  0  0  0  0
  2 51  1  0  0  0  0
  2 52  1  0  0  0  0
  2 53  1  0  0  0  0
  3 54  1  0  0  0  0
  3 55  1  0  0  0  0
  3 56  1  0  0  0  0
  4 57  1  0  0  0  0
  4 58  1  0  0  0  0
  4 59  1  0  0  0  0
  5 60  1  0  0  0  0
  5 61  1  0  0  0  0
  5 62  1  0  0  0  0
  6 63  1  0  0  0  0
  7  6  2  0  0  0  0
  7 64  1  0  0  0  0
  8  6  1  0  0  0  0
  8 65  1  0  0  0  0
  9  7  1  0  0  0  0
  9 66  1  0  0  0  0
 10 67  1  0  0  0  0
 10 68  1  0  0  0  0
 11 69  1  0  0  0  0
 11 70  1  0  0  0  0
 12 10  1  0  0  0  0
 12 71  1  0  0  0  0
 12 72  1  0  0  0  0
 13 11  1  0  0  0  0
 13 73  1  0  0  0  0
 13 74  1  0  0  0  0
 14 75  1  0  0  0  0
 15 76  1  0  0  0  0
 16 77  1  0  0  0  0
 17 78  1  0  0  0  0
 18 79  1  0  0  0  0
 19 80  1  0  0  0  0
 19 81  1  0  0  0  0
 20  1  1  0  0  0  0
 20  8  2  0  0  0  0
 21 14  2  0  0  0  0
 21 15  1  0  0  0  0
 22 14  1  0  0  0  0
 22 16  2  0  0  0  0
 23 15  2  0  0  0  0
 23 16  1  0  0  0  0
 24  9  2  0  0  0  0
 24 20  1  0  0  0  0
 25 17  2  0  0  0  0
 25 24  1  0  0  0  0
 26 18  2  0  0  0  0
 26 25  1  0  0  0  0
 27 17  1  0  0  0  0
 29  2  1  0  0  0  0
 29  3  1  0  0  0  0
 29 21  1  0  0  0  0
 29 28  1  0  0  0  0
 30 22  1  0  0  0  0
 31 23  1  0  0  0  0
 32 30  1  0  0  0  0
 33 30  1  0  0  0  0
 34 30  1  0  0  0  0
 35 31  1  0  0  0  0
 36 31  1  0  0  0  0
 37 31  1  0  0  0  0
 38 18  1  0  0  0  0
 38 27  2  0  0  0  0
 39  4  1  0  0  0  0
 39 26  1  0  0  0  0
 39 28  1  0  0  0  0
 40 10  1  0  0  0  0
 40 11  1  0  0  0  0
 40 27  1  0  0  0  0
 41  5  1  0  0  0  0
 41 12  1  0  0  0  0
 41 13  1  0  0  0  0
 41 19  1  0  0  0  0
 42 28  2  0  0  0  0
 43 82  1  0  0  0  0
 46 19  1  0  0  0  0
 47 43  1  0  0  0  0
 47 44  1  0  0  0  0
 47 45  2  0  0  0  0
 47 46  1  0  0  0  0
M  CHG  2  41   1  44  -1
M  END
>  <DRUGBANK_ID>
DB14019

>  <COMMON_NAME>
Fosnetupitant

>  <CAS_NUMBER>
1703748-89-3

>  <UNII>
T672P80L2S

>  <SYNONYMS>
Fosnetupitant

$$$$
