
 OpenBabel10282417072D

 34 34  0  0  1  0  0  0  0  0999 V2000
    6.3523   -7.4984    0.0000 O   0  0  0  0  0  0  0  0  0  0  0  0
    7.6707   -6.2609    0.0000 O   0  0  0  0  0  0  0  0  0  0  0  0
    6.9562   -6.6734    0.0000 C   0  0  1  0  0  0  0  0  0  0  0  0
    7.6707   -5.4359    0.0000 C   0  0  2  0  0  0  0  0  0  0  0  0
    6.2417   -6.2609    0.0000 C   0  0  1  0  0  0  0  0  0  0  0  0
    6.9562   -5.0234    0.0000 C   0  0  1  0  0  0  0  0  0  0  0  0
    6.2417   -5.4359    0.0000 C   0  0  1  0  0  0  0  0  0  0  0  0
    6.9562   -7.4984    0.0000 C   0  0  0  0  0  0  0  0  0  0  0  0
    7.6707   -7.9109    0.0000 O   0  0  0  0  0  0  0  0  0  0  0  0
    8.3852   -5.0234    0.0000 O   0  0  0  0  0  0  0  0  0  0  0  0
    5.5273   -5.0234    0.0000 O   0  0  0  0  0  0  0  0  0  0  0  0
    5.5273   -6.6734    0.0000 O   0  0  0  0  0  0  0  0  0  0  0  0
    5.5273   -7.4984    0.0000 S   0  0  0  0  0  0  0  0  0  0  0  0
    4.7022   -7.4984    0.0000 O   0  0  0  0  0  0  0  0  0  0  0  0
    5.5273   -8.3234    0.0000 O   0  0  0  0  0  0  0  0  0  0  0  0
    6.9562   -4.1984    0.0000 N   0  0  0  0  0  0  0  0  0  0  0  0
    6.2417   -3.7858    0.0000 C   0  0  0  0  0  0  0  0  0  0  0  0
    6.2417   -2.9608    0.0000 C   0  0  0  0  0  0  0  0  0  0  0  0
    5.5273   -4.1984    0.0000 O   0  0  0  0  0  0  0  0  0  0  0  0
    7.8828   -7.2084    0.0000 H   0  0  0  0  0  0  0  0  0  0  0  0
    8.5973   -5.9709    0.0000 H   0  0  0  0  0  0  0  0  0  0  0  0
    6.2417   -7.3309    0.0000 H   0  0  0  0  0  0  0  0  0  0  0  0
    7.8828   -4.4884    0.0000 H   0  0  0  0  0  0  0  0  0  0  0  0
    5.3150   -5.9709    0.0000 H   0  0  0  0  0  0  0  0  0  0  0  0
    6.0296   -8.0334    0.0000 H   0  0  0  0  0  0  0  0  0  0  0  0
    6.9562   -8.5684    0.0000 H   0  0  0  0  0  0  0  0  0  0  0  0
    7.6707   -8.8809    0.0000 H   0  0  0  0  0  0  0  0  0  0  0  0
    9.2252   -5.5084    0.0000 H   0  0  0  0  0  0  0  0  0  0  0  0
    5.5273   -4.0534    0.0000 H   0  0  0  0  0  0  0  0  0  0  0  0
    4.6873   -8.8084    0.0000 H   0  0  0  0  0  0  0  0  0  0  0  0
    7.8088   -3.7062    0.0000 H   0  0  0  0  0  0  0  0  0  0  0  0
    7.1683   -2.4258    0.0000 H   0  0  0  0  0  0  0  0  0  0  0  0
    5.3151   -2.4258    0.0000 H   0  0  0  0  0  0  0  0  0  0  0  0
    6.2417   -1.8908    0.0000 H   0  0  0  0  0  0  0  0  0  0  0  0
  1 13  2  0  0  0  0
  3  2  1  0  0  0  0
  3  8  1  0  0  0  0
  3 20  1  1  0  0  0
  4  2  1  0  0  0  0
  4 10  1  0  0  0  0
  4 21  1  1  0  0  0
  5  3  1  0  0  0  0
  5 12  1  0  0  0  0
  5 22  1  1  0  0  0
  6  4  1  0  0  0  0
  6 16  1  0  0  0  0
  6 23  1  6  0  0  0
  7  5  1  0  0  0  0
  7  6  1  0  0  0  0
  7 11  1  0  0  0  0
  7 24  1  1  0  0  0
  8 25  1  0  0  0  0
  8 26  1  0  0  0  0
  9  8  1  0  0  0  0
  9 27  1  0  0  0  0
 10 28  1  0  0  0  0
 11 29  1  0  0  0  0
 13 12  1  0  0  0  0
 14 13  2  0  0  0  0
 15 13  1  0  0  0  0
 15 30  1  0  0  0  0
 16 31  1  0  0  0  0
 17 16  1  0  0  0  0
 18 17  1  0  0  0  0
 18 32  1  0  0  0  0
 18 33  1  0  0  0  0
 18 34  1  0  0  0  0
 19 17  2  0  0  0  0
M  END
>  <DRUGBANK_ID>
DB01872

>  <SECONDARY_ACCESSION_NUMBERS>
EXPT02337

>  <COMMON_NAME>
2-deoxy-2-acetamido-beta-D-galactose-4-sulfate

$$$$
