
 OpenBabel10282417072D

 29 29  0  0  0  0  0  0  0  0999 V2000
    0.5874    0.3557    0.0000 N   0  0  0  0  0  0  0  0  0  0  0  0
   -0.1391   -0.0442    0.0000 C   0  0  0  0  0  0  0  0  0  0  0  0
   -0.8380    0.3861    0.0000 C   0  0  2  0  0  0  0  0  0  0  0  0
   -1.5621   -0.0164    0.0000 C   0  0  0  0  0  0  0  0  0  0  0  0
   -2.2660    0.4013    0.0000 S   0  0  0  0  0  0  0  0  0  0  0  0
   -0.8405    1.2139    0.0000 C   0  0  0  0  0  0  0  0  0  0  0  0
   -0.1391   -0.8595    0.0000 O   0  0  0  0  0  0  0  0  0  0  0  0
    1.3393    0.0062    0.0000 C   0  0  2  0  0  0  0  0  0  0  0  0
    1.4912   -0.7911    0.0000 C   0  0  0  0  0  0  0  0  0  0  0  0
    2.2660   -1.0494    0.0000 O   0  0  0  0  0  0  0  0  0  0  0  0
    0.8785   -1.3355    0.0000 O   0  0  0  0  0  0  0  0  0  0  0  0
    1.8963    0.6240    0.0000 C   0  0  0  0  0  0  0  0  0  0  0  0
    1.4785    1.3355    0.0000 C   0  0  0  0  0  0  0  0  0  0  0  0
    0.6981    1.1922    0.0000 C   0  0  0  0  0  0  0  0  0  0  0  0
    0.0953    0.9094    0.0000 H   0  0  0  0  0  0  0  0  0  0  0  0
   -1.5772   -1.0863    0.0000 H   0  0  0  0  0  0  0  0  0  0  0  0
   -2.4956   -0.5393    0.0000 H   0  0  0  0  0  0  0  0  0  0  0  0
   -2.2497    1.7612    0.0000 H   0  0  0  0  0  0  0  0  0  0  0  0
    0.0845    1.7517    0.0000 H   0  0  0  0  0  0  0  0  0  0  0  0
   -1.7688    1.7461    0.0000 H   0  0  0  0  0  0  0  0  0  0  0  0
   -0.8437    2.2839    0.0000 H   0  0  0  0  0  0  0  0  0  0  0  0
    0.4953   -0.6515    0.0000 H   0  0  0  0  0  0  0  0  0  0  0  0
   -0.0107   -1.0401    0.0000 H   0  0  0  0  0  0  0  0  0  0  0  0
    2.9608    0.5157    0.0000 H   0  0  0  0  0  0  0  0  0  0  0  0
    2.4742    1.5245    0.0000 H   0  0  0  0  0  0  0  0  0  0  0  0
    1.9237    2.3085    0.0000 H   0  0  0  0  0  0  0  0  0  0  0  0
    0.8211    2.1797    0.0000 H   0  0  0  0  0  0  0  0  0  0  0  0
   -0.0772    1.9296    0.0000 H   0  0  0  0  0  0  0  0  0  0  0  0
    1.0034    2.2177    0.0000 H   0  0  0  0  0  0  0  0  0  0  0  0
  2  1  1  0  0  0  0
  3  2  1  0  0  0  0
  3  6  1  0  0  0  0
  3 15  1  1  0  0  0
  4  3  1  0  0  0  0
  4 16  1  0  0  0  0
  4 17  1  0  0  0  0
  5  4  1  0  0  0  0
  5 18  1  0  0  0  0
  6 19  1  0  0  0  0
  6 20  1  0  0  0  0
  6 21  1  0  0  0  0
  7  2  2  0  0  0  0
  8  1  1  0  0  0  0
  8  9  1  0  0  0  0
  8 22  1  6  0  0  0
 10  9  2  0  0  0  0
 11  9  1  0  0  0  0
 11 23  1  0  0  0  0
 12  8  1  0  0  0  0
 12 13  1  0  0  0  0
 12 24  1  0  0  0  0
 12 25  1  0  0  0  0
 13 14  1  0  0  0  0
 13 26  1  0  0  0  0
 13 27  1  0  0  0  0
 14  1  1  0  0  0  0
 14 28  1  0  0  0  0
 14 29  1  0  0  0  0
M  END
>  <DRUGBANK_ID>
DB02032

>  <SECONDARY_ACCESSION_NUMBERS>
EXPT02137

>  <COMMON_NAME>
Epicaptopril

>  <CAS_NUMBER>
63250-36-2

>  <UNII>
PPW0ENH1HA

>  <SYNONYMS>
(2S)-1-((2R)-2-Methyl-3-sulfanylpropanoyl)pyrrolidine-2-carboxylic acid; 2-D-Methyl-3-mercaptopropanoyl-L-proline

$$$$
