
 OpenBabel10282417072D

 75 78  0  0  0  0  0  0  0  0999 V2000
   -5.6721   -0.8259    0.0000 C   0  0  0  0  0  0  0  0  0  0  0  0
   -6.0814   -0.1096    0.0000 C   0  0  0  0  0  0  0  0  0  0  0  0
   -6.9001   -0.1096    0.0000 C   0  0  0  0  0  0  0  0  0  0  0  0
   -7.3094   -0.8259    0.0000 C   0  0  0  0  0  0  0  0  0  0  0  0
   -6.9001   -1.5422    0.0000 C   0  0  0  0  0  0  0  0  0  0  0  0
   -6.0814   -1.5422    0.0000 C   0  0  0  0  0  0  0  0  0  0  0  0
   -4.8389   -0.8259    0.0000 C   0  0  0  0  0  0  0  0  0  0  0  0
   -3.2015   -0.8259    0.0000 C   0  0  0  0  0  0  0  0  0  0  0  0
   -3.6108   -0.1096    0.0000 C   0  0  0  0  0  0  0  0  0  0  0  0
   -4.4295   -0.1096    0.0000 C   0  0  0  0  0  0  0  0  0  0  0  0
   -4.4295   -1.5422    0.0000 C   0  0  0  0  0  0  0  0  0  0  0  0
   -3.6108   -1.5422    0.0000 C   0  0  0  0  0  0  0  0  0  0  0  0
   -2.3829   -0.8259    0.0000 C   0  0  0  0  0  0  0  0  0  0  0  0
   -2.1782    1.3522    0.0000 C   0  0  0  0  0  0  0  0  0  0  0  0
   -2.4267    0.5628    0.0000 C   0  0  0  0  0  0  0  0  0  0  0  0
   -1.1403   -0.1827    0.0000 C   0  0  0  0  0  0  0  0  0  0  0  0
   -0.7017    1.2206    0.0000 C   0  0  0  0  0  0  0  0  0  0  0  0
   -1.4034    1.6446    0.0000 C   0  0  0  0  0  0  0  0  0  0  0  0
   -1.9589   -0.1096    0.0000 N   0  0  0  0  0  0  0  0  0  0  0  0
   -0.8479   -0.9575    0.0000 O   0  0  0  0  0  0  0  0  0  0  0  0
   -0.5847    0.4166    0.0000 C   0  0  2  0  0  0  0  0  0  0  0  0
    0.2339    0.4166    0.0000 N   0  0  0  0  0  0  0  0  0  0  0  0
    0.9502    0.8260    0.0000 C   0  0  0  0  0  0  0  0  0  0  0  0
    0.9502    1.6446    0.0000 O   0  0  0  0  0  0  0  0  0  0  0  0
    1.6665    0.4166    0.0000 C   0  0  1  0  0  0  0  0  0  0  0  0
    1.6665   -0.4166    0.0000 N   0  0  0  0  0  0  0  0  0  0  0  0
    2.3828   -0.8259    0.0000 C   0  0  0  0  0  0  0  0  0  0  0  0
    3.0846   -0.4166    0.0000 C   0  0  0  0  0  0  0  0  0  0  0  0
    2.3828   -1.6446    0.0000 O   0  0  0  0  0  0  0  0  0  0  0  0
    2.3828    0.8260    0.0000 C   0  0  0  0  0  0  0  0  0  0  0  0
    3.2015    0.8260    0.0000 C   0  0  0  0  0  0  0  0  0  0  0  0
    4.8388    0.8260    0.0000 C   0  0  0  0  0  0  0  0  0  0  0  0
    4.4295    1.5277    0.0000 C   0  0  0  0  0  0  0  0  0  0  0  0
    3.6108    1.5277    0.0000 C   0  0  0  0  0  0  0  0  0  0  0  0
    3.6108    0.1096    0.0000 C   0  0  0  0  0  0  0  0  0  0  0  0
    4.4295    0.1096    0.0000 C   0  0  0  0  0  0  0  0  0  0  0  0
    5.6721    0.8260    0.0000 O   0  0  0  0  0  0  0  0  0  0  0  0
    6.4908    0.8260    0.0000 P   0  0  0  0  0  0  0  0  0  0  0  0
    6.4908    1.6446    0.0000 O   0  0  0  0  0  0  0  0  0  0  0  0
    7.3094    0.8260    0.0000 O   0  0  0  0  0  0  0  0  0  0  0  0
    6.4908   -0.0072    0.0000 O   0  0  0  0  0  0  0  0  0  0  0  0
   -5.5634    0.7830    0.0000 H   0  0  0  0  0  0  0  0  0  0  0  0
   -7.4181    0.7830    0.0000 H   0  0  0  0  0  0  0  0  0  0  0  0
   -8.3414   -0.8259    0.0000 H   0  0  0  0  0  0  0  0  0  0  0  0
   -7.4181   -2.4348    0.0000 H   0  0  0  0  0  0  0  0  0  0  0  0
   -5.5634   -2.4348    0.0000 H   0  0  0  0  0  0  0  0  0  0  0  0
   -3.0928    0.7830    0.0000 H   0  0  0  0  0  0  0  0  0  0  0  0
   -4.9474    0.7830    0.0000 H   0  0  0  0  0  0  0  0  0  0  0  0
   -4.9474   -2.4348    0.0000 H   0  0  0  0  0  0  0  0  0  0  0  0
   -3.0928   -2.4348    0.0000 H   0  0  0  0  0  0  0  0  0  0  0  0
   -1.8529   -1.7554    0.0000 H   0  0  0  0  0  0  0  0  0  0  0  0
   -1.3129   -0.8346    0.0000 H   0  0  0  0  0  0  0  0  0  0  0  0
   -2.9556    2.0874    0.0000 H   0  0  0  0  0  0  0  0  0  0  0  0
   -1.9674    2.4012    0.0000 H   0  0  0  0  0  0  0  0  0  0  0  0
   -3.4845    0.4014    0.0000 H   0  0  0  0  0  0  0  0  0  0  0  0
   -2.8490   -0.4203    0.0000 H   0  0  0  0  0  0  0  0  0  0  0  0
    0.1898    1.8122    0.0000 H   0  0  0  0  0  0  0  0  0  0  0  0
   -0.7244    2.2904    0.0000 H   0  0  0  0  0  0  0  0  0  0  0  0
   -1.3058    2.7101    0.0000 H   0  0  0  0  0  0  0  0  0  0  0  0
   -0.4484    2.1272    0.0000 H   0  0  0  0  0  0  0  0  0  0  0  0
   -0.1566   -0.5640    0.0000 H   0  0  0  0  0  0  0  0  0  0  0  0
    0.4866   -0.5349    0.0000 H   0  0  0  0  0  0  0  0  0  0  0  0
    0.7410   -0.1204    0.0000 H   0  0  0  0  0  0  0  0  0  0  0  0
    0.8150   -0.9108    0.0000 H   0  0  0  0  0  0  0  0  0  0  0  0
    4.0136   -0.9475    0.0000 H   0  0  0  0  0  0  0  0  0  0  0  0
    3.0799    0.6534    0.0000 H   0  0  0  0  0  0  0  0  0  0  0  0
    4.0089    0.1225    0.0000 H   0  0  0  0  0  0  0  0  0  0  0  0
    2.1081    1.8601    0.0000 H   0  0  0  0  0  0  0  0  0  0  0  0
    3.0351    1.6742    0.0000 H   0  0  0  0  0  0  0  0  0  0  0  0
    4.9435    2.4226    0.0000 H   0  0  0  0  0  0  0  0  0  0  0  0
    3.0968    2.4226    0.0000 H   0  0  0  0  0  0  0  0  0  0  0  0
    3.0928   -0.7830    0.0000 H   0  0  0  0  0  0  0  0  0  0  0  0
    4.9475   -0.7830    0.0000 H   0  0  0  0  0  0  0  0  0  0  0  0
    7.7944   -0.0140    0.0000 H   0  0  0  0  0  0  0  0  0  0  0  0
    5.6508   -0.4922    0.0000 H   0  0  0  0  0  0  0  0  0  0  0  0
  1  2  2  0  0  0  0
  1  6  1  0  0  0  0
  1  7  1  0  0  0  0
  2  3  1  0  0  0  0
  2 42  1  0  0  0  0
  3  4  2  0  0  0  0
  3 43  1  0  0  0  0
  4  5  1  0  0  0  0
  4 44  1  0  0  0  0
  5  6  2  0  0  0  0
  5 45  1  0  0  0  0
  6 46  1  0  0  0  0
  7 10  1  0  0  0  0
  7 11  2  0  0  0  0
  8  9  1  0  0  0  0
  8 12  2  0  0  0  0
  8 13  1  0  0  0  0
  9 10  2  0  0  0  0
  9 47  1  0  0  0  0
 10 48  1  0  0  0  0
 11 12  1  0  0  0  0
 11 49  1  0  0  0  0
 12 50  1  0  0  0  0
 13 19  1  0  0  0  0
 13 51  1  0  0  0  0
 13 52  1  0  0  0  0
 14 15  1  0  0  0  0
 14 18  1  0  0  0  0
 14 53  1  0  0  0  0
 14 54  1  0  0  0  0
 15 19  1  0  0  0  0
 15 55  1  0  0  0  0
 15 56  1  0  0  0  0
 16 19  1  0  0  0  0
 16 21  1  0  0  0  0
 16 20  2  0  0  0  0
 17 21  1  0  0  0  0
 17 18  1  0  0  0  0
 17 57  1  0  0  0  0
 17 58  1  0  0  0  0
 18 59  1  0  0  0  0
 18 60  1  0  0  0  0
 21 22  1  0  0  0  0
 21 61  1  1  0  0  0
 22 23  1  0  0  0  0
 22 62  1  0  0  0  0
 23 25  1  0  0  0  0
 23 24  2  0  0  0  0
 25 30  1  0  0  0  0
 25 26  1  0  0  0  0
 25 63  1  1  0  0  0
 26 27  1  0  0  0  0
 26 64  1  0  0  0  0
 27 28  1  0  0  0  0
 27 29  2  0  0  0  0
 28 65  1  0  0  0  0
 28 66  1  0  0  0  0
 28 67  1  0  0  0  0
 30 31  1  0  0  0  0
 30 68  1  0  0  0  0
 30 69  1  0  0  0  0
 31 34  1  0  0  0  0
 31 35  2  0  0  0  0
 32 33  1  0  0  0  0
 32 36  2  0  0  0  0
 32 37  1  0  0  0  0
 33 34  2  0  0  0  0
 33 70  1  0  0  0  0
 34 71  1  0  0  0  0
 35 36  1  0  0  0  0
 35 72  1  0  0  0  0
 36 73  1  0  0  0  0
 37 38  1  0  0  0  0
 38 40  1  0  0  0  0
 38 39  2  0  0  0  0
 38 41  1  0  0  0  0
 40 74  1  0  0  0  0
 41 75  1  0  0  0  0
M  END
>  <DRUGBANK_ID>
DB04495

>  <SECONDARY_ACCESSION_NUMBERS>
EXPT00324

>  <COMMON_NAME>
Paratoulene phosphate

$$$$
