
 OpenBabel10282417072D

 70 74  0  0  0  0  0  0  0  0999 V2000
   -5.1066    2.3698    0.0000 C   0  0  0  0  0  0  0  0  0  0  0  0
   -4.3921    1.9573    0.0000 C   0  0  0  0  0  0  0  0  0  0  0  0
   -4.3921    1.1323    0.0000 C   0  0  0  0  0  0  0  0  0  0  0  0
   -5.1066    0.7198    0.0000 C   0  0  0  0  0  0  0  0  0  0  0  0
   -5.8210    1.1323    0.0000 C   0  0  0  0  0  0  0  0  0  0  0  0
   -5.8210    1.9573    0.0000 C   0  0  0  0  0  0  0  0  0  0  0  0
   -0.7091    1.1323    0.0000 N   0  0  0  0  0  0  0  0  0  0  0  0
   -0.7091    1.9573    0.0000 C   0  0  1  0  0  0  0  0  0  0  0  0
    0.0754    0.8774    0.0000 C   0  0  2  0  0  0  0  0  0  0  0  0
   -1.5342    1.1323    0.0000 C   0  0  0  0  0  0  0  0  0  0  0  0
   -1.5342    1.9573    0.0000 C   0  0  1  0  0  0  0  0  0  0  0  0
    0.0754    2.2122    0.0000 S   0  0  0  0  0  0  0  0  0  0  0  0
    0.5603    1.5448    0.0000 C   0  0  0  0  0  0  0  0  0  0  0  0
    0.3302    0.0927    0.0000 C   0  0  0  0  0  0  0  0  0  0  0  0
    1.2791    1.1398    0.0000 C   0  0  0  0  0  0  0  0  0  0  0  0
    1.2791    1.9498    0.0000 C   0  0  0  0  0  0  0  0  0  0  0  0
   -0.2216   -0.5203    0.0000 O   0  0  0  0  0  0  0  0  0  0  0  0
    1.1373   -0.0787    0.0000 O   0  0  0  0  0  0  0  0  0  0  0  0
   -2.2487    2.3698    0.0000 N   0  0  0  0  0  0  0  0  0  0  0  0
   -2.9631    1.9573    0.0000 C   0  0  0  0  0  0  0  0  0  0  0  0
   -3.6777    2.3698    0.0000 C   0  0  2  0  0  0  0  0  0  0  0  0
   -2.9631    1.1323    0.0000 O   0  0  0  0  0  0  0  0  0  0  0  0
   -3.6777    3.1948    0.0000 N   0  0  0  0  0  0  0  0  0  0  0  0
   -2.1176    0.5489    0.0000 O   0  0  0  0  0  0  0  0  0  0  0  0
   -0.7091    2.7823    0.0000 H   0  0  0  0  0  0  0  0  0  0  0  0
    4.4128   -1.2898    0.0000 N   0  0  0  0  0  0  0  0  0  0  0  0
    4.4128   -2.1148    0.0000 C   0  0  1  0  0  0  0  0  0  0  0  0
    3.6280   -1.0349    0.0000 C   0  0  2  0  0  0  0  0  0  0  0  0
    5.2378   -1.2898    0.0000 C   0  0  0  0  0  0  0  0  0  0  0  0
    5.2378   -2.1148    0.0000 C   0  0  0  0  0  0  0  0  0  0  0  0
    3.6280   -2.3697    0.0000 S   0  0  0  0  0  0  0  0  0  0  0  0
    3.1432   -1.7023    0.0000 C   0  0  0  0  0  0  0  0  0  0  0  0
    3.3731   -0.2502    0.0000 C   0  0  0  0  0  0  0  0  0  0  0  0
    2.4245   -1.2973    0.0000 C   0  0  0  0  0  0  0  0  0  0  0  0
    2.4245   -2.1073    0.0000 C   0  0  0  0  0  0  0  0  0  0  0  0
    3.9252    0.3628    0.0000 O   0  0  0  0  0  0  0  0  0  0  0  0
    2.5661   -0.0787    0.0000 O   0  0  0  0  0  0  0  0  0  0  0  0
    5.8210   -0.7064    0.0000 O   0  0  0  0  0  0  0  0  0  0  0  0
    4.4128   -2.9398    0.0000 H   0  0  0  0  0  0  0  0  0  0  0  0
    3.6280   -3.1948    0.0000 O   0  0  0  0  0  0  0  0  0  0  0  0
    2.9137   -2.7822    0.0000 O   0  0  0  0  0  0  0  0  0  0  0  0
    1.8518   -0.4912    0.0000 C   0  0  0  0  0  0  0  0  0  0  0  0
   -5.1066    3.4018    0.0000 H   0  0  0  0  0  0  0  0  0  0  0  0
   -3.4984    0.6163    0.0000 H   0  0  0  0  0  0  0  0  0  0  0  0
   -5.1066   -0.3122    0.0000 H   0  0  0  0  0  0  0  0  0  0  0  0
   -6.7147    0.6163    0.0000 H   0  0  0  0  0  0  0  0  0  0  0  0
   -6.7147    2.4733    0.0000 H   0  0  0  0  0  0  0  0  0  0  0  0
   -0.6813    0.1209    0.0000 H   0  0  0  0  0  0  0  0  0  0  0  0
   -1.2573    2.9908    0.0000 H   0  0  0  0  0  0  0  0  0  0  0  0
    1.2903    0.0699    0.0000 H   0  0  0  0  0  0  0  0  0  0  0  0
    2.2001    1.6845    0.0000 H   0  0  0  0  0  0  0  0  0  0  0  0
    2.2113    0.6146    0.0000 H   0  0  0  0  0  0  0  0  0  0  0  0
    2.2001    1.4051    0.0000 H   0  0  0  0  0  0  0  0  0  0  0  0
    1.2903    3.0197    0.0000 H   0  0  0  0  0  0  0  0  0  0  0  0
    2.2113    2.4750    0.0000 H   0  0  0  0  0  0  0  0  0  0  0  0
   -2.2487    3.3543    0.0000 H   0  0  0  0  0  0  0  0  0  0  0  0
   -4.6044    2.9048    0.0000 H   0  0  0  0  0  0  0  0  0  0  0  0
   -2.7944    3.7048    0.0000 H   0  0  0  0  0  0  0  0  0  0  0  0
   -4.5610    3.7048    0.0000 H   0  0  0  0  0  0  0  0  0  0  0  0
    4.3846   -0.2783    0.0000 H   0  0  0  0  0  0  0  0  0  0  0  0
    5.9944   -2.8714    0.0000 H   0  0  0  0  0  0  0  0  0  0  0  0
    6.2264   -1.7053    0.0000 H   0  0  0  0  0  0  0  0  0  0  0  0
    2.4133   -0.2274    0.0000 H   0  0  0  0  0  0  0  0  0  0  0  0
    1.5035   -1.8419    0.0000 H   0  0  0  0  0  0  0  0  0  0  0  0
    1.4923   -0.7720    0.0000 H   0  0  0  0  0  0  0  0  0  0  0  0
    1.5035   -1.5627    0.0000 H   0  0  0  0  0  0  0  0  0  0  0  0
    2.4133   -3.1772    0.0000 H   0  0  0  0  0  0  0  0  0  0  0  0
    1.4923   -2.6326    0.0000 H   0  0  0  0  0  0  0  0  0  0  0  0
    1.8519   -1.5612    0.0000 H   0  0  0  0  0  0  0  0  0  0  0  0
    2.7785   -1.0261    0.0000 H   0  0  0  0  0  0  0  0  0  0  0  0
  1  2  2  0  0  0  0
  1 43  1  0  0  0  0
  2 21  1  0  0  0  0
  3  2  1  0  0  0  0
  3 44  1  0  0  0  0
  4  3  2  0  0  0  0
  4 45  1  0  0  0  0
  5  6  2  0  0  0  0
  5  4  1  0  0  0  0
  5 46  1  0  0  0  0
  6  1  1  0  0  0  0
  6 47  1  0  0  0  0
  8  7  1  0  0  0  0
  8 11  1  0  0  0  0
  8 12  1  0  0  0  0
  8 25  1  6  0  0  0
  9  7  1  0  0  0  0
  9 14  1  0  0  0  0
  9 48  1  1  0  0  0
 10  7  1  0  0  0  0
 10 24  2  0  0  0  0
 11 10  1  0  0  0  0
 11 19  1  0  0  0  0
 11 49  1  6  0  0  0
 13  9  1  0  0  0  0
 13 12  1  0  0  0  0
 15 13  1  0  0  0  0
 15 50  1  0  0  0  0
 15 51  1  0  0  0  0
 15 52  1  0  0  0  0
 16 13  1  0  0  0  0
 16 53  1  0  0  0  0
 16 54  1  0  0  0  0
 16 55  1  0  0  0  0
 17 14  2  0  0  0  0
 18 14  1  0  0  0  0
 18 42  1  0  0  0  0
 19 56  1  0  0  0  0
 20 19  1  0  0  0  0
 21 20  1  0  0  0  0
 21 23  1  0  0  0  0
 21 57  1  6  0  0  0
 22 20  2  0  0  0  0
 23 58  1  0  0  0  0
 23 59  1  0  0  0  0
 27 26  1  0  0  0  0
 27 30  1  0  0  0  0
 27 31  1  0  0  0  0
 27 39  1  6  0  0  0
 28 26  1  0  0  0  0
 28 33  1  0  0  0  0
 28 60  1  1  0  0  0
 29 26  1  0  0  0  0
 29 38  2  0  0  0  0
 30 29  1  0  0  0  0
 30 61  1  0  0  0  0
 30 62  1  0  0  0  0
 31 40  2  0  0  0  0
 31 41  2  0  0  0  0
 32 28  1  0  0  0  0
 32 31  1  0  0  0  0
 34 32  1  0  0  0  0
 34 63  1  0  0  0  0
 34 64  1  0  0  0  0
 34 65  1  0  0  0  0
 35 32  1  0  0  0  0
 35 66  1  0  0  0  0
 35 67  1  0  0  0  0
 35 68  1  0  0  0  0
 36 33  2  0  0  0  0
 37 33  1  0  0  0  0
 37 42  1  0  0  0  0
 42 69  1  0  0  0  0
 42 70  1  0  0  0  0
M  END
>  <DRUGBANK_ID>
DB12127

>  <COMMON_NAME>
Sultamicillin

>  <CAS_NUMBER>
76497-13-7

>  <UNII>
65DT0ML581

>  <SYNONYMS>
Sultamicilina; Sultamicillin; Sultamicillinum

$$$$
