LL1
 OpenBabel10282417072D

 24 26  0  0  0  0  0  0  0  0999 V2000
    0.3767   -0.5607    0.0000 C   0  0  0  0  0  0  0  0  0  0  0  0
    1.0912   -0.1482    0.0000 C   0  0  0  0  0  0  0  0  0  0  0  0
    1.8057   -0.5607    0.0000 C   0  0  0  0  0  0  0  0  0  0  0  0
    1.8057   -1.3857    0.0000 C   0  0  0  0  0  0  0  0  0  0  0  0
    1.0912   -1.7982    0.0000 C   0  0  0  0  0  0  0  0  0  0  0  0
    0.3767   -1.3857    0.0000 C   0  0  0  0  0  0  0  0  0  0  0  0
   -0.4079   -1.6406    0.0000 N   0  0  0  0  0  0  0  0  0  0  0  0
   -0.8928   -0.9732    0.0000 N   0  0  0  0  0  0  0  0  0  0  0  0
   -0.4079   -0.3058    0.0000 C   0  0  0  0  0  0  0  0  0  0  0  0
   -0.6628    0.4789    0.0000 C   0  0  0  0  0  0  0  0  0  0  0  0
   -0.1108    1.0920    0.0000 C   0  0  0  0  0  0  0  0  0  0  0  0
   -0.3658    1.8766    0.0000 C   0  0  0  0  0  0  0  0  0  0  0  0
   -1.1727    2.0481    0.0000 N   0  0  0  0  0  0  0  0  0  0  0  0
   -1.7248    1.4350    0.0000 C   0  0  0  0  0  0  0  0  0  0  0  0
   -1.4698    0.6504    0.0000 C   0  0  0  0  0  0  0  0  0  0  0  0
    1.0912    0.8838    0.0000 H   0  0  0  0  0  0  0  0  0  0  0  0
    2.6994   -0.0447    0.0000 H   0  0  0  0  0  0  0  0  0  0  0  0
    2.6994   -1.9017    0.0000 H   0  0  0  0  0  0  0  0  0  0  0  0
    1.0912   -2.8302    0.0000 H   0  0  0  0  0  0  0  0  0  0  0  0
   -0.7121   -2.5769    0.0000 H   0  0  0  0  0  0  0  0  0  0  0  0
    0.8987    0.8775    0.0000 H   0  0  0  0  0  0  0  0  0  0  0  0
    0.3247    2.6436    0.0000 H   0  0  0  0  0  0  0  0  0  0  0  0
   -2.7343    1.6496    0.0000 H   0  0  0  0  0  0  0  0  0  0  0  0
   -2.1603   -0.1166    0.0000 H   0  0  0  0  0  0  0  0  0  0  0  0
  1  2  1  0  0  0  0
  2  3  2  0  0  0  0
  2 16  1  0  0  0  0
  3 17  1  0  0  0  0
  4  3  1  0  0  0  0
  4 18  1  0  0  0  0
  5  4  2  0  0  0  0
  5 19  1  0  0  0  0
  6  1  2  0  0  0  0
  6  5  1  0  0  0  0
  7  6  1  0  0  0  0
  7  8  1  0  0  0  0
  7 20  1  0  0  0  0
  8  9  2  0  0  0  0
  9  1  1  0  0  0  0
  9 10  1  0  0  0  0
 10 15  1  0  0  0  0
 11 10  2  0  0  0  0
 11 12  1  0  0  0  0
 11 21  1  0  0  0  0
 12 13  2  0  0  0  0
 12 22  1  0  0  0  0
 13 14  1  0  0  0  0
 14 23  1  0  0  0  0
 15 14  2  0  0  0  0
 15 24  1  0  0  0  0
M  END
>  <DRUGBANK_ID>
DB08113

>  <COMMON_NAME>
3-pyridin-4-yl-1H-indazole

$$$$
