
 OpenBabel10282417072D

 46 49  0  0  0  0  0  0  0  0999 V2000
   -2.6909    0.0165    0.0000 C   0  0  0  0  0  0  0  0  0  0  0  0
   -1.8659    0.0165    0.0000 C   0  0  0  0  0  0  0  0  0  0  0  0
   -1.4534    0.7310    0.0000 O   0  0  0  0  0  0  0  0  0  0  0  0
   -1.4534   -0.6979    0.0000 O   0  0  0  0  0  0  0  0  0  0  0  0
   -0.6284   -0.6979    0.0000 C   0  0  0  0  0  0  0  0  0  0  0  0
   -0.1435   -1.3654    0.0000 C   0  0  0  0  0  0  0  0  0  0  0  0
    0.6411   -1.1104    0.0000 C   0  0  0  0  0  0  0  0  0  0  0  0
    0.6411   -0.2854    0.0000 C   0  0  0  0  0  0  0  0  0  0  0  0
    1.3556    0.1271    0.0000 C   0  0  0  0  0  0  0  0  0  0  0  0
    2.0701   -0.2854    0.0000 C   0  0  0  0  0  0  0  0  0  0  0  0
    2.0701   -1.1104    0.0000 N   0  0  0  0  0  0  0  0  0  0  0  0
    1.3556   -1.5229    0.0000 C   0  0  0  0  0  0  0  0  0  0  0  0
    2.7845   -1.5229    0.0000 C   0  0  3  0  0  0  0  0  0  0  0  0
    3.4990   -1.1104    0.0000 C   0  0  0  0  0  0  0  0  0  0  0  0
    4.2135   -1.5229    0.0000 O   0  0  0  0  0  0  0  0  0  0  0  0
    3.4990   -0.2854    0.0000 C   0  0  0  0  0  0  0  0  0  0  0  0
    3.0865    0.4290    0.0000 C   0  0  0  0  0  0  0  0  0  0  0  0
    3.9115    0.4290    0.0000 C   0  0  0  0  0  0  0  0  0  0  0  0
    2.7845   -2.3479    0.0000 C   0  0  0  0  0  0  0  0  0  0  0  0
    3.4990   -2.7604    0.0000 C   0  0  0  0  0  0  0  0  0  0  0  0
    3.4990   -3.5854    0.0000 C   0  0  0  0  0  0  0  0  0  0  0  0
    2.7845   -3.9979    0.0000 C   0  0  0  0  0  0  0  0  0  0  0  0
    2.0701   -3.5854    0.0000 C   0  0  0  0  0  0  0  0  0  0  0  0
    2.0701   -2.7604    0.0000 C   0  0  0  0  0  0  0  0  0  0  0  0
    1.3556   -2.3479    0.0000 F   0  0  0  0  0  0  0  0  0  0  0  0
   -0.1435   -0.0305    0.0000 S   0  0  0  0  0  0  0  0  0  0  0  0
   -3.2259    0.9431    0.0000 H   0  0  0  0  0  0  0  0  0  0  0  0
   -3.2259   -0.9101    0.0000 H   0  0  0  0  0  0  0  0  0  0  0  0
   -3.7609    0.0165    0.0000 H   0  0  0  0  0  0  0  0  0  0  0  0
   -0.4624   -2.3469    0.0000 H   0  0  0  0  0  0  0  0  0  0  0  0
    1.3556    1.1971    0.0000 H   0  0  0  0  0  0  0  0  0  0  0  0
    2.2822    0.6621    0.0000 H   0  0  0  0  0  0  0  0  0  0  0  0
    2.9967    0.2496    0.0000 H   0  0  0  0  0  0  0  0  0  0  0  0
    2.9967   -0.8204    0.0000 H   0  0  0  0  0  0  0  0  0  0  0  0
    1.3556   -2.5929    0.0000 H   0  0  0  0  0  0  0  0  0  0  0  0
    0.4290   -2.0579    0.0000 H   0  0  0  0  0  0  0  0  0  0  0  0
    2.7845   -0.4529    0.0000 H   0  0  0  0  0  0  0  0  0  0  0  0
    3.4990    0.7846    0.0000 H   0  0  0  0  0  0  0  0  0  0  0  0
    2.1598    0.9640    0.0000 H   0  0  0  0  0  0  0  0  0  0  0  0
    3.3634    1.4625    0.0000 H   0  0  0  0  0  0  0  0  0  0  0  0
    4.8382    0.9640    0.0000 H   0  0  0  0  0  0  0  0  0  0  0  0
    4.6681   -0.3276    0.0000 H   0  0  0  0  0  0  0  0  0  0  0  0
    4.3927   -2.2444    0.0000 H   0  0  0  0  0  0  0  0  0  0  0  0
    4.3927   -4.1014    0.0000 H   0  0  0  0  0  0  0  0  0  0  0  0
    2.7845   -5.0299    0.0000 H   0  0  0  0  0  0  0  0  0  0  0  0
    1.1764   -4.1014    0.0000 H   0  0  0  0  0  0  0  0  0  0  0  0
  1  2  1  0  0  0  0
  1 27  1  0  0  0  0
  1 28  1  0  0  0  0
  1 29  1  0  0  0  0
  2  3  2  0  0  0  0
  2  4  1  0  0  0  0
  4  5  1  0  0  0  0
  5  6  2  0  0  0  0
  5 26  1  0  0  0  0
  6  7  1  0  0  0  0
  6 30  1  0  0  0  0
  7  8  2  0  0  0  0
  7 12  1  0  0  0  0
  8  9  1  0  0  0  0
  8 26  1  0  0  0  0
  9 10  1  0  0  0  0
  9 31  1  0  0  0  0
  9 32  1  0  0  0  0
 10 11  1  0  0  0  0
 10 33  1  0  0  0  0
 10 34  1  0  0  0  0
 11 12  1  0  0  0  0
 11 13  1  0  0  0  0
 12 35  1  0  0  0  0
 12 36  1  0  0  0  0
 13 14  1  0  0  0  0
 13 19  1  0  0  0  0
 13 37  1  0  0  0  0
 14 15  2  0  0  0  0
 14 16  1  0  0  0  0
 16 17  1  0  0  0  0
 16 18  1  0  0  0  0
 16 38  1  0  0  0  0
 17 18  1  0  0  0  0
 17 39  1  0  0  0  0
 17 40  1  0  0  0  0
 18 41  1  0  0  0  0
 18 42  1  0  0  0  0
 19 20  2  0  0  0  0
 19 24  1  0  0  0  0
 20 21  1  0  0  0  0
 20 43  1  0  0  0  0
 21 22  2  0  0  0  0
 21 44  1  0  0  0  0
 22 23  1  0  0  0  0
 22 45  1  0  0  0  0
 23 24  2  0  0  0  0
 23 46  1  0  0  0  0
 24 25  1  0  0  0  0
M  END
>  <DRUGBANK_ID>
DB06209

>  <COMMON_NAME>
Prasugrel

>  <CAS_NUMBER>
150322-43-3

>  <UNII>
34K66TBT99

>  <SYNONYMS>
Prasugrel

$$$$
