22425
 OpenBabel10282417072D

 53 56  0  0  0  0  0  0  0  0999 V2000
    3.8495   -3.9045    0.0000 S   0  0  0  0  0  0  0  0  0  0  0  0
    5.2784    1.0455    0.0000 O   0  0  0  0  0  0  0  0  0  0  0  0
    4.5640   -1.0170    0.0000 O   0  0  0  0  0  0  0  0  0  0  0  0
    3.1350   -1.0170    0.0000 O   0  0  0  0  0  0  0  0  0  0  0  0
    6.7073    2.6955    0.0000 N   0  0  0  0  0  0  0  0  0  0  0  0
    3.8495   -2.2545    0.0000 N   0  0  0  0  0  0  0  0  0  0  0  0
    5.3015   -2.2258    0.0000 N   0  0  0  0  0  0  0  0  0  0  0  0
    7.4219    2.2830    0.0000 C   0  0  0  0  0  0  0  0  0  0  0  0
    6.7073    3.5205    0.0000 C   0  0  0  0  0  0  0  0  0  0  0  0
    8.1363    2.6955    0.0000 C   0  0  0  0  0  0  0  0  0  0  0  0
    7.4219    3.9330    0.0000 C   0  0  0  0  0  0  0  0  0  0  0  0
    8.1363    3.5205    0.0000 C   0  0  0  0  0  0  0  0  0  0  0  0
    5.9929    2.2830    0.0000 C   0  0  0  0  0  0  0  0  0  0  0  0
    5.9929    1.4580    0.0000 C   0  0  0  0  0  0  0  0  0  0  0  0
    5.2784    0.2205    0.0000 C   0  0  0  0  0  0  0  0  0  0  0  0
    4.5640   -0.1920    0.0000 C   0  0  0  0  0  0  0  0  0  0  0  0
    3.1350   -2.6670    0.0000 C   0  0  0  0  0  0  0  0  0  0  0  0
    4.5640   -2.6670    0.0000 C   0  0  0  0  0  0  0  0  0  0  0  0
    3.1350   -3.4920    0.0000 C   0  0  0  0  0  0  0  0  0  0  0  0
    4.5640   -3.4920    0.0000 C   0  0  0  0  0  0  0  0  0  0  0  0
    3.8495   -1.4295    0.0000 C   0  0  0  0  0  0  0  0  0  0  0  0
    2.3975   -2.2258    0.0000 C   0  0  0  0  0  0  0  0  0  0  0  0
    2.3975   -3.9330    0.0000 C   0  0  0  0  0  0  0  0  0  0  0  0
    5.3015   -3.9330    0.0000 C   0  0  0  0  0  0  0  0  0  0  0  0
    1.6500   -2.6497    0.0000 C   0  0  0  0  0  0  0  0  0  0  0  0
    1.6500   -3.5091    0.0000 C   0  0  0  0  0  0  0  0  0  0  0  0
    6.0490   -3.5091    0.0000 C   0  0  0  0  0  0  0  0  0  0  0  0
    6.0490   -2.6497    0.0000 C   0  0  0  0  0  0  0  0  0  0  0  0
    7.4220    1.2130    0.0000 H   0  0  0  0  0  0  0  0  0  0  0  0
    8.3486    1.7480    0.0000 H   0  0  0  0  0  0  0  0  0  0  0  0
    5.7807    4.0555    0.0000 H   0  0  0  0  0  0  0  0  0  0  0  0
    6.7074    4.5905    0.0000 H   0  0  0  0  0  0  0  0  0  0  0  0
    9.0630    2.1605    0.0000 H   0  0  0  0  0  0  0  0  0  0  0  0
    9.0629    3.2305    0.0000 H   0  0  0  0  0  0  0  0  0  0  0  0
    7.4220    5.0030    0.0000 H   0  0  0  0  0  0  0  0  0  0  0  0
    8.3486    4.4680    0.0000 H   0  0  0  0  0  0  0  0  0  0  0  0
    9.0630    4.0555    0.0000 H   0  0  0  0  0  0  0  0  0  0  0  0
    8.1363    4.5905    0.0000 H   0  0  0  0  0  0  0  0  0  0  0  0
    5.0662    2.8180    0.0000 H   0  0  0  0  0  0  0  0  0  0  0  0
    5.0663    1.7480    0.0000 H   0  0  0  0  0  0  0  0  0  0  0  0
    6.9195    0.9230    0.0000 H   0  0  0  0  0  0  0  0  0  0  0  0
    6.9195    1.9930    0.0000 H   0  0  0  0  0  0  0  0  0  0  0  0
    6.2051   -0.3145    0.0000 H   0  0  0  0  0  0  0  0  0  0  0  0
    5.2784   -0.8495    0.0000 H   0  0  0  0  0  0  0  0  0  0  0  0
    3.6373    0.3430    0.0000 H   0  0  0  0  0  0  0  0  0  0  0  0
    4.5640    0.8780    0.0000 H   0  0  0  0  0  0  0  0  0  0  0  0
    2.4095   -1.1939    0.0000 H   0  0  0  0  0  0  0  0  0  0  0  0
    2.4094   -4.9649    0.0000 H   0  0  0  0  0  0  0  0  0  0  0  0
    5.2896   -4.9649    0.0000 H   0  0  0  0  0  0  0  0  0  0  0  0
    0.7583   -2.1302    0.0000 H   0  0  0  0  0  0  0  0  0  0  0  0
    0.7583   -4.0286    0.0000 H   0  0  0  0  0  0  0  0  0  0  0  0
    6.9407   -4.0286    0.0000 H   0  0  0  0  0  0  0  0  0  0  0  0
    6.9407   -2.1302    0.0000 H   0  0  0  0  0  0  0  0  0  0  0  0
  1 19  1  0  0  0  0
  1 20  1  0  0  0  0
  2 14  1  0  0  0  0
  2 15  1  0  0  0  0
  3 16  1  0  0  0  0
  3 21  1  0  0  0  0
  4 21  2  0  0  0  0
  5  8  1  0  0  0  0
  5  9  1  0  0  0  0
  5 13  1  0  0  0  0
  6 17  1  0  0  0  0
  6 18  1  0  0  0  0
  6 21  1  0  0  0  0
  7 18  1  0  0  0  0
  7 28  2  0  0  0  0
  8 10  1  0  0  0  0
  8 29  1  0  0  0  0
  8 30  1  0  0  0  0
  9 11  1  0  0  0  0
  9 31  1  0  0  0  0
  9 32  1  0  0  0  0
 10 12  1  0  0  0  0
 10 33  1  0  0  0  0
 10 34  1  0  0  0  0
 11 12  1  0  0  0  0
 11 35  1  0  0  0  0
 11 36  1  0  0  0  0
 12 37  1  0  0  0  0
 12 38  1  0  0  0  0
 13 14  1  0  0  0  0
 13 39  1  0  0  0  0
 13 40  1  0  0  0  0
 14 41  1  0  0  0  0
 14 42  1  0  0  0  0
 15 16  1  0  0  0  0
 15 43  1  0  0  0  0
 15 44  1  0  0  0  0
 16 45  1  0  0  0  0
 16 46  1  0  0  0  0
 17 19  1  0  0  0  0
 17 22  2  0  0  0  0
 18 20  2  0  0  0  0
 19 23  2  0  0  0  0
 20 24  1  0  0  0  0
 22 25  1  0  0  0  0
 22 47  1  0  0  0  0
 23 26  1  0  0  0  0
 23 48  1  0  0  0  0
 24 27  2  0  0  0  0
 24 49  1  0  0  0  0
 25 26  2  0  0  0  0
 25 50  1  0  0  0  0
 26 51  1  0  0  0  0
 27 28  1  0  0  0  0
 27 52  1  0  0  0  0
 28 53  1  0  0  0  0
M  END
>  <DRUGBANK_ID>
DB08796

>  <COMMON_NAME>
Pipazethate

>  <CAS_NUMBER>
2167-85-3

>  <UNII>
M5EK1T5V2L

>  <SYNONYMS>
Pipazetate; Pipazetato; Pipazetatum; Pipazethate

$$$$
