
 OpenBabel10282417072D

101106  0  0  1  0  0  0  0  0999 V2000
   11.4315   -3.3000    0.0000 C   0  0  0  0  0  0  0  0  0  0  0  0
   12.1460   -2.8875    0.0000 N   0  0  0  0  0  0  0  0  0  0  0  0
   12.1460   -2.0625    0.0000 C   0  0  0  0  0  0  0  0  0  0  0  0
   12.8605   -3.3000    0.0000 C   0  0  0  0  0  0  0  0  0  0  0  0
   12.8605   -4.1250    0.0000 C   0  0  0  0  0  0  0  0  0  0  0  0
   13.5749   -4.5375    0.0000 C   0  0  2  0  0  0  0  0  0  0  0  0
   13.5749   -5.3625    0.0000 C   0  0  0  0  0  0  0  0  0  0  0  0
   14.2894   -5.7750    0.0000 S   0  0  0  0  0  0  0  0  0  0  0  0
   14.2894   -6.6000    0.0000 C   0  0  0  0  0  0  0  0  0  0  0  0
   15.0039   -7.0125    0.0000 C   0  0  0  0  0  0  0  0  0  0  0  0
   15.0039   -7.8375    0.0000 C   0  0  0  0  0  0  0  0  0  0  0  0
   14.2894   -8.2500    0.0000 C   0  0  0  0  0  0  0  0  0  0  0  0
   13.5749   -7.8375    0.0000 C   0  0  0  0  0  0  0  0  0  0  0  0
   13.5749   -7.0125    0.0000 C   0  0  0  0  0  0  0  0  0  0  0  0
   14.2894   -4.1250    0.0000 N   0  0  0  0  0  0  0  0  0  0  0  0
   14.2894   -3.3000    0.0000 C   0  0  0  0  0  0  0  0  0  0  0  0
   13.5749   -2.8875    0.0000 C   0  0  0  0  0  0  0  0  0  0  0  0
   13.5749   -2.0625    0.0000 C   0  0  0  0  0  0  0  0  0  0  0  0
   14.2894   -1.6500    0.0000 C   0  0  0  0  0  0  0  0  0  0  0  0
   15.0039   -2.0625    0.0000 C   0  0  0  0  0  0  0  0  0  0  0  0
   15.0039   -2.8875    0.0000 C   0  0  0  0  0  0  0  0  0  0  0  0
   15.7184   -3.3000    0.0000 N   0  3  0  0  0  0  0  0  0  0  0  0
   15.7184   -4.1250    0.0000 O   0  5  0  0  0  0  0  0  0  0  0  0
   16.4328   -2.8875    0.0000 O   0  0  0  0  0  0  0  0  0  0  0  0
   14.2894   -0.8250    0.0000 S   0  0  0  0  0  0  0  0  0  0  0  0
   15.1144   -0.8250    0.0000 O   0  0  0  0  0  0  0  0  0  0  0  0
   13.4644   -0.8250    0.0000 O   0  0  0  0  0  0  0  0  0  0  0  0
   14.2894   -0.0000    0.0000 N   0  0  0  0  0  0  0  0  0  0  0  0
   13.5749    0.4125    0.0000 C   0  0  0  0  0  0  0  0  0  0  0  0
   12.8605   -0.0000    0.0000 O   0  0  0  0  0  0  0  0  0  0  0  0
   13.5749    1.2375    0.0000 C   0  0  0  0  0  0  0  0  0  0  0  0
   12.8605    1.6500    0.0000 C   0  0  0  0  0  0  0  0  0  0  0  0
   12.8605    2.4750    0.0000 C   0  0  0  0  0  0  0  0  0  0  0  0
   13.5749    2.8875    0.0000 C   0  0  0  0  0  0  0  0  0  0  0  0
   14.2894    2.4750    0.0000 C   0  0  0  0  0  0  0  0  0  0  0  0
   14.2894    1.6500    0.0000 C   0  0  0  0  0  0  0  0  0  0  0  0
   13.5749    3.7125    0.0000 N   0  0  0  0  0  0  0  0  0  0  0  0
   12.8605    4.1250    0.0000 C   0  0  0  0  0  0  0  0  0  0  0  0
   12.8605    4.9500    0.0000 C   0  0  0  0  0  0  0  0  0  0  0  0
   13.5749    5.3625    0.0000 N   0  0  0  0  0  0  0  0  0  0  0  0
   13.5749    6.1875    0.0000 C   0  0  0  0  0  0  0  0  0  0  0  0
   12.8605    6.6000    0.0000 C   0  0  0  0  0  0  0  0  0  0  0  0
   12.1460    6.1875    0.0000 C   0  0  0  0  0  0  0  0  0  0  0  0
   11.4315    6.6000    0.0000 C   0  0  0  0  0  0  0  0  0  0  0  0
   11.4315    7.4250    0.0000 C   0  0  0  0  0  0  0  0  0  0  0  0
   12.1460    7.8375    0.0000 C   0  0  0  0  0  0  0  0  0  0  0  0
   12.8605    7.4250    0.0000 C   0  0  0  0  0  0  0  0  0  0  0  0
   13.5749    7.8375    0.0000 C   0  0  0  0  0  0  0  0  0  0  0  0
   13.5749    8.6625    0.0000 C   0  0  0  0  0  0  0  0  0  0  0  0
   14.2894    9.0750    0.0000 C   0  0  0  0  0  0  0  0  0  0  0  0
   15.0039    8.6625    0.0000 C   0  0  0  0  0  0  0  0  0  0  0  0
   15.7184    9.0750    0.0000 Cl  0  0  0  0  0  0  0  0  0  0  0  0
   15.0039    7.8375    0.0000 C   0  0  0  0  0  0  0  0  0  0  0  0
   14.2894    7.4250    0.0000 C   0  0  0  0  0  0  0  0  0  0  0  0
   14.2894    4.9500    0.0000 C   0  0  0  0  0  0  0  0  0  0  0  0
   14.2894    4.1250    0.0000 C   0  0  0  0  0  0  0  0  0  0  0  0
   10.5049   -2.7650    0.0000 H   0  0  0  0  0  0  0  0  0  0  0  0
   11.4315   -4.3700    0.0000 H   0  0  0  0  0  0  0  0  0  0  0  0
   10.5048   -3.8350    0.0000 H   0  0  0  0  0  0  0  0  0  0  0  0
   13.0726   -1.5275    0.0000 H   0  0  0  0  0  0  0  0  0  0  0  0
   11.2194   -1.5275    0.0000 H   0  0  0  0  0  0  0  0  0  0  0  0
   12.1460   -0.9925    0.0000 H   0  0  0  0  0  0  0  0  0  0  0  0
   13.7871   -2.7650    0.0000 H   0  0  0  0  0  0  0  0  0  0  0  0
   13.7871   -3.8350    0.0000 H   0  0  0  0  0  0  0  0  0  0  0  0
   11.9338   -4.6600    0.0000 H   0  0  0  0  0  0  0  0  0  0  0  0
   12.8605   -5.1950    0.0000 H   0  0  0  0  0  0  0  0  0  0  0  0
   13.5749   -3.4675    0.0000 H   0  0  0  0  0  0  0  0  0  0  0  0
   12.6483   -5.8975    0.0000 H   0  0  0  0  0  0  0  0  0  0  0  0
   13.5749   -6.4325    0.0000 H   0  0  0  0  0  0  0  0  0  0  0  0
   15.8976   -6.4965    0.0000 H   0  0  0  0  0  0  0  0  0  0  0  0
   15.8976   -8.3535    0.0000 H   0  0  0  0  0  0  0  0  0  0  0  0
   14.2894   -9.2820    0.0000 H   0  0  0  0  0  0  0  0  0  0  0  0
   12.6812   -8.3535    0.0000 H   0  0  0  0  0  0  0  0  0  0  0  0
   12.6812   -6.4965    0.0000 H   0  0  0  0  0  0  0  0  0  0  0  0
   15.1420   -4.6173    0.0000 H   0  0  0  0  0  0  0  0  0  0  0  0
   12.6812   -3.4035    0.0000 H   0  0  0  0  0  0  0  0  0  0  0  0
   12.6812   -1.5465    0.0000 H   0  0  0  0  0  0  0  0  0  0  0  0
   15.8976   -1.5465    0.0000 H   0  0  0  0  0  0  0  0  0  0  0  0
   15.1420    0.4923    0.0000 H   0  0  0  0  0  0  0  0  0  0  0  0
   11.9668    1.1340    0.0000 H   0  0  0  0  0  0  0  0  0  0  0  0
   11.9668    2.9910    0.0000 H   0  0  0  0  0  0  0  0  0  0  0  0
   15.1831    2.9910    0.0000 H   0  0  0  0  0  0  0  0  0  0  0  0
   15.1831    1.1340    0.0000 H   0  0  0  0  0  0  0  0  0  0  0  0
   11.9338    3.5900    0.0000 H   0  0  0  0  0  0  0  0  0  0  0  0
   11.9339    4.6600    0.0000 H   0  0  0  0  0  0  0  0  0  0  0  0
   11.9338    5.4850    0.0000 H   0  0  0  0  0  0  0  0  0  0  0  0
   12.8605    6.0200    0.0000 H   0  0  0  0  0  0  0  0  0  0  0  0
   14.5016    6.7225    0.0000 H   0  0  0  0  0  0  0  0  0  0  0  0
   13.5749    7.2575    0.0000 H   0  0  0  0  0  0  0  0  0  0  0  0
   12.1460    5.1555    0.0000 H   0  0  0  0  0  0  0  0  0  0  0  0
   10.5378    6.0840    0.0000 H   0  0  0  0  0  0  0  0  0  0  0  0
   10.5378    7.9410    0.0000 H   0  0  0  0  0  0  0  0  0  0  0  0
   12.1460    8.8695    0.0000 H   0  0  0  0  0  0  0  0  0  0  0  0
   12.6812    9.1785    0.0000 H   0  0  0  0  0  0  0  0  0  0  0  0
   14.2894   10.1070    0.0000 H   0  0  0  0  0  0  0  0  0  0  0  0
   15.8976    7.3215    0.0000 H   0  0  0  0  0  0  0  0  0  0  0  0
   14.2894    6.3930    0.0000 H   0  0  0  0  0  0  0  0  0  0  0  0
   15.2160    5.4850    0.0000 H   0  0  0  0  0  0  0  0  0  0  0  0
   15.2160    4.4150    0.0000 H   0  0  0  0  0  0  0  0  0  0  0  0
   15.2160    3.5900    0.0000 H   0  0  0  0  0  0  0  0  0  0  0  0
   14.2894    3.0550    0.0000 H   0  0  0  0  0  0  0  0  0  0  0  0
  1  2  1  0  0  0  0
  1 57  1  0  0  0  0
  1 58  1  0  0  0  0
  1 59  1  0  0  0  0
  2  3  1  0  0  0  0
  2  4  1  0  0  0  0
  3 60  1  0  0  0  0
  3 61  1  0  0  0  0
  3 62  1  0  0  0  0
  4  5  1  0  0  0  0
  4 63  1  0  0  0  0
  4 64  1  0  0  0  0
  5 65  1  0  0  0  0
  5 66  1  0  0  0  0
  6  5  1  0  0  0  0
  6  7  1  0  0  0  0
  6 15  1  0  0  0  0
  6 67  1  6  0  0  0
  7  8  1  0  0  0  0
  7 68  1  0  0  0  0
  7 69  1  0  0  0  0
  8  9  1  0  0  0  0
  9 10  2  0  0  0  0
  9 14  1  0  0  0  0
 10 11  1  0  0  0  0
 10 70  1  0  0  0  0
 11 12  2  0  0  0  0
 11 71  1  0  0  0  0
 12 13  1  0  0  0  0
 12 72  1  0  0  0  0
 13 14  2  0  0  0  0
 13 73  1  0  0  0  0
 14 74  1  0  0  0  0
 15 16  1  0  0  0  0
 15 75  1  0  0  0  0
 16 17  2  0  0  0  0
 16 21  1  0  0  0  0
 17 18  1  0  0  0  0
 17 76  1  0  0  0  0
 18 19  2  0  0  0  0
 18 77  1  0  0  0  0
 19 20  1  0  0  0  0
 19 25  1  0  0  0  0
 20 21  2  0  0  0  0
 20 78  1  0  0  0  0
 21 22  1  0  0  0  0
 22 23  1  0  0  0  0
 22 24  2  0  0  0  0
 25 26  2  0  0  0  0
 25 27  2  0  0  0  0
 25 28  1  0  0  0  0
 28 29  1  0  0  0  0
 28 79  1  0  0  0  0
 29 30  2  0  0  0  0
 29 31  1  0  0  0  0
 31 32  2  0  0  0  0
 31 36  1  0  0  0  0
 32 33  1  0  0  0  0
 32 80  1  0  0  0  0
 33 34  2  0  0  0  0
 33 81  1  0  0  0  0
 34 35  1  0  0  0  0
 34 37  1  0  0  0  0
 35 36  2  0  0  0  0
 35 82  1  0  0  0  0
 36 83  1  0  0  0  0
 37 38  1  0  0  0  0
 37 56  1  0  0  0  0
 38 39  1  0  0  0  0
 38 84  1  0  0  0  0
 38 85  1  0  0  0  0
 39 40  1  0  0  0  0
 39 86  1  0  0  0  0
 39 87  1  0  0  0  0
 40 41  1  0  0  0  0
 40 55  1  0  0  0  0
 41 42  1  0  0  0  0
 41 88  1  0  0  0  0
 41 89  1  0  0  0  0
 42 43  2  0  0  0  0
 42 47  1  0  0  0  0
 43 44  1  0  0  0  0
 43 90  1  0  0  0  0
 44 45  2  0  0  0  0
 44 91  1  0  0  0  0
 45 46  1  0  0  0  0
 45 92  1  0  0  0  0
 46 47  2  0  0  0  0
 46 93  1  0  0  0  0
 47 48  1  0  0  0  0
 48 49  2  0  0  0  0
 48 54  1  0  0  0  0
 49 50  1  0  0  0  0
 49 94  1  0  0  0  0
 50 51  2  0  0  0  0
 50 95  1  0  0  0  0
 51 52  1  0  0  0  0
 51 53  1  0  0  0  0
 53 54  2  0  0  0  0
 53 96  1  0  0  0  0
 54 97  1  0  0  0  0
 55 56  1  0  0  0  0
 55 98  1  0  0  0  0
 55 99  1  0  0  0  0
 56100  1  0  0  0  0
 56101  1  0  0  0  0
M  CHG  2  22   1  23  -1
M  END
>  <DRUGBANK_ID>
DB17023

>  <COMMON_NAME>
ABT-737

>  <CAS_NUMBER>
852808-04-9

>  <UNII>
Z5NFR173NV

>  <SYNONYMS>
Benzamide, 4-(4-((4'-chloro(1,1'-biphenyl)-2-yl)methyl)-1-piperazinyl)-n-((4-(((1r)-3-(dimethylamino)-1-((phenylthio)methyl)propyl)amino)-3-nitrophenyl)sulfonyl)-

$$$$
