
 OpenBabel10282417072D

 50 52  0  0  0  0  0  0  0  0999 V2000
   -1.4289    0.8250    0.0000 C   0  0  0  0  0  0  0  0  0  0  0  0
   -1.4289    1.6500    0.0000 C   0  0  0  0  0  0  0  0  0  0  0  0
   -0.7145    2.0625    0.0000 C   0  0  0  0  0  0  0  0  0  0  0  0
   -0.7145    2.8875    0.0000 O   0  0  0  0  0  0  0  0  0  0  0  0
    0.0000    1.6500    0.0000 N   0  0  0  0  0  0  0  0  0  0  0  0
    0.0000    0.8250    0.0000 C   0  0  0  0  0  0  0  0  0  0  0  0
    0.7144    0.4125    0.0000 C   0  0  0  0  0  0  0  0  0  0  0  0
    0.7144   -0.4124    0.0000 C   0  0  0  0  0  0  0  0  0  0  0  0
    0.0000   -0.8250    0.0000 N   0  0  0  0  0  0  0  0  0  0  0  0
    0.0000   -1.6499    0.0000 C   0  0  0  0  0  0  0  0  0  0  0  0
   -0.7145   -2.0624    0.0000 C   0  0  0  0  0  0  0  0  0  0  0  0
   -0.7145   -2.8874    0.0000 C   0  0  0  0  0  0  0  0  0  0  0  0
   -1.4289   -3.3000    0.0000 C   0  0  0  0  0  0  0  0  0  0  0  0
   -2.1434   -2.8874    0.0000 C   0  0  0  0  0  0  0  0  0  0  0  0
   -2.1434   -2.0624    0.0000 C   0  0  0  0  0  0  0  0  0  0  0  0
   -1.4289   -1.6499    0.0000 C   0  0  0  0  0  0  0  0  0  0  0  0
   -0.7145   -0.4124    0.0000 C   0  0  0  0  0  0  0  0  0  0  0  0
   -0.7145    0.4125    0.0000 C   0  0  0  0  0  0  0  0  0  0  0  0
    0.7144    2.0625    0.0000 C   0  0  0  0  0  0  0  0  0  0  0  0
    0.7144    2.8875    0.0000 C   0  0  0  0  0  0  0  0  0  0  0  0
    1.4289    3.3000    0.0000 C   0  0  0  0  0  0  0  0  0  0  0  0
    2.1434    2.8875    0.0000 C   0  0  0  0  0  0  0  0  0  0  0  0
    2.1434    2.0625    0.0000 C   0  0  0  0  0  0  0  0  0  0  0  0
    1.4289    1.6500    0.0000 C   0  0  0  0  0  0  0  0  0  0  0  0
   -2.3555    0.2900    0.0000 H   0  0  0  0  0  0  0  0  0  0  0  0
   -0.5023    0.2900    0.0000 H   0  0  0  0  0  0  0  0  0  0  0  0
   -1.4289   -0.2450    0.0000 H   0  0  0  0  0  0  0  0  0  0  0  0
   -2.3556    2.1850    0.0000 H   0  0  0  0  0  0  0  0  0  0  0  0
   -1.4289    2.7200    0.0000 H   0  0  0  0  0  0  0  0  0  0  0  0
   -0.0000   -0.2450    0.0000 H   0  0  0  0  0  0  0  0  0  0  0  0
    1.6411    0.9475    0.0000 H   0  0  0  0  0  0  0  0  0  0  0  0
    1.6410   -0.1225    0.0000 H   0  0  0  0  0  0  0  0  0  0  0  0
    1.6411   -0.9473    0.0000 H   0  0  0  0  0  0  0  0  0  0  0  0
    0.7145   -1.4824    0.0000 H   0  0  0  0  0  0  0  0  0  0  0  0
    0.9266   -2.1849    0.0000 H   0  0  0  0  0  0  0  0  0  0  0  0
   -0.0000   -2.7199    0.0000 H   0  0  0  0  0  0  0  0  0  0  0  0
    0.1793   -3.4033    0.0000 H   0  0  0  0  0  0  0  0  0  0  0  0
   -1.4289   -4.3320    0.0000 H   0  0  0  0  0  0  0  0  0  0  0  0
   -3.0372   -3.4034    0.0000 H   0  0  0  0  0  0  0  0  0  0  0  0
   -3.0371   -1.5464    0.0000 H   0  0  0  0  0  0  0  0  0  0  0  0
   -1.4289   -0.6179    0.0000 H   0  0  0  0  0  0  0  0  0  0  0  0
   -1.6412   -0.9474    0.0000 H   0  0  0  0  0  0  0  0  0  0  0  0
   -1.6411    0.1226    0.0000 H   0  0  0  0  0  0  0  0  0  0  0  0
   -1.6411    0.9475    0.0000 H   0  0  0  0  0  0  0  0  0  0  0  0
   -0.7145    1.4825    0.0000 H   0  0  0  0  0  0  0  0  0  0  0  0
   -0.1793    3.4035    0.0000 H   0  0  0  0  0  0  0  0  0  0  0  0
    1.4289    4.3320    0.0000 H   0  0  0  0  0  0  0  0  0  0  0  0
    3.0371    3.4035    0.0000 H   0  0  0  0  0  0  0  0  0  0  0  0
    3.0371    1.5465    0.0000 H   0  0  0  0  0  0  0  0  0  0  0  0
    1.4289    0.6180    0.0000 H   0  0  0  0  0  0  0  0  0  0  0  0
  1  2  1  0  0  0  0
  1 25  1  0  0  0  0
  1 26  1  0  0  0  0
  1 27  1  0  0  0  0
  2  3  1  0  0  0  0
  2 28  1  0  0  0  0
  2 29  1  0  0  0  0
  3  4  2  0  0  0  0
  3  5  1  0  0  0  0
  5  6  1  0  0  0  0
  5 19  1  0  0  0  0
  6  7  1  0  0  0  0
  6 18  1  0  0  0  0
  6 30  1  0  0  0  0
  7  8  1  0  0  0  0
  7 31  1  0  0  0  0
  7 32  1  0  0  0  0
  8  9  1  0  0  0  0
  8 33  1  0  0  0  0
  8 34  1  0  0  0  0
  9 10  1  0  0  0  0
  9 17  1  0  0  0  0
 10 11  1  0  0  0  0
 10 35  1  0  0  0  0
 10 36  1  0  0  0  0
 11 12  2  0  0  0  0
 11 16  1  0  0  0  0
 12 13  1  0  0  0  0
 12 37  1  0  0  0  0
 13 14  2  0  0  0  0
 13 38  1  0  0  0  0
 14 15  1  0  0  0  0
 14 39  1  0  0  0  0
 15 16  2  0  0  0  0
 15 40  1  0  0  0  0
 16 41  1  0  0  0  0
 17 18  1  0  0  0  0
 17 42  1  0  0  0  0
 17 43  1  0  0  0  0
 18 44  1  0  0  0  0
 18 45  1  0  0  0  0
 19 20  2  0  0  0  0
 19 24  1  0  0  0  0
 20 21  1  0  0  0  0
 20 46  1  0  0  0  0
 21 22  2  0  0  0  0
 21 47  1  0  0  0  0
 22 23  1  0  0  0  0
 22 48  1  0  0  0  0
 23 24  2  0  0  0  0
 23 49  1  0  0  0  0
 24 50  1  0  0  0  0
M  END
>  <DRUGBANK_ID>
DB09182

>  <COMMON_NAME>
Benzylfentanyl

>  <CAS_NUMBER>
1474-02-8

>  <UNII>
9BV2D1A57H

$$$$
