
 OpenBabel10282417072D

 30 32  0  0  0  0  0  0  0  0999 V2000
   -4.3409   -1.4124    0.0000 C   0  0  0  0  0  0  0  0  0  0  0  0
   -3.9284   -0.6979    0.0000 N   0  0  0  0  0  0  0  0  0  0  0  0
   -3.1034   -0.6979    0.0000 C   0  0  0  0  0  0  0  0  0  0  0  0
   -2.6909    0.0165    0.0000 C   0  0  0  0  0  0  0  0  0  0  0  0
   -3.1034    0.7310    0.0000 F   0  0  0  0  0  0  0  0  0  0  0  0
   -1.8659    0.0165    0.0000 C   0  0  0  0  0  0  0  0  0  0  0  0
   -1.4534   -0.6979    0.0000 C   0  0  0  0  0  0  0  0  0  0  0  0
   -1.8659   -1.4124    0.0000 C   0  0  0  0  0  0  0  0  0  0  0  0
   -2.6909   -1.4124    0.0000 C   0  0  0  0  0  0  0  0  0  0  0  0
   -0.6284   -0.6979    0.0000 C   0  0  0  0  0  0  0  0  0  0  0  0
   -0.1435   -1.3654    0.0000 N   0  0  0  0  0  0  0  0  0  0  0  0
    0.6411   -1.1104    0.0000 C   0  0  0  0  0  0  0  0  0  0  0  0
    0.6411   -0.2854    0.0000 C   0  0  0  0  0  0  0  0  0  0  0  0
   -0.1435   -0.0305    0.0000 S   0  0  0  0  0  0  0  0  0  0  0  0
    1.3556    0.1271    0.0000 C   0  0  0  0  0  0  0  0  0  0  0  0
    2.0701   -0.2854    0.0000 C   0  0  0  0  0  0  0  0  0  0  0  0
    2.7845    0.1271    0.0000 O   0  0  0  0  0  0  0  0  0  0  0  0
    2.0701   -1.1104    0.0000 C   0  0  0  0  0  0  0  0  0  0  0  0
    1.3556   -1.5229    0.0000 C   0  0  0  0  0  0  0  0  0  0  0  0
   -5.4109   -1.4124    0.0000 H   0  0  0  0  0  0  0  0  0  0  0  0
   -3.8059   -2.3390    0.0000 H   0  0  0  0  0  0  0  0  0  0  0  0
   -4.8759   -2.3391    0.0000 H   0  0  0  0  0  0  0  0  0  0  0  0
   -4.4207    0.1547    0.0000 H   0  0  0  0  0  0  0  0  0  0  0  0
   -1.3499    0.9102    0.0000 H   0  0  0  0  0  0  0  0  0  0  0  0
   -1.3499   -2.3061    0.0000 H   0  0  0  0  0  0  0  0  0  0  0  0
   -3.2069   -2.3061    0.0000 H   0  0  0  0  0  0  0  0  0  0  0  0
    1.3556    1.1591    0.0000 H   0  0  0  0  0  0  0  0  0  0  0  0
    3.5960   -0.3414    0.0000 H   0  0  0  0  0  0  0  0  0  0  0  0
    2.9638   -1.6264    0.0000 H   0  0  0  0  0  0  0  0  0  0  0  0
    1.3556   -2.5549    0.0000 H   0  0  0  0  0  0  0  0  0  0  0  0
  1  2  1  0  0  0  0
  1 20  1  0  0  0  0
  1 21  1  0  0  0  0
  1 22  1  0  0  0  0
  2  3  1  0  0  0  0
  2 23  1  0  0  0  0
  3  4  2  0  0  0  0
  3  9  1  0  0  0  0
  4  5  1  0  0  0  0
  4  6  1  0  0  0  0
  6  7  2  0  0  0  0
  6 24  1  0  0  0  0
  7  8  1  0  0  0  0
  7 10  1  0  0  0  0
  8  9  2  0  0  0  0
  8 25  1  0  0  0  0
  9 26  1  0  0  0  0
 10 11  2  0  0  0  0
 10 14  1  0  0  0  0
 11 12  1  0  0  0  0
 12 13  2  0  0  0  0
 12 19  1  0  0  0  0
 13 14  1  0  0  0  0
 13 15  1  0  0  0  0
 15 16  2  0  0  0  0
 15 27  1  0  0  0  0
 16 17  1  0  0  0  0
 16 18  1  0  0  0  0
 17 28  1  0  0  0  0
 18 19  2  0  0  0  0
 18 29  1  0  0  0  0
 19 30  1  0  0  0  0
M  END
>  <DRUGBANK_ID>
DB15058

>  <COMMON_NAME>
Flutemetamol

>  <CAS_NUMBER>
637003-10-2

>  <UNII>
0F3M7032P5

$$$$
