
 OpenBabel10282417072D

 46 46  0  0  0  0  0  0  0  0999 V2000
    5.9004   -2.2868    0.0000 C   0  0  0  0  0  0  0  0  0  0  0  0
    5.0902   -2.4428    0.0000 C   0  0  0  0  0  0  0  0  0  0  0  0
    4.8202   -3.2223    0.0000 C   0  0  0  0  0  0  0  0  0  0  0  0
    4.5501   -1.8191    0.0000 N   0  0  0  0  0  0  0  0  0  0  0  0
    3.7400   -1.9750    0.0000 C   0  0  0  0  0  0  0  0  0  0  0  0
    3.1999   -1.3514    0.0000 C   0  0  0  0  0  0  0  0  0  0  0  0
    2.3898   -1.5073    0.0000 N   0  0  0  0  0  0  0  0  0  0  0  0
    1.8497   -0.8837    0.0000 C   0  0  0  0  0  0  0  0  0  0  0  0
    2.1197   -0.1041    0.0000 O   0  0  0  0  0  0  0  0  0  0  0  0
    1.0396   -1.0396    0.0000 C   0  0  0  0  0  0  0  0  0  0  0  0
    0.4995   -0.4159    0.0000 N   0  0  0  0  0  0  0  0  0  0  0  0
   -0.3225   -0.4863    0.0000 C   0  0  0  0  0  0  0  0  0  0  0  0
   -0.6435    0.2737    0.0000 C   0  0  0  0  0  0  0  0  0  0  0  0
   -0.0198    0.8138    0.0000 C   0  0  0  0  0  0  0  0  0  0  0  0
    0.6866    0.3876    0.0000 C   0  0  0  0  0  0  0  0  0  0  0  0
    1.4466    0.7085    0.0000 O   0  0  0  0  0  0  0  0  0  0  0  0
    4.8202   -1.0396    0.0000 C   0  0  0  0  0  0  0  0  0  0  0  0
    4.2801   -0.4159    0.0000 C   0  0  0  0  0  0  0  0  0  0  0  0
    5.6303   -0.8837    0.0000 C   0  0  0  0  0  0  0  0  0  0  0  0
    6.6010   -3.0956    0.0000 H   0  0  0  0  0  0  0  0  0  0  0  0
    6.2505   -1.2757    0.0000 H   0  0  0  0  0  0  0  0  0  0  0  0
    6.9511   -2.0845    0.0000 H   0  0  0  0  0  0  0  0  0  0  0  0
    4.0395   -2.6450    0.0000 H   0  0  0  0  0  0  0  0  0  0  0  0
    3.7695   -3.4245    0.0000 H   0  0  0  0  0  0  0  0  0  0  0  0
    5.5207   -4.0311    0.0000 H   0  0  0  0  0  0  0  0  0  0  0  0
    4.4700   -4.2334    0.0000 H   0  0  0  0  0  0  0  0  0  0  0  0
    3.3898   -2.9861    0.0000 H   0  0  0  0  0  0  0  0  0  0  0  0
    2.6893   -2.1772    0.0000 H   0  0  0  0  0  0  0  0  0  0  0  0
    3.5501   -0.3403    0.0000 H   0  0  0  0  0  0  0  0  0  0  0  0
    2.4994   -0.5426    0.0000 H   0  0  0  0  0  0  0  0  0  0  0  0
    2.0676   -2.4376    0.0000 H   0  0  0  0  0  0  0  0  0  0  0  0
    0.6893   -2.0506    0.0000 H   0  0  0  0  0  0  0  0  0  0  0  0
   -0.0111   -1.2418    0.0000 H   0  0  0  0  0  0  0  0  0  0  0  0
   -0.8752   -1.4025    0.0000 H   0  0  0  0  0  0  0  0  0  0  0  0
   -1.3898   -0.4097    0.0000 H   0  0  0  0  0  0  0  0  0  0  0  0
   -1.6856    0.5163    0.0000 H   0  0  0  0  0  0  0  0  0  0  0  0
   -0.9004    1.3124    0.0000 H   0  0  0  0  0  0  0  0  0  0  0  0
   -0.1111    1.8799    0.0000 H   0  0  0  0  0  0  0  0  0  0  0  0
    0.8887    1.3791    0.0000 H   0  0  0  0  0  0  0  0  0  0  0  0
    5.1705   -0.0286    0.0000 H   0  0  0  0  0  0  0  0  0  0  0  0
    4.6304    0.5951    0.0000 H   0  0  0  0  0  0  0  0  0  0  0  0
    3.2294   -0.6181    0.0000 H   0  0  0  0  0  0  0  0  0  0  0  0
    3.5797    0.3930    0.0000 H   0  0  0  0  0  0  0  0  0  0  0  0
    6.3308   -1.6925    0.0000 H   0  0  0  0  0  0  0  0  0  0  0  0
    5.9805    0.1274    0.0000 H   0  0  0  0  0  0  0  0  0  0  0  0
    6.6810   -0.6815    0.0000 H   0  0  0  0  0  0  0  0  0  0  0  0
  1  2  1  0  0  0  0
  1 20  1  0  0  0  0
  1 21  1  0  0  0  0
  1 22  1  0  0  0  0
  2  3  1  0  0  0  0
  2  4  1  0  0  0  0
  2 23  1  0  0  0  0
  3 24  1  0  0  0  0
  3 25  1  0  0  0  0
  3 26  1  0  0  0  0
  4  5  1  0  0  0  0
  4 17  1  0  0  0  0
  5  6  1  0  0  0  0
  5 27  1  0  0  0  0
  5 28  1  0  0  0  0
  6  7  1  0  0  0  0
  6 29  1  0  0  0  0
  6 30  1  0  0  0  0
  7  8  1  0  0  0  0
  7 31  1  0  0  0  0
  8  9  2  0  0  0  0
  8 10  1  0  0  0  0
 10 11  1  0  0  0  0
 10 32  1  0  0  0  0
 10 33  1  0  0  0  0
 11 12  1  0  0  0  0
 11 15  1  0  0  0  0
 12 13  1  0  0  0  0
 12 34  1  0  0  0  0
 12 35  1  0  0  0  0
 13 14  1  0  0  0  0
 13 36  1  0  0  0  0
 13 37  1  0  0  0  0
 14 15  1  0  0  0  0
 14 38  1  0  0  0  0
 14 39  1  0  0  0  0
 15 16  2  0  0  0  0
 17 18  1  0  0  0  0
 17 19  1  0  0  0  0
 17 40  1  0  0  0  0
 18 41  1  0  0  0  0
 18 42  1  0  0  0  0
 18 43  1  0  0  0  0
 19 44  1  0  0  0  0
 19 45  1  0  0  0  0
 19 46  1  0  0  0  0
M  END
>  <DRUGBANK_ID>
DB13247

>  <COMMON_NAME>
Pramiracetam

>  <CAS_NUMBER>
68497-62-1

>  <UNII>
4449F8I3LE

>  <SYNONYMS>
Pramiracetam

$$$$
