
 OpenBabel10282417072D

  9  8  0  0  0  0  0  0  0  0999 V2000
    0.7145   -0.2062    0.0000 C   0  0  0  0  0  0  0  0  0  0  0  0
    0.0000   -0.6187    0.0000 C   0  0  0  0  0  0  0  0  0  0  0  0
   -0.7145   -0.2062    0.0000 C   0  0  0  0  0  0  0  0  0  0  0  0
    0.7145    0.6187    0.0000 O   0  0  0  0  0  0  0  0  0  0  0  0
   -0.7145    0.6187    0.0000 O   0  0  0  0  0  0  0  0  0  0  0  0
   -1.4290   -0.6187    0.0000 H   0  0  0  0  0  0  0  0  0  0  0  0
    1.4291   -0.6187    0.0000 H   0  0  0  0  0  0  0  0  0  0  0  0
    0.0000   -1.6887    0.0000 H   0  0  0  0  0  0  0  0  0  0  0  0
   -0.9266   -1.1537    0.0000 H   0  0  0  0  0  0  0  0  0  0  0  0
  1  7  1  0  0  0  0
  2  1  1  0  0  0  0
  2  8  1  0  0  0  0
  2  9  1  0  0  0  0
  3  2  1  0  0  0  0
  3  6  1  0  0  0  0
  4  1  2  0  0  0  0
  5  3  2  0  0  0  0
M  END
>  <DRUGBANK_ID>
DB03057

>  <SECONDARY_ACCESSION_NUMBERS>
EXPT02141

>  <COMMON_NAME>
Malonaldehyde

>  <CAS_NUMBER>
542-78-9

>  <UNII>
4Y8F71G49Q

>  <SYNONYMS>
Malondialdehyde; Malonic aldehyde; Malonic dialdehyde; Malonodialdehyde

$$$$
