
 OpenBabel10282417072D

 33 35  0  0  0  0  0  0  0  0999 V2000
   -0.7496   -0.8452    0.0000 C   0  0  0  0  0  0  0  0  0  0  0  0
    0.5200   -1.2577    0.0000 N   0  0  0  0  0  0  0  0  0  0  0  0
    0.6886   -0.0866    0.0000 O   0  0  0  0  0  0  0  0  0  0  0  0
   -0.7496   -1.6702    0.0000 C   0  0  0  0  0  0  0  0  0  0  0  0
   -1.4641   -0.4326    0.0000 C   0  0  0  0  0  0  0  0  0  0  0  0
    0.0350   -1.9252    0.0000 C   0  0  0  0  0  0  0  0  0  0  0  0
   -1.4641   -2.0828    0.0000 C   0  0  0  0  0  0  0  0  0  0  0  0
   -2.1786   -0.8452    0.0000 C   0  0  0  0  0  0  0  0  0  0  0  0
    0.2900   -2.7099    0.0000 O   0  0  0  0  0  0  0  0  0  0  0  0
   -2.1786   -1.6702    0.0000 C   0  0  0  0  0  0  0  0  0  0  0  0
    0.0350    0.2347    0.0000 C   0  0  0  0  0  0  0  0  0  0  0  0
    0.7495    0.6472    0.0000 C   0  0  0  0  0  0  0  0  0  0  0  0
   -0.6795    0.6472    0.0000 C   0  0  0  0  0  0  0  0  0  0  0  0
    0.7495    1.4723    0.0000 C   0  0  0  0  0  0  0  0  0  0  0  0
   -0.6795    1.4723    0.0000 C   0  0  0  0  0  0  0  0  0  0  0  0
    0.0350    1.8848    0.0000 C   0  0  0  0  0  0  0  0  0  0  0  0
    1.4640    1.8848    0.0000 S   0  0  0  0  0  0  0  0  0  0  0  0
    0.0350    2.7099    0.0000 Cl  0  0  0  0  0  0  0  0  0  0  0  0
    1.8765    1.1703    0.0000 O   0  0  0  0  0  0  0  0  0  0  0  0
    0.0350   -0.5902    0.0000 C   0  0  3  0  0  0  0  0  0  0  0  0
    2.1786    2.2974    0.0000 N   0  0  0  0  0  0  0  0  0  0  0  0
    1.0515    2.5994    0.0000 O   0  0  0  0  0  0  0  0  0  0  0  0
    1.5045   -1.2577    0.0000 H   0  0  0  0  0  0  0  0  0  0  0  0
    1.5855   -0.4560    0.0000 H   0  0  0  0  0  0  0  0  0  0  0  0
   -1.4641    0.5994    0.0000 H   0  0  0  0  0  0  0  0  0  0  0  0
   -1.4641   -3.1148    0.0000 H   0  0  0  0  0  0  0  0  0  0  0  0
   -3.0724   -0.3292    0.0000 H   0  0  0  0  0  0  0  0  0  0  0  0
   -3.0724   -2.1862    0.0000 H   0  0  0  0  0  0  0  0  0  0  0  0
    1.6432    0.1312    0.0000 H   0  0  0  0  0  0  0  0  0  0  0  0
   -1.5732    0.1312    0.0000 H   0  0  0  0  0  0  0  0  0  0  0  0
   -1.5732    1.9883    0.0000 H   0  0  0  0  0  0  0  0  0  0  0  0
    3.0620    1.7874    0.0000 H   0  0  0  0  0  0  0  0  0  0  0  0
    2.1786    3.3174    0.0000 H   0  0  0  0  0  0  0  0  0  0  0  0
  1  4  1  0  0  0  0
  1  5  2  0  0  0  0
  2  6  1  0  0  0  0
  2 23  1  0  0  0  0
  3 24  1  0  0  0  0
  4  7  2  0  0  0  0
  4  6  1  0  0  0  0
  5  8  1  0  0  0  0
  5 25  1  0  0  0  0
  6  9  2  0  0  0  0
  7 10  1  0  0  0  0
  7 26  1  0  0  0  0
  8 10  2  0  0  0  0
  8 27  1  0  0  0  0
 10 28  1  0  0  0  0
 11 12  2  0  0  0  0
 11 13  1  0  0  0  0
 12 14  1  0  0  0  0
 12 29  1  0  0  0  0
 13 15  2  0  0  0  0
 13 30  1  0  0  0  0
 14 16  2  0  0  0  0
 14 17  1  0  0  0  0
 15 16  1  0  0  0  0
 15 31  1  0  0  0  0
 16 18  1  0  0  0  0
 17 22  2  0  0  0  0
 17 19  2  0  0  0  0
 17 21  1  0  0  0  0
 20  1  1  0  0  0  0
 20  2  1  0  0  0  0
 20  3  1  0  0  0  0
 20 11  1  0  0  0  0
 21 32  1  0  0  0  0
 21 33  1  0  0  0  0
M  END
>  <DRUGBANK_ID>
DB00310

>  <SECONDARY_ACCESSION_NUMBERS>
APRD00127

>  <COMMON_NAME>
Chlorthalidone

>  <CAS_NUMBER>
77-36-1

>  <UNII>
Q0MQD1073Q

>  <SYNONYMS>
1-keto-3-(3'-sulfamyl-4'-chlorophenyl)-3-hydroxyisoindoline; 1-oxo-3-(3-sulfamyl-4-chlorophenyl)-3-hydroxyisoindoline; 2-chloro-5-(1-hydroxy-3-oxo-1-isoindolinyl)benzenesulfonamide; 2-chloro-5-(2,3-dihydro-1-hydroxy-3-oxo-1H-isoindol-1-yl)benzenesulfonamide; 3-(4'-chloro-3'-sulfamoylphenyl)-3-hydroxyphthalimidine; 3-hydroxy-3-(4-chloro-3-sulfamylphenyl)phthalimidine; Chlorphthalidolone; Chlortalidone; Chlortalidonum; Chlorthalidone; Clortalidona; Phthalamodine; Phthalamudine

$$$$
