
 OpenBabel10282417072D

 31 32  0  0  1  0  0  0  0  0999 V2000
    0.7145    6.7661    0.0000 N   0  0  0  0  0  0  0  0  0  0  0  0
    0.7145    5.9411    0.0000 C   0  0  0  0  0  0  0  0  0  0  0  0
    1.4289    5.5286    0.0000 N   0  0  0  0  0  0  0  0  0  0  0  0
    1.4289    4.7036    0.0000 C   0  0  0  0  0  0  0  0  0  0  0  0
    2.1434    4.2911    0.0000 O   0  0  0  0  0  0  0  0  0  0  0  0
    0.7145    4.2911    0.0000 N   0  0  0  0  0  0  0  0  0  0  0  0
    0.0000    4.7036    0.0000 C   0  0  0  0  0  0  0  0  0  0  0  0
   -0.0000    5.5286    0.0000 N   0  0  0  0  0  0  0  0  0  0  0  0
    0.7145    3.4661    0.0000 C   0  0  2  0  0  0  0  0  0  0  0  0
    1.3819    2.9812    0.0000 O   0  0  0  0  0  0  0  0  0  0  0  0
    1.1270    2.1965    0.0000 C   0  0  2  0  0  0  0  0  0  0  0  0
    1.6119    1.5291    0.0000 C   0  0  0  0  0  0  0  0  0  0  0  0
    2.4324    1.6153    0.0000 O   0  0  0  0  0  0  0  0  0  0  0  0
    0.3020    2.1965    0.0000 C   0  0  1  0  0  0  0  0  0  0  0  0
   -0.1830    1.5291    0.0000 O   0  0  0  0  0  0  0  0  0  0  0  0
    0.0470    2.9812    0.0000 C   0  0  1  0  0  0  0  0  0  0  0  0
   -0.7376    3.2361    0.0000 O   0  0  0  0  0  0  0  0  0  0  0  0
    1.5671    7.2584    0.0000 H   0  0  0  0  0  0  0  0  0  0  0  0
   -0.1381    7.2584    0.0000 H   0  0  0  0  0  0  0  0  0  0  0  0
   -0.9266    4.1686    0.0000 H   0  0  0  0  0  0  0  0  0  0  0  0
   -0.9266    5.2386    0.0000 H   0  0  0  0  0  0  0  0  0  0  0  0
   -0.8526    6.0209    0.0000 H   0  0  0  0  0  0  0  0  0  0  0  0
    1.6679    3.9519    0.0000 H   0  0  0  0  0  0  0  0  0  0  0  0
    2.1838    2.3639    0.0000 H   0  0  0  0  0  0  0  0  0  0  0  0
    1.1767    0.5516    0.0000 H   0  0  0  0  0  0  0  0  0  0  0  0
    2.2408    0.6634    0.0000 H   0  0  0  0  0  0  0  0  0  0  0  0
    3.0025    0.8305    0.0000 H   0  0  0  0  0  0  0  0  0  0  0  0
    0.7877    1.2431    0.0000 H   0  0  0  0  0  0  0  0  0  0  0  0
   -1.1477    1.6306    0.0000 H   0  0  0  0  0  0  0  0  0  0  0  0
   -0.7096    2.2246    0.0000 H   0  0  0  0  0  0  0  0  0  0  0  0
   -0.9393    4.1849    0.0000 H   0  0  0  0  0  0  0  0  0  0  0  0
  1  2  1  0  0  0  0
  1 18  1  0  0  0  0
  1 19  1  0  0  0  0
  2  3  2  0  0  0  0
  2  8  1  0  0  0  0
  3  4  1  0  0  0  0
  4  5  2  0  0  0  0
  4  6  1  0  0  0  0
  6  7  1  0  0  0  0
  7  8  1  0  0  0  0
  7 20  1  0  0  0  0
  7 21  1  0  0  0  0
  8 22  1  0  0  0  0
  9  6  1  0  0  0  0
  9 10  1  0  0  0  0
  9 23  1  1  0  0  0
 11 10  1  0  0  0  0
 11 12  1  0  0  0  0
 11 24  1  1  0  0  0
 12 13  1  0  0  0  0
 12 25  1  0  0  0  0
 12 26  1  0  0  0  0
 13 27  1  0  0  0  0
 14 11  1  0  0  0  0
 14 15  1  0  0  0  0
 14 16  1  0  0  0  0
 14 28  1  6  0  0  0
 15 29  1  0  0  0  0
 16  9  1  0  0  0  0
 16 17  1  0  0  0  0
 16 30  1  6  0  0  0
 17 31  1  0  0  0  0
M  END
>  <DRUGBANK_ID>
DB17151

>  <COMMON_NAME>
5,6-dihydro-5-azacytidine

>  <CAS_NUMBER>
62488-57-7

>  <UNII>
0627D8VG1C

>  <SYNONYMS>
1,3,5-triazin-2(1h)-one, 4-amino-5,6-dihydro-1-.beta.-d-ribofuranosyl-

$$$$
