N3P
 OpenBabel10282417072D

 38 40  0  0  0  0  0  0  0  0999 V2000
   -1.0792   -3.3605    0.0000 C   0  0  0  0  0  0  0  0  0  0  0  0
   -1.0792   -2.5355    0.0000 C   0  0  0  0  0  0  0  0  0  0  0  0
    5.3510   -2.1230    0.0000 C   0  0  0  0  0  0  0  0  0  0  0  0
    4.6365   -0.8855    0.0000 C   0  0  0  0  0  0  0  0  0  0  0  0
    4.6365   -2.5355    0.0000 C   0  0  0  0  0  0  0  0  0  0  0  0
    3.9221   -1.2980    0.0000 C   0  0  0  0  0  0  0  0  0  0  0  0
   -0.3647   -3.7730    0.0000 C   0  0  0  0  0  0  0  0  0  0  0  0
   -0.3647   -2.1230    0.0000 C   0  0  0  0  0  0  0  0  0  0  0  0
    1.0642   -3.7730    0.0000 C   0  0  0  0  0  0  0  0  0  0  0  0
    1.0642   -2.1230    0.0000 C   0  0  0  0  0  0  0  0  0  0  0  0
    2.4931   -2.1230    0.0000 C   0  0  0  0  0  0  0  0  0  0  0  0
    5.3510   -1.2980    0.0000 C   0  0  0  0  0  0  0  0  0  0  0  0
    3.9221   -2.1230    0.0000 C   0  0  0  0  0  0  0  0  0  0  0  0
    1.7787   -3.3605    0.0000 C   0  0  0  0  0  0  0  0  0  0  0  0
    1.7787   -2.5355    0.0000 C   0  0  0  0  0  0  0  0  0  0  0  0
    0.3497   -3.3605    0.0000 C   0  0  0  0  0  0  0  0  0  0  0  0
    0.3497   -2.5355    0.0000 C   0  0  0  0  0  0  0  0  0  0  0  0
    3.2076   -2.5355    0.0000 N   0  0  0  0  0  0  0  0  0  0  0  0
    2.4931   -1.2980    0.0000 O   0  0  0  0  0  0  0  0  0  0  0  0
    1.6681   -4.5980    0.0000 O   0  0  0  0  0  0  0  0  0  0  0  0
    3.3181   -4.5980    0.0000 O   0  0  0  0  0  0  0  0  0  0  0  0
    2.4931   -5.4230    0.0000 O   0  0  0  0  0  0  0  0  0  0  0  0
    2.4931   -3.7730    0.0000 O   0  0  0  0  0  0  0  0  0  0  0  0
    6.0655   -0.8855    0.0000 Cl  0  0  0  0  0  0  0  0  0  0  0  0
    2.4931   -4.5980    0.0000 P   0  0  0  0  0  0  0  0  0  0  0  0
   -1.9729   -3.8765    0.0000 H   0  0  0  0  0  0  0  0  0  0  0  0
   -1.9729   -2.0195    0.0000 H   0  0  0  0  0  0  0  0  0  0  0  0
    6.2447   -2.6390    0.0000 H   0  0  0  0  0  0  0  0  0  0  0  0
    4.6365    0.1465    0.0000 H   0  0  0  0  0  0  0  0  0  0  0  0
    4.6365   -3.5675    0.0000 H   0  0  0  0  0  0  0  0  0  0  0  0
    3.0284   -0.7820    0.0000 H   0  0  0  0  0  0  0  0  0  0  0  0
   -0.3647   -4.8050    0.0000 H   0  0  0  0  0  0  0  0  0  0  0  0
   -0.3647   -1.0910    0.0000 H   0  0  0  0  0  0  0  0  0  0  0  0
    1.0642   -4.8050    0.0000 H   0  0  0  0  0  0  0  0  0  0  0  0
    1.0642   -1.0910    0.0000 H   0  0  0  0  0  0  0  0  0  0  0  0
    3.2076   -3.5200    0.0000 H   0  0  0  0  0  0  0  0  0  0  0  0
    3.8031   -5.4380    0.0000 H   0  0  0  0  0  0  0  0  0  0  0  0
    1.6531   -5.9080    0.0000 H   0  0  0  0  0  0  0  0  0  0  0  0
  1  2  1  0  0  0  0
  1  7  2  0  0  0  0
  1 26  1  0  0  0  0
  2  8  2  0  0  0  0
  2 27  1  0  0  0  0
  3  5  1  0  0  0  0
  3 12  2  0  0  0  0
  3 28  1  0  0  0  0
  4  6  2  0  0  0  0
  4 12  1  0  0  0  0
  4 29  1  0  0  0  0
  5 13  2  0  0  0  0
  5 30  1  0  0  0  0
  6 13  1  0  0  0  0
  6 31  1  0  0  0  0
  7 16  1  0  0  0  0
  7 32  1  0  0  0  0
  8 17  1  0  0  0  0
  8 33  1  0  0  0  0
  9 16  2  0  0  0  0
  9 14  1  0  0  0  0
  9 34  1  0  0  0  0
 10 17  2  0  0  0  0
 10 15  1  0  0  0  0
 10 35  1  0  0  0  0
 11 19  2  0  0  0  0
 11 15  1  0  0  0  0
 11 18  1  0  0  0  0
 12 24  1  0  0  0  0
 13 18  1  0  0  0  0
 14 15  2  0  0  0  0
 14 23  1  0  0  0  0
 16 17  1  0  0  0  0
 18 36  1  0  0  0  0
 20 25  2  0  0  0  0
 21 25  1  0  0  0  0
 21 37  1  0  0  0  0
 22 25  1  0  0  0  0
 22 38  1  0  0  0  0
 23 25  1  0  0  0  0
M  END
>  <DRUGBANK_ID>
DB08240

>  <COMMON_NAME>
N-(4-CHLOROPHENYL)-3-(PHOSPHONOOXY)NAPHTHALENE-2-CARBOXAMIDE

>  <UNII>
H6R6B93QFC

$$$$
