
 OpenBabel10282417072D

 46 48  0  0  0  0  0  0  0  0999 V2000
   -2.5005   -0.2062    0.0000 C   0  0  0  0  0  0  0  0  0  0  0  0
   -3.2150    0.2062    0.0000 C   0  0  0  0  0  0  0  0  0  0  0  0
   -3.9295   -0.2062    0.0000 C   0  0  0  0  0  0  0  0  0  0  0  0
   -3.9295   -1.0312    0.0000 C   0  0  0  0  0  0  0  0  0  0  0  0
   -3.2150   -1.4437    0.0000 C   0  0  0  0  0  0  0  0  0  0  0  0
   -2.5006   -1.0312    0.0000 C   0  0  0  0  0  0  0  0  0  0  0  0
   -1.7862    0.2062    0.0000 C   0  0  0  0  0  0  0  0  0  0  0  0
   -1.0716   -0.2062    0.0000 C   0  0  0  0  0  0  0  0  0  0  0  0
   -1.0716   -1.0312    0.0000 C   0  0  0  0  0  0  0  0  0  0  0  0
   -1.7862   -1.4437    0.0000 N   0  0  0  0  0  0  0  0  0  0  0  0
   -0.3571    0.2062    0.0000 C   0  0  0  0  0  0  0  0  0  0  0  0
    0.3573   -0.2062    0.0000 N   0  0  0  0  0  0  0  0  0  0  0  0
    1.0717    0.2062    0.0000 C   0  0  0  0  0  0  0  0  0  0  0  0
    0.3573   -1.0312    0.0000 C   0  0  0  0  0  0  0  0  0  0  0  0
    1.7862   -0.2062    0.0000 C   0  0  0  0  0  0  0  0  0  0  0  0
    2.5007    0.2062    0.0000 C   0  0  0  0  0  0  0  0  0  0  0  0
    2.5007    1.0312    0.0000 C   0  0  0  0  0  0  0  0  0  0  0  0
    1.7862    1.4437    0.0000 C   0  0  0  0  0  0  0  0  0  0  0  0
    1.0717    1.0312    0.0000 C   0  0  0  0  0  0  0  0  0  0  0  0
    3.2151    1.4437    0.0000 C   0  0  0  0  0  0  0  0  0  0  0  0
    3.2151    2.2687    0.0000 F   0  0  0  0  0  0  0  0  0  0  0  0
    3.9296    1.0312    0.0000 F   0  0  0  0  0  0  0  0  0  0  0  0
    3.9296    1.8562    0.0000 F   0  0  0  0  0  0  0  0  0  0  0  0
   -0.3571    1.0312    0.0000 O   0  0  0  0  0  0  0  0  0  0  0  0
   -0.3571   -1.4437    0.0000 O   0  0  0  0  0  0  0  0  0  0  0  0
   -1.7862    1.0312    0.0000 O   0  0  0  0  0  0  0  0  0  0  0  0
   -3.2150    1.0312    0.0000 O   0  0  0  0  0  0  0  0  0  0  0  0
   -3.9295    1.4437    0.0000 C   0  0  0  0  0  0  0  0  0  0  0  0
   -1.7862   -2.2687    0.0000 C   0  0  0  0  0  0  0  0  0  0  0  0
   -4.8232    0.3099    0.0000 H   0  0  0  0  0  0  0  0  0  0  0  0
   -4.8232   -1.5472    0.0000 H   0  0  0  0  0  0  0  0  0  0  0  0
   -3.2150   -2.4757    0.0000 H   0  0  0  0  0  0  0  0  0  0  0  0
   -0.5693   -1.5662    0.0000 H   0  0  0  0  0  0  0  0  0  0  0  0
    1.2839   -1.5662    0.0000 H   0  0  0  0  0  0  0  0  0  0  0  0
    0.3573   -2.1012    0.0000 H   0  0  0  0  0  0  0  0  0  0  0  0
    1.7862   -1.2382    0.0000 H   0  0  0  0  0  0  0  0  0  0  0  0
    3.3944   -0.3099    0.0000 H   0  0  0  0  0  0  0  0  0  0  0  0
    1.7862    2.4757    0.0000 H   0  0  0  0  0  0  0  0  0  0  0  0
    0.1780    1.5472    0.0000 H   0  0  0  0  0  0  0  0  0  0  0  0
   -0.9747    1.4997    0.0000 H   0  0  0  0  0  0  0  0  0  0  0  0
   -3.9295    2.5137    0.0000 H   0  0  0  0  0  0  0  0  0  0  0  0
   -4.8561    0.9087    0.0000 H   0  0  0  0  0  0  0  0  0  0  0  0
   -4.8562    1.9787    0.0000 H   0  0  0  0  0  0  0  0  0  0  0  0
   -2.7128   -2.8037    0.0000 H   0  0  0  0  0  0  0  0  0  0  0  0
   -0.8596   -2.8037    0.0000 H   0  0  0  0  0  0  0  0  0  0  0  0
   -1.7862   -3.3387    0.0000 H   0  0  0  0  0  0  0  0  0  0  0  0
  1  2  1  0  0  0  0
  1  7  1  0  0  0  0
  2  3  2  0  0  0  0
  2 27  1  0  0  0  0
  3  4  1  0  0  0  0
  3 30  1  0  0  0  0
  4  5  2  0  0  0  0
  4 31  1  0  0  0  0
  5  6  1  0  0  0  0
  5 32  1  0  0  0  0
  6  1  2  0  0  0  0
  7  8  2  0  0  0  0
  7 26  1  0  0  0  0
  8  9  1  0  0  0  0
  8 11  1  0  0  0  0
  9 10  1  0  0  0  0
  9 25  2  0  0  0  0
 10  6  1  0  0  0  0
 10 29  1  0  0  0  0
 11 12  1  0  0  0  0
 11 24  2  0  0  0  0
 12 13  1  0  0  0  0
 12 14  1  0  0  0  0
 13 15  1  0  0  0  0
 13 19  2  0  0  0  0
 14 33  1  0  0  0  0
 14 34  1  0  0  0  0
 14 35  1  0  0  0  0
 15 16  2  0  0  0  0
 15 36  1  0  0  0  0
 16 17  1  0  0  0  0
 16 37  1  0  0  0  0
 17 18  2  0  0  0  0
 17 20  1  0  0  0  0
 18 19  1  0  0  0  0
 18 38  1  0  0  0  0
 19 39  1  0  0  0  0
 20 21  1  0  0  0  0
 20 22  1  0  0  0  0
 20 23  1  0  0  0  0
 26 40  1  0  0  0  0
 27 28  1  0  0  0  0
 28 41  1  0  0  0  0
 28 42  1  0  0  0  0
 28 43  1  0  0  0  0
 29 44  1  0  0  0  0
 29 45  1  0  0  0  0
 29 46  1  0  0  0  0
M  END
>  <DRUGBANK_ID>
DB05861

>  <COMMON_NAME>
Tasquinimod

>  <CAS_NUMBER>
254964-60-8

>  <UNII>
756U07KN1R

>  <SYNONYMS>
TASQ; Tasquinimod

$$$$
