
 OpenBabel10282417072D

 24 24  0  0  0  0  0  0  0  0999 V2000
    1.0717    2.0626    0.0000 O   0  0  0  0  0  0  0  0  0  0  0  0
   -0.3572    2.0626    0.0000 O   0  0  0  0  0  0  0  0  0  0  0  0
    0.3571    0.8250    0.0000 C   0  0  2  0  0  0  0  0  0  0  0  0
   -0.3572    0.4124    0.0000 C   0  0  0  0  0  0  0  0  0  0  0  0
   -0.3572   -0.4124    0.0000 C   0  0  0  0  0  0  0  0  0  0  0  0
    1.0717    0.4124    0.0000 C   0  0  0  0  0  0  0  0  0  0  0  0
    0.3571    1.6500    0.0000 C   0  0  0  0  0  0  0  0  0  0  0  0
   -1.0717   -0.8250    0.0000 C   0  0  0  0  0  0  0  0  0  0  0  0
    0.3571   -0.8250    0.0000 C   0  0  0  0  0  0  0  0  0  0  0  0
   -1.0717   -1.6500    0.0000 C   0  0  0  0  0  0  0  0  0  0  0  0
    0.3571   -1.6500    0.0000 C   0  0  0  0  0  0  0  0  0  0  0  0
   -0.3572   -2.0626    0.0000 C   0  0  0  0  0  0  0  0  0  0  0  0
    1.8832    1.5941    0.0000 H   0  0  0  0  0  0  0  0  0  0  0  0
    0.3572   -0.2450    0.0000 H   0  0  0  0  0  0  0  0  0  0  0  0
   -1.2839    0.9473    0.0000 H   0  0  0  0  0  0  0  0  0  0  0  0
   -1.2838   -0.1226    0.0000 H   0  0  0  0  0  0  0  0  0  0  0  0
    1.0717   -0.6576    0.0000 H   0  0  0  0  0  0  0  0  0  0  0  0
    1.9984    0.9474    0.0000 H   0  0  0  0  0  0  0  0  0  0  0  0
    1.9983   -0.1226    0.0000 H   0  0  0  0  0  0  0  0  0  0  0  0
   -1.9655   -0.3090    0.0000 H   0  0  0  0  0  0  0  0  0  0  0  0
    1.2509   -0.3091    0.0000 H   0  0  0  0  0  0  0  0  0  0  0  0
   -1.9655   -2.1660    0.0000 H   0  0  0  0  0  0  0  0  0  0  0  0
    1.2509   -2.1659    0.0000 H   0  0  0  0  0  0  0  0  0  0  0  0
   -0.3571   -3.0946    0.0000 H   0  0  0  0  0  0  0  0  0  0  0  0
  1  7  1  0  0  0  0
  1 13  1  0  0  0  0
  2  7  2  0  0  0  0
  3  4  1  0  0  0  0
  3  6  1  0  0  0  0
  3  7  1  0  0  0  0
  3 14  1  6  0  0  0
  4  5  1  0  0  0  0
  4 15  1  0  0  0  0
  4 16  1  0  0  0  0
  5  8  2  0  0  0  0
  5  9  1  0  0  0  0
  6 17  1  0  0  0  0
  6 18  1  0  0  0  0
  6 19  1  0  0  0  0
  8 10  1  0  0  0  0
  8 20  1  0  0  0  0
  9 11  2  0  0  0  0
  9 21  1  0  0  0  0
 10 12  2  0  0  0  0
 10 22  1  0  0  0  0
 11 12  1  0  0  0  0
 11 23  1  0  0  0  0
 12 24  1  0  0  0  0
M  END
>  <DRUGBANK_ID>
DB07673

>  <COMMON_NAME>
(2S)-2-Methyl-3-phenylpropanoic acid

>  <CAS_NUMBER>
14367-54-5

>  <SYNONYMS>
(S)-2-Benzylpropanoic acid; Deamino-methyl-phenylalanine

$$$$
