
 OpenBabel10282417072D

227228  0  0  1  0  0  0  0  0999 V2000
    3.4293  -27.4055    0.0000 C   0  0  0  0  0  0  0  0  0  0  0  0
    3.6581  -26.6128    0.0000 C   0  0  0  0  0  0  0  0  0  0  0  0
    3.0861  -26.0183    0.0000 C   0  0  2  0  0  0  0  0  0  0  0  0
    2.2853  -26.2165    0.0000 C   0  0  0  0  0  0  0  0  0  0  0  0
    3.3149  -25.2257    0.0000 C   0  0  2  0  0  0  0  0  0  0  0  0
    2.7429  -24.6312    0.0000 N   0  0  0  0  0  0  0  0  0  0  0  0
    1.9420  -24.8294    0.0000 C   0  0  0  0  0  0  0  0  0  0  0  0
    1.7132  -25.6220    0.0000 O   0  0  0  0  0  0  0  0  0  0  0  0
    1.3700  -24.2349    0.0000 C   0  0  2  0  0  0  0  0  0  0  0  0
    1.5988  -23.4423    0.0000 C   0  0  0  0  0  0  0  0  0  0  0  0
    2.3997  -23.2441    0.0000 C   0  0  0  0  0  0  0  0  0  0  0  0
    2.6285  -22.4515    0.0000 C   0  0  0  0  0  0  0  0  0  0  0  0
    3.4293  -22.2533    0.0000 N   0  0  0  0  0  0  0  0  0  0  0  0
    3.6581  -21.4607    0.0000 C   0  0  0  0  0  0  0  0  0  0  0  0
    3.0861  -20.8662    0.0000 N   0  0  0  0  0  0  0  0  0  0  0  0
    4.4590  -21.2625    0.0000 N   0  0  0  0  0  0  0  0  0  0  0  0
    0.5692  -24.4331    0.0000 N   0  0  0  0  0  0  0  0  0  0  0  0
   -0.0029  -23.8386    0.0000 C   0  0  0  0  0  0  0  0  0  0  0  0
    0.2259  -23.0460    0.0000 O   0  0  0  0  0  0  0  0  0  0  0  0
   -0.8037  -24.0368    0.0000 C   0  0  1  0  0  0  0  0  0  0  0  0
   -1.3758  -23.4423    0.0000 N   0  0  0  0  0  0  0  0  0  0  0  0
   -2.1766  -23.6404    0.0000 C   0  0  0  0  0  0  0  0  0  0  0  0
   -2.4054  -24.4331    0.0000 O   0  0  0  0  0  0  0  0  0  0  0  0
   -2.7486  -23.0460    0.0000 C   0  0  1  0  0  0  0  0  0  0  0  0
   -2.5198  -22.2533    0.0000 N   0  0  0  0  0  0  0  0  0  0  0  0
   -3.5495  -23.2441    0.0000 C   0  0  0  0  0  0  0  0  0  0  0  0
   -4.1215  -22.6496    0.0000 C   0  0  0  0  0  0  0  0  0  0  0  0
   -4.9224  -22.8478    0.0000 S   0  0  0  0  0  0  0  0  0  0  0  0
   -5.4944  -22.2533    0.0000 C   0  0  0  0  0  0  0  0  0  0  0  0
   -1.0325  -24.8294    0.0000 C   0  0  0  0  0  0  0  0  0  0  0  0
   -1.8334  -25.0275    0.0000 C   0  0  0  0  0  0  0  0  0  0  0  0
   -0.4605  -25.4239    0.0000 C   0  0  0  0  0  0  0  0  0  0  0  0
    4.1158  -25.0275    0.0000 C   0  0  0  0  0  0  0  0  0  0  0  0
    4.3446  -24.2349    0.0000 O   0  0  0  0  0  0  0  0  0  0  0  0
    4.6878  -25.6220    0.0000 N   0  0  0  0  0  0  0  0  0  0  0  0
    5.4887  -25.4239    0.0000 C   0  0  1  0  0  0  0  0  0  0  0  0
    5.7175  -24.6312    0.0000 C   0  0  0  0  0  0  0  0  0  0  0  0
    5.1454  -24.0368    0.0000 C   0  0  0  0  0  0  0  0  0  0  0  0
    5.3743  -23.2441    0.0000 C   0  0  0  0  0  0  0  0  0  0  0  0
    4.8022  -22.6496    0.0000 C   0  0  0  0  0  0  0  0  0  0  0  0
    5.0310  -21.8570    0.0000 N   0  0  0  0  0  0  0  0  0  0  0  0
    6.0607  -26.0183    0.0000 C   0  0  0  0  0  0  0  0  0  0  0  0
    6.8615  -25.8202    0.0000 O   0  0  0  0  0  0  0  0  0  0  0  0
    5.8319  -26.8110    0.0000 N   0  0  0  0  0  0  0  0  0  0  0  0
    5.0561  -27.0918    0.0000 C   0  0  0  0  0  0  0  0  0  0  0  0
    5.0835  -27.9163    0.0000 C   0  0  0  0  0  0  0  0  0  0  0  0
    5.8761  -28.1451    0.0000 C   0  0  0  0  0  0  0  0  0  0  0  0
    6.3386  -27.4620    0.0000 C   0  0  1  0  0  0  0  0  0  0  0  0
    7.1632  -27.4347    0.0000 C   0  0  0  0  0  0  0  0  0  0  0  0
    7.5518  -26.7069    0.0000 O   0  0  0  0  0  0  0  0  0  0  0  0
    7.5991  -28.1351    0.0000 N   0  0  0  0  0  0  0  0  0  0  0  0
    8.4237  -28.1078    0.0000 C   0  0  0  0  0  0  0  0  0  0  0  0
    8.8596  -28.8082    0.0000 C   0  0  0  0  0  0  0  0  0  0  0  0
    8.4710  -29.5359    0.0000 O   0  0  0  0  0  0  0  0  0  0  0  0
    9.6842  -28.7809    0.0000 N   0  0  0  0  0  0  0  0  0  0  0  0
   10.1201  -29.4813    0.0000 C   0  0  1  0  0  0  0  0  0  0  0  0
    9.7315  -30.2090    0.0000 C   0  0  0  0  0  0  0  0  0  0  0  0
   10.1674  -30.9094    0.0000 O   0  0  0  0  0  0  0  0  0  0  0  0
   10.9446  -29.4540    0.0000 C   0  0  0  0  0  0  0  0  0  0  0  0
   11.3332  -28.7262    0.0000 O   0  0  0  0  0  0  0  0  0  0  0  0
   11.3806  -30.1544    0.0000 N   0  0  0  0  0  0  0  0  0  0  0  0
   12.2051  -30.1270    0.0000 C   0  0  1  0  0  0  0  0  0  0  0  0
   12.5937  -29.3993    0.0000 C   0  0  0  0  0  0  0  0  0  0  0  0
   12.6411  -30.8275    0.0000 C   0  0  0  0  0  0  0  0  0  0  0  0
   12.2524  -31.5552    0.0000 O   0  0  0  0  0  0  0  0  0  0  0  0
   13.4656  -30.8001    0.0000 N   0  0  0  0  0  0  0  0  0  0  0  0
   13.9015  -31.5006    0.0000 C   0  0  1  0  0  0  0  0  0  0  0  0
   14.5526  -30.9938    0.0000 C   0  0  0  0  0  0  0  0  0  0  0  0
   14.4392  -30.1766    0.0000 C   0  0  0  0  0  0  0  0  0  0  0  0
   13.6748  -29.8662    0.0000 N   0  0  0  0  0  0  0  0  0  0  0  0
   15.0902  -29.6699    0.0000 O   0  0  0  0  0  0  0  0  0  0  0  0
   13.5129  -32.2283    0.0000 C   0  0  0  0  0  0  0  0  0  0  0  0
   12.6884  -32.2556    0.0000 O   0  0  0  0  0  0  0  0  0  0  0  0
   13.9489  -32.9287    0.0000 N   0  0  0  0  0  0  0  0  0  0  0  0
   14.7734  -32.9014    0.0000 C   0  0  1  0  0  0  0  0  0  0  0  0
   15.1620  -32.1737    0.0000 C   0  0  0  0  0  0  0  0  0  0  0  0
   14.7261  -31.4732    0.0000 C   0  0  0  0  0  0  0  0  0  0  0  0
   15.1147  -30.7455    0.0000 C   0  0  0  0  0  0  0  0  0  0  0  0
   15.4251  -29.9811    0.0000 C   0  0  0  0  0  0  0  0  0  0  0  0
   16.2423  -29.8678    0.0000 N   0  0  0  0  0  0  0  0  0  0  0  0
   15.2093  -33.6018    0.0000 C   0  0  0  0  0  0  0  0  0  0  0  0
   14.8207  -34.3296    0.0000 O   0  0  0  0  0  0  0  0  0  0  0  0
   16.0339  -33.5745    0.0000 N   0  0  0  0  0  0  0  0  0  0  0  0
   16.4964  -32.8914    0.0000 C   0  0  0  0  0  0  0  0  0  0  0  0
   17.2891  -33.1202    0.0000 C   0  0  0  0  0  0  0  0  0  0  0  0
   17.3164  -33.9447    0.0000 C   0  0  0  0  0  0  0  0  0  0  0  0
   16.5407  -34.2255    0.0000 C   0  0  1  0  0  0  0  0  0  0  0  0
   16.3118  -35.0181    0.0000 C   0  0  0  0  0  0  0  0  0  0  0  0
   15.5110  -35.2163    0.0000 O   0  0  0  0  0  0  0  0  0  0  0  0
   16.8839  -35.6126    0.0000 N   0  0  0  0  0  0  0  0  0  0  0  0
   16.6551  -36.4052    0.0000 C   0  0  1  0  0  0  0  0  0  0  0  0
   15.8542  -36.6034    0.0000 C   0  0  0  0  0  0  0  0  0  0  0  0
   15.6254  -37.3960    0.0000 O   0  0  0  0  0  0  0  0  0  0  0  0
   17.2271  -36.9997    0.0000 C   0  0  0  0  0  0  0  0  0  0  0  0
   18.0279  -36.8016    0.0000 O   0  0  0  0  0  0  0  0  0  0  0  0
   16.9983  -37.7924    0.0000 N   0  0  0  0  0  0  0  0  0  0  0  0
   17.5703  -38.3868    0.0000 C   0  0  1  0  0  0  0  0  0  0  0  0
   18.3712  -38.1887    0.0000 C   0  0  0  0  0  0  0  0  0  0  0  0
   18.9432  -38.7831    0.0000 C   0  0  0  0  0  0  0  0  0  0  0  0
   19.7440  -38.5850    0.0000 O   0  0  0  0  0  0  0  0  0  0  0  0
   18.7144  -39.5758    0.0000 O   0  0  0  0  0  0  0  0  0  0  0  0
   17.3415  -39.1795    0.0000 C   0  0  0  0  0  0  0  0  0  0  0  0
   16.5407  -39.3776    0.0000 O   0  0  0  0  0  0  0  0  0  0  0  0
   17.9135  -39.7739    0.0000 N   0  0  0  0  0  0  0  0  0  0  0  0
   17.6847  -40.5666    0.0000 C   0  0  1  0  0  0  0  0  0  0  0  0
   18.2568  -41.1611    0.0000 C   0  0  0  0  0  0  0  0  0  0  0  0
   18.0279  -41.9537    0.0000 C   0  0  0  0  0  0  0  0  0  0  0  0
   18.6000  -42.5482    0.0000 O   0  0  0  0  0  0  0  0  0  0  0  0
   17.2271  -42.1518    0.0000 O   0  0  0  0  0  0  0  0  0  0  0  0
   16.8839  -40.7647    0.0000 C   0  0  0  0  0  0  0  0  0  0  0  0
   16.6551  -41.5574    0.0000 O   0  0  0  0  0  0  0  0  0  0  0  0
   16.3118  -40.1703    0.0000 O   0  0  0  0  0  0  0  0  0  0  0  0
    2.3906  -27.6625    0.0000 H   0  0  0  0  0  0  0  0  0  0  0  0
    4.1712  -28.1765    0.0000 H   0  0  0  0  0  0  0  0  0  0  0  0
    3.1326  -28.4335    0.0000 H   0  0  0  0  0  0  0  0  0  0  0  0
    4.6968  -26.3558    0.0000 H   0  0  0  0  0  0  0  0  0  0  0  0
    3.9549  -25.5848    0.0000 H   0  0  0  0  0  0  0  0  0  0  0  0
    2.7893  -27.0463    0.0000 H   0  0  0  0  0  0  0  0  0  0  0  0
    1.5433  -25.4455    0.0000 H   0  0  0  0  0  0  0  0  0  0  0  0
    1.9886  -27.2445    0.0000 H   0  0  0  0  0  0  0  0  0  0  0  0
    1.2466  -26.4736    0.0000 H   0  0  0  0  0  0  0  0  0  0  0  0
    2.2762  -25.4827    0.0000 H   0  0  0  0  0  0  0  0  0  0  0  0
    3.0160  -23.6853    0.0000 H   0  0  0  0  0  0  0  0  0  0  0  0
    1.0732  -25.2629    0.0000 H   0  0  0  0  0  0  0  0  0  0  0  0
    0.8569  -22.6713    0.0000 H   0  0  0  0  0  0  0  0  0  0  0  0
    1.8955  -22.4143    0.0000 H   0  0  0  0  0  0  0  0  0  0  0  0
    3.1416  -24.0151    0.0000 H   0  0  0  0  0  0  0  0  0  0  0  0
    3.4384  -22.9871    0.0000 H   0  0  0  0  0  0  0  0  0  0  0  0
    1.8866  -21.6805    0.0000 H   0  0  0  0  0  0  0  0  0  0  0  0
    2.9252  -21.4235    0.0000 H   0  0  0  0  0  0  0  0  0  0  0  0
    4.1120  -22.9627    0.0000 H   0  0  0  0  0  0  0  0  0  0  0  0
    3.3592  -19.9203    0.0000 H   0  0  0  0  0  0  0  0  0  0  0  0
    2.1304  -21.1026    0.0000 H   0  0  0  0  0  0  0  0  0  0  0  0
    5.1417  -21.9719    0.0000 H   0  0  0  0  0  0  0  0  0  0  0  0
    0.2962  -25.3790    0.0000 H   0  0  0  0  0  0  0  0  0  0  0  0
   -0.5070  -23.0088    0.0000 H   0  0  0  0  0  0  0  0  0  0  0  0
   -1.1027  -22.4964    0.0000 H   0  0  0  0  0  0  0  0  0  0  0  0
   -1.7099  -22.7890    0.0000 H   0  0  0  0  0  0  0  0  0  0  0  0
   -1.5297  -22.0083    0.0000 H   0  0  0  0  0  0  0  0  0  0  0  0
   -3.2271  -21.5183    0.0000 H   0  0  0  0  0  0  0  0  0  0  0  0
   -3.8463  -24.2721    0.0000 H   0  0  0  0  0  0  0  0  0  0  0  0
   -4.5882  -23.5010    0.0000 H   0  0  0  0  0  0  0  0  0  0  0  0
   -3.8247  -21.6216    0.0000 H   0  0  0  0  0  0  0  0  0  0  0  0
   -4.8634  -21.8786    0.0000 H   0  0  0  0  0  0  0  0  0  0  0  0
   -5.1976  -21.2253    0.0000 H   0  0  0  0  0  0  0  0  0  0  0  0
   -6.5331  -22.5103    0.0000 H   0  0  0  0  0  0  0  0  0  0  0  0
   -6.2363  -21.4822    0.0000 H   0  0  0  0  0  0  0  0  0  0  0  0
   -1.3293  -25.8574    0.0000 H   0  0  0  0  0  0  0  0  0  0  0  0
   -2.5752  -24.2564    0.0000 H   0  0  0  0  0  0  0  0  0  0  0  0
   -2.1303  -26.0555    0.0000 H   0  0  0  0  0  0  0  0  0  0  0  0
   -2.8721  -25.2844    0.0000 H   0  0  0  0  0  0  0  0  0  0  0  0
   -0.7573  -26.4519    0.0000 H   0  0  0  0  0  0  0  0  0  0  0  0
    0.5782  -25.1669    0.0000 H   0  0  0  0  0  0  0  0  0  0  0  0
    0.2814  -26.1950    0.0000 H   0  0  0  0  0  0  0  0  0  0  0  0
    4.4147  -26.5679    0.0000 H   0  0  0  0  0  0  0  0  0  0  0  0
    4.7468  -24.6529    0.0000 H   0  0  0  0  0  0  0  0  0  0  0  0
    6.7562  -24.3741    0.0000 H   0  0  0  0  0  0  0  0  0  0  0  0
    6.0142  -23.6031    0.0000 H   0  0  0  0  0  0  0  0  0  0  0  0
    4.1067  -24.2938    0.0000 H   0  0  0  0  0  0  0  0  0  0  0  0
    4.4035  -23.2658    0.0000 H   0  0  0  0  0  0  0  0  0  0  0  0
    6.4130  -22.9871    0.0000 H   0  0  0  0  0  0  0  0  0  0  0  0
    5.6711  -22.2161    0.0000 H   0  0  0  0  0  0  0  0  0  0  0  0
    3.7635  -22.9066    0.0000 H   0  0  0  0  0  0  0  0  0  0  0  0
    4.0603  -21.8786    0.0000 H   0  0  0  0  0  0  0  0  0  0  0  0
    6.0211  -21.6120    0.0000 H   0  0  0  0  0  0  0  0  0  0  0  0
    4.3238  -21.1220    0.0000 H   0  0  0  0  0  0  0  0  0  0  0  0
    4.1701  -26.4919    0.0000 H   0  0  0  0  0  0  0  0  0  0  0  0
    4.1194  -27.6089    0.0000 H   0  0  0  0  0  0  0  0  0  0  0  0
    4.2392  -28.5736    0.0000 H   0  0  0  0  0  0  0  0  0  0  0  0
    5.2858  -28.9670    0.0000 H   0  0  0  0  0  0  0  0  0  0  0  0
    6.2403  -29.1512    0.0000 H   0  0  0  0  0  0  0  0  0  0  0  0
    6.9379  -28.2774    0.0000 H   0  0  0  0  0  0  0  0  0  0  0  0
    6.8557  -28.3988    0.0000 H   0  0  0  0  0  0  0  0  0  0  0  0
    7.1353  -29.0035    0.0000 H   0  0  0  0  0  0  0  0  0  0  0  0
    8.9277  -27.1640    0.0000 H   0  0  0  0  0  0  0  0  0  0  0  0
    9.4931  -28.0724    0.0000 H   0  0  0  0  0  0  0  0  0  0  0  0
   10.1480  -27.9125    0.0000 H   0  0  0  0  0  0  0  0  0  0  0  0
    9.0507  -29.5167    0.0000 H   0  0  0  0  0  0  0  0  0  0  0  0
    8.6621  -30.2444    0.0000 H   0  0  0  0  0  0  0  0  0  0  0  0
    9.2275  -31.1528    0.0000 H   0  0  0  0  0  0  0  0  0  0  0  0
    9.7105  -31.7650    0.0000 H   0  0  0  0  0  0  0  0  0  0  0  0
   10.9169  -31.0229    0.0000 H   0  0  0  0  0  0  0  0  0  0  0  0
   11.6397  -29.2186    0.0000 H   0  0  0  0  0  0  0  0  0  0  0  0
   13.6631  -29.3639    0.0000 H   0  0  0  0  0  0  0  0  0  0  0  0
   12.0283  -28.4909    0.0000 H   0  0  0  0  0  0  0  0  0  0  0  0
   13.0977  -28.4554    0.0000 H   0  0  0  0  0  0  0  0  0  0  0  0
   13.9293  -29.9317    0.0000 H   0  0  0  0  0  0  0  0  0  0  0  0
   14.0892  -30.4472    0.0000 H   0  0  0  0  0  0  0  0  0  0  0  0
   15.5440  -31.3964    0.0000 H   0  0  0  0  0  0  0  0  0  0  0  0
   15.3969  -30.3365    0.0000 H   0  0  0  0  0  0  0  0  0  0  0  0
   13.5395  -28.8910    0.0000 H   0  0  0  0  0  0  0  0  0  0  0  0
   12.8979  -30.4710    0.0000 H   0  0  0  0  0  0  0  0  0  0  0  0
   13.4852  -33.7971    0.0000 H   0  0  0  0  0  0  0  0  0  0  0  0
   14.2080  -31.9930    0.0000 H   0  0  0  0  0  0  0  0  0  0  0  0
   16.2314  -32.1383    0.0000 H   0  0  0  0  0  0  0  0  0  0  0  0
   15.6661  -31.2299    0.0000 H   0  0  0  0  0  0  0  0  0  0  0  0
   13.6567  -31.5086    0.0000 H   0  0  0  0  0  0  0  0  0  0  0  0
   14.1607  -30.5648    0.0000 H   0  0  0  0  0  0  0  0  0  0  0  0
   16.0836  -31.1994    0.0000 H   0  0  0  0  0  0  0  0  0  0  0  0
   16.1109  -30.3551    0.0000 H   0  0  0  0  0  0  0  0  0  0  0  0
   14.7679  -29.1367    0.0000 H   0  0  0  0  0  0  0  0  0  0  0  0
   15.8277  -28.9898    0.0000 H   0  0  0  0  0  0  0  0  0  0  0  0
   16.8688  -30.6727    0.0000 H   0  0  0  0  0  0  0  0  0  0  0  0
   16.6262  -28.9228    0.0000 H   0  0  0  0  0  0  0  0  0  0  0  0
   16.1322  -31.8853    0.0000 H   0  0  0  0  0  0  0  0  0  0  0  0
   17.2275  -32.1101    0.0000 H   0  0  0  0  0  0  0  0  0  0  0  0
   18.1334  -32.4629    0.0000 H   0  0  0  0  0  0  0  0  0  0  0  0
   18.2580  -33.5741    0.0000 H   0  0  0  0  0  0  0  0  0  0  0  0
   18.2024  -34.5446    0.0000 H   0  0  0  0  0  0  0  0  0  0  0  0
   17.1841  -35.0065    0.0000 H   0  0  0  0  0  0  0  0  0  0  0  0
   17.3219  -34.9567    0.0000 H   0  0  0  0  0  0  0  0  0  0  0  0
   17.8396  -35.3761    0.0000 H   0  0  0  0  0  0  0  0  0  0  0  0
   15.9132  -35.6342    0.0000 H   0  0  0  0  0  0  0  0  0  0  0  0
   15.1123  -35.8324    0.0000 H   0  0  0  0  0  0  0  0  0  0  0  0
   14.8155  -36.8604    0.0000 H   0  0  0  0  0  0  0  0  0  0  0  0
   14.6838  -37.6290    0.0000 H   0  0  0  0  0  0  0  0  0  0  0  0
   16.0426  -38.0289    0.0000 H   0  0  0  0  0  0  0  0  0  0  0  0
   17.8671  -37.3588    0.0000 H   0  0  0  0  0  0  0  0  0  0  0  0
   18.6680  -37.1607    0.0000 H   0  0  0  0  0  0  0  0  0  0  0  0
   19.4099  -37.9317    0.0000 H   0  0  0  0  0  0  0  0  0  0  0  0
   20.3937  -39.2602    0.0000 H   0  0  0  0  0  0  0  0  0  0  0  0
   18.8692  -39.5374    0.0000 H   0  0  0  0  0  0  0  0  0  0  0  0
   18.7234  -40.3096    0.0000 H   0  0  0  0  0  0  0  0  0  0  0  0
   19.2955  -40.9041    0.0000 H   0  0  0  0  0  0  0  0  0  0  0  0
   18.9987  -41.9322    0.0000 H   0  0  0  0  0  0  0  0  0  0  0  0
   18.3402  -43.4485    0.0000 H   0  0  0  0  0  0  0  0  0  0  0  0
   15.7455  -41.7825    0.0000 H   0  0  0  0  0  0  0  0  0  0  0  0
  1  2  1  0  0  0  0
  1113  1  0  0  0  0
  1114  1  0  0  0  0
  1115  1  0  0  0  0
  2116  1  0  0  0  0
  2117  1  0  0  0  0
  3  2  1  0  0  0  0
  3  4  1  0  0  0  0
  3  5  1  0  0  0  0
  3118  1  1  0  0  0
  4119  1  0  0  0  0
  4120  1  0  0  0  0
  4121  1  0  0  0  0
  5  6  1  0  0  0  0
  5 33  1  0  0  0  0
  5122  1  1  0  0  0
  6  7  1  0  0  0  0
  6123  1  0  0  0  0
  7  8  2  0  0  0  0
  9  7  1  0  0  0  0
  9 10  1  0  0  0  0
  9 17  1  0  0  0  0
  9124  1  6  0  0  0
 10 11  1  0  0  0  0
 10125  1  0  0  0  0
 10126  1  0  0  0  0
 11 12  1  0  0  0  0
 11127  1  0  0  0  0
 11128  1  0  0  0  0
 12 13  1  0  0  0  0
 12129  1  0  0  0  0
 12130  1  0  0  0  0
 13 14  1  0  0  0  0
 13131  1  0  0  0  0
 14 15  1  0  0  0  0
 14 16  2  0  0  0  0
 15132  1  0  0  0  0
 15133  1  0  0  0  0
 16134  1  0  0  0  0
 17 18  1  0  0  0  0
 17135  1  0  0  0  0
 18 19  2  0  0  0  0
 20 18  1  0  0  0  0
 20 21  1  0  0  0  0
 20 30  1  0  0  0  0
 20136  1  1  0  0  0
 21 22  1  0  0  0  0
 21137  1  0  0  0  0
 22 23  2  0  0  0  0
 24 22  1  0  0  0  0
 24 25  1  0  0  0  0
 24 26  1  0  0  0  0
 24138  1  1  0  0  0
 25139  1  0  0  0  0
 25140  1  0  0  0  0
 26 27  1  0  0  0  0
 26141  1  0  0  0  0
 26142  1  0  0  0  0
 27 28  1  0  0  0  0
 27143  1  0  0  0  0
 27144  1  0  0  0  0
 28 29  1  0  0  0  0
 29145  1  0  0  0  0
 29146  1  0  0  0  0
 29147  1  0  0  0  0
 30 31  1  0  0  0  0
 30 32  1  0  0  0  0
 30148  1  0  0  0  0
 31149  1  0  0  0  0
 31150  1  0  0  0  0
 31151  1  0  0  0  0
 32152  1  0  0  0  0
 32153  1  0  0  0  0
 32154  1  0  0  0  0
 33 34  2  0  0  0  0
 33 35  1  0  0  0  0
 35155  1  0  0  0  0
 36 35  1  0  0  0  0
 36 37  1  0  0  0  0
 36 42  1  0  0  0  0
 36156  1  6  0  0  0
 37 38  1  0  0  0  0
 37157  1  0  0  0  0
 37158  1  0  0  0  0
 38 39  1  0  0  0  0
 38159  1  0  0  0  0
 38160  1  0  0  0  0
 39 40  1  0  0  0  0
 39161  1  0  0  0  0
 39162  1  0  0  0  0
 40 41  1  0  0  0  0
 40163  1  0  0  0  0
 40164  1  0  0  0  0
 41165  1  0  0  0  0
 41166  1  0  0  0  0
 42 43  2  0  0  0  0
 42 44  1  0  0  0  0
 44 45  1  0  0  0  0
 45 46  1  0  0  0  0
 45167  1  0  0  0  0
 45168  1  0  0  0  0
 46 47  1  0  0  0  0
 46169  1  0  0  0  0
 46170  1  0  0  0  0
 47171  1  0  0  0  0
 47172  1  0  0  0  0
 48 47  1  0  0  0  0
 48 44  1  0  0  0  0
 48 49  1  0  0  0  0
 48173  1  1  0  0  0
 49 50  2  0  0  0  0
 49 51  1  0  0  0  0
 51 52  1  0  0  0  0
 51174  1  0  0  0  0
 52 53  1  0  0  0  0
 52175  1  0  0  0  0
 52176  1  0  0  0  0
 53 54  2  0  0  0  0
 53 55  1  0  0  0  0
 55177  1  0  0  0  0
 56 55  1  0  0  0  0
 56 57  1  0  0  0  0
 56 59  1  0  0  0  0
 56178  1  1  0  0  0
 57 58  1  0  0  0  0
 57179  1  0  0  0  0
 57180  1  0  0  0  0
 58181  1  0  0  0  0
 59 60  2  0  0  0  0
 59 61  1  0  0  0  0
 61182  1  0  0  0  0
 62 61  1  0  0  0  0
 62 63  1  0  0  0  0
 62 64  1  0  0  0  0
 62183  1  6  0  0  0
 63184  1  0  0  0  0
 63185  1  0  0  0  0
 63186  1  0  0  0  0
 64 65  2  0  0  0  0
 64 66  1  0  0  0  0
 66187  1  0  0  0  0
 67 66  1  0  0  0  0
 67 68  1  0  0  0  0
 67 72  1  0  0  0  0
 67188  1  6  0  0  0
 68 69  1  0  0  0  0
 68189  1  0  0  0  0
 68190  1  0  0  0  0
 69 70  1  0  0  0  0
 69 71  2  0  0  0  0
 70191  1  0  0  0  0
 70192  1  0  0  0  0
 72 73  2  0  0  0  0
 72 74  1  0  0  0  0
 74193  1  0  0  0  0
 75 74  1  0  0  0  0
 75 76  1  0  0  0  0
 75 81  1  0  0  0  0
 75194  1  6  0  0  0
 76 77  1  0  0  0  0
 76195  1  0  0  0  0
 76196  1  0  0  0  0
 77 78  1  0  0  0  0
 77197  1  0  0  0  0
 77198  1  0  0  0  0
 78 79  1  0  0  0  0
 78199  1  0  0  0  0
 78200  1  0  0  0  0
 79 80  1  0  0  0  0
 79201  1  0  0  0  0
 79202  1  0  0  0  0
 80203  1  0  0  0  0
 80204  1  0  0  0  0
 81 82  2  0  0  0  0
 81 83  1  0  0  0  0
 83 84  1  0  0  0  0
 84 85  1  0  0  0  0
 84205  1  0  0  0  0
 84206  1  0  0  0  0
 85 86  1  0  0  0  0
 85207  1  0  0  0  0
 85208  1  0  0  0  0
 86209  1  0  0  0  0
 86210  1  0  0  0  0
 87 86  1  0  0  0  0
 87 83  1  0  0  0  0
 87 88  1  0  0  0  0
 87211  1  6  0  0  0
 88 89  2  0  0  0  0
 88 90  1  0  0  0  0
 90212  1  0  0  0  0
 91 90  1  0  0  0  0
 91 92  1  0  0  0  0
 91 94  1  0  0  0  0
 91213  1  1  0  0  0
 92 93  1  0  0  0  0
 92214  1  0  0  0  0
 92215  1  0  0  0  0
 93216  1  0  0  0  0
 94 95  2  0  0  0  0
 94 96  1  0  0  0  0
 96217  1  0  0  0  0
 97 96  1  0  0  0  0
 97 98  1  0  0  0  0
 97102  1  0  0  0  0
 97218  1  6  0  0  0
 98 99  1  0  0  0  0
 98219  1  0  0  0  0
 98220  1  0  0  0  0
 99100  1  0  0  0  0
 99101  2  0  0  0  0
100221  1  0  0  0  0
102103  2  0  0  0  0
102104  1  0  0  0  0
104222  1  0  0  0  0
105104  1  0  0  0  0
105106  1  0  0  0  0
105110  1  0  0  0  0
105223  1  6  0  0  0
106107  1  0  0  0  0
106224  1  0  0  0  0
106225  1  0  0  0  0
107108  1  0  0  0  0
107109  2  0  0  0  0
108226  1  0  0  0  0
110111  1  0  0  0  0
110112  2  0  0  0  0
111227  1  0  0  0  0
M  END
>  <DRUGBANK_ID>
DB16301

>  <COMMON_NAME>
Preimplantation factor

>  <CAS_NUMBER>
485818-40-4

>  <UNII>
3K6A6FJ98O

>  <SYNONYMS>
Synthetic PreImplantation Factor

$$$$
