
 OpenBabel10282417072D

 36 37  0  0  0  0  0  0  0  0999 V2000
    0.4415    0.3254    0.0000 C   0  0  1  0  0  0  0  0  0  0  0  0
    0.8540    1.0399    0.0000 C   0  0  2  0  0  0  0  0  0  0  0  0
    0.4415    1.7543    0.0000 O   0  0  0  0  0  0  0  0  0  0  0  0
    1.6790    1.0399    0.0000 C   0  0  1  0  0  0  0  0  0  0  0  0
    2.0915    1.7543    0.0000 O   0  0  0  0  0  0  0  0  0  0  0  0
    2.0915    0.3254    0.0000 C   0  0  2  0  0  0  0  0  0  0  0  0
    2.9165    0.3254    0.0000 O   0  0  0  0  0  0  0  0  0  0  0  0
    1.6790   -0.3890    0.0000 C   0  0  1  0  0  0  0  0  0  0  0  0
    2.0915   -1.1035    0.0000 C   0  0  0  0  0  0  0  0  0  0  0  0
    1.6790   -1.8179    0.0000 O   0  0  0  0  0  0  0  0  0  0  0  0
    0.8540   -0.3890    0.0000 O   0  0  0  0  0  0  0  0  0  0  0  0
   -0.0433   -0.3419    0.0000 N   0  0  0  0  0  0  0  0  0  0  0  0
   -0.8280   -0.0870    0.0000 C   0  0  0  0  0  0  0  0  0  0  0  0
   -1.4954   -0.5719    0.0000 O   0  0  0  0  0  0  0  0  0  0  0  0
   -0.8280    0.7379    0.0000 N   0  0  0  0  0  0  0  0  0  0  0  0
   -0.0433    0.9928    0.0000 C   0  0  0  0  0  0  0  0  0  0  0  0
   -0.0433    1.8178    0.0000 O   0  0  0  0  0  0  0  0  0  0  0  0
   -1.4954    1.2228    0.0000 N   0  0  0  0  0  0  0  0  0  0  0  0
   -2.2491    0.8873    0.0000 C   0  0  0  0  0  0  0  0  0  0  0  0
   -2.3353    0.0668    0.0000 O   0  0  0  0  0  0  0  0  0  0  0  0
   -2.9165    1.3722    0.0000 C   0  0  0  0  0  0  0  0  0  0  0  0
   -0.2160    1.0399    0.0000 H   0  0  0  0  0  0  0  0  0  0  0  0
    0.9265    2.5944    0.0000 H   0  0  0  0  0  0  0  0  0  0  0  0
    1.1440    1.9666    0.0000 H   0  0  0  0  0  0  0  0  0  0  0  0
    3.0615    1.7543    0.0000 H   0  0  0  0  0  0  0  0  0  0  0  0
    2.6265    1.2520    0.0000 H   0  0  0  0  0  0  0  0  0  0  0  0
    3.4015   -0.5146    0.0000 H   0  0  0  0  0  0  0  0  0  0  0  0
    2.7490   -0.3890    0.0000 H   0  0  0  0  0  0  0  0  0  0  0  0
    3.1615   -1.1035    0.0000 H   0  0  0  0  0  0  0  0  0  0  0  0
    2.6265   -2.0302    0.0000 H   0  0  0  0  0  0  0  0  0  0  0  0
    0.7090   -1.8179    0.0000 H   0  0  0  0  0  0  0  0  0  0  0  0
    0.2610   -1.2782    0.0000 H   0  0  0  0  0  0  0  0  0  0  0  0
   -1.3925    2.2019    0.0000 H   0  0  0  0  0  0  0  0  0  0  0  0
   -2.8046    2.4363    0.0000 H   0  0  0  0  0  0  0  0  0  0  0  0
   -3.8940    0.9370    0.0000 H   0  0  0  0  0  0  0  0  0  0  0  0
   -3.7821    2.0011    0.0000 H   0  0  0  0  0  0  0  0  0  0  0  0
  1  2  1  0  0  0  0
  1 11  1  6  0  0  0
  1 12  1  0  0  0  0
  1 16  1  0  0  0  0
  2  3  1  0  0  0  0
  2  4  1  0  0  0  0
  2 22  1  1  0  0  0
  3 23  1  0  0  0  0
  4  5  1  0  0  0  0
  4  6  1  0  0  0  0
  4 24  1  6  0  0  0
  5 25  1  0  0  0  0
  6  7  1  0  0  0  0
  6  8  1  0  0  0  0
  6 26  1  1  0  0  0
  7 27  1  0  0  0  0
  8  9  1  0  0  0  0
  8 11  1  0  0  0  0
  8 28  1  6  0  0  0
  9 10  1  0  0  0  0
  9 29  1  0  0  0  0
  9 30  1  0  0  0  0
 10 31  1  0  0  0  0
 12 32  1  0  0  0  0
 13 12  1  0  0  0  0
 13 14  2  0  0  0  0
 13 15  1  0  0  0  0
 15 18  1  0  0  0  0
 16 15  1  0  0  0  0
 16 17  2  0  0  0  0
 18 33  1  0  0  0  0
 19 18  1  0  0  0  0
 19 20  2  0  0  0  0
 21 19  1  0  0  0  0
 21 34  1  0  0  0  0
 21 35  1  0  0  0  0
 21 36  1  0  0  0  0
M  END
>  <DRUGBANK_ID>
DB03835

>  <SECONDARY_ACCESSION_NUMBERS>
EXPT01602

>  <COMMON_NAME>
N-[(5S,7R,8S,9S,10R)-8,9,10-Trihydroxy-7-(hydroxymethyl)-2,4-dioxo-6-oxa-1,3-diazaspiro[4.5]dec-3-yl]acetamide

$$$$
