
 OpenBabel10282417072D

 41 43  0  0  0  0  0  0  0  0999 V2000
    0.1067   -1.7116    0.0000 C   0  0  0  0  0  0  0  0  0  0  0  0
    0.1067   -2.5366    0.0000 C   0  0  0  0  0  0  0  0  0  0  0  0
    0.7741   -3.0215    0.0000 C   0  0  0  0  0  0  0  0  0  0  0  0
    0.5192   -3.8062    0.0000 C   0  0  0  0  0  0  0  0  0  0  0  0
   -0.3058   -3.8062    0.0000 O   0  0  0  0  0  0  0  0  0  0  0  0
   -0.5607   -3.0215    0.0000 N   0  0  0  0  0  0  0  0  0  0  0  0
    1.0041   -4.4736    0.0000 C   0  0  0  0  0  0  0  0  0  0  0  0
    0.6686   -5.2273    0.0000 C   0  0  0  0  0  0  0  0  0  0  0  0
    1.1535   -5.8947    0.0000 N   0  0  0  0  0  0  0  0  0  0  0  0
    0.8179   -6.6484    0.0000 C   0  0  0  0  0  0  0  0  0  0  0  0
    1.3029   -7.3158    0.0000 C   0  0  0  0  0  0  0  0  0  0  0  0
    0.9673   -8.0695    0.0000 C   0  0  0  0  0  0  0  0  0  0  0  0
    0.1468   -8.1557    0.0000 C   0  0  0  0  0  0  0  0  0  0  0  0
   -0.1887   -8.9094    0.0000 Cl  0  0  0  0  0  0  0  0  0  0  0  0
   -0.3381   -7.4883    0.0000 C   0  0  0  0  0  0  0  0  0  0  0  0
   -0.0025   -6.7346    0.0000 C   0  0  0  0  0  0  0  0  0  0  0  0
    1.8246   -4.3874    0.0000 C   0  0  0  0  0  0  0  0  0  0  0  0
    2.3095   -5.0548    0.0000 O   0  0  0  0  0  0  0  0  0  0  0  0
    2.1602   -3.6337    0.0000 N   0  0  0  0  0  0  0  0  0  0  0  0
    2.9806   -3.5474    0.0000 C   0  0  0  0  0  0  0  0  0  0  0  0
    3.3162   -2.7938    0.0000 C   0  0  0  0  0  0  0  0  0  0  0  0
    4.1367   -2.7075    0.0000 C   0  0  0  0  0  0  0  0  0  0  0  0
    4.6216   -3.3750    0.0000 C   0  0  0  0  0  0  0  0  0  0  0  0
    5.4421   -3.2887    0.0000 Cl  0  0  0  0  0  0  0  0  0  0  0  0
    4.2861   -4.1286    0.0000 C   0  0  0  0  0  0  0  0  0  0  0  0
    3.4656   -4.2149    0.0000 C   0  0  0  0  0  0  0  0  0  0  0  0
    1.0333   -1.1766    0.0000 H   0  0  0  0  0  0  0  0  0  0  0  0
   -0.8199   -1.1766    0.0000 H   0  0  0  0  0  0  0  0  0  0  0  0
    0.1067   -0.6416    0.0000 H   0  0  0  0  0  0  0  0  0  0  0  0
    1.7556   -2.7026    0.0000 H   0  0  0  0  0  0  0  0  0  0  0  0
   -0.3577   -5.3352    0.0000 H   0  0  0  0  0  0  0  0  0  0  0  0
    2.1326   -5.7918    0.0000 H   0  0  0  0  0  0  0  0  0  0  0  0
    2.3292   -7.2079    0.0000 H   0  0  0  0  0  0  0  0  0  0  0  0
    1.5739   -8.9044    0.0000 H   0  0  0  0  0  0  0  0  0  0  0  0
   -1.3644   -7.5962    0.0000 H   0  0  0  0  0  0  0  0  0  0  0  0
   -0.6091   -5.8997    0.0000 H   0  0  0  0  0  0  0  0  0  0  0  0
    1.5815   -2.8372    0.0000 H   0  0  0  0  0  0  0  0  0  0  0  0
    2.7096   -1.9589    0.0000 H   0  0  0  0  0  0  0  0  0  0  0  0
    4.5564   -1.7647    0.0000 H   0  0  0  0  0  0  0  0  0  0  0  0
    4.8927   -4.9635    0.0000 H   0  0  0  0  0  0  0  0  0  0  0  0
    3.0459   -5.1577    0.0000 H   0  0  0  0  0  0  0  0  0  0  0  0
  1  2  1  0  0  0  0
  1 27  1  0  0  0  0
  1 28  1  0  0  0  0
  1 29  1  0  0  0  0
  2  3  1  0  0  0  0
  2  6  2  0  0  0  0
  3  4  2  0  0  0  0
  3 30  1  0  0  0  0
  4  5  1  0  0  0  0
  4  7  1  0  0  0  0
  5  6  1  0  0  0  0
  7  8  2  0  0  0  0
  7 17  1  0  0  0  0
  8  9  1  0  0  0  0
  8 31  1  0  0  0  0
  9 10  1  0  0  0  0
  9 32  1  0  0  0  0
 10 11  2  0  0  0  0
 10 16  1  0  0  0  0
 11 12  1  0  0  0  0
 11 33  1  0  0  0  0
 12 13  2  0  0  0  0
 12 34  1  0  0  0  0
 13 14  1  0  0  0  0
 13 15  1  0  0  0  0
 15 16  2  0  0  0  0
 15 35  1  0  0  0  0
 16 36  1  0  0  0  0
 17 18  2  0  0  0  0
 17 19  1  0  0  0  0
 19 20  1  0  0  0  0
 19 37  1  0  0  0  0
 20 21  2  0  0  0  0
 20 26  1  0  0  0  0
 21 22  1  0  0  0  0
 21 38  1  0  0  0  0
 22 23  2  0  0  0  0
 22 39  1  0  0  0  0
 23 24  1  0  0  0  0
 23 25  1  0  0  0  0
 25 26  2  0  0  0  0
 25 40  1  0  0  0  0
 26 41  1  0  0  0  0
M  END
>  <DRUGBANK_ID>
DB18707

>  <COMMON_NAME>
AVL-3288

>  <CAS_NUMBER>
917837-54-8

>  <UNII>
VA80VAX4WF

>  <SYNONYMS>
(z)-3-(4-chloroanilino)-n-(4-chlorophenyl)-2-(3-methylisoxazol-5-yl)prop-2-enamide; Anvylic-3288; AVL-3288

$$$$
