
 OpenBabel10282417072D

 30 32  0  0  0  0  0  0  0  0999 V2000
   -0.6899    0.1902    0.0000 C   0  0  0  0  0  0  0  0  0  0  0  0
   -0.6899   -1.4597    0.0000 C   0  0  0  0  0  0  0  0  0  0  0  0
   -1.4044   -1.0472    0.0000 C   0  0  0  0  0  0  0  0  0  0  0  0
    0.0244   -1.0472    0.0000 C   0  0  0  0  0  0  0  0  0  0  0  0
    0.0244   -0.2222    0.0000 C   0  0  0  0  0  0  0  0  0  0  0  0
    0.8090   -1.3022    0.0000 N   0  0  0  0  0  0  0  0  0  0  0  0
    0.4392   -2.6824    0.0000 N   0  0  0  0  0  0  0  0  0  0  0  0
    1.0226   -2.0990    0.0000 C   0  0  0  0  0  0  0  0  0  0  0  0
    1.8195   -2.3126    0.0000 O   0  0  0  0  0  0  0  0  0  0  0  0
   -1.4044   -0.2222    0.0000 C   0  0  0  0  0  0  0  0  0  0  0  0
   -2.1189    0.1902    0.0000 Cl  0  0  0  0  0  0  0  0  0  0  0  0
    1.2939   -0.6347    0.0000 C   0  0  0  0  0  0  0  0  0  0  0  0
    2.1189   -0.6347    0.0000 O   0  0  0  0  0  0  0  0  0  0  0  0
    0.8090    0.0326    0.0000 C   0  0  0  0  0  0  0  0  0  0  0  0
    0.4392    1.4129    0.0000 C   0  0  0  0  0  0  0  0  0  0  0  0
    0.0267    2.6824    0.0000 C   0  0  0  0  0  0  0  0  0  0  0  0
   -0.6406    2.1974    0.0000 C   0  0  0  0  0  0  0  0  0  0  0  0
   -0.3857    1.4129    0.0000 C   0  0  0  0  0  0  0  0  0  0  0  0
    1.0226    0.8295    0.0000 C   0  0  0  0  0  0  0  0  0  0  0  0
    1.8194    1.0430    0.0000 O   0  0  0  0  0  0  0  0  0  0  0  0
    0.6941    2.1974    0.0000 S   0  0  0  0  0  0  0  0  0  0  0  0
   -0.6898    1.2222    0.0000 H   0  0  0  0  0  0  0  0  0  0  0  0
   -0.6898   -2.4917    0.0000 H   0  0  0  0  0  0  0  0  0  0  0  0
   -2.2981   -1.5632    0.0000 H   0  0  0  0  0  0  0  0  0  0  0  0
   -0.5118   -2.4276    0.0000 H   0  0  0  0  0  0  0  0  0  0  0  0
    0.6940   -3.6334    0.0000 H   0  0  0  0  0  0  0  0  0  0  0  0
    0.0267    3.7144    0.0000 H   0  0  0  0  0  0  0  0  0  0  0  0
   -1.6221    2.5162    0.0000 H   0  0  0  0  0  0  0  0  0  0  0  0
   -0.9923    0.5780    0.0000 H   0  0  0  0  0  0  0  0  0  0  0  0
    2.4820    0.3804    0.0000 H   0  0  0  0  0  0  0  0  0  0  0  0
  1  5  1  0  0  0  0
  1 10  2  0  0  0  0
  1 22  1  0  0  0  0
  2  3  2  0  0  0  0
  2 23  1  0  0  0  0
  3 10  1  0  0  0  0
  3 24  1  0  0  0  0
  4  2  1  0  0  0  0
  5  4  2  0  0  0  0
  6  4  1  0  0  0  0
  6  8  1  0  0  0  0
  7 25  1  0  0  0  0
  7 26  1  0  0  0  0
  8  7  1  0  0  0  0
  8  9  2  0  0  0  0
 10 11  1  0  0  0  0
 12  6  1  0  0  0  0
 12 13  2  0  0  0  0
 14  5  1  0  0  0  0
 14 12  1  0  0  0  0
 14 19  2  0  0  0  0
 15 21  1  0  0  0  0
 16 17  2  0  0  0  0
 16 21  1  0  0  0  0
 16 27  1  0  0  0  0
 17 18  1  0  0  0  0
 17 28  1  0  0  0  0
 18 15  2  0  0  0  0
 18 29  1  0  0  0  0
 19 15  1  0  0  0  0
 19 20  1  0  0  0  0
 20 30  1  0  0  0  0
M  END
>  <DRUGBANK_ID>
DB13481

>  <COMMON_NAME>
Tenidap

>  <CAS_NUMBER>
120210-48-2

>  <UNII>
9K7CJ74ONH

>  <SYNONYMS>
Tenidap; Tenidapum

$$$$
