
 OpenBabel10282417072D

 28 31  0  0  0  0  0  0  0  0999 V2000
   -2.3007    0.0552    0.0000 C   0  0  0  0  0  0  0  0  0  0  0  0
   -2.3007   -0.7697    0.0000 C   0  0  0  0  0  0  0  0  0  0  0  0
   -1.5161   -1.0246    0.0000 S   0  0  0  0  0  0  0  0  0  0  0  0
   -1.0312   -0.3572    0.0000 C   0  0  0  0  0  0  0  0  0  0  0  0
   -1.5161    0.3102    0.0000 N   0  0  0  0  0  0  0  0  0  0  0  0
   -0.2062   -0.3572    0.0000 S   0  0  0  0  0  0  0  0  0  0  0  0
    0.2062    0.3572    0.0000 S   0  0  0  0  0  0  0  0  0  0  0  0
    1.0312    0.3572    0.0000 C   0  0  0  0  0  0  0  0  0  0  0  0
    1.5161    1.0246    0.0000 N   0  0  0  0  0  0  0  0  0  0  0  0
    2.3007    0.7697    0.0000 C   0  0  0  0  0  0  0  0  0  0  0  0
    3.0152    1.1822    0.0000 C   0  0  0  0  0  0  0  0  0  0  0  0
    3.7297    0.7697    0.0000 C   0  0  0  0  0  0  0  0  0  0  0  0
    3.7297   -0.0552    0.0000 C   0  0  0  0  0  0  0  0  0  0  0  0
    3.0152   -0.4677    0.0000 C   0  0  0  0  0  0  0  0  0  0  0  0
    2.3007   -0.0552    0.0000 C   0  0  0  0  0  0  0  0  0  0  0  0
    1.5161   -0.3102    0.0000 S   0  0  0  0  0  0  0  0  0  0  0  0
   -3.0152   -1.1822    0.0000 C   0  0  0  0  0  0  0  0  0  0  0  0
   -3.7297   -0.7697    0.0000 C   0  0  0  0  0  0  0  0  0  0  0  0
   -3.7297    0.0552    0.0000 C   0  0  0  0  0  0  0  0  0  0  0  0
   -3.0152    0.4677    0.0000 C   0  0  0  0  0  0  0  0  0  0  0  0
    3.0152    2.2142    0.0000 H   0  0  0  0  0  0  0  0  0  0  0  0
    4.6234    1.2857    0.0000 H   0  0  0  0  0  0  0  0  0  0  0  0
    4.6234   -0.5712    0.0000 H   0  0  0  0  0  0  0  0  0  0  0  0
    3.0152   -1.4997    0.0000 H   0  0  0  0  0  0  0  0  0  0  0  0
   -3.0152   -2.2142    0.0000 H   0  0  0  0  0  0  0  0  0  0  0  0
   -4.6234   -1.2857    0.0000 H   0  0  0  0  0  0  0  0  0  0  0  0
   -4.6234    0.5712    0.0000 H   0  0  0  0  0  0  0  0  0  0  0  0
   -3.0152    1.4997    0.0000 H   0  0  0  0  0  0  0  0  0  0  0  0
  1  2  1  0  0  0  0
  1  5  1  0  0  0  0
  1 20  2  0  0  0  0
  2  3  1  0  0  0  0
  2 17  2  0  0  0  0
  3  4  1  0  0  0  0
  4  5  2  0  0  0  0
  4  6  1  0  0  0  0
  6  7  1  0  0  0  0
  7  8  1  0  0  0  0
  8  9  2  0  0  0  0
  8 16  1  0  0  0  0
  9 10  1  0  0  0  0
 10 11  2  0  0  0  0
 10 15  1  0  0  0  0
 11 12  1  0  0  0  0
 11 21  1  0  0  0  0
 12 13  2  0  0  0  0
 12 22  1  0  0  0  0
 13 14  1  0  0  0  0
 13 23  1  0  0  0  0
 14 15  2  0  0  0  0
 14 24  1  0  0  0  0
 15 16  1  0  0  0  0
 17 18  1  0  0  0  0
 17 25  1  0  0  0  0
 18 19  2  0  0  0  0
 18 26  1  0  0  0  0
 19 20  1  0  0  0  0
 19 27  1  0  0  0  0
 20 28  1  0  0  0  0
M  END
>  <DRUGBANK_ID>
DB14201

>  <COMMON_NAME>
2,2'-Dibenzothiazyl disulfide

>  <CAS_NUMBER>
120-78-5

>  <UNII>
6OK753033Z

>  <SYNONYMS>
2-Benzothiazolyl disulfide; 2-Mercaptobenzothiazole disulfide; 2,2'-Benzothiazyl disulfide; 2,2'-Bis(benzothiazolyl) disulfide; 2,2'-Dithiobisbenzothiazole; Benzothiazole disulfide; Benzothiazolyl disulfide; Bis(2-benzothiazolyl) disulfide; Bis(2-benzothiazyl) disulfide; Bis(benzothiazolyl) disulfide; BTS-SBT; DBTD; di(1,3-benzothiazol-2-yl) disulfide; dibenzothiazol-2-yl disulfide; Dibenzothiazolyl disulfide; Dibenzothiazolyl disulphide; Dibenzothiazyl disulfide; Dibenzoylthiazyl disulfide; Dwusiarczek dwubenzotiazylu; Thiofide

$$$$
