398
 OpenBabel10282417072D

 48 50  0  0  0  0  0  0  0  0999 V2000
    1.6500    3.0938    0.0000 Cl  0  0  0  0  0  0  0  0  0  0  0  0
    2.2540    3.9188    0.0000 F   0  0  0  0  0  0  0  0  0  0  0  0
    3.9041    3.9188    0.0000 F   0  0  0  0  0  0  0  0  0  0  0  0
    3.0791    4.7439    0.0000 F   0  0  0  0  0  0  0  0  0  0  0  0
    5.2224   -3.0938    0.0000 O   0  0  0  0  0  0  0  0  0  0  0  0
    3.7935    0.2063    0.0000 O   0  0  0  0  0  0  0  0  0  0  0  0
    8.0804   -2.2688    0.0000 O   0  0  0  0  0  0  0  0  0  0  0  0
    4.5080    1.4438    0.0000 N   0  0  0  0  0  0  0  0  0  0  0  0
    5.2224    0.2063    0.0000 N   0  0  0  0  0  0  0  0  0  0  0  0
    7.3659   -4.3313    0.0000 N   0  0  0  0  0  0  0  0  0  0  0  0
    8.7949   -3.5063    0.0000 N   0  0  0  0  0  0  0  0  0  0  0  0
    3.7935    1.8563    0.0000 C   0  0  0  0  0  0  0  0  0  0  0  0
    3.0791    3.0938    0.0000 C   0  0  0  0  0  0  0  0  0  0  0  0
    3.7935    2.6813    0.0000 C   0  0  0  0  0  0  0  0  0  0  0  0
    5.2224   -0.6188    0.0000 C   0  0  0  0  0  0  0  0  0  0  0  0
    3.0791    1.4438    0.0000 C   0  0  0  0  0  0  0  0  0  0  0  0
    5.2224   -2.2688    0.0000 C   0  0  0  0  0  0  0  0  0  0  0  0
    2.3645    2.6813    0.0000 C   0  0  0  0  0  0  0  0  0  0  0  0
    5.9370   -1.0313    0.0000 C   0  0  0  0  0  0  0  0  0  0  0  0
    4.5080   -1.0313    0.0000 C   0  0  0  0  0  0  0  0  0  0  0  0
    2.3645    1.8563    0.0000 C   0  0  0  0  0  0  0  0  0  0  0  0
    5.9370   -1.8563    0.0000 C   0  0  0  0  0  0  0  0  0  0  0  0
    4.5080   -1.8563    0.0000 C   0  0  0  0  0  0  0  0  0  0  0  0
    4.5080    0.6188    0.0000 C   0  0  0  0  0  0  0  0  0  0  0  0
    3.0791    3.9188    0.0000 C   0  0  0  0  0  0  0  0  0  0  0  0
    5.9370   -3.5063    0.0000 C   0  0  0  0  0  0  0  0  0  0  0  0
    6.6515   -3.0938    0.0000 C   0  0  0  0  0  0  0  0  0  0  0  0
    7.3659   -3.5063    0.0000 C   0  0  0  0  0  0  0  0  0  0  0  0
    5.9370   -4.3313    0.0000 C   0  0  0  0  0  0  0  0  0  0  0  0
    6.6515   -4.7439    0.0000 C   0  0  0  0  0  0  0  0  0  0  0  0
    8.0804   -3.0938    0.0000 C   0  0  0  0  0  0  0  0  0  0  0  0
    9.5094   -3.0938    0.0000 C   0  0  0  0  0  0  0  0  0  0  0  0
    5.3606    1.9361    0.0000 H   0  0  0  0  0  0  0  0  0  0  0  0
    6.0750    0.6985    0.0000 H   0  0  0  0  0  0  0  0  0  0  0  0
    8.7949   -4.4908    0.0000 H   0  0  0  0  0  0  0  0  0  0  0  0
    4.6872    3.1973    0.0000 H   0  0  0  0  0  0  0  0  0  0  0  0
    3.0792    0.4118    0.0000 H   0  0  0  0  0  0  0  0  0  0  0  0
    6.8307   -0.5153    0.0000 H   0  0  0  0  0  0  0  0  0  0  0  0
    3.6143   -0.5153    0.0000 H   0  0  0  0  0  0  0  0  0  0  0  0
    1.4708    1.3403    0.0000 H   0  0  0  0  0  0  0  0  0  0  0  0
    6.8307   -2.3723    0.0000 H   0  0  0  0  0  0  0  0  0  0  0  0
    3.6143   -2.3723    0.0000 H   0  0  0  0  0  0  0  0  0  0  0  0
    6.6515   -2.0618    0.0000 H   0  0  0  0  0  0  0  0  0  0  0  0
    5.0432   -4.8473    0.0000 H   0  0  0  0  0  0  0  0  0  0  0  0
    6.6515   -5.7759    0.0000 H   0  0  0  0  0  0  0  0  0  0  0  0
   10.4360   -3.6288    0.0000 H   0  0  0  0  0  0  0  0  0  0  0  0
    9.5094   -2.0238    0.0000 H   0  0  0  0  0  0  0  0  0  0  0  0
   10.4361   -2.5588    0.0000 H   0  0  0  0  0  0  0  0  0  0  0  0
  1 18  1  0  0  0  0
  2 25  1  0  0  0  0
  3 25  1  0  0  0  0
  4 25  1  0  0  0  0
  5 17  1  0  0  0  0
  5 26  1  0  0  0  0
  6 24  2  0  0  0  0
  7 31  2  0  0  0  0
  8 12  1  0  0  0  0
  8 24  1  0  0  0  0
  8 33  1  0  0  0  0
  9 15  1  0  0  0  0
  9 24  1  0  0  0  0
  9 34  1  0  0  0  0
 10 28  2  0  0  0  0
 10 30  1  0  0  0  0
 11 31  1  0  0  0  0
 11 32  1  0  0  0  0
 11 35  1  0  0  0  0
 12 14  2  0  0  0  0
 12 16  1  0  0  0  0
 13 14  1  0  0  0  0
 13 18  2  0  0  0  0
 13 25  1  0  0  0  0
 14 36  1  0  0  0  0
 15 19  2  0  0  0  0
 15 20  1  0  0  0  0
 16 21  2  0  0  0  0
 16 37  1  0  0  0  0
 17 22  2  0  0  0  0
 17 23  1  0  0  0  0
 18 21  1  0  0  0  0
 19 22  1  0  0  0  0
 19 38  1  0  0  0  0
 20 23  2  0  0  0  0
 20 39  1  0  0  0  0
 21 40  1  0  0  0  0
 22 41  1  0  0  0  0
 23 42  1  0  0  0  0
 26 27  2  0  0  0  0
 26 29  1  0  0  0  0
 27 28  1  0  0  0  0
 27 43  1  0  0  0  0
 28 31  1  0  0  0  0
 29 30  2  0  0  0  0
 29 44  1  0  0  0  0
 30 45  1  0  0  0  0
 32 46  1  0  0  0  0
 32 47  1  0  0  0  0
 32 48  1  0  0  0  0
M  END
>  <DRUGBANK_ID>
DB00398

>  <SECONDARY_ACCESSION_NUMBERS>
APRD01304; DB07438

>  <COMMON_NAME>
Sorafenib

>  <CAS_NUMBER>
284461-73-0

>  <UNII>
9ZOQ3TZI87

>  <SYNONYMS>
4-(4-((((4-Chloro-3-(trifluoromethyl)phenyl)amino)carbonyl)amino)phenoxy)-N-methyl-2-pyridinecarboxamide; N-(4-Chloro-3-(trifluoromethyl)phenyl)-N'-(4-(2-(N-methylcarbamoyl)-4-pyridyloxy)phenyl)urea; Soraf√©nib; Sorafenib; Sorafenibum

$$$$
