
 OpenBabel10282417072D

 43 45  0  0  0  0  0  0  0  0999 V2000
   -2.4657   -0.7618    0.0000 C   0  0  0  0  0  0  0  0  0  0  0  0
   -1.6407   -0.7614    0.0000 N   0  0  0  0  0  0  0  0  0  0  0  0
   -1.2278   -1.4757    0.0000 C   0  0  0  0  0  0  0  0  0  0  0  0
   -0.4029   -1.4754    0.0000 C   0  0  0  0  0  0  0  0  0  0  0  0
   -0.1058   -0.0776    0.0000 O   0  0  0  0  0  0  0  0  0  0  0  0
   -1.6400   -2.1903    0.0000 C   0  0  0  0  0  0  0  0  0  0  0  0
   -2.4650   -2.1908    0.0000 C   0  0  0  0  0  0  0  0  0  0  0  0
   -2.8771   -2.9055    0.0000 O   0  0  0  0  0  0  0  0  0  0  0  0
   -3.7021   -2.9058    0.0000 C   0  0  0  0  0  0  0  0  0  0  0  0
    0.1492   -0.8623    0.0000 S   0  0  2  0  0  0  0  0  0  0  0  0
    1.0341   -0.8605    0.0000 C   0  0  0  0  0  0  0  0  0  0  0  0
    1.5257   -1.5228    0.0000 N   0  0  0  0  0  0  0  0  0  0  0  0
    1.5120   -0.1881    0.0000 N   0  0  0  0  0  0  0  0  0  0  0  0
    2.2993   -0.4350    0.0000 C   0  0  0  0  0  0  0  0  0  0  0  0
    2.3078   -1.2598    0.0000 C   0  0  0  0  0  0  0  0  0  0  0  0
    3.0095   -0.0151    0.0000 C   0  0  0  0  0  0  0  0  0  0  0  0
    3.0263   -1.6652    0.0000 C   0  0  0  0  0  0  0  0  0  0  0  0
    3.7281   -0.4204    0.0000 C   0  0  0  0  0  0  0  0  0  0  0  0
    3.7366   -1.2454    0.0000 C   0  0  0  0  0  0  0  0  0  0  0  0
    4.4753   -1.6123    0.0000 O   0  0  0  0  0  0  0  0  0  0  0  0
    5.2573   -1.3494    0.0000 C   0  0  0  0  0  0  0  0  0  0  0  0
   -1.2272   -2.9047    0.0000 C   0  0  0  0  0  0  0  0  0  0  0  0
   -2.8779   -1.4764    0.0000 C   0  0  0  0  0  0  0  0  0  0  0  0
   -3.7005   -1.4135    0.0000 C   0  0  0  0  0  0  0  0  0  0  0  0
   -2.9821    0.1317    0.0000 H   0  0  0  0  0  0  0  0  0  0  0  0
    0.0325   -2.4528    0.0000 H   0  0  0  0  0  0  0  0  0  0  0  0
    0.6539   -1.6427    0.0000 H   0  0  0  0  0  0  0  0  0  0  0  0
   -4.2374   -1.9793    0.0000 H   0  0  0  0  0  0  0  0  0  0  0  0
   -4.2368   -3.8326    0.0000 H   0  0  0  0  0  0  0  0  0  0  0  0
   -4.7721   -2.9062    0.0000 H   0  0  0  0  0  0  0  0  0  0  0  0
    1.1981    0.7450    0.0000 H   0  0  0  0  0  0  0  0  0  0  0  0
    2.9990    1.0168    0.0000 H   0  0  0  0  0  0  0  0  0  0  0  0
    3.0367   -2.6971    0.0000 H   0  0  0  0  0  0  0  0  0  0  0  0
    4.6165    0.1047    0.0000 H   0  0  0  0  0  0  0  0  0  0  0  0
    6.0597   -2.0573    0.0000 H   0  0  0  0  0  0  0  0  0  0  0  0
    5.4691   -0.3006    0.0000 H   0  0  0  0  0  0  0  0  0  0  0  0
    6.2715   -1.0084    0.0000 H   0  0  0  0  0  0  0  0  0  0  0  0
   -1.7619   -3.8315    0.0000 H   0  0  0  0  0  0  0  0  0  0  0  0
   -0.1572   -2.9043    0.0000 H   0  0  0  0  0  0  0  0  0  0  0  0
   -0.6919   -3.8312    0.0000 H   0  0  0  0  0  0  0  0  0  0  0  0
   -4.1633   -0.4488    0.0000 H   0  0  0  0  0  0  0  0  0  0  0  0
   -4.3046   -2.2967    0.0000 H   0  0  0  0  0  0  0  0  0  0  0  0
   -4.7674   -1.3319    0.0000 H   0  0  0  0  0  0  0  0  0  0  0  0
  1 23  2  0  0  0  0
  1  2  1  0  0  0  0
  1 25  1  0  0  0  0
  3  2  2  0  0  0  0
  3  4  1  0  0  0  0
  4 26  1  0  0  0  0
  4 27  1  0  0  0  0
  6  3  1  0  0  0  0
  6 22  1  0  0  0  0
  7  6  2  0  0  0  0
  7  8  1  0  0  0  0
  8  9  1  0  0  0  0
  9 28  1  0  0  0  0
  9 29  1  0  0  0  0
  9 30  1  0  0  0  0
 10  5  2  6  0  0  0
 10 11  1  0  0  0  0
 10  4  1  0  0  0  0
 11 12  2  0  0  0  0
 12 15  1  0  0  0  0
 13 11  1  0  0  0  0
 13 14  1  0  0  0  0
 13 31  1  0  0  0  0
 14 15  2  0  0  0  0
 15 17  1  0  0  0  0
 16 14  1  0  0  0  0
 16 18  2  0  0  0  0
 16 32  1  0  0  0  0
 17 19  2  0  0  0  0
 17 33  1  0  0  0  0
 18 34  1  0  0  0  0
 19 18  1  0  0  0  0
 19 20  1  0  0  0  0
 20 21  1  0  0  0  0
 21 35  1  0  0  0  0
 21 36  1  0  0  0  0
 21 37  1  0  0  0  0
 22 38  1  0  0  0  0
 22 39  1  0  0  0  0
 22 40  1  0  0  0  0
 23  7  1  0  0  0  0
 23 24  1  0  0  0  0
 24 41  1  0  0  0  0
 24 42  1  0  0  0  0
 24 43  1  0  0  0  0
M  END
>  <DRUGBANK_ID>
DB00736

>  <SECONDARY_ACCESSION_NUMBERS>
APRD00363

>  <COMMON_NAME>
Esomeprazole

>  <CAS_NUMBER>
119141-88-7

>  <UNII>
N3PA6559FT

>  <SYNONYMS>
(−)-omeprazole; (S)-(−)-omeprazole; (S)-omeprazole; Esomeprazol; Ésoméprazole; Esomeprazole; Esomeprazolum; Omeprazole S-form; Perprazole

$$$$
