
 OpenBabel10282417072D

 65 69  0  0  1  0  0  0  0  0999 V2000
    2.5615   -2.7373    0.0000 H   0  0  0  0  0  0  0  0  0  0  0  0
    2.0297   -3.3680    0.0000 C   0  0  2  0  0  0  0  0  0  0  0  0
    1.3784   -3.8744    0.0000 C   0  0  0  0  0  0  0  0  0  0  0  0
    0.6955   -3.4114    0.0000 C   0  0  0  0  0  0  0  0  0  0  0  0
    0.9249   -2.6189    0.0000 C   0  0  1  0  0  0  0  0  0  0  0  0
    0.9844   -1.7960    0.0000 O   0  0  0  0  0  0  0  0  0  0  0  0
    0.1127   -2.4737    0.0000 C   0  0  0  0  0  0  0  0  0  0  0  0
   -0.0325   -3.2858    0.0000 F   0  0  0  0  0  0  0  0  0  0  0  0
    0.2580   -1.6616    0.0000 F   0  0  0  0  0  0  0  0  0  0  0  0
   -0.6994   -2.3285    0.0000 C   0  0  0  0  0  0  0  0  0  0  0  0
   -1.5115   -2.1832    0.0000 F   0  0  0  0  0  0  0  0  0  0  0  0
   -0.8446   -3.1406    0.0000 F   0  0  0  0  0  0  0  0  0  0  0  0
   -0.5542   -1.5163    0.0000 F   0  0  0  0  0  0  0  0  0  0  0  0
    1.7494   -2.5921    0.0000 C   0  0  2  0  0  0  0  0  0  0  0  0
    1.3895   -1.8497    0.0000 C   0  0  0  0  0  0  0  0  0  0  0  0
    2.2812   -1.9614    0.0000 C   0  0  0  0  0  0  0  0  0  0  0  0
    3.0934   -2.1066    0.0000 C   0  0  2  0  0  0  0  0  0  0  0  0
    3.6252   -1.4759    0.0000 C   0  0  0  0  0  0  0  0  0  0  0  0
    3.3449   -0.7000    0.0000 C   0  0  0  0  0  0  0  0  0  0  0  0
    3.8767   -0.0692    0.0000 C   0  0  0  0  0  0  0  0  0  0  0  0
    4.6888   -0.2145    0.0000 C   0  0  0  0  0  0  0  0  0  0  0  0
    4.9691   -0.9904    0.0000 C   0  0  0  0  0  0  0  0  0  0  0  0
    4.4373   -1.6211    0.0000 C   0  0  0  0  0  0  0  0  0  0  0  0
    5.2206    0.4162    0.0000 C   0  0  0  0  0  0  0  0  0  0  0  0
    4.9403    1.1922    0.0000 C   0  0  0  0  0  0  0  0  0  0  0  0
    6.0328    0.2710    0.0000 O   0  0  0  0  0  0  0  0  0  0  0  0
    3.3737   -2.8825    0.0000 C   0  0  0  0  0  0  0  0  0  0  0  0
    4.1858   -3.0277    0.0000 C   0  0  0  0  0  0  0  0  0  0  0  0
    4.7176   -2.3970    0.0000 C   0  0  0  0  0  0  0  0  0  0  0  0
    5.5297   -2.5422    0.0000 C   0  0  0  0  0  0  0  0  0  0  0  0
    5.8100   -3.3182    0.0000 C   0  0  0  0  0  0  0  0  0  0  0  0
    6.6221   -3.4634    0.0000 O   0  0  0  0  0  0  0  0  0  0  0  0
    5.2782   -3.9489    0.0000 C   0  0  0  0  0  0  0  0  0  0  0  0
    4.4661   -3.8037    0.0000 C   0  0  0  0  0  0  0  0  0  0  0  0
    3.9343   -4.4344    0.0000 C   0  0  0  0  0  0  0  0  0  0  0  0
    3.1221   -4.2891    0.0000 C   0  0  0  0  0  0  0  0  0  0  0  0
    2.8418   -3.5132    0.0000 C   0  0  1  0  0  0  0  0  0  0  0  0
    2.3100   -4.1439    0.0000 H   0  0  0  0  0  0  0  0  0  0  0  0
    1.4132   -4.9438    0.0000 H   0  0  0  0  0  0  0  0  0  0  0  0
    0.4413   -4.3909    0.0000 H   0  0  0  0  0  0  0  0  0  0  0  0
   -0.3109   -3.7749    0.0000 H   0  0  0  0  0  0  0  0  0  0  0  0
   -0.0852   -2.6797    0.0000 H   0  0  0  0  0  0  0  0  0  0  0  0
    1.8572   -1.3728    0.0000 H   0  0  0  0  0  0  0  0  0  0  0  0
    1.9900   -0.9641    0.0000 H   0  0  0  0  0  0  0  0  0  0  0  0
    0.3223   -1.7725    0.0000 H   0  0  0  0  0  0  0  0  0  0  0  0
    0.9227   -0.8869    0.0000 H   0  0  0  0  0  0  0  0  0  0  0  0
    1.9176   -0.9551    0.0000 H   0  0  0  0  0  0  0  0  0  0  0  0
    2.9709   -1.1434    0.0000 H   0  0  0  0  0  0  0  0  0  0  0  0
    2.7298   -1.1003    0.0000 H   0  0  0  0  0  0  0  0  0  0  0  0
    2.3290   -0.5184    0.0000 H   0  0  0  0  0  0  0  0  0  0  0  0
    3.5261    0.9014    0.0000 H   0  0  0  0  0  0  0  0  0  0  0  0
    5.9850   -1.1720    0.0000 H   0  0  0  0  0  0  0  0  0  0  0  0
    4.7879   -2.5917    0.0000 H   0  0  0  0  0  0  0  0  0  0  0  0
    5.6301    2.0102    0.0000 H   0  0  0  0  0  0  0  0  0  0  0  0
    3.8870    1.3806    0.0000 H   0  0  0  0  0  0  0  0  0  0  0  0
    4.5768    2.1986    0.0000 H   0  0  0  0  0  0  0  0  0  0  0  0
    4.3540   -1.3907    0.0000 H   0  0  0  0  0  0  0  0  0  0  0  0
    5.4073   -1.5790    0.0000 H   0  0  0  0  0  0  0  0  0  0  0  0
    6.2195   -1.7242    0.0000 H   0  0  0  0  0  0  0  0  0  0  0  0
    6.5830   -2.7306    0.0000 H   0  0  0  0  0  0  0  0  0  0  0  0
    5.6288   -4.9195    0.0000 H   0  0  0  0  0  0  0  0  0  0  0  0
    4.2978   -5.4408    0.0000 H   0  0  0  0  0  0  0  0  0  0  0  0
    3.2445   -5.2524    0.0000 H   0  0  0  0  0  0  0  0  0  0  0  0
    2.4323   -5.1071    0.0000 H   0  0  0  0  0  0  0  0  0  0  0  0
    2.0688   -4.1007    0.0000 H   0  0  0  0  0  0  0  0  0  0  0  0
  2  1  1  1  0  0  0
  2  3  1  0  0  0  0
  2 14  1  0  0  0  0
  2 37  1  0  0  0  0
  3  4  1  0  0  0  0
  3 39  1  0  0  0  0
  3 40  1  0  0  0  0
  4 41  1  0  0  0  0
  4 42  1  0  0  0  0
  5  4  1  0  0  0  0
  5  6  1  6  0  0  0
  5  7  1  0  0  0  0
  6 43  1  0  0  0  0
  7  8  1  0  0  0  0
  7  9  1  0  0  0  0
  7 10  1  0  0  0  0
 10 11  1  0  0  0  0
 10 12  1  0  0  0  0
 10 13  1  0  0  0  0
 14  5  1  0  0  0  0
 14 15  1  6  0  0  0
 14 16  1  0  0  0  0
 15 44  1  0  0  0  0
 15 45  1  0  0  0  0
 15 46  1  0  0  0  0
 16 47  1  0  0  0  0
 16 48  1  0  0  0  0
 17 16  1  0  0  0  0
 17 18  1  0  0  0  0
 17 27  1  0  0  0  0
 17 49  1  1  0  0  0
 18 19  2  0  0  0  0
 18 23  1  0  0  0  0
 19 20  1  0  0  0  0
 19 50  1  0  0  0  0
 20 21  2  0  0  0  0
 20 51  1  0  0  0  0
 21 22  1  0  0  0  0
 21 24  1  0  0  0  0
 22 23  2  0  0  0  0
 22 52  1  0  0  0  0
 23 53  1  0  0  0  0
 24 25  1  0  0  0  0
 24 26  2  0  0  0  0
 25 54  1  0  0  0  0
 25 55  1  0  0  0  0
 25 56  1  0  0  0  0
 27 28  2  0  0  0  0
 28 29  1  0  0  0  0
 28 34  1  0  0  0  0
 29 30  1  0  0  0  0
 29 57  1  0  0  0  0
 29 58  1  0  0  0  0
 30 31  1  0  0  0  0
 30 59  1  0  0  0  0
 30 60  1  0  0  0  0
 31 32  2  0  0  0  0
 31 33  1  0  0  0  0
 33 34  2  0  0  0  0
 33 61  1  0  0  0  0
 34 35  1  0  0  0  0
 35 36  1  0  0  0  0
 35 62  1  0  0  0  0
 35 63  1  0  0  0  0
 36 64  1  0  0  0  0
 36 65  1  0  0  0  0
 37 36  1  0  0  0  0
 37 27  1  0  0  0  0
 37 38  1  6  0  0  0
M  END
>  <DRUGBANK_ID>
DB16221

>  <COMMON_NAME>
Lonaprisan

>  <CAS_NUMBER>
211254-73-8

>  <UNII>
F5Z5EL4D26

>  <SYNONYMS>
Lonaprisan

$$$$
