1466
 OpenBabel10282417072D

 46 50  0  0  1  0  0  0  0  0999 V2000
    2.6868   -0.3359    0.0000 O   0  0  0  0  0  0  0  0  0  0  0  0
    2.4860   -2.4654    0.0000 O   0  0  0  0  0  0  0  0  0  0  0  0
    2.4860    1.7020    0.0000 O   0  0  0  0  0  0  0  0  0  0  0  0
    6.0951   -1.2067    0.0000 N   0  0  0  0  0  0  0  0  0  0  0  0
    3.9517   -0.7941    0.0000 C   0  0  1  0  0  0  0  0  0  0  0  0
    4.6662   -1.2067    0.0000 C   0  0  2  0  0  0  0  0  0  0  0  0
    5.3806   -0.7941    0.0000 C   0  0  1  0  0  0  0  0  0  0  0  0
    3.2372   -1.2067    0.0000 C   0  0  2  0  0  0  0  0  0  0  0  0
    4.4284   -0.1892    0.0000 C   0  0  0  0  0  0  0  0  0  0  0  0
    3.9517    0.0308    0.0000 C   0  0  0  0  0  0  0  0  0  0  0  0
    5.3806    0.0308    0.0000 C   0  0  0  0  0  0  0  0  0  0  0  0
    5.6017   -0.1892    0.0000 C   0  0  0  0  0  0  0  0  0  0  0  0
    4.6662    0.4433    0.0000 C   0  0  0  0  0  0  0  0  0  0  0  0
    3.2372   -2.0317    0.0000 C   0  0  2  0  0  0  0  0  0  0  0  0
    4.6662   -2.0317    0.0000 C   0  0  0  0  0  0  0  0  0  0  0  0
    3.2372    0.4433    0.0000 C   0  0  0  0  0  0  0  0  0  0  0  0
    3.9517   -2.4441    0.0000 C   0  0  0  0  0  0  0  0  0  0  0  0
    4.6662    1.2683    0.0000 C   0  0  0  0  0  0  0  0  0  0  0  0
    6.6859   -1.8417    0.0000 C   0  0  0  0  0  0  0  0  0  0  0  0
    3.2372    1.2683    0.0000 C   0  0  0  0  0  0  0  0  0  0  0  0
    3.9517    1.6808    0.0000 C   0  0  0  0  0  0  0  0  0  0  0  0
    2.4860    2.5694    0.0000 C   0  0  0  0  0  0  0  0  0  0  0  0
    1.7348    3.0032    0.0000 C   0  0  0  0  0  0  0  0  0  0  0  0
    5.1122   -1.7382    0.0000 H   0  0  0  0  0  0  0  0  0  0  0  0
    5.6185   -1.4461    0.0000 H   0  0  0  0  0  0  0  0  0  0  0  0
    2.5707   -1.3997    0.0000 H   0  0  0  0  0  0  0  0  0  0  0  0
    1.6460   -1.9804    0.0000 H   0  0  0  0  0  0  0  0  0  0  0  0
    3.9614    0.7735    0.0000 H   0  0  0  0  0  0  0  0  0  0  0  0
    4.9964    0.7176    0.0000 H   0  0  0  0  0  0  0  0  0  0  0  0
    6.3073    0.5658    0.0000 H   0  0  0  0  0  0  0  0  0  0  0  0
    5.3806    1.1008    0.0000 H   0  0  0  0  0  0  0  0  0  0  0  0
    6.1697    0.7176    0.0000 H   0  0  0  0  0  0  0  0  0  0  0  0
    5.0835    0.7469    0.0000 H   0  0  0  0  0  0  0  0  0  0  0  0
    2.3106   -1.4967    0.0000 H   0  0  0  0  0  0  0  0  0  0  0  0
    5.5599   -2.5478    0.0000 H   0  0  0  0  0  0  0  0  0  0  0  0
    3.9517   -3.4761    0.0000 H   0  0  0  0  0  0  0  0  0  0  0  0
    5.5599    1.7843    0.0000 H   0  0  0  0  0  0  0  0  0  0  0  0
    6.3719   -2.8646    0.0000 H   0  0  0  0  0  0  0  0  0  0  0  0
    7.7287   -1.6022    0.0000 H   0  0  0  0  0  0  0  0  0  0  0  0
    7.4147   -2.6251    0.0000 H   0  0  0  0  0  0  0  0  0  0  0  0
    3.9517    2.7128    0.0000 H   0  0  0  0  0  0  0  0  0  0  0  0
    3.4127    3.1044    0.0000 H   0  0  0  0  0  0  0  0  0  0  0  0
    2.4861    3.6394    0.0000 H   0  0  0  0  0  0  0  0  0  0  0  0
    1.7349    4.0732    0.0000 H   0  0  0  0  0  0  0  0  0  0  0  0
    0.8081    2.4683    0.0000 H   0  0  0  0  0  0  0  0  0  0  0  0
    0.8082    3.5383    0.0000 H   0  0  0  0  0  0  0  0  0  0  0  0
  1  8  1  0  0  0  0
  1 16  1  0  0  0  0
  2 27  1  0  0  0  0
  3 20  1  0  0  0  0
  3 22  1  0  0  0  0
  4  7  1  0  0  0  0
  4 12  1  0  0  0  0
  4 19  1  0  0  0  0
  5  6  1  0  0  0  0
  5  8  1  0  0  0  0
  5  9  1  0  0  0  0
  5 10  1  6  0  0  0
  6  7  1  0  0  0  0
  6 15  1  0  0  0  0
  6 24  1  1  0  0  0
  7 11  1  0  0  0  0
  7 25  1  6  0  0  0
  8 14  1  0  0  0  0
  8 26  1  1  0  0  0
  9 12  1  0  0  0  0
  9 28  1  0  0  0  0
  9 29  1  0  0  0  0
 10 13  2  0  0  0  0
 10 16  1  0  0  0  0
 11 13  1  0  0  0  0
 11 30  1  0  0  0  0
 11 31  1  0  0  0  0
 12 32  1  0  0  0  0
 12 33  1  0  0  0  0
 13 18  1  0  0  0  0
 14  2  1  0  0  0  0
 14 17  1  0  0  0  0
 14 34  1  1  0  0  0
 15 17  2  0  0  0  0
 15 35  1  0  0  0  0
 16 20  2  0  0  0  0
 17 36  1  0  0  0  0
 18 21  2  0  0  0  0
 18 37  1  0  0  0  0
 19 38  1  0  0  0  0
 19 39  1  0  0  0  0
 19 40  1  0  0  0  0
 20 21  1  0  0  0  0
 21 41  1  0  0  0  0
 22 23  1  0  0  0  0
 22 42  1  0  0  0  0
 22 43  1  0  0  0  0
 23 44  1  0  0  0  0
 23 45  1  0  0  0  0
 23 46  1  0  0  0  0
M  END
>  <DRUGBANK_ID>
DB01466

>  <COMMON_NAME>
Ethylmorphine

>  <CAS_NUMBER>
76-58-4

>  <UNII>
RWO67D87EU

>  <SYNONYMS>
3-ethoxymorphine; 3-O-Ethylmorphine; Dionine; Ethylmorphine

$$$$
