
 OpenBabel10282417072D

 31 29  0  0  0  0  0  0  0  0999 V2000
   -3.3036   -1.0164    0.0000 C   0  0  0  0  0  0  0  0  0  0  0  0
   -0.4161    1.1269    0.0000 C   0  0  0  0  0  0  0  0  0  0  0  0
   -0.1141    0.0000    0.0000 C   0  0  0  0  0  0  0  0  0  0  0  0
   -1.5431    0.8250    0.0000 C   0  0  0  0  0  0  0  0  0  0  0  0
   -2.0661   -1.1269    0.0000 C   0  0  0  0  0  0  0  0  0  0  0  0
   -2.0661    0.5230    0.0000 C   0  0  0  0  0  0  0  0  0  0  0  0
   -2.8911   -0.3019    0.0000 O   0  0  0  0  0  0  0  0  0  0  0  0
   -1.2411   -0.3019    0.0000 O   0  0  0  0  0  0  0  0  0  0  0  0
   -0.8286    0.4125    0.0000 Si  0  0  0  0  0  0  0  0  0  0  0  0
   -2.0661   -0.3019    0.0000 Si  0  0  0  0  0  0  0  0  0  0  0  0
    1.6536   -0.0161    0.0000 O   0  0  0  0  0  0  0  0  0  0  0  0
    3.3036   -0.0161    0.0000 O   0  0  0  0  0  0  0  0  0  0  0  0
    2.4786   -0.0161    0.0000 Si  0  0  0  0  0  0  0  0  0  0  0  0
   -4.3736   -1.0164    0.0000 H   0  0  0  0  0  0  0  0  0  0  0  0
   -2.7686   -1.9430    0.0000 H   0  0  0  0  0  0  0  0  0  0  0  0
   -3.8386   -1.9431    0.0000 H   0  0  0  0  0  0  0  0  0  0  0  0
    0.6539    1.1269    0.0000 H   0  0  0  0  0  0  0  0  0  0  0  0
   -0.9511    2.0536    0.0000 H   0  0  0  0  0  0  0  0  0  0  0  0
    0.1189    2.0535    0.0000 H   0  0  0  0  0  0  0  0  0  0  0  0
   -0.1141   -1.0700    0.0000 H   0  0  0  0  0  0  0  0  0  0  0  0
    0.8125    0.5350    0.0000 H   0  0  0  0  0  0  0  0  0  0  0  0
    0.8126   -0.5350    0.0000 H   0  0  0  0  0  0  0  0  0  0  0  0
   -1.5431    1.8950    0.0000 H   0  0  0  0  0  0  0  0  0  0  0  0
   -2.4697    0.2900    0.0000 H   0  0  0  0  0  0  0  0  0  0  0  0
   -2.4698    1.3600    0.0000 H   0  0  0  0  0  0  0  0  0  0  0  0
   -2.9927   -1.6619    0.0000 H   0  0  0  0  0  0  0  0  0  0  0  0
   -1.1395   -1.6619    0.0000 H   0  0  0  0  0  0  0  0  0  0  0  0
   -2.0661   -2.1969    0.0000 H   0  0  0  0  0  0  0  0  0  0  0  0
   -1.1395    1.0580    0.0000 H   0  0  0  0  0  0  0  0  0  0  0  0
   -2.9927    1.0580    0.0000 H   0  0  0  0  0  0  0  0  0  0  0  0
   -2.0661    1.5930    0.0000 H   0  0  0  0  0  0  0  0  0  0  0  0
  1 14  1  0  0  0  0
  1 15  1  0  0  0  0
  1 16  1  0  0  0  0
  2 17  1  0  0  0  0
  2 18  1  0  0  0  0
  2 19  1  0  0  0  0
  3 20  1  0  0  0  0
  3 21  1  0  0  0  0
  3 22  1  0  0  0  0
  4 23  1  0  0  0  0
  4 24  1  0  0  0  0
  4 25  1  0  0  0  0
  5 26  1  0  0  0  0
  5 27  1  0  0  0  0
  5 28  1  0  0  0  0
  6 29  1  0  0  0  0
  6 30  1  0  0  0  0
  6 31  1  0  0  0  0
  7  1  1  0  0  0  0
  9  2  1  0  0  0  0
  9  3  1  0  0  0  0
  9  4  1  0  0  0  0
  9  8  1  0  0  0  0
 10  5  1  0  0  0  0
 10  6  1  0  0  0  0
 10  7  1  0  0  0  0
 10  8  1  0  0  0  0
 13 11  2  0  0  0  0
 13 12  2  0  0  0  0
M  END
>  <DRUGBANK_ID>
DB09512

>  <COMMON_NAME>
Simethicone

>  <CAS_NUMBER>
8050-81-5

>  <SYNONYMS>
Simeticona; Simeticone; Sim√©ticone; Simeticonum

$$$$
