1157
 OpenBabel10282417072D

 50 52  0  0  0  0  0  0  0  0999 V2000
    8.5698   -1.9212    0.0000 O   0  0  0  0  0  0  0  0  0  0  0  0
   10.0083    0.5483    0.0000 O   0  0  0  0  0  0  0  0  0  0  0  0
   10.0019   -1.1017    0.0000 O   0  0  0  0  0  0  0  0  0  0  0  0
    7.1504    0.5593    0.0000 N   0  0  0  0  0  0  0  0  0  0  0  0
    3.5220    1.8195    0.0000 N   0  0  0  0  0  0  0  0  0  0  0  0
    2.8075    0.5820    0.0000 N   0  0  0  0  0  0  0  0  0  0  0  0
    3.5220   -0.6556    0.0000 N   0  0  0  0  0  0  0  0  0  0  0  0
    2.0930    1.8195    0.0000 N   0  0  0  0  0  0  0  0  0  0  0  0
    5.7214    0.5648    0.0000 C   0  0  0  0  0  0  0  0  0  0  0  0
    4.9740    0.1408    0.0000 C   0  0  0  0  0  0  0  0  0  0  0  0
    6.4343    0.1496    0.0000 C   0  0  0  0  0  0  0  0  0  0  0  0
    4.2364    0.5820    0.0000 C   0  0  0  0  0  0  0  0  0  0  0  0
    4.2364    1.4070    0.0000 C   0  0  0  0  0  0  0  0  0  0  0  0
    5.7214    1.4241    0.0000 C   0  0  0  0  0  0  0  0  0  0  0  0
    4.9740    1.8481    0.0000 C   0  0  0  0  0  0  0  0  0  0  0  0
    4.9644   -0.6841    0.0000 C   0  0  0  0  0  0  0  0  0  0  0  0
    7.8633    0.1440    0.0000 C   0  0  0  0  0  0  0  0  0  0  0  0
    3.5220    0.1695    0.0000 C   0  0  0  0  0  0  0  0  0  0  0  0
    8.5793    0.5537    0.0000 C   0  0  0  0  0  0  0  0  0  0  0  0
    7.8601   -0.6810    0.0000 C   0  0  0  0  0  0  0  0  0  0  0  0
    8.5730   -1.0963    0.0000 C   0  0  0  0  0  0  0  0  0  0  0  0
    9.2922    0.1385    0.0000 C   0  0  0  0  0  0  0  0  0  0  0  0
    9.2890   -0.6865    0.0000 C   0  0  0  0  0  0  0  0  0  0  0  0
    2.8075    1.4070    0.0000 C   0  0  0  0  0  0  0  0  0  0  0  0
    7.8537   -2.3310    0.0000 C   0  0  0  0  0  0  0  0  0  0  0  0
   10.0115    1.3733    0.0000 C   0  0  0  0  0  0  0  0  0  0  0  0
   10.7180   -0.6920    0.0000 C   0  0  0  0  0  0  0  0  0  0  0  0
    7.1542    1.5438    0.0000 H   0  0  0  0  0  0  0  0  0  0  0  0
    2.6694   -1.1479    0.0000 H   0  0  0  0  0  0  0  0  0  0  0  0
    4.3746   -1.1479    0.0000 H   0  0  0  0  0  0  0  0  0  0  0  0
    2.0930    2.8040    0.0000 H   0  0  0  0  0  0  0  0  0  0  0  0
    1.2404    1.3272    0.0000 H   0  0  0  0  0  0  0  0  0  0  0  0
    6.4302   -0.9204    0.0000 H   0  0  0  0  0  0  0  0  0  0  0  0
    5.5056   -0.3819    0.0000 H   0  0  0  0  0  0  0  0  0  0  0  0
    6.6132    1.9435    0.0000 H   0  0  0  0  0  0  0  0  0  0  0  0
    4.9622    2.8800    0.0000 H   0  0  0  0  0  0  0  0  0  0  0  0
    4.0316   -1.2083    0.0000 H   0  0  0  0  0  0  0  0  0  0  0  0
    5.8848   -1.2298    0.0000 H   0  0  0  0  0  0  0  0  0  0  0  0
    4.9519   -1.7540    0.0000 H   0  0  0  0  0  0  0  0  0  0  0  0
    8.5832    1.5857    0.0000 H   0  0  0  0  0  0  0  0  0  0  0  0
    6.9644   -1.1935    0.0000 H   0  0  0  0  0  0  0  0  0  0  0  0
    6.9291   -1.7925    0.0000 H   0  0  0  0  0  0  0  0  0  0  0  0
    7.8496   -3.4010    0.0000 H   0  0  0  0  0  0  0  0  0  0  0  0
    6.9250   -2.8625    0.0000 H   0  0  0  0  0  0  0  0  0  0  0  0
   10.9402    1.9047    0.0000 H   0  0  0  0  0  0  0  0  0  0  0  0
    9.0869    1.9119    0.0000 H   0  0  0  0  0  0  0  0  0  0  0  0
   10.0157    2.4433    0.0000 H   0  0  0  0  0  0  0  0  0  0  0  0
   11.6425   -1.2306    0.0000 H   0  0  0  0  0  0  0  0  0  0  0  0
   10.7222    0.3780    0.0000 H   0  0  0  0  0  0  0  0  0  0  0  0
   11.6467   -0.1606    0.0000 H   0  0  0  0  0  0  0  0  0  0  0  0
  1 21  1  0  0  0  0
  1 25  1  0  0  0  0
  2 22  1  0  0  0  0
  2 26  1  0  0  0  0
  3 23  1  0  0  0  0
  3 27  1  0  0  0  0
  4 11  1  0  0  0  0
  4 17  1  0  0  0  0
  4 28  1  0  0  0  0
  5 13  1  0  0  0  0
  5 24  2  0  0  0  0
  6 18  2  0  0  0  0
  6 24  1  0  0  0  0
  7 18  1  0  0  0  0
  7 29  1  0  0  0  0
  7 30  1  0  0  0  0
  8 24  1  0  0  0  0
  8 31  1  0  0  0  0
  8 32  1  0  0  0  0
  9 10  2  0  0  0  0
  9 11  1  0  0  0  0
  9 14  1  0  0  0  0
 10 12  1  0  0  0  0
 10 16  1  0  0  0  0
 11 33  1  0  0  0  0
 11 34  1  0  0  0  0
 12 13  2  0  0  0  0
 12 18  1  0  0  0  0
 13 15  1  0  0  0  0
 14 15  2  0  0  0  0
 14 35  1  0  0  0  0
 15 36  1  0  0  0  0
 16 37  1  0  0  0  0
 16 38  1  0  0  0  0
 16 39  1  0  0  0  0
 17 19  2  0  0  0  0
 17 20  1  0  0  0  0
 19 22  1  0  0  0  0
 19 40  1  0  0  0  0
 20 21  2  0  0  0  0
 20 41  1  0  0  0  0
 21 23  1  0  0  0  0
 22 23  2  0  0  0  0
 25 42  1  0  0  0  0
 25 43  1  0  0  0  0
 25 44  1  0  0  0  0
 26 45  1  0  0  0  0
 26 46  1  0  0  0  0
 26 47  1  0  0  0  0
 27 48  1  0  0  0  0
 27 49  1  0  0  0  0
 27 50  1  0  0  0  0
M  END
>  <DRUGBANK_ID>
DB01157

>  <SECONDARY_ACCESSION_NUMBERS>
APRD00268

>  <COMMON_NAME>
Trimetrexate

>  <CAS_NUMBER>
52128-35-5

>  <UNII>
UPN4ITI8T4

>  <SYNONYMS>
Trimetrexate; Trimetrexato; Trimetrexatum

$$$$
