NNB
 OpenBabel10282417072D

 37 39  0  0  0  0  0  0  0  0999 V2000
    2.6547   33.2571    0.0000 C   0  0  0  0  0  0  0  0  0  0  0  0
    1.9402   33.6696    0.0000 C   0  0  0  0  0  0  0  0  0  0  0  0
    1.9402   34.4946    0.0000 C   0  0  0  0  0  0  0  0  0  0  0  0
    1.2258   34.9071    0.0000 Br  0  0  0  0  0  0  0  0  0  0  0  0
    2.6547   34.9071    0.0000 C   0  0  0  0  0  0  0  0  0  0  0  0
    3.3692   34.4946    0.0000 C   0  0  0  0  0  0  0  0  0  0  0  0
    3.3692   33.6696    0.0000 C   0  0  0  0  0  0  0  0  0  0  0  0
    4.0836   33.2571    0.0000 N   0  0  0  0  0  0  0  0  0  0  0  0
    4.7981   33.6696    0.0000 C   0  0  0  0  0  0  0  0  0  0  0  0
    4.7981   34.4946    0.0000 S   0  0  0  0  0  0  0  0  0  0  0  0
    5.5126   33.2571    0.0000 O   0  0  0  0  0  0  0  0  0  0  0  0
    6.2271   33.6696    0.0000 C   0  0  0  0  0  0  0  0  0  0  0  0
    6.9415   33.2571    0.0000 C   0  0  0  0  0  0  0  0  0  0  0  0
    7.6560   33.6696    0.0000 N   0  0  0  0  0  0  0  0  0  0  0  0
    8.4097   33.3340    0.0000 C   0  0  0  0  0  0  0  0  0  0  0  0
    8.5812   32.5271    0.0000 O   0  0  0  0  0  0  0  0  0  0  0  0
    8.9617   33.9471    0.0000 C   0  0  0  0  0  0  0  0  0  0  0  0
    9.7867   33.9471    0.0000 C   0  0  0  0  0  0  0  0  0  0  0  0
   10.1992   34.6616    0.0000 C   0  0  0  0  0  0  0  0  0  0  0  0
    9.7867   35.3761    0.0000 C   0  0  0  0  0  0  0  0  0  0  0  0
    8.9617   35.3761    0.0000 C   0  0  0  0  0  0  0  0  0  0  0  0
    8.5492   34.6616    0.0000 C   0  0  0  0  0  0  0  0  0  0  0  0
    7.7422   34.4901    0.0000 C   0  0  0  0  0  0  0  0  0  0  0  0
    7.1291   35.0421    0.0000 O   0  0  0  0  0  0  0  0  0  0  0  0
    2.6547   32.2251    0.0000 H   0  0  0  0  0  0  0  0  0  0  0  0
    1.0465   33.1536    0.0000 H   0  0  0  0  0  0  0  0  0  0  0  0
    2.6547   35.9391    0.0000 H   0  0  0  0  0  0  0  0  0  0  0  0
    4.2629   35.0106    0.0000 H   0  0  0  0  0  0  0  0  0  0  0  0
    4.0836   32.2726    0.0000 H   0  0  0  0  0  0  0  0  0  0  0  0
    6.2271   34.7396    0.0000 H   0  0  0  0  0  0  0  0  0  0  0  0
    7.1538   34.2046    0.0000 H   0  0  0  0  0  0  0  0  0  0  0  0
    6.9415   32.1871    0.0000 H   0  0  0  0  0  0  0  0  0  0  0  0
    7.8681   32.7221    0.0000 H   0  0  0  0  0  0  0  0  0  0  0  0
   10.3027   33.0534    0.0000 H   0  0  0  0  0  0  0  0  0  0  0  0
   11.2312   34.6616    0.0000 H   0  0  0  0  0  0  0  0  0  0  0  0
   10.3027   36.2698    0.0000 H   0  0  0  0  0  0  0  0  0  0  0  0
    8.4457   36.2698    0.0000 H   0  0  0  0  0  0  0  0  0  0  0  0
  1  2  1  0  0  0  0
  1  7  2  0  0  0  0
  1 25  1  0  0  0  0
  2  3  2  0  0  0  0
  2 26  1  0  0  0  0
  3  4  1  0  0  0  0
  3  5  1  0  0  0  0
  5  6  2  0  0  0  0
  5 27  1  0  0  0  0
  6  7  1  0  0  0  0
  6 28  1  0  0  0  0
  7  8  1  0  0  0  0
  8  9  1  0  0  0  0
  8 29  1  0  0  0  0
  9 10  2  0  0  0  0
  9 11  1  0  0  0  0
 11 12  1  0  0  0  0
 12 13  1  0  0  0  0
 12 30  1  0  0  0  0
 12 31  1  0  0  0  0
 13 14  1  0  0  0  0
 13 32  1  0  0  0  0
 13 33  1  0  0  0  0
 14 23  1  0  0  0  0
 14 15  1  0  0  0  0
 15 16  2  0  0  0  0
 17 15  1  0  0  0  0
 18 17  1  0  0  0  0
 18 34  1  0  0  0  0
 19 18  2  0  0  0  0
 19 35  1  0  0  0  0
 20 19  1  0  0  0  0
 20 36  1  0  0  0  0
 21 20  2  0  0  0  0
 21 37  1  0  0  0  0
 22 21  1  0  0  0  0
 22 17  2  0  0  0  0
 23 24  2  0  0  0  0
 23 22  1  0  0  0  0
M  END
>  <DRUGBANK_ID>
DB08281

>  <COMMON_NAME>
O-[2-(1,3-dioxo-1,3-dihydro-2H-isoindol-2-yl)ethyl] (4-bromophenyl)thiocarbamate

$$$$
