BP3
 OpenBabel10282417072D

 24 25  0  0  0  0  0  0  0  0999 V2000
   -0.3924   -0.2285    0.0000 C   0  0  0  0  0  0  0  0  0  0  0  0
    0.3221   -0.6410    0.0000 C   0  0  0  0  0  0  0  0  0  0  0  0
    1.0366   -0.2285    0.0000 O   0  0  0  0  0  0  0  0  0  0  0  0
    0.3221   -1.4660    0.0000 C   0  0  0  0  0  0  0  0  0  0  0  0
    1.0366   -1.8785    0.0000 O   0  0  0  0  0  0  0  0  0  0  0  0
   -0.3924   -1.8785    0.0000 C   0  0  0  0  0  0  0  0  0  0  0  0
   -1.1069   -1.4660    0.0000 C   0  0  0  0  0  0  0  0  0  0  0  0
   -1.1069   -0.6410    0.0000 C   0  0  0  0  0  0  0  0  0  0  0  0
   -0.3924    0.5965    0.0000 C   0  0  0  0  0  0  0  0  0  0  0  0
   -1.1069    1.0090    0.0000 C   0  0  0  0  0  0  0  0  0  0  0  0
   -1.1069    1.8340    0.0000 C   0  0  0  0  0  0  0  0  0  0  0  0
   -0.3924    2.2465    0.0000 C   0  0  0  0  0  0  0  0  0  0  0  0
    0.3221    1.8340    0.0000 C   0  0  0  0  0  0  0  0  0  0  0  0
    0.3221    1.0090    0.0000 C   0  0  0  0  0  0  0  0  0  0  0  0
   -1.8213    0.5965    0.0000 Cl  0  0  0  0  0  0  0  0  0  0  0  0
    1.8481   -0.6970    0.0000 H   0  0  0  0  0  0  0  0  0  0  0  0
    1.0366   -2.8155    0.0000 H   0  0  0  0  0  0  0  0  0  0  0  0
   -0.3924   -2.9105    0.0000 H   0  0  0  0  0  0  0  0  0  0  0  0
   -2.0006   -1.9820    0.0000 H   0  0  0  0  0  0  0  0  0  0  0  0
   -2.0006   -0.1250    0.0000 H   0  0  0  0  0  0  0  0  0  0  0  0
   -2.0006    2.3500    0.0000 H   0  0  0  0  0  0  0  0  0  0  0  0
   -0.3924    3.2785    0.0000 H   0  0  0  0  0  0  0  0  0  0  0  0
    1.2158    2.3500    0.0000 H   0  0  0  0  0  0  0  0  0  0  0  0
    1.2158    0.4930    0.0000 H   0  0  0  0  0  0  0  0  0  0  0  0
  1  2  2  0  0  0  0
  1  8  1  0  0  0  0
  1  9  1  0  0  0  0
  2  3  1  0  0  0  0
  2  4  1  0  0  0  0
  3 16  1  0  0  0  0
  4  5  1  0  0  0  0
  4  6  2  0  0  0  0
  5 17  1  0  0  0  0
  6  7  1  0  0  0  0
  6 18  1  0  0  0  0
  7  8  2  0  0  0  0
  7 19  1  0  0  0  0
  8 20  1  0  0  0  0
  9 10  2  0  0  0  0
  9 14  1  0  0  0  0
 10 11  1  0  0  0  0
 10 15  1  0  0  0  0
 11 12  2  0  0  0  0
 11 21  1  0  0  0  0
 12 13  1  0  0  0  0
 12 22  1  0  0  0  0
 13 14  2  0  0  0  0
 13 23  1  0  0  0  0
 14 24  1  0  0  0  0
M  END
>  <DRUGBANK_ID>
DB01925

>  <SECONDARY_ACCESSION_NUMBERS>
EXPT00742

>  <COMMON_NAME>
2'-Chloro-Biphenyl-2,3-Diol

>  <UNII>
1L6MBD62DN

$$$$
