
 OpenBabel10282417072D

 56 57  0  0  0  0  0  0  0  0999 V2000
   -1.5307    0.5117    0.0000 C   0  0  0  0  0  0  0  0  0  0  0  0
   -2.1923    0.8838    0.0000 C   0  0  0  0  0  0  0  0  0  0  0  0
   -2.8952    0.5117    0.0000 N   0  0  0  0  0  0  0  0  0  0  0  0
   -2.1923    1.6695    0.0000 O   0  0  0  0  0  0  0  0  0  0  0  0
   -3.5569    0.8838    0.0000 O   0  0  0  0  0  0  0  0  0  0  0  0
   -0.8191    0.9331    0.0000 C   0  0  2  0  0  0  0  0  0  0  0  0
   -0.1016    0.5294    0.0000 C   0  0  0  0  0  0  0  0  0  0  0  0
   -0.7874    1.7931    0.0000 C   0  0  0  0  0  0  0  0  0  0  0  0
   -0.0754    2.2149    0.0000 C   0  0  0  0  0  0  0  0  0  0  0  0
    0.6423    1.8111    0.0000 C   0  0  0  0  0  0  0  0  0  0  0  0
   -0.0847    3.0336    0.0000 C   0  0  0  0  0  0  0  0  0  0  0  0
    0.6152    0.9543    0.0000 N   0  0  0  0  0  0  0  0  0  0  0  0
   -0.0924   -0.3152    0.0000 O   0  0  0  0  0  0  0  0  0  0  0  0
    1.3338    0.5500    0.0000 C   0  0  2  0  0  0  0  0  0  0  0  0
    2.0380    0.9675    0.0000 C   0  0  0  0  0  0  0  0  0  0  0  0
    1.3430   -0.3966    0.0000 C   0  0  0  0  0  0  0  0  0  0  0  0
    2.0793   -0.8108    0.0000 C   0  0  0  0  0  0  0  0  0  0  0  0
    2.3245   -1.5943    0.0000 C   0  0  0  0  0  0  0  0  0  0  0  0
    3.1494   -1.6014    0.0000 C   0  0  0  0  0  0  0  0  0  0  0  0
    3.4111   -0.8190    0.0000 N   0  0  0  0  0  0  0  0  0  0  0  0
    2.7478   -0.3284    0.0000 C   0  0  0  0  0  0  0  0  0  0  0  0
    1.9050   -2.3069    0.0000 C   0  0  0  0  0  0  0  0  0  0  0  0
    2.3123   -3.0266    0.0000 C   0  0  0  0  0  0  0  0  0  0  0  0
    3.1373   -3.0336    0.0000 C   0  0  0  0  0  0  0  0  0  0  0  0
    3.5569   -2.3211    0.0000 C   0  0  0  0  0  0  0  0  0  0  0  0
    2.7498    0.5673    0.0000 N   0  0  0  0  0  0  0  0  0  0  0  0
    2.0285    1.7935    0.0000 O   0  0  0  0  0  0  0  0  0  0  0  0
    3.4692    0.9941    0.0000 C   0  0  0  0  0  0  0  0  0  0  0  0
   -1.5188   -0.5582    0.0000 H   0  0  0  0  0  0  0  0  0  0  0  0
   -0.5982   -0.0130    0.0000 H   0  0  0  0  0  0  0  0  0  0  0  0
   -2.9077   -0.4727    0.0000 H   0  0  0  0  0  0  0  0  0  0  0  0
   -3.5679    1.8537    0.0000 H   0  0  0  0  0  0  0  0  0  0  0  0
   -1.7388    1.4800    0.0000 H   0  0  0  0  0  0  0  0  0  0  0  0
   -1.7071    2.3399    0.0000 H   0  0  0  0  0  0  0  0  0  0  0  0
   -0.7866    2.8631    0.0000 H   0  0  0  0  0  0  0  0  0  0  0  0
    0.8452    2.7603    0.0000 H   0  0  0  0  0  0  0  0  0  0  0  0
    0.6542    0.7412    0.0000 H   0  0  0  0  0  0  0  0  0  0  0  0
    1.5629    2.3564    0.0000 H   0  0  0  0  0  0  0  0  0  0  0  0
    1.5748    1.2864    0.0000 H   0  0  0  0  0  0  0  0  0  0  0  0
    0.8358    3.5791    0.0000 H   0  0  0  0  0  0  0  0  0  0  0  0
   -1.0174    3.5580    0.0000 H   0  0  0  0  0  0  0  0  0  0  0  0
   -0.0969    4.1035    0.0000 H   0  0  0  0  0  0  0  0  0  0  0  0
    0.6041    1.9387    0.0000 H   0  0  0  0  0  0  0  0  0  0  0  0
    0.4128    0.0054    0.0000 H   0  0  0  0  0  0  0  0  0  0  0  0
    0.4220   -0.9413    0.0000 H   0  0  0  0  0  0  0  0  0  0  0  0
    1.3546   -1.4665    0.0000 H   0  0  0  0  0  0  0  0  0  0  0  0
    4.3500   -0.5228    0.0000 H   0  0  0  0  0  0  0  0  0  0  0  0
    2.7539    0.7036    0.0000 H   0  0  0  0  0  0  0  0  0  0  0  0
    0.8730   -2.2981    0.0000 H   0  0  0  0  0  0  0  0  0  0  0  0
    1.7887   -3.9159    0.0000 H   0  0  0  0  0  0  0  0  0  0  0  0
    3.6456   -3.9317    0.0000 H   0  0  0  0  0  0  0  0  0  0  0  0
    4.5889   -2.3299    0.0000 H   0  0  0  0  0  0  0  0  0  0  0  0
    2.7613   -0.4171    0.0000 H   0  0  0  0  0  0  0  0  0  0  0  0
    4.4021    0.4701    0.0000 H   0  0  0  0  0  0  0  0  0  0  0  0
    3.4565    2.0640    0.0000 H   0  0  0  0  0  0  0  0  0  0  0  0
    4.3894    1.5401    0.0000 H   0  0  0  0  0  0  0  0  0  0  0  0
  1  2  1  0  0  0  0
  1  6  1  0  0  0  0
  1 29  1  0  0  0  0
  1 30  1  0  0  0  0
  2  3  1  0  0  0  0
  2  4  2  0  0  0  0
  3  5  1  0  0  0  0
  3 31  1  0  0  0  0
  5 32  1  0  0  0  0
  6  7  1  0  0  0  0
  6  8  1  0  0  0  0
  6 33  1  6  0  0  0
  7 12  1  0  0  0  0
  7 13  2  0  0  0  0
  8  9  1  0  0  0  0
  8 34  1  0  0  0  0
  8 35  1  0  0  0  0
  9 10  1  0  0  0  0
  9 11  1  0  0  0  0
  9 36  1  0  0  0  0
 10 37  1  0  0  0  0
 10 38  1  0  0  0  0
 10 39  1  0  0  0  0
 11 40  1  0  0  0  0
 11 41  1  0  0  0  0
 11 42  1  0  0  0  0
 12 14  1  0  0  0  0
 12 43  1  0  0  0  0
 14 15  1  0  0  0  0
 14 16  1  0  0  0  0
 14 44  1  1  0  0  0
 15 26  1  0  0  0  0
 15 27  2  0  0  0  0
 16 17  1  0  0  0  0
 16 45  1  0  0  0  0
 16 46  1  0  0  0  0
 17 18  1  0  0  0  0
 17 21  2  0  0  0  0
 18 19  1  0  0  0  0
 18 22  2  0  0  0  0
 19 20  1  0  0  0  0
 19 25  2  0  0  0  0
 20 21  1  0  0  0  0
 20 47  1  0  0  0  0
 21 48  1  0  0  0  0
 22 23  1  0  0  0  0
 22 49  1  0  0  0  0
 23 24  2  0  0  0  0
 23 50  1  0  0  0  0
 24 25  1  0  0  0  0
 24 51  1  0  0  0  0
 25 52  1  0  0  0  0
 26 28  1  0  0  0  0
 26 53  1  0  0  0  0
 28 54  1  0  0  0  0
 28 55  1  0  0  0  0
 28 56  1  0  0  0  0
M  END
>  <DRUGBANK_ID>
DB02255

>  <SECONDARY_ACCESSION_NUMBERS>
EXPT01618

>  <COMMON_NAME>
Ilomastat

>  <CAS_NUMBER>
142880-36-2

>  <UNII>
I0403ML141

>  <SYNONYMS>
(R)-N(SUP 1)-HYDROXY-N-((S)-2-INDOL-3-YL-1-(METHYLCARBAMOYL)ETHYL)-2-ISOBUTYLSUCCINAMIDE; (S-(R*,S*))-N(SUP 4)-HYDROXY-N(SUP 1)-(1H-INDOL-3-YLMETHYL)-2-(METHYLAMINO)-2-OXOETHYL)-2-(2-METHYLOPROPYL)BUTANEDIAMIDE; Ilomastat

$$$$
