
 OpenBabel10282417072D

144148  0  0  0  0  0  0  0  0999 V2000
    0.0195   -0.7930    0.0000 C   0  0  2  0  0  0  0  0  0  0  0  0
    0.8394   -0.7978    0.0000 C   0  0  2  0  0  0  0  0  0  0  0  0
    2.9916    0.3587    0.0000 C   0  0  2  0  0  0  0  0  0  0  0  0
   -3.8261   -0.4367    0.0000 C   0  0  2  0  0  0  0  0  0  0  0  0
    3.4162    1.0614    0.0000 C   0  0  1  0  0  0  0  0  0  0  0  0
   -3.4063    0.2513    0.0000 C   0  0  2  0  0  0  0  0  0  0  0  0
   -6.0417   -1.5446    0.0000 C   0  0  1  0  0  0  0  0  0  0  0  0
    4.2262   -0.3634    0.0000 C   0  0  1  0  0  0  0  0  0  0  0  0
    4.6460    0.3294    0.0000 C   0  0  1  0  0  0  0  0  0  0  0  0
    7.6718    0.0219    0.0000 C   0  0  2  0  0  0  0  0  0  0  0  0
   -2.1765   -0.4659    0.0000 C   0  0  2  0  0  0  0  0  0  0  0  0
    0.8345   -2.2375    0.0000 S   0  0  0  0  0  0  0  0  0  0  0  0
    7.6571   -1.4274    0.0000 S   0  0  0  0  0  0  0  0  0  0  0  0
   -6.0516   -2.9744    0.0000 S   0  0  0  0  0  0  0  0  0  0  0  0
    1.2639   -0.0951    0.0000 C   0  0  1  0  0  0  0  0  0  0  0  0
   -5.6269   -0.8369    0.0000 C   0  0  1  0  0  0  0  0  0  0  0  0
   -1.2200   -1.5153    0.0000 S   0  0  0  0  0  0  0  0  0  0  0  0
    4.2116   -1.7934    0.0000 S   0  0  0  0  0  0  0  0  0  0  0  0
   -0.3806   -0.0707    0.0000 C   0  0  1  0  0  0  0  0  0  0  0  0
    4.2408    1.0614    0.0000 O   0  0  0  0  0  0  0  0  0  0  0  0
   -2.5914    0.2513    0.0000 O   0  0  0  0  0  0  0  0  0  0  0  0
   -8.4867    1.3298    0.0000 S   0  0  0  0  0  0  0  0  0  0  0  0
    5.2267    2.8769    0.0000 S   0  0  0  0  0  0  0  0  0  0  0  0
   -1.6055    2.0815    0.0000 S   0  0  0  0  0  0  0  0  0  0  0  0
    6.4468    0.7247    0.0000 C   0  0  1  0  0  0  0  0  0  0  0  0
    3.4015   -0.3634    0.0000 C   0  0  1  0  0  0  0  0  0  0  0  0
   -2.6011   -1.1786    0.0000 C   0  0  1  0  0  0  0  0  0  0  0  0
   -3.4210   -1.1639    0.0000 C   0  0  1  0  0  0  0  0  0  0  0  0
    6.8469    0.0073    0.0000 C   0  0  2  0  0  0  0  0  0  0  0  0
   -6.8616   -1.5446    0.0000 C   0  0  2  0  0  0  0  0  0  0  0  0
   -4.6508   -0.4513    0.0000 O   0  0  0  0  0  0  0  0  0  0  0  0
    2.0936    0.3392    0.0000 O   0  0  0  0  0  0  0  0  0  0  0  0
    0.8540    0.6368    0.0000 O   0  0  0  0  0  0  0  0  0  0  0  0
   -6.0270   -0.1097    0.0000 O   0  0  0  0  0  0  0  0  0  0  0  0
    0.0342    0.6368    0.0000 C   0  0  2  0  0  0  0  0  0  0  0  0
   -1.3518   -0.0658    0.0000 O   0  0  0  0  0  0  0  0  0  0  0  0
    6.8665    1.4324    0.0000 C   0  0  2  0  0  0  0  0  0  0  0  0
    5.4659    0.7393    0.0000 O   0  0  0  0  0  0  0  0  0  0  0  0
    8.1012    0.7100    0.0000 C   0  0  2  0  0  0  0  0  0  0  0  0
    7.6864    1.4324    0.0000 O   0  0  0  0  0  0  0  0  0  0  0  0
   -6.8469   -0.1097    0.0000 C   0  0  1  0  0  0  0  0  0  0  0  0
   -7.2765   -0.8223    0.0000 C   0  0  1  0  0  0  0  0  0  0  0  0
    1.2493   -1.5153    0.0000 N   0  0  0  0  0  0  0  0  0  0  0  0
   -5.6416   -2.2668    0.0000 N   0  0  0  0  0  0  0  0  0  0  0  0
    8.0866   -0.7100    0.0000 N   0  0  0  0  0  0  0  0  0  0  0  0
   -0.3952   -1.5007    0.0000 O   0  0  0  0  0  0  0  0  0  0  0  0
    4.6314   -1.0760    0.0000 O   0  0  0  0  0  0  0  0  0  0  0  0
   -3.8115    0.9735    0.0000 C   0  0  0  0  0  0  0  0  0  0  0  0
    3.0062    1.7837    0.0000 C   0  0  0  0  0  0  0  0  0  0  0  0
   -0.3659    1.3542    0.0000 C   0  0  0  0  0  0  0  0  0  0  0  0
    6.4615    2.1547    0.0000 C   0  0  0  0  0  0  0  0  0  0  0  0
   -7.2618    0.6075    0.0000 C   0  0  0  0  0  0  0  0  0  0  0  0
   -1.1956    1.3689    0.0000 O   0  0  0  0  0  0  0  0  0  0  0  0
    5.6269    2.1547    0.0000 O   0  0  0  0  0  0  0  0  0  0  0  0
   -8.0866    0.5929    0.0000 O   0  0  0  0  0  0  0  0  0  0  0  0
    1.2395   -2.9402    0.0000 O   0  0  0  0  0  0  0  0  0  0  0  0
   -5.6416   -3.6821    0.0000 O   0  0  0  0  0  0  0  0  0  0  0  0
    8.0720   -2.1449    0.0000 O   0  0  0  0  0  0  0  0  0  0  0  0
    4.6264   -2.5109    0.0000 O   0  0  0  0  0  0  0  0  0  0  0  0
   -1.6348   -2.2180    0.0000 O   0  0  0  0  0  0  0  0  0  0  0  0
    4.4068    2.8769    0.0000 O   0  0  0  0  0  0  0  0  0  0  0  0
   -9.3212    1.3250    0.0000 O   0  0  0  0  0  0  0  0  0  0  0  0
   -2.4303    2.0668    0.0000 O   0  0  0  0  0  0  0  0  0  0  0  0
    0.2489   -1.6471    0.0000 O   0  0  0  0  0  0  0  0  0  0  0  0
   -6.7738   -3.3844    0.0000 O   0  0  0  0  0  0  0  0  0  0  0  0
   -6.7738   -2.5694    0.0000 O   0  0  0  0  0  0  0  0  0  0  0  0
    7.0714   -0.8369    0.0000 O   0  0  0  0  0  0  0  0  0  0  0  0
    7.0714   -2.0081    0.0000 O   0  0  0  0  0  0  0  0  0  0  0  0
    0.2489   -2.8084    0.0000 O   0  0  0  0  0  0  0  0  0  0  0  0
    3.4991   -2.2082    0.0000 O   0  0  0  0  0  0  0  0  0  0  0  0
    3.6358   -1.2078    0.0000 O   0  0  0  0  0  0  0  0  0  0  0  0
   -1.2200   -0.6758    0.0000 O   0  0  0  0  0  0  0  0  0  0  0  0
   -2.0155   -1.2810    0.0000 O   0  0  0  0  0  0  0  0  0  0  0  0
   -8.2915    2.1254    0.0000 O   0  0  0  0  0  0  0  0  0  0  0  0
   -0.8102    2.2865    0.0000 O   0  0  0  0  0  0  0  0  0  0  0  0
    6.0223    3.0964    0.0000 O   0  0  0  0  0  0  0  0  0  0  0  0
    5.4366    3.6821    0.0000 O   0  0  0  0  0  0  0  0  0  0  0  0
   -1.3859    2.8769    0.0000 O   0  0  0  0  0  0  0  0  0  0  0  0
   -7.7010    1.5349    0.0000 O   0  0  0  0  0  0  0  0  0  0  0  0
    2.1814    1.7691    0.0000 O   0  0  0  0  0  0  0  0  0  0  0  0
   -4.6411    0.9883    0.0000 O   0  0  0  0  0  0  0  0  0  0  0  0
   -3.4015    1.6910    0.0000 O   0  0  0  0  0  0  0  0  0  0  0  0
    3.4259    2.4962    0.0000 O   0  0  0  0  0  0  0  0  0  0  0  0
   -2.1912   -1.8959    0.0000 O   0  0  0  0  0  0  0  0  0  0  0  0
    2.9770   -1.0711    0.0000 O   0  0  0  0  0  0  0  0  0  0  0  0
   -3.8408   -1.8813    0.0000 O   0  0  0  0  0  0  0  0  0  0  0  0
    6.4322   -0.7051    0.0000 O   0  0  0  0  0  0  0  0  0  0  0  0
   -7.2862   -2.2619    0.0000 O   0  0  0  0  0  0  0  0  0  0  0  0
   -8.1012   -0.8418    0.0000 O   0  0  0  0  0  0  0  0  0  0  0  0
    8.9211    0.7100    0.0000 O   0  0  0  0  0  0  0  0  0  0  0  0
    9.3212   -0.0073    0.0000 C   0  0  0  0  0  0  0  0  0  0  0  0
    0.5488   -1.7229    0.0000 H   0  0  0  0  0  0  0  0  0  0  0  0
    0.2996   -1.7216    0.0000 H   0  0  0  0  0  0  0  0  0  0  0  0
    2.4558    1.2849    0.0000 H   0  0  0  0  0  0  0  0  0  0  0  0
   -4.3600   -1.3640    0.0000 H   0  0  0  0  0  0  0  0  0  0  0  0
    2.3463    1.0760    0.0000 H   0  0  0  0  0  0  0  0  0  0  0  0
   -2.8656    1.1746    0.0000 H   0  0  0  0  0  0  0  0  0  0  0  0
   -4.9718   -1.5576    0.0000 H   0  0  0  0  0  0  0  0  0  0  0  0
    3.6882   -1.2883    0.0000 H   0  0  0  0  0  0  0  0  0  0  0  0
    5.3713   -0.4573    0.0000 H   0  0  0  0  0  0  0  0  0  0  0  0
    7.1413   -0.9073    0.0000 H   0  0  0  0  0  0  0  0  0  0  0  0
   -1.8630    0.5572    0.0000 H   0  0  0  0  0  0  0  0  0  0  0  0
    1.9970   -0.8745    0.0000 H   0  0  0  0  0  0  0  0  0  0  0  0
   -4.9307   -1.6494    0.0000 H   0  0  0  0  0  0  0  0  0  0  0  0
   -0.9261   -0.9912    0.0000 H   0  0  0  0  0  0  0  0  0  0  0  0
    5.8981   -0.1939    0.0000 H   0  0  0  0  0  0  0  0  0  0  0  0
    3.9287   -1.2945    0.0000 H   0  0  0  0  0  0  0  0  0  0  0  0
   -1.5311   -1.1883    0.0000 H   0  0  0  0  0  0  0  0  0  0  0  0
   -4.4909   -1.1526    0.0000 H   0  0  0  0  0  0  0  0  0  0  0  0
    7.3884   -0.9155    0.0000 H   0  0  0  0  0  0  0  0  0  0  0  0
   -6.3316   -2.4741    0.0000 H   0  0  0  0  0  0  0  0  0  0  0  0
    0.5761    1.5594    0.0000 H   0  0  0  0  0  0  0  0  0  0  0  0
    5.7966    1.4454    0.0000 H   0  0  0  0  0  0  0  0  0  0  0  0
    8.6373    1.6360    0.0000 H   0  0  0  0  0  0  0  0  0  0  0  0
   -6.3123    0.8172    0.0000 H   0  0  0  0  0  0  0  0  0  0  0  0
   -7.8137    0.1031    0.0000 H   0  0  0  0  0  0  0  0  0  0  0  0
    2.2693   -1.5165    0.0000 H   0  0  0  0  0  0  0  0  0  0  0  0
   -4.6216   -2.2766    0.0000 H   0  0  0  0  0  0  0  0  0  0  0  0
    9.1065   -0.7222    0.0000 H   0  0  0  0  0  0  0  0  0  0  0  0
    0.1841    2.2720    0.0000 H   0  0  0  0  0  0  0  0  0  0  0  0
   -0.8851    2.2898    0.0000 H   0  0  0  0  0  0  0  0  0  0  0  0
    7.0023    3.0780    0.0000 H   0  0  0  0  0  0  0  0  0  0  0  0
    5.9294    3.0830    0.0000 H   0  0  0  0  0  0  0  0  0  0  0  0
   -6.7354    1.5391    0.0000 H   0  0  0  0  0  0  0  0  0  0  0  0
   -7.8093    1.5268    0.0000 H   0  0  0  0  0  0  0  0  0  0  0  0
    0.7539   -3.7799    0.0000 H   0  0  0  0  0  0  0  0  0  0  0  0
   -6.1253   -4.5229    0.0000 H   0  0  0  0  0  0  0  0  0  0  0  0
    7.5876   -2.9853    0.0000 H   0  0  0  0  0  0  0  0  0  0  0  0
    4.1419   -3.3512    0.0000 H   0  0  0  0  0  0  0  0  0  0  0  0
   -2.6048   -2.2086    0.0000 H   0  0  0  0  0  0  0  0  0  0  0  0
    3.9218    3.7169    0.0000 H   0  0  0  0  0  0  0  0  0  0  0  0
   -9.8110    2.1622    0.0000 H   0  0  0  0  0  0  0  0  0  0  0  0
   -2.9302    2.8981    0.0000 H   0  0  0  0  0  0  0  0  0  0  0  0
    1.6986    2.5721    0.0000 H   0  0  0  0  0  0  0  0  0  0  0  0
   -5.0951    1.8080    0.0000 H   0  0  0  0  0  0  0  0  0  0  0  0
   -2.6799   -2.7338    0.0000 H   0  0  0  0  0  0  0  0  0  0  0  0
    2.0071   -1.0549    0.0000 H   0  0  0  0  0  0  0  0  0  0  0  0
   -4.8108   -1.8756    0.0000 H   0  0  0  0  0  0  0  0  0  0  0  0
    5.4622   -0.7016    0.0000 H   0  0  0  0  0  0  0  0  0  0  0  0
   -8.2561   -2.2514    0.0000 H   0  0  0  0  0  0  0  0  0  0  0  0
   -8.6059   -0.0135    0.0000 H   0  0  0  0  0  0  0  0  0  0  0  0
    8.7725   -0.9259    0.0000 H   0  0  0  0  0  0  0  0  0  0  0  0
   10.3911   -0.0231    0.0000 H   0  0  0  0  0  0  0  0  0  0  0  0
    9.8424   -0.9418    0.0000 H   0  0  0  0  0  0  0  0  0  0  0  0
  1 46  1  0  0  0  0
  1 92  1  6  0  0  0
  2  1  1  0  0  0  0
  2 43  1  0  0  0  0
  2 93  1  1  0  0  0
  3 32  1  0  0  0  0
  3 94  1  1  0  0  0
  4 28  1  0  0  0  0
  4 31  1  0  0  0  0
  4 95  1  1  0  0  0
  5  3  1  0  0  0  0
  5 49  1  0  0  0  0
  5 96  1  1  0  0  0
  6 21  1  0  0  0  0
  6 48  1  0  0  0  0
  6  4  1  0  0  0  0
  6 97  1  6  0  0  0
  7 16  1  0  0  0  0
  7 44  1  0  0  0  0
  7 98  1  1  0  0  0
  8 26  1  0  0  0  0
  8 47  1  0  0  0  0
  8 99  1  1  0  0  0
  9  8  1  0  0  0  0
  9 38  1  0  0  0  0
  9 20  1  0  0  0  0
  9100  1  6  0  0  0
 10 29  1  0  0  0  0
 10 45  1  0  0  0  0
 10 39  1  0  0  0  0
 10101  1  1  0  0  0
 11 36  1  0  0  0  0
 11102  1  6  0  0  0
 12 43  1  0  0  0  0
 13 45  1  0  0  0  0
 14 44  1  0  0  0  0
 15  2  1  0  0  0  0
 15 32  1  0  0  0  0
 15 33  1  0  0  0  0
 15103  1  1  0  0  0
 16 31  1  0  0  0  0
 16104  1  1  0  0  0
 17 46  1  0  0  0  0
 18 47  1  0  0  0  0
 19  1  1  0  0  0  0
 19 36  1  0  0  0  0
 19105  1  1  0  0  0
 20  5  1  0  0  0  0
 21 11  1  0  0  0  0
 22 55  1  0  0  0  0
 23 54  1  0  0  0  0
 24 53  1  0  0  0  0
 25 38  1  0  0  0  0
 25106  1  1  0  0  0
 26  3  1  0  0  0  0
 26 85  1  0  0  0  0
 26107  1  6  0  0  0
 27 11  1  0  0  0  0
 27 84  1  0  0  0  0
 27108  1  1  0  0  0
 28 27  1  0  0  0  0
 28 86  1  0  0  0  0
 28109  1  6  0  0  0
 29 25  1  0  0  0  0
 29 87  1  0  0  0  0
 29110  1  6  0  0  0
 30  7  1  0  0  0  0
 30 88  1  0  0  0  0
 30111  1  6  0  0  0
 33 35  1  0  0  0  0
 34 16  1  0  0  0  0
 35 19  1  0  0  0  0
 35 50  1  0  0  0  0
 35112  1  6  0  0  0
 37 25  1  0  0  0  0
 37 51  1  0  0  0  0
 37113  1  6  0  0  0
 39 40  1  0  0  0  0
 39 90  1  0  0  0  0
 39114  1  1  0  0  0
 40 37  1  0  0  0  0
 41 34  1  0  0  0  0
 41 52  1  0  0  0  0
 41115  1  6  0  0  0
 42 41  1  0  0  0  0
 42 89  1  0  0  0  0
 42 30  1  0  0  0  0
 42116  1  1  0  0  0
 43117  1  0  0  0  0
 44118  1  0  0  0  0
 45119  1  0  0  0  0
 50120  1  0  0  0  0
 50121  1  0  0  0  0
 51122  1  0  0  0  0
 51123  1  0  0  0  0
 52124  1  0  0  0  0
 52125  1  0  0  0  0
 53 50  1  0  0  0  0
 54 51  1  0  0  0  0
 55 52  1  0  0  0  0
 56 12  1  0  0  0  0
 56126  1  0  0  0  0
 57 14  1  0  0  0  0
 57127  1  0  0  0  0
 58 13  1  0  0  0  0
 58128  1  0  0  0  0
 59 18  1  0  0  0  0
 59129  1  0  0  0  0
 60 17  1  0  0  0  0
 60130  1  0  0  0  0
 61 23  1  0  0  0  0
 61131  1  0  0  0  0
 62 22  1  0  0  0  0
 62132  1  0  0  0  0
 63 24  1  0  0  0  0
 63133  1  0  0  0  0
 64 12  2  0  0  0  0
 65 14  2  0  0  0  0
 66 14  2  0  0  0  0
 67 13  2  0  0  0  0
 68 13  2  0  0  0  0
 69 12  2  0  0  0  0
 70 18  2  0  0  0  0
 71 18  2  0  0  0  0
 72 17  2  0  0  0  0
 73 17  2  0  0  0  0
 74 22  2  0  0  0  0
 75 24  2  0  0  0  0
 76 23  2  0  0  0  0
 77 23  2  0  0  0  0
 78 24  2  0  0  0  0
 79 22  2  0  0  0  0
 80 49  1  0  0  0  0
 80134  1  0  0  0  0
 81 48  1  0  0  0  0
 81135  1  0  0  0  0
 82 48  2  0  0  0  0
 83 49  2  0  0  0  0
 84136  1  0  0  0  0
 85137  1  0  0  0  0
 86138  1  0  0  0  0
 87139  1  0  0  0  0
 88140  1  0  0  0  0
 89141  1  0  0  0  0
 91 90  1  0  0  0  0
 91142  1  0  0  0  0
 91143  1  0  0  0  0
 91144  1  0  0  0  0
M  END
>  <DRUGBANK_ID>
DB00569

>  <SECONDARY_ACCESSION_NUMBERS>
APRD00500; DB11728

>  <COMMON_NAME>
Fondaparinux

>  <CAS_NUMBER>
104993-28-4

>  <UNII>
J177FOW5JL

>  <SYNONYMS>
Natural heparin pentasaccharide

$$$$
