FCF
 OpenBabel10282417072D

 39 40  0  0  0  0  0  0  0  0999 V2000
   -4.1044    3.2887    0.0000 O   0  0  0  0  0  0  0  0  0  0  0  0
   -3.3899    2.8762    0.0000 C   0  0  0  0  0  0  0  0  0  0  0  0
   -2.6754    3.2887    0.0000 O   0  0  0  0  0  0  0  0  0  0  0  0
   -3.3899    2.0512    0.0000 C   0  0  0  0  0  0  0  0  0  0  0  0
   -4.1044    1.6387    0.0000 C   0  0  0  0  0  0  0  0  0  0  0  0
   -4.1044    0.8137    0.0000 C   0  0  0  0  0  0  0  0  0  0  0  0
   -2.6754    1.6387    0.0000 C   0  0  0  0  0  0  0  0  0  0  0  0
   -2.6754    0.8137    0.0000 C   0  0  0  0  0  0  0  0  0  0  0  0
   -3.3899    0.4012    0.0000 C   0  0  0  0  0  0  0  0  0  0  0  0
   -1.9610    0.4012    0.0000 C   0  0  0  0  0  0  0  0  0  0  0  0
   -1.9610   -0.4238    0.0000 N   0  0  0  0  0  0  0  0  0  0  0  0
   -1.2465   -0.8363    0.0000 O   0  0  0  0  0  0  0  0  0  0  0  0
   -0.5320   -0.4238    0.0000 C   0  0  0  0  0  0  0  0  0  0  0  0
    0.1824   -0.8363    0.0000 C   0  0  0  0  0  0  0  0  0  0  0  0
    0.8969   -0.4238    0.0000 O   0  0  0  0  0  0  0  0  0  0  0  0
    1.6114   -0.8363    0.0000 N   0  0  0  0  0  0  0  0  0  0  0  0
    2.3259   -0.4238    0.0000 C   0  0  0  0  0  0  0  0  0  0  0  0
    3.0403   -0.8363    0.0000 C   0  0  0  0  0  0  0  0  0  0  0  0
    3.0403   -1.6613    0.0000 N   0  0  0  0  0  0  0  0  0  0  0  0
    3.7548   -0.4238    0.0000 C   0  0  0  0  0  0  0  0  0  0  0  0
    4.4693   -0.8363    0.0000 C   0  0  0  0  0  0  0  0  0  0  0  0
    5.1837   -0.4238    0.0000 O   0  0  0  0  0  0  0  0  0  0  0  0
    4.4693   -1.6613    0.0000 N   0  0  0  0  0  0  0  0  0  0  0  0
    3.7548   -2.0738    0.0000 C   0  0  0  0  0  0  0  0  0  0  0  0
    3.7548   -2.8988    0.0000 O   0  0  0  0  0  0  0  0  0  0  0  0
   -4.1044    4.2257    0.0000 H   0  0  0  0  0  0  0  0  0  0  0  0
   -4.9981    2.1547    0.0000 H   0  0  0  0  0  0  0  0  0  0  0  0
   -4.9981    0.2977    0.0000 H   0  0  0  0  0  0  0  0  0  0  0  0
   -1.7817    2.1547    0.0000 H   0  0  0  0  0  0  0  0  0  0  0  0
   -3.3899   -0.6308    0.0000 H   0  0  0  0  0  0  0  0  0  0  0  0
   -1.0673    0.9172    0.0000 H   0  0  0  0  0  0  0  0  0  0  0  0
   -0.5320    0.6462    0.0000 H   0  0  0  0  0  0  0  0  0  0  0  0
    0.3947    0.1112    0.0000 H   0  0  0  0  0  0  0  0  0  0  0  0
    0.1824   -1.9063    0.0000 H   0  0  0  0  0  0  0  0  0  0  0  0
    1.1090   -1.3713    0.0000 H   0  0  0  0  0  0  0  0  0  0  0  0
    2.3259    0.6082    0.0000 H   0  0  0  0  0  0  0  0  0  0  0  0
    2.1877   -2.1536    0.0000 H   0  0  0  0  0  0  0  0  0  0  0  0
    3.7548    0.6082    0.0000 H   0  0  0  0  0  0  0  0  0  0  0  0
    5.3219   -2.1536    0.0000 H   0  0  0  0  0  0  0  0  0  0  0  0
  1 26  1  0  0  0  0
  2  1  1  0  0  0  0
  3  2  2  0  0  0  0
  4  2  1  0  0  0  0
  4  7  1  0  0  0  0
  5  4  2  0  0  0  0
  5 27  1  0  0  0  0
  6  5  1  0  0  0  0
  6  9  2  0  0  0  0
  6 28  1  0  0  0  0
  7 29  1  0  0  0  0
  8  7  2  0  0  0  0
  8 10  1  0  0  0  0
  9  8  1  0  0  0  0
  9 30  1  0  0  0  0
 10 31  1  0  0  0  0
 11 10  2  0  0  0  0
 11 12  1  0  0  0  0
 13 12  1  0  0  0  0
 13 14  1  0  0  0  0
 13 32  1  0  0  0  0
 13 33  1  0  0  0  0
 14 15  1  0  0  0  0
 14 34  1  0  0  0  0
 14 35  1  0  0  0  0
 15 16  1  0  0  0  0
 16 17  2  0  0  0  0
 17 18  1  0  0  0  0
 17 36  1  0  0  0  0
 18 20  2  0  0  0  0
 19 18  1  0  0  0  0
 19 24  1  0  0  0  0
 19 37  1  0  0  0  0
 20 21  1  0  0  0  0
 20 38  1  0  0  0  0
 21 22  2  0  0  0  0
 23 21  1  0  0  0  0
 23 39  1  0  0  0  0
 24 23  1  0  0  0  0
 25 24  2  0  0  0  0
M  END
>  <DRUGBANK_ID>
DB07760

>  <COMMON_NAME>
3-[(1E,7E)-8-(2,6-dioxo-1,2,3,6-tetrahydropyrimidin-4-yl)-3,6-dioxa-2,7-diazaocta-1,7-dien-1-yl]benzoic acid

$$$$
