1523
 OpenBabel10282417072D

 50 52  0  0  0  0  0  0  0  0999 V2000
    8.2451   -3.3294    0.0000 Cl  0  0  0  0  0  0  0  0  0  0  0  0
    1.6500   -0.8839    0.0000 O   0  5  0  0  0  0  0  0  0  0  0  0
    2.3645   -2.1215    0.0000 O   0  0  0  0  0  0  0  0  0  0  0  0
    5.2886    0.1926    0.0000 N   0  0  0  0  0  0  0  0  0  0  0  0
    6.6086    1.9310    0.0000 N   0  0  0  0  0  0  0  0  0  0  0  0
    5.2886   -1.1353    0.0000 N   0  0  0  0  0  0  0  0  0  0  0  0
    2.3645   -1.2964    0.0000 N   0  3  0  0  0  0  0  0  0  0  0  0
    5.5449    0.9767    0.0000 C   0  0  0  0  0  0  0  0  0  0  0  0
    6.3522    1.1469    0.0000 C   0  0  0  0  0  0  0  0  0  0  0  0
    5.7701   -0.4714    0.0000 C   0  0  0  0  0  0  0  0  0  0  0  0
    4.5080   -0.0589    0.0000 C   0  0  0  0  0  0  0  0  0  0  0  0
    4.5080   -0.8839    0.0000 C   0  0  0  0  0  0  0  0  0  0  0  0
    6.5951   -0.4714    0.0000 C   0  0  0  0  0  0  0  0  0  0  0  0
    7.4158    2.1012    0.0000 C   0  0  0  0  0  0  0  0  0  0  0  0
    6.0575    2.5451    0.0000 C   0  0  0  0  0  0  0  0  0  0  0  0
    3.7935    0.3536    0.0000 C   0  0  0  0  0  0  0  0  0  0  0  0
    3.7935   -1.2964    0.0000 C   0  0  0  0  0  0  0  0  0  0  0  0
    7.0076   -1.1859    0.0000 C   0  0  0  0  0  0  0  0  0  0  0  0
    7.6721    2.8854    0.0000 C   0  0  0  0  0  0  0  0  0  0  0  0
    6.3139    3.3294    0.0000 C   0  0  0  0  0  0  0  0  0  0  0  0
    3.0791   -0.8839    0.0000 C   0  0  0  0  0  0  0  0  0  0  0  0
    3.0791   -0.0589    0.0000 C   0  0  0  0  0  0  0  0  0  0  0  0
    7.8326   -1.1859    0.0000 C   0  0  0  0  0  0  0  0  0  0  0  0
    6.5951   -1.9003    0.0000 C   0  0  0  0  0  0  0  0  0  0  0  0
    8.2451   -1.9003    0.0000 C   0  0  0  0  0  0  0  0  0  0  0  0
    7.0076   -2.6148    0.0000 C   0  0  0  0  0  0  0  0  0  0  0  0
    7.8326   -2.6148    0.0000 C   0  0  0  0  0  0  0  0  0  0  0  0
    4.8303    1.7731    0.0000 H   0  0  0  0  0  0  0  0  0  0  0  0
    5.8773    1.9938    0.0000 H   0  0  0  0  0  0  0  0  0  0  0  0
    7.0668    0.3505    0.0000 H   0  0  0  0  0  0  0  0  0  0  0  0
    6.0198    0.1298    0.0000 H   0  0  0  0  0  0  0  0  0  0  0  0
    7.1301    0.4552    0.0000 H   0  0  0  0  0  0  0  0  0  0  0  0
    7.6651   -0.4714    0.0000 H   0  0  0  0  0  0  0  0  0  0  0  0
    8.1304    1.3048    0.0000 H   0  0  0  0  0  0  0  0  0  0  0  0
    8.4628    2.3219    0.0000 H   0  0  0  0  0  0  0  0  0  0  0  0
    5.0105    2.3244    0.0000 H   0  0  0  0  0  0  0  0  0  0  0  0
    5.3429    3.3415    0.0000 H   0  0  0  0  0  0  0  0  0  0  0  0
    3.7935    1.3856    0.0000 H   0  0  0  0  0  0  0  0  0  0  0  0
    3.7935   -2.3284    0.0000 H   0  0  0  0  0  0  0  0  0  0  0  0
    8.7191    3.1061    0.0000 H   0  0  0  0  0  0  0  0  0  0  0  0
    6.9575    3.6818    0.0000 H   0  0  0  0  0  0  0  0  0  0  0  0
    8.0045    3.9025    0.0000 H   0  0  0  0  0  0  0  0  0  0  0  0
    7.3609    3.5500    0.0000 H   0  0  0  0  0  0  0  0  0  0  0  0
    5.5994    4.1259    0.0000 H   0  0  0  0  0  0  0  0  0  0  0  0
    6.6464    4.3464    0.0000 H   0  0  0  0  0  0  0  0  0  0  0  0
    2.1854    0.4571    0.0000 H   0  0  0  0  0  0  0  0  0  0  0  0
    8.3486   -0.2922    0.0000 H   0  0  0  0  0  0  0  0  0  0  0  0
    5.5631   -1.9003    0.0000 H   0  0  0  0  0  0  0  0  0  0  0  0
    9.2771   -1.9003    0.0000 H   0  0  0  0  0  0  0  0  0  0  0  0
    6.4916   -3.5085    0.0000 H   0  0  0  0  0  0  0  0  0  0  0  0
  1 27  1  0  0  0  0
  2  7  1  0  0  0  0
  3  7  2  0  0  0  0
  4  8  1  0  0  0  0
  4 10  1  0  0  0  0
  4 11  1  0  0  0  0
  5  9  1  0  0  0  0
  5 14  1  0  0  0  0
  5 15  1  0  0  0  0
  6 10  2  0  0  0  0
  6 12  1  0  0  0  0
  7 21  1  0  0  0  0
  8  9  1  0  0  0  0
  8 28  1  0  0  0  0
  8 29  1  0  0  0  0
  9 30  1  0  0  0  0
  9 31  1  0  0  0  0
 10 13  1  0  0  0  0
 11 12  2  0  0  0  0
 11 16  1  0  0  0  0
 12 17  1  0  0  0  0
 13 18  1  0  0  0  0
 13 32  1  0  0  0  0
 13 33  1  0  0  0  0
 14 19  1  0  0  0  0
 14 34  1  0  0  0  0
 14 35  1  0  0  0  0
 15 20  1  0  0  0  0
 15 36  1  0  0  0  0
 15 37  1  0  0  0  0
 16 22  2  0  0  0  0
 16 38  1  0  0  0  0
 17 21  2  0  0  0  0
 17 39  1  0  0  0  0
 18 23  2  0  0  0  0
 18 24  1  0  0  0  0
 19 40  1  0  0  0  0
 19 41  1  0  0  0  0
 19 42  1  0  0  0  0
 20 43  1  0  0  0  0
 20 44  1  0  0  0  0
 20 45  1  0  0  0  0
 21 22  1  0  0  0  0
 22 46  1  0  0  0  0
 23 25  1  0  0  0  0
 23 47  1  0  0  0  0
 24 26  2  0  0  0  0
 24 48  1  0  0  0  0
 25 27  2  0  0  0  0
 25 49  1  0  0  0  0
 26 27  1  0  0  0  0
 26 50  1  0  0  0  0
M  CHG  2   2  -1   7   1
M  END
>  <DRUGBANK_ID>
DB01523

>  <COMMON_NAME>
Clonitazene

>  <CAS_NUMBER>
3861-76-5

>  <UNII>
S90R21A2V2

>  <SYNONYMS>
Clonitazene

$$$$
