53V
 OpenBabel10282417072D

 55 57  0  0  0  0  0  0  0  0999 V2000
   -2.7671   -1.6673    0.0000 C   0  0  0  0  0  0  0  0  0  0  0  0
   -1.3382    2.4577    0.0000 C   0  0  0  0  0  0  0  0  0  0  0  0
   -3.4816   -2.9048    0.0000 C   0  0  0  0  0  0  0  0  0  0  0  0
   -2.0527   -2.0798    0.0000 C   0  0  0  0  0  0  0  0  0  0  0  0
    0.0907   -0.8423    0.0000 C   0  0  2  0  0  0  0  0  0  0  0  0
    0.8052   -1.2548    0.0000 C   0  0  0  0  0  0  0  0  0  0  0  0
    0.0907   -0.0173    0.0000 C   0  0  0  0  0  0  0  0  0  0  0  0
   -0.6237    0.3952    0.0000 C   0  0  0  0  0  0  0  0  0  0  0  0
   -0.6237    1.2202    0.0000 C   0  0  0  0  0  0  0  0  0  0  0  0
    0.0907    1.6327    0.0000 C   0  0  0  0  0  0  0  0  0  0  0  0
    0.8052    1.2202    0.0000 C   0  0  0  0  0  0  0  0  0  0  0  0
    0.8052    2.8702    0.0000 C   0  0  0  0  0  0  0  0  0  0  0  0
    1.5197    2.4577    0.0000 C   0  0  0  0  0  0  0  0  0  0  0  0
    2.2341    2.8702    0.0000 C   0  0  0  0  0  0  0  0  0  0  0  0
    2.9486    2.4577    0.0000 C   0  0  0  0  0  0  0  0  0  0  0  0
    2.9486    1.6327    0.0000 C   0  0  0  0  0  0  0  0  0  0  0  0
    2.2341    1.2202    0.0000 C   0  0  0  0  0  0  0  0  0  0  0  0
    2.2341    0.3952    0.0000 C   0  0  0  0  0  0  0  0  0  0  0  0
    1.5197    1.6327    0.0000 C   0  0  0  0  0  0  0  0  0  0  0  0
    0.8052    0.3952    0.0000 C   0  0  0  0  0  0  0  0  0  0  0  0
   -1.3382    1.6327    0.0000 O   0  0  0  0  0  0  0  0  0  0  0  0
   -0.6237   -1.2548    0.0000 C   0  0  0  0  0  0  0  0  0  0  0  0
   -1.3382   -1.6673    0.0000 C   0  0  0  0  0  0  0  0  0  0  0  0
   -2.0527   -2.9048    0.0000 C   0  0  0  0  0  0  0  0  0  0  0  0
   -1.3382   -3.3173    0.0000 C   0  0  0  0  0  0  0  0  0  0  0  0
   -2.7671   -3.3173    0.0000 N   0  0  0  0  0  0  0  0  0  0  0  0
   -4.1961   -3.3173    0.0000 N   0  0  0  0  0  0  0  0  0  0  0  0
   -3.4816   -2.0798    0.0000 N   0  0  0  0  0  0  0  0  0  0  0  0
   -2.7671   -0.8423    0.0000 N   0  0  0  0  0  0  0  0  0  0  0  0
    0.5964   -0.5504    0.0000 H   0  0  0  0  0  0  0  0  0  0  0  0
   -0.4116    2.9927    0.0000 H   0  0  0  0  0  0  0  0  0  0  0  0
   -2.2648    2.9927    0.0000 H   0  0  0  0  0  0  0  0  0  0  0  0
   -1.3382    3.5277    0.0000 H   0  0  0  0  0  0  0  0  0  0  0  0
    0.8052   -2.3248    0.0000 H   0  0  0  0  0  0  0  0  0  0  0  0
    1.7318   -0.7198    0.0000 H   0  0  0  0  0  0  0  0  0  0  0  0
    1.7319   -1.7898    0.0000 H   0  0  0  0  0  0  0  0  0  0  0  0
   -1.5174   -0.1208    0.0000 H   0  0  0  0  0  0  0  0  0  0  0  0
    0.0907    2.6647    0.0000 H   0  0  0  0  0  0  0  0  0  0  0  0
    0.8052    3.9402    0.0000 H   0  0  0  0  0  0  0  0  0  0  0  0
   -0.1214    2.3352    0.0000 H   0  0  0  0  0  0  0  0  0  0  0  0
   -0.1215    3.4052    0.0000 H   0  0  0  0  0  0  0  0  0  0  0  0
    2.2341    3.9022    0.0000 H   0  0  0  0  0  0  0  0  0  0  0  0
    3.8423    2.9737    0.0000 H   0  0  0  0  0  0  0  0  0  0  0  0
    3.8423    1.1167    0.0000 H   0  0  0  0  0  0  0  0  0  0  0  0
    1.3075   -0.1398    0.0000 H   0  0  0  0  0  0  0  0  0  0  0  0
    3.1607   -0.1398    0.0000 H   0  0  0  0  0  0  0  0  0  0  0  0
    2.2341   -0.6748    0.0000 H   0  0  0  0  0  0  0  0  0  0  0  0
    1.6989   -0.1208    0.0000 H   0  0  0  0  0  0  0  0  0  0  0  0
   -1.3382   -4.3873    0.0000 H   0  0  0  0  0  0  0  0  0  0  0  0
   -0.4116   -2.7823    0.0000 H   0  0  0  0  0  0  0  0  0  0  0  0
   -0.4115   -3.8523    0.0000 H   0  0  0  0  0  0  0  0  0  0  0  0
   -5.0487   -2.8250    0.0000 H   0  0  0  0  0  0  0  0  0  0  0  0
   -4.1961   -4.3018    0.0000 H   0  0  0  0  0  0  0  0  0  0  0  0
   -1.9145   -0.3500    0.0000 H   0  0  0  0  0  0  0  0  0  0  0  0
   -3.6197   -0.3501    0.0000 H   0  0  0  0  0  0  0  0  0  0  0  0
  1  4  2  0  0  0  0
  1 28  1  0  0  0  0
  1 29  1  0  0  0  0
  2 21  1  0  0  0  0
  2 31  1  0  0  0  0
  2 32  1  0  0  0  0
  2 33  1  0  0  0  0
  3 26  1  0  0  0  0
  3 27  1  0  0  0  0
  3 28  2  0  0  0  0
  4 23  1  0  0  0  0
  4 24  1  0  0  0  0
  5  6  1  0  0  0  0
  5  7  1  0  0  0  0
  5 22  1  0  0  0  0
  5 30  1  6  0  0  0
  6 34  1  0  0  0  0
  6 35  1  0  0  0  0
  6 36  1  0  0  0  0
  7  8  2  0  0  0  0
  7 20  1  0  0  0  0
  8  9  1  0  0  0  0
  8 37  1  0  0  0  0
  9 10  2  0  0  0  0
  9 21  1  0  0  0  0
 10 11  1  0  0  0  0
 10 38  1  0  0  0  0
 11 19  1  0  0  0  0
 11 20  2  0  0  0  0
 12 13  1  0  0  0  0
 12 39  1  0  0  0  0
 12 40  1  0  0  0  0
 12 41  1  0  0  0  0
 13 14  2  0  0  0  0
 13 19  1  0  0  0  0
 14 15  1  0  0  0  0
 14 42  1  0  0  0  0
 15 16  2  0  0  0  0
 15 43  1  0  0  0  0
 16 17  1  0  0  0  0
 16 44  1  0  0  0  0
 17 18  1  0  0  0  0
 17 19  2  0  0  0  0
 18 45  1  0  0  0  0
 18 46  1  0  0  0  0
 18 47  1  0  0  0  0
 20 48  1  0  0  0  0
 22 23  3  0  0  0  0
 24 25  1  0  0  0  0
 24 26  2  0  0  0  0
 25 49  1  0  0  0  0
 25 50  1  0  0  0  0
 25 51  1  0  0  0  0
 27 52  1  0  0  0  0
 27 53  1  0  0  0  0
 29 54  1  0  0  0  0
 29 55  1  0  0  0  0
M  END
>  <DRUGBANK_ID>
DB07144

>  <COMMON_NAME>
5-[(3R)-3-(5-methoxy-2',6'-dimethylbiphenyl-3-yl)but-1-yn-1-yl]-6-methylpyrimidine-2,4-diamine

$$$$
