
 OpenBabel10282417072D

 30 32  0  0  0  0  0  0  0  0999 V2000
    4.0668    0.6979    0.0000 C   0  0  0  0  0  0  0  0  0  0  0  0
    4.7812    1.1104    0.0000 C   0  0  0  0  0  0  0  0  0  0  0  0
    3.3523    3.5854    0.0000 C   0  0  0  0  0  0  0  0  0  0  0  0
    3.3523    1.9354    0.0000 C   0  0  0  0  0  0  0  0  0  0  0  0
    5.4957    2.3479    0.0000 C   0  0  0  0  0  0  0  0  0  0  0  0
    1.3683    2.7604    0.0000 C   0  0  0  0  0  0  0  0  0  0  0  0
    4.0668    3.1729    0.0000 C   0  0  0  0  0  0  0  0  0  0  0  0
    5.4957    3.1729    0.0000 C   0  0  0  0  0  0  0  0  0  0  0  0
    4.0668    2.3479    0.0000 C   0  0  0  0  0  0  0  0  0  0  0  0
    2.6378    3.1729    0.0000 C   0  0  0  0  0  0  0  0  0  0  0  0
    2.6378    2.3479    0.0000 C   0  0  0  0  0  0  0  0  0  0  0  0
    4.7812    3.5854    0.0000 C   0  0  0  0  0  0  0  0  0  0  0  0
    6.2102    3.5854    0.0000 C   0  0  0  0  0  0  0  0  0  0  0  0
    4.7812    1.9354    0.0000 N   0  0  0  0  0  0  0  0  0  0  0  0
    4.7812    4.4104    0.0000 O   0  0  0  0  0  0  0  0  0  0  0  0
    6.2102    4.4104    0.0000 O   0  0  0  0  0  0  0  0  0  0  0  0
    6.9246    3.1729    0.0000 O   0  0  0  0  0  0  0  0  0  0  0  0
    1.8532    3.4279    0.0000 O   0  0  0  0  0  0  0  0  0  0  0  0
    1.8532    2.0930    0.0000 O   0  0  0  0  0  0  0  0  0  0  0  0
    3.1401    1.2329    0.0000 H   0  0  0  0  0  0  0  0  0  0  0  0
    4.0668   -0.3721    0.0000 H   0  0  0  0  0  0  0  0  0  0  0  0
    3.1402    0.1629    0.0000 H   0  0  0  0  0  0  0  0  0  0  0  0
    5.7079    0.5754    0.0000 H   0  0  0  0  0  0  0  0  0  0  0  0
    5.7078    1.6454    0.0000 H   0  0  0  0  0  0  0  0  0  0  0  0
    3.3523    4.6174    0.0000 H   0  0  0  0  0  0  0  0  0  0  0  0
    3.3523    0.9034    0.0000 H   0  0  0  0  0  0  0  0  0  0  0  0
    6.3894    1.8319    0.0000 H   0  0  0  0  0  0  0  0  0  0  0  0
    0.2983    2.7604    0.0000 H   0  0  0  0  0  0  0  0  0  0  0  0
    0.8825    1.8070    0.0000 H   0  0  0  0  0  0  0  0  0  0  0  0
    6.9246    2.2359    0.0000 H   0  0  0  0  0  0  0  0  0  0  0  0
  1 20  1  0  0  0  0
  1 21  1  0  0  0  0
  1 22  1  0  0  0  0
  2  1  1  0  0  0  0
  2 23  1  0  0  0  0
  2 24  1  0  0  0  0
  3 25  1  0  0  0  0
  4 26  1  0  0  0  0
  5 27  1  0  0  0  0
  6 28  1  0  0  0  0
  6 29  1  0  0  0  0
  7  3  2  0  0  0  0
  8  5  2  0  0  0  0
  9  4  2  0  0  0  0
  9  7  1  0  0  0  0
 10  3  1  0  0  0  0
 11  4  1  0  0  0  0
 11 10  2  0  0  0  0
 12  7  1  0  0  0  0
 12  8  1  0  0  0  0
 13  8  1  0  0  0  0
 14  2  1  0  0  0  0
 14  5  1  0  0  0  0
 14  9  1  0  0  0  0
 15 12  2  0  0  0  0
 16 13  2  0  0  0  0
 17 13  1  0  0  0  0
 17 30  1  0  0  0  0
 18  6  1  0  0  0  0
 18 10  1  0  0  0  0
 19  6  1  0  0  0  0
 19 11  1  0  0  0  0
M  END
>  <DRUGBANK_ID>
DB13627

>  <COMMON_NAME>
Oxolinic acid

>  <CAS_NUMBER>
14698-29-4

>  <UNII>
L0A22B22FT

>  <SYNONYMS>
ácido oxolínico; Oxolinic acid

$$$$
