
 OpenBabel10282417072D

 31 33  0  0  1  0  0  0  0  0999 V2000
    0.0992   -1.0091    0.0000 C   0  0  0  0  0  0  0  0  0  0  0  0
    1.1387   -2.0486    0.0000 C   0  0  0  0  0  0  0  0  0  0  0  0
    3.3523    1.1104    0.0000 C   0  0  0  0  0  0  0  0  0  0  0  0
    0.6538    1.5229    0.0000 C   0  0  0  0  0  0  0  0  0  0  0  0
    0.8838   -1.2640    0.0000 C   0  0  1  0  0  0  0  0  0  0  0  0
    0.0992   -0.1841    0.0000 C   0  0  2  0  0  0  0  0  0  0  0  0
    1.9233    1.9354    0.0000 C   0  0  0  0  0  0  0  0  0  0  0  0
    2.6378    2.3479    0.0000 C   0  0  0  0  0  0  0  0  0  0  0  0
    1.9233    1.1104    0.0000 C   0  0  0  0  0  0  0  0  0  0  0  0
    0.8838    0.0709    0.0000 C   0  0  2  0  0  0  0  0  0  0  0  0
    2.6378    3.1729    0.0000 N   0  0  0  0  0  0  0  0  0  0  0  0
    3.3523    1.9354    0.0000 N   0  0  0  0  0  0  0  0  0  0  0  0
    2.6378    0.6979    0.0000 N   0  0  0  0  0  0  0  0  0  0  0  0
    1.1387    2.1904    0.0000 N   0  0  0  0  0  0  0  0  0  0  0  0
    1.1387    0.8555    0.0000 N   0  0  0  0  0  0  0  0  0  0  0  0
    1.9457   -2.2201    0.0000 O   0  0  0  0  0  0  0  0  0  0  0  0
   -0.5683    0.3009    0.0000 O   0  0  0  0  0  0  0  0  0  0  0  0
    1.3687   -0.5966    0.0000 O   0  0  0  0  0  0  0  0  0  0  0  0
    0.3004   -1.8474    0.0000 H   0  0  0  0  0  0  0  0  0  0  0  0
   -0.6359   -0.5586    0.0000 H   0  0  0  0  0  0  0  0  0  0  0  0
    0.3004    0.6542    0.0000 H   0  0  0  0  0  0  0  0  0  0  0  0
   -0.7664   -1.6380    0.0000 H   0  0  0  0  0  0  0  0  0  0  0  0
   -0.8542   -0.5233    0.0000 H   0  0  0  0  0  0  0  0  0  0  0  0
    0.4227   -2.8438    0.0000 H   0  0  0  0  0  0  0  0  0  0  0  0
    1.4694   -3.0662    0.0000 H   0  0  0  0  0  0  0  0  0  0  0  0
    4.2460    0.5944    0.0000 H   0  0  0  0  0  0  0  0  0  0  0  0
   -0.3782    1.5229    0.0000 H   0  0  0  0  0  0  0  0  0  0  0  0
    3.4904    3.6651    0.0000 H   0  0  0  0  0  0  0  0  0  0  0  0
    1.7852    3.6651    0.0000 H   0  0  0  0  0  0  0  0  0  0  0  0
    2.2455   -3.1426    0.0000 H   0  0  0  0  0  0  0  0  0  0  0  0
   -0.4669    1.2656    0.0000 H   0  0  0  0  0  0  0  0  0  0  0  0
  1 22  1  0  0  0  0
  1 23  1  0  0  0  0
  2 24  1  0  0  0  0
  2 25  1  0  0  0  0
  3 26  1  0  0  0  0
  4 27  1  0  0  0  0
  5  1  1  0  0  0  0
  5  2  1  0  0  0  0
  5 19  1  1  0  0  0
  6  1  1  0  0  0  0
  6 17  1  0  0  0  0
  6 20  1  6  0  0  0
  8  7  2  0  0  0  0
  9  7  1  0  0  0  0
 10  6  1  0  0  0  0
 10 15  1  0  0  0  0
 10 21  1  1  0  0  0
 11  8  1  0  0  0  0
 11 28  1  0  0  0  0
 11 29  1  0  0  0  0
 12  3  2  0  0  0  0
 12  8  1  0  0  0  0
 13  3  1  0  0  0  0
 13  9  2  0  0  0  0
 14  4  2  0  0  0  0
 14  7  1  0  0  0  0
 15  4  1  0  0  0  0
 15  9  1  0  0  0  0
 16  2  1  0  0  0  0
 16 30  1  0  0  0  0
 17 31  1  0  0  0  0
 18  5  1  0  0  0  0
 18 10  1  0  0  0  0
M  END
>  <DRUGBANK_ID>
DB12156

>  <COMMON_NAME>
Cordycepin

>  <CAS_NUMBER>
73-03-0

>  <UNII>
GZ8VF4M2J8

$$$$
