LGS
 OpenBabel10282417072D

 50 51  0  0  0  0  0  0  0  0999 V2000
   -2.4449    2.5920    0.0000 O   0  0  0  0  0  0  0  0  0  0  0  0
   -2.6998    1.8073    0.0000 C   0  0  2  0  0  0  0  0  0  0  0  0
   -2.1478    1.1942    0.0000 C   0  0  1  0  0  0  0  0  0  0  0  0
   -1.3228    1.1942    0.0000 C   0  0  0  0  0  0  0  0  0  0  0  0
   -1.0678    0.4096    0.0000 O   0  0  0  0  0  0  0  0  0  0  0  0
   -3.5068    1.6358    0.0000 C   0  0  2  0  0  0  0  0  0  0  0  0
   -4.0588    2.2489    0.0000 O   0  0  0  0  0  0  0  0  0  0  0  0
   -3.7617    0.8512    0.0000 C   0  0  1  0  0  0  0  0  0  0  0  0
   -4.5687    0.6797    0.0000 O   0  0  0  0  0  0  0  0  0  0  0  0
   -3.2097    0.2381    0.0000 C   0  0  2  0  0  0  0  0  0  0  0  0
   -3.4646   -0.5465    0.0000 O   0  0  0  0  0  0  0  0  0  0  0  0
   -2.4027    0.4096    0.0000 N   0  0  0  0  0  0  0  0  0  0  0  0
   -1.7353   -0.0753    0.0000 C   0  0  0  0  0  0  0  0  0  0  0  0
   -1.7353   -0.9003    0.0000 N   0  0  0  0  0  0  0  0  0  0  0  0
   -1.0208   -1.3128    0.0000 C   0  0  0  0  0  0  0  0  0  0  0  0
   -0.3063   -0.9003    0.0000 C   0  0  0  0  0  0  0  0  0  0  0  0
    0.4082   -1.3128    0.0000 C   0  0  0  0  0  0  0  0  0  0  0  0
    1.1226   -0.9003    0.0000 C   0  0  0  0  0  0  0  0  0  0  0  0
    1.8371   -1.3128    0.0000 C   0  0  0  0  0  0  0  0  0  0  0  0
    2.5516   -0.9003    0.0000 C   0  0  0  0  0  0  0  0  0  0  0  0
    3.2660   -1.3128    0.0000 C   0  0  0  0  0  0  0  0  0  0  0  0
    3.9805   -0.9003    0.0000 C   0  0  0  0  0  0  0  0  0  0  0  0
   -2.1286    1.9287    0.0000 H   0  0  0  0  0  0  0  0  0  0  0  0
   -1.9103    1.7277    0.0000 H   0  0  0  0  0  0  0  0  0  0  0  0
   -3.3263    2.1912    0.0000 H   0  0  0  0  0  0  0  0  0  0  0  0
   -4.1524    1.2851    0.0000 H   0  0  0  0  0  0  0  0  0  0  0  0
   -3.7808    0.1167    0.0000 H   0  0  0  0  0  0  0  0  0  0  0  0
   -1.4961    2.7937    0.0000 H   0  0  0  0  0  0  0  0  0  0  0  0
   -0.6939    2.0599    0.0000 H   0  0  0  0  0  0  0  0  0  0  0  0
   -0.2660    1.0269    0.0000 H   0  0  0  0  0  0  0  0  0  0  0  0
   -3.7590    3.1714    0.0000 H   0  0  0  0  0  0  0  0  0  0  0  0
   -5.2177    1.4006    0.0000 H   0  0  0  0  0  0  0  0  0  0  0  0
   -4.4134   -0.7482    0.0000 H   0  0  0  0  0  0  0  0  0  0  0  0
   -1.0208   -2.3828    0.0000 H   0  0  0  0  0  0  0  0  0  0  0  0
   -0.0942   -1.8478    0.0000 H   0  0  0  0  0  0  0  0  0  0  0  0
   -0.3063    0.1697    0.0000 H   0  0  0  0  0  0  0  0  0  0  0  0
    0.6203   -0.3653    0.0000 H   0  0  0  0  0  0  0  0  0  0  0  0
    0.4082   -2.3828    0.0000 H   0  0  0  0  0  0  0  0  0  0  0  0
    1.3349   -1.8478    0.0000 H   0  0  0  0  0  0  0  0  0  0  0  0
    1.1226    0.1697    0.0000 H   0  0  0  0  0  0  0  0  0  0  0  0
    2.0492   -0.3653    0.0000 H   0  0  0  0  0  0  0  0  0  0  0  0
    1.8371   -2.3828    0.0000 H   0  0  0  0  0  0  0  0  0  0  0  0
    2.7637   -1.8478    0.0000 H   0  0  0  0  0  0  0  0  0  0  0  0
    2.5516    0.1697    0.0000 H   0  0  0  0  0  0  0  0  0  0  0  0
    3.4783   -0.3653    0.0000 H   0  0  0  0  0  0  0  0  0  0  0  0
    3.2660   -2.3828    0.0000 H   0  0  0  0  0  0  0  0  0  0  0  0
    4.1926   -1.8478    0.0000 H   0  0  0  0  0  0  0  0  0  0  0  0
    4.9071   -1.4353    0.0000 H   0  0  0  0  0  0  0  0  0  0  0  0
    3.9805    0.1697    0.0000 H   0  0  0  0  0  0  0  0  0  0  0  0
    4.9072   -0.3653    0.0000 H   0  0  0  0  0  0  0  0  0  0  0  0
  1 28  1  0  0  0  0
  2  1  1  0  0  0  0
  2  3  1  0  0  0  0
  2  6  1  0  0  0  0
  2 23  1  1  0  0  0
  3  4  1  0  0  0  0
  3 12  1  0  0  0  0
  3 24  1  6  0  0  0
  4  5  1  0  0  0  0
  4 29  1  0  0  0  0
  4 30  1  0  0  0  0
  5 13  1  0  0  0  0
  6  7  1  0  0  0  0
  6  8  1  0  0  0  0
  6 25  1  6  0  0  0
  7 31  1  0  0  0  0
  8  9  1  0  0  0  0
  8 10  1  0  0  0  0
  8 26  1  1  0  0  0
  9 32  1  0  0  0  0
 10 11  1  0  0  0  0
 10 12  1  0  0  0  0
 10 27  1  6  0  0  0
 11 33  1  0  0  0  0
 12 13  1  0  0  0  0
 13 14  2  0  0  0  0
 14 15  1  0  0  0  0
 15 16  1  0  0  0  0
 15 34  1  0  0  0  0
 15 35  1  0  0  0  0
 16 17  1  0  0  0  0
 16 36  1  0  0  0  0
 16 37  1  0  0  0  0
 17 18  1  0  0  0  0
 17 38  1  0  0  0  0
 17 39  1  0  0  0  0
 18 19  1  0  0  0  0
 18 40  1  0  0  0  0
 18 41  1  0  0  0  0
 19 20  1  0  0  0  0
 19 42  1  0  0  0  0
 19 43  1  0  0  0  0
 20 21  1  0  0  0  0
 20 44  1  0  0  0  0
 20 45  1  0  0  0  0
 21 22  1  0  0  0  0
 21 46  1  0  0  0  0
 21 47  1  0  0  0  0
 22 48  1  0  0  0  0
 22 49  1  0  0  0  0
 22 50  1  0  0  0  0
M  END
>  <DRUGBANK_ID>
DB08090

>  <COMMON_NAME>
(3Z,5S,6R,7S,8R,8aR)-3-(octylimino)hexahydro[1,3]oxazolo[3,4-a]pyridine-5,6,7,8-tetrol

$$$$
