
 OpenBabel10282417072D

 32 33  0  0  0  0  0  0  0  0999 V2000
    0.6538   -0.6979    0.0000 C   0  0  0  0  0  0  0  0  0  0  0  0
    1.1387   -0.0305    0.0000 N   0  0  0  0  0  0  0  0  0  0  0  0
    1.9233   -0.2854    0.0000 C   0  0  0  0  0  0  0  0  0  0  0  0
    2.6378    0.1271    0.0000 C   0  0  0  0  0  0  0  0  0  0  0  0
    3.3523   -0.2854    0.0000 N   0  0  0  0  0  0  0  0  0  0  0  0
    3.3523   -1.1104    0.0000 C   0  0  0  0  0  0  0  0  0  0  0  0
    2.6378   -1.5229    0.0000 N   0  0  0  0  0  0  0  0  0  0  0  0
    1.9233   -1.1104    0.0000 C   0  0  0  0  0  0  0  0  0  0  0  0
    1.1387   -1.3654    0.0000 N   0  0  0  0  0  0  0  0  0  0  0  0
    0.8838   -2.1500    0.0000 C   0  0  0  0  0  0  0  0  0  0  0  0
    0.0768   -2.3215    0.0000 C   0  0  0  0  0  0  0  0  0  0  0  0
   -0.1781   -3.1062    0.0000 O   0  0  0  0  0  0  0  0  0  0  0  0
   -0.9851   -3.2777    0.0000 C   0  0  0  0  0  0  0  0  0  0  0  0
   -1.2400   -4.0623    0.0000 P   0  0  0  0  0  0  0  0  0  0  0  0
   -1.4950   -4.8469    0.0000 O   0  0  0  0  0  0  0  0  0  0  0  0
   -2.0247   -3.8074    0.0000 O   0  0  0  0  0  0  0  0  0  0  0  0
   -0.4554   -4.3172    0.0000 O   0  0  0  0  0  0  0  0  0  0  0  0
    4.0668   -1.5229    0.0000 N   0  0  0  0  0  0  0  0  0  0  0  0
    2.6378    0.9521    0.0000 N   0  0  0  0  0  0  0  0  0  0  0  0
   -0.3782   -0.6979    0.0000 H   0  0  0  0  0  0  0  0  0  0  0  0
    1.5998   -2.9452    0.0000 H   0  0  0  0  0  0  0  0  0  0  0  0
    0.5531   -3.1676    0.0000 H   0  0  0  0  0  0  0  0  0  0  0  0
   -0.6392   -1.5263    0.0000 H   0  0  0  0  0  0  0  0  0  0  0  0
   -0.9698   -2.5440    0.0000 H   0  0  0  0  0  0  0  0  0  0  0  0
   -1.7011   -2.4825    0.0000 H   0  0  0  0  0  0  0  0  0  0  0  0
   -2.0317   -3.5002    0.0000 H   0  0  0  0  0  0  0  0  0  0  0  0
   -2.2264   -2.8586    0.0000 H   0  0  0  0  0  0  0  0  0  0  0  0
   -0.2537   -5.2660    0.0000 H   0  0  0  0  0  0  0  0  0  0  0  0
    4.0668   -2.5074    0.0000 H   0  0  0  0  0  0  0  0  0  0  0  0
    4.9194   -1.0306    0.0000 H   0  0  0  0  0  0  0  0  0  0  0  0
    3.4904    1.4444    0.0000 H   0  0  0  0  0  0  0  0  0  0  0  0
    1.7852    1.4444    0.0000 H   0  0  0  0  0  0  0  0  0  0  0  0
  1  2  2  0  0  0  0
  1  9  1  0  0  0  0
  1 20  1  0  0  0  0
  2  3  1  0  0  0  0
  3  4  2  0  0  0  0
  3  8  1  0  0  0  0
  4  5  1  0  0  0  0
  4 19  1  0  0  0  0
  5  6  2  0  0  0  0
  6  7  1  0  0  0  0
  6 18  1  0  0  0  0
  7  8  2  0  0  0  0
  8  9  1  0  0  0  0
  9 10  1  0  0  0  0
 10 11  1  0  0  0  0
 10 21  1  0  0  0  0
 10 22  1  0  0  0  0
 11 12  1  0  0  0  0
 11 23  1  0  0  0  0
 11 24  1  0  0  0  0
 12 13  1  0  0  0  0
 13 14  1  0  0  0  0
 13 25  1  0  0  0  0
 13 26  1  0  0  0  0
 14 15  2  0  0  0  0
 14 16  1  0  0  0  0
 14 17  1  0  0  0  0
 16 27  1  0  0  0  0
 17 28  1  0  0  0  0
 18 29  1  0  0  0  0
 18 30  1  0  0  0  0
 19 31  1  0  0  0  0
 19 32  1  0  0  0  0
M  END
>  <DRUGBANK_ID>
DB08843

>  <COMMON_NAME>
GS 0573

>  <CAS_NUMBER>
113852-41-8

>  <UNII>
5EX1YUR4DH

>  <SYNONYMS>
9-(2-phosphonylmethoxyethyl)-2,6-diaminopurine

$$$$
