
 OpenBabel10282417072D

 20 20  0  0  0  0  0  0  0  0999 V2000
   -0.3572   -2.7307    0.0000 Cl  0  0  0  0  0  0  0  0  0  0  0  0
    1.0717    2.2192    0.0000 O   0  0  0  0  0  0  0  0  0  0  0  0
   -0.3572    0.5692    0.0000 N   0  0  0  0  0  0  0  0  0  0  0  0
    0.3571    1.8067    0.0000 N   0  0  0  0  0  0  0  0  0  0  0  0
    1.0717    0.5692    0.0000 N   0  0  0  0  0  0  0  0  0  0  0  0
   -0.3572   -0.2557    0.0000 C   0  0  0  0  0  0  0  0  0  0  0  0
    0.3571   -0.6682    0.0000 C   0  0  0  0  0  0  0  0  0  0  0  0
   -1.0717   -0.6682    0.0000 C   0  0  0  0  0  0  0  0  0  0  0  0
    0.3571   -1.4932    0.0000 C   0  0  0  0  0  0  0  0  0  0  0  0
   -1.0717   -1.4932    0.0000 C   0  0  0  0  0  0  0  0  0  0  0  0
   -0.3572   -1.9057    0.0000 C   0  0  0  0  0  0  0  0  0  0  0  0
    0.3571    0.9817    0.0000 C   0  0  0  0  0  0  0  0  0  0  0  0
    1.9117    1.7341    0.0000 H   0  0  0  0  0  0  0  0  0  0  0  0
   -0.4955    2.2990    0.0000 H   0  0  0  0  0  0  0  0  0  0  0  0
    1.0718   -0.4153    0.0000 H   0  0  0  0  0  0  0  0  0  0  0  0
    1.9243    1.0615    0.0000 H   0  0  0  0  0  0  0  0  0  0  0  0
    1.2509   -0.1522    0.0000 H   0  0  0  0  0  0  0  0  0  0  0  0
   -1.9654   -0.1522    0.0000 H   0  0  0  0  0  0  0  0  0  0  0  0
    1.2509   -2.0092    0.0000 H   0  0  0  0  0  0  0  0  0  0  0  0
   -1.9654   -2.0092    0.0000 H   0  0  0  0  0  0  0  0  0  0  0  0
  1 11  1  0  0  0  0
  2  4  1  0  0  0  0
  2 13  1  0  0  0  0
  3  6  1  0  0  0  0
  3 12  2  0  0  0  0
  4 12  1  0  0  0  0
  4 14  1  0  0  0  0
  5 12  1  0  0  0  0
  5 15  1  0  0  0  0
  5 16  1  0  0  0  0
  6  7  2  0  0  0  0
  6  8  1  0  0  0  0
  7  9  1  0  0  0  0
  7 17  1  0  0  0  0
  8 10  2  0  0  0  0
  8 18  1  0  0  0  0
  9 11  2  0  0  0  0
  9 19  1  0  0  0  0
 10 11  1  0  0  0  0
 10 20  1  0  0  0  0
M  END
>  <DRUGBANK_ID>
DB04559

>  <SECONDARY_ACCESSION_NUMBERS>
EXPT02578

>  <COMMON_NAME>
N-(Chlorophenyl)-N'-hydroxyguanidine

>  <CAS_NUMBER>
130974-86-6

$$$$
