
 OpenBabel10282417072D

 70 73  0  0  0  0  0  0  0  0999 V2000
   -0.5837   -1.4124    0.0000 C   0  0  0  0  0  0  0  0  0  0  0  0
   -0.1712   -0.6979    0.0000 C   0  0  0  0  0  0  0  0  0  0  0  0
   -0.5837    0.0165    0.0000 C   0  0  0  0  0  0  0  0  0  0  0  0
    0.6538   -0.6979    0.0000 C   0  0  0  0  0  0  0  0  0  0  0  0
    1.1387   -0.0305    0.0000 N   0  0  0  0  0  0  0  0  0  0  0  0
    1.9233   -0.2854    0.0000 C   0  0  0  0  0  0  0  0  0  0  0  0
    2.6378    0.1271    0.0000 C   0  0  0  0  0  0  0  0  0  0  0  0
    3.3523   -0.2854    0.0000 C   0  0  0  0  0  0  0  0  0  0  0  0
    3.3523   -1.1104    0.0000 C   0  0  0  0  0  0  0  0  0  0  0  0
    2.6378   -1.5229    0.0000 C   0  0  0  0  0  0  0  0  0  0  0  0
    1.9233   -1.1104    0.0000 C   0  0  0  0  0  0  0  0  0  0  0  0
    1.1387   -1.3654    0.0000 N   0  0  0  0  0  0  0  0  0  0  0  0
    2.6378    0.9521    0.0000 C   0  0  0  0  0  0  0  0  0  0  0  0
    1.9233    1.3646    0.0000 O   0  0  0  0  0  0  0  0  0  0  0  0
    3.3523    1.3646    0.0000 N   0  0  0  0  0  0  0  0  0  0  0  0
    3.3523    2.1896    0.0000 C   0  0  0  0  0  0  0  0  0  0  0  0
    4.0668    2.6021    0.0000 C   0  0  0  0  0  0  0  0  0  0  0  0
    4.0668    3.4271    0.0000 C   0  0  0  0  0  0  0  0  0  0  0  0
    4.7812    3.8396    0.0000 C   0  0  0  0  0  0  0  0  0  0  0  0
    5.4957    3.4271    0.0000 N   0  0  0  0  0  0  0  0  0  0  0  0
    5.4957    2.6021    0.0000 C   0  0  0  0  0  0  0  0  0  0  0  0
    4.7812    2.1896    0.0000 C   0  0  0  0  0  0  0  0  0  0  0  0
    6.2102    3.8396    0.0000 C   0  0  0  0  0  0  0  0  0  0  0  0
    6.9246    3.4271    0.0000 C   0  0  0  0  0  0  0  0  0  0  0  0
    7.6391    3.8396    0.0000 C   0  0  0  0  0  0  0  0  0  0  0  0
    8.3536    3.4271    0.0000 C   0  0  0  0  0  0  0  0  0  0  0  0
    8.3536    2.6021    0.0000 N   0  0  0  0  0  0  0  0  0  0  0  0
    7.6391    2.1896    0.0000 C   0  0  0  0  0  0  0  0  0  0  0  0
    6.9246    2.6021    0.0000 C   0  0  0  0  0  0  0  0  0  0  0  0
    9.0681    2.1896    0.0000 C   0  0  0  0  0  0  0  0  0  0  0  0
    9.0681    1.3646    0.0000 O   0  0  0  0  0  0  0  0  0  0  0  0
    9.7825    2.6021    0.0000 O   0  0  0  0  0  0  0  0  0  0  0  0
    9.7825    3.4271    0.0000 C   0  0  0  0  0  0  0  0  0  0  0  0
   -1.6537   -1.4124    0.0000 H   0  0  0  0  0  0  0  0  0  0  0  0
   -0.0487   -2.3390    0.0000 H   0  0  0  0  0  0  0  0  0  0  0  0
   -1.1187   -2.3391    0.0000 H   0  0  0  0  0  0  0  0  0  0  0  0
    0.3638    0.2288    0.0000 H   0  0  0  0  0  0  0  0  0  0  0  0
   -0.0487    0.9432    0.0000 H   0  0  0  0  0  0  0  0  0  0  0  0
   -1.6537    0.0165    0.0000 H   0  0  0  0  0  0  0  0  0  0  0  0
   -1.1187    0.9431    0.0000 H   0  0  0  0  0  0  0  0  0  0  0  0
    0.8345    0.9058    0.0000 H   0  0  0  0  0  0  0  0  0  0  0  0
    4.2460    0.2306    0.0000 H   0  0  0  0  0  0  0  0  0  0  0  0
    4.2460   -1.6264    0.0000 H   0  0  0  0  0  0  0  0  0  0  0  0
    2.6378   -2.5549    0.0000 H   0  0  0  0  0  0  0  0  0  0  0  0
    4.2049    0.8723    0.0000 H   0  0  0  0  0  0  0  0  0  0  0  0
    2.4257    2.7246    0.0000 H   0  0  0  0  0  0  0  0  0  0  0  0
    3.3523    3.2596    0.0000 H   0  0  0  0  0  0  0  0  0  0  0  0
    4.9935    3.1371    0.0000 H   0  0  0  0  0  0  0  0  0  0  0  0
    3.1401    3.9621    0.0000 H   0  0  0  0  0  0  0  0  0  0  0  0
    4.0668    4.4971    0.0000 H   0  0  0  0  0  0  0  0  0  0  0  0
    4.7812    4.9096    0.0000 H   0  0  0  0  0  0  0  0  0  0  0  0
    5.7078    4.3746    0.0000 H   0  0  0  0  0  0  0  0  0  0  0  0
    6.4223    2.0671    0.0000 H   0  0  0  0  0  0  0  0  0  0  0  0
    5.4957    1.5321    0.0000 H   0  0  0  0  0  0  0  0  0  0  0  0
    4.7812    1.1196    0.0000 H   0  0  0  0  0  0  0  0  0  0  0  0
    3.8545    1.6546    0.0000 H   0  0  0  0  0  0  0  0  0  0  0  0
    6.2102    4.9096    0.0000 H   0  0  0  0  0  0  0  0  0  0  0  0
    7.1369    4.3746    0.0000 H   0  0  0  0  0  0  0  0  0  0  0  0
    7.8512    2.8921    0.0000 H   0  0  0  0  0  0  0  0  0  0  0  0
    7.6391    4.9096    0.0000 H   0  0  0  0  0  0  0  0  0  0  0  0
    8.5657    4.3746    0.0000 H   0  0  0  0  0  0  0  0  0  0  0  0
    9.2802    3.9621    0.0000 H   0  0  0  0  0  0  0  0  0  0  0  0
    9.2802    2.8921    0.0000 H   0  0  0  0  0  0  0  0  0  0  0  0
    7.6391    1.1196    0.0000 H   0  0  0  0  0  0  0  0  0  0  0  0
    6.7125    1.6546    0.0000 H   0  0  0  0  0  0  0  0  0  0  0  0
    5.9980    2.0671    0.0000 H   0  0  0  0  0  0  0  0  0  0  0  0
    5.9980    3.1371    0.0000 H   0  0  0  0  0  0  0  0  0  0  0  0
   10.7091    3.9621    0.0000 H   0  0  0  0  0  0  0  0  0  0  0  0
    8.8559    3.9621    0.0000 H   0  0  0  0  0  0  0  0  0  0  0  0
    9.7825    4.4971    0.0000 H   0  0  0  0  0  0  0  0  0  0  0  0
  1  2  1  0  0  0  0
  1 34  1  0  0  0  0
  1 35  1  0  0  0  0
  1 36  1  0  0  0  0
  2  3  1  0  0  0  0
  2  4  1  0  0  0  0
  2 37  1  0  0  0  0
  3 38  1  0  0  0  0
  3 39  1  0  0  0  0
  3 40  1  0  0  0  0
  4  5  1  0  0  0  0
  4 12  2  0  0  0  0
  5  6  1  0  0  0  0
  5 41  1  0  0  0  0
  6  7  2  0  0  0  0
  6 11  1  0  0  0  0
  7  8  1  0  0  0  0
  7 13  1  0  0  0  0
  8  9  2  0  0  0  0
  8 42  1  0  0  0  0
  9 10  1  0  0  0  0
  9 43  1  0  0  0  0
 10 11  2  0  0  0  0
 10 44  1  0  0  0  0
 11 12  1  0  0  0  0
 13 14  2  0  0  0  0
 13 15  1  0  0  0  0
 15 16  1  0  0  0  0
 15 45  1  0  0  0  0
 16 17  1  0  0  0  0
 16 46  1  0  0  0  0
 16 47  1  0  0  0  0
 17 18  1  0  0  0  0
 17 22  1  0  0  0  0
 17 48  1  0  0  0  0
 18 19  1  0  0  0  0
 18 49  1  0  0  0  0
 18 50  1  0  0  0  0
 19 20  1  0  0  0  0
 19 51  1  0  0  0  0
 19 52  1  0  0  0  0
 20 21  1  0  0  0  0
 20 23  1  0  0  0  0
 21 22  1  0  0  0  0
 21 53  1  0  0  0  0
 21 54  1  0  0  0  0
 22 55  1  0  0  0  0
 22 56  1  0  0  0  0
 23 24  1  0  0  0  0
 23 57  1  0  0  0  0
 23 58  1  0  0  0  0
 24 25  1  0  0  0  0
 24 29  1  0  0  0  0
 24 59  1  0  0  0  0
 25 26  1  0  0  0  0
 25 60  1  0  0  0  0
 25 61  1  0  0  0  0
 26 27  1  0  0  0  0
 26 62  1  0  0  0  0
 26 63  1  0  0  0  0
 27 28  1  0  0  0  0
 27 30  1  0  0  0  0
 28 29  1  0  0  0  0
 28 64  1  0  0  0  0
 28 65  1  0  0  0  0
 29 66  1  0  0  0  0
 29 67  1  0  0  0  0
 30 31  2  0  0  0  0
 30 32  1  0  0  0  0
 32 33  1  0  0  0  0
 33 68  1  0  0  0  0
 33 69  1  0  0  0  0
 33 70  1  0  0  0  0
M  END
>  <DRUGBANK_ID>
DB12725

>  <COMMON_NAME>
Felcisetrag

>  <CAS_NUMBER>
916075-84-8

>  <UNII>
35F0Y2W16Q

>  <SYNONYMS>
Felcisetrag

$$$$
