
 OpenBabel10282417072D

 76 77  0  0  1  0  0  0  0  0999 V2000
    3.9680   -0.9260    0.0000 O   0  0  0  0  0  0  0  0  0  0  0  0
    3.1981   -0.6297    0.0000 C   0  0  0  0  0  0  0  0  0  0  0  0
    2.5565   -1.1483    0.0000 N   0  0  0  0  0  0  0  0  0  0  0  0
    3.0698    0.1852    0.0000 C   0  0  1  0  0  0  0  0  0  0  0  0
    2.2998    0.4815    0.0000 N   0  0  0  0  0  0  0  0  0  0  0  0
    1.6582   -0.0370    0.0000 C   0  0  0  0  0  0  0  0  0  0  0  0
    0.8883    0.2593    0.0000 C   0  0  1  0  0  0  0  0  0  0  0  0
    0.2467   -0.2593    0.0000 N   0  0  0  0  0  0  0  0  0  0  0  0
   -0.5232    0.0370    0.0000 C   0  0  0  0  0  0  0  0  0  0  0  0
   -1.1648   -0.4815    0.0000 C   0  0  1  0  0  0  0  0  0  0  0  0
   -1.9347   -0.1852    0.0000 N   0  0  0  0  0  0  0  0  0  0  0  0
   -2.5763   -0.7038    0.0000 C   0  0  0  0  0  0  0  0  0  0  0  0
   -3.3463   -0.4074    0.0000 C   0  0  1  0  0  0  0  0  0  0  0  0
   -3.4746    0.4074    0.0000 N   0  0  0  0  0  0  0  0  0  0  0  0
   -2.8330    0.9260    0.0000 C   0  0  0  0  0  0  0  0  0  0  0  0
   -2.9613    1.7410    0.0000 C   0  0  1  0  0  0  0  0  0  0  0  0
   -3.6960    2.1162    0.0000 N   0  0  0  0  0  0  0  0  0  0  0  0
   -4.4314    1.7423    0.0000 C   0  0  0  0  0  0  0  0  0  0  0  0
   -5.1229    2.1923    0.0000 C   0  0  0  0  0  0  0  0  0  0  0  0
   -4.4754    0.9185    0.0000 O   0  0  0  0  0  0  0  0  0  0  0  0
   -3.5662    2.9309    0.0000 C   0  0  0  0  0  0  0  0  0  0  0  0
   -2.7513    3.0593    0.0000 C   0  0  0  0  0  0  0  0  0  0  0  0
   -2.3774    2.3238    0.0000 C   0  0  0  0  0  0  0  0  0  0  0  0
   -2.0630    0.6297    0.0000 O   0  0  0  0  0  0  0  0  0  0  0  0
   -3.9879   -0.9260    0.0000 C   0  0  0  0  0  0  0  0  0  0  0  0
   -3.8595   -1.7410    0.0000 C   0  0  0  0  0  0  0  0  0  0  0  0
   -3.1248   -2.1162    0.0000 C   0  0  0  0  0  0  0  0  0  0  0  0
   -3.2546   -2.9309    0.0000 N   0  0  0  0  0  0  0  0  0  0  0  0
   -4.0696   -3.0593    0.0000 C   0  0  0  0  0  0  0  0  0  0  0  0
   -4.4434   -2.3238    0.0000 N   0  0  0  0  0  0  0  0  0  0  0  0
   -2.4480   -1.5187    0.0000 O   0  0  0  0  0  0  0  0  0  0  0  0
   -1.0364   -1.2965    0.0000 C   0  0  0  0  0  0  0  0  0  0  0  0
   -1.6781   -1.8151    0.0000 O   0  0  0  0  0  0  0  0  0  0  0  0
   -0.6515    0.8520    0.0000 O   0  0  0  0  0  0  0  0  0  0  0  0
    0.7600    1.0742    0.0000 C   0  0  0  0  0  0  0  0  0  0  0  0
   -0.0099    1.3706    0.0000 S   0  0  0  0  0  0  0  0  0  0  0  0
    1.7866   -0.8520    0.0000 O   0  0  0  0  0  0  0  0  0  0  0  0
    3.7114    0.7038    0.0000 C   0  0  0  0  0  0  0  0  0  0  0  0
    4.4813    0.4074    0.0000 C   0  0  0  0  0  0  0  0  0  0  0  0
    4.6097   -0.4074    0.0000 N   0  0  0  0  0  0  0  0  0  0  0  0
    5.1229    0.9260    0.0000 O   0  0  0  0  0  0  0  0  0  0  0  0
    1.6377   -0.7947    0.0000 H   0  0  0  0  0  0  0  0  0  0  0  0
    2.7096   -2.1208    0.0000 H   0  0  0  0  0  0  0  0  0  0  0  0
    2.2377   -0.4874    0.0000 H   0  0  0  0  0  0  0  0  0  0  0  0
    2.1467    1.4540    0.0000 H   0  0  0  0  0  0  0  0  0  0  0  0
    1.0548   -0.7977    0.0000 H   0  0  0  0  0  0  0  0  0  0  0  0
    0.3999   -1.2318    0.0000 H   0  0  0  0  0  0  0  0  0  0  0  0
   -1.3312    0.5755    0.0000 H   0  0  0  0  0  0  0  0  0  0  0  0
   -2.0879    0.7873    0.0000 H   0  0  0  0  0  0  0  0  0  0  0  0
   -2.5141    0.2652    0.0000 H   0  0  0  0  0  0  0  0  0  0  0  0
   -4.3934    0.7610    0.0000 H   0  0  0  0  0  0  0  0  0  0  0  0
   -3.8275    1.1129    0.0000 H   0  0  0  0  0  0  0  0  0  0  0  0
   -5.0659    3.2608    0.0000 H   0  0  0  0  0  0  0  0  0  0  0  0
   -6.0767    1.7074    0.0000 H   0  0  0  0  0  0  0  0  0  0  0  0
   -6.0197    2.7759    0.0000 H   0  0  0  0  0  0  0  0  0  0  0  0
   -4.3222    3.6882    0.0000 H   0  0  0  0  0  0  0  0  0  0  0  0
   -3.2347    3.9483    0.0000 H   0  0  0  0  0  0  0  0  0  0  0  0
   -2.2647    4.0123    0.0000 H   0  0  0  0  0  0  0  0  0  0  0  0
   -1.6813    3.0583    0.0000 H   0  0  0  0  0  0  0  0  0  0  0  0
   -1.3207    2.1554    0.0000 H   0  0  0  0  0  0  0  0  0  0  0  0
   -2.0477    1.3059    0.0000 H   0  0  0  0  0  0  0  0  0  0  0  0
   -4.9865   -0.5417    0.0000 H   0  0  0  0  0  0  0  0  0  0  0  0
   -4.8200   -1.5987    0.0000 H   0  0  0  0  0  0  0  0  0  0  0  0
   -2.2049   -1.6485    0.0000 H   0  0  0  0  0  0  0  0  0  0  0  0
   -4.5390   -3.9784    0.0000 H   0  0  0  0  0  0  0  0  0  0  0  0
   -5.4156   -2.1688    0.0000 H   0  0  0  0  0  0  0  0  0  0  0  0
   -0.0378   -1.6809    0.0000 H   0  0  0  0  0  0  0  0  0  0  0  0
   -0.8700   -2.3535    0.0000 H   0  0  0  0  0  0  0  0  0  0  0  0
   -2.5833   -1.4666    0.0000 H   0  0  0  0  0  0  0  0  0  0  0  0
    1.5922    1.7468    0.0000 H   0  0  0  0  0  0  0  0  0  0  0  0
    0.5936    2.1312    0.0000 H   0  0  0  0  0  0  0  0  0  0  0  0
   -0.2213    2.7141    0.0000 H   0  0  0  0  0  0  0  0  0  0  0  0
    3.5450    1.7608    0.0000 H   0  0  0  0  0  0  0  0  0  0  0  0
    4.5436    1.3764    0.0000 H   0  0  0  0  0  0  0  0  0  0  0  0
    3.8441   -1.0264    0.0000 H   0  0  0  0  0  0  0  0  0  0  0  0
    5.5285   -0.7609    0.0000 H   0  0  0  0  0  0  0  0  0  0  0  0
  1  2  2  0  0  0  0
  2  3  1  0  0  0  0
  3 42  1  0  0  0  0
  3 43  1  0  0  0  0
  4  2  1  0  0  0  0
  4  5  1  0  0  0  0
  4 38  1  0  0  0  0
  4 44  1  6  0  0  0
  5  6  1  0  0  0  0
  5 45  1  0  0  0  0
  6 37  2  0  0  0  0
  7  6  1  0  0  0  0
  7  8  1  0  0  0  0
  7 35  1  0  0  0  0
  7 46  1  6  0  0  0
  8  9  1  0  0  0  0
  8 47  1  0  0  0  0
  9 34  2  0  0  0  0
 10  9  1  0  0  0  0
 10 11  1  0  0  0  0
 10 32  1  0  0  0  0
 10 48  1  1  0  0  0
 11 12  1  0  0  0  0
 11 49  1  0  0  0  0
 12 31  2  0  0  0  0
 13 12  1  0  0  0  0
 13 14  1  0  0  0  0
 13 25  1  0  0  0  0
 13 50  1  1  0  0  0
 14 15  1  0  0  0  0
 14 51  1  0  0  0  0
 15 24  2  0  0  0  0
 16 15  1  0  0  0  0
 16 17  1  0  0  0  0
 16 23  1  0  0  0  0
 16 52  1  6  0  0  0
 17 18  1  0  0  0  0
 17 21  1  0  0  0  0
 18 19  1  0  0  0  0
 18 20  2  0  0  0  0
 19 53  1  0  0  0  0
 19 54  1  0  0  0  0
 19 55  1  0  0  0  0
 21 22  1  0  0  0  0
 21 56  1  0  0  0  0
 21 57  1  0  0  0  0
 22 23  1  0  0  0  0
 22 58  1  0  0  0  0
 22 59  1  0  0  0  0
 23 60  1  0  0  0  0
 23 61  1  0  0  0  0
 25 26  1  0  0  0  0
 25 62  1  0  0  0  0
 25 63  1  0  0  0  0
 26 27  2  0  0  0  0
 26 30  1  0  0  0  0
 27 28  1  0  0  0  0
 27 64  1  0  0  0  0
 28 29  2  0  0  0  0
 29 30  1  0  0  0  0
 29 65  1  0  0  0  0
 30 66  1  0  0  0  0
 32 33  1  0  0  0  0
 32 67  1  0  0  0  0
 32 68  1  0  0  0  0
 33 69  1  0  0  0  0
 35 36  1  0  0  0  0
 35 70  1  0  0  0  0
 35 71  1  0  0  0  0
 36 72  1  0  0  0  0
 38 39  1  0  0  0  0
 38 73  1  0  0  0  0
 38 74  1  0  0  0  0
 39 40  1  0  0  0  0
 39 41  2  0  0  0  0
 40 75  1  0  0  0  0
 40 76  1  0  0  0  0
M  END
>  <DRUGBANK_ID>
DB05491

>  <COMMON_NAME>
ATN-161

>  <CAS_NUMBER>
262438-43-7

>  <UNII>
XW0H5LE42K

$$$$
