915
 OpenBabel10282417072D

 28 30  0  0  0  0  0  0  0  0999 V2000
    3.1364    1.3022    0.0000 N   0  0  0  0  0  0  0  0  0  0  0  0
    3.1364    0.4484    0.0000 C   0  0  3  0  0  0  0  0  0  0  0  0
    3.8503   -0.7882    0.0000 C   0  0  3  0  0  0  0  0  0  0  0  0
    2.5461   -1.1598    0.0000 C   0  0  3  0  0  0  0  0  0  0  0  0
    2.4222   -0.7882    0.0000 C   0  0  3  0  0  0  0  0  0  0  0  0
    3.8503    0.0361    0.0000 C   0  0  0  0  0  0  0  0  0  0  0  0
    2.5461   -0.2672    0.0000 C   0  0  0  0  0  0  0  0  0  0  0  0
    2.4222    0.0361    0.0000 C   0  0  0  0  0  0  0  0  0  0  0  0
    3.3196   -1.5668    0.0000 C   0  0  0  0  0  0  0  0  0  0  0  0
    3.1364   -1.0469    0.0000 C   0  0  0  0  0  0  0  0  0  0  0  0
    1.7077   -1.2006    0.0000 C   0  0  0  0  0  0  0  0  0  0  0  0
    4.0197    1.8122    0.0000 H   0  0  0  0  0  0  0  0  0  0  0  0
    2.2531    1.8122    0.0000 H   0  0  0  0  0  0  0  0  0  0  0  0
    2.8278   -0.4729    0.0000 H   0  0  0  0  0  0  0  0  0  0  0  0
    3.4621   -0.6067    0.0000 H   0  0  0  0  0  0  0  0  0  0  0  0
    3.2982   -0.1738    0.0000 H   0  0  0  0  0  0  0  0  0  0  0  0
    4.7770    0.5710    0.0000 H   0  0  0  0  0  0  0  0  0  0  0  0
    4.7769   -0.4989    0.0000 H   0  0  0  0  0  0  0  0  0  0  0  0
    1.5391    0.0945    0.0000 H   0  0  0  0  0  0  0  0  0  0  0  0
    1.6709   -0.8828    0.0000 H   0  0  0  0  0  0  0  0  0  0  0  0
    1.4956    0.5711    0.0000 H   0  0  0  0  0  0  0  0  0  0  0  0
    1.4955   -0.4989    0.0000 H   0  0  0  0  0  0  0  0  0  0  0  0
    3.5782   -2.6051    0.0000 H   0  0  0  0  0  0  0  0  0  0  0  0
    2.4778   -2.2273    0.0000 H   0  0  0  0  0  0  0  0  0  0  0  0
    3.1365   -2.1169    0.0000 H   0  0  0  0  0  0  0  0  0  0  0  0
    2.2604   -1.6613    0.0000 H   0  0  0  0  0  0  0  0  0  0  0  0
    0.6812   -1.5025    0.0000 H   0  0  0  0  0  0  0  0  0  0  0  0
    1.2863   -0.2171    0.0000 H   0  0  0  0  0  0  0  0  0  0  0  0
  1  2  1  0  0  0  0
  1 12  1  0  0  0  0
  1 13  1  0  0  0  0
  2  6  1  0  0  0  0
  2  7  1  0  0  0  0
  2  8  1  0  0  0  0
  3  6  1  0  0  0  0
  3  9  1  0  0  0  0
  3 10  1  0  0  0  0
  3 14  1  0  0  0  0
  4  7  1  0  0  0  0
  4  9  1  0  0  0  0
  4 11  1  0  0  0  0
  4 15  1  0  0  0  0
  5  8  1  0  0  0  0
  5 10  1  0  0  0  0
  5 11  1  0  0  0  0
  5 16  1  0  0  0  0
  6 17  1  0  0  0  0
  6 18  1  0  0  0  0
  7 19  1  0  0  0  0
  7 20  1  0  0  0  0
  8 21  1  0  0  0  0
  8 22  1  0  0  0  0
  9 23  1  0  0  0  0
  9 24  1  0  0  0  0
 10 25  1  0  0  0  0
 10 26  1  0  0  0  0
 11 27  1  0  0  0  0
 11 28  1  0  0  0  0
M  END
>  <DRUGBANK_ID>
DB00915

>  <SECONDARY_ACCESSION_NUMBERS>
APRD00787

>  <COMMON_NAME>
Amantadine

>  <CAS_NUMBER>
768-94-5

>  <UNII>
BF4C9Z1J53

>  <SYNONYMS>
1-adamantanamine; 1-adamantylamine; 1-aminoadamantane; Amantadina; Amantadine; Amantadinum; Amantidine; Aminoadamantane

$$$$
