1421
 OpenBabel10282417072D

 87 90  0  0  1  0  0  0  0  0999 V2000
    6.6349   -0.3607    0.0000 O   0  0  0  0  0  0  0  0  0  0  0  0
    5.2059   -1.1857    0.0000 O   0  0  0  0  0  0  0  0  0  0  0  0
    8.1030   -0.2837    0.0000 O   0  0  0  0  0  0  0  0  0  0  0  0
    8.5781    1.7975    0.0000 O   0  0  0  0  0  0  0  0  0  0  0  0
    8.0638   -1.1857    0.0000 O   0  0  0  0  0  0  0  0  0  0  0  0
    3.9683   -1.9003    0.0000 O   0  0  0  0  0  0  0  0  0  0  0  0
    9.8836    1.2163    0.0000 O   0  0  0  0  0  0  0  0  0  0  0  0
    6.8225    1.4244    0.0000 O   0  0  0  0  0  0  0  0  0  0  0  0
    2.7309    0.2433    0.0000 O   0  0  0  0  0  0  0  0  0  0  0  0
    1.9058   -1.1857    0.0000 O   0  0  0  0  0  0  0  0  0  0  0  0
   10.8902    3.4774    0.0000 O   0  0  0  0  0  0  0  0  0  0  0  0
    9.8111   -0.5106    0.0000 O   0  0  0  0  0  0  0  0  0  0  0  0
   11.8601    2.1425    0.0000 O   0  0  0  0  0  0  0  0  0  0  0  0
    3.1434   -3.3292    0.0000 O   0  0  0  0  0  0  0  0  0  0  0  0
    5.5078   -3.1377    0.0000 N   0  0  0  0  0  0  0  0  0  0  0  0
    8.0638   -2.8358    0.0000 N   0  0  0  0  0  0  0  0  0  0  0  0
    4.3808    0.2432    0.0000 N   0  0  0  0  0  0  0  0  0  0  0  0
    9.2493    3.3049    0.0000 N   0  0  0  0  0  0  0  0  0  0  0  0
   12.0095    0.7213    0.0000 N   0  0  0  0  0  0  0  0  0  0  0  0
    6.6349   -1.1857    0.0000 C   0  0  1  0  0  0  0  0  0  0  0  0
    5.9203   -1.5982    0.0000 C   0  0  1  0  0  0  0  0  0  0  0  0
    5.9203   -2.4232    0.0000 C   0  0  2  0  0  0  0  0  0  0  0  0
    7.3493   -1.5982    0.0000 C   0  0  2  0  0  0  0  0  0  0  0  0
    7.3493   -2.4232    0.0000 C   0  0  1  0  0  0  0  0  0  0  0  0
    6.6349   -2.8358    0.0000 C   0  0  0  0  0  0  0  0  0  0  0  0
    7.3493    0.0518    0.0000 C   0  0  2  0  0  0  0  0  0  0  0  0
    8.2426    1.0438    0.0000 C   0  0  1  0  0  0  0  0  0  0  0  0
    7.4356    0.8723    0.0000 C   0  0  1  0  0  0  0  0  0  0  0  0
    8.6551    0.3293    0.0000 C   0  0  1  0  0  0  0  0  0  0  0  0
    4.3808   -1.1857    0.0000 C   0  0  1  0  0  0  0  0  0  0  0  0
    3.9684   -0.4712    0.0000 C   0  0  1  0  0  0  0  0  0  0  0  0
    3.1433   -0.4712    0.0000 C   0  0  2  0  0  0  0  0  0  0  0  0
    9.3986    1.8838    0.0000 C   0  0  1  0  0  0  0  0  0  0  0  0
    2.7308   -1.1857    0.0000 C   0  0  1  0  0  0  0  0  0  0  0  0
    9.7341    2.6375    0.0000 C   0  0  1  0  0  0  0  0  0  0  0  0
    3.1433   -1.9002    0.0000 C   0  0  1  0  0  0  0  0  0  0  0  0
   10.5547    2.7237    0.0000 C   0  0  2  0  0  0  0  0  0  0  0  0
    9.4756    0.2431    0.0000 C   0  0  0  0  0  0  0  0  0  0  0  0
   11.0397    2.0563    0.0000 C   0  0  1  0  0  0  0  0  0  0  0  0
   10.7040    1.3025    0.0000 C   0  0  2  0  0  0  0  0  0  0  0  0
    2.7308   -2.6147    0.0000 C   0  0  0  0  0  0  0  0  0  0  0  0
   11.1890    0.6351    0.0000 C   0  0  0  0  0  0  0  0  0  0  0  0
    8.9038   -1.6707    0.0000 H   0  0  0  0  0  0  0  0  0  0  0  0
    7.0242    2.3732    0.0000 H   0  0  0  0  0  0  0  0  0  0  0  0
    3.2160    1.0833    0.0000 H   0  0  0  0  0  0  0  0  0  0  0  0
    1.4208   -0.3457    0.0000 H   0  0  0  0  0  0  0  0  0  0  0  0
   11.8549    3.5789    0.0000 H   0  0  0  0  0  0  0  0  0  0  0  0
    9.2409   -1.2953    0.0000 H   0  0  0  0  0  0  0  0  0  0  0  0
   12.4302    1.3577    0.0000 H   0  0  0  0  0  0  0  0  0  0  0  0
    2.6585   -4.1693    0.0000 H   0  0  0  0  0  0  0  0  0  0  0  0
    4.4878   -3.1377    0.0000 H   0  0  0  0  0  0  0  0  0  0  0  0
    6.0178   -4.0210    0.0000 H   0  0  0  0  0  0  0  0  0  0  0  0
    8.0637   -3.8558    0.0000 H   0  0  0  0  0  0  0  0  0  0  0  0
    8.9472   -2.3259    0.0000 H   0  0  0  0  0  0  0  0  0  0  0  0
    5.4008    0.2433    0.0000 H   0  0  0  0  0  0  0  0  0  0  0  0
    3.8707    1.1265    0.0000 H   0  0  0  0  0  0  0  0  0  0  0  0
    9.6643    4.2367    0.0000 H   0  0  0  0  0  0  0  0  0  0  0  0
    8.2349    3.1984    0.0000 H   0  0  0  0  0  0  0  0  0  0  0  0
   12.6090   -0.1039    0.0000 H   0  0  0  0  0  0  0  0  0  0  0  0
   12.4244    1.6531    0.0000 H   0  0  0  0  0  0  0  0  0  0  0  0
    5.7083   -0.6507    0.0000 H   0  0  0  0  0  0  0  0  0  0  0  0
    5.9204   -0.5282    0.0000 H   0  0  0  0  0  0  0  0  0  0  0  0
    4.8868   -2.1463    0.0000 H   0  0  0  0  0  0  0  0  0  0  0  0
    7.3493   -0.5282    0.0000 H   0  0  0  0  0  0  0  0  0  0  0  0
    8.2760   -1.8882    0.0000 H   0  0  0  0  0  0  0  0  0  0  0  0
    6.6350   -3.9058    0.0000 H   0  0  0  0  0  0  0  0  0  0  0  0
    7.5616   -3.3707    0.0000 H   0  0  0  0  0  0  0  0  0  0  0  0
    7.4054   -1.0167    0.0000 H   0  0  0  0  0  0  0  0  0  0  0  0
    7.5692    1.8753    0.0000 H   0  0  0  0  0  0  0  0  0  0  0  0
    6.4366    0.4889    0.0000 H   0  0  0  0  0  0  0  0  0  0  0  0
    9.0385   -0.6696    0.0000 H   0  0  0  0  0  0  0  0  0  0  0  0
    4.9158   -2.1123    0.0000 H   0  0  0  0  0  0  0  0  0  0  0  0
    5.0384   -0.4712    0.0000 H   0  0  0  0  0  0  0  0  0  0  0  0
    3.6784    0.4554    0.0000 H   0  0  0  0  0  0  0  0  0  0  0  0
    8.9634    0.9063    0.0000 H   0  0  0  0  0  0  0  0  0  0  0  0
    2.1958   -0.2591    0.0000 H   0  0  0  0  0  0  0  0  0  0  0  0
    8.6700    2.5257    0.0000 H   0  0  0  0  0  0  0  0  0  0  0  0
    3.6783   -2.8269    0.0000 H   0  0  0  0  0  0  0  0  0  0  0  0
    9.9258    3.5893    0.0000 H   0  0  0  0  0  0  0  0  0  0  0  0
   10.1045    1.1087    0.0000 H   0  0  0  0  0  0  0  0  0  0  0  0
    9.0404    1.2206    0.0000 H   0  0  0  0  0  0  0  0  0  0  0  0
   11.4749    3.0338    0.0000 H   0  0  0  0  0  0  0  0  0  0  0  0
   10.2688    0.3250    0.0000 H   0  0  0  0  0  0  0  0  0  0  0  0
    1.6608   -2.6148    0.0000 H   0  0  0  0  0  0  0  0  0  0  0  0
    2.1958   -1.6881    0.0000 H   0  0  0  0  0  0  0  0  0  0  0  0
   10.7538   -0.3424    0.0000 H   0  0  0  0  0  0  0  0  0  0  0  0
   10.1249    0.5232    0.0000 H   0  0  0  0  0  0  0  0  0  0  0  0
  3 26  1  0  0  0  0
  3 29  1  0  0  0  0
  5 43  1  0  0  0  0
  6 30  1  0  0  0  0
  6 36  1  0  0  0  0
  7 33  1  0  0  0  0
  7 40  1  0  0  0  0
  8 44  1  0  0  0  0
  9 45  1  0  0  0  0
 10 46  1  0  0  0  0
 11 47  1  0  0  0  0
 12 38  1  0  0  0  0
 12 48  1  0  0  0  0
 13 49  1  0  0  0  0
 14 41  1  0  0  0  0
 14 50  1  0  0  0  0
 15 51  1  0  0  0  0
 15 52  1  0  0  0  0
 16 53  1  0  0  0  0
 16 54  1  0  0  0  0
 17 55  1  0  0  0  0
 17 56  1  0  0  0  0
 18 57  1  0  0  0  0
 18 58  1  0  0  0  0
 19 42  1  0  0  0  0
 19 59  1  0  0  0  0
 19 60  1  0  0  0  0
 20  1  1  0  0  0  0
 20 21  1  0  0  0  0
 20 23  1  0  0  0  0
 20 61  1  1  0  0  0
 21  2  1  0  0  0  0
 21 22  1  0  0  0  0
 21 62  1  6  0  0  0
 22 15  1  0  0  0  0
 22 25  1  0  0  0  0
 22 63  1  1  0  0  0
 23  5  1  0  0  0  0
 23 24  1  0  0  0  0
 23 64  1  6  0  0  0
 24 16  1  0  0  0  0
 24 25  1  0  0  0  0
 24 65  1  1  0  0  0
 25 66  1  0  0  0  0
 25 67  1  0  0  0  0
 26  1  1  0  0  0  0
 26 28  1  0  0  0  0
 26 68  1  6  0  0  0
 27  4  1  0  0  0  0
 27 28  1  0  0  0  0
 27 29  1  0  0  0  0
 27 69  1  1  0  0  0
 28  8  1  0  0  0  0
 28 70  1  1  0  0  0
 29 38  1  0  0  0  0
 29 71  1  6  0  0  0
 30  2  1  0  0  0  0
 30 31  1  0  0  0  0
 30 72  1  6  0  0  0
 31 17  1  0  0  0  0
 31 32  1  0  0  0  0
 31 73  1  6  0  0  0
 32  9  1  0  0  0  0
 32 34  1  0  0  0  0
 32 74  1  1  0  0  0
 33  4  1  0  0  0  0
 33 35  1  0  0  0  0
 33 75  1  1  0  0  0
 34 10  1  0  0  0  0
 34 36  1  0  0  0  0
 34 76  1  6  0  0  0
 35 18  1  0  0  0  0
 35 37  1  0  0  0  0
 35 77  1  1  0  0  0
 36 41  1  0  0  0  0
 36 78  1  1  0  0  0
 37 11  1  0  0  0  0
 37 39  1  0  0  0  0
 37 79  1  6  0  0  0
 38 80  1  0  0  0  0
 38 81  1  0  0  0  0
 39 13  1  0  0  0  0
 39 40  1  0  0  0  0
 39 82  1  1  0  0  0
 40 42  1  0  0  0  0
 40 83  1  1  0  0  0
 41 84  1  0  0  0  0
 41 85  1  0  0  0  0
 42 86  1  0  0  0  0
 42 87  1  0  0  0  0
M  END
>  <DRUGBANK_ID>
DB01421

>  <COMMON_NAME>
Paromomycin

>  <CAS_NUMBER>
7542-37-2

>  <UNII>
61JJC8N5ZK

>  <SYNONYMS>
(1R,2R,3S,4R,6S)-4,6-diamino-2-{[3-O-(2,6-diamino-2,6-dideoxy-beta-L-idopyranosyl)-beta-D-ribofuranosyl]oxy}-3-hydroxycyclohexyl 2-amino-2-deoxy-alpha-D-glucopyranoside; Aminosidin; Aminosidine; Catenulin; Crestomycin; Estomycin; Hydroxymycin; Monomycin A; Neomycin E; Paromomicina; Paromomycin; Paromomycin I; Paromomycine; Paromomycinum; Paucimycin; Paucimycinum; Zygomycin A1

$$$$
