S11
 OpenBabel10282417072D

 49 51  0  0  0  0  0  0  0  0999 V2000
    1.6663   -0.0583    0.0000 N   0  0  0  0  0  0  0  0  0  0  0  0
    1.4113   -0.8429    0.0000 C   0  0  0  0  0  0  0  0  0  0  0  0
    0.5863   -0.8429    0.0000 C   0  0  0  0  0  0  0  0  0  0  0  0
    0.3314   -0.0583    0.0000 N   0  0  0  0  0  0  0  0  0  0  0  0
    0.9988    0.4267    0.0000 C   0  0  0  0  0  0  0  0  0  0  0  0
   -0.7191   -1.4241    0.0000 C   0  0  0  0  0  0  0  0  0  0  0  0
    0.1014   -1.5103    0.0000 S   0  0  0  0  0  0  0  0  0  0  0  0
   -1.2040   -2.0915    0.0000 C   0  0  0  0  0  0  0  0  0  0  0  0
   -2.0245   -2.0053    0.0000 C   0  0  0  0  0  0  0  0  0  0  0  0
   -2.5094   -2.6727    0.0000 Cl  0  0  0  0  0  0  0  0  0  0  0  0
   -2.3600   -1.2516    0.0000 C   0  0  0  0  0  0  0  0  0  0  0  0
   -1.8751   -0.5842    0.0000 C   0  0  0  0  0  0  0  0  0  0  0  0
   -2.2107    0.1695    0.0000 Cl  0  0  0  0  0  0  0  0  0  0  0  0
   -1.0546   -0.6704    0.0000 C   0  0  0  0  0  0  0  0  0  0  0  0
    1.8962   -1.5103    0.0000 C   0  0  0  0  0  0  0  0  0  0  0  0
    1.5607   -2.2640    0.0000 C   0  0  0  0  0  0  0  0  0  0  0  0
    2.7167   -1.4241    0.0000 C   0  0  0  0  0  0  0  0  0  0  0  0
   -0.4532    0.1967    0.0000 C   0  0  0  0  0  0  0  0  0  0  0  0
   -0.6248    1.0037    0.0000 C   0  0  0  0  0  0  0  0  0  0  0  0
   -1.4094    1.2586    0.0000 C   0  0  0  0  0  0  0  0  0  0  0  0
   -1.5809    2.0656    0.0000 C   0  0  0  0  0  0  0  0  0  0  0  0
   -0.9678    2.6176    0.0000 N   0  0  0  0  0  0  0  0  0  0  0  0
   -0.1832    2.3627    0.0000 C   0  0  0  0  0  0  0  0  0  0  0  0
   -0.0117    1.5557    0.0000 C   0  0  0  0  0  0  0  0  0  0  0  0
    0.9988    1.2517    0.0000 C   0  0  0  0  0  0  0  0  0  0  0  0
    1.7133    1.6642    0.0000 O   0  0  0  0  0  0  0  0  0  0  0  0
    1.7133    2.4892    0.0000 C   0  0  0  0  0  0  0  0  0  0  0  0
    0.9988    2.9017    0.0000 N   0  0  0  0  0  0  0  0  0  0  0  0
    2.4278    2.9017    0.0000 O   0  0  0  0  0  0  0  0  0  0  0  0
   -0.7842   -3.0343    0.0000 H   0  0  0  0  0  0  0  0  0  0  0  0
   -3.3863   -1.1437    0.0000 H   0  0  0  0  0  0  0  0  0  0  0  0
   -0.4480    0.1645    0.0000 H   0  0  0  0  0  0  0  0  0  0  0  0
    2.5251   -2.3759    0.0000 H   0  0  0  0  0  0  0  0  0  0  0  0
    0.4966   -2.3759    0.0000 H   0  0  0  0  0  0  0  0  0  0  0  0
    2.1897   -3.1296    0.0000 H   0  0  0  0  0  0  0  0  0  0  0  0
    1.1256   -3.2415    0.0000 H   0  0  0  0  0  0  0  0  0  0  0  0
    3.3456   -2.2898    0.0000 H   0  0  0  0  0  0  0  0  0  0  0  0
    3.1520   -0.4466    0.0000 H   0  0  0  0  0  0  0  0  0  0  0  0
    3.7808   -1.3123    0.0000 H   0  0  0  0  0  0  0  0  0  0  0  0
   -1.2484   -0.5193    0.0000 H   0  0  0  0  0  0  0  0  0  0  0  0
   -1.4708    0.5273    0.0000 H   0  0  0  0  0  0  0  0  0  0  0  0
   -2.1763    0.5681    0.0000 H   0  0  0  0  0  0  0  0  0  0  0  0
   -2.5624    2.3845    0.0000 H   0  0  0  0  0  0  0  0  0  0  0  0
    0.5837    3.0532    0.0000 H   0  0  0  0  0  0  0  0  0  0  0  0
    0.9698    1.2368    0.0000 H   0  0  0  0  0  0  0  0  0  0  0  0
    0.0722    1.7867    0.0000 H   0  0  0  0  0  0  0  0  0  0  0  0
    0.9988    2.3217    0.0000 H   0  0  0  0  0  0  0  0  0  0  0  0
    0.9988    3.8862    0.0000 H   0  0  0  0  0  0  0  0  0  0  0  0
    0.1462    2.4094    0.0000 H   0  0  0  0  0  0  0  0  0  0  0  0
  1  2  1  0  0  0  0
  1  5  2  0  0  0  0
  2  3  2  0  0  0  0
  2 15  1  0  0  0  0
  3  4  1  0  0  0  0
  3  7  1  0  0  0  0
  4  5  1  0  0  0  0
  4 18  1  0  0  0  0
  5 25  1  0  0  0  0
  6  7  1  0  0  0  0
  6  8  2  0  0  0  0
  6 14  1  0  0  0  0
  8  9  1  0  0  0  0
  8 30  1  0  0  0  0
  9 10  1  0  0  0  0
  9 11  2  0  0  0  0
 11 12  1  0  0  0  0
 11 31  1  0  0  0  0
 12 13  1  0  0  0  0
 12 14  2  0  0  0  0
 14 32  1  0  0  0  0
 15 16  1  0  0  0  0
 15 17  1  0  0  0  0
 15 33  1  0  0  0  0
 16 34  1  0  0  0  0
 16 35  1  0  0  0  0
 16 36  1  0  0  0  0
 17 37  1  0  0  0  0
 17 38  1  0  0  0  0
 17 39  1  0  0  0  0
 18 19  1  0  0  0  0
 18 40  1  0  0  0  0
 18 41  1  0  0  0  0
 19 20  2  0  0  0  0
 19 24  1  0  0  0  0
 20 21  1  0  0  0  0
 20 42  1  0  0  0  0
 21 22  2  0  0  0  0
 21 43  1  0  0  0  0
 22 23  1  0  0  0  0
 23 24  2  0  0  0  0
 23 44  1  0  0  0  0
 24 45  1  0  0  0  0
 25 26  1  0  0  0  0
 25 46  1  0  0  0  0
 25 47  1  0  0  0  0
 26 27  1  0  0  0  0
 27 28  1  0  0  0  0
 27 29  2  0  0  0  0
 28 48  1  0  0  0  0
 28 49  1  0  0  0  0
M  END
>  <DRUGBANK_ID>
DB08502

>  <SECONDARY_ACCESSION_NUMBERS>
DB06456

>  <COMMON_NAME>
Capravirine

>  <CAS_NUMBER>
178979-85-6

>  <UNII>
VHC779598X

>  <SYNONYMS>
Capravirina; Capravirine; Capravirinum

$$$$
