401
 OpenBabel10282417072D

 51 52  0  0  0  0  0  0  0  0999 V2000
   -1.1637    4.2127    0.0000 O   0  0  0  0  0  0  0  0  0  0  0  0
    0.2652    4.2127    0.0000 O   0  0  0  0  0  0  0  0  0  0  0  0
   -0.4493    3.8002    0.0000 C   0  0  0  0  0  0  0  0  0  0  0  0
   -0.4493    2.9752    0.0000 C   0  0  1  0  0  0  0  0  0  0  0  0
   -1.1637    2.5627    0.0000 C   0  0  0  0  0  0  0  0  0  0  0  0
   -1.1637    1.7377    0.0000 C   0  0  0  0  0  0  0  0  0  0  0  0
    0.2652    2.5627    0.0000 C   0  0  0  0  0  0  0  0  0  0  0  0
    0.2652    1.7377    0.0000 C   0  0  0  0  0  0  0  0  0  0  0  0
    0.9797    1.3252    0.0000 C   0  0  0  0  0  0  0  0  0  0  0  0
    0.9797    0.5002    0.0000 C   0  0  0  0  0  0  0  0  0  0  0  0
    0.2652    0.0877    0.0000 C   0  0  0  0  0  0  0  0  0  0  0  0
   -0.4493    0.5002    0.0000 C   0  0  0  0  0  0  0  0  0  0  0  0
   -0.4493    1.3252    0.0000 C   0  0  0  0  0  0  0  0  0  0  0  0
    0.2652   -0.7373    0.0000 O   0  0  0  0  0  0  0  0  0  0  0  0
   -0.4493   -1.1498    0.0000 C   0  0  0  0  0  0  0  0  0  0  0  0
    1.6942    0.0877    0.0000 C   0  0  0  0  0  0  0  0  0  0  0  0
    1.6942   -0.7373    0.0000 N   0  0  0  0  0  0  0  0  0  0  0  0
    2.4086   -1.1498    0.0000 C   0  0  0  0  0  0  0  0  0  0  0  0
    3.1231   -0.7373    0.0000 O   0  0  0  0  0  0  0  0  0  0  0  0
    2.4086   -1.9748    0.0000 C   0  0  0  0  0  0  0  0  0  0  0  0
    3.1231   -2.3873    0.0000 C   0  0  0  0  0  0  0  0  0  0  0  0
    3.1231   -3.2123    0.0000 C   0  0  0  0  0  0  0  0  0  0  0  0
    2.4086   -3.6248    0.0000 C   0  0  0  0  0  0  0  0  0  0  0  0
    1.6942   -3.2123    0.0000 C   0  0  0  0  0  0  0  0  0  0  0  0
    1.6942   -2.3873    0.0000 C   0  0  0  0  0  0  0  0  0  0  0  0
    2.4086   -4.4498    0.0000 C   0  0  0  0  0  0  0  0  0  0  0  0
    3.8376   -1.9748    0.0000 F   0  0  0  0  0  0  0  0  0  0  0  0
    2.4086   -5.2748    0.0000 F   0  0  0  0  0  0  0  0  0  0  0  0
    1.5836   -4.4498    0.0000 F   0  0  0  0  0  0  0  0  0  0  0  0
    3.2336   -4.4498    0.0000 F   0  0  0  0  0  0  0  0  0  0  0  0
   -0.9550    3.2672    0.0000 H   0  0  0  0  0  0  0  0  0  0  0  0
   -1.1637    5.1497    0.0000 H   0  0  0  0  0  0  0  0  0  0  0  0
   -2.0904    3.0977    0.0000 H   0  0  0  0  0  0  0  0  0  0  0  0
   -2.0903    2.0277    0.0000 H   0  0  0  0  0  0  0  0  0  0  0  0
   -2.0903    1.2027    0.0000 H   0  0  0  0  0  0  0  0  0  0  0  0
   -0.2371    1.2027    0.0000 H   0  0  0  0  0  0  0  0  0  0  0  0
   -1.1637    0.6677    0.0000 H   0  0  0  0  0  0  0  0  0  0  0  0
    1.1918    3.0977    0.0000 H   0  0  0  0  0  0  0  0  0  0  0  0
    1.1918    2.0277    0.0000 H   0  0  0  0  0  0  0  0  0  0  0  0
    1.8734    1.8412    0.0000 H   0  0  0  0  0  0  0  0  0  0  0  0
   -1.3430   -0.0158    0.0000 H   0  0  0  0  0  0  0  0  0  0  0  0
   -1.3430    1.8412    0.0000 H   0  0  0  0  0  0  0  0  0  0  0  0
   -1.3759   -0.6148    0.0000 H   0  0  0  0  0  0  0  0  0  0  0  0
   -0.4493   -2.2198    0.0000 H   0  0  0  0  0  0  0  0  0  0  0  0
   -1.3760   -1.6848    0.0000 H   0  0  0  0  0  0  0  0  0  0  0  0
    2.6208    0.6227    0.0000 H   0  0  0  0  0  0  0  0  0  0  0  0
    2.6208   -0.4473    0.0000 H   0  0  0  0  0  0  0  0  0  0  0  0
    0.8416   -1.2295    0.0000 H   0  0  0  0  0  0  0  0  0  0  0  0
    4.0168   -3.7283    0.0000 H   0  0  0  0  0  0  0  0  0  0  0  0
    0.8005   -3.7283    0.0000 H   0  0  0  0  0  0  0  0  0  0  0  0
    0.8005   -1.8713    0.0000 H   0  0  0  0  0  0  0  0  0  0  0  0
  1  3  1  0  0  0  0
  1 32  1  0  0  0  0
  2  3  2  0  0  0  0
  3  4  1  0  0  0  0
  4  5  1  0  0  0  0
  4  7  1  0  0  0  0
  4 31  1  1  0  0  0
  5  6  1  0  0  0  0
  5 33  1  0  0  0  0
  5 34  1  0  0  0  0
  6 35  1  0  0  0  0
  6 36  1  0  0  0  0
  6 37  1  0  0  0  0
  7  8  1  0  0  0  0
  7 38  1  0  0  0  0
  7 39  1  0  0  0  0
  8  9  2  0  0  0  0
  8 13  1  0  0  0  0
  9 10  1  0  0  0  0
  9 40  1  0  0  0  0
 10 11  2  0  0  0  0
 10 16  1  0  0  0  0
 11 12  1  0  0  0  0
 11 14  1  0  0  0  0
 12 13  2  0  0  0  0
 12 41  1  0  0  0  0
 13 42  1  0  0  0  0
 14 15  1  0  0  0  0
 15 43  1  0  0  0  0
 15 44  1  0  0  0  0
 15 45  1  0  0  0  0
 16 17  1  0  0  0  0
 16 46  1  0  0  0  0
 16 47  1  0  0  0  0
 17 18  1  0  0  0  0
 17 48  1  0  0  0  0
 18 19  2  0  0  0  0
 18 20  1  0  0  0  0
 20 21  2  0  0  0  0
 20 25  1  0  0  0  0
 21 22  1  0  0  0  0
 21 27  1  0  0  0  0
 22 23  2  0  0  0  0
 22 49  1  0  0  0  0
 23 24  1  0  0  0  0
 23 26  1  0  0  0  0
 24 25  2  0  0  0  0
 24 50  1  0  0  0  0
 25 51  1  0  0  0  0
 26 28  1  0  0  0  0
 26 29  1  0  0  0  0
 26 30  1  0  0  0  0
M  END
>  <DRUGBANK_ID>
DB07070

>  <COMMON_NAME>
(2S)-2-{3-[({[2-fluoro-4-(trifluoromethyl)phenyl]carbonyl}amino)methyl]-4-methoxybenzyl}butanoic acid

$$$$
