
 OpenBabel10282417072D

 28 29  0  0  0  0  0  0  0  0999 V2000
    2.0793   -0.2612    0.0000 S   0  0  0  0  0  0  0  0  0  0  0  0
    0.6616    1.3365    0.0000 O   0  0  0  0  0  0  0  0  0  0  0  0
   -0.1510   -0.3295    0.0000 N   0  0  0  0  0  0  0  0  0  0  0  0
    0.8319   -1.3224    0.0000 N   0  0  0  0  0  0  0  0  0  0  0  0
   -0.5051    0.4154    0.0000 C   0  0  1  0  0  0  0  0  0  0  0  0
   -1.3302    0.4195    0.0000 C   0  0  0  0  0  0  0  0  0  0  0  0
   -0.1435    1.1570    0.0000 C   0  0  0  0  0  0  0  0  0  0  0  0
   -1.7391    1.1360    0.0000 C   0  0  0  0  0  0  0  0  0  0  0  0
    1.3040    0.8189    0.0000 C   0  0  0  0  0  0  0  0  0  0  0  0
    0.6523   -0.5171    0.0000 C   0  0  0  0  0  0  0  0  0  0  0  0
    1.3000   -0.0060    0.0000 C   0  0  0  0  0  0  0  0  0  0  0  0
   -2.5641    1.1401    0.0000 C   0  0  0  0  0  0  0  0  0  0  0  0
    2.0860    1.0664    0.0000 C   0  0  0  0  0  0  0  0  0  0  0  0
    2.5641    0.4001    0.0000 C   0  0  0  0  0  0  0  0  0  0  0  0
    0.1069   -1.9884    0.0000 H   0  0  0  0  0  0  0  0  0  0  0  0
    1.7712   -1.6173    0.0000 H   0  0  0  0  0  0  0  0  0  0  0  0
   -1.0789   -0.4877    0.0000 H   0  0  0  0  0  0  0  0  0  0  0  0
   -1.8698   -0.5045    0.0000 H   0  0  0  0  0  0  0  0  0  0  0  0
   -2.4002    0.4248    0.0000 H   0  0  0  0  0  0  0  0  0  0  0  0
   -0.8065    1.9969    0.0000 H   0  0  0  0  0  0  0  0  0  0  0  0
   -1.2073    1.0424    0.0000 H   0  0  0  0  0  0  0  0  0  0  0  0
   -1.1995    2.0600    0.0000 H   0  0  0  0  0  0  0  0  0  0  0  0
   -2.2695    2.0653    0.0000 H   0  0  0  0  0  0  0  0  0  0  0  0
   -3.0945    2.0694    0.0000 H   0  0  0  0  0  0  0  0  0  0  0  0
   -3.1037    0.2161    0.0000 H   0  0  0  0  0  0  0  0  0  0  0  0
   -3.6341    1.1454    0.0000 H   0  0  0  0  0  0  0  0  0  0  0  0
    2.4115    2.0457    0.0000 H   0  0  0  0  0  0  0  0  0  0  0  0
    3.5961    0.3948    0.0000 H   0  0  0  0  0  0  0  0  0  0  0  0
  1 11  1  0  0  0  0
  1 14  1  0  0  0  0
  2  7  1  0  0  0  0
  2  9  1  0  0  0  0
  3  5  1  0  0  0  0
  3 10  2  0  0  0  0
  4 10  1  0  0  0  0
  4 15  1  0  0  0  0
  4 16  1  0  0  0  0
  5  6  1  0  0  0  0
  5  7  1  0  0  0  0
  5 17  1  6  0  0  0
  6  8  1  0  0  0  0
  6 18  1  0  0  0  0
  6 19  1  0  0  0  0
  7 20  1  0  0  0  0
  7 21  1  0  0  0  0
  8 12  1  0  0  0  0
  8 22  1  0  0  0  0
  8 23  1  0  0  0  0
  9 11  2  0  0  0  0
  9 13  1  0  0  0  0
 10 11  1  0  0  0  0
 12 24  1  0  0  0  0
 12 25  1  0  0  0  0
 12 26  1  0  0  0  0
 13 14  2  0  0  0  0
 13 27  1  0  0  0  0
 14 28  1  0  0  0  0
M  END
>  <DRUGBANK_ID>
DB07001

>  <COMMON_NAME>
(3S,5E)-3-propyl-3,4-dihydrothieno[2,3-f][1,4]oxazepin-5(2H)-imine

$$$$
