
 OpenBabel10282417072D

 31 32  0  0  1  0  0  0  0  0999 V2000
   -0.7145    0.8071    0.0000 C   0  0  0  0  0  0  0  0  0  0  0  0
    0.0000    0.3946    0.0000 C   0  0  0  0  0  0  0  0  0  0  0  0
    0.0000   -0.4304    0.0000 C   0  0  0  0  0  0  0  0  0  0  0  0
   -0.7145   -0.8429    0.0000 N   0  0  0  0  0  0  0  0  0  0  0  0
    0.7145    0.8071    0.0000 N   0  0  0  0  0  0  0  0  0  0  0  0
    0.7145   -0.8429    0.0000 N   0  0  0  0  0  0  0  0  0  0  0  0
   -1.4289    0.3946    0.0000 N   0  0  0  0  0  0  0  0  0  0  0  0
   -1.4289   -0.4304    0.0000 C   0  0  0  0  0  0  0  0  0  0  0  0
    1.4289    0.3946    0.0000 C   0  0  0  0  0  0  0  0  0  0  0  0
    1.4289   -0.4304    0.0000 C   0  0  0  0  0  0  0  0  0  0  0  0
   -0.7145    1.6321    0.0000 O   0  0  0  0  0  0  0  0  0  0  0  0
   -2.1434   -0.8429    0.0000 N   0  0  0  0  0  0  0  0  0  0  0  0
    2.1434    0.8070    0.0000 C   0  0  1  0  0  0  0  0  0  0  0  0
    2.8579    0.3945    0.0000 C   0  0  2  0  0  0  0  0  0  0  0  0
    2.1434    1.6320    0.0000 O   0  0  0  0  0  0  0  0  0  0  0  0
    2.8579   -0.4305    0.0000 O   0  0  0  0  0  0  0  0  0  0  0  0
    3.5724    0.8070    0.0000 C   0  0  0  0  0  0  0  0  0  0  0  0
    4.2868    0.3945    0.0000 O   0  0  0  0  0  0  0  0  0  0  0  0
    0.7145   -1.8274    0.0000 H   0  0  0  0  0  0  0  0  0  0  0  0
   -2.2815    0.8868    0.0000 H   0  0  0  0  0  0  0  0  0  0  0  0
    2.3556   -0.9654    0.0000 H   0  0  0  0  0  0  0  0  0  0  0  0
    1.4289   -1.5004    0.0000 H   0  0  0  0  0  0  0  0  0  0  0  0
   -2.9960   -0.3506    0.0000 H   0  0  0  0  0  0  0  0  0  0  0  0
   -2.1434   -1.8274    0.0000 H   0  0  0  0  0  0  0  0  0  0  0  0
    1.2168    1.3421    0.0000 H   0  0  0  0  0  0  0  0  0  0  0  0
    1.9313   -0.1405    0.0000 H   0  0  0  0  0  0  0  0  0  0  0  0
    2.9834    2.1170    0.0000 H   0  0  0  0  0  0  0  0  0  0  0  0
    2.0179   -0.9155    0.0000 H   0  0  0  0  0  0  0  0  0  0  0  0
    3.5724    1.8770    0.0000 H   0  0  0  0  0  0  0  0  0  0  0  0
    4.4991    1.3420    0.0000 H   0  0  0  0  0  0  0  0  0  0  0  0
    4.2868   -0.5755    0.0000 H   0  0  0  0  0  0  0  0  0  0  0  0
  1  2  1  0  0  0  0
  1  7  1  0  0  0  0
  2  3  2  0  0  0  0
  4  3  1  0  0  0  0
  5  2  1  0  0  0  0
  6  3  1  0  0  0  0
  6 19  1  0  0  0  0
  7 20  1  0  0  0  0
  8  4  2  0  0  0  0
  8  7  1  0  0  0  0
  9  5  2  0  0  0  0
 10  9  1  0  0  0  0
 10  6  1  0  0  0  0
 10 21  1  0  0  0  0
 10 22  1  0  0  0  0
 11  1  2  0  0  0  0
 12  8  1  0  0  0  0
 12 23  1  0  0  0  0
 12 24  1  0  0  0  0
 13  9  1  0  0  0  0
 13 15  1  0  0  0  0
 13 25  1  1  0  0  0
 14 13  1  0  0  0  0
 14 16  1  0  0  0  0
 14 17  1  0  0  0  0
 14 26  1  6  0  0  0
 15 27  1  0  0  0  0
 16 28  1  0  0  0  0
 17 18  1  0  0  0  0
 17 29  1  0  0  0  0
 17 30  1  0  0  0  0
 18 31  1  0  0  0  0
M  END
>  <DRUGBANK_ID>
DB04425

>  <SECONDARY_ACCESSION_NUMBERS>
EXPT02386

>  <COMMON_NAME>
7,8-Dihydroneopterin

$$$$
