
 OpenBabel10282417072D

 84 89  0  0  0  0  0  0  0  0999 V2000
   -0.7522    0.6227    0.0000 C   0  0  1  0  0  0  0  0  0  0  0  0
   -0.7522   -0.2022    0.0000 C   0  0  2  0  0  0  0  0  0  0  0  0
   -1.4667   -0.6147    0.0000 C   0  0  0  0  0  0  0  0  0  0  0  0
   -1.4667    1.0352    0.0000 C   0  0  0  0  0  0  0  0  0  0  0  0
   -2.1812    0.6227    0.0000 N   0  0  3  0  0  0  0  0  0  0  0  0
   -2.1812   -0.2022    0.0000 C   0  0  1  0  0  0  0  0  0  0  0  0
   -2.8956    1.0352    0.0000 C   0  0  0  0  0  0  0  0  0  0  0  0
   -3.6101    0.6227    0.0000 C   0  0  0  0  0  0  0  0  0  0  0  0
   -0.0378    1.0352    0.0000 C   0  0  0  0  0  0  0  0  0  0  0  0
   -2.8956   -0.6147    0.0000 C   0  0  0  0  0  0  0  0  0  0  0  0
   -3.6101   -0.2022    0.0000 C   0  0  0  0  0  0  0  0  0  0  0  0
   -3.0672   -1.4217    0.0000 N   0  0  0  0  0  0  0  0  0  0  0  0
   -3.8876   -1.5079    0.0000 C   0  0  0  0  0  0  0  0  0  0  0  0
   -4.2232   -0.7542    0.0000 C   0  0  0  0  0  0  0  0  0  0  0  0
   -4.3726   -2.1753    0.0000 C   0  0  0  0  0  0  0  0  0  0  0  0
   -5.0437   -0.6680    0.0000 C   0  0  0  0  0  0  0  0  0  0  0  0
   -5.5286   -1.3354    0.0000 C   0  0  0  0  0  0  0  0  0  0  0  0
   -2.1812   -1.0272    0.0000 H   0  0  0  0  0  0  0  0  0  0  0  0
   -0.7522   -1.0272    0.0000 H   0  0  0  0  0  0  0  0  0  0  0  0
   -0.7522    1.4477    0.0000 H   0  0  0  0  0  0  0  0  0  0  0  0
   -0.0378   -0.6147    0.0000 C   0  0  2  0  0  0  0  0  0  0  0  0
    0.6767   -1.8522    0.0000 O   0  0  0  0  0  0  0  0  0  0  0  0
   -0.0378   -1.4397    0.0000 C   0  0  0  0  0  0  0  0  0  0  0  0
   -0.7522   -1.8522    0.0000 O   0  0  0  0  0  0  0  0  0  0  0  0
    0.6767   -0.2022    0.0000 C   0  0  1  0  0  0  0  0  0  0  0  0
    1.3911   -0.6147    0.0000 O   0  0  0  0  0  0  0  0  0  0  0  0
   -5.1931   -2.0891    0.0000 C   0  0  0  0  0  0  0  0  0  0  0  0
   -5.6780   -2.7565    0.0000 O   0  0  0  0  0  0  0  0  0  0  0  0
    0.6767    0.6227    0.0000 C   0  0  2  0  0  0  0  0  0  0  0  0
   -5.3424   -3.5102    0.0000 C   0  0  0  0  0  0  0  0  0  0  0  0
   -0.7522   -2.6772    0.0000 C   0  0  0  0  0  0  0  0  0  0  0  0
    1.3911   -1.4397    0.0000 C   0  0  0  0  0  0  0  0  0  0  0  0
    3.5345    0.6227    0.0000 C   0  0  0  0  0  0  0  0  0  0  0  0
    4.2490    1.0352    0.0000 C   0  0  0  0  0  0  0  0  0  0  0  0
    2.8201    1.0352    0.0000 C   0  0  0  0  0  0  0  0  0  0  0  0
    2.8201    1.8602    0.0000 C   0  0  0  0  0  0  0  0  0  0  0  0
    4.2490    1.8602    0.0000 C   0  0  0  0  0  0  0  0  0  0  0  0
    3.5345    2.2727    0.0000 C   0  0  0  0  0  0  0  0  0  0  0  0
    1.3911    1.0352    0.0000 O   0  0  0  0  0  0  0  0  0  0  0  0
    2.1056   -0.2022    0.0000 O   0  0  0  0  0  0  0  0  0  0  0  0
    2.1056    0.6227    0.0000 C   0  0  0  0  0  0  0  0  0  0  0  0
    4.9635    0.6227    0.0000 O   0  0  0  0  0  0  0  0  0  0  0  0
    4.9635   -0.2022    0.0000 C   0  0  0  0  0  0  0  0  0  0  0  0
    4.9635    2.2727    0.0000 O   0  0  0  0  0  0  0  0  0  0  0  0
    5.6780    1.8602    0.0000 C   0  0  0  0  0  0  0  0  0  0  0  0
    3.5345    3.0977    0.0000 O   0  0  0  0  0  0  0  0  0  0  0  0
    4.2490    3.5102    0.0000 C   0  0  0  0  0  0  0  0  0  0  0  0
   -1.4667   -1.6847    0.0000 H   0  0  0  0  0  0  0  0  0  0  0  0
   -2.3933   -1.1497    0.0000 H   0  0  0  0  0  0  0  0  0  0  0  0
   -1.4667    2.1052    0.0000 H   0  0  0  0  0  0  0  0  0  0  0  0
   -2.3933    1.5702    0.0000 H   0  0  0  0  0  0  0  0  0  0  0  0
   -2.8956    2.1052    0.0000 H   0  0  0  0  0  0  0  0  0  0  0  0
   -3.8222    1.5702    0.0000 H   0  0  0  0  0  0  0  0  0  0  0  0
   -4.5367    1.1577    0.0000 H   0  0  0  0  0  0  0  0  0  0  0  0
   -4.5367    0.0877    0.0000 H   0  0  0  0  0  0  0  0  0  0  0  0
   -0.0378    2.1052    0.0000 H   0  0  0  0  0  0  0  0  0  0  0  0
    0.8888    1.5702    0.0000 H   0  0  0  0  0  0  0  0  0  0  0  0
   -2.4085   -2.1534    0.0000 H   0  0  0  0  0  0  0  0  0  0  0  0
   -3.9529   -3.1181    0.0000 H   0  0  0  0  0  0  0  0  0  0  0  0
   -5.4635    0.2748    0.0000 H   0  0  0  0  0  0  0  0  0  0  0  0
   -6.5549   -1.2275    0.0000 H   0  0  0  0  0  0  0  0  0  0  0  0
   -0.9645   -1.1497    0.0000 H   0  0  0  0  0  0  0  0  0  0  0  0
    0.6767   -1.2722    0.0000 H   0  0  0  0  0  0  0  0  0  0  0  0
    0.6767    1.6927    0.0000 H   0  0  0  0  0  0  0  0  0  0  0  0
   -5.9713   -4.3759    0.0000 H   0  0  0  0  0  0  0  0  0  0  0  0
   -4.2783   -3.6220    0.0000 H   0  0  0  0  0  0  0  0  0  0  0  0
   -4.9072   -4.4877    0.0000 H   0  0  0  0  0  0  0  0  0  0  0  0
   -1.6788   -3.2122    0.0000 H   0  0  0  0  0  0  0  0  0  0  0  0
    0.1744   -3.2122    0.0000 H   0  0  0  0  0  0  0  0  0  0  0  0
   -0.7522   -3.7472    0.0000 H   0  0  0  0  0  0  0  0  0  0  0  0
    0.4645   -1.9747    0.0000 H   0  0  0  0  0  0  0  0  0  0  0  0
    2.3177   -1.9747    0.0000 H   0  0  0  0  0  0  0  0  0  0  0  0
    1.3911   -2.5097    0.0000 H   0  0  0  0  0  0  0  0  0  0  0  0
    3.5345   -0.4093    0.0000 H   0  0  0  0  0  0  0  0  0  0  0  0
    1.9264    2.3762    0.0000 H   0  0  0  0  0  0  0  0  0  0  0  0
    4.0369   -0.7372    0.0000 H   0  0  0  0  0  0  0  0  0  0  0  0
    5.8901   -0.7372    0.0000 H   0  0  0  0  0  0  0  0  0  0  0  0
    4.9635   -1.2722    0.0000 H   0  0  0  0  0  0  0  0  0  0  0  0
    5.6780    0.7902    0.0000 H   0  0  0  0  0  0  0  0  0  0  0  0
    6.6046    2.3952    0.0000 H   0  0  0  0  0  0  0  0  0  0  0  0
    6.6047    1.3252    0.0000 H   0  0  0  0  0  0  0  0  0  0  0  0
    5.1756    2.9752    0.0000 H   0  0  0  0  0  0  0  0  0  0  0  0
    4.2490    4.5802    0.0000 H   0  0  0  0  0  0  0  0  0  0  0  0
    5.1757    4.0452    0.0000 H   0  0  0  0  0  0  0  0  0  0  0  0
  1 20  1  6  0  0  0
  1  4  1  0  0  0  0
  2  1  1  0  0  0  0
  2 21  1  0  0  0  0
  2 19  1  6  0  0  0
  3  2  1  0  0  0  0
  3 48  1  0  0  0  0
  3 49  1  0  0  0  0
  4 50  1  0  0  0  0
  4 51  1  0  0  0  0
  5  4  1  0  0  0  0
  5  7  1  0  0  0  0
  5  6  1  0  0  0  0
  6  3  1  0  0  0  0
  6 18  1  1  0  0  0
  7  8  1  0  0  0  0
  7 52  1  0  0  0  0
  7 53  1  0  0  0  0
  8 11  1  0  0  0  0
  8 54  1  0  0  0  0
  8 55  1  0  0  0  0
  9  1  1  0  0  0  0
  9 56  1  0  0  0  0
  9 57  1  0  0  0  0
 10  6  1  0  0  0  0
 11 10  2  0  0  0  0
 12 10  1  0  0  0  0
 12 13  1  0  0  0  0
 12 58  1  0  0  0  0
 13 14  2  0  0  0  0
 14 11  1  0  0  0  0
 14 16  1  0  0  0  0
 15 13  1  0  0  0  0
 15 59  1  0  0  0  0
 16 17  2  0  0  0  0
 16 60  1  0  0  0  0
 17 61  1  0  0  0  0
 21 25  1  0  0  0  0
 21 23  1  0  0  0  0
 21 62  1  6  0  0  0
 23 22  2  0  0  0  0
 23 24  1  0  0  0  0
 24 31  1  0  0  0  0
 25 29  1  0  0  0  0
 25 26  1  0  0  0  0
 25 63  1  1  0  0  0
 26 32  1  0  0  0  0
 27 15  2  0  0  0  0
 27 17  1  0  0  0  0
 27 28  1  0  0  0  0
 28 30  1  0  0  0  0
 29  9  1  0  0  0  0
 29 39  1  0  0  0  0
 29 64  1  6  0  0  0
 30 65  1  0  0  0  0
 30 66  1  0  0  0  0
 30 67  1  0  0  0  0
 31 68  1  0  0  0  0
 31 69  1  0  0  0  0
 31 70  1  0  0  0  0
 32 71  1  0  0  0  0
 32 72  1  0  0  0  0
 32 73  1  0  0  0  0
 33 34  2  0  0  0  0
 33 74  1  0  0  0  0
 34 42  1  0  0  0  0
 34 37  1  0  0  0  0
 35 33  1  0  0  0  0
 36 35  2  0  0  0  0
 36 38  1  0  0  0  0
 36 75  1  0  0  0  0
 37 44  1  0  0  0  0
 37 38  2  0  0  0  0
 38 46  1  0  0  0  0
 39 41  1  0  0  0  0
 41 35  1  0  0  0  0
 41 40  2  0  0  0  0
 42 43  1  0  0  0  0
 43 76  1  0  0  0  0
 43 77  1  0  0  0  0
 43 78  1  0  0  0  0
 44 45  1  0  0  0  0
 45 79  1  0  0  0  0
 45 80  1  0  0  0  0
 45 81  1  0  0  0  0
 46 47  1  0  0  0  0
 47 82  1  0  0  0  0
 47 83  1  0  0  0  0
 47 84  1  0  0  0  0
M  END
>  <DRUGBANK_ID>
DB00206

>  <SECONDARY_ACCESSION_NUMBERS>
APRD00472

>  <COMMON_NAME>
Reserpine

>  <CAS_NUMBER>
50-55-5

>  <UNII>
8B1QWR724A

>  <SYNONYMS>
(âˆ’)-reserpine; (3beta,16beta,17alpha,18beta,20alpha)-11,17-Dimethoxy-18-[(3,4,5-trimethoxybenzoyl)oxy]yohimban-16-carboxylic acid methyl ester; 3,4,5-trimethoxybenzoyl methyl reserpate; Reserpin; Reserpine

$$$$
