
 OpenBabel10282417072D

 33 34  0  0  0  0  0  0  0  0999 V2000
   -0.8250    0.3572    0.0000 C   0  0  0  0  0  0  0  0  0  0  0  0
    0.0000    0.3572    0.0000 C   0  0  0  0  0  0  0  0  0  0  0  0
    0.4125   -0.3572    0.0000 C   0  0  0  0  0  0  0  0  0  0  0  0
    1.2375   -0.3572    0.0000 C   0  0  0  0  0  0  0  0  0  0  0  0
    1.6500   -1.0717    0.0000 C   0  0  0  0  0  0  0  0  0  0  0  0
    2.4750   -1.0717    0.0000 C   0  0  0  0  0  0  0  0  0  0  0  0
    2.8875   -0.3572    0.0000 C   0  0  0  0  0  0  0  0  0  0  0  0
    2.4750    0.3572    0.0000 C   0  0  0  0  0  0  0  0  0  0  0  0
    1.6500    0.3572    0.0000 C   0  0  0  0  0  0  0  0  0  0  0  0
   -1.2375    1.0716    0.0000 O   0  0  0  0  0  0  0  0  0  0  0  0
   -1.2375   -0.3572    0.0000 N   0  0  0  0  0  0  0  0  0  0  0  0
   -2.0625   -0.3572    0.0000 C   0  0  0  0  0  0  0  0  0  0  0  0
   -2.4750   -1.0717    0.0000 C   0  0  0  0  0  0  0  0  0  0  0  0
   -3.3000   -1.0717    0.0000 C   0  0  0  0  0  0  0  0  0  0  0  0
   -3.7125   -0.3572    0.0000 C   0  0  0  0  0  0  0  0  0  0  0  0
   -3.3000    0.3572    0.0000 C   0  0  0  0  0  0  0  0  0  0  0  0
   -2.4750    0.3572    0.0000 C   0  0  0  0  0  0  0  0  0  0  0  0
    3.7125   -0.3572    0.0000 O   0  0  0  0  0  0  0  0  0  0  0  0
    2.8875   -1.7861    0.0000 O   0  0  0  0  0  0  0  0  0  0  0  0
    0.4125    1.0716    0.0000 C   0  0  0  0  0  0  0  0  0  0  0  0
    0.8250    1.7861    0.0000 N   0  0  0  0  0  0  0  0  0  0  0  0
   -0.1035   -1.2509    0.0000 H   0  0  0  0  0  0  0  0  0  0  0  0
    1.1340   -1.9654    0.0000 H   0  0  0  0  0  0  0  0  0  0  0  0
    2.9910    1.2509    0.0000 H   0  0  0  0  0  0  0  0  0  0  0  0
    1.1340    1.2509    0.0000 H   0  0  0  0  0  0  0  0  0  0  0  0
   -0.7453   -1.2098    0.0000 H   0  0  0  0  0  0  0  0  0  0  0  0
   -1.9590   -1.9654    0.0000 H   0  0  0  0  0  0  0  0  0  0  0  0
   -3.8160   -1.9654    0.0000 H   0  0  0  0  0  0  0  0  0  0  0  0
   -4.7445   -0.3572    0.0000 H   0  0  0  0  0  0  0  0  0  0  0  0
   -3.8160    1.2509    0.0000 H   0  0  0  0  0  0  0  0  0  0  0  0
   -1.9590    1.2509    0.0000 H   0  0  0  0  0  0  0  0  0  0  0  0
    4.1810   -1.1687    0.0000 H   0  0  0  0  0  0  0  0  0  0  0  0
    2.4190   -2.5976    0.0000 H   0  0  0  0  0  0  0  0  0  0  0  0
  1  2  1  0  0  0  0
  1 10  2  0  0  0  0
  1 11  1  0  0  0  0
  2  3  2  0  0  0  0
  2 20  1  0  0  0  0
  3  4  1  0  0  0  0
  3 22  1  0  0  0  0
  4  5  1  0  0  0  0
  4  9  2  0  0  0  0
  5  6  2  0  0  0  0
  5 23  1  0  0  0  0
  6  7  1  0  0  0  0
  6 19  1  0  0  0  0
  7  8  2  0  0  0  0
  7 18  1  0  0  0  0
  8  9  1  0  0  0  0
  8 24  1  0  0  0  0
  9 25  1  0  0  0  0
 11 12  1  0  0  0  0
 11 26  1  0  0  0  0
 12 13  1  0  0  0  0
 12 17  2  0  0  0  0
 13 14  2  0  0  0  0
 13 27  1  0  0  0  0
 14 15  1  0  0  0  0
 14 28  1  0  0  0  0
 15 16  2  0  0  0  0
 15 29  1  0  0  0  0
 16 17  1  0  0  0  0
 16 30  1  0  0  0  0
 17 31  1  0  0  0  0
 18 32  1  0  0  0  0
 19 33  1  0  0  0  0
 20 21  3  0  0  0  0
M  END
>  <DRUGBANK_ID>
DB16774

>  <COMMON_NAME>
Tyrphostin B48

>  <CAS_NUMBER>
133550-35-3

>  <SYNONYMS>
AG 494; AG-494; Alpha-Cyano-(3,4-dihydroxy)-N-phenylcinnamide; Tyrphostin AG-494

$$$$
