
 OpenBabel10282417072D

 71 75  0  0  0  0  0  0  0  0999 V2000
   -3.2151   -2.6812    0.0000 C   0  0  0  0  0  0  0  0  0  0  0  0
   -2.5006   -2.2687    0.0000 C   0  0  0  0  0  0  0  0  0  0  0  0
   -2.5006   -1.4437    0.0000 C   0  0  0  0  0  0  0  0  0  0  0  0
   -1.7861   -2.6812    0.0000 C   0  0  0  0  0  0  0  0  0  0  0  0
   -1.7861   -3.5062    0.0000 N   0  0  0  0  0  0  0  0  0  0  0  0
   -1.0717   -3.9187    0.0000 C   0  0  0  0  0  0  0  0  0  0  0  0
   -0.3572   -3.5062    0.0000 C   0  0  0  0  0  0  0  0  0  0  0  0
   -0.3572   -2.6812    0.0000 C   0  0  0  0  0  0  0  0  0  0  0  0
    0.3572   -2.2687    0.0000 C   0  0  0  0  0  0  0  0  0  0  0  0
   -1.0717   -2.2687    0.0000 C   0  0  0  0  0  0  0  0  0  0  0  0
   -1.0717   -1.4437    0.0000 N   0  0  0  0  0  0  0  0  0  0  0  0
   -1.7861   -1.0312    0.0000 C   0  0  0  0  0  0  0  0  0  0  0  0
   -2.6066   -0.9450    0.0000 O   0  0  0  0  0  0  0  0  0  0  0  0
   -1.7861   -0.2062    0.0000 N   0  0  0  0  0  0  0  0  0  0  0  0
   -1.0717    0.2062    0.0000 C   0  0  0  0  0  0  0  0  0  0  0  0
   -1.0717    1.0312    0.0000 N   0  0  0  0  0  0  0  0  0  0  0  0
   -0.3572    1.4437    0.0000 C   0  0  0  0  0  0  0  0  0  0  0  0
   -0.3572    2.2687    0.0000 C   0  0  0  0  0  0  0  0  0  0  0  0
   -1.0717    2.6812    0.0000 N   0  0  0  0  0  0  0  0  0  0  0  0
   -1.7861    2.2687    0.0000 C   0  0  0  0  0  0  0  0  0  0  0  0
   -1.7861    1.4437    0.0000 C   0  0  2  0  0  0  0  0  0  0  0  0
   -2.5006    1.0312    0.0000 C   0  0  0  0  0  0  0  0  0  0  0  0
   -1.0717    3.5062    0.0000 C   0  0  0  0  0  0  0  0  0  0  0  0
   -0.3572    3.9187    0.0000 O   0  0  0  0  0  0  0  0  0  0  0  0
   -1.7861    3.9187    0.0000 C   0  0  0  0  0  0  0  0  0  0  0  0
   -2.5006    3.5062    0.0000 C   0  0  0  0  0  0  0  0  0  0  0  0
   -0.3572   -0.2062    0.0000 C   0  0  0  0  0  0  0  0  0  0  0  0
    0.3572    0.2062    0.0000 C   0  0  0  0  0  0  0  0  0  0  0  0
    1.0717   -0.2062    0.0000 C   0  0  0  0  0  0  0  0  0  0  0  0
    1.7861    0.2062    0.0000 F   0  0  0  0  0  0  0  0  0  0  0  0
    1.0717   -1.0312    0.0000 C   0  0  0  0  0  0  0  0  0  0  0  0
    0.3572   -1.4437    0.0000 N   0  0  0  0  0  0  0  0  0  0  0  0
   -0.3572   -1.0312    0.0000 C   0  0  0  0  0  0  0  0  0  0  0  0
    1.7861   -1.4437    0.0000 C   0  0  0  0  0  0  0  0  0  0  0  0
    2.5006   -1.0312    0.0000 C   0  0  0  0  0  0  0  0  0  0  0  0
    2.5006   -0.2062    0.0000 O   0  0  0  0  0  0  0  0  0  0  0  0
    3.2151   -1.4437    0.0000 C   0  0  0  0  0  0  0  0  0  0  0  0
    3.2151   -2.2687    0.0000 C   0  0  0  0  0  0  0  0  0  0  0  0
    2.5006   -2.6812    0.0000 C   0  0  0  0  0  0  0  0  0  0  0  0
    1.7861   -2.2687    0.0000 C   0  0  0  0  0  0  0  0  0  0  0  0
    1.0717   -2.6812    0.0000 F   0  0  0  0  0  0  0  0  0  0  0  0
   -4.1417   -2.1462    0.0000 H   0  0  0  0  0  0  0  0  0  0  0  0
   -3.2151   -3.7512    0.0000 H   0  0  0  0  0  0  0  0  0  0  0  0
   -4.1418   -3.2162    0.0000 H   0  0  0  0  0  0  0  0  0  0  0  0
   -1.5740   -1.7337    0.0000 H   0  0  0  0  0  0  0  0  0  0  0  0
   -1.5740   -0.9087    0.0000 H   0  0  0  0  0  0  0  0  0  0  0  0
   -3.4272   -0.9087    0.0000 H   0  0  0  0  0  0  0  0  0  0  0  0
   -2.5006   -0.3737    0.0000 H   0  0  0  0  0  0  0  0  0  0  0  0
   -1.0717   -4.9507    0.0000 H   0  0  0  0  0  0  0  0  0  0  0  0
    0.5365   -4.0222    0.0000 H   0  0  0  0  0  0  0  0  0  0  0  0
    1.2839   -2.8037    0.0000 H   0  0  0  0  0  0  0  0  0  0  0  0
    0.3572   -1.1987    0.0000 H   0  0  0  0  0  0  0  0  0  0  0  0
    1.2838   -1.7337    0.0000 H   0  0  0  0  0  0  0  0  0  0  0  0
    0.5694    0.9087    0.0000 H   0  0  0  0  0  0  0  0  0  0  0  0
    0.5694    1.9787    0.0000 H   0  0  0  0  0  0  0  0  0  0  0  0
    0.5694    2.8037    0.0000 H   0  0  0  0  0  0  0  0  0  0  0  0
   -0.3572    3.3387    0.0000 H   0  0  0  0  0  0  0  0  0  0  0  0
   -2.7128    2.8037    0.0000 H   0  0  0  0  0  0  0  0  0  0  0  0
   -2.7127    1.7337    0.0000 H   0  0  0  0  0  0  0  0  0  0  0  0
   -2.7127    1.9787    0.0000 H   0  0  0  0  0  0  0  0  0  0  0  0
   -3.4272    1.5662    0.0000 H   0  0  0  0  0  0  0  0  0  0  0  0
   -2.5006   -0.0388    0.0000 H   0  0  0  0  0  0  0  0  0  0  0  0
   -3.4273    0.4962    0.0000 H   0  0  0  0  0  0  0  0  0  0  0  0
   -1.7861    4.9507    0.0000 H   0  0  0  0  0  0  0  0  0  0  0  0
   -3.3943    4.0222    0.0000 H   0  0  0  0  0  0  0  0  0  0  0  0
   -2.5006    2.4742    0.0000 H   0  0  0  0  0  0  0  0  0  0  0  0
    0.3572    1.2382    0.0000 H   0  0  0  0  0  0  0  0  0  0  0  0
    3.3121    0.2623    0.0000 H   0  0  0  0  0  0  0  0  0  0  0  0
    4.1088   -0.9277    0.0000 H   0  0  0  0  0  0  0  0  0  0  0  0
    4.1088   -2.7847    0.0000 H   0  0  0  0  0  0  0  0  0  0  0  0
    2.5006   -3.7132    0.0000 H   0  0  0  0  0  0  0  0  0  0  0  0
  1  2  1  0  0  0  0
  1 42  1  0  0  0  0
  1 43  1  0  0  0  0
  1 44  1  0  0  0  0
  2  3  1  0  0  0  0
  2  4  1  0  0  0  0
  2 45  1  0  0  0  0
  3 46  1  0  0  0  0
  3 47  1  0  0  0  0
  3 48  1  0  0  0  0
  4  5  2  0  0  0  0
  4 10  1  0  0  0  0
  5  6  1  0  0  0  0
  6  7  2  0  0  0  0
  6 49  1  0  0  0  0
  7  8  1  0  0  0  0
  7 50  1  0  0  0  0
  8  9  1  0  0  0  0
  8 10  2  0  0  0  0
  9 51  1  0  0  0  0
  9 52  1  0  0  0  0
  9 53  1  0  0  0  0
 10 11  1  0  0  0  0
 11 12  1  0  0  0  0
 11 33  1  0  0  0  0
 12 13  2  0  0  0  0
 12 14  1  0  0  0  0
 14 15  2  0  0  0  0
 15 16  1  0  0  0  0
 15 27  1  0  0  0  0
 16 17  1  0  0  0  0
 17 18  1  0  0  0  0
 17 54  1  0  0  0  0
 17 55  1  0  0  0  0
 18 19  1  0  0  0  0
 18 56  1  0  0  0  0
 18 57  1  0  0  0  0
 19 20  1  0  0  0  0
 19 23  1  0  0  0  0
 20 58  1  0  0  0  0
 20 59  1  0  0  0  0
 21 20  1  0  0  0  0
 21 16  1  0  0  0  0
 21 22  1  0  0  0  0
 21 60  1  6  0  0  0
 22 61  1  0  0  0  0
 22 62  1  0  0  0  0
 22 63  1  0  0  0  0
 23 24  2  0  0  0  0
 23 25  1  0  0  0  0
 25 26  2  0  0  0  0
 25 64  1  0  0  0  0
 26 65  1  0  0  0  0
 26 66  1  0  0  0  0
 27 28  2  0  0  0  0
 27 33  1  0  0  0  0
 28 29  1  0  0  0  0
 28 67  1  0  0  0  0
 29 30  1  0  0  0  0
 29 31  2  0  0  0  0
 31 32  1  0  0  0  0
 31 34  1  0  0  0  0
 32 33  2  0  0  0  0
 34 35  2  0  0  0  0
 34 40  1  0  0  0  0
 35 36  1  0  0  0  0
 35 37  1  0  0  0  0
 36 68  1  0  0  0  0
 37 38  2  0  0  0  0
 37 69  1  0  0  0  0
 38 39  1  0  0  0  0
 38 70  1  0  0  0  0
 39 40  2  0  0  0  0
 39 71  1  0  0  0  0
 40 41  1  0  0  0  0
M  END
>  <DRUGBANK_ID>
DB15569

>  <COMMON_NAME>
Sotorasib

>  <CAS_NUMBER>
2252403-56-6

>  <UNII>
2B2VM6UC8G

>  <SYNONYMS>
6-fluoro-7-(2-fluoro-6-hydroxyphenyl)-(1M)-1-[4-methyl-2-(propan-2-yl)pyridin-3-yl]-4-[(2S)-2- methyl-4-(prop-2-enoyl)piperazin-1-yl]pyrido[2,3-d]pyrimidin-2(1H)-one; Kras G12C inhibitor 9; Sotorasib

$$$$
