
 OpenBabel10282417072D

119118  0  0  0  0  0  0  0  0999 V2000
   12.8604    0.0000    0.0000 C   0  0  0  0  0  0  0  0  0  0  0  0
  -12.8604    0.0000    0.0000 C   0  0  0  0  0  0  0  0  0  0  0  0
    0.4125    0.7144    0.0000 C   0  0  0  0  0  0  0  0  0  0  0  0
   -0.4125   -0.7144    0.0000 C   0  0  0  0  0  0  0  0  0  0  0  0
   12.1460   -0.4125    0.0000 C   0  0  0  0  0  0  0  0  0  0  0  0
  -12.1460    0.4125    0.0000 C   0  0  0  0  0  0  0  0  0  0  0  0
   11.4315    0.0000    0.0000 C   0  0  0  0  0  0  0  0  0  0  0  0
  -11.4315    0.0000    0.0000 C   0  0  0  0  0  0  0  0  0  0  0  0
   10.7170   -0.4125    0.0000 C   0  0  0  0  0  0  0  0  0  0  0  0
  -10.7170    0.4125    0.0000 C   0  0  0  0  0  0  0  0  0  0  0  0
   10.0025    0.0000    0.0000 C   0  0  0  0  0  0  0  0  0  0  0  0
  -10.0025    0.0000    0.0000 C   0  0  0  0  0  0  0  0  0  0  0  0
    9.2881   -0.4125    0.0000 C   0  0  0  0  0  0  0  0  0  0  0  0
   -9.2881    0.4125    0.0000 C   0  0  0  0  0  0  0  0  0  0  0  0
    8.5736    0.0000    0.0000 C   0  0  0  0  0  0  0  0  0  0  0  0
   -8.5736    0.0000    0.0000 C   0  0  0  0  0  0  0  0  0  0  0  0
    7.8591   -0.4125    0.0000 C   0  0  0  0  0  0  0  0  0  0  0  0
   -7.8591    0.4125    0.0000 C   0  0  0  0  0  0  0  0  0  0  0  0
    7.1447    0.0000    0.0000 C   0  0  0  0  0  0  0  0  0  0  0  0
   -7.1447    0.0000    0.0000 C   0  0  0  0  0  0  0  0  0  0  0  0
    6.4302   -0.4125    0.0000 C   0  0  0  0  0  0  0  0  0  0  0  0
   -6.4302    0.4125    0.0000 C   0  0  0  0  0  0  0  0  0  0  0  0
    5.7157    0.0000    0.0000 C   0  0  0  0  0  0  0  0  0  0  0  0
   -5.7157    0.0000    0.0000 C   0  0  0  0  0  0  0  0  0  0  0  0
    5.0012   -0.4125    0.0000 C   0  0  0  0  0  0  0  0  0  0  0  0
   -5.0012    0.4125    0.0000 C   0  0  0  0  0  0  0  0  0  0  0  0
    4.2868    0.0000    0.0000 C   0  0  0  0  0  0  0  0  0  0  0  0
   -4.2868    0.0000    0.0000 C   0  0  0  0  0  0  0  0  0  0  0  0
    3.5723   -0.4125    0.0000 C   0  0  0  0  0  0  0  0  0  0  0  0
   -3.5723    0.4125    0.0000 C   0  0  0  0  0  0  0  0  0  0  0  0
    2.8578    0.0000    0.0000 C   0  0  0  0  0  0  0  0  0  0  0  0
   -2.8578    0.0000    0.0000 C   0  0  0  0  0  0  0  0  0  0  0  0
    2.1434   -0.4125    0.0000 C   0  0  0  0  0  0  0  0  0  0  0  0
   -2.1434    0.4125    0.0000 C   0  0  0  0  0  0  0  0  0  0  0  0
    1.4289    0.0000    0.0000 C   0  0  0  0  0  0  0  0  0  0  0  0
   -1.4289    0.0000    0.0000 C   0  0  0  0  0  0  0  0  0  0  0  0
    0.7144   -0.4125    0.0000 C   0  0  0  0  0  0  0  0  0  0  0  0
   -0.7144    0.4125    0.0000 C   0  0  0  0  0  0  0  0  0  0  0  0
    0.0000    0.0000    0.0000 N   0  3  0  0  0  0  0  0  0  0  0  0
   13.7871   -0.5350    0.0000 H   0  0  0  0  0  0  0  0  0  0  0  0
   12.8604    1.0700    0.0000 H   0  0  0  0  0  0  0  0  0  0  0  0
   13.7870    0.5350    0.0000 H   0  0  0  0  0  0  0  0  0  0  0  0
  -13.7871    0.5350    0.0000 H   0  0  0  0  0  0  0  0  0  0  0  0
  -12.8604   -1.0700    0.0000 H   0  0  0  0  0  0  0  0  0  0  0  0
  -13.7870   -0.5350    0.0000 H   0  0  0  0  0  0  0  0  0  0  0  0
    1.4825    0.7144    0.0000 H   0  0  0  0  0  0  0  0  0  0  0  0
   -0.1225    1.6411    0.0000 H   0  0  0  0  0  0  0  0  0  0  0  0
    0.9475    1.6410    0.0000 H   0  0  0  0  0  0  0  0  0  0  0  0
   -1.4825   -0.7144    0.0000 H   0  0  0  0  0  0  0  0  0  0  0  0
    0.1225   -1.6411    0.0000 H   0  0  0  0  0  0  0  0  0  0  0  0
   -0.9475   -1.6410    0.0000 H   0  0  0  0  0  0  0  0  0  0  0  0
   12.1460   -1.4825    0.0000 H   0  0  0  0  0  0  0  0  0  0  0  0
   11.2194   -0.9475    0.0000 H   0  0  0  0  0  0  0  0  0  0  0  0
  -12.1460    1.4825    0.0000 H   0  0  0  0  0  0  0  0  0  0  0  0
  -11.2194    0.9475    0.0000 H   0  0  0  0  0  0  0  0  0  0  0  0
   11.4315    1.0700    0.0000 H   0  0  0  0  0  0  0  0  0  0  0  0
   10.5049    0.5350    0.0000 H   0  0  0  0  0  0  0  0  0  0  0  0
  -11.4315   -1.0700    0.0000 H   0  0  0  0  0  0  0  0  0  0  0  0
  -10.5049   -0.5350    0.0000 H   0  0  0  0  0  0  0  0  0  0  0  0
   10.7170   -1.4825    0.0000 H   0  0  0  0  0  0  0  0  0  0  0  0
    9.7904   -0.9475    0.0000 H   0  0  0  0  0  0  0  0  0  0  0  0
  -10.7170    1.4825    0.0000 H   0  0  0  0  0  0  0  0  0  0  0  0
   -9.7904    0.9475    0.0000 H   0  0  0  0  0  0  0  0  0  0  0  0
   10.0025    1.0700    0.0000 H   0  0  0  0  0  0  0  0  0  0  0  0
    9.0758    0.5350    0.0000 H   0  0  0  0  0  0  0  0  0  0  0  0
  -10.0025   -1.0700    0.0000 H   0  0  0  0  0  0  0  0  0  0  0  0
   -9.0758   -0.5350    0.0000 H   0  0  0  0  0  0  0  0  0  0  0  0
    9.2881   -1.4825    0.0000 H   0  0  0  0  0  0  0  0  0  0  0  0
    8.3615   -0.9475    0.0000 H   0  0  0  0  0  0  0  0  0  0  0  0
   -9.2881    1.4825    0.0000 H   0  0  0  0  0  0  0  0  0  0  0  0
   -8.3615    0.9475    0.0000 H   0  0  0  0  0  0  0  0  0  0  0  0
    8.5736    1.0700    0.0000 H   0  0  0  0  0  0  0  0  0  0  0  0
    7.6470    0.5350    0.0000 H   0  0  0  0  0  0  0  0  0  0  0  0
   -8.5736   -1.0700    0.0000 H   0  0  0  0  0  0  0  0  0  0  0  0
   -7.6470   -0.5350    0.0000 H   0  0  0  0  0  0  0  0  0  0  0  0
    7.8591   -1.4825    0.0000 H   0  0  0  0  0  0  0  0  0  0  0  0
    6.9324   -0.9475    0.0000 H   0  0  0  0  0  0  0  0  0  0  0  0
   -7.8591    1.4825    0.0000 H   0  0  0  0  0  0  0  0  0  0  0  0
   -6.9324    0.9475    0.0000 H   0  0  0  0  0  0  0  0  0  0  0  0
    7.1447    1.0700    0.0000 H   0  0  0  0  0  0  0  0  0  0  0  0
    6.2181    0.5350    0.0000 H   0  0  0  0  0  0  0  0  0  0  0  0
   -7.1447   -1.0700    0.0000 H   0  0  0  0  0  0  0  0  0  0  0  0
   -6.2181   -0.5350    0.0000 H   0  0  0  0  0  0  0  0  0  0  0  0
    6.4302   -1.4825    0.0000 H   0  0  0  0  0  0  0  0  0  0  0  0
    5.5036   -0.9475    0.0000 H   0  0  0  0  0  0  0  0  0  0  0  0
   -6.4302    1.4825    0.0000 H   0  0  0  0  0  0  0  0  0  0  0  0
   -5.5036    0.9475    0.0000 H   0  0  0  0  0  0  0  0  0  0  0  0
    5.7157    1.0700    0.0000 H   0  0  0  0  0  0  0  0  0  0  0  0
    4.7891    0.5350    0.0000 H   0  0  0  0  0  0  0  0  0  0  0  0
   -5.7157   -1.0700    0.0000 H   0  0  0  0  0  0  0  0  0  0  0  0
   -4.7891   -0.5350    0.0000 H   0  0  0  0  0  0  0  0  0  0  0  0
    5.0012   -1.4825    0.0000 H   0  0  0  0  0  0  0  0  0  0  0  0
    4.0745   -0.9475    0.0000 H   0  0  0  0  0  0  0  0  0  0  0  0
   -5.0012    1.4825    0.0000 H   0  0  0  0  0  0  0  0  0  0  0  0
   -4.0745    0.9475    0.0000 H   0  0  0  0  0  0  0  0  0  0  0  0
    4.2868    1.0700    0.0000 H   0  0  0  0  0  0  0  0  0  0  0  0
    3.3602    0.5350    0.0000 H   0  0  0  0  0  0  0  0  0  0  0  0
   -4.2868   -1.0700    0.0000 H   0  0  0  0  0  0  0  0  0  0  0  0
   -3.3602   -0.5350    0.0000 H   0  0  0  0  0  0  0  0  0  0  0  0
    3.5723   -1.4825    0.0000 H   0  0  0  0  0  0  0  0  0  0  0  0
    2.6457   -0.9475    0.0000 H   0  0  0  0  0  0  0  0  0  0  0  0
   -3.5723    1.4825    0.0000 H   0  0  0  0  0  0  0  0  0  0  0  0
   -2.6457    0.9475    0.0000 H   0  0  0  0  0  0  0  0  0  0  0  0
    2.8578    1.0700    0.0000 H   0  0  0  0  0  0  0  0  0  0  0  0
    1.9311    0.5350    0.0000 H   0  0  0  0  0  0  0  0  0  0  0  0
   -2.8578   -1.0700    0.0000 H   0  0  0  0  0  0  0  0  0  0  0  0
   -1.9311   -0.5350    0.0000 H   0  0  0  0  0  0  0  0  0  0  0  0
    2.1434   -1.4825    0.0000 H   0  0  0  0  0  0  0  0  0  0  0  0
    1.2168   -0.9475    0.0000 H   0  0  0  0  0  0  0  0  0  0  0  0
   -2.1434    1.4825    0.0000 H   0  0  0  0  0  0  0  0  0  0  0  0
   -1.2168    0.9475    0.0000 H   0  0  0  0  0  0  0  0  0  0  0  0
    1.4289    1.0700    0.0000 H   0  0  0  0  0  0  0  0  0  0  0  0
    0.5023    0.5350    0.0000 H   0  0  0  0  0  0  0  0  0  0  0  0
   -1.4289   -1.0700    0.0000 H   0  0  0  0  0  0  0  0  0  0  0  0
   -0.5023   -0.5350    0.0000 H   0  0  0  0  0  0  0  0  0  0  0  0
    0.7144   -1.4825    0.0000 H   0  0  0  0  0  0  0  0  0  0  0  0
   -0.2123   -0.9475    0.0000 H   0  0  0  0  0  0  0  0  0  0  0  0
   -0.7144    1.4825    0.0000 H   0  0  0  0  0  0  0  0  0  0  0  0
    0.2123    0.9475    0.0000 H   0  0  0  0  0  0  0  0  0  0  0  0
  1 40  1  0  0  0  0
  1 41  1  0  0  0  0
  1 42  1  0  0  0  0
  2 43  1  0  0  0  0
  2 44  1  0  0  0  0
  2 45  1  0  0  0  0
  3 46  1  0  0  0  0
  3 47  1  0  0  0  0
  3 48  1  0  0  0  0
  4 49  1  0  0  0  0
  4 50  1  0  0  0  0
  4 51  1  0  0  0  0
  5  1  1  0  0  0  0
  5 52  1  0  0  0  0
  5 53  1  0  0  0  0
  6  2  1  0  0  0  0
  6 54  1  0  0  0  0
  6 55  1  0  0  0  0
  7  5  1  0  0  0  0
  7 56  1  0  0  0  0
  7 57  1  0  0  0  0
  8  6  1  0  0  0  0
  8 58  1  0  0  0  0
  8 59  1  0  0  0  0
  9  7  1  0  0  0  0
  9 60  1  0  0  0  0
  9 61  1  0  0  0  0
 10  8  1  0  0  0  0
 10 62  1  0  0  0  0
 10 63  1  0  0  0  0
 11  9  1  0  0  0  0
 11 64  1  0  0  0  0
 11 65  1  0  0  0  0
 12 10  1  0  0  0  0
 12 66  1  0  0  0  0
 12 67  1  0  0  0  0
 13 11  1  0  0  0  0
 13 68  1  0  0  0  0
 13 69  1  0  0  0  0
 14 12  1  0  0  0  0
 14 70  1  0  0  0  0
 14 71  1  0  0  0  0
 15 13  1  0  0  0  0
 15 72  1  0  0  0  0
 15 73  1  0  0  0  0
 16 14  1  0  0  0  0
 16 74  1  0  0  0  0
 16 75  1  0  0  0  0
 17 15  1  0  0  0  0
 17 76  1  0  0  0  0
 17 77  1  0  0  0  0
 18 16  1  0  0  0  0
 18 78  1  0  0  0  0
 18 79  1  0  0  0  0
 19 17  1  0  0  0  0
 19 80  1  0  0  0  0
 19 81  1  0  0  0  0
 20 18  1  0  0  0  0
 20 82  1  0  0  0  0
 20 83  1  0  0  0  0
 21 19  1  0  0  0  0
 21 84  1  0  0  0  0
 21 85  1  0  0  0  0
 22 20  1  0  0  0  0
 22 86  1  0  0  0  0
 22 87  1  0  0  0  0
 23 21  1  0  0  0  0
 23 88  1  0  0  0  0
 23 89  1  0  0  0  0
 24 22  1  0  0  0  0
 24 90  1  0  0  0  0
 24 91  1  0  0  0  0
 25 23  1  0  0  0  0
 25 92  1  0  0  0  0
 25 93  1  0  0  0  0
 26 24  1  0  0  0  0
 26 94  1  0  0  0  0
 26 95  1  0  0  0  0
 27 25  1  0  0  0  0
 27 96  1  0  0  0  0
 27 97  1  0  0  0  0
 28 26  1  0  0  0  0
 28 98  1  0  0  0  0
 28 99  1  0  0  0  0
 29 27  1  0  0  0  0
 29100  1  0  0  0  0
 29101  1  0  0  0  0
 30 28  1  0  0  0  0
 30102  1  0  0  0  0
 30103  1  0  0  0  0
 31 29  1  0  0  0  0
 31104  1  0  0  0  0
 31105  1  0  0  0  0
 32 30  1  0  0  0  0
 32106  1  0  0  0  0
 32107  1  0  0  0  0
 33 31  1  0  0  0  0
 33108  1  0  0  0  0
 33109  1  0  0  0  0
 34 32  1  0  0  0  0
 34110  1  0  0  0  0
 34111  1  0  0  0  0
 35 33  1  0  0  0  0
 35112  1  0  0  0  0
 35113  1  0  0  0  0
 36 34  1  0  0  0  0
 36114  1  0  0  0  0
 36115  1  0  0  0  0
 37 35  1  0  0  0  0
 37116  1  0  0  0  0
 37117  1  0  0  0  0
 38 36  1  0  0  0  0
 38118  1  0  0  0  0
 38119  1  0  0  0  0
 39  3  1  0  0  0  0
 39  4  1  0  0  0  0
 39 37  1  0  0  0  0
 39 38  1  0  0  0  0
M  CHG  1  39   1
M  END
>  <DRUGBANK_ID>
DB14143

>  <COMMON_NAME>
Distearyldimonium

>  <CAS_NUMBER>
14357-21-2

>  <UNII>
251IW5I21C

>  <SYNONYMS>
Dimethyldioctadecylammonium; Dimethyldistearylammonium; Dioctadecyldimethylammonium; Dioctadecyldimethylammonium ion; Distearyldimethylammonium

$$$$
