
 OpenBabel10282417072D

 23 22  0  0  0  0  0  0  0  0999 V2000
    1.0717   -0.6187    0.0000 C   0  0  0  0  0  0  0  0  0  0  0  0
    0.3572   -0.2061    0.0000 C   0  0  0  0  0  0  0  0  0  0  0  0
   -0.3572   -0.6186    0.0000 C   0  0  0  0  0  0  0  0  0  0  0  0
   -1.0717   -0.2061    0.0000 C   0  0  0  0  0  0  0  0  0  0  0  0
   -1.7862   -0.6186    0.0000 C   0  0  0  0  0  0  0  0  0  0  0  0
   -2.5006   -0.2061    0.0000 C   0  0  0  0  0  0  0  0  0  0  0  0
    2.5006   -0.6187    0.0000 O   0  0  0  0  0  0  0  0  0  0  0  0
    1.7862   -0.2062    0.0000 C   0  0  0  0  0  0  0  0  0  0  0  0
    1.7862    0.6187    0.0000 O   0  0  0  0  0  0  0  0  0  0  0  0
    1.0716   -1.6887    0.0000 H   0  0  0  0  0  0  0  0  0  0  0  0
    0.1450   -1.1536    0.0000 H   0  0  0  0  0  0  0  0  0  0  0  0
    0.3572    0.8639    0.0000 H   0  0  0  0  0  0  0  0  0  0  0  0
   -0.5695    0.3289    0.0000 H   0  0  0  0  0  0  0  0  0  0  0  0
   -0.3572   -1.6886    0.0000 H   0  0  0  0  0  0  0  0  0  0  0  0
   -1.2838   -1.1536    0.0000 H   0  0  0  0  0  0  0  0  0  0  0  0
   -1.0717    0.8639    0.0000 H   0  0  0  0  0  0  0  0  0  0  0  0
   -1.9983    0.3289    0.0000 H   0  0  0  0  0  0  0  0  0  0  0  0
   -1.7862   -1.6886    0.0000 H   0  0  0  0  0  0  0  0  0  0  0  0
   -2.7129   -1.1536    0.0000 H   0  0  0  0  0  0  0  0  0  0  0  0
   -2.5006    0.8639    0.0000 H   0  0  0  0  0  0  0  0  0  0  0  0
   -3.4273   -0.7411    0.0000 H   0  0  0  0  0  0  0  0  0  0  0  0
   -3.4272    0.3289    0.0000 H   0  0  0  0  0  0  0  0  0  0  0  0
    2.5006   -1.5557    0.0000 H   0  0  0  0  0  0  0  0  0  0  0  0
  1  2  1  0  0  0  0
  1 10  1  0  0  0  0
  1 11  1  0  0  0  0
  2  3  1  0  0  0  0
  2 12  1  0  0  0  0
  2 13  1  0  0  0  0
  3  4  1  0  0  0  0
  3 14  1  0  0  0  0
  3 15  1  0  0  0  0
  4  5  1  0  0  0  0
  4 16  1  0  0  0  0
  4 17  1  0  0  0  0
  5  6  1  0  0  0  0
  5 18  1  0  0  0  0
  5 19  1  0  0  0  0
  6 20  1  0  0  0  0
  6 21  1  0  0  0  0
  6 22  1  0  0  0  0
  7 23  1  0  0  0  0
  8  1  1  0  0  0  0
  8  7  1  0  0  0  0
  8  9  2  0  0  0  0
M  END
>  <DRUGBANK_ID>
DB02938

>  <SECONDARY_ACCESSION_NUMBERS>
EXPT02907

>  <COMMON_NAME>
Heptanoic acid

>  <CAS_NUMBER>
111-14-8

>  <UNII>
THE3YNP39D

>  <SYNONYMS>
Enanthic acid; Enanthylic acid; Heptanoic acid; Heptoic acid; Heptylic acid; n-Heptanoic acid; n-Heptoic acid; n-Heptylic acid; Oenanthic acid; Oenanthylic acid

$$$$
