
 OpenBabel10282417072D

 46 49  0  0  0  0  0  0  0  0999 V2000
   -4.2868    8.0036    0.0000 C   0  0  0  0  0  0  0  0  0  0  0  0
   -3.5724    7.5911    0.0000 C   0  0  0  0  0  0  0  0  0  0  0  0
   -2.8579    8.0036    0.0000 C   0  0  0  0  0  0  0  0  0  0  0  0
   -2.1434    7.5911    0.0000 N   0  0  0  0  0  0  0  0  0  0  0  0
   -2.1434    6.7661    0.0000 C   0  0  0  0  0  0  0  0  0  0  0  0
   -2.8579    6.3536    0.0000 C   0  0  0  0  0  0  0  0  0  0  0  0
   -3.5724    6.7661    0.0000 N   0  0  0  0  0  0  0  0  0  0  0  0
   -2.8579    5.5286    0.0000 O   0  0  0  0  0  0  0  0  0  0  0  0
   -3.5724    5.1161    0.0000 C   0  0  0  0  0  0  0  0  0  0  0  0
   -1.4289    6.3536    0.0000 N   0  0  0  0  0  0  0  0  0  0  0  0
   -0.7145    6.7661    0.0000 S   0  0  0  0  0  0  0  0  0  0  0  0
   -0.3020    6.0516    0.0000 O   0  0  0  0  0  0  0  0  0  0  0  0
   -1.1270    7.4805    0.0000 O   0  0  0  0  0  0  0  0  0  0  0  0
   -0.0000    7.1786    0.0000 C   0  0  0  0  0  0  0  0  0  0  0  0
   -0.0000    8.0036    0.0000 C   0  0  0  0  0  0  0  0  0  0  0  0
    0.7145    8.4161    0.0000 C   0  0  0  0  0  0  0  0  0  0  0  0
    1.4289    8.0036    0.0000 C   0  0  0  0  0  0  0  0  0  0  0  0
    1.4289    7.1786    0.0000 N   0  0  0  0  0  0  0  0  0  0  0  0
    0.7145    6.7661    0.0000 C   0  0  0  0  0  0  0  0  0  0  0  0
    0.7145    5.9411    0.0000 C   0  0  0  0  0  0  0  0  0  0  0  0
    1.4289    5.5286    0.0000 C   0  0  0  0  0  0  0  0  0  0  0  0
    1.4289    4.7036    0.0000 C   0  0  0  0  0  0  0  0  0  0  0  0
    0.7145    4.2911    0.0000 C   0  0  0  0  0  0  0  0  0  0  0  0
    0.0000    4.7036    0.0000 C   0  0  0  0  0  0  0  0  0  0  0  0
   -0.0000    5.5286    0.0000 C   0  0  0  0  0  0  0  0  0  0  0  0
    0.7145    3.4661    0.0000 C   0  0  0  0  0  0  0  0  0  0  0  0
    1.3819    2.9812    0.0000 N   0  0  0  0  0  0  0  0  0  0  0  0
    1.1270    2.1965    0.0000 N   0  0  0  0  0  0  0  0  0  0  0  0
    0.3020    2.1965    0.0000 C   0  0  0  0  0  0  0  0  0  0  0  0
    0.0470    2.9812    0.0000 O   0  0  0  0  0  0  0  0  0  0  0  0
   -4.2868    9.0736    0.0000 H   0  0  0  0  0  0  0  0  0  0  0  0
   -5.2135    7.4686    0.0000 H   0  0  0  0  0  0  0  0  0  0  0  0
   -5.2134    8.5386    0.0000 H   0  0  0  0  0  0  0  0  0  0  0  0
   -2.8579    9.0356    0.0000 H   0  0  0  0  0  0  0  0  0  0  0  0
   -4.4990    5.6511    0.0000 H   0  0  0  0  0  0  0  0  0  0  0  0
   -3.5724    4.0461    0.0000 H   0  0  0  0  0  0  0  0  0  0  0  0
   -4.4991    4.5811    0.0000 H   0  0  0  0  0  0  0  0  0  0  0  0
   -1.4289    5.3691    0.0000 H   0  0  0  0  0  0  0  0  0  0  0  0
   -0.8937    8.5196    0.0000 H   0  0  0  0  0  0  0  0  0  0  0  0
    0.7145    9.4481    0.0000 H   0  0  0  0  0  0  0  0  0  0  0  0
    2.3226    8.5196    0.0000 H   0  0  0  0  0  0  0  0  0  0  0  0
    2.3226    6.0446    0.0000 H   0  0  0  0  0  0  0  0  0  0  0  0
    2.3226    4.1876    0.0000 H   0  0  0  0  0  0  0  0  0  0  0  0
   -0.8937    4.1876    0.0000 H   0  0  0  0  0  0  0  0  0  0  0  0
   -0.8937    6.0446    0.0000 H   0  0  0  0  0  0  0  0  0  0  0  0
   -0.3046    1.3616    0.0000 H   0  0  0  0  0  0  0  0  0  0  0  0
  1  2  1  0  0  0  0
  1 31  1  0  0  0  0
  1 32  1  0  0  0  0
  1 33  1  0  0  0  0
  2  3  2  0  0  0  0
  2  7  1  0  0  0  0
  3  4  1  0  0  0  0
  3 34  1  0  0  0  0
  4  5  2  0  0  0  0
  5  6  1  0  0  0  0
  5 10  1  0  0  0  0
  6  7  2  0  0  0  0
  6  8  1  0  0  0  0
  8  9  1  0  0  0  0
  9 35  1  0  0  0  0
  9 36  1  0  0  0  0
  9 37  1  0  0  0  0
 10 11  1  0  0  0  0
 10 38  1  0  0  0  0
 11 12  2  0  0  0  0
 11 13  2  0  0  0  0
 11 14  1  0  0  0  0
 14 15  2  0  0  0  0
 14 19  1  0  0  0  0
 15 16  1  0  0  0  0
 15 39  1  0  0  0  0
 16 17  2  0  0  0  0
 16 40  1  0  0  0  0
 17 18  1  0  0  0  0
 17 41  1  0  0  0  0
 18 19  2  0  0  0  0
 19 20  1  0  0  0  0
 20 21  2  0  0  0  0
 20 25  1  0  0  0  0
 21 22  1  0  0  0  0
 21 42  1  0  0  0  0
 22 23  2  0  0  0  0
 22 43  1  0  0  0  0
 23 24  1  0  0  0  0
 23 26  1  0  0  0  0
 24 25  2  0  0  0  0
 24 44  1  0  0  0  0
 25 45  1  0  0  0  0
 26 27  2  0  0  0  0
 26 30  1  0  0  0  0
 27 28  1  0  0  0  0
 28 29  2  0  0  0  0
 29 30  1  0  0  0  0
 29 46  1  0  0  0  0
M  END
>  <DRUGBANK_ID>
DB06629

>  <COMMON_NAME>
Zibotentan

>  <CAS_NUMBER>
186497-07-4

>  <UNII>
8054MM4902

>  <SYNONYMS>
Zibotentan

$$$$
