
 OpenBabel10282417072D

 98100  0  0  0  0  0  0  0  0999 V2000
   -2.1270   -0.2029    0.0000 C   0  0  2  0  0  0  0  0  0  0  0  0
   -2.1270   -1.0421    0.0000 C   0  0  0  0  0  0  0  0  0  0  0  0
   -2.8368   -1.4628    0.0000 C   0  0  0  0  0  0  0  0  0  0  0  0
   -2.8368   -2.3019    0.0000 C   0  0  0  0  0  0  0  0  0  0  0  0
   -3.5485   -2.7205    0.0000 C   0  0  0  0  0  0  0  0  0  0  0  0
   -4.2561   -2.3019    0.0000 C   0  0  0  0  0  0  0  0  0  0  0  0
   -4.2561   -1.4628    0.0000 C   0  0  0  0  0  0  0  0  0  0  0  0
   -3.5485   -1.0421    0.0000 C   0  0  0  0  0  0  0  0  0  0  0  0
   -1.4173    0.2154    0.0000 C   0  0  0  0  0  0  0  0  0  0  0  0
   -0.7076   -0.2029    0.0000 N   0  0  0  0  0  0  0  0  0  0  0  0
    0.0020    0.2154    0.0000 C   0  0  1  0  0  0  0  0  0  0  0  0
    0.7117   -0.2029    0.0000 C   0  0  0  0  0  0  0  0  0  0  0  0
    1.4214    0.2154    0.0000 N   0  0  0  0  0  0  0  0  0  0  0  0
    2.1311   -0.2029    0.0000 C   0  0  1  0  0  0  0  0  0  0  0  0
    2.8408    0.2154    0.0000 C   0  0  0  0  0  0  0  0  0  0  0  0
    3.5505   -0.2029    0.0000 N   0  0  0  0  0  0  0  0  0  0  0  0
    4.2602    0.2154    0.0000 C   0  0  0  0  0  0  0  0  0  0  0  0
    4.9720   -0.2029    0.0000 C   0  0  0  0  0  0  0  0  0  0  0  0
    4.9720   -1.0421    0.0000 C   0  0  0  0  0  0  0  0  0  0  0  0
    5.6817   -1.4628    0.0000 C   0  0  0  0  0  0  0  0  0  0  0  0
    6.3913   -1.0421    0.0000 N   0  0  0  0  0  0  0  0  0  0  0  0
    6.3913   -0.2029    0.0000 C   0  0  0  0  0  0  0  0  0  0  0  0
    5.6817    0.2154    0.0000 C   0  0  0  0  0  0  0  0  0  0  0  0
    2.8408    1.0546    0.0000 O   0  0  0  0  0  0  0  0  0  0  0  0
    2.1311   -1.7272    0.0000 C   0  0  0  0  0  0  0  0  0  0  0  0
    1.4214   -2.1458    0.0000 C   0  0  0  0  0  0  0  0  0  0  0  0
    0.7178   -1.7126    0.0000 C   0  0  0  0  0  0  0  0  0  0  0  0
    0.0080   -2.1333    0.0000 N   0  0  0  0  0  0  0  0  0  0  0  0
   -0.6933   -1.7002    0.0000 C   0  0  0  0  0  0  0  0  0  0  0  0
   -0.6933   -0.8610    0.0000 N   0  0  0  0  0  0  0  0  0  0  0  0
   -1.4031   -2.1208    0.0000 N   0  0  0  0  0  0  0  0  0  0  0  0
    0.7117   -1.0421    0.0000 O   0  0  0  0  0  0  0  0  0  0  0  0
    0.0020    1.0984    0.0000 C   0  0  0  0  0  0  0  0  0  0  0  0
    0.7117    1.5190    0.0000 C   0  0  0  0  0  0  0  0  0  0  0  0
    1.4214    1.0984    0.0000 C   0  0  0  0  0  0  0  0  0  0  0  0
    2.1311    1.5190    0.0000 C   0  0  0  0  0  0  0  0  0  0  0  0
   -1.4173    1.0546    0.0000 O   0  0  0  0  0  0  0  0  0  0  0  0
   -2.8449    0.2029    0.0000 N   0  0  0  0  0  0  0  0  0  0  0  0
   -2.8449    1.0421    0.0000 C   0  0  0  0  0  0  0  0  0  0  0  0
   -3.5525    1.4628    0.0000 C   0  0  1  0  0  0  0  0  0  0  0  0
   -4.2622    1.0421    0.0000 C   0  0  0  0  0  0  0  0  0  0  0  0
   -4.9719    1.4628    0.0000 C   0  0  0  0  0  0  0  0  0  0  0  0
   -4.9719    2.3019    0.0000 C   0  0  0  0  0  0  0  0  0  0  0  0
   -5.6817    2.7205    0.0000 C   0  0  0  0  0  0  0  0  0  0  0  0
   -6.3913    2.3019    0.0000 C   0  0  0  0  0  0  0  0  0  0  0  0
   -6.3913    1.4628    0.0000 C   0  0  0  0  0  0  0  0  0  0  0  0
   -5.6817    1.0421    0.0000 C   0  0  0  0  0  0  0  0  0  0  0  0
   -3.5525    2.3019    0.0000 N   0  0  0  0  0  0  0  0  0  0  0  0
   -2.1331    1.4628    0.0000 O   0  0  0  0  0  0  0  0  0  0  0  0
   -1.1980   -0.7337    0.0000 H   0  0  0  0  0  0  0  0  0  0  0  0
   -1.1973   -1.5718    0.0000 H   0  0  0  0  0  0  0  0  0  0  0  0
   -2.1178   -2.1121    0.0000 H   0  0  0  0  0  0  0  0  0  0  0  0
   -1.9410   -2.8143    0.0000 H   0  0  0  0  0  0  0  0  0  0  0  0
   -3.5498   -3.7525    0.0000 H   0  0  0  0  0  0  0  0  0  0  0  0
   -5.1526   -2.8132    0.0000 H   0  0  0  0  0  0  0  0  0  0  0  0
   -5.1531   -0.9525    0.0000 H   0  0  0  0  0  0  0  0  0  0  0  0
   -3.5498   -0.0101    0.0000 H   0  0  0  0  0  0  0  0  0  0  0  0
   -0.7076   -1.1874    0.0000 H   0  0  0  0  0  0  0  0  0  0  0  0
   -0.9271    0.7462    0.0000 H   0  0  0  0  0  0  0  0  0  0  0  0
    1.4214    1.1999    0.0000 H   0  0  0  0  0  0  0  0  0  0  0  0
    1.2021   -0.7337    0.0000 H   0  0  0  0  0  0  0  0  0  0  0  0
    3.5505   -1.1874    0.0000 H   0  0  0  0  0  0  0  0  0  0  0  0
    4.2595    1.2854    0.0000 H   0  0  0  0  0  0  0  0  0  0  0  0
    5.1887    0.7471    0.0000 H   0  0  0  0  0  0  0  0  0  0  0  0
    4.0753   -1.5530    0.0000 H   0  0  0  0  0  0  0  0  0  0  0  0
    5.6817   -2.4948    0.0000 H   0  0  0  0  0  0  0  0  0  0  0  0
    7.2874    0.3090    0.0000 H   0  0  0  0  0  0  0  0  0  0  0  0
    5.6817    1.2474    0.0000 H   0  0  0  0  0  0  0  0  0  0  0  0
    3.0602   -2.2579    0.0000 H   0  0  0  0  0  0  0  0  0  0  0  0
    2.1386   -2.7972    0.0000 H   0  0  0  0  0  0  0  0  0  0  0  0
    1.4113   -3.2158    0.0000 H   0  0  0  0  0  0  0  0  0  0  0  0
    0.4848   -2.6632    0.0000 H   0  0  0  0  0  0  0  0  0  0  0  0
    0.7268   -0.6426    0.0000 H   0  0  0  0  0  0  0  0  0  0  0  0
   -0.2097   -1.1790    0.0000 H   0  0  0  0  0  0  0  0  0  0  0  0
   -0.0010   -3.1178    0.0000 H   0  0  0  0  0  0  0  0  0  0  0  0
    0.1593   -0.3687    0.0000 H   0  0  0  0  0  0  0  0  0  0  0  0
   -2.2612   -1.6382    0.0000 H   0  0  0  0  0  0  0  0  0  0  0  0
   -1.3919   -3.1052    0.0000 H   0  0  0  0  0  0  0  0  0  0  0  0
   -0.9277    1.6281    0.0000 H   0  0  0  0  0  0  0  0  0  0  0  0
   -0.0071    2.1684    0.0000 H   0  0  0  0  0  0  0  0  0  0  0  0
    0.7117    2.5890    0.0000 H   0  0  0  0  0  0  0  0  0  0  0  0
    1.6414    2.0487    0.0000 H   0  0  0  0  0  0  0  0  0  0  0  0
    1.4214    0.0284    0.0000 H   0  0  0  0  0  0  0  0  0  0  0  0
    2.3511    0.5687    0.0000 H   0  0  0  0  0  0  0  0  0  0  0  0
    3.0638    0.9946    0.0000 H   0  0  0  0  0  0  0  0  0  0  0  0
    2.1189    2.5889    0.0000 H   0  0  0  0  0  0  0  0  0  0  0  0
    3.0516    2.0645    0.0000 H   0  0  0  0  0  0  0  0  0  0  0  0
   -3.6952   -0.2932    0.0000 H   0  0  0  0  0  0  0  0  0  0  0  0
   -2.6224    1.9919    0.0000 H   0  0  0  0  0  0  0  0  0  0  0  0
   -4.2622   -0.0279    0.0000 H   0  0  0  0  0  0  0  0  0  0  0  0
   -5.1919    0.5124    0.0000 H   0  0  0  0  0  0  0  0  0  0  0  0
   -4.0758    2.8138    0.0000 H   0  0  0  0  0  0  0  0  0  0  0  0
   -5.6818    3.7525    0.0000 H   0  0  0  0  0  0  0  0  0  0  0  0
   -7.2874    2.8137    0.0000 H   0  0  0  0  0  0  0  0  0  0  0  0
   -7.2880    0.9520    0.0000 H   0  0  0  0  0  0  0  0  0  0  0  0
   -5.6818    0.0101    0.0000 H   0  0  0  0  0  0  0  0  0  0  0  0
   -2.6692    2.8119    0.0000 H   0  0  0  0  0  0  0  0  0  0  0  0
   -4.4358    2.8119    0.0000 H   0  0  0  0  0  0  0  0  0  0  0  0
  1  2  1  0  0  0  0
  1  9  1  0  0  0  0
  1 38  1  0  0  0  0
  1 50  1  6  0  0  0
  2  3  1  0  0  0  0
  2 51  1  0  0  0  0
  2 52  1  0  0  0  0
  3  4  2  0  0  0  0
  3  8  1  0  0  0  0
  4  5  1  0  0  0  0
  4 53  1  0  0  0  0
  5  6  2  0  0  0  0
  5 54  1  0  0  0  0
  6 55  1  0  0  0  0
  7  6  1  0  0  0  0
  7 56  1  0  0  0  0
  8  7  2  0  0  0  0
  8 57  1  0  0  0  0
  9 10  1  0  0  0  0
  9 37  2  0  0  0  0
 10 11  1  0  0  0  0
 10 58  1  0  0  0  0
 11 12  1  0  0  0  0
 11 33  1  0  0  0  0
 11 59  1  1  0  0  0
 12 13  1  0  0  0  0
 12 32  2  0  0  0  0
 13 14  1  0  0  0  0
 13 60  1  0  0  0  0
 14 15  1  0  0  0  0
 14 25  1  0  0  0  0
 14 61  1  6  0  0  0
 15 16  1  0  0  0  0
 15 24  2  0  0  0  0
 16 17  1  0  0  0  0
 16 62  1  0  0  0  0
 17 18  1  0  0  0  0
 17 63  1  0  0  0  0
 17 64  1  0  0  0  0
 18 19  1  0  0  0  0
 18 23  2  0  0  0  0
 19 20  2  0  0  0  0
 19 65  1  0  0  0  0
 20 21  1  0  0  0  0
 20 66  1  0  0  0  0
 22 21  2  0  0  0  0
 22 67  1  0  0  0  0
 23 22  1  0  0  0  0
 23 68  1  0  0  0  0
 25 26  1  0  0  0  0
 25 69  1  0  0  0  0
 25 70  1  0  0  0  0
 26 27  1  0  0  0  0
 26 71  1  0  0  0  0
 26 72  1  0  0  0  0
 27 28  1  0  0  0  0
 27 73  1  0  0  0  0
 27 74  1  0  0  0  0
 28 29  1  0  0  0  0
 28 75  1  0  0  0  0
 29 30  2  0  0  0  0
 29 31  1  0  0  0  0
 30 76  1  0  0  0  0
 31 77  1  0  0  0  0
 31 78  1  0  0  0  0
 33 34  1  0  0  0  0
 33 79  1  0  0  0  0
 33 80  1  0  0  0  0
 34 35  1  0  0  0  0
 34 81  1  0  0  0  0
 34 82  1  0  0  0  0
 35 36  1  0  0  0  0
 35 83  1  0  0  0  0
 35 84  1  0  0  0  0
 36 85  1  0  0  0  0
 36 86  1  0  0  0  0
 36 87  1  0  0  0  0
 38 39  1  0  0  0  0
 38 88  1  0  0  0  0
 39 40  1  0  0  0  0
 39 49  2  0  0  0  0
 40 41  1  0  0  0  0
 40 48  1  0  0  0  0
 40 89  1  6  0  0  0
 41 42  1  0  0  0  0
 41 90  1  0  0  0  0
 41 91  1  0  0  0  0
 42 43  2  0  0  0  0
 42 47  1  0  0  0  0
 43 44  1  0  0  0  0
 43 92  1  0  0  0  0
 44 45  2  0  0  0  0
 44 93  1  0  0  0  0
 45 94  1  0  0  0  0
 46 45  1  0  0  0  0
 46 95  1  0  0  0  0
 47 46  2  0  0  0  0
 47 96  1  0  0  0  0
 48 97  1  0  0  0  0
 48 98  1  0  0  0  0
M  END
>  <DRUGBANK_ID>
DB05155

>  <COMMON_NAME>
CR665

>  <CAS_NUMBER>
228546-92-7

>  <UNII>
3BX9UG06GG

$$$$
