
 OpenBabel10282417072D

 42 42  0  0  0  0  0  0  0  0999 V2000
   -1.4214   -1.1581    0.0000 C   0  0  0  0  0  0  0  0  0  0  0  0
   -2.1345   -0.7526    0.0000 C   0  0  0  0  0  0  0  0  0  0  0  0
   -2.8570   -1.1581    0.0000 N   0  0  0  0  0  0  0  0  0  0  0  0
   -2.8570   -1.9831    0.0000 C   0  0  0  0  0  0  0  0  0  0  0  0
   -2.1345   -2.3886    0.0000 N   0  0  0  0  0  0  0  0  0  0  0  0
   -1.4214   -1.9831    0.0000 C   0  0  0  0  0  0  0  0  0  0  0  0
   -0.5780   -2.5423    0.0000 C   0  0  0  0  0  0  0  0  0  0  0  0
   -3.5701   -2.3886    0.0000 O   0  0  0  0  0  0  0  0  0  0  0  0
   -2.1345    0.0768    0.0000 O   0  0  0  0  0  0  0  0  0  0  0  0
   -0.7084   -0.7526    0.0000 C   0  0  0  0  0  0  0  0  0  0  0  0
   -0.0139   -1.1581    0.0000 C   0  0  0  0  0  0  0  0  0  0  0  0
    0.7084   -0.7526    0.0000 C   0  0  0  0  0  0  0  0  0  0  0  0
    1.4215   -1.1581    0.0000 N   0  0  0  0  0  0  0  0  0  0  0  0
    2.1252   -0.7526    0.0000 C   0  0  2  0  0  0  0  0  0  0  0  0
    2.1252    0.0768    0.0000 C   0  0  0  0  0  0  0  0  0  0  0  0
    2.8429    0.4870    0.0000 S   0  3  1  0  0  0  0  0  0  0  0  0
    3.5701    0.0768    0.0000 O   0  5  0  0  0  0  0  0  0  0  0  0
    2.8429    1.3072    0.0000 C   0  0  0  0  0  0  0  0  0  0  0  0
    3.5701    1.7221    0.0000 S   0  0  0  0  0  0  0  0  0  0  0  0
    3.5701    2.5423    0.0000 C   0  0  0  0  0  0  0  0  0  0  0  0
    2.8429   -1.1581    0.0000 C   0  0  0  0  0  0  0  0  0  0  0  0
    3.5701   -0.7526    0.0000 O   0  0  0  0  0  0  0  0  0  0  0  0
    0.7084    0.0768    0.0000 O   0  0  0  0  0  0  0  0  0  0  0  0
   -3.7066   -0.6607    0.0000 H   0  0  0  0  0  0  0  0  0  0  0  0
   -2.1317   -3.3731    0.0000 H   0  0  0  0  0  0  0  0  0  0  0  0
   -0.6442   -3.6103    0.0000 H   0  0  0  0  0  0  0  0  0  0  0  0
    0.3800   -2.0656    0.0000 H   0  0  0  0  0  0  0  0  0  0  0  0
    0.3138   -3.1336    0.0000 H   0  0  0  0  0  0  0  0  0  0  0  0
   -0.7025    0.2794    0.0000 H   0  0  0  0  0  0  0  0  0  0  0  0
   -0.0226   -2.1901    0.0000 H   0  0  0  0  0  0  0  0  0  0  0  0
    1.4243   -2.1426    0.0000 H   0  0  0  0  0  0  0  0  0  0  0  0
    2.1297   -1.8226    0.0000 H   0  0  0  0  0  0  0  0  0  0  0  0
    1.1997    0.6138    0.0000 H   0  0  0  0  0  0  0  0  0  0  0  0
    2.1287    1.1468    0.0000 H   0  0  0  0  0  0  0  0  0  0  0  0
    1.9176    1.8446    0.0000 H   0  0  0  0  0  0  0  0  0  0  0  0
    2.8470    2.3772    0.0000 H   0  0  0  0  0  0  0  0  0  0  0  0
    4.4967    3.0773    0.0000 H   0  0  0  0  0  0  0  0  0  0  0  0
    2.6435    3.0773    0.0000 H   0  0  0  0  0  0  0  0  0  0  0  0
    3.5701    3.6123    0.0000 H   0  0  0  0  0  0  0  0  0  0  0  0
    2.8399   -2.2281    0.0000 H   0  0  0  0  0  0  0  0  0  0  0  0
    3.7648   -1.7013    0.0000 H   0  0  0  0  0  0  0  0  0  0  0  0
    4.4028   -1.2501    0.0000 H   0  0  0  0  0  0  0  0  0  0  0  0
  2  1  1  0  0  0  0
  3  2  1  0  0  0  0
  3 24  1  0  0  0  0
  4  3  1  0  0  0  0
  4  5  1  0  0  0  0
  5  6  1  0  0  0  0
  5 25  1  0  0  0  0
  6  1  2  0  0  0  0
  7  6  1  0  0  0  0
  7 26  1  0  0  0  0
  7 27  1  0  0  0  0
  7 28  1  0  0  0  0
  8  4  2  0  0  0  0
  9  2  2  0  0  0  0
 10  1  1  0  0  0  0
 10 29  1  0  0  0  0
 11 10  2  0  0  0  0
 11 30  1  0  0  0  0
 12 11  1  0  0  0  0
 13 12  1  0  0  0  0
 13 31  1  0  0  0  0
 14 13  1  0  0  0  0
 14 21  1  0  0  0  0
 14 32  1  1  0  0  0
 15 14  1  0  0  0  0
 15 33  1  0  0  0  0
 15 34  1  0  0  0  0
 16 15  1  0  0  0  0
 16 17  1  6  0  0  0
 18 16  1  0  0  0  0
 18 35  1  0  0  0  0
 18 36  1  0  0  0  0
 19 18  1  0  0  0  0
 20 19  1  0  0  0  0
 20 37  1  0  0  0  0
 20 38  1  0  0  0  0
 20 39  1  0  0  0  0
 21 40  1  0  0  0  0
 21 41  1  0  0  0  0
 22 21  1  0  0  0  0
 22 42  1  0  0  0  0
 23 12  2  0  0  0  0
M  CHG  2  16   1  17  -1
M  END
>  <DRUGBANK_ID>
DB04222

>  <SECONDARY_ACCESSION_NUMBERS>
EXPT02949

>  <COMMON_NAME>
Sparsomycin

>  <CAS_NUMBER>
1404-64-4

>  <UNII>
6C940P63E7

>  <SYNONYMS>
Esparsomicina; Sparsomycin; Sparsomycine; Sparsomycinum

$$$$
