
 OpenBabel10282417072D

 76 79  0  0  1  0  0  0  0  0999 V2000
   16.6846  -18.7035    0.0000 F   0  0  0  0  0  0  0  0  0  0  0  0
   13.6633  -15.6834    0.0000 O   0  0  0  0  0  0  0  0  0  0  0  0
   12.2654  -15.3862    0.0000 O   0  0  0  0  0  0  0  0  0  0  0  0
   10.4262  -13.7302    0.0000 O   0  0  0  0  0  0  0  0  0  0  0  0
   10.8678  -15.0891    0.0000 O   0  0  0  0  0  0  0  0  0  0  0  0
   18.4024  -13.5528    0.0000 O   0  0  0  0  0  0  0  0  0  0  0  0
   17.2464  -12.7127    0.0000 N   0  0  0  0  0  0  0  0  0  0  0  0
   16.0170  -14.9185    0.0000 N   0  0  0  0  0  0  0  0  0  0  0  0
   13.8347  -14.8763    0.0000 C   0  0  1  0  0  0  0  0  0  0  0  0
   12.4370  -14.5793    0.0000 C   0  0  2  0  0  0  0  0  0  0  0  0
   15.7871  -13.4664    0.0000 C   0  0  0  0  0  0  0  0  0  0  0  0
   15.2326  -15.1734    0.0000 C   0  0  0  0  0  0  0  0  0  0  0  0
   13.2216  -14.3243    0.0000 C   0  0  0  0  0  0  0  0  0  0  0  0
   14.6194  -14.6214    0.0000 C   0  0  0  0  0  0  0  0  0  0  0  0
   11.8239  -14.0272    0.0000 C   0  0  0  0  0  0  0  0  0  0  0  0
   16.1228  -12.7127    0.0000 C   0  0  0  0  0  0  0  0  0  0  0  0
   14.9666  -13.5528    0.0000 C   0  0  0  0  0  0  0  0  0  0  0  0
   11.0392  -14.2820    0.0000 C   0  0  0  0  0  0  0  0  0  0  0  0
   17.5819  -13.4664    0.0000 C   0  0  0  0  0  0  0  0  0  0  0  0
   16.2721  -14.1339    0.0000 C   0  0  0  0  0  0  0  0  0  0  0  0
   16.6846  -15.4035    0.0000 C   0  0  0  0  0  0  0  0  0  0  0  0
   16.6846  -17.8785    0.0000 C   0  0  0  0  0  0  0  0  0  0  0  0
   17.7313  -12.0454    0.0000 C   0  0  0  0  0  0  0  0  0  0  0  0
   17.0971  -14.1339    0.0000 C   0  0  0  0  0  0  0  0  0  0  0  0
   17.3520  -14.9185    0.0000 C   0  0  0  0  0  0  0  0  0  0  0  0
   16.6846  -16.2284    0.0000 C   0  0  0  0  0  0  0  0  0  0  0  0
   18.1367  -15.1734    0.0000 C   0  0  0  0  0  0  0  0  0  0  0  0
   15.9700  -17.4659    0.0000 C   0  0  0  0  0  0  0  0  0  0  0  0
   17.3989  -17.4659    0.0000 C   0  0  0  0  0  0  0  0  0  0  0  0
   18.5518  -12.1316    0.0000 C   0  0  0  0  0  0  0  0  0  0  0  0
   17.3958  -11.2916    0.0000 C   0  0  0  0  0  0  0  0  0  0  0  0
   15.9700  -16.6410    0.0000 C   0  0  0  0  0  0  0  0  0  0  0  0
   17.3989  -16.6410    0.0000 C   0  0  0  0  0  0  0  0  0  0  0  0
   18.7497  -14.6214    0.0000 C   0  0  0  0  0  0  0  0  0  0  0  0
   18.3081  -15.9803    0.0000 C   0  0  0  0  0  0  0  0  0  0  0  0
   19.0367  -11.4640    0.0000 C   0  0  0  0  0  0  0  0  0  0  0  0
   17.8807  -10.6242    0.0000 C   0  0  0  0  0  0  0  0  0  0  0  0
   19.0928  -16.2354    0.0000 C   0  0  0  0  0  0  0  0  0  0  0  0
   19.5343  -14.8763    0.0000 C   0  0  0  0  0  0  0  0  0  0  0  0
   18.7012  -10.7104    0.0000 C   0  0  0  0  0  0  0  0  0  0  0  0
   19.7059  -15.6834    0.0000 C   0  0  0  0  0  0  0  0  0  0  0  0
   12.7408  -15.9833    0.0000 H   0  0  0  0  0  0  0  0  0  0  0  0
   11.3428  -15.6859    0.0000 H   0  0  0  0  0  0  0  0  0  0  0  0
   10.6209  -12.8136    0.0000 H   0  0  0  0  0  0  0  0  0  0  0  0
   16.2673  -12.6097    0.0000 H   0  0  0  0  0  0  0  0  0  0  0  0
   12.8171  -15.2071    0.0000 H   0  0  0  0  0  0  0  0  0  0  0  0
   13.2322  -15.2953    0.0000 H   0  0  0  0  0  0  0  0  0  0  0  0
   15.3520  -14.4439    0.0000 H   0  0  0  0  0  0  0  0  0  0  0  0
   15.0102  -16.2200    0.0000 H   0  0  0  0  0  0  0  0  0  0  0  0
   14.2150  -15.5041    0.0000 H   0  0  0  0  0  0  0  0  0  0  0  0
   13.4440  -13.2777    0.0000 H   0  0  0  0  0  0  0  0  0  0  0  0
   12.4264  -13.6084    0.0000 H   0  0  0  0  0  0  0  0  0  0  0  0
   14.8418  -13.5748    0.0000 H   0  0  0  0  0  0  0  0  0  0  0  0
   15.6370  -14.2907    0.0000 H   0  0  0  0  0  0  0  0  0  0  0  0
   12.0465  -12.9806    0.0000 H   0  0  0  0  0  0  0  0  0  0  0  0
   11.0288  -13.3111    0.0000 H   0  0  0  0  0  0  0  0  0  0  0  0
   17.1870  -12.6010    0.0000 H   0  0  0  0  0  0  0  0  0  0  0  0
   15.4940  -11.8470    0.0000 H   0  0  0  0  0  0  0  0  0  0  0  0
   16.5582  -11.7353    0.0000 H   0  0  0  0  0  0  0  0  0  0  0  0
   14.3375  -12.6873    0.0000 H   0  0  0  0  0  0  0  0  0  0  0  0
   14.5316  -14.5304    0.0000 H   0  0  0  0  0  0  0  0  0  0  0  0
   13.9025  -13.6649    0.0000 H   0  0  0  0  0  0  0  0  0  0  0  0
   15.0763  -17.9819    0.0000 H   0  0  0  0  0  0  0  0  0  0  0  0
   18.2927  -17.9818    0.0000 H   0  0  0  0  0  0  0  0  0  0  0  0
   18.9716  -13.0743    0.0000 H   0  0  0  0  0  0  0  0  0  0  0  0
   16.3695  -11.1837    0.0000 H   0  0  0  0  0  0  0  0  0  0  0  0
   15.0763  -16.1250    0.0000 H   0  0  0  0  0  0  0  0  0  0  0  0
   18.2927  -16.1251    0.0000 H   0  0  0  0  0  0  0  0  0  0  0  0
   18.5351  -13.6120    0.0000 H   0  0  0  0  0  0  0  0  0  0  0  0
   17.5411  -16.6707    0.0000 H   0  0  0  0  0  0  0  0  0  0  0  0
   20.0631  -11.5718    0.0000 H   0  0  0  0  0  0  0  0  0  0  0  0
   17.4609   -9.6814    0.0000 H   0  0  0  0  0  0  0  0  0  0  0  0
   19.3073  -17.2449    0.0000 H   0  0  0  0  0  0  0  0  0  0  0  0
   20.3012  -14.1857    0.0000 H   0  0  0  0  0  0  0  0  0  0  0  0
   19.3078   -9.8755    0.0000 H   0  0  0  0  0  0  0  0  0  0  0  0
   20.6874  -16.0023    0.0000 H   0  0  0  0  0  0  0  0  0  0  0  0
  1 22  1  0  0  0  0
  2 42  1  0  0  0  0
  3 43  1  0  0  0  0
  4 18  1  0  0  0  0
  4 44  1  0  0  0  0
  5 18  2  0  0  0  0
  6 19  2  0  0  0  0
  7 19  1  0  0  0  0
  7 23  1  0  0  0  0
  7 45  1  0  0  0  0
  8 12  1  0  0  0  0
  8 20  1  0  0  0  0
  8 21  1  0  0  0  0
  9  2  1  0  0  0  0
  9 13  1  0  0  0  0
  9 14  1  0  0  0  0
  9 46  1  6  0  0  0
 10  3  1  0  0  0  0
 10 13  1  0  0  0  0
 10 15  1  0  0  0  0
 10 47  1  6  0  0  0
 11 16  1  0  0  0  0
 11 17  1  0  0  0  0
 11 20  1  0  0  0  0
 11 48  1  0  0  0  0
 12 14  1  0  0  0  0
 12 49  1  0  0  0  0
 12 50  1  0  0  0  0
 13 51  1  0  0  0  0
 13 52  1  0  0  0  0
 14 53  1  0  0  0  0
 14 54  1  0  0  0  0
 15 18  1  0  0  0  0
 15 55  1  0  0  0  0
 15 56  1  0  0  0  0
 16 57  1  0  0  0  0
 16 58  1  0  0  0  0
 16 59  1  0  0  0  0
 17 60  1  0  0  0  0
 17 61  1  0  0  0  0
 17 62  1  0  0  0  0
 19 24  1  0  0  0  0
 20 24  2  0  0  0  0
 21 25  2  0  0  0  0
 21 26  1  0  0  0  0
 22 28  1  0  0  0  0
 22 29  2  0  0  0  0
 23 30  1  0  0  0  0
 23 31  2  0  0  0  0
 24 25  1  0  0  0  0
 25 27  1  0  0  0  0
 26 32  1  0  0  0  0
 26 33  2  0  0  0  0
 27 34  2  0  0  0  0
 27 35  1  0  0  0  0
 28 32  2  0  0  0  0
 28 63  1  0  0  0  0
 29 33  1  0  0  0  0
 29 64  1  0  0  0  0
 30 36  2  0  0  0  0
 30 65  1  0  0  0  0
 31 37  1  0  0  0  0
 31 66  1  0  0  0  0
 32 67  1  0  0  0  0
 33 68  1  0  0  0  0
 34 39  1  0  0  0  0
 34 69  1  0  0  0  0
 35 38  2  0  0  0  0
 35 70  1  0  0  0  0
 36 40  1  0  0  0  0
 36 71  1  0  0  0  0
 37 40  2  0  0  0  0
 37 72  1  0  0  0  0
 38 41  1  0  0  0  0
 38 73  1  0  0  0  0
 39 41  2  0  0  0  0
 39 74  1  0  0  0  0
 40 75  1  0  0  0  0
 41 76  1  0  0  0  0
M  END
>  <DRUGBANK_ID>
DB01076

>  <SECONDARY_ACCESSION_NUMBERS>
APRD00055

>  <COMMON_NAME>
Atorvastatin

>  <CAS_NUMBER>
134523-00-5

>  <UNII>
A0JWA85V8F

>  <SYNONYMS>
Atorvastatin; atorvastatina; atorvastatine; atorvastatinum

$$$$
