Structure #1
 OpenBabel10282417072D

 50 51  0  0  0  0  0  0  0  0999 V2000
    1.7410   -1.6208    0.0000 C   0  0  0  0  0  0  0  0  0  0  0  0
   -1.4289    0.0000    0.0000 C   0  0  0  0  0  0  0  0  0  0  0  0
    4.4683   -0.2587    0.0000 C   0  0  0  0  0  0  0  0  0  0  0  0
    0.2890   -2.6757    0.0000 C   0  0  0  0  0  0  0  0  0  0  0  0
    1.0034   -3.0882    0.0000 C   0  0  0  0  0  0  0  0  0  0  0  0
    2.3424   -0.7537    0.0000 C   0  0  0  0  0  0  0  0  0  0  0  0
    1.1864    0.0862    0.0000 C   0  0  0  0  0  0  0  0  0  0  0  0
    0.9564   -1.3658    0.0000 C   0  0  0  0  0  0  0  0  0  0  0  0
   -0.6085    0.0862    0.0000 C   0  0  0  0  0  0  0  0  0  0  0  0
    3.6478   -0.1725    0.0000 C   0  0  0  0  0  0  0  0  0  0  0  0
    2.0069    0.0000    0.0000 C   0  0  0  0  0  0  0  0  0  0  0  0
    0.2890   -1.8507    0.0000 C   0  0  0  0  0  0  0  0  0  0  0  0
    2.4918    0.6674    0.0000 C   0  0  0  0  0  0  0  0  0  0  0  0
   -0.1235   -0.5812    0.0000 C   0  0  0  0  0  0  0  0  0  0  0  0
    2.1562    1.4211    0.0000 N   0  0  0  0  0  0  0  0  0  0  0  0
    3.1629   -0.8399    0.0000 N   0  0  0  0  0  0  0  0  0  0  0  0
    3.3123    0.5812    0.0000 N   0  0  0  0  0  0  0  0  0  0  0  0
    0.7015   -0.5812    0.0000 N   0  3  0  0  0  0  0  0  0  0  0  0
   -0.2729    0.8399    0.0000 O   0  0  0  0  0  0  0  0  0  0  0  0
    4.5758   -2.6757    0.0000 O   0  0  0  0  0  0  0  0  0  0  0  0
    4.2738   -3.8027    0.0000 O   0  0  0  0  0  0  0  0  0  0  0  0
    3.4488   -2.3738    0.0000 O   0  0  0  0  0  0  0  0  0  0  0  0
    2.0199   -3.8027    0.0000 O   0  0  0  0  0  0  0  0  0  0  0  0
    2.8449   -2.3738    0.0000 O   0  0  0  0  0  0  0  0  0  0  0  0
    1.7179   -2.6757    0.0000 O   0  0  0  0  0  0  0  0  0  0  0  0
    3.1468   -3.5007    0.0000 O   0  0  0  0  0  0  0  0  0  0  0  0
    3.8613   -3.0882    0.0000 P   0  0  0  0  0  0  0  0  0  0  0  0
    2.4324   -3.0882    0.0000 P   0  0  3  0  0  0  0  0  0  0  0  0
   -0.3785   -1.3658    0.0000 S   0  0  0  0  0  0  0  0  0  0  0  0
    1.9634   -2.6674    0.0000 H   0  0  0  0  0  0  0  0  0  0  0  0
    2.5362   -0.9049    0.0000 H   0  0  0  0  0  0  0  0  0  0  0  0
    2.7586   -1.9515    0.0000 H   0  0  0  0  0  0  0  0  0  0  0  0
   -2.0578    0.8657    0.0000 H   0  0  0  0  0  0  0  0  0  0  0  0
   -1.8641   -0.9775    0.0000 H   0  0  0  0  0  0  0  0  0  0  0  0
   -2.4930   -0.1118    0.0000 H   0  0  0  0  0  0  0  0  0  0  0  0
    4.9036   -1.2362    0.0000 H   0  0  0  0  0  0  0  0  0  0  0  0
    5.0972    0.6070    0.0000 H   0  0  0  0  0  0  0  0  0  0  0  0
    5.5324   -0.3705    0.0000 H   0  0  0  0  0  0  0  0  0  0  0  0
   -0.6377   -3.2107    0.0000 H   0  0  0  0  0  0  0  0  0  0  0  0
   -0.6376   -2.1407    0.0000 H   0  0  0  0  0  0  0  0  0  0  0  0
    1.0034   -4.1582    0.0000 H   0  0  0  0  0  0  0  0  0  0  0  0
    1.9300   -3.6232    0.0000 H   0  0  0  0  0  0  0  0  0  0  0  0
    1.7358   -1.5886    0.0000 H   0  0  0  0  0  0  0  0  0  0  0  0
    0.7512    1.0637    0.0000 H   0  0  0  0  0  0  0  0  0  0  0  0
    0.1223    0.1980    0.0000 H   0  0  0  0  0  0  0  0  0  0  0  0
    2.7348    2.2176    0.0000 H   0  0  0  0  0  0  0  0  0  0  0  0
    1.1771    1.5240    0.0000 H   0  0  0  0  0  0  0  0  0  0  0  0
    5.4158   -3.1607    0.0000 H   0  0  0  0  0  0  0  0  0  0  0  0
    3.7888   -4.6427    0.0000 H   0  0  0  0  0  0  0  0  0  0  0  0
    1.0499   -3.8027    0.0000 H   0  0  0  0  0  0  0  0  0  0  0  0
  1  8  1  0  0  0  0
  1 30  1  0  0  0  0
  1 31  1  0  0  0  0
  1 32  1  0  0  0  0
  2  9  1  0  0  0  0
  2 33  1  0  0  0  0
  2 34  1  0  0  0  0
  2 35  1  0  0  0  0
  3 10  1  0  0  0  0
  3 36  1  0  0  0  0
  3 37  1  0  0  0  0
  3 38  1  0  0  0  0
  4  5  1  0  0  0  0
  4 12  1  0  0  0  0
  4 39  1  0  0  0  0
  4 40  1  0  0  0  0
  5 25  1  0  0  0  0
  5 41  1  0  0  0  0
  5 42  1  0  0  0  0
  6 11  2  0  0  0  0
  6 16  1  0  0  0  0
  6 43  1  0  0  0  0
  7 11  1  0  0  0  0
  7 18  1  0  0  0  0
  7 44  1  0  0  0  0
  7 45  1  0  0  0  0
  8 12  2  0  0  0  0
  8 18  1  0  0  0  0
  9 14  1  0  0  0  0
  9 19  2  0  0  0  0
 10 16  2  0  0  0  0
 10 17  1  0  0  0  0
 11 13  1  0  0  0  0
 12 29  1  0  0  0  0
 13 15  1  0  0  0  0
 13 17  2  0  0  0  0
 14 18  2  0  0  0  0
 14 29  1  0  0  0  0
 15 46  1  0  0  0  0
 15 47  1  0  0  0  0
 20 27  1  0  0  0  0
 20 48  1  0  0  0  0
 21 27  1  0  0  0  0
 21 49  1  0  0  0  0
 22 27  2  0  0  0  0
 23 28  1  0  0  0  0
 23 50  1  0  0  0  0
 24 28  2  0  0  0  0
 25 28  1  0  0  0  0
 26 27  1  0  0  0  0
 26 28  1  0  0  0  0
M  CHG  1  18   1
M  END
>  <DRUGBANK_ID>
DB02410

>  <SECONDARY_ACCESSION_NUMBERS>
EXPT01790

>  <COMMON_NAME>
2-Acetyl-3-[(4-Amino-2-Methyl-5-Pyrimidinyl)Methyl]-4-Methyl-5-(4,6,6-Trihydroxy-3,5-Dioxa-4,6-Diphosphahex-1-Yl)Thiazolium Inner Salt P,P'-Dioxide

$$$$
