MSD
 OpenBabel10282417072D

 45 47  0  0  0  0  0  0  0  0999 V2000
   -1.1983    3.2500    0.0000 C   0  0  0  0  0  0  0  0  0  0  0  0
   -0.4838    3.6625    0.0000 C   0  0  0  0  0  0  0  0  0  0  0  0
    0.2306    3.2500    0.0000 N   0  0  0  0  0  0  0  0  0  0  0  0
    0.2306    2.4250    0.0000 C   0  0  0  0  0  0  0  0  0  0  0  0
   -0.4838    2.0125    0.0000 C   0  0  0  0  0  0  0  0  0  0  0  0
   -1.1983    2.4250    0.0000 C   0  0  0  0  0  0  0  0  0  0  0  0
    0.9451    2.0125    0.0000 N   0  0  0  0  0  0  0  0  0  0  0  0
    0.9451    1.1875    0.0000 C   0  0  0  0  0  0  0  0  0  0  0  0
    0.2306    0.7750    0.0000 S   0  0  0  0  0  0  0  0  0  0  0  0
    1.6596    0.7750    0.0000 N   0  0  0  0  0  0  0  0  0  0  0  0
    1.6596   -0.0500    0.0000 C   0  0  2  0  0  0  0  0  0  0  0  0
    2.0721   -0.7644    0.0000 C   0  0  0  0  0  0  0  0  0  0  0  0
    1.2471   -0.7644    0.0000 C   0  0  2  0  0  0  0  0  0  0  0  0
    0.5326   -1.1769    0.0000 C   0  0  0  0  0  0  0  0  0  0  0  0
    0.5326   -2.0019    0.0000 C   0  0  0  0  0  0  0  0  0  0  0  0
   -0.1819   -2.4144    0.0000 C   0  0  0  0  0  0  0  0  0  0  0  0
   -0.8963   -2.0019    0.0000 C   0  0  0  0  0  0  0  0  0  0  0  0
   -0.8963   -1.1769    0.0000 C   0  0  0  0  0  0  0  0  0  0  0  0
   -0.1819   -0.7644    0.0000 C   0  0  0  0  0  0  0  0  0  0  0  0
   -0.1819    0.0606    0.0000 O   0  0  0  0  0  0  0  0  0  0  0  0
   -1.6108   -0.7644    0.0000 C   0  0  0  0  0  0  0  0  0  0  0  0
   -2.3253   -1.1769    0.0000 O   0  0  0  0  0  0  0  0  0  0  0  0
   -1.6108    0.0606    0.0000 C   0  0  0  0  0  0  0  0  0  0  0  0
    1.2471   -2.4144    0.0000 O   0  0  0  0  0  0  0  0  0  0  0  0
   -1.9128    3.6625    0.0000 C   0  0  0  0  0  0  0  0  0  0  0  0
   -2.6272    4.0750    0.0000 N   0  0  0  0  0  0  0  0  0  0  0  0
    1.2471   -3.2394    0.0000 C   0  0  0  0  0  0  0  0  0  0  0  0
    2.2236    0.1012    0.0000 H   0  0  0  0  0  0  0  0  0  0  0  0
    0.8342   -0.3515    0.0000 H   0  0  0  0  0  0  0  0  0  0  0  0
   -0.4838    4.6945    0.0000 H   0  0  0  0  0  0  0  0  0  0  0  0
   -0.4838    0.9805    0.0000 H   0  0  0  0  0  0  0  0  0  0  0  0
   -2.0920    1.9090    0.0000 H   0  0  0  0  0  0  0  0  0  0  0  0
    1.7977    2.5048    0.0000 H   0  0  0  0  0  0  0  0  0  0  0  0
    2.5122    1.2673    0.0000 H   0  0  0  0  0  0  0  0  0  0  0  0
    2.9988   -1.2994    0.0000 H   0  0  0  0  0  0  0  0  0  0  0  0
    1.7952   -1.7979    0.0000 H   0  0  0  0  0  0  0  0  0  0  0  0
   -0.1819   -3.4464    0.0000 H   0  0  0  0  0  0  0  0  0  0  0  0
   -1.7900   -2.5179    0.0000 H   0  0  0  0  0  0  0  0  0  0  0  0
    0.6296    0.5291    0.0000 H   0  0  0  0  0  0  0  0  0  0  0  0
   -0.6842    0.5956    0.0000 H   0  0  0  0  0  0  0  0  0  0  0  0
   -2.5374    0.5956    0.0000 H   0  0  0  0  0  0  0  0  0  0  0  0
   -1.6108    1.1306    0.0000 H   0  0  0  0  0  0  0  0  0  0  0  0
    0.3205   -3.7744    0.0000 H   0  0  0  0  0  0  0  0  0  0  0  0
    2.1737   -3.7744    0.0000 H   0  0  0  0  0  0  0  0  0  0  0  0
    1.2471   -4.3094    0.0000 H   0  0  0  0  0  0  0  0  0  0  0  0
  1  2  2  0  0  0  0
  1  6  1  0  0  0  0
  1 25  1  0  0  0  0
  2  3  1  0  0  0  0
  2 30  1  0  0  0  0
  3  4  2  0  0  0  0
  4  5  1  0  0  0  0
  4  7  1  0  0  0  0
  5  6  2  0  0  0  0
  5 31  1  0  0  0  0
  6 32  1  0  0  0  0
  7  8  1  0  0  0  0
  7 33  1  0  0  0  0
  8  9  2  0  0  0  0
  8 10  1  0  0  0  0
 10 34  1  0  0  0  0
 11 10  1  0  0  0  0
 11 12  1  0  0  0  0
 11 13  1  0  0  0  0
 11 28  1  1  0  0  0
 12 13  1  0  0  0  0
 12 35  1  0  0  0  0
 12 36  1  0  0  0  0
 13 14  1  0  0  0  0
 13 29  1  1  0  0  0
 14 15  2  0  0  0  0
 14 19  1  0  0  0  0
 15 16  1  0  0  0  0
 15 24  1  0  0  0  0
 16 17  2  0  0  0  0
 16 37  1  0  0  0  0
 17 18  1  0  0  0  0
 17 38  1  0  0  0  0
 18 19  2  0  0  0  0
 18 21  1  0  0  0  0
 19 20  1  0  0  0  0
 20 39  1  0  0  0  0
 21 22  2  0  0  0  0
 21 23  1  0  0  0  0
 23 40  1  0  0  0  0
 23 41  1  0  0  0  0
 23 42  1  0  0  0  0
 24 27  1  0  0  0  0
 25 26  3  0  0  0  0
 27 43  1  0  0  0  0
 27 44  1  0  0  0  0
 27 45  1  0  0  0  0
M  END
>  <DRUGBANK_ID>
DB08212

>  <COMMON_NAME>
1-[2-(3-ACETYL-2-HYDROXY-6-METHOXY-PHENYL)-CYCLOPROPYL]-3-(5-CYANO-PYRIDIN-2-YL)-THIOUREA

$$$$
