
 OpenBabel10282417072D

 63 65  0  0  0  0  0  0  0  0999 V2000
    0.7144    2.6812    0.0000 S   0  0  0  0  0  0  0  0  0  0  0  0
   -0.7144    0.2062    0.0000 O   0  0  0  0  0  0  0  0  0  0  0  0
    0.0000    0.6187    0.0000 O   0  0  0  0  0  0  0  0  0  0  0  0
   -0.7144   -0.6187    0.0000 O   0  0  0  0  0  0  0  0  0  0  0  0
   -1.4289   -1.8562    0.0000 O   0  0  0  0  0  0  0  0  0  0  0  0
   -2.8579   -4.3312    0.0000 O   0  0  0  0  0  0  0  0  0  0  0  0
   -0.7144    1.8562    0.0000 N   0  0  0  0  0  0  0  0  0  0  0  0
   -2.1433    0.2062    0.0000 N   0  0  0  0  0  0  0  0  0  0  0  0
   -1.4289    1.4437    0.0000 C   0  0  1  0  0  0  0  0  0  0  0  0
   -2.1433    1.8562    0.0000 C   0  0  0  0  0  0  0  0  0  0  0  0
   -2.1433   -0.6187    0.0000 C   0  0  1  0  0  0  0  0  0  0  0  0
   -1.4289    0.6187    0.0000 C   0  0  0  0  0  0  0  0  0  0  0  0
   -2.8579   -1.0312    0.0000 C   0  0  0  0  0  0  0  0  0  0  0  0
   -2.1433    2.6812    0.0000 C   0  0  0  0  0  0  0  0  0  0  0  0
    0.7144    1.8562    0.0000 C   0  0  2  0  0  0  0  0  0  0  0  0
    0.0000    1.4437    0.0000 C   0  0  0  0  0  0  0  0  0  0  0  0
    1.4289    1.4437    0.0000 C   0  0  0  0  0  0  0  0  0  0  0  0
   -2.8579   -1.8562    0.0000 C   0  0  0  0  0  0  0  0  0  0  0  0
   -1.4289   -1.0312    0.0000 C   0  0  0  0  0  0  0  0  0  0  0  0
   -2.8579    3.0937    0.0000 C   0  0  0  0  0  0  0  0  0  0  0  0
   -1.4289    3.0937    0.0000 C   0  0  0  0  0  0  0  0  0  0  0  0
    2.1433    1.8562    0.0000 C   0  0  0  0  0  0  0  0  0  0  0  0
   -2.1433   -2.2687    0.0000 C   0  0  0  0  0  0  0  0  0  0  0  0
   -3.5723   -2.2687    0.0000 C   0  0  0  0  0  0  0  0  0  0  0  0
   -2.8579    3.9187    0.0000 C   0  0  0  0  0  0  0  0  0  0  0  0
   -1.4289    3.9187    0.0000 C   0  0  0  0  0  0  0  0  0  0  0  0
    2.1433    2.6812    0.0000 C   0  0  0  0  0  0  0  0  0  0  0  0
    2.8578    1.4437    0.0000 C   0  0  0  0  0  0  0  0  0  0  0  0
   -2.1433    4.3312    0.0000 C   0  0  0  0  0  0  0  0  0  0  0  0
   -2.1433   -3.0937    0.0000 C   0  0  0  0  0  0  0  0  0  0  0  0
   -3.5723   -3.0937    0.0000 C   0  0  0  0  0  0  0  0  0  0  0  0
   -2.8579   -3.5062    0.0000 C   0  0  0  0  0  0  0  0  0  0  0  0
    2.8578    3.0937    0.0000 C   0  0  0  0  0  0  0  0  0  0  0  0
    3.5723    1.8562    0.0000 C   0  0  0  0  0  0  0  0  0  0  0  0
    3.5723    2.6812    0.0000 C   0  0  0  0  0  0  0  0  0  0  0  0
   -0.7144    2.3677    0.0000 H   0  0  0  0  0  0  0  0  0  0  0  0
   -2.5864    0.4620    0.0000 H   0  0  0  0  0  0  0  0  0  0  0  0
    1.8922    3.3612    0.0000 H   0  0  0  0  0  0  0  0  0  0  0  0
    0.0971   -1.0872    0.0000 H   0  0  0  0  0  0  0  0  0  0  0  0
   -3.6694   -4.7997    0.0000 H   0  0  0  0  0  0  0  0  0  0  0  0
   -1.4289    2.5137    0.0000 H   0  0  0  0  0  0  0  0  0  0  0  0
   -3.0700    1.3212    0.0000 H   0  0  0  0  0  0  0  0  0  0  0  0
   -3.0699    2.3912    0.0000 H   0  0  0  0  0  0  0  0  0  0  0  0
   -3.0699   -0.0837    0.0000 H   0  0  0  0  0  0  0  0  0  0  0  0
   -3.7845   -0.4962    0.0000 H   0  0  0  0  0  0  0  0  0  0  0  0
   -3.7846   -1.5662    0.0000 H   0  0  0  0  0  0  0  0  0  0  0  0
   -0.2123    2.3912    0.0000 H   0  0  0  0  0  0  0  0  0  0  0  0
    1.4289    0.3737    0.0000 H   0  0  0  0  0  0  0  0  0  0  0  0
    2.3556    0.9087    0.0000 H   0  0  0  0  0  0  0  0  0  0  0  0
   -3.7516    2.5777    0.0000 H   0  0  0  0  0  0  0  0  0  0  0  0
   -0.5352    2.5777    0.0000 H   0  0  0  0  0  0  0  0  0  0  0  0
   -1.2496   -1.7527    0.0000 H   0  0  0  0  0  0  0  0  0  0  0  0
   -4.4660   -1.7527    0.0000 H   0  0  0  0  0  0  0  0  0  0  0  0
   -3.7516    4.4347    0.0000 H   0  0  0  0  0  0  0  0  0  0  0  0
   -0.5352    4.4347    0.0000 H   0  0  0  0  0  0  0  0  0  0  0  0
    1.2496    3.1972    0.0000 H   0  0  0  0  0  0  0  0  0  0  0  0
    2.8578    0.4117    0.0000 H   0  0  0  0  0  0  0  0  0  0  0  0
   -2.1432    5.3632    0.0000 H   0  0  0  0  0  0  0  0  0  0  0  0
   -1.2496   -3.6097    0.0000 H   0  0  0  0  0  0  0  0  0  0  0  0
   -4.4660   -3.6097    0.0000 H   0  0  0  0  0  0  0  0  0  0  0  0
    2.8578    4.1257    0.0000 H   0  0  0  0  0  0  0  0  0  0  0  0
    4.4660    1.3402    0.0000 H   0  0  0  0  0  0  0  0  0  0  0  0
    4.4660    3.1972    0.0000 H   0  0  0  0  0  0  0  0  0  0  0  0
  1 15  1  0  0  0  0
  1 38  1  0  0  0  0
  2 12  2  0  0  0  0
  3 16  2  0  0  0  0
  4 19  1  0  0  0  0
  4 39  1  0  0  0  0
  5 19  2  0  0  0  0
  6 32  1  0  0  0  0
  6 40  1  0  0  0  0
  7 16  1  0  0  0  0
  7 36  1  0  0  0  0
  8 12  1  0  0  0  0
  8 37  1  0  0  0  0
  9  7  1  0  0  0  0
  9 10  1  0  0  0  0
  9 12  1  0  0  0  0
  9 41  1  1  0  0  0
 10 14  1  0  0  0  0
 10 42  1  0  0  0  0
 10 43  1  0  0  0  0
 11  8  1  0  0  0  0
 11 13  1  0  0  0  0
 11 19  1  0  0  0  0
 11 44  1  1  0  0  0
 13 18  1  0  0  0  0
 13 45  1  0  0  0  0
 13 46  1  0  0  0  0
 14 20  2  0  0  0  0
 14 21  1  0  0  0  0
 15 16  1  0  0  0  0
 15 17  1  0  0  0  0
 15 47  1  6  0  0  0
 17 22  1  0  0  0  0
 17 48  1  0  0  0  0
 17 49  1  0  0  0  0
 18 23  2  0  0  0  0
 18 24  1  0  0  0  0
 20 25  1  0  0  0  0
 20 50  1  0  0  0  0
 21 26  2  0  0  0  0
 21 51  1  0  0  0  0
 22 27  2  0  0  0  0
 22 28  1  0  0  0  0
 23 30  1  0  0  0  0
 23 52  1  0  0  0  0
 24 31  2  0  0  0  0
 24 53  1  0  0  0  0
 25 29  2  0  0  0  0
 25 54  1  0  0  0  0
 26 29  1  0  0  0  0
 26 55  1  0  0  0  0
 27 33  1  0  0  0  0
 27 56  1  0  0  0  0
 28 34  2  0  0  0  0
 28 57  1  0  0  0  0
 29 58  1  0  0  0  0
 30 32  2  0  0  0  0
 30 59  1  0  0  0  0
 31 32  1  0  0  0  0
 31 60  1  0  0  0  0
 33 35  2  0  0  0  0
 33 61  1  0  0  0  0
 34 35  1  0  0  0  0
 34 62  1  0  0  0  0
 35 63  1  0  0  0  0
M  END
>  <DRUGBANK_ID>
DB03949

>  <SECONDARY_ACCESSION_NUMBERS>
EXPT03061

>  <COMMON_NAME>
N-[(2S)-3-Phenyl-2-sulfanylpropanoyl]-L-phenylalanyl-L-tyrosine

>  <SYNONYMS>
(2-sulfanyl-3-phenylpropanoyl)-phe-tyr

$$$$
