
 OpenBabel10282417072D

 44 46  0  0  0  0  0  0  0  0999 V2000
   -0.9806    0.3515    0.0000 O   0  0  0  0  0  0  0  0  0  0  0  0
    0.9547   -0.5491    0.0000 O   0  0  0  0  0  0  0  0  0  0  0  0
   -1.5547    1.9761    0.0000 O   0  0  0  0  0  0  0  0  0  0  0  0
    0.1199    2.4030    0.0000 O   0  0  0  0  0  0  0  0  0  0  0  0
    2.9627    2.6968    0.0000 O   0  0  0  0  0  0  0  0  0  0  0  0
   -0.7531   -1.1008    0.0000 N   0  0  0  0  0  0  0  0  0  0  0  0
    0.9578    1.2455    0.0000 N   0  0  0  0  0  0  0  0  0  0  0  0
   -0.7531   -2.4286    0.0000 N   0  0  0  0  0  0  0  0  0  0  0  0
   -2.2482   -0.9398    0.0000 N   0  0  0  0  0  0  0  0  0  0  0  0
    1.4565    3.3705    0.0000 N   0  0  0  0  0  0  0  0  0  0  0  0
   -2.9627   -2.1773    0.0000 N   0  0  0  0  0  0  0  0  0  0  0  0
   -2.2482   -3.4148    0.0000 N   0  0  0  0  0  0  0  0  0  0  0  0
    0.2896    0.7617    0.0000 C   0  0  1  0  0  0  0  0  0  0  0  0
    0.2881   -0.0631    0.0000 C   0  0  2  0  0  0  0  0  0  0  0  0
   -0.4945    1.0181    0.0000 C   0  0  1  0  0  0  0  0  0  0  0  0
   -0.4968   -0.3167    0.0000 C   0  0  1  0  0  0  0  0  0  0  0  0
   -0.7481    1.8031    0.0000 C   0  0  0  0  0  0  0  0  0  0  0  0
   -1.5337   -1.3523    0.0000 C   0  0  0  0  0  0  0  0  0  0  0  0
    0.8730    2.0661    0.0000 C   0  0  0  0  0  0  0  0  0  0  0  0
   -0.2716   -1.7648    0.0000 C   0  0  0  0  0  0  0  0  0  0  0  0
   -1.5337   -2.1773    0.0000 C   0  0  0  0  0  0  0  0  0  0  0  0
    1.5413    2.5499    0.0000 C   0  0  2  0  0  0  0  0  0  0  0  0
    2.2944    2.2131    0.0000 C   0  0  0  0  0  0  0  0  0  0  0  0
   -2.2482   -2.5898    0.0000 C   0  0  0  0  0  0  0  0  0  0  0  0
   -2.9627   -1.3523    0.0000 C   0  0  0  0  0  0  0  0  0  0  0  0
    1.4247    1.0367    0.0000 H   0  0  0  0  0  0  0  0  0  0  0  0
    1.8708    3.6705    0.0000 H   0  0  0  0  0  0  0  0  0  0  0  0
    0.9895    3.5794    0.0000 H   0  0  0  0  0  0  0  0  0  0  0  0
   -2.6912   -3.6705    0.0000 H   0  0  0  0  0  0  0  0  0  0  0  0
   -1.8052   -3.6705    0.0000 H   0  0  0  0  0  0  0  0  0  0  0  0
    0.8517   -1.5136    0.0000 H   0  0  0  0  0  0  0  0  0  0  0  0
   -1.8527    2.8992    0.0000 H   0  0  0  0  0  0  0  0  0  0  0  0
    3.8481    2.3007    0.0000 H   0  0  0  0  0  0  0  0  0  0  0  0
    1.2421    0.2743    0.0000 H   0  0  0  0  0  0  0  0  0  0  0  0
    1.2423    0.4210    0.0000 H   0  0  0  0  0  0  0  0  0  0  0  0
   -1.5510    1.1873    0.0000 H   0  0  0  0  0  0  0  0  0  0  0  0
   -1.5539   -0.4823    0.0000 H   0  0  0  0  0  0  0  0  0  0  0  0
   -0.0307    2.5970    0.0000 H   0  0  0  0  0  0  0  0  0  0  0  0
    0.2981    1.5788    0.0000 H   0  0  0  0  0  0  0  0  0  0  0  0
    0.7604   -1.7649    0.0000 H   0  0  0  0  0  0  0  0  0  0  0  0
    0.5646    2.9868    0.0000 H   0  0  0  0  0  0  0  0  0  0  0  0
    2.4044    1.1488    0.0000 H   0  0  0  0  0  0  0  0  0  0  0  0
    1.4277    1.5856    0.0000 H   0  0  0  0  0  0  0  0  0  0  0  0
   -3.8564   -0.8363    0.0000 H   0  0  0  0  0  0  0  0  0  0  0  0
  1 15  1  0  0  0  0
  1 16  1  0  0  0  0
  2 31  1  0  0  0  0
  3 17  1  0  0  0  0
  3 32  1  0  0  0  0
  4 19  2  0  0  0  0
  5 23  1  0  0  0  0
  5 33  1  0  0  0  0
  6 18  1  0  0  0  0
  6 20  1  0  0  0  0
  7 19  1  0  0  0  0
  7 26  1  0  0  0  0
  8 20  2  0  0  0  0
  8 21  1  0  0  0  0
  9 18  2  0  0  0  0
  9 25  1  0  0  0  0
 10 27  1  0  0  0  0
 10 28  1  0  0  0  0
 11 24  1  0  0  0  0
 11 25  2  0  0  0  0
 12 24  1  0  0  0  0
 12 29  1  0  0  0  0
 12 30  1  0  0  0  0
 13  7  1  0  0  0  0
 13 14  1  0  0  0  0
 13 15  1  0  0  0  0
 13 34  1  6  0  0  0
 14  2  1  0  0  0  0
 14 16  1  0  0  0  0
 14 35  1  6  0  0  0
 15 17  1  0  0  0  0
 15 36  1  1  0  0  0
 16  6  1  0  0  0  0
 16 37  1  1  0  0  0
 17 38  1  0  0  0  0
 17 39  1  0  0  0  0
 18 21  1  0  0  0  0
 19 22  1  0  0  0  0
 20 40  1  0  0  0  0
 21 24  2  0  0  0  0
 22 10  1  0  0  0  0
 22 23  1  0  0  0  0
 22 41  1  6  0  0  0
 23 42  1  0  0  0  0
 23 43  1  0  0  0  0
 25 44  1  0  0  0  0
M  END
>  <DRUGBANK_ID>
DB04024

>  <SECONDARY_ACCESSION_NUMBERS>
EXPT00371

>  <COMMON_NAME>
Serine-3'-aminoadenosine

$$$$
