
 OpenBabel10282417072D

 42 43  0  0  0  0  0  0  0  0999 V2000
    3.3000   -0.0527    0.0000 C   0  0  0  0  0  0  0  0  0  0  0  0
    2.4750   -0.0527    0.0000 O   0  0  0  0  0  0  0  0  0  0  0  0
    2.0657    0.6599    0.0000 C   0  0  0  0  0  0  0  0  0  0  0  0
    2.4750    1.3727    0.0000 C   0  0  0  0  0  0  0  0  0  0  0  0
    2.0657    2.0921    0.0000 C   0  0  0  0  0  0  0  0  0  0  0  0
    1.2408    2.0921    0.0000 C   0  0  0  0  0  0  0  0  0  0  0  0
    0.8250    1.3727    0.0000 C   0  0  0  0  0  0  0  0  0  0  0  0
    0.0000    1.3727    0.0000 C   0  0  0  0  0  0  0  0  0  0  0  0
   -0.4158    0.6599    0.0000 N   0  0  0  0  0  0  0  0  0  0  0  0
   -1.2408    0.6599    0.0000 N   0  0  0  0  0  0  0  0  0  0  0  0
   -1.6500    1.3727    0.0000 C   0  0  0  0  0  0  0  0  0  0  0  0
   -1.2408    2.0921    0.0000 O   0  0  0  0  0  0  0  0  0  0  0  0
   -2.4750    1.3727    0.0000 C   0  0  0  0  0  0  0  0  0  0  0  0
   -2.4750    2.1977    0.0000 F   0  0  0  0  0  0  0  0  0  0  0  0
   -2.4750    0.5477    0.0000 F   0  0  0  0  0  0  0  0  0  0  0  0
   -3.3000    1.3727    0.0000 F   0  0  0  0  0  0  0  0  0  0  0  0
   -1.6500   -0.0527    0.0000 C   0  0  0  0  0  0  0  0  0  0  0  0
   -2.4750   -0.0527    0.0000 C   0  0  0  0  0  0  0  0  0  0  0  0
   -2.8841   -0.7655    0.0000 C   0  0  0  0  0  0  0  0  0  0  0  0
   -2.4750   -1.4849    0.0000 C   0  0  0  0  0  0  0  0  0  0  0  0
   -2.8841   -2.1977    0.0000 C   0  0  0  0  0  0  0  0  0  0  0  0
   -1.6500   -1.4849    0.0000 C   0  0  0  0  0  0  0  0  0  0  0  0
   -1.2408   -0.7655    0.0000 C   0  0  0  0  0  0  0  0  0  0  0  0
   -0.4158   -0.7655    0.0000 C   0  0  0  0  0  0  0  0  0  0  0  0
    1.2408    0.6599    0.0000 C   0  0  0  0  0  0  0  0  0  0  0  0
    3.8350   -0.9793    0.0000 H   0  0  0  0  0  0  0  0  0  0  0  0
    3.8350    0.8739    0.0000 H   0  0  0  0  0  0  0  0  0  0  0  0
    4.3700   -0.0527    0.0000 H   0  0  0  0  0  0  0  0  0  0  0  0
    3.5070    1.3707    0.0000 H   0  0  0  0  0  0  0  0  0  0  0  0
    2.5845    2.9842    0.0000 H   0  0  0  0  0  0  0  0  0  0  0  0
    0.7250    2.9860    0.0000 H   0  0  0  0  0  0  0  0  0  0  0  0
   -0.5140    2.2676    0.0000 H   0  0  0  0  0  0  0  0  0  0  0  0
   -2.9921    0.8404    0.0000 H   0  0  0  0  0  0  0  0  0  0  0  0
   -3.9161   -0.7635    0.0000 H   0  0  0  0  0  0  0  0  0  0  0  0
   -3.9541   -2.2004    0.0000 H   0  0  0  0  0  0  0  0  0  0  0  0
   -2.3467   -3.1230    0.0000 H   0  0  0  0  0  0  0  0  0  0  0  0
   -3.4167   -3.1257    0.0000 H   0  0  0  0  0  0  0  0  0  0  0  0
   -1.1311   -2.3770    0.0000 H   0  0  0  0  0  0  0  0  0  0  0  0
    0.1192   -1.6921    0.0000 H   0  0  0  0  0  0  0  0  0  0  0  0
    0.1192    0.1611    0.0000 H   0  0  0  0  0  0  0  0  0  0  0  0
    0.6542   -0.7655    0.0000 H   0  0  0  0  0  0  0  0  0  0  0  0
    0.7268   -0.2350    0.0000 H   0  0  0  0  0  0  0  0  0  0  0  0
  1  2  1  0  0  0  0
  1 26  1  0  0  0  0
  1 27  1  0  0  0  0
  1 28  1  0  0  0  0
  2  3  1  0  0  0  0
  3  4  1  0  0  0  0
  3 25  2  0  0  0  0
  4  5  2  0  0  0  0
  4 29  1  0  0  0  0
  5  6  1  0  0  0  0
  5 30  1  0  0  0  0
  6  7  2  0  0  0  0
  6 31  1  0  0  0  0
  7  8  1  0  0  0  0
  7 25  1  0  0  0  0
  8  9  2  0  0  0  0
  8 32  1  0  0  0  0
  9 10  1  0  0  0  0
 10 11  1  0  0  0  0
 10 17  1  0  0  0  0
 11 12  2  0  0  0  0
 11 13  1  0  0  0  0
 13 14  1  0  0  0  0
 13 15  1  0  0  0  0
 13 16  1  0  0  0  0
 17 18  1  0  0  0  0
 17 23  2  0  0  0  0
 18 19  2  0  0  0  0
 18 33  1  0  0  0  0
 19 20  1  0  0  0  0
 19 34  1  0  0  0  0
 20 21  1  0  0  0  0
 20 22  2  0  0  0  0
 21 35  1  0  0  0  0
 21 36  1  0  0  0  0
 21 37  1  0  0  0  0
 22 23  1  0  0  0  0
 22 38  1  0  0  0  0
 23 24  1  0  0  0  0
 24 39  1  0  0  0  0
 24 40  1  0  0  0  0
 24 41  1  0  0  0  0
 25 42  1  0  0  0  0
M  END
>  <DRUGBANK_ID>
DB13957

>  <COMMON_NAME>
J147

>  <CAS_NUMBER>
1146963-51-0

>  <UNII>
Z41H3C5BT9

>  <SYNONYMS>
N-(2,4-Dimethylphenyl)-2,2,2-trifluoro-N'-[(E)-(3-methoxyphenyl)methylene]acetohydrazide

$$$$
