
 OpenBabel10282417072D

 21 21  0  0  1  0  0  0  0  0999 V2000
    1.4289   -0.0000    0.0000 C   0  0  0  0  0  0  0  0  0  0  0  0
    0.0000   -0.0000    0.0000 C   0  0  0  0  0  0  0  0  0  0  0  0
    1.4289    0.8250    0.0000 C   0  0  0  0  0  0  0  0  0  0  0  0
    0.0000    0.8250    0.0000 C   0  0  0  0  0  0  0  0  0  0  0  0
    0.7145   -0.4125    0.0000 C   0  0  0  0  0  0  0  0  0  0  0  0
    0.7145    1.2375    0.0000 C   0  0  0  0  0  0  0  0  0  0  0  0
    0.7145   -1.2375    0.0000 C   0  0  2  0  0  0  0  0  0  0  0  0
   -0.0000   -1.6500    0.0000 C   0  0  0  0  0  0  0  0  0  0  0  0
    1.4289   -1.6500    0.0000 N   0  0  0  0  0  0  0  0  0  0  0  0
    0.7145    2.0625    0.0000 O   0  0  0  0  0  0  0  0  0  0  0  0
   -0.0000   -2.4750    0.0000 O   0  0  0  0  0  0  0  0  0  0  0  0
   -0.7145   -1.2375    0.0000 O   0  0  0  0  0  0  0  0  0  0  0  0
   -0.0000   -0.8250    0.0000 H   0  0  0  0  0  0  0  0  0  0  0  0
    2.3226   -0.5160    0.0000 H   0  0  0  0  0  0  0  0  0  0  0  0
   -0.8937   -0.5160    0.0000 H   0  0  0  0  0  0  0  0  0  0  0  0
    2.3226    1.3410    0.0000 H   0  0  0  0  0  0  0  0  0  0  0  0
   -0.8937    1.3410    0.0000 H   0  0  0  0  0  0  0  0  0  0  0  0
    1.4289   -2.6700    0.0000 H   0  0  0  0  0  0  0  0  0  0  0  0
    2.3123   -1.1400    0.0000 H   0  0  0  0  0  0  0  0  0  0  0  0
    1.5260    2.5310    0.0000 H   0  0  0  0  0  0  0  0  0  0  0  0
   -0.8115   -2.9435    0.0000 H   0  0  0  0  0  0  0  0  0  0  0  0
  1 14  1  0  0  0  0
  2 15  1  0  0  0  0
  3  1  1  0  0  0  0
  3 16  1  0  0  0  0
  4  2  2  0  0  0  0
  4 17  1  0  0  0  0
  5  1  2  0  0  0  0
  5  2  1  0  0  0  0
  6  3  2  0  0  0  0
  6  4  1  0  0  0  0
  7  5  1  0  0  0  0
  7  9  1  0  0  0  0
  7 13  1  6  0  0  0
  8  7  1  0  0  0  0
  9 18  1  0  0  0  0
  9 19  1  0  0  0  0
 10  6  1  0  0  0  0
 10 20  1  0  0  0  0
 11  8  1  0  0  0  0
 11 21  1  0  0  0  0
 12  8  2  0  0  0  0
M  END
>  <DRUGBANK_ID>
DB04308

>  <SECONDARY_ACCESSION_NUMBERS>
EXPT01178

>  <COMMON_NAME>
D-4-hydroxyphenylglycine

>  <CAS_NUMBER>
22818-40-2

>  <UNII>
PCM9OIX717

>  <SYNONYMS>
(R)-(4-hydroxyphenyl)glycine; (R)-2-(4-hydroxyphenyl)glycine; (R)-alpha-Amino-4-hydroxybenzeneacetic acid; (R)-ethyl 2-amino-2-(4-hydroxyphenyl)acetate; 4-hydroxy-d-phenylglycine; D-(-)-2-(p-hydroxyphenyl)glycine; D-(-)-4-hydroxyphenylglycine; D-(-)-amino(4-hydroxyphenyl)acetic acid; D-(-)-p-hydroxyphenylglycine; D-2-amino-2-(p-hydroxyphenyl)acetic acid; D-4-hydroxyphenylglycine; D-N-(4-Hydroxyphenyl)glycine; D-p-hydroxyphenylglycine; P-hydroxy-(R)-phenylglycine; P-hydroxy-d-phenylglycine

$$$$
