
 OpenBabel10282417072D

 23 23  0  0  0  0  0  0  0  0999 V2000
   -0.5302   -1.1659    0.0000 C   0  0  0  0  0  0  0  0  0  0  0  0
    0.7145    0.7037    0.0000 C   0  0  2  0  0  0  0  0  0  0  0  0
    0.0000    1.1162    0.0000 C   0  0  1  0  0  0  0  0  0  0  0  0
    0.7145   -0.1213    0.0000 C   0  0  1  0  0  0  0  0  0  0  0  0
   -0.7145    0.7037    0.0000 C   0  0  3  0  0  0  0  0  0  0  0  0
    0.0000   -0.5338    0.0000 C   0  0  2  0  0  0  0  0  0  0  0  0
   -1.4290    1.1162    0.0000 F   0  0  0  0  0  0  0  0  0  0  0  0
    0.5302   -1.1659    0.0000 F   0  0  0  0  0  0  0  0  0  0  0  0
   -0.2481   -1.9412    0.0000 O   0  0  0  0  0  0  0  0  0  0  0  0
    1.4290    1.1162    0.0000 O   0  0  0  0  0  0  0  0  0  0  0  0
    0.0000    1.9412    0.0000 O   0  0  0  0  0  0  0  0  0  0  0  0
    1.4290   -0.5338    0.0000 O   0  0  0  0  0  0  0  0  0  0  0  0
   -0.7145   -0.1213    0.0000 O   0  0  0  0  0  0  0  0  0  0  0  0
    0.7145    1.5287    0.0000 H   0  0  0  0  0  0  0  0  0  0  0  0
   -0.7145    1.5287    0.0000 H   0  0  0  0  0  0  0  0  0  0  0  0
    0.7145   -0.9464    0.0000 H   0  0  0  0  0  0  0  0  0  0  0  0
    0.0000    0.2911    0.0000 H   0  0  0  0  0  0  0  0  0  0  0  0
   -1.5840   -0.9801    0.0000 H   0  0  0  0  0  0  0  0  0  0  0  0
   -1.2180   -1.9855    0.0000 H   0  0  0  0  0  0  0  0  0  0  0  0
   -0.8717   -2.6842    0.0000 H   0  0  0  0  0  0  0  0  0  0  0  0
    2.2690    0.6312    0.0000 H   0  0  0  0  0  0  0  0  0  0  0  0
    0.8400    2.4262    0.0000 H   0  0  0  0  0  0  0  0  0  0  0  0
    1.4290   -1.5038    0.0000 H   0  0  0  0  0  0  0  0  0  0  0  0
  1 18  1  0  0  0  0
  1 19  1  0  0  0  0
  2  3  1  0  0  0  0
  2  4  1  0  0  0  0
  2 10  1  0  0  0  0
  2 14  1  6  0  0  0
  3  5  1  0  0  0  0
  3 11  1  0  0  0  0
  3 15  1  6  0  0  0
  4  6  1  0  0  0  0
  4 12  1  0  0  0  0
  4 16  1  1  0  0  0
  6  1  1  0  0  0  0
  6  8  1  1  0  0  0
  6 13  1  0  0  0  0
  7  5  1  0  0  0  0
  9  1  1  0  0  0  0
  9 20  1  0  0  0  0
 10 21  1  0  0  0  0
 11 22  1  0  0  0  0
 12 23  1  0  0  0  0
 13  5  1  0  0  0  0
 17  5  1  0  0  0  0
M  END
>  <DRUGBANK_ID>
DB03008

>  <SECONDARY_ACCESSION_NUMBERS>
EXPT01670

>  <COMMON_NAME>
5-fluoro-beta-L-gulosyl fluoride

$$$$
