
 OpenBabel10282417072D

 62 68  0  0  1  0  0  0  0  0999 V2000
    2.0485   -1.2224    0.0000 C   0  0  0  0  0  0  0  0  0  0  0  0
    5.4472    5.4977    0.0000 C   0  0  0  0  0  0  0  0  0  0  0  0
   -1.2371    5.1602    0.0000 C   0  0  0  0  0  0  0  0  0  0  0  0
    5.1309    4.7358    0.0000 C   0  0  0  0  0  0  0  0  0  0  0  0
   -0.9834    4.3752    0.0000 C   0  0  0  0  0  0  0  0  0  0  0  0
    4.3897    1.0290    0.0000 C   0  0  0  0  0  0  0  0  0  0  0  0
    0.8815    1.1179    0.0000 C   0  0  0  0  0  0  0  0  0  0  0  0
    4.7009    1.7936    0.0000 C   0  0  0  0  0  0  0  0  0  0  0  0
    0.5782    1.8580    0.0000 C   0  0  0  0  0  0  0  0  0  0  0  0
    1.3298    0.8614    0.0000 C   0  0  0  0  0  0  0  0  0  0  0  0
    6.2652    5.6047    0.0000 C   0  0  0  0  0  0  0  0  0  0  0  0
   -0.6841    5.7724    0.0000 C   0  0  0  0  0  0  0  0  0  0  0  0
    1.1857   -0.0262    0.0000 C   0  0  0  0  0  0  0  0  0  0  0  0
    3.2652    0.1923    0.0000 C   0  0  0  0  0  0  0  0  0  0  0  0
    6.4506    4.1879    0.0000 C   0  0  0  0  0  0  0  0  0  0  0  0
    0.3763    4.8146    0.0000 C   0  0  0  0  0  0  0  0  0  0  0  0
    3.5642    0.9419    0.0000 C   0  0  0  0  0  0  0  0  0  0  0  0
    5.6325    4.0809    0.0000 C   0  0  0  0  0  0  0  0  0  0  0  0
   -0.1767    4.2024    0.0000 C   0  0  0  0  0  0  0  0  0  0  0  0
    1.8523    0.9683    0.0000 C   0  0  1  0  0  0  0  0  0  0  0  0
    2.4502    0.1783    0.0000 C   0  0  2  0  0  0  0  0  0  0  0  0
    4.1818    2.4500    0.0000 C   0  0  0  0  0  0  0  0  0  0  0  0
    1.1374    2.4595    0.0000 C   0  0  1  0  0  0  0  0  0  0  0  0
    3.0446    1.5883    0.0000 C   0  0  0  0  0  0  0  0  0  0  0  0
    3.3345    2.3525    0.0000 C   0  0  0  0  0  0  0  0  0  0  0  0
    1.9594    2.2958    0.0000 C   0  0  1  0  0  0  0  0  0  0  0  0
    5.3162    3.3189    0.0000 C   0  0  0  0  0  0  0  0  0  0  0  0
    0.0770    3.4174    0.0000 C   0  0  0  0  0  0  0  0  0  0  0  0
    2.1664    1.4557    0.0000 C   0  0  2  0  0  0  0  0  0  0  0  0
    6.7669    4.9498    0.0000 N   0  0  0  0  0  0  0  0  0  0  0  0
    0.1226    5.5996    0.0000 N   0  0  0  0  0  0  0  0  0  0  0  0
    1.9091   -0.4092    0.0000 N   0  0  0  0  0  0  0  0  0  0  0  0
    5.8179    2.6640    0.0000 O   0  0  0  0  0  0  0  0  0  0  0  0
   -0.4760    2.8052    0.0000 O   0  0  0  0  0  0  0  0  0  0  0  0
    4.4982    3.2119    0.0000 O   0  0  0  0  0  0  0  0  0  0  0  0
    0.8837    3.2446    0.0000 O   0  0  0  0  0  0  0  0  0  0  0  0
    2.6231    2.7970    0.0000 O   0  0  0  0  0  0  0  0  0  0  0  0
    2.6767    0.9994    0.0000 H   0  0  0  0  0  0  0  0  0  0  0  0
    2.7880   -0.5744    0.0000 H   0  0  0  0  0  0  0  0  0  0  0  0
    0.3320    2.6381    0.0000 H   0  0  0  0  0  0  0  0  0  0  0  0
    1.7753    3.1000    0.0000 H   0  0  0  0  0  0  0  0  0  0  0  0
    1.2256   -1.9063    0.0000 H   0  0  0  0  0  0  0  0  0  0  0  0
    3.0522   -1.5931    0.0000 H   0  0  0  0  0  0  0  0  0  0  0  0
    2.2293   -2.2770    0.0000 H   0  0  0  0  0  0  0  0  0  0  0  0
    4.8196    6.3170    0.0000 H   0  0  0  0  0  0  0  0  0  0  0  0
   -2.2462    5.3764    0.0000 H   0  0  0  0  0  0  0  0  0  0  0  0
    4.1076    4.6020    0.0000 H   0  0  0  0  0  0  0  0  0  0  0  0
   -1.6751    3.6094    0.0000 H   0  0  0  0  0  0  0  0  0  0  0  0
    5.0099    0.2041    0.0000 H   0  0  0  0  0  0  0  0  0  0  0  0
    0.2428    0.3073    0.0000 H   0  0  0  0  0  0  0  0  0  0  0  0
    5.7226    1.9389    0.0000 H   0  0  0  0  0  0  0  0  0  0  0  0
   -0.4371    2.0428    0.0000 H   0  0  0  0  0  0  0  0  0  0  0  0
    0.4216    1.4271    0.0000 H   0  0  0  0  0  0  0  0  0  0  0  0
    1.2974    1.9309    0.0000 H   0  0  0  0  0  0  0  0  0  0  0  0
    6.6609    6.5578    0.0000 H   0  0  0  0  0  0  0  0  0  0  0  0
   -1.0014    6.7544    0.0000 H   0  0  0  0  0  0  0  0  0  0  0  0
    0.2276   -0.5026    0.0000 H   0  0  0  0  0  0  0  0  0  0  0  0
    1.1721   -1.0961    0.0000 H   0  0  0  0  0  0  0  0  0  0  0  0
    3.8731   -0.6883    0.0000 H   0  0  0  0  0  0  0  0  0  0  0  0
    2.7761   -0.7594    0.0000 H   0  0  0  0  0  0  0  0  0  0  0  0
    7.0782    3.3686    0.0000 H   0  0  0  0  0  0  0  0  0  0  0  0
    1.3854    4.5984    0.0000 H   0  0  0  0  0  0  0  0  0  0  0  0
  1 42  1  0  0  0  0
  1 43  1  0  0  0  0
  1 44  1  0  0  0  0
  2 45  1  0  0  0  0
  3 46  1  0  0  0  0
  4  2  2  0  0  0  0
  4 47  1  0  0  0  0
  5  3  2  0  0  0  0
  5 48  1  0  0  0  0
  6 49  1  0  0  0  0
  7 50  1  0  0  0  0
  8  6  2  0  0  0  0
  8 51  1  0  0  0  0
  9  7  2  0  0  0  0
  9 52  1  0  0  0  0
 10 53  1  0  0  0  0
 10 54  1  0  0  0  0
 11  2  1  0  0  0  0
 11 55  1  0  0  0  0
 12  3  1  0  0  0  0
 12 56  1  0  0  0  0
 13 10  1  0  0  0  0
 13 57  1  0  0  0  0
 13 58  1  0  0  0  0
 14 59  1  0  0  0  0
 14 60  1  0  0  0  0
 15 61  1  0  0  0  0
 16 62  1  0  0  0  0
 17  6  1  0  0  0  0
 17 14  1  0  0  0  0
 18  4  1  0  0  0  0
 18 15  2  0  0  0  0
 19  5  1  0  0  0  0
 19 16  2  0  0  0  0
 20  7  1  0  0  0  0
 20 38  1  1  0  0  0
 21 14  1  0  0  0  0
 21 20  1  0  0  0  0
 21 39  1  6  0  0  0
 22  8  1  0  0  0  0
 23  9  1  0  0  0  0
 23 36  1  0  0  0  0
 23 40  1  1  0  0  0
 24 17  2  0  0  0  0
 25 22  2  0  0  0  0
 25 24  1  0  0  0  0
 26 23  1  0  0  0  0
 26 41  1  1  0  0  0
 27 18  1  0  0  0  0
 28 19  1  0  0  0  0
 29 10  1  0  0  0  0
 29 20  1  0  0  0  0
 29 24  1  1  0  0  0
 29 26  1  0  0  0  0
 30 11  2  0  0  0  0
 30 15  1  0  0  0  0
 31 12  2  0  0  0  0
 31 16  1  0  0  0  0
 32  1  1  0  0  0  0
 32 13  1  0  0  0  0
 32 21  1  0  0  0  0
 33 27  2  0  0  0  0
 34 28  2  0  0  0  0
 35 22  1  0  0  0  0
 35 27  1  0  0  0  0
 36 28  1  0  0  0  0
 37 25  1  0  0  0  0
 37 26  1  0  0  0  0
M  END
>  <DRUGBANK_ID>
DB13454

>  <COMMON_NAME>
Nicomorphine

>  <CAS_NUMBER>
639-48-5

>  <UNII>
Y95FRL95FW

>  <SYNONYMS>
Nicomorphine

$$$$
