
 OpenBabel10282417072D

 51 52  0  0  0  0  0  0  0  0999 V2000
    3.4618   -1.4289    0.0000 C   0  0  0  0  0  0  0  0  0  0  0  0
    4.6993    0.7145    0.0000 C   0  0  0  0  0  0  0  0  0  0  0  0
    4.2868   -1.4289    0.0000 C   0  0  0  0  0  0  0  0  0  0  0  0
    4.2868    0.0000    0.0000 C   0  0  0  0  0  0  0  0  0  0  0  0
   10.8868   -1.4289    0.0000 C   0  0  0  0  0  0  0  0  0  0  0  0
   10.4743   -0.7145    0.0000 C   0  0  0  0  0  0  0  0  0  0  0  0
   10.4743   -2.1434    0.0000 C   0  0  0  0  0  0  0  0  0  0  0  0
    7.9993    2.1434    0.0000 C   0  0  0  0  0  0  0  0  0  0  0  0
    7.1743    2.1434    0.0000 C   0  0  0  0  0  0  0  0  0  0  0  0
    9.6493   -0.7145    0.0000 C   0  0  0  0  0  0  0  0  0  0  0  0
    9.6493   -2.1434    0.0000 C   0  0  0  0  0  0  0  0  0  0  0  0
    8.4118    1.4289    0.0000 C   0  0  0  0  0  0  0  0  0  0  0  0
    6.7618    1.4289    0.0000 C   0  0  0  0  0  0  0  0  0  0  0  0
    8.4118   -1.4289    0.0000 C   0  0  0  0  0  0  0  0  0  0  0  0
    7.9993   -0.7145    0.0000 C   0  0  0  0  0  0  0  0  0  0  0  0
    5.5243   -0.7145    0.0000 C   0  0  0  0  0  0  0  0  0  0  0  0
    5.9368    0.0000    0.0000 C   0  0  0  0  0  0  0  0  0  0  0  0
    9.2368   -1.4289    0.0000 C   0  0  0  0  0  0  0  0  0  0  0  0
    7.9993    0.7145    0.0000 C   0  0  0  0  0  0  0  0  0  0  0  0
    8.4118    0.0000    0.0000 C   0  0  0  0  0  0  0  0  0  0  0  0
    7.1743    0.7145    0.0000 C   0  0  0  0  0  0  0  0  0  0  0  0
    4.6993   -0.7145    0.0000 N   0  0  0  0  0  0  0  0  0  0  0  0
    9.2368    0.0000    0.0000 O   0  0  0  0  0  0  0  0  0  0  0  0
    6.7618    0.0000    0.0000 O   0  0  0  0  0  0  0  0  0  0  0  0
    2.9268   -0.5023    0.0000 H   0  0  0  0  0  0  0  0  0  0  0  0
    2.9268   -2.3555    0.0000 H   0  0  0  0  0  0  0  0  0  0  0  0
    2.3918   -1.4289    0.0000 H   0  0  0  0  0  0  0  0  0  0  0  0
    5.7693    0.7145    0.0000 H   0  0  0  0  0  0  0  0  0  0  0  0
    4.1643    1.6411    0.0000 H   0  0  0  0  0  0  0  0  0  0  0  0
    5.2343    1.6412    0.0000 H   0  0  0  0  0  0  0  0  0  0  0  0
    4.8218   -2.3556    0.0000 H   0  0  0  0  0  0  0  0  0  0  0  0
    5.3568   -1.4289    0.0000 H   0  0  0  0  0  0  0  0  0  0  0  0
    3.2168    0.0000    0.0000 H   0  0  0  0  0  0  0  0  0  0  0  0
    3.7518   -0.9266    0.0000 H   0  0  0  0  0  0  0  0  0  0  0  0
   11.9188   -1.4289    0.0000 H   0  0  0  0  0  0  0  0  0  0  0  0
   10.9903    0.1792    0.0000 H   0  0  0  0  0  0  0  0  0  0  0  0
   10.9903   -3.0371    0.0000 H   0  0  0  0  0  0  0  0  0  0  0  0
    8.5153    3.0371    0.0000 H   0  0  0  0  0  0  0  0  0  0  0  0
    6.6583    3.0371    0.0000 H   0  0  0  0  0  0  0  0  0  0  0  0
    9.1333    0.1792    0.0000 H   0  0  0  0  0  0  0  0  0  0  0  0
    9.1333   -3.0371    0.0000 H   0  0  0  0  0  0  0  0  0  0  0  0
    9.4438    1.4289    0.0000 H   0  0  0  0  0  0  0  0  0  0  0  0
    5.7298    1.4289    0.0000 H   0  0  0  0  0  0  0  0  0  0  0  0
    7.8768   -2.3556    0.0000 H   0  0  0  0  0  0  0  0  0  0  0  0
    8.9468   -2.3555    0.0000 H   0  0  0  0  0  0  0  0  0  0  0  0
    6.9293   -0.7145    0.0000 H   0  0  0  0  0  0  0  0  0  0  0  0
    7.4643    0.2121    0.0000 H   0  0  0  0  0  0  0  0  0  0  0  0
    6.0593   -1.6411    0.0000 H   0  0  0  0  0  0  0  0  0  0  0  0
    4.9893   -1.6411    0.0000 H   0  0  0  0  0  0  0  0  0  0  0  0
    5.4018    0.9266    0.0000 H   0  0  0  0  0  0  0  0  0  0  0  0
    6.4718    0.9266    0.0000 H   0  0  0  0  0  0  0  0  0  0  0  0
  1 25  1  0  0  0  0
  1 26  1  0  0  0  0
  1 27  1  0  0  0  0
  2 28  1  0  0  0  0
  2 29  1  0  0  0  0
  2 30  1  0  0  0  0
  3  1  1  0  0  0  0
  3 31  1  0  0  0  0
  3 32  1  0  0  0  0
  4  2  1  0  0  0  0
  4 33  1  0  0  0  0
  4 34  1  0  0  0  0
  5 35  1  0  0  0  0
  6  5  2  0  0  0  0
  6 36  1  0  0  0  0
  7  5  1  0  0  0  0
  7 37  1  0  0  0  0
  8 38  1  0  0  0  0
  9  8  2  0  0  0  0
  9 39  1  0  0  0  0
 10  6  1  0  0  0  0
 10 40  1  0  0  0  0
 11  7  2  0  0  0  0
 11 41  1  0  0  0  0
 12  8  1  0  0  0  0
 12 42  1  0  0  0  0
 13  9  1  0  0  0  0
 13 43  1  0  0  0  0
 14 44  1  0  0  0  0
 14 45  1  0  0  0  0
 15 14  1  0  0  0  0
 15 46  1  0  0  0  0
 15 47  1  0  0  0  0
 16 48  1  0  0  0  0
 16 49  1  0  0  0  0
 17 16  1  0  0  0  0
 17 50  1  0  0  0  0
 17 51  1  0  0  0  0
 18 10  2  0  0  0  0
 18 11  1  0  0  0  0
 18 14  1  0  0  0  0
 19 12  2  0  0  0  0
 20 15  1  0  0  0  0
 20 19  1  0  0  0  0
 21 13  2  0  0  0  0
 21 19  1  0  0  0  0
 22  3  1  0  0  0  0
 22  4  1  0  0  0  0
 22 16  1  0  0  0  0
 23 20  2  0  0  0  0
 24 17  1  0  0  0  0
 24 21  1  0  0  0  0
M  END
>  <DRUGBANK_ID>
DB13845

>  <COMMON_NAME>
Etafenone

>  <CAS_NUMBER>
90-54-0

>  <UNII>
0I14K589E7

>  <SYNONYMS>
Etafenone

$$$$
