
 OpenBabel10282417072D

 39 41  0  0  0  0  0  0  0  0999 V2000
    5.7904    1.2297    0.0000 C   0  0  0  0  0  0  0  0  0  0  0  0
    4.9654    1.2297    0.0000 C   0  0  0  0  0  0  0  0  0  0  0  0
    4.5529    0.5152    0.0000 O   0  0  0  0  0  0  0  0  0  0  0  0
    4.5529    1.9441    0.0000 O   0  0  0  0  0  0  0  0  0  0  0  0
    3.7279    1.9441    0.0000 C   0  0  3  0  0  0  0  0  0  0  0  0
    3.3700    1.2008    0.0000 C   0  0  0  0  0  0  0  0  0  0  0  0
    3.8843    0.5558    0.0000 O   0  0  0  0  0  0  0  0  0  0  0  0
    2.5656    1.0173    0.0000 N   0  0  0  0  0  0  0  0  0  0  0  0
    1.9206    1.5316    0.0000 C   0  0  0  0  0  0  0  0  0  0  0  0
    1.2062    1.1191    0.0000 C   0  0  0  0  0  0  0  0  0  0  0  0
    0.4917    1.5316    0.0000 C   0  0  0  0  0  0  0  0  0  0  0  0
    0.4917    2.3566    0.0000 C   0  0  0  0  0  0  0  0  0  0  0  0
    1.2062    2.7691    0.0000 C   0  0  0  0  0  0  0  0  0  0  0  0
    1.9206    2.3566    0.0000 C   0  0  0  0  0  0  0  0  0  0  0  0
    2.5656    2.8710    0.0000 C   0  0  0  0  0  0  0  0  0  0  0  0
    3.3700    2.6874    0.0000 N   0  0  0  0  0  0  0  0  0  0  0  0
    2.3821    3.6753    0.0000 C   0  0  0  0  0  0  0  0  0  0  0  0
    1.5937    3.9185    0.0000 C   0  0  0  0  0  0  0  0  0  0  0  0
    1.4101    4.7228    0.0000 C   0  0  0  0  0  0  0  0  0  0  0  0
    2.0149    5.2840    0.0000 C   0  0  0  0  0  0  0  0  0  0  0  0
    2.8032    5.0408    0.0000 C   0  0  0  0  0  0  0  0  0  0  0  0
    2.9868    4.2365    0.0000 C   0  0  0  0  0  0  0  0  0  0  0  0
   -0.2228    2.7691    0.0000 Cl  0  0  0  0  0  0  0  0  0  0  0  0
    2.3821    0.2130    0.0000 C   0  0  0  0  0  0  0  0  0  0  0  0
    6.3254    0.3031    0.0000 H   0  0  0  0  0  0  0  0  0  0  0  0
    6.3254    2.1563    0.0000 H   0  0  0  0  0  0  0  0  0  0  0  0
    6.8604    1.2297    0.0000 H   0  0  0  0  0  0  0  0  0  0  0  0
    4.2972    1.0381    0.0000 H   0  0  0  0  0  0  0  0  0  0  0  0
    1.2062    0.0871    0.0000 H   0  0  0  0  0  0  0  0  0  0  0  0
   -0.4020    1.0156    0.0000 H   0  0  0  0  0  0  0  0  0  0  0  0
    1.2062    3.8011    0.0000 H   0  0  0  0  0  0  0  0  0  0  0  0
    0.8372    3.2166    0.0000 H   0  0  0  0  0  0  0  0  0  0  0  0
    0.4239    5.0270    0.0000 H   0  0  0  0  0  0  0  0  0  0  0  0
    1.7853    6.2901    0.0000 H   0  0  0  0  0  0  0  0  0  0  0  0
    3.5597    5.7427    0.0000 H   0  0  0  0  0  0  0  0  0  0  0  0
    3.9730    3.9324    0.0000 H   0  0  0  0  0  0  0  0  0  0  0  0
    1.3597   -0.1025    0.0000 H   0  0  0  0  0  0  0  0  0  0  0  0
    3.1665   -0.5147    0.0000 H   0  0  0  0  0  0  0  0  0  0  0  0
    2.1441   -0.8302    0.0000 H   0  0  0  0  0  0  0  0  0  0  0  0
  1  2  1  0  0  0  0
  1 25  1  0  0  0  0
  1 26  1  0  0  0  0
  1 27  1  0  0  0  0
  2  3  2  0  0  0  0
  2  4  1  0  0  0  0
  4  5  1  0  0  0  0
  5  6  1  0  0  0  0
  5 16  1  0  0  0  0
  5 28  1  0  0  0  0
  6  7  2  0  0  0  0
  6  8  1  0  0  0  0
  8  9  1  0  0  0  0
  8 24  1  0  0  0  0
  9 10  2  0  0  0  0
  9 14  1  0  0  0  0
 10 11  1  0  0  0  0
 10 29  1  0  0  0  0
 11 12  2  0  0  0  0
 11 30  1  0  0  0  0
 12 13  1  0  0  0  0
 12 23  1  0  0  0  0
 13 14  2  0  0  0  0
 13 31  1  0  0  0  0
 14 15  1  0  0  0  0
 15 16  2  0  0  0  0
 15 17  1  0  0  0  0
 17 18  2  0  0  0  0
 17 22  1  0  0  0  0
 18 19  1  0  0  0  0
 18 32  1  0  0  0  0
 19 20  2  0  0  0  0
 19 33  1  0  0  0  0
 20 21  1  0  0  0  0
 20 34  1  0  0  0  0
 21 22  2  0  0  0  0
 21 35  1  0  0  0  0
 22 36  1  0  0  0  0
 24 37  1  0  0  0  0
 24 38  1  0  0  0  0
 24 39  1  0  0  0  0
M  END
>  <DRUGBANK_ID>
DB14671

>  <SECONDARY_ACCESSION_NUMBERS>
DBSALT002270

>  <COMMON_NAME>
Temazepam acetate

>  <CAS_NUMBER>
18818-64-9

>  <UNII>
9F3H3E4BIM

$$$$
