
 OpenBabel10282417072D

 43 46  0  0  0  0  0  0  0  0999 V2000
    4.5967    5.2187    0.0000 C   0  0  0  0  0  0  0  0  0  0  0  0
    4.8517    4.4341    0.0000 C   0  0  0  0  0  0  0  0  0  0  0  0
    4.2996    3.8210    0.0000 N   0  0  0  0  0  0  0  0  0  0  0  0
    4.5546    3.0364    0.0000 C   0  0  0  0  0  0  0  0  0  0  0  0
    4.0025    2.4233    0.0000 C   0  0  0  0  0  0  0  0  0  0  0  0
    3.1956    2.5948    0.0000 C   0  0  0  0  0  0  0  0  0  0  0  0
    2.9406    3.3795    0.0000 C   0  0  0  0  0  0  0  0  0  0  0  0
    3.4927    3.9926    0.0000 C   0  0  0  0  0  0  0  0  0  0  0  0
    2.6435    1.9817    0.0000 O   0  0  0  0  0  0  0  0  0  0  0  0
    2.8985    1.1971    0.0000 C   0  0  0  0  0  0  0  0  0  0  0  0
    3.7054    1.0256    0.0000 C   0  0  0  0  0  0  0  0  0  0  0  0
    3.9604    0.2410    0.0000 N   0  0  0  0  0  0  0  0  0  0  0  0
    3.4084   -0.3721    0.0000 C   0  0  0  0  0  0  0  0  0  0  0  0
    2.6014   -0.2006    0.0000 C   0  0  0  0  0  0  0  0  0  0  0  0
    2.3464    0.5840    0.0000 C   0  0  0  0  0  0  0  0  0  0  0  0
    1.5214    0.5840    0.0000 C   0  0  0  0  0  0  0  0  0  0  0  0
    1.2665   -0.2006    0.0000 C   0  0  0  0  0  0  0  0  0  0  0  0
    1.9339   -0.6855    0.0000 N   0  0  0  0  0  0  0  0  0  0  0  0
    0.4595   -0.3721    0.0000 N   0  0  0  0  0  0  0  0  0  0  0  0
   -0.0925    0.2410    0.0000 C   0  0  0  0  0  0  0  0  0  0  0  0
    0.1624    1.0256    0.0000 C   0  0  0  0  0  0  0  0  0  0  0  0
    0.9694    1.1971    0.0000 C   0  0  0  0  0  0  0  0  0  0  0  0
    4.2575    1.6387    0.0000 C   0  0  0  0  0  0  0  0  0  0  0  0
    4.8095    2.2518    0.0000 N   0  0  0  0  0  0  0  0  0  0  0  0
    5.3126    6.0139    0.0000 H   0  0  0  0  0  0  0  0  0  0  0  0
    3.5501    5.4411    0.0000 H   0  0  0  0  0  0  0  0  0  0  0  0
    4.2660    6.2363    0.0000 H   0  0  0  0  0  0  0  0  0  0  0  0
    5.8983    4.2116    0.0000 H   0  0  0  0  0  0  0  0  0  0  0  0
    5.1823    3.4165    0.0000 H   0  0  0  0  0  0  0  0  0  0  0  0
    5.6012    2.8139    0.0000 H   0  0  0  0  0  0  0  0  0  0  0  0
    4.8852    2.0188    0.0000 H   0  0  0  0  0  0  0  0  0  0  0  0
    4.3331    1.4057    0.0000 H   0  0  0  0  0  0  0  0  0  0  0  0
    3.2865    1.6281    0.0000 H   0  0  0  0  0  0  0  0  0  0  0  0
    2.1490    2.8173    0.0000 H   0  0  0  0  0  0  0  0  0  0  0  0
    1.8940    3.6020    0.0000 H   0  0  0  0  0  0  0  0  0  0  0  0
    2.6100    4.3971    0.0000 H   0  0  0  0  0  0  0  0  0  0  0  0
    3.1621    5.0103    0.0000 H   0  0  0  0  0  0  0  0  0  0  0  0
    4.2087    4.7877    0.0000 H   0  0  0  0  0  0  0  0  0  0  0  0
    3.7273   -1.3536    0.0000 H   0  0  0  0  0  0  0  0  0  0  0  0
    1.9339   -1.6700    0.0000 H   0  0  0  0  0  0  0  0  0  0  0  0
   -1.1019    0.0264    0.0000 H   0  0  0  0  0  0  0  0  0  0  0  0
   -0.5281    1.7925    0.0000 H   0  0  0  0  0  0  0  0  0  0  0  0
    1.2883    2.1786    0.0000 H   0  0  0  0  0  0  0  0  0  0  0  0
  1  2  1  0  0  0  0
  1 25  1  0  0  0  0
  1 26  1  0  0  0  0
  1 27  1  0  0  0  0
  2  3  1  0  0  0  0
  2 28  1  0  0  0  0
  2 29  1  0  0  0  0
  3  4  1  0  0  0  0
  3  8  1  0  0  0  0
  4  5  1  0  0  0  0
  4 30  1  0  0  0  0
  4 31  1  0  0  0  0
  5  6  1  0  0  0  0
  5 32  1  0  0  0  0
  5 33  1  0  0  0  0
  6  7  1  0  0  0  0
  6  9  1  0  0  0  0
  6 34  1  0  0  0  0
  7  8  1  0  0  0  0
  7 35  1  0  0  0  0
  7 36  1  0  0  0  0
  8 37  1  0  0  0  0
  8 38  1  0  0  0  0
  9 10  1  0  0  0  0
 10 11  2  0  0  0  0
 10 15  1  0  0  0  0
 11 12  1  0  0  0  0
 11 23  1  0  0  0  0
 12 13  2  0  0  0  0
 13 14  1  0  0  0  0
 13 39  1  0  0  0  0
 14 15  2  0  0  0  0
 14 18  1  0  0  0  0
 15 16  1  0  0  0  0
 16 17  2  0  0  0  0
 16 22  1  0  0  0  0
 17 18  1  0  0  0  0
 17 19  1  0  0  0  0
 18 40  1  0  0  0  0
 19 20  2  0  0  0  0
 20 21  1  0  0  0  0
 20 41  1  0  0  0  0
 21 22  2  0  0  0  0
 21 42  1  0  0  0  0
 22 43  1  0  0  0  0
 23 24  3  0  0  0  0
M  END
>  <DRUGBANK_ID>
DB14791

>  <COMMON_NAME>
GDC-0425

>  <CAS_NUMBER>
1627539-18-7

>  <UNII>
4N173XZ7SX

$$$$
