
 OpenBabel10282417072D

 59 60  0  0  0  0  0  0  0  0999 V2000
   -2.6692    2.2727    0.0000 C   0  0  0  0  0  0  0  0  0  0  0  0
   -2.0561    1.7206    0.0000 C   0  0  0  0  0  0  0  0  0  0  0  0
   -2.3917    0.9669    0.0000 N   0  0  0  0  0  0  0  0  0  0  0  0
   -3.2122    1.0531    0.0000 C   0  0  2  0  0  0  0  0  0  0  0  0
   -3.3837    1.8602    0.0000 C   0  0  0  0  0  0  0  0  0  0  0  0
   -3.7642    0.4400    0.0000 C   0  0  0  0  0  0  0  0  0  0  0  0
   -4.5712    0.6115    0.0000 O   0  0  0  0  0  0  0  0  0  0  0  0
   -3.5093   -0.3445    0.0000 N   0  0  0  0  0  0  0  0  0  0  0  0
   -1.9792    0.2524    0.0000 S   0  0  0  0  0  0  0  0  0  0  0  0
   -1.2647    0.6649    0.0000 C   0  0  0  0  0  0  0  0  0  0  0  0
   -1.5667   -0.4620    0.0000 O   0  0  0  0  0  0  0  0  0  0  0  0
   -2.6937   -0.1600    0.0000 O   0  0  0  0  0  0  0  0  0  0  0  0
   -1.2647    1.4899    0.0000 C   0  0  0  0  0  0  0  0  0  0  0  0
   -0.5502    1.9025    0.0000 C   0  0  0  0  0  0  0  0  0  0  0  0
    0.1641    1.4899    0.0000 C   0  0  0  0  0  0  0  0  0  0  0  0
    0.1641    0.6649    0.0000 C   0  0  0  0  0  0  0  0  0  0  0  0
   -0.5502    0.2524    0.0000 C   0  0  0  0  0  0  0  0  0  0  0  0
    0.8786    1.9025    0.0000 C   0  0  0  0  0  0  0  0  0  0  0  0
    1.5931    1.4899    0.0000 N   0  0  0  0  0  0  0  0  0  0  0  0
    2.3075    1.9025    0.0000 C   0  0  1  0  0  0  0  0  0  0  0  0
    3.0220    1.4899    0.0000 C   0  0  0  0  0  0  0  0  0  0  0  0
    3.7365    1.9025    0.0000 C   0  0  0  0  0  0  0  0  0  0  0  0
    4.4510    1.4899    0.0000 C   0  0  0  0  0  0  0  0  0  0  0  0
    0.8786    2.7274    0.0000 O   0  0  0  0  0  0  0  0  0  0  0  0
    2.3075    2.7274    0.0000 C   0  0  0  0  0  0  0  0  0  0  0  0
    3.0220    3.1399    0.0000 O   0  0  0  0  0  0  0  0  0  0  0  0
    1.5931    3.1399    0.0000 O   0  0  0  0  0  0  0  0  0  0  0  0
    4.4510    0.6649    0.0000 O   0  0  0  0  0  0  0  0  0  0  0  0
    5.1654    1.9025    0.0000 O   0  0  0  0  0  0  0  0  0  0  0  0
   -4.0613   -0.9576    0.0000 C   0  0  0  0  0  0  0  0  0  0  0  0
   -3.8063   -1.7422    0.0000 C   0  0  0  0  0  0  0  0  0  0  0  0
   -4.3584   -2.3553    0.0000 C   0  0  0  0  0  0  0  0  0  0  0  0
   -4.1034   -3.1399    0.0000 O   0  0  0  0  0  0  0  0  0  0  0  0
   -5.1654   -2.1838    0.0000 O   0  0  0  0  0  0  0  0  0  0  0  0
   -2.5573    3.3368    0.0000 H   0  0  0  0  0  0  0  0  0  0  0  0
   -3.5666    2.8555    0.0000 H   0  0  0  0  0  0  0  0  0  0  0  0
   -1.0095    1.9430    0.0000 H   0  0  0  0  0  0  0  0  0  0  0  0
   -1.3828    0.8890    0.0000 H   0  0  0  0  0  0  0  0  0  0  0  0
   -2.8287    0.0542    0.0000 H   0  0  0  0  0  0  0  0  0  0  0  0
   -4.3612    2.2954    0.0000 H   0  0  0  0  0  0  0  0  0  0  0  0
   -4.2153    1.1869    0.0000 H   0  0  0  0  0  0  0  0  0  0  0  0
   -2.5463   -0.5492    0.0000 H   0  0  0  0  0  0  0  0  0  0  0  0
   -2.1585    2.0059    0.0000 H   0  0  0  0  0  0  0  0  0  0  0  0
   -0.5501    2.9345    0.0000 H   0  0  0  0  0  0  0  0  0  0  0  0
    1.0579    0.1489    0.0000 H   0  0  0  0  0  0  0  0  0  0  0  0
   -0.5501   -0.7796    0.0000 H   0  0  0  0  0  0  0  0  0  0  0  0
    1.5931    0.5054    0.0000 H   0  0  0  0  0  0  0  0  0  0  0  0
    2.3075    0.8325    0.0000 H   0  0  0  0  0  0  0  0  0  0  0  0
    3.0220    0.4199    0.0000 H   0  0  0  0  0  0  0  0  0  0  0  0
    3.9487    0.9549    0.0000 H   0  0  0  0  0  0  0  0  0  0  0  0
    3.7365    2.9725    0.0000 H   0  0  0  0  0  0  0  0  0  0  0  0
    4.6632    2.4375    0.0000 H   0  0  0  0  0  0  0  0  0  0  0  0
    1.5931    4.0769    0.0000 H   0  0  0  0  0  0  0  0  0  0  0  0
    3.6395    0.1964    0.0000 H   0  0  0  0  0  0  0  0  0  0  0  0
   -5.1079   -0.7352    0.0000 H   0  0  0  0  0  0  0  0  0  0  0  0
   -4.7772   -1.7528    0.0000 H   0  0  0  0  0  0  0  0  0  0  0  0
   -2.7597   -1.9647    0.0000 H   0  0  0  0  0  0  0  0  0  0  0  0
   -3.4757   -2.7598    0.0000 H   0  0  0  0  0  0  0  0  0  0  0  0
   -4.7303   -3.8363    0.0000 H   0  0  0  0  0  0  0  0  0  0  0  0
  1  2  1  0  0  0  0
  1  5  1  0  0  0  0
  1 35  1  0  0  0  0
  1 36  1  0  0  0  0
  2  3  1  0  0  0  0
  2 37  1  0  0  0  0
  2 38  1  0  0  0  0
  3  9  1  0  0  0  0
  4  3  1  0  0  0  0
  4  5  1  0  0  0  0
  4  6  1  0  0  0  0
  4 39  1  6  0  0  0
  5 40  1  0  0  0  0
  5 41  1  0  0  0  0
  6  7  2  0  0  0  0
  6  8  1  0  0  0  0
  8 42  1  0  0  0  0
 10  9  1  0  0  0  0
 10 13  2  0  0  0  0
 10 17  1  0  0  0  0
 11  9  2  0  0  0  0
 12  9  2  0  0  0  0
 13 14  1  0  0  0  0
 13 43  1  0  0  0  0
 14 15  2  0  0  0  0
 14 44  1  0  0  0  0
 15 16  1  0  0  0  0
 15 18  1  0  0  0  0
 16 17  2  0  0  0  0
 16 45  1  0  0  0  0
 17 46  1  0  0  0  0
 18 19  1  0  0  0  0
 18 24  2  0  0  0  0
 19 47  1  0  0  0  0
 20 19  1  0  0  0  0
 20 21  1  0  0  0  0
 20 25  1  0  0  0  0
 20 48  1  1  0  0  0
 21 22  1  0  0  0  0
 21 49  1  0  0  0  0
 21 50  1  0  0  0  0
 22 23  1  0  0  0  0
 22 51  1  0  0  0  0
 22 52  1  0  0  0  0
 23 28  1  0  0  0  0
 23 29  2  0  0  0  0
 25 26  2  0  0  0  0
 25 27  1  0  0  0  0
 27 53  1  0  0  0  0
 28 54  1  0  0  0  0
 30  8  1  0  0  0  0
 30 31  1  0  0  0  0
 30 55  1  0  0  0  0
 30 56  1  0  0  0  0
 31 32  1  0  0  0  0
 31 57  1  0  0  0  0
 31 58  1  0  0  0  0
 32 33  1  0  0  0  0
 32 34  2  0  0  0  0
 33 59  1  0  0  0  0
M  END
>  <DRUGBANK_ID>
DB03558

>  <SECONDARY_ACCESSION_NUMBERS>
EXPT03087

>  <COMMON_NAME>
SP-876

>  <SYNONYMS>
1-[(4-{[(1S)-1,3-Dicarboxypropyl]carbamoyl}phenyl)sulfonyl]-D-prolyl-Î²-alanine

$$$$
