425
 OpenBabel10282417072D

 44 46  0  0  0  0  0  0  0  0999 V2000
    3.4722    0.5743    0.0000 O   0  0  0  0  0  0  0  0  0  0  0  0
    3.7935   -0.9052    0.0000 N   0  0  0  0  0  0  0  0  0  0  0  0
    4.5741   -1.9816    0.0000 N   0  0  0  0  0  0  0  0  0  0  0  0
    4.5358    1.5287    0.0000 N   0  0  0  0  0  0  0  0  0  0  0  0
    4.5741   -0.6538    0.0000 C   0  0  0  0  0  0  0  0  0  0  0  0
    5.0556   -1.3177    0.0000 C   0  0  0  0  0  0  0  0  0  0  0  0
    3.7935   -1.7302    0.0000 C   0  0  0  0  0  0  0  0  0  0  0  0
    4.8305    0.1304    0.0000 C   0  0  0  0  0  0  0  0  0  0  0  0
    5.8806   -1.3177    0.0000 C   0  0  0  0  0  0  0  0  0  0  0  0
    3.0791   -0.4927    0.0000 C   0  0  0  0  0  0  0  0  0  0  0  0
    2.3645   -0.9052    0.0000 C   0  0  0  0  0  0  0  0  0  0  0  0
    3.0791   -2.1427    0.0000 C   0  0  0  0  0  0  0  0  0  0  0  0
    4.2795    0.7445    0.0000 C   0  0  0  0  0  0  0  0  0  0  0  0
    2.3645   -1.7302    0.0000 C   0  0  0  0  0  0  0  0  0  0  0  0
    6.2932   -2.0322    0.0000 C   0  0  0  0  0  0  0  0  0  0  0  0
    6.2932   -0.6033    0.0000 C   0  0  0  0  0  0  0  0  0  0  0  0
    1.6500   -0.4927    0.0000 C   0  0  0  0  0  0  0  0  0  0  0  0
    7.5307   -1.3177    0.0000 C   0  0  0  0  0  0  0  0  0  0  0  0
    7.1182   -2.0322    0.0000 C   0  0  0  0  0  0  0  0  0  0  0  0
    7.1182   -0.6033    0.0000 C   0  0  0  0  0  0  0  0  0  0  0  0
    3.9848    2.1427    0.0000 C   0  0  0  0  0  0  0  0  0  0  0  0
    5.3431    1.6988    0.0000 C   0  0  0  0  0  0  0  0  0  0  0  0
    8.3557   -1.3177    0.0000 C   0  0  0  0  0  0  0  0  0  0  0  0
    5.8775    0.3510    0.0000 H   0  0  0  0  0  0  0  0  0  0  0  0
    5.1629    1.1474    0.0000 H   0  0  0  0  0  0  0  0  0  0  0  0
    3.0792    0.5393    0.0000 H   0  0  0  0  0  0  0  0  0  0  0  0
    3.0792   -3.1747    0.0000 H   0  0  0  0  0  0  0  0  0  0  0  0
    1.4708   -2.2462    0.0000 H   0  0  0  0  0  0  0  0  0  0  0  0
    5.7772   -2.9260    0.0000 H   0  0  0  0  0  0  0  0  0  0  0  0
    5.7773    0.2905    0.0000 H   0  0  0  0  0  0  0  0  0  0  0  0
    1.6500    0.5773    0.0000 H   0  0  0  0  0  0  0  0  0  0  0  0
    0.7234   -1.0277    0.0000 H   0  0  0  0  0  0  0  0  0  0  0  0
    0.7233    0.0423    0.0000 H   0  0  0  0  0  0  0  0  0  0  0  0
    7.6342   -2.9259    0.0000 H   0  0  0  0  0  0  0  0  0  0  0  0
    7.6342    0.2904    0.0000 H   0  0  0  0  0  0  0  0  0  0  0  0
    4.3171    3.1598    0.0000 H   0  0  0  0  0  0  0  0  0  0  0  0
    2.9378    1.9220    0.0000 H   0  0  0  0  0  0  0  0  0  0  0  0
    3.2702    2.9391    0.0000 H   0  0  0  0  0  0  0  0  0  0  0  0
    6.0577    0.9024    0.0000 H   0  0  0  0  0  0  0  0  0  0  0  0
    5.6756    2.7158    0.0000 H   0  0  0  0  0  0  0  0  0  0  0  0
    6.3901    1.9194    0.0000 H   0  0  0  0  0  0  0  0  0  0  0  0
    8.8907   -2.2443    0.0000 H   0  0  0  0  0  0  0  0  0  0  0  0
    8.8907   -0.3911    0.0000 H   0  0  0  0  0  0  0  0  0  0  0  0
    9.4257   -1.3177    0.0000 H   0  0  0  0  0  0  0  0  0  0  0  0
  1 13  2  0  0  0  0
  2  5  1  0  0  0  0
  2  7  1  0  0  0  0
  2 10  1  0  0  0  0
  3  6  1  0  0  0  0
  3  7  2  0  0  0  0
  4 13  1  0  0  0  0
  4 21  1  0  0  0  0
  4 22  1  0  0  0  0
  5  6  2  0  0  0  0
  5  8  1  0  0  0  0
  6  9  1  0  0  0  0
  7 12  1  0  0  0  0
  8 13  1  0  0  0  0
  8 24  1  0  0  0  0
  8 25  1  0  0  0  0
  9 15  2  0  0  0  0
  9 16  1  0  0  0  0
 10 11  2  0  0  0  0
 10 26  1  0  0  0  0
 11 14  1  0  0  0  0
 11 17  1  0  0  0  0
 12 14  2  0  0  0  0
 12 27  1  0  0  0  0
 14 28  1  0  0  0  0
 15 19  1  0  0  0  0
 15 29  1  0  0  0  0
 16 20  2  0  0  0  0
 16 30  1  0  0  0  0
 17 31  1  0  0  0  0
 17 32  1  0  0  0  0
 17 33  1  0  0  0  0
 18 19  2  0  0  0  0
 18 20  1  0  0  0  0
 18 23  1  0  0  0  0
 19 34  1  0  0  0  0
 20 35  1  0  0  0  0
 21 36  1  0  0  0  0
 21 37  1  0  0  0  0
 21 38  1  0  0  0  0
 22 39  1  0  0  0  0
 22 40  1  0  0  0  0
 22 41  1  0  0  0  0
 23 42  1  0  0  0  0
 23 43  1  0  0  0  0
 23 44  1  0  0  0  0
M  END
>  <DRUGBANK_ID>
DB00425

>  <SECONDARY_ACCESSION_NUMBERS>
APRD00095

>  <COMMON_NAME>
Zolpidem

>  <CAS_NUMBER>
82626-48-0

>  <UNII>
7K383OQI23

>  <SYNONYMS>
N,N,6-Trimethyl-2-(4-methylphenyl)imidazo(1,2-a)pyridine-3-acetamide; Zolpidem; Zolpidemum

$$$$
