
 OpenBabel10282417072D

 49 50  0  0  0  0  0  0  0  0999 V2000
    2.9715   -2.5754    0.0000 P   0  0  0  0  0  0  0  0  0  0  0  0
    1.4361   -0.5420    0.0000 O   0  0  0  0  0  0  0  0  0  0  0  0
   -0.6833   -0.2871    0.0000 O   0  0  0  0  0  0  0  0  0  0  0  0
   -0.1286   -1.9941    0.0000 O   0  0  0  0  0  0  0  0  0  0  0  0
    2.4866   -1.9078    0.0000 O   0  0  0  0  0  0  0  0  0  0  0  0
    2.1977    0.7678    0.0000 O   0  0  0  0  0  0  0  0  0  0  0  0
    3.4565   -3.2427    0.0000 O   0  0  0  0  0  0  0  0  0  0  0  0
    3.6390   -2.0905    0.0000 O   0  0  0  0  0  0  0  0  0  0  0  0
    0.7688    3.2427    0.0000 O   0  0  0  0  0  0  0  0  0  0  0  0
    2.3042   -3.0602    0.0000 O   0  0  0  0  0  0  0  0  0  0  0  0
    0.7688    0.7678    0.0000 N   0  0  0  0  0  0  0  0  0  0  0  0
    1.4832    2.0052    0.0000 N   0  0  0  0  0  0  0  0  0  0  0  0
    0.1013   -0.5420    0.0000 C   0  0  2  0  0  0  0  0  0  0  0  0
    0.3562   -1.3267    0.0000 C   0  0  1  0  0  0  0  0  0  0  0  0
    0.7688   -0.0571    0.0000 C   0  0  1  0  0  0  0  0  0  0  0  0
    1.1812   -1.3267    0.0000 C   0  0  1  0  0  0  0  0  0  0  0  0
    1.6661   -1.9941    0.0000 C   0  0  0  0  0  0  0  0  0  0  0  0
   -1.2963   -0.8392    0.0000 C   0  0  0  0  0  0  0  0  0  0  0  0
    0.0542    1.1803    0.0000 C   0  0  0  0  0  0  0  0  0  0  0  0
    1.4832    1.1803    0.0000 C   0  0  0  0  0  0  0  0  0  0  0  0
   -2.0810   -0.5842    0.0000 C   0  0  0  0  0  0  0  0  0  0  0  0
    0.0542    2.0052    0.0000 C   0  0  0  0  0  0  0  0  0  0  0  0
   -2.6940   -1.1362    0.0000 C   0  0  0  0  0  0  0  0  0  0  0  0
    0.7688    2.4178    0.0000 C   0  0  0  0  0  0  0  0  0  0  0  0
   -0.6601    2.4178    0.0000 C   0  0  0  0  0  0  0  0  0  0  0  0
   -3.4787   -0.8813    0.0000 C   0  0  0  0  0  0  0  0  0  0  0  0
   -1.0933   -1.8928    0.0000 H   0  0  0  0  0  0  0  0  0  0  0  0
    3.0621   -4.1289    0.0000 H   0  0  0  0  0  0  0  0  0  0  0  0
    4.5251   -2.4851    0.0000 H   0  0  0  0  0  0  0  0  0  0  0  0
    2.3358    2.4974    0.0000 H   0  0  0  0  0  0  0  0  0  0  0  0
   -0.6553   -1.2986    0.0000 H   0  0  0  0  0  0  0  0  0  0  0  0
   -0.7006   -1.1593    0.0000 H   0  0  0  0  0  0  0  0  0  0  0  0
    1.7222    0.4286    0.0000 H   0  0  0  0  0  0  0  0  0  0  0  0
    2.2380   -1.1593    0.0000 H   0  0  0  0  0  0  0  0  0  0  0  0
    1.2309   -2.9716    0.0000 H   0  0  0  0  0  0  0  0  0  0  0  0
    0.6020   -2.1060    0.0000 H   0  0  0  0  0  0  0  0  0  0  0  0
   -1.0738   -1.8858    0.0000 H   0  0  0  0  0  0  0  0  0  0  0  0
   -2.0915   -1.5552    0.0000 H   0  0  0  0  0  0  0  0  0  0  0  0
   -0.8395    0.6643    0.0000 H   0  0  0  0  0  0  0  0  0  0  0  0
   -2.3035    0.4624    0.0000 H   0  0  0  0  0  0  0  0  0  0  0  0
   -3.0986   -0.2536    0.0000 H   0  0  0  0  0  0  0  0  0  0  0  0
   -2.4715   -2.1828    0.0000 H   0  0  0  0  0  0  0  0  0  0  0  0
   -3.4891   -1.8522    0.0000 H   0  0  0  0  0  0  0  0  0  0  0  0
   -0.6599    3.4878    0.0000 H   0  0  0  0  0  0  0  0  0  0  0  0
   -1.5869    1.8830    0.0000 H   0  0  0  0  0  0  0  0  0  0  0  0
   -1.5866    2.9530    0.0000 H   0  0  0  0  0  0  0  0  0  0  0  0
   -3.7012    0.1653    0.0000 H   0  0  0  0  0  0  0  0  0  0  0  0
   -4.2738   -1.5973    0.0000 H   0  0  0  0  0  0  0  0  0  0  0  0
   -4.4964   -0.5507    0.0000 H   0  0  0  0  0  0  0  0  0  0  0  0
  1  5  1  0  0  0  0
  1  7  1  0  0  0  0
  1  8  1  0  0  0  0
  1 10  2  0  0  0  0
  2 15  1  0  0  0  0
  2 16  1  0  0  0  0
  3 18  1  0  0  0  0
  4 27  1  0  0  0  0
  5 17  1  0  0  0  0
  6 20  2  0  0  0  0
  7 28  1  0  0  0  0
  8 29  1  0  0  0  0
  9 24  2  0  0  0  0
 11 19  1  0  0  0  0
 11 20  1  0  0  0  0
 12 20  1  0  0  0  0
 12 24  1  0  0  0  0
 12 30  1  0  0  0  0
 13  3  1  0  0  0  0
 13 14  1  0  0  0  0
 13 15  1  0  0  0  0
 13 31  1  6  0  0  0
 14  4  1  0  0  0  0
 14 16  1  0  0  0  0
 14 32  1  6  0  0  0
 15 11  1  0  0  0  0
 15 33  1  1  0  0  0
 16 17  1  0  0  0  0
 16 34  1  1  0  0  0
 17 35  1  0  0  0  0
 17 36  1  0  0  0  0
 18 21  1  0  0  0  0
 18 37  1  0  0  0  0
 18 38  1  0  0  0  0
 19 22  2  0  0  0  0
 19 39  1  0  0  0  0
 21 23  1  0  0  0  0
 21 40  1  0  0  0  0
 21 41  1  0  0  0  0
 22 24  1  0  0  0  0
 22 25  1  0  0  0  0
 23 26  1  0  0  0  0
 23 42  1  0  0  0  0
 23 43  1  0  0  0  0
 25 44  1  0  0  0  0
 25 45  1  0  0  0  0
 25 46  1  0  0  0  0
 26 47  1  0  0  0  0
 26 48  1  0  0  0  0
 26 49  1  0  0  0  0
M  END
>  <DRUGBANK_ID>
DB04587

>  <COMMON_NAME>
2'-O-butyl-5-methyluridine

$$$$
