
 OpenBabel10282417072D

117121  0  0  1  0  0  0  0  0999 V2000
   -0.1035    1.7944    0.0000 C   0  0  0  0  0  0  0  0  0  0  0  0
    0.4253    1.1611    0.0000 O   0  0  0  0  0  0  0  0  0  0  0  0
    0.1412    0.3866    0.0000 C   0  0  2  0  0  0  0  0  0  0  0  0
    0.1392   -0.4384    0.0000 C   0  0  0  0  0  0  0  0  0  0  0  0
   -0.5762   -0.8492    0.0000 C   0  0  2  0  0  0  0  0  0  0  0  0
   -0.5782   -1.6742    0.0000 O   0  0  0  0  0  0  0  0  0  0  0  0
   -1.2897   -0.4350    0.0000 C   0  0  1  0  0  0  0  0  0  0  0  0
   -2.0052   -0.8458    0.0000 N   0  0  0  0  0  0  0  0  0  0  0  0
   -2.0071   -1.6708    0.0000 C   0  0  0  0  0  0  0  0  0  0  0  0
   -1.2937   -2.0850    0.0000 C   0  0  0  0  0  0  0  0  0  0  0  0
   -2.7226   -2.0815    0.0000 O   0  0  0  0  0  0  0  0  0  0  0  0
   -1.2877    0.3900    0.0000 C   0  0  1  0  0  0  0  0  0  0  0  0
   -0.5722    0.8008    0.0000 O   0  0  0  0  0  0  0  0  0  0  0  0
   -2.0012    0.8042    0.0000 C   0  0  2  0  0  0  0  0  0  0  0  0
   -1.9992    1.6292    0.0000 O   0  0  0  0  0  0  0  0  0  0  0  0
   -2.7166    0.3934    0.0000 C   0  0  2  0  0  0  0  0  0  0  0  0
   -3.4301    0.8077    0.0000 O   0  0  0  0  0  0  0  0  0  0  0  0
   -2.7186   -0.4315    0.0000 C   0  0  0  0  0  0  0  0  0  0  0  0
   -3.4341   -0.8423    0.0000 O   0  0  0  0  0  0  0  0  0  0  0  0
    0.9533    0.2414    0.0000 C   0  0  0  0  0  0  0  0  0  0  0  0
    1.4852    0.8721    0.0000 O   0  0  0  0  0  0  0  0  0  0  0  0
    1.2336   -0.5346    0.0000 N   0  0  0  0  0  0  0  0  0  0  0  0
    2.0458   -0.6798    0.0000 C   0  0  2  0  0  0  0  0  0  0  0  0
    2.3261   -1.4557    0.0000 C   0  0  0  0  0  0  0  0  0  0  0  0
    3.1382   -1.6009    0.0000 C   0  0  0  0  0  0  0  0  0  0  0  0
    3.6700   -0.9702    0.0000 C   0  0  1  0  0  0  0  0  0  0  0  0
    3.9503   -1.7461    0.0000 C   0  0  0  0  0  0  0  0  0  0  0  0
    3.3897   -0.1943    0.0000 C   0  0  1  0  0  0  0  0  0  0  0  0
    3.9215    0.4364    0.0000 C   0  0  0  0  0  0  0  0  0  0  0  0
    4.7336    0.2912    0.0000 C   0  0  0  0  0  0  0  0  0  0  0  0
    5.0139   -0.4847    0.0000 C   0  0  1  0  0  0  0  0  0  0  0  0
    5.8261   -0.6299    0.0000 C   0  0  2  0  0  0  0  0  0  0  0  0
    6.4774   -0.1236    0.0000 C   0  0  0  0  0  0  0  0  0  0  0  0
    7.1602   -0.5866    0.0000 C   0  0  0  0  0  0  0  0  0  0  0  0
    6.9309   -1.3791    0.0000 C   0  0  2  0  0  0  0  0  0  0  0  0
    7.4373   -2.0304    0.0000 C   0  0  2  0  0  0  0  0  0  0  0  0
    7.1264   -2.7946    0.0000 C   0  0  0  0  0  0  0  0  0  0  0  0
    8.2545   -1.9175    0.0000 C   0  0  0  0  0  0  0  0  0  0  0  0
    8.7609   -2.5689    0.0000 C   0  0  0  0  0  0  0  0  0  0  0  0
    9.5781   -2.4560    0.0000 C   0  0  0  0  0  0  0  0  0  0  0  0
   10.0845   -3.1073    0.0000 C   0  0  0  0  0  0  0  0  0  0  0  0
   10.9017   -2.9945    0.0000 C   0  0  0  0  0  0  0  0  0  0  0  0
    9.7736   -3.8715    0.0000 C   0  0  0  0  0  0  0  0  0  0  0  0
    6.1064   -1.4059    0.0000 C   0  0  2  0  0  0  0  0  0  0  0  0
    6.4662   -2.1482    0.0000 C   0  0  0  0  0  0  0  0  0  0  0  0
    5.5745   -2.0366    0.0000 C   0  0  0  0  0  0  0  0  0  0  0  0
    4.7624   -1.8914    0.0000 C   0  0  0  0  0  0  0  0  0  0  0  0
    4.4821   -1.1154    0.0000 C   0  0  2  0  0  0  0  0  0  0  0  0
    2.5776   -0.0491    0.0000 C   0  0  0  0  0  0  0  0  0  0  0  0
    0.2649    2.7990    0.0000 H   0  0  0  0  0  0  0  0  0  0  0  0
   -1.1577    1.6111    0.0000 H   0  0  0  0  0  0  0  0  0  0  0  0
   -0.7893    2.6157    0.0000 H   0  0  0  0  0  0  0  0  0  0  0  0
    1.0646   -0.9756    0.0000 H   0  0  0  0  0  0  0  0  0  0  0  0
    0.1367   -1.5084    0.0000 H   0  0  0  0  0  0  0  0  0  0  0  0
    0.3492   -1.3864    0.0000 H   0  0  0  0  0  0  0  0  0  0  0  0
   -1.4194   -2.1572    0.0000 H   0  0  0  0  0  0  0  0  0  0  0  0
   -1.2923   -1.5050    0.0000 H   0  0  0  0  0  0  0  0  0  0  0  0
   -2.8566   -0.3515    0.0000 H   0  0  0  0  0  0  0  0  0  0  0  0
   -1.2963   -3.1550    0.0000 H   0  0  0  0  0  0  0  0  0  0  0  0
   -0.3658   -1.5523    0.0000 H   0  0  0  0  0  0  0  0  0  0  0  0
   -0.3684   -2.6223    0.0000 H   0  0  0  0  0  0  0  0  0  0  0  0
   -2.2156   -0.1428    0.0000 H   0  0  0  0  0  0  0  0  0  0  0  0
   -2.9266    1.3414    0.0000 H   0  0  0  0  0  0  0  0  0  0  0  0
   -1.1580    2.1122    0.0000 H   0  0  0  0  0  0  0  0  0  0  0  0
   -2.7140    1.4634    0.0000 H   0  0  0  0  0  0  0  0  0  0  0  0
   -3.4277    1.7777    0.0000 H   0  0  0  0  0  0  0  0  0  0  0  0
   -1.7932   -0.9687    0.0000 H   0  0  0  0  0  0  0  0  0  0  0  0
   -2.7212   -1.5015    0.0000 H   0  0  0  0  0  0  0  0  0  0  0  0
   -4.2730   -0.3553    0.0000 H   0  0  0  0  0  0  0  0  0  0  0  0
    0.5990   -1.2872    0.0000 H   0  0  0  0  0  0  0  0  0  0  0  0
    1.3561   -1.4978    0.0000 H   0  0  0  0  0  0  0  0  0  0  0  0
    1.6364   -2.2737    0.0000 H   0  0  0  0  0  0  0  0  0  0  0  0
    2.6897   -2.4620    0.0000 H   0  0  0  0  0  0  0  0  0  0  0  0
    3.5018   -2.6072    0.0000 H   0  0  0  0  0  0  0  0  0  0  0  0
    4.1915   -1.7892    0.0000 H   0  0  0  0  0  0  0  0  0  0  0  0
    3.2606   -2.5641    0.0000 H   0  0  0  0  0  0  0  0  0  0  0  0
    5.0036   -1.9344    0.0000 H   0  0  0  0  0  0  0  0  0  0  0  0
    4.3139   -2.7524    0.0000 H   0  0  0  0  0  0  0  0  0  0  0  0
    4.4430   -0.3826    0.0000 H   0  0  0  0  0  0  0  0  0  0  0  0
    3.5579    1.4427    0.0000 H   0  0  0  0  0  0  0  0  0  0  0  0
    4.6112    1.2544    0.0000 H   0  0  0  0  0  0  0  0  0  0  0  0
    5.4233    1.1092    0.0000 H   0  0  0  0  0  0  0  0  0  0  0  0
    5.7869    0.1029    0.0000 H   0  0  0  0  0  0  0  0  0  0  0  0
    5.7036    0.3333    0.0000 H   0  0  0  0  0  0  0  0  0  0  0  0
    5.5697    0.4089    0.0000 H   0  0  0  0  0  0  0  0  0  0  0  0
    6.4427    0.9458    0.0000 H   0  0  0  0  0  0  0  0  0  0  0  0
    7.4145    0.3928    0.0000 H   0  0  0  0  0  0  0  0  0  0  0  0
    8.1666   -0.2231    0.0000 H   0  0  0  0  0  0  0  0  0  0  0  0
    7.9410   -1.3182    0.0000 H   0  0  0  0  0  0  0  0  0  0  0  0
    7.9817   -1.1774    0.0000 H   0  0  0  0  0  0  0  0  0  0  0  0
    8.0941   -2.8751    0.0000 H   0  0  0  0  0  0  0  0  0  0  0  0
    6.0665   -2.9410    0.0000 H   0  0  0  0  0  0  0  0  0  0  0  0
    7.7831   -3.6394    0.0000 H   0  0  0  0  0  0  0  0  0  0  0  0
    6.7232   -3.7857    0.0000 H   0  0  0  0  0  0  0  0  0  0  0  0
    8.6577   -0.9264    0.0000 H   0  0  0  0  0  0  0  0  0  0  0  0
    9.3144   -1.7711    0.0000 H   0  0  0  0  0  0  0  0  0  0  0  0
    8.3577   -3.5600    0.0000 H   0  0  0  0  0  0  0  0  0  0  0  0
    9.4177   -3.4136    0.0000 H   0  0  0  0  0  0  0  0  0  0  0  0
    9.9813   -1.4649    0.0000 H   0  0  0  0  0  0  0  0  0  0  0  0
   10.6380   -2.3096    0.0000 H   0  0  0  0  0  0  0  0  0  0  0  0
   10.7412   -3.9521    0.0000 H   0  0  0  0  0  0  0  0  0  0  0  0
   11.5584   -3.8393    0.0000 H   0  0  0  0  0  0  0  0  0  0  0  0
   11.3050   -2.0034    0.0000 H   0  0  0  0  0  0  0  0  0  0  0  0
   11.9617   -2.8482    0.0000 H   0  0  0  0  0  0  0  0  0  0  0  0
    8.7137   -4.0179    0.0000 H   0  0  0  0  0  0  0  0  0  0  0  0
   10.4303   -4.7163    0.0000 H   0  0  0  0  0  0  0  0  0  0  0  0
    9.3704   -4.8626    0.0000 H   0  0  0  0  0  0  0  0  0  0  0  0
    5.8657   -3.0338    0.0000 H   0  0  0  0  0  0  0  0  0  0  0  0
    7.5334   -2.2254    0.0000 H   0  0  0  0  0  0  0  0  0  0  0  0
    6.9329   -3.1111    0.0000 H   0  0  0  0  0  0  0  0  0  0  0  0
    5.9380   -3.0430    0.0000 H   0  0  0  0  0  0  0  0  0  0  0  0
    4.8847   -2.8546    0.0000 H   0  0  0  0  0  0  0  0  0  0  0  0
    4.0726   -2.7094    0.0000 H   0  0  0  0  0  0  0  0  0  0  0  0
    3.7091   -1.7030    0.0000 H   0  0  0  0  0  0  0  0  0  0  0  0
    3.7923   -1.9334    0.0000 H   0  0  0  0  0  0  0  0  0  0  0  0
    2.2140    0.9572    0.0000 H   0  0  0  0  0  0  0  0  0  0  0  0
    1.5243    0.1392    0.0000 H   0  0  0  0  0  0  0  0  0  0  0  0
  1  2  1  0  0  0  0
  1 50  1  0  0  0  0
  1 51  1  0  0  0  0
  1 52  1  0  0  0  0
  3  2  1  6  0  0  0
  3  4  1  0  0  0  0
  3 13  1  0  0  0  0
  3 20  1  0  0  0  0
  4 53  1  0  0  0  0
  4 54  1  0  0  0  0
  5  4  1  0  0  0  0
  5  6  1  0  0  0  0
  5 55  1  1  0  0  0
  6 56  1  0  0  0  0
  7  5  1  0  0  0  0
  7  8  1  0  0  0  0
  7 12  1  0  0  0  0
  7 57  1  6  0  0  0
  8  9  1  0  0  0  0
  8 58  1  0  0  0  0
  9 10  1  0  0  0  0
  9 11  2  0  0  0  0
 10 59  1  0  0  0  0
 10 60  1  0  0  0  0
 10 61  1  0  0  0  0
 12 13  1  0  0  0  0
 12 14  1  0  0  0  0
 12 62  1  1  0  0  0
 14 15  1  0  0  0  0
 14 16  1  0  0  0  0
 14 63  1  6  0  0  0
 15 64  1  0  0  0  0
 16 17  1  0  0  0  0
 16 18  1  0  0  0  0
 16 65  1  6  0  0  0
 17 66  1  0  0  0  0
 18 19  1  0  0  0  0
 18 67  1  0  0  0  0
 18 68  1  0  0  0  0
 19 69  1  0  0  0  0
 20 21  2  0  0  0  0
 20 22  1  0  0  0  0
 22 70  1  0  0  0  0
 23 22  1  0  0  0  0
 23 24  1  0  0  0  0
 23 49  1  0  0  0  0
 23 71  1  6  0  0  0
 24 25  1  0  0  0  0
 24 72  1  0  0  0  0
 24 73  1  0  0  0  0
 25 74  1  0  0  0  0
 25 75  1  0  0  0  0
 26 25  1  0  0  0  0
 26 27  1  6  0  0  0
 26 28  1  0  0  0  0
 26 48  1  0  0  0  0
 27 76  1  0  0  0  0
 27 77  1  0  0  0  0
 27 78  1  0  0  0  0
 28 29  1  0  0  0  0
 28 49  1  0  0  0  0
 28 79  1  1  0  0  0
 29 30  1  0  0  0  0
 29 80  1  0  0  0  0
 29 81  1  0  0  0  0
 30 82  1  0  0  0  0
 30 83  1  0  0  0  0
 31 30  1  0  0  0  0
 31 32  1  0  0  0  0
 31 84  1  6  0  0  0
 32 33  1  0  0  0  0
 32 44  1  0  0  0  0
 32 85  1  1  0  0  0
 33 34  1  0  0  0  0
 33 86  1  0  0  0  0
 33 87  1  0  0  0  0
 34 88  1  0  0  0  0
 34 89  1  0  0  0  0
 35 34  1  0  0  0  0
 35 36  1  0  0  0  0
 35 90  1  1  0  0  0
 36 37  1  0  0  0  0
 36 38  1  0  0  0  0
 36 91  1  6  0  0  0
 37 92  1  0  0  0  0
 37 93  1  0  0  0  0
 37 94  1  0  0  0  0
 38 39  1  0  0  0  0
 38 95  1  0  0  0  0
 38 96  1  0  0  0  0
 39 40  1  0  0  0  0
 39 97  1  0  0  0  0
 39 98  1  0  0  0  0
 40 41  1  0  0  0  0
 40 99  1  0  0  0  0
 40100  1  0  0  0  0
 41 42  1  0  0  0  0
 41 43  1  0  0  0  0
 41101  1  0  0  0  0
 42102  1  0  0  0  0
 42103  1  0  0  0  0
 42104  1  0  0  0  0
 43105  1  0  0  0  0
 43106  1  0  0  0  0
 43107  1  0  0  0  0
 44 35  1  0  0  0  0
 44 45  1  6  0  0  0
 44 46  1  0  0  0  0
 45108  1  0  0  0  0
 45109  1  0  0  0  0
 45110  1  0  0  0  0
 46 47  1  0  0  0  0
 46111  1  0  0  0  0
 46112  1  0  0  0  0
 47113  1  0  0  0  0
 47114  1  0  0  0  0
 48 47  1  0  0  0  0
 48 31  1  0  0  0  0
 48115  1  1  0  0  0
 49116  1  0  0  0  0
 49117  1  0  0  0  0
M  END
>  <DRUGBANK_ID>
DB14932

>  <COMMON_NAME>
Coleneuramide

>  <CAS_NUMBER>
204200-47-5

>  <UNII>
G2D52T65LR

>  <SYNONYMS>
Coleneuramide

$$$$
