
 OpenBabel10282417072D

 23 23  0  0  1  0  0  0  0  0999 V2000
    4.3825    0.4030    0.0000 S   0  0  0  0  0  0  0  0  0  0  0  0
    3.7694   -0.1491    0.0000 S   0  0  0  0  0  0  0  0  0  0  0  0
    2.3173   -0.3790    0.0000 N   0  0  0  0  0  0  0  0  0  0  0  0
    2.7299    0.8905    0.0000 N   0  0  0  0  0  0  0  0  0  0  0  0
    5.1671    0.1481    0.0000 C   0  0  3  0  0  0  0  0  0  0  0  0
    5.7802    0.7000    0.0000 C   0  0  0  0  0  0  0  0  0  0  0  0
    5.3386   -0.6590    0.0000 C   0  0  0  0  0  0  0  0  0  0  0  0
    6.5648    0.4452    0.0000 C   0  0  0  0  0  0  0  0  0  0  0  0
    2.9848    0.1059    0.0000 C   0  0  0  0  0  0  0  0  0  0  0  0
    1.6500    0.1059    0.0000 C   0  0  0  0  0  0  0  0  0  0  0  0
    1.9049    0.8905    0.0000 C   0  0  0  0  0  0  0  0  0  0  0  0
    2.3172   -1.3635    0.0000 H   0  0  0  0  0  0  0  0  0  0  0  0
    4.9447    1.1947    0.0000 H   0  0  0  0  0  0  0  0  0  0  0  0
    5.5577    1.7466    0.0000 H   0  0  0  0  0  0  0  0  0  0  0  0
    6.5753    1.4160    0.0000 H   0  0  0  0  0  0  0  0  0  0  0  0
    4.5434   -1.3749    0.0000 H   0  0  0  0  0  0  0  0  0  0  0  0
    6.3562   -0.9897    0.0000 H   0  0  0  0  0  0  0  0  0  0  0  0
    5.5610   -1.7056    0.0000 H   0  0  0  0  0  0  0  0  0  0  0  0
    6.7874   -0.6014    0.0000 H   0  0  0  0  0  0  0  0  0  0  0  0
    7.3599    1.1613    0.0000 H   0  0  0  0  0  0  0  0  0  0  0  0
    7.5825    0.1147    0.0000 H   0  0  0  0  0  0  0  0  0  0  0  0
    0.6685   -0.2130    0.0000 H   0  0  0  0  0  0  0  0  0  0  0  0
    1.2983    1.7254    0.0000 H   0  0  0  0  0  0  0  0  0  0  0  0
  1  2  1  0  0  0  0
  1  5  1  0  0  0  0
  2  9  1  0  0  0  0
  3  9  1  0  0  0  0
  3 10  1  0  0  0  0
  3 12  1  0  0  0  0
  4  9  2  0  0  0  0
  4 11  1  0  0  0  0
  5  6  1  0  0  0  0
  5  7  1  0  0  0  0
  5 13  1  0  0  0  0
  6  8  1  0  0  0  0
  6 14  1  0  0  0  0
  6 15  1  0  0  0  0
  7 16  1  0  0  0  0
  7 17  1  0  0  0  0
  7 18  1  0  0  0  0
  8 19  1  0  0  0  0
  8 20  1  0  0  0  0
  8 21  1  0  0  0  0
 10 11  2  0  0  0  0
 10 22  1  0  0  0  0
 11 23  1  0  0  0  0
M  END
>  <DRUGBANK_ID>
DB05448

>  <COMMON_NAME>
PX-12

>  <CAS_NUMBER>
141400-58-0

>  <UNII>
8PQ9CZ8BTJ

>  <SYNONYMS>
1-Methylpropyl-2-imidazolyl disulfide

$$$$
