
 OpenBabel10282417072D

 57 60  0  0  0  0  0  0  0  0999 V2000
   -1.4289   -4.1250    0.0000 C   0  0  0  0  0  0  0  0  0  0  0  0
   -0.7145   -3.7125    0.0000 O   0  0  0  0  0  0  0  0  0  0  0  0
   -0.7145   -2.8875    0.0000 C   0  0  0  0  0  0  0  0  0  0  0  0
   -1.4289   -2.4750    0.0000 C   0  0  0  0  0  0  0  0  0  0  0  0
   -1.4289   -1.6500    0.0000 C   0  0  0  0  0  0  0  0  0  0  0  0
   -2.1434   -1.2375    0.0000 O   0  0  0  0  0  0  0  0  0  0  0  0
   -2.1434   -0.4125    0.0000 C   0  0  0  0  0  0  0  0  0  0  0  0
   -0.7145   -1.2375    0.0000 C   0  0  0  0  0  0  0  0  0  0  0  0
   -0.7145   -0.4125    0.0000 Cl  0  0  0  0  0  0  0  0  0  0  0  0
    0.0000   -1.6500    0.0000 C   0  0  0  0  0  0  0  0  0  0  0  0
    0.7145   -1.2375    0.0000 C   0  0  0  0  0  0  0  0  0  0  0  0
    0.7145   -0.4125    0.0000 C   0  0  0  0  0  0  0  0  0  0  0  0
    1.4289    0.0000    0.0000 C   0  0  0  0  0  0  0  0  0  0  0  0
    2.1434   -0.4125    0.0000 C   0  0  0  0  0  0  0  0  0  0  0  0
    2.8579    0.0000    0.0000 N   0  0  0  0  0  0  0  0  0  0  0  0
    3.5724   -0.4125    0.0000 C   0  0  0  0  0  0  0  0  0  0  0  0
    4.2868   -0.0000    0.0000 N   0  0  0  0  0  0  0  0  0  0  0  0
    4.2868    0.8250    0.0000 C   0  0  0  0  0  0  0  0  0  0  0  0
    3.5724    1.2375    0.0000 C   0  0  0  0  0  0  0  0  0  0  0  0
    2.8579    0.8250    0.0000 C   0  0  0  0  0  0  0  0  0  0  0  0
    3.5724    2.0625    0.0000 C   0  0  0  0  0  0  0  0  0  0  0  0
    4.2868    2.4750    0.0000 C   0  0  0  0  0  0  0  0  0  0  0  0
    5.0013    2.0625    0.0000 C   0  0  0  0  0  0  0  0  0  0  0  0
    5.0013    1.2375    0.0000 C   0  0  0  0  0  0  0  0  0  0  0  0
    5.7158    0.8250    0.0000 N   0  0  0  0  0  0  0  0  0  0  0  0
    6.4302    1.2375    0.0000 C   0  0  0  0  0  0  0  0  0  0  0  0
    6.4302    2.0625    0.0000 O   0  0  0  0  0  0  0  0  0  0  0  0
    7.1447    0.8250    0.0000 C   0  0  0  0  0  0  0  0  0  0  0  0
    7.8592    1.2375    0.0000 C   0  0  0  0  0  0  0  0  0  0  0  0
    3.5724   -1.2375    0.0000 N   0  0  0  0  0  0  0  0  0  0  0  0
    2.8579   -1.6500    0.0000 C   0  0  0  0  0  0  0  0  0  0  0  0
    2.1434   -1.2375    0.0000 C   0  0  0  0  0  0  0  0  0  0  0  0
    1.4289   -1.6500    0.0000 C   0  0  0  0  0  0  0  0  0  0  0  0
    0.0000   -2.4750    0.0000 C   0  0  0  0  0  0  0  0  0  0  0  0
    0.7145   -2.8875    0.0000 Cl  0  0  0  0  0  0  0  0  0  0  0  0
   -2.3556   -3.5900    0.0000 H   0  0  0  0  0  0  0  0  0  0  0  0
   -1.4289   -5.1950    0.0000 H   0  0  0  0  0  0  0  0  0  0  0  0
   -2.3555   -4.6600    0.0000 H   0  0  0  0  0  0  0  0  0  0  0  0
   -2.3226   -2.9910    0.0000 H   0  0  0  0  0  0  0  0  0  0  0  0
   -1.2168    0.1225    0.0000 H   0  0  0  0  0  0  0  0  0  0  0  0
   -3.0700    0.1225    0.0000 H   0  0  0  0  0  0  0  0  0  0  0  0
   -2.1434    0.6575    0.0000 H   0  0  0  0  0  0  0  0  0  0  0  0
   -0.1792    0.1035    0.0000 H   0  0  0  0  0  0  0  0  0  0  0  0
    1.4289    1.0320    0.0000 H   0  0  0  0  0  0  0  0  0  0  0  0
    5.1394   -0.4922    0.0000 H   0  0  0  0  0  0  0  0  0  0  0  0
    1.9313    1.3600    0.0000 H   0  0  0  0  0  0  0  0  0  0  0  0
    2.8579   -0.2450    0.0000 H   0  0  0  0  0  0  0  0  0  0  0  0
    1.9312    0.2900    0.0000 H   0  0  0  0  0  0  0  0  0  0  0  0
    2.6787    2.5785    0.0000 H   0  0  0  0  0  0  0  0  0  0  0  0
    4.2868    3.5070    0.0000 H   0  0  0  0  0  0  0  0  0  0  0  0
    5.8950    2.5785    0.0000 H   0  0  0  0  0  0  0  0  0  0  0  0
    5.7158   -0.1595    0.0000 H   0  0  0  0  0  0  0  0  0  0  0  0
    7.1447   -0.2070    0.0000 H   0  0  0  0  0  0  0  0  0  0  0  0
    8.7529    0.7215    0.0000 H   0  0  0  0  0  0  0  0  0  0  0  0
    7.8592    2.2695    0.0000 H   0  0  0  0  0  0  0  0  0  0  0  0
    2.8579   -2.6820    0.0000 H   0  0  0  0  0  0  0  0  0  0  0  0
    1.4289   -2.6820    0.0000 H   0  0  0  0  0  0  0  0  0  0  0  0
  1  2  1  0  0  0  0
  1 36  1  0  0  0  0
  1 37  1  0  0  0  0
  1 38  1  0  0  0  0
  2  3  1  0  0  0  0
  3  4  2  0  0  0  0
  3 34  1  0  0  0  0
  4  5  1  0  0  0  0
  4 39  1  0  0  0  0
  5  6  1  0  0  0  0
  5  8  2  0  0  0  0
  6  7  1  0  0  0  0
  7 40  1  0  0  0  0
  7 41  1  0  0  0  0
  7 42  1  0  0  0  0
  8  9  1  0  0  0  0
  8 10  1  0  0  0  0
 10 11  1  0  0  0  0
 10 34  2  0  0  0  0
 11 12  1  0  0  0  0
 11 33  2  0  0  0  0
 12 13  2  0  0  0  0
 12 43  1  0  0  0  0
 13 14  1  0  0  0  0
 13 44  1  0  0  0  0
 14 15  2  0  0  0  0
 14 32  1  0  0  0  0
 15 16  1  0  0  0  0
 16 17  1  0  0  0  0
 16 30  2  0  0  0  0
 17 18  1  0  0  0  0
 17 45  1  0  0  0  0
 18 19  2  0  0  0  0
 18 24  1  0  0  0  0
 19 20  1  0  0  0  0
 19 21  1  0  0  0  0
 20 46  1  0  0  0  0
 20 47  1  0  0  0  0
 20 48  1  0  0  0  0
 21 22  2  0  0  0  0
 21 49  1  0  0  0  0
 22 23  1  0  0  0  0
 22 50  1  0  0  0  0
 23 24  2  0  0  0  0
 23 51  1  0  0  0  0
 24 25  1  0  0  0  0
 25 26  1  0  0  0  0
 25 52  1  0  0  0  0
 26 27  2  0  0  0  0
 26 28  1  0  0  0  0
 28 29  2  0  0  0  0
 28 53  1  0  0  0  0
 29 54  1  0  0  0  0
 29 55  1  0  0  0  0
 30 31  1  0  0  0  0
 31 32  2  0  0  0  0
 31 56  1  0  0  0  0
 32 33  1  0  0  0  0
 33 57  1  0  0  0  0
 34 35  1  0  0  0  0
M  END
>  <DRUGBANK_ID>
DB17985

>  <COMMON_NAME>
BLU-9931

>  <CAS_NUMBER>
1538604-68-0

>  <UNII>
FQK825B5DX

>  <SYNONYMS>
2-propenamide, n-(2-((6-(2,6-dichloro-3,5-dimethoxyphenyl)-2-quinazolinyl)amino)-3-methylphenyl)-; N-(2-((6-(2,6-dichloro-3,5-dimethoxyphenyl)-2-quinazolinyl)amino)-3-methylphenyl)-2-propenamide

$$$$
