D1T
 OpenBabel10282417072D

 33 32  0  0  0  0  0  0  0  0999 V2000
   -2.7947    0.2651    0.0000 C   0  0  0  0  0  0  0  0  0  0  0  0
   -2.0802   -0.1474    0.0000 C   0  0  0  0  0  0  0  0  0  0  0  0
   -1.3656    0.2651    0.0000 C   0  0  0  0  0  0  0  0  0  0  0  0
   -0.6511   -0.1474    0.0000 C   0  0  0  0  0  0  0  0  0  0  0  0
    0.0634    0.2651    0.0000 C   0  0  0  0  0  0  0  0  0  0  0  0
    0.7780   -0.1474    0.0000 C   0  0  0  0  0  0  0  0  0  0  0  0
    1.4924    0.2651    0.0000 C   0  0  0  0  0  0  0  0  0  0  0  0
    2.2070   -0.1474    0.0000 C   0  0  0  0  0  0  0  0  0  0  0  0
    2.9215    0.2651    0.0000 C   0  0  0  0  0  0  0  0  0  0  0  0
    3.6361   -0.1474    0.0000 C   0  0  0  0  0  0  0  0  0  0  0  0
    4.3505    0.2651    0.0000 S   0  0  0  0  0  0  0  0  0  0  0  0
   -2.7947    1.3351    0.0000 H   0  0  0  0  0  0  0  0  0  0  0  0
   -3.7213   -0.2699    0.0000 H   0  0  0  0  0  0  0  0  0  0  0  0
   -3.7214    0.8001    0.0000 H   0  0  0  0  0  0  0  0  0  0  0  0
   -2.0802   -1.2174    0.0000 H   0  0  0  0  0  0  0  0  0  0  0  0
   -1.1536   -0.6825    0.0000 H   0  0  0  0  0  0  0  0  0  0  0  0
   -1.3656    1.3351    0.0000 H   0  0  0  0  0  0  0  0  0  0  0  0
   -0.4389    0.8001    0.0000 H   0  0  0  0  0  0  0  0  0  0  0  0
   -0.6511   -1.2174    0.0000 H   0  0  0  0  0  0  0  0  0  0  0  0
    0.2755   -0.6824    0.0000 H   0  0  0  0  0  0  0  0  0  0  0  0
    0.0634    1.3351    0.0000 H   0  0  0  0  0  0  0  0  0  0  0  0
    0.9900    0.8002    0.0000 H   0  0  0  0  0  0  0  0  0  0  0  0
    0.7781   -1.2174    0.0000 H   0  0  0  0  0  0  0  0  0  0  0  0
    1.7047   -0.6824    0.0000 H   0  0  0  0  0  0  0  0  0  0  0  0
    1.4923    1.3351    0.0000 H   0  0  0  0  0  0  0  0  0  0  0  0
    2.4190    0.8002    0.0000 H   0  0  0  0  0  0  0  0  0  0  0  0
    2.2070   -1.2174    0.0000 H   0  0  0  0  0  0  0  0  0  0  0  0
    3.1337   -0.6824    0.0000 H   0  0  0  0  0  0  0  0  0  0  0  0
    2.9215    1.3351    0.0000 H   0  0  0  0  0  0  0  0  0  0  0  0
    3.8481    0.8002    0.0000 H   0  0  0  0  0  0  0  0  0  0  0  0
    3.6362   -1.2174    0.0000 H   0  0  0  0  0  0  0  0  0  0  0  0
    4.5628   -0.6824    0.0000 H   0  0  0  0  0  0  0  0  0  0  0  0
    5.5283   -0.4148    0.0000 H   0  0  0  0  0  0  0  0  0  0  0  0
  1  2  1  0  0  0  0
  1 12  1  0  0  0  0
  1 13  1  0  0  0  0
  1 14  1  0  0  0  0
  2  3  1  0  0  0  0
  2 15  1  0  0  0  0
  2 16  1  0  0  0  0
  3  4  1  0  0  0  0
  3 17  1  0  0  0  0
  3 18  1  0  0  0  0
  4  5  1  0  0  0  0
  4 19  1  0  0  0  0
  4 20  1  0  0  0  0
  5  6  1  0  0  0  0
  5 21  1  0  0  0  0
  5 22  1  0  0  0  0
  6  7  1  0  0  0  0
  6 23  1  0  0  0  0
  6 24  1  0  0  0  0
  7  8  1  0  0  0  0
  7 25  1  0  0  0  0
  7 26  1  0  0  0  0
  8  9  1  0  0  0  0
  8 27  1  0  0  0  0
  8 28  1  0  0  0  0
  9 10  1  0  0  0  0
  9 29  1  0  0  0  0
  9 30  1  0  0  0  0
 10 11  1  0  0  0  0
 10 31  1  0  0  0  0
 10 32  1  0  0  0  0
 11 33  1  0  0  0  0
M  END
>  <DRUGBANK_ID>
DB07611

>  <COMMON_NAME>
DECANE-1-THIOL

>  <UNII>
A2H8YRB236

$$$$
