
 OpenBabel10282417072D

 47 49  0  0  0  0  0  0  0  0999 V2000
   -4.9225    0.4154    0.0000 C   0  0  0  0  0  0  0  0  0  0  0  0
   -4.2080    0.0029    0.0000 C   0  0  0  0  0  0  0  0  0  0  0  0
   -4.2080   -0.8221    0.0000 C   0  0  0  0  0  0  0  0  0  0  0  0
   -4.9225   -1.2346    0.0000 C   0  0  0  0  0  0  0  0  0  0  0  0
   -5.6370   -0.8221    0.0000 C   0  0  0  0  0  0  0  0  0  0  0  0
   -5.6370    0.0029    0.0000 C   0  0  0  0  0  0  0  0  0  0  0  0
   -6.3514   -1.2346    0.0000 O   0  0  0  0  0  0  0  0  0  0  0  0
   -7.0659   -0.8221    0.0000 C   0  0  0  0  0  0  0  0  0  0  0  0
   -7.7804   -1.2346    0.0000 C   0  0  0  0  0  0  0  0  0  0  0  0
   -8.4948   -1.6471    0.0000 C   0  0  0  0  0  0  0  0  0  0  0  0
   -9.2093   -1.2346    0.0000 F   0  0  0  0  0  0  0  0  0  0  0  0
   -8.4948   -2.4721    0.0000 F   0  0  0  0  0  0  0  0  0  0  0  0
   -7.3679   -1.9490    0.0000 F   0  0  0  0  0  0  0  0  0  0  0  0
   -8.1929   -0.5201    0.0000 F   0  0  0  0  0  0  0  0  0  0  0  0
   -3.4935   -1.2346    0.0000 C   0  0  0  0  0  0  0  0  0  0  0  0
   -2.7791   -0.8221    0.0000 N   0  0  0  0  0  0  0  0  0  0  0  0
   -2.0646   -1.2346    0.0000 C   0  0  0  0  0  0  0  0  0  0  0  0
   -1.3501   -0.8221    0.0000 C   0  0  0  0  0  0  0  0  0  0  0  0
   -0.6357   -1.2346    0.0000 C   0  0  0  0  0  0  0  0  0  0  0  0
   -0.5494   -2.0551    0.0000 C   0  0  0  0  0  0  0  0  0  0  0  0
    0.2575   -2.2266    0.0000 N   0  0  0  0  0  0  0  0  0  0  0  0
    0.6700   -1.5121    0.0000 C   0  0  0  0  0  0  0  0  0  0  0  0
    0.1180   -0.8990    0.0000 C   0  0  0  0  0  0  0  0  0  0  0  0
    0.3730   -0.1144    0.0000 C   0  0  0  0  0  0  0  0  0  0  0  0
    1.1799    0.0571    0.0000 C   0  0  0  0  0  0  0  0  0  0  0  0
    1.7320   -0.5560    0.0000 C   0  0  0  0  0  0  0  0  0  0  0  0
    1.4770   -1.3406    0.0000 C   0  0  0  0  0  0  0  0  0  0  0  0
    2.5389   -0.3844    0.0000 F   0  0  0  0  0  0  0  0  0  0  0  0
   -4.9225    1.4474    0.0000 H   0  0  0  0  0  0  0  0  0  0  0  0
   -3.3143    0.5189    0.0000 H   0  0  0  0  0  0  0  0  0  0  0  0
   -4.9225   -2.2666    0.0000 H   0  0  0  0  0  0  0  0  0  0  0  0
   -6.5307    0.5189    0.0000 H   0  0  0  0  0  0  0  0  0  0  0  0
   -7.0659    0.2479    0.0000 H   0  0  0  0  0  0  0  0  0  0  0  0
   -7.9925   -0.2871    0.0000 H   0  0  0  0  0  0  0  0  0  0  0  0
   -9.4214   -2.1821    0.0000 H   0  0  0  0  0  0  0  0  0  0  0  0
   -3.4935   -2.3046    0.0000 H   0  0  0  0  0  0  0  0  0  0  0  0
   -2.5668   -1.7696    0.0000 H   0  0  0  0  0  0  0  0  0  0  0  0
   -2.7791    0.1979    0.0000 H   0  0  0  0  0  0  0  0  0  0  0  0
   -2.0646   -2.3046    0.0000 H   0  0  0  0  0  0  0  0  0  0  0  0
   -1.1380   -1.7696    0.0000 H   0  0  0  0  0  0  0  0  0  0  0  0
   -1.3501    0.2479    0.0000 H   0  0  0  0  0  0  0  0  0  0  0  0
   -0.4234   -0.2871    0.0000 H   0  0  0  0  0  0  0  0  0  0  0  0
   -1.3163   -2.7457    0.0000 H   0  0  0  0  0  0  0  0  0  0  0  0
    0.6579   -3.1260    0.0000 H   0  0  0  0  0  0  0  0  0  0  0  0
   -0.3175    0.6526    0.0000 H   0  0  0  0  0  0  0  0  0  0  0  0
    1.4988    1.0386    0.0000 H   0  0  0  0  0  0  0  0  0  0  0  0
    2.1675   -2.1076    0.0000 H   0  0  0  0  0  0  0  0  0  0  0  0
  1  2  2  0  0  0  0
  1  6  1  0  0  0  0
  1 29  1  0  0  0  0
  2  3  1  0  0  0  0
  2 30  1  0  0  0  0
  3  4  2  0  0  0  0
  3 15  1  0  0  0  0
  4  5  1  0  0  0  0
  4 31  1  0  0  0  0
  5  6  2  0  0  0  0
  5  7  1  0  0  0  0
  6 32  1  0  0  0  0
  7  8  1  0  0  0  0
  8  9  1  0  0  0  0
  8 33  1  0  0  0  0
  8 34  1  0  0  0  0
  9 10  1  0  0  0  0
  9 13  1  0  0  0  0
  9 14  1  0  0  0  0
 10 11  1  0  0  0  0
 10 12  1  0  0  0  0
 10 35  1  0  0  0  0
 15 16  1  0  0  0  0
 15 36  1  0  0  0  0
 15 37  1  0  0  0  0
 16 17  1  0  0  0  0
 16 38  1  0  0  0  0
 17 18  1  0  0  0  0
 17 39  1  0  0  0  0
 17 40  1  0  0  0  0
 18 19  1  0  0  0  0
 18 41  1  0  0  0  0
 18 42  1  0  0  0  0
 19 20  2  0  0  0  0
 19 23  1  0  0  0  0
 20 21  1  0  0  0  0
 20 43  1  0  0  0  0
 21 22  1  0  0  0  0
 21 44  1  0  0  0  0
 22 23  1  0  0  0  0
 22 27  2  0  0  0  0
 23 24  2  0  0  0  0
 24 25  1  0  0  0  0
 24 45  1  0  0  0  0
 25 26  2  0  0  0  0
 25 46  1  0  0  0  0
 26 27  1  0  0  0  0
 26 28  1  0  0  0  0
 27 47  1  0  0  0  0
M  END
>  <DRUGBANK_ID>
DB11957

>  <COMMON_NAME>
Idalopirdine

>  <CAS_NUMBER>
467459-31-0

>  <UNII>
59WCJ0YNWM

>  <SYNONYMS>
Idalopirdine

$$$$
