
 OpenBabel10282417072D

 13 13  0  0  0  0  0  0  0  0999 V2000
    0.3550   -0.4109    0.0000 N   0  3  0  0  0  0  0  0  0  0  0  0
    0.3646    0.4109    0.0000 C   0  0  0  0  0  0  0  0  0  0  0  0
    1.0796   -0.8340    0.0000 O   0  5  0  0  0  0  0  0  0  0  0  0
    1.0698    0.8145    0.0000 S   0  0  0  0  0  0  0  0  0  0  0  0
   -0.3744   -0.8194    0.0000 C   0  0  0  0  0  0  0  0  0  0  0  0
   -0.3598    0.8340    0.0000 C   0  0  0  0  0  0  0  0  0  0  0  0
   -1.0796   -0.3963    0.0000 C   0  0  0  0  0  0  0  0  0  0  0  0
   -1.0796    0.4255    0.0000 C   0  0  0  0  0  0  0  0  0  0  0  0
    2.2450    0.1301    0.0000 H   0  0  0  0  0  0  0  0  0  0  0  0
   -0.3898   -1.8513    0.0000 H   0  0  0  0  0  0  0  0  0  0  0  0
   -0.3534    1.8660    0.0000 H   0  0  0  0  0  0  0  0  0  0  0  0
   -1.9776   -0.9048    0.0000 H   0  0  0  0  0  0  0  0  0  0  0  0
   -1.9714    0.9448    0.0000 H   0  0  0  0  0  0  0  0  0  0  0  0
  2  1  2  0  0  0  0
  3  1  1  0  0  0  0
  4  2  1  0  0  0  0
  4  9  1  0  0  0  0
  5  1  1  0  0  0  0
  5 10  1  0  0  0  0
  6  2  1  0  0  0  0
  6  8  2  0  0  0  0
  6 11  1  0  0  0  0
  7  5  2  0  0  0  0
  7 12  1  0  0  0  0
  8  7  1  0  0  0  0
  8 13  1  0  0  0  0
M  CHG  2   1   1   3  -1
M  END
>  <DRUGBANK_ID>
DB06815

>  <COMMON_NAME>
Pyrithione

>  <CAS_NUMBER>
1121-31-9

>  <UNII>
6GK82EC25D

>  <SYNONYMS>
2-pyridinethiol 1-oxide; Omadine; Pyridinethiol N-oxide

$$$$
