AI1
 OpenBabel10282417072D

 51 53  0  0  0  0  0  0  0  0999 V2000
    0.3469   -1.5165    0.0000 C   0  0  2  0  0  0  0  0  0  0  0  0
    0.3469   -0.6915    0.0000 O   0  0  0  0  0  0  0  0  0  0  0  0
    1.0613   -1.9290    0.0000 C   0  0  2  0  0  0  0  0  0  0  0  0
    1.7758   -1.5165    0.0000 O   0  0  0  0  0  0  0  0  0  0  0  0
    1.0613   -2.7540    0.0000 C   0  0  1  0  0  0  0  0  0  0  0  0
    1.7758   -3.1665    0.0000 O   0  0  0  0  0  0  0  0  0  0  0  0
    0.3469   -3.1665    0.0000 C   0  0  1  0  0  0  0  0  0  0  0  0
    0.3469   -3.9915    0.0000 O   0  0  0  0  0  0  0  0  0  0  0  0
   -0.3676   -2.7540    0.0000 C   0  0  2  0  0  0  0  0  0  0  0  0
   -0.3676   -1.9290    0.0000 O   0  0  0  0  0  0  0  0  0  0  0  0
   -1.0821   -3.1665    0.0000 C   0  0  0  0  0  0  0  0  0  0  0  0
   -1.7965   -2.7540    0.0000 O   0  0  0  0  0  0  0  0  0  0  0  0
   -0.3676   -0.2790    0.0000 C   0  0  0  0  0  0  0  0  0  0  0  0
   -1.0821   -0.6915    0.0000 C   0  0  0  0  0  0  0  0  0  0  0  0
   -1.7965   -0.2790    0.0000 C   0  0  0  0  0  0  0  0  0  0  0  0
   -1.7965    0.5460    0.0000 C   0  0  0  0  0  0  0  0  0  0  0  0
   -1.0821    0.9585    0.0000 C   0  0  0  0  0  0  0  0  0  0  0  0
   -0.3676    0.5460    0.0000 C   0  0  0  0  0  0  0  0  0  0  0  0
   -1.0821    1.7835    0.0000 C   0  0  0  0  0  0  0  0  0  0  0  0
   -1.7965    2.1960    0.0000 O   0  0  0  0  0  0  0  0  0  0  0  0
   -0.3676    2.1960    0.0000 N   0  0  0  0  0  0  0  0  0  0  0  0
   -0.3676    3.0210    0.0000 C   0  0  0  0  0  0  0  0  0  0  0  0
    0.3469    3.4335    0.0000 C   0  0  0  0  0  0  0  0  0  0  0  0
    0.3469    4.2585    0.0000 C   0  0  0  0  0  0  0  0  0  0  0  0
    1.0613    4.6710    0.0000 C   0  0  0  0  0  0  0  0  0  0  0  0
    1.7758    4.2585    0.0000 C   0  0  0  0  0  0  0  0  0  0  0  0
    1.7758    3.4335    0.0000 C   0  0  0  0  0  0  0  0  0  0  0  0
    1.0613    3.0210    0.0000 C   0  0  0  0  0  0  0  0  0  0  0  0
    0.7222   -1.0692    0.0000 H   0  0  0  0  0  0  0  0  0  0  0  0
    1.2611   -1.3803    0.0000 H   0  0  0  0  0  0  0  0  0  0  0  0
    1.5670   -2.4620    0.0000 H   0  0  0  0  0  0  0  0  0  0  0  0
    0.8526   -3.4585    0.0000 H   0  0  0  0  0  0  0  0  0  0  0  0
   -0.3676   -3.3379    0.0000 H   0  0  0  0  0  0  0  0  0  0  0  0
    2.6158   -2.0015    0.0000 H   0  0  0  0  0  0  0  0  0  0  0  0
    1.7758   -4.1365    0.0000 H   0  0  0  0  0  0  0  0  0  0  0  0
   -0.4931   -4.4765    0.0000 H   0  0  0  0  0  0  0  0  0  0  0  0
   -1.0821   -4.2365    0.0000 H   0  0  0  0  0  0  0  0  0  0  0  0
   -2.0088   -3.7015    0.0000 H   0  0  0  0  0  0  0  0  0  0  0  0
   -1.7965   -1.7840    0.0000 H   0  0  0  0  0  0  0  0  0  0  0  0
   -1.0821   -1.7235    0.0000 H   0  0  0  0  0  0  0  0  0  0  0  0
   -2.6902   -0.7950    0.0000 H   0  0  0  0  0  0  0  0  0  0  0  0
   -2.6902    1.0620    0.0000 H   0  0  0  0  0  0  0  0  0  0  0  0
    0.5261    1.0620    0.0000 H   0  0  0  0  0  0  0  0  0  0  0  0
    0.4850    1.7037    0.0000 H   0  0  0  0  0  0  0  0  0  0  0  0
   -1.2942    3.5560    0.0000 H   0  0  0  0  0  0  0  0  0  0  0  0
   -0.3676    4.0910    0.0000 H   0  0  0  0  0  0  0  0  0  0  0  0
   -0.5468    4.7745    0.0000 H   0  0  0  0  0  0  0  0  0  0  0  0
    1.0613    5.7030    0.0000 H   0  0  0  0  0  0  0  0  0  0  0  0
    2.6695    4.7745    0.0000 H   0  0  0  0  0  0  0  0  0  0  0  0
    2.6695    2.9175    0.0000 H   0  0  0  0  0  0  0  0  0  0  0  0
    1.0613    1.9890    0.0000 H   0  0  0  0  0  0  0  0  0  0  0  0
  1  2  1  0  0  0  0
  1  3  1  0  0  0  0
  1 10  1  0  0  0  0
  1 29  1  1  0  0  0
  2 13  1  0  0  0  0
  3  4  1  0  0  0  0
  3  5  1  0  0  0  0
  3 30  1  1  0  0  0
  4 34  1  0  0  0  0
  5  6  1  0  0  0  0
  5  7  1  0  0  0  0
  5 31  1  6  0  0  0
  6 35  1  0  0  0  0
  7  8  1  0  0  0  0
  7  9  1  0  0  0  0
  7 32  1  6  0  0  0
  8 36  1  0  0  0  0
  9 10  1  0  0  0  0
  9 11  1  0  0  0  0
  9 33  1  6  0  0  0
 11 12  1  0  0  0  0
 11 37  1  0  0  0  0
 11 38  1  0  0  0  0
 12 39  1  0  0  0  0
 13 14  2  0  0  0  0
 13 18  1  0  0  0  0
 14 15  1  0  0  0  0
 14 40  1  0  0  0  0
 15 16  2  0  0  0  0
 15 41  1  0  0  0  0
 16 17  1  0  0  0  0
 16 42  1  0  0  0  0
 17 18  2  0  0  0  0
 17 19  1  0  0  0  0
 18 43  1  0  0  0  0
 19 20  2  0  0  0  0
 19 21  1  0  0  0  0
 21 22  1  0  0  0  0
 21 44  1  0  0  0  0
 22 23  1  0  0  0  0
 22 45  1  0  0  0  0
 22 46  1  0  0  0  0
 23 24  2  0  0  0  0
 23 28  1  0  0  0  0
 24 25  1  0  0  0  0
 24 47  1  0  0  0  0
 25 26  2  0  0  0  0
 25 48  1  0  0  0  0
 26 27  1  0  0  0  0
 26 49  1  0  0  0  0
 27 28  2  0  0  0  0
 27 50  1  0  0  0  0
 28 51  1  0  0  0  0
M  END
>  <DRUGBANK_ID>
DB03446

>  <SECONDARY_ACCESSION_NUMBERS>
EXPT00470

>  <COMMON_NAME>
N-Benzyl-3-(alpha-D-galactopyranosyloxy)benzamide

>  <SYNONYMS>
BAPG; N-Benzyl-3-(Î±-D-galactopyranosyloxy)benzamide

$$$$
