
 OpenBabel10282417072D

 27 28  0  0  0  0  0  0  0  0999 V2000
    1.1689    0.9211    0.0000 S   0  0  0  0  0  0  0  0  0  0  0  0
    0.3826    0.6684    0.0000 C   0  0  1  0  0  0  0  0  0  0  0  0
   -0.3300    1.0832    0.0000 O   0  0  0  0  0  0  0  0  0  0  0  0
   -1.0473    0.6684    0.0000 C   0  0  1  0  0  0  0  0  0  0  0  0
   -1.0473   -0.1566    0.0000 C   0  0  2  0  0  0  0  0  0  0  0  0
   -0.3300   -0.5714    0.0000 C   0  0  1  0  0  0  0  0  0  0  0  0
    0.3826   -0.1566    0.0000 C   0  0  1  0  0  0  0  0  0  0  0  0
    1.1689   -0.4140    0.0000 N   0  0  0  0  0  0  0  0  0  0  0  0
    1.6520    0.2582    0.0000 C   0  0  0  0  0  0  0  0  0  0  0  0
    2.4772    0.2582    0.0000 C   0  0  0  0  0  0  0  0  0  0  0  0
    0.5171   -0.9711    0.0000 H   0  0  0  0  0  0  0  0  0  0  0  0
   -0.3300   -1.3964    0.0000 O   0  0  0  0  0  0  0  0  0  0  0  0
   -1.7599   -0.5714    0.0000 O   0  0  0  0  0  0  0  0  0  0  0  0
   -1.7599    1.0832    0.0000 C   0  0  0  0  0  0  0  0  0  0  0  0
   -2.4772    0.6684    0.0000 O   0  0  0  0  0  0  0  0  0  0  0  0
    0.4247    1.3964    0.0000 H   0  0  0  0  0  0  0  0  0  0  0  0
   -1.0458    1.7384    0.0000 H   0  0  0  0  0  0  0  0  0  0  0  0
   -1.9749    0.3768    0.0000 H   0  0  0  0  0  0  0  0  0  0  0  0
   -1.2568   -1.1061    0.0000 H   0  0  0  0  0  0  0  0  0  0  0  0
    3.0122   -0.6684    0.0000 H   0  0  0  0  0  0  0  0  0  0  0  0
    3.0122    1.1848    0.0000 H   0  0  0  0  0  0  0  0  0  0  0  0
    3.5472    0.2582    0.0000 H   0  0  0  0  0  0  0  0  0  0  0  0
   -1.1700   -1.8814    0.0000 H   0  0  0  0  0  0  0  0  0  0  0  0
   -2.6017   -0.0894    0.0000 H   0  0  0  0  0  0  0  0  0  0  0  0
   -1.7584    2.1532    0.0000 H   0  0  0  0  0  0  0  0  0  0  0  0
   -2.6864    1.6185    0.0000 H   0  0  0  0  0  0  0  0  0  0  0  0
   -3.3176    1.1528    0.0000 H   0  0  0  0  0  0  0  0  0  0  0  0
  1  9  1  0  0  0  0
  2  1  1  0  0  0  0
  2  7  1  0  0  0  0
  2 16  1  1  0  0  0
  3  2  1  0  0  0  0
  4  3  1  0  0  0  0
  4 14  1  0  0  0  0
  4 17  1  6  0  0  0
  5  4  1  0  0  0  0
  5 13  1  0  0  0  0
  5 18  1  1  0  0  0
  6  5  1  0  0  0  0
  6 12  1  0  0  0  0
  6 19  1  6  0  0  0
  7  6  1  0  0  0  0
  7  8  1  0  0  0  0
  7 11  1  1  0  0  0
  8  9  2  0  0  0  0
  9 10  1  0  0  0  0
 10 20  1  0  0  0  0
 10 21  1  0  0  0  0
 10 22  1  0  0  0  0
 12 23  1  0  0  0  0
 13 24  1  0  0  0  0
 14 25  1  0  0  0  0
 14 26  1  0  0  0  0
 15 14  1  0  0  0  0
 15 27  1  0  0  0  0
M  END
>  <DRUGBANK_ID>
DB03747

>  <SECONDARY_ACCESSION_NUMBERS>
EXPT02338

>  <COMMON_NAME>
N-Acetyl-glucosamine thiazoline

>  <CAS_NUMBER>
179030-22-9

>  <UNII>
ML5FHL557A

>  <SYNONYMS>
NAG-thiazoline

$$$$
