
 OpenBabel10282417072D

 48 50  0  0  0  0  0  0  0  0999 V2000
    3.7709   -2.2345    0.0000 S   0  0  0  0  0  0  0  0  0  0  0  0
    3.7709    0.1900    0.0000 O   0  0  0  0  0  0  0  0  0  0  0  0
    6.5649    1.8504    0.0000 N   0  0  0  0  0  0  0  0  0  0  0  0
    5.1839    0.2180    0.0000 N   0  0  0  0  0  0  0  0  0  0  0  0
    5.8698    1.4382    0.0000 C   0  0  0  0  0  0  0  0  0  0  0  0
    5.8791    0.6301    0.0000 C   0  0  0  0  0  0  0  0  0  0  0  0
    5.1932   -0.5901    0.0000 C   0  0  0  0  0  0  0  0  0  0  0  0
    4.4709   -1.0222    0.0000 C   0  0  0  0  0  0  0  0  0  0  0  0
    7.2694    1.4543    0.0000 C   0  0  0  0  0  0  0  0  0  0  0  0
    6.5556    2.6585    0.0000 C   0  0  0  0  0  0  0  0  0  0  0  0
    4.4709   -1.8304    0.0000 C   0  0  0  0  0  0  0  0  0  0  0  0
    5.1932   -2.2625    0.0000 C   0  0  0  0  0  0  0  0  0  0  0  0
    3.7709   -0.6181    0.0000 C   0  0  0  0  0  0  0  0  0  0  0  0
    5.9255   -1.0055    0.0000 C   0  0  0  0  0  0  0  0  0  0  0  0
    3.0710   -1.0222    0.0000 C   0  0  0  0  0  0  0  0  0  0  0  0
    5.9255   -1.8473    0.0000 C   0  0  0  0  0  0  0  0  0  0  0  0
    3.0710   -1.8304    0.0000 C   0  0  0  0  0  0  0  0  0  0  0  0
    7.9647    1.8666    0.0000 C   0  0  0  0  0  0  0  0  0  0  0  0
    7.2508    3.0706    0.0000 C   0  0  0  0  0  0  0  0  0  0  0  0
    5.1839   -3.0706    0.0000 C   0  0  0  0  0  0  0  0  0  0  0  0
    2.3486   -0.5901    0.0000 C   0  0  0  0  0  0  0  0  0  0  0  0
    2.3486   -2.2625    0.0000 C   0  0  0  0  0  0  0  0  0  0  0  0
    1.6164   -1.0055    0.0000 C   0  0  0  0  0  0  0  0  0  0  0  0
    1.6164   -1.8473    0.0000 C   0  0  0  0  0  0  0  0  0  0  0  0
    4.3257    0.7004    0.0000 H   0  0  0  0  0  0  0  0  0  0  0  0
    4.9370    1.9624    0.0000 H   0  0  0  0  0  0  0  0  0  0  0  0
    4.9494    0.8925    0.0000 H   0  0  0  0  0  0  0  0  0  0  0  0
    6.8118    0.1058    0.0000 H   0  0  0  0  0  0  0  0  0  0  0  0
    6.7995    1.1757    0.0000 H   0  0  0  0  0  0  0  0  0  0  0  0
    7.2817    0.3844    0.0000 H   0  0  0  0  0  0  0  0  0  0  0  0
    8.2022    0.9301    0.0000 H   0  0  0  0  0  0  0  0  0  0  0  0
    5.6229    3.1828    0.0000 H   0  0  0  0  0  0  0  0  0  0  0  0
    6.5433    3.7284    0.0000 H   0  0  0  0  0  0  0  0  0  0  0  0
    6.8173   -0.4861    0.0000 H   0  0  0  0  0  0  0  0  0  0  0  0
    6.8172   -2.3668    0.0000 H   0  0  0  0  0  0  0  0  0  0  0  0
    8.8975    1.3424    0.0000 H   0  0  0  0  0  0  0  0  0  0  0  0
    7.9522    2.9365    0.0000 H   0  0  0  0  0  0  0  0  0  0  0  0
    8.8851    2.4124    0.0000 H   0  0  0  0  0  0  0  0  0  0  0  0
    8.1835    2.5463    0.0000 H   0  0  0  0  0  0  0  0  0  0  0  0
    7.2385    4.1405    0.0000 H   0  0  0  0  0  0  0  0  0  0  0  0
    8.1712    3.6162    0.0000 H   0  0  0  0  0  0  0  0  0  0  0  0
    4.2512   -3.5949    0.0000 H   0  0  0  0  0  0  0  0  0  0  0  0
    6.1043   -3.6162    0.0000 H   0  0  0  0  0  0  0  0  0  0  0  0
    5.1716   -4.1405    0.0000 H   0  0  0  0  0  0  0  0  0  0  0  0
    2.3605    0.4418    0.0000 H   0  0  0  0  0  0  0  0  0  0  0  0
    2.3606   -3.2944    0.0000 H   0  0  0  0  0  0  0  0  0  0  0  0
    0.7246   -0.4861    0.0000 H   0  0  0  0  0  0  0  0  0  0  0  0
    0.7247   -2.3668    0.0000 H   0  0  0  0  0  0  0  0  0  0  0  0
  1 11  1  0  0  0  0
  1 17  1  0  0  0  0
  2 13  2  0  0  0  0
  3  5  1  0  0  0  0
  3  9  1  0  0  0  0
  3 10  1  0  0  0  0
  4  6  1  0  0  0  0
  4  7  1  0  0  0  0
  4 25  1  0  0  0  0
  5  6  1  0  0  0  0
  5 26  1  0  0  0  0
  5 27  1  0  0  0  0
  6 28  1  0  0  0  0
  6 29  1  0  0  0  0
  7  8  2  0  0  0  0
  7 14  1  0  0  0  0
  8 11  1  0  0  0  0
  8 13  1  0  0  0  0
  9 18  1  0  0  0  0
  9 30  1  0  0  0  0
  9 31  1  0  0  0  0
 10 19  1  0  0  0  0
 10 32  1  0  0  0  0
 10 33  1  0  0  0  0
 11 12  2  0  0  0  0
 12 16  1  0  0  0  0
 12 20  1  0  0  0  0
 13 15  1  0  0  0  0
 14 16  2  0  0  0  0
 14 34  1  0  0  0  0
 15 17  1  0  0  0  0
 15 21  2  0  0  0  0
 16 35  1  0  0  0  0
 17 22  2  0  0  0  0
 18 36  1  0  0  0  0
 18 37  1  0  0  0  0
 18 38  1  0  0  0  0
 19 39  1  0  0  0  0
 19 40  1  0  0  0  0
 19 41  1  0  0  0  0
 20 42  1  0  0  0  0
 20 43  1  0  0  0  0
 20 44  1  0  0  0  0
 21 23  1  0  0  0  0
 21 45  1  0  0  0  0
 22 24  1  0  0  0  0
 22 46  1  0  0  0  0
 23 24  2  0  0  0  0
 23 47  1  0  0  0  0
 24 48  1  0  0  0  0
M  END
>  <DRUGBANK_ID>
DB04967

>  <COMMON_NAME>
Lucanthone

>  <CAS_NUMBER>
479-50-5

>  <UNII>
FC6D57000M

>  <SYNONYMS>
1-((2-(Diethylamino)ethyl)amino)-4-methylthioxanthen-9-one; 1-{[2-(diethylamino)ethyl]amino}-4-methylthioxanthen-9-one; 1-diethylaminoethylethylamino-4-methyl-thioxanthenone; Lucanthone; Lucanthonum; Lucantona

$$$$
