
 OpenBabel10282417072D

 33 35  0  0  0  0  0  0  0  0999 V2000
    1.1807    0.3454    0.0000 N   0  0  0  0  0  0  0  0  0  0  0  0
    0.3776    0.6175    0.0000 C   0  0  0  0  0  0  0  0  0  0  0  0
    1.2426   -1.0786    0.0000 C   0  0  2  0  0  0  0  0  0  0  0  0
    1.6609    1.0349    0.0000 C   0  0  0  0  0  0  0  0  0  0  0  0
    0.3735    1.4424    0.0000 C   0  0  0  0  0  0  0  0  0  0  0  0
   -0.3296    0.1981    0.0000 C   0  0  0  0  0  0  0  0  0  0  0  0
    0.5242   -0.6735    0.0000 O   0  0  0  0  0  0  0  0  0  0  0  0
    1.0528   -1.9102    0.0000 C   0  0  1  0  0  0  0  0  0  0  0  0
    1.1711    1.6834    0.0000 N   0  0  0  0  0  0  0  0  0  0  0  0
   -0.3378    1.8517    0.0000 C   0  0  0  0  0  0  0  0  0  0  0  0
   -1.0668    0.6094    0.0000 C   0  0  0  0  0  0  0  0  0  0  0  0
   -0.0826   -1.2527    0.0000 C   0  0  1  0  0  0  0  0  0  0  0  0
    0.2334   -1.9507    0.0000 C   0  0  1  0  0  0  0  0  0  0  0  0
    1.6261   -2.5470    0.0000 O   0  0  0  0  0  0  0  0  0  0  0  0
   -1.0711    1.4379    0.0000 N   0  0  0  0  0  0  0  0  0  0  0  0
   -0.3378    2.6693    0.0000 N   0  0  0  0  0  0  0  0  0  0  0  0
   -0.9523   -0.9033    0.0000 C   0  0  0  0  0  0  0  0  0  0  0  0
   -0.2412   -2.6693    0.0000 O   0  0  0  0  0  0  0  0  0  0  0  0
   -1.6609   -1.3705    0.0000 O   0  0  0  0  0  0  0  0  0  0  0  0
    0.6830   -0.1666    0.0000 H   0  0  0  0  0  0  0  0  0  0  0  0
    2.6927    1.0548    0.0000 H   0  0  0  0  0  0  0  0  0  0  0  0
   -0.3160   -0.8338    0.0000 H   0  0  0  0  0  0  0  0  0  0  0  0
    2.0884   -1.6410    0.0000 H   0  0  0  0  0  0  0  0  0  0  0  0
   -1.9554    0.0845    0.0000 H   0  0  0  0  0  0  0  0  0  0  0  0
   -0.2847   -0.2020    0.0000 H   0  0  0  0  0  0  0  0  0  0  0  0
    0.7634   -2.8802    0.0000 H   0  0  0  0  0  0  0  0  0  0  0  0
    1.3263   -3.4695    0.0000 H   0  0  0  0  0  0  0  0  0  0  0  0
    0.5148    3.1616    0.0000 H   0  0  0  0  0  0  0  0  0  0  0  0
   -1.1904    3.1615    0.0000 H   0  0  0  0  0  0  0  0  0  0  0  0
   -1.0596    0.1613    0.0000 H   0  0  0  0  0  0  0  0  0  0  0  0
   -1.9187   -0.4439    0.0000 H   0  0  0  0  0  0  0  0  0  0  0  0
   -1.2094   -2.6110    0.0000 H   0  0  0  0  0  0  0  0  0  0  0  0
   -2.5282   -0.9361    0.0000 H   0  0  0  0  0  0  0  0  0  0  0  0
  1  2  1  0  0  0  0
  1  4  1  0  0  0  0
  2  5  2  0  0  0  0
  2  6  1  0  0  0  0
  3  1  1  0  0  0  0
  3  7  1  0  0  0  0
  3  8  1  0  0  0  0
  3 20  1  6  0  0  0
  4  9  2  0  0  0  0
  4 21  1  0  0  0  0
  5 10  1  0  0  0  0
  5  9  1  0  0  0  0
  6 11  2  0  0  0  0
  6 22  1  0  0  0  0
  7 12  1  0  0  0  0
  8 13  1  0  0  0  0
  8 14  1  0  0  0  0
  8 23  1  1  0  0  0
 10 15  2  0  0  0  0
 10 16  1  0  0  0  0
 11 15  1  0  0  0  0
 11 24  1  0  0  0  0
 12 17  1  0  0  0  0
 12 13  1  0  0  0  0
 12 25  1  6  0  0  0
 13 18  1  0  0  0  0
 13 26  1  1  0  0  0
 14 27  1  0  0  0  0
 16 28  1  0  0  0  0
 16 29  1  0  0  0  0
 17 19  1  0  0  0  0
 17 30  1  0  0  0  0
 17 31  1  0  0  0  0
 18 32  1  0  0  0  0
 19 33  1  0  0  0  0
M  END
>  <DRUGBANK_ID>
DB04546

>  <SECONDARY_ACCESSION_NUMBERS>
EXPT00425

>  <COMMON_NAME>
3-Deazaadenosine

>  <CAS_NUMBER>
6736-58-9

>  <UNII>
037V4520IY

>  <SYNONYMS>
3-deaza-adenosine; Deaza-Ado

$$$$
