
 OpenBabel10282417072D

 25 26  0  0  0  0  0  0  0  0999 V2000
   -2.8514   -0.0090    0.0000 C   0  0  0  0  0  0  0  0  0  0  0  0
   -2.8526   -0.8360    0.0000 C   0  0  0  0  0  0  0  0  0  0  0  0
   -2.1380   -1.2488    0.0000 C   0  0  0  0  0  0  0  0  0  0  0  0
   -2.1398    0.4036    0.0000 C   0  0  0  0  0  0  0  0  0  0  0  0
   -1.4246   -0.0053    0.0000 C   0  0  0  0  0  0  0  0  0  0  0  0
   -1.4238   -0.8319    0.0000 C   0  0  0  0  0  0  0  0  0  0  0  0
   -0.7087   -1.2428    0.0000 C   0  0  0  0  0  0  0  0  0  0  0  0
    0.0060   -0.8281    0.0000 C   0  0  0  0  0  0  0  0  0  0  0  0
    0.0012    0.0015    0.0000 C   0  0  0  0  0  0  0  0  0  0  0  0
   -0.7145    0.4086    0.0000 C   0  0  0  0  0  0  0  0  0  0  0  0
   -0.7187    1.2334    0.0000 O   0  0  0  0  0  0  0  0  0  0  0  0
    0.7130    0.4182    0.0000 N   0  0  0  0  0  0  0  0  0  0  0  0
    1.4237    0.0076    0.0000 N   0  0  0  0  0  0  0  0  0  0  0  0
    2.1360    0.4241    0.0000 C   0  0  0  0  0  0  0  0  0  0  0  0
    2.8526    0.0157    0.0000 N   0  0  0  0  0  0  0  0  0  0  0  0
    2.1314    1.2488    0.0000 O   0  0  0  0  0  0  0  0  0  0  0  0
   -3.7452    0.5068    0.0000 H   0  0  0  0  0  0  0  0  0  0  0  0
   -3.7468   -1.3512    0.0000 H   0  0  0  0  0  0  0  0  0  0  0  0
   -2.1357   -2.2808    0.0000 H   0  0  0  0  0  0  0  0  0  0  0  0
   -2.1429    1.4356    0.0000 H   0  0  0  0  0  0  0  0  0  0  0  0
   -0.7065   -2.2748    0.0000 H   0  0  0  0  0  0  0  0  0  0  0  0
    0.9018   -1.3405    0.0000 H   0  0  0  0  0  0  0  0  0  0  0  0
    1.4263   -0.9769    0.0000 H   0  0  0  0  0  0  0  0  0  0  0  0
    2.8581   -0.9688    0.0000 H   0  0  0  0  0  0  0  0  0  0  0  0
    3.7024    0.5127    0.0000 H   0  0  0  0  0  0  0  0  0  0  0  0
  1  2  2  0  0  0  0
  1 17  1  0  0  0  0
  2  3  1  0  0  0  0
  2 18  1  0  0  0  0
  3  6  2  0  0  0  0
  3 19  1  0  0  0  0
  4  1  1  0  0  0  0
  4 20  1  0  0  0  0
  5  4  2  0  0  0  0
  5  6  1  0  0  0  0
  6  7  1  0  0  0  0
  7  8  2  0  0  0  0
  7 21  1  0  0  0  0
  8  9  1  0  0  0  0
  8 22  1  0  0  0  0
  9 10  1  0  0  0  0
  9 12  2  0  0  0  0
 10  5  1  0  0  0  0
 10 11  2  0  0  0  0
 12 13  1  0  0  0  0
 13 14  1  0  0  0  0
 13 23  1  0  0  0  0
 14 15  1  0  0  0  0
 14 16  2  0  0  0  0
 15 24  1  0  0  0  0
 15 25  1  0  0  0  0
M  END
>  <DRUGBANK_ID>
DB13680

>  <COMMON_NAME>
Naftazone

>  <CAS_NUMBER>
15687-37-3

>  <UNII>
15B0523P5L

>  <SYNONYMS>
Naftazona; Naftazone; Naftazonum

$$$$
