
 OpenBabel10282417072D

 87 93  0  0  1  0  0  0  0  0999 V2000
    6.9767    0.6232    0.0000 C   0  0  0  0  0  0  0  0  0  0  0  0
    7.0629    1.4435    0.0000 N   0  0  0  0  0  0  0  0  0  0  0  0
    7.7773    1.8561    0.0000 C   0  0  0  0  0  0  0  0  0  0  0  0
    7.6057    2.6630    0.0000 N   0  0  0  0  0  0  0  0  0  0  0  0
    6.7852    2.7493    0.0000 C   0  0  0  0  0  0  0  0  0  0  0  0
    6.4498    1.9956    0.0000 N   0  0  0  0  0  0  0  0  0  0  0  0
    6.2230    0.2876    0.0000 C   0  0  1  0  0  0  0  0  0  0  0  0
    5.5555   -0.1973    0.0000 O   0  0  0  0  0  0  0  0  0  0  0  0
    4.8879    0.2876    0.0000 C   0  0  2  0  0  0  0  0  0  0  0  0
    5.1430    1.0722    0.0000 C   0  0  0  0  0  0  0  0  0  0  0  0
    5.9680    1.0722    0.0000 O   0  0  0  0  0  0  0  0  0  0  0  0
    4.1034    0.0326    0.0000 C   0  0  0  0  0  0  0  0  0  0  0  0
    3.4904    0.5847    0.0000 O   0  0  0  0  0  0  0  0  0  0  0  0
    2.7057    0.3297    0.0000 C   0  0  0  0  0  0  0  0  0  0  0  0
    2.5342   -0.4771    0.0000 C   0  0  0  0  0  0  0  0  0  0  0  0
    1.7495   -0.7321    0.0000 C   0  0  0  0  0  0  0  0  0  0  0  0
    1.1365   -0.1801    0.0000 C   0  0  0  0  0  0  0  0  0  0  0  0
    1.3081    0.6268    0.0000 C   0  0  0  0  0  0  0  0  0  0  0  0
    2.0928    0.8817    0.0000 C   0  0  0  0  0  0  0  0  0  0  0  0
    0.3519   -0.4350    0.0000 N   0  0  0  0  0  0  0  0  0  0  0  0
    0.1804   -1.2420    0.0000 C   0  0  0  0  0  0  0  0  0  0  0  0
   -0.6042   -1.4969    0.0000 C   0  0  0  0  0  0  0  0  0  0  0  0
   -1.2173   -0.9449    0.0000 N   0  0  0  0  0  0  0  0  0  0  0  0
   -1.0458   -0.1379    0.0000 C   0  0  0  0  0  0  0  0  0  0  0  0
   -0.2612    0.1170    0.0000 C   0  0  0  0  0  0  0  0  0  0  0  0
   -2.0020   -1.1998    0.0000 C   0  0  0  0  0  0  0  0  0  0  0  0
   -2.1735   -2.0069    0.0000 C   0  0  0  0  0  0  0  0  0  0  0  0
   -2.9581   -2.2616    0.0000 C   0  0  0  0  0  0  0  0  0  0  0  0
   -3.5711   -1.7097    0.0000 C   0  0  0  0  0  0  0  0  0  0  0  0
   -3.3996   -0.9027    0.0000 C   0  0  0  0  0  0  0  0  0  0  0  0
   -2.6150   -0.6478    0.0000 C   0  0  0  0  0  0  0  0  0  0  0  0
   -4.3558   -1.9647    0.0000 N   0  0  0  0  0  0  0  0  0  0  0  0
   -5.0232   -1.4798    0.0000 C   0  0  0  0  0  0  0  0  0  0  0  0
   -5.0232   -0.6547    0.0000 O   0  0  0  0  0  0  0  0  0  0  0  0
   -5.6906   -1.9647    0.0000 N   0  0  0  0  0  0  0  0  0  0  0  0
   -5.4357   -2.7493    0.0000 N   0  0  0  0  0  0  0  0  0  0  0  0
   -4.6107   -2.7493    0.0000 C   0  0  0  0  0  0  0  0  0  0  0  0
   -6.4753   -1.7097    0.0000 C   0  0  3  0  0  0  0  0  0  0  0  0
   -7.0884   -2.2616    0.0000 C   0  0  0  0  0  0  0  0  0  0  0  0
   -7.8730   -2.0067    0.0000 C   0  0  0  0  0  0  0  0  0  0  0  0
   -6.6467   -0.9027    0.0000 C   0  0  0  0  0  0  0  0  0  0  0  0
    6.6354   -0.4268    0.0000 C   0  0  0  0  0  0  0  0  0  0  0  0
    7.4605   -0.4268    0.0000 C   0  0  0  0  0  0  0  0  0  0  0  0
    7.8730    0.2876    0.0000 Cl  0  0  0  0  0  0  0  0  0  0  0  0
    7.8730   -1.1413    0.0000 C   0  0  0  0  0  0  0  0  0  0  0  0
    7.4605   -1.8558    0.0000 C   0  0  0  0  0  0  0  0  0  0  0  0
    6.6354   -1.8558    0.0000 C   0  0  0  0  0  0  0  0  0  0  0  0
    6.2230   -1.1413    0.0000 C   0  0  0  0  0  0  0  0  0  0  0  0
    7.8730   -2.5702    0.0000 Cl  0  0  0  0  0  0  0  0  0  0  0  0
    7.8424   -0.0057    0.0000 H   0  0  0  0  0  0  0  0  0  0  0  0
    6.8649   -0.4409    0.0000 H   0  0  0  0  0  0  0  0  0  0  0  0
    8.7201    1.4365    0.0000 H   0  0  0  0  0  0  0  0  0  0  0  0
    6.2691    3.6430    0.0000 H   0  0  0  0  0  0  0  0  0  0  0  0
    4.7206   -0.7692    0.0000 H   0  0  0  0  0  0  0  0  0  0  0  0
    4.5142    1.9379    0.0000 H   0  0  0  0  0  0  0  0  0  0  0  0
    5.6288    2.0256    0.0000 H   0  0  0  0  0  0  0  0  0  0  0  0
    3.8809   -1.0140    0.0000 H   0  0  0  0  0  0  0  0  0  0  0  0
    3.0857   -0.2980    0.0000 H   0  0  0  0  0  0  0  0  0  0  0  0
    3.3011   -1.1676    0.0000 H   0  0  0  0  0  0  0  0  0  0  0  0
    1.5349   -1.7415    0.0000 H   0  0  0  0  0  0  0  0  0  0  0  0
    0.5412    1.3174    0.0000 H   0  0  0  0  0  0  0  0  0  0  0  0
    2.3075    1.8911    0.0000 H   0  0  0  0  0  0  0  0  0  0  0  0
    0.9756   -1.9580    0.0000 H   0  0  0  0  0  0  0  0  0  0  0  0
   -0.0421   -2.2886    0.0000 H   0  0  0  0  0  0  0  0  0  0  0  0
   -0.8267   -2.5435    0.0000 H   0  0  0  0  0  0  0  0  0  0  0  0
   -1.6218   -1.8276    0.0000 H   0  0  0  0  0  0  0  0  0  0  0  0
   -1.8410    0.5781    0.0000 H   0  0  0  0  0  0  0  0  0  0  0  0
   -0.8233    0.9087    0.0000 H   0  0  0  0  0  0  0  0  0  0  0  0
   -0.0387    1.1636    0.0000 H   0  0  0  0  0  0  0  0  0  0  0  0
    0.7564    0.4477    0.0000 H   0  0  0  0  0  0  0  0  0  0  0  0
   -1.4066   -2.6975    0.0000 H   0  0  0  0  0  0  0  0  0  0  0  0
   -3.1728   -3.2710    0.0000 H   0  0  0  0  0  0  0  0  0  0  0  0
   -4.1665   -0.2122    0.0000 H   0  0  0  0  0  0  0  0  0  0  0  0
   -2.4004    0.3616    0.0000 H   0  0  0  0  0  0  0  0  0  0  0  0
   -4.0041   -3.5842    0.0000 H   0  0  0  0  0  0  0  0  0  0  0  0
   -6.2529   -2.7563    0.0000 H   0  0  0  0  0  0  0  0  0  0  0  0
   -6.8660   -3.3082    0.0000 H   0  0  0  0  0  0  0  0  0  0  0  0
   -7.8836   -2.9776    0.0000 H   0  0  0  0  0  0  0  0  0  0  0  0
   -8.0955   -0.9601    0.0000 H   0  0  0  0  0  0  0  0  0  0  0  0
   -8.6681   -2.7227    0.0000 H   0  0  0  0  0  0  0  0  0  0  0  0
   -8.8906   -1.6761    0.0000 H   0  0  0  0  0  0  0  0  0  0  0  0
   -5.8514   -0.1869    0.0000 H   0  0  0  0  0  0  0  0  0  0  0  0
   -7.6643   -0.5719    0.0000 H   0  0  0  0  0  0  0  0  0  0  0  0
   -6.8690    0.1440    0.0000 H   0  0  0  0  0  0  0  0  0  0  0  0
    8.9050   -1.1413    0.0000 H   0  0  0  0  0  0  0  0  0  0  0  0
    6.1193   -2.7495    0.0000 H   0  0  0  0  0  0  0  0  0  0  0  0
    5.1910   -1.1413    0.0000 H   0  0  0  0  0  0  0  0  0  0  0  0
  1  2  1  0  0  0  0
  1 50  1  0  0  0  0
  1 51  1  0  0  0  0
  2  3  1  0  0  0  0
  2  6  1  0  0  0  0
  3  4  2  0  0  0  0
  3 52  1  0  0  0  0
  4  5  1  0  0  0  0
  5 53  1  0  0  0  0
  6  5  2  0  0  0  0
  7  1  1  1  0  0  0
  7  8  1  0  0  0  0
  7 11  1  0  0  0  0
  7 42  1  0  0  0  0
  8  9  1  0  0  0  0
  9 10  1  0  0  0  0
  9 12  1  0  0  0  0
  9 54  1  6  0  0  0
 10 55  1  0  0  0  0
 10 56  1  0  0  0  0
 11 10  1  0  0  0  0
 12 13  1  0  0  0  0
 12 57  1  0  0  0  0
 12 58  1  0  0  0  0
 13 14  1  0  0  0  0
 14 15  2  0  0  0  0
 14 19  1  0  0  0  0
 15 16  1  0  0  0  0
 15 59  1  0  0  0  0
 16 17  2  0  0  0  0
 16 60  1  0  0  0  0
 17 20  1  0  0  0  0
 18 17  1  0  0  0  0
 18 61  1  0  0  0  0
 19 18  2  0  0  0  0
 19 62  1  0  0  0  0
 20 21  1  0  0  0  0
 20 25  1  0  0  0  0
 21 22  1  0  0  0  0
 21 63  1  0  0  0  0
 21 64  1  0  0  0  0
 22 23  1  0  0  0  0
 22 65  1  0  0  0  0
 22 66  1  0  0  0  0
 23 26  1  0  0  0  0
 24 23  1  0  0  0  0
 24 67  1  0  0  0  0
 24 68  1  0  0  0  0
 25 24  1  0  0  0  0
 25 69  1  0  0  0  0
 25 70  1  0  0  0  0
 26 27  2  0  0  0  0
 26 31  1  0  0  0  0
 27 28  1  0  0  0  0
 27 71  1  0  0  0  0
 28 29  2  0  0  0  0
 28 72  1  0  0  0  0
 29 32  1  0  0  0  0
 30 29  1  0  0  0  0
 30 73  1  0  0  0  0
 31 30  2  0  0  0  0
 31 74  1  0  0  0  0
 32 33  1  0  0  0  0
 32 37  1  0  0  0  0
 33 34  2  0  0  0  0
 33 35  1  0  0  0  0
 35 36  1  0  0  0  0
 35 38  1  0  0  0  0
 37 36  2  0  0  0  0
 37 75  1  0  0  0  0
 38 39  1  0  0  0  0
 38 41  1  0  0  0  0
 38 76  1  0  0  0  0
 39 40  1  0  0  0  0
 39 77  1  0  0  0  0
 39 78  1  0  0  0  0
 40 79  1  0  0  0  0
 40 80  1  0  0  0  0
 40 81  1  0  0  0  0
 41 82  1  0  0  0  0
 41 83  1  0  0  0  0
 41 84  1  0  0  0  0
 42 43  2  0  0  0  0
 42 48  1  0  0  0  0
 43 44  1  0  0  0  0
 43 45  1  0  0  0  0
 45 46  2  0  0  0  0
 45 85  1  0  0  0  0
 46 49  1  0  0  0  0
 47 46  1  0  0  0  0
 47 86  1  0  0  0  0
 48 47  2  0  0  0  0
 48 87  1  0  0  0  0
M  END
>  <DRUGBANK_ID>
DB01167

>  <SECONDARY_ACCESSION_NUMBERS>
APRD00040

>  <COMMON_NAME>
Itraconazole

>  <CAS_NUMBER>
84625-61-6

>  <UNII>
304NUG5GF4

>  <SYNONYMS>
(Â±)-1-SEC-BUTYL-4-(P-(4-(P-(((2R*,4S*)-2-(2,4-DICHLOROPHENYL)-2-(1H-1,2,4-TRIAZOL-1-YLMETHYL)-1,3-DIOXOLAN-4-YL)METHOXY)PHENYL)-1-PIPERAZINYL)PHENYL)-.DELTA.(SUP 2)-1,2,4-TRIAZOLIN-5-ONE; 3H-1,2,4-TRIAZOL-3-ONE, 4-(4-(4-(4-((2-(2,4-DICHLOROPHENYL)-2-(1H-1,2,4-TRIAZOL-1-YLMETHYL)-1,3-DIOXOLAN-4-YL)METHOXY)PHENYL)-1-PIPERAZINYL)PHENYL)-2,4-DIHYDRO-2-(1-METHYLPROPYL)-; Itraconazol; Itraconazole; ITRACONAZOLE COMPONENT OF SUBA-ITRACONAZOLE; Itraconazolum; Oriconazole

$$$$
