
 OpenBabel10282417072D

137143  0  0  1  0  0  0  0  0999 V2000
    1.6204   -8.6842    0.0000 H   0  0  0  0  0  0  0  0  0  0  0  0
    1.2079   -7.9697    0.0000 C   0  0  2  0  0  0  0  0  0  0  0  0
    2.0329   -7.9697    0.0000 O   0  0  0  0  0  0  0  0  0  0  0  0
    2.4454   -7.2552    0.0000 C   0  0  1  0  0  0  0  0  0  0  0  0
    3.2704   -7.2552    0.0000 C   0  0  2  0  0  0  0  0  0  0  0  0
    3.6829   -7.9697    0.0000 O   0  0  0  0  0  0  0  0  0  0  0  0
    3.6829   -6.5408    0.0000 C   0  0  1  0  0  0  0  0  0  0  0  0
    4.5079   -6.5408    0.0000 C   0  0  0  0  0  0  0  0  0  0  0  0
    4.9204   -7.2552    0.0000 O   0  0  0  0  0  0  0  0  0  0  0  0
    3.2704   -5.8263    0.0000 O   0  0  0  0  0  0  0  0  0  0  0  0
    2.4454   -5.8263    0.0000 C   0  0  1  0  0  0  0  0  0  0  0  0
    1.6204   -5.8263    0.0000 H   0  0  0  0  0  0  0  0  0  0  0  0
    2.0329   -5.1118    0.0000 O   0  0  0  0  0  0  0  0  0  0  0  0
    2.4454   -4.3974    0.0000 C   0  0  2  0  0  0  0  0  0  0  0  0
    2.0329   -3.6829    0.0000 C   0  0  1  0  0  0  0  0  0  0  0  0
    1.2079   -3.6829    0.0000 C   0  0  0  0  0  0  0  0  0  0  0  0
    0.7954   -4.3974    0.0000 O   0  0  0  0  0  0  0  0  0  0  0  0
   -0.0296   -4.3974    0.0000 C   0  0  2  0  0  0  0  0  0  0  0  0
   -0.4421   -5.1118    0.0000 O   0  0  0  0  0  0  0  0  0  0  0  0
   -1.2671   -5.1118    0.0000 C   0  0  2  0  0  0  0  0  0  0  0  0
   -1.6796   -5.8263    0.0000 C   0  0  0  0  0  0  0  0  0  0  0  0
   -2.5046   -5.8263    0.0000 O   0  0  0  0  0  0  0  0  0  0  0  0
   -1.6796   -4.3974    0.0000 C   0  0  1  0  0  0  0  0  0  0  0  0
   -2.5046   -4.3974    0.0000 O   0  0  0  0  0  0  0  0  0  0  0  0
   -1.2671   -3.6829    0.0000 C   0  0  2  0  0  0  0  0  0  0  0  0
   -1.6796   -2.9684    0.0000 O   0  0  0  0  0  0  0  0  0  0  0  0
   -0.4421   -3.6829    0.0000 C   0  0  1  0  0  0  0  0  0  0  0  0
   -0.0296   -2.9684    0.0000 O   0  0  0  0  0  0  0  0  0  0  0  0
    2.4454   -2.9684    0.0000 O   0  0  0  0  0  0  0  0  0  0  0  0
    3.2704   -2.9684    0.0000 C   0  0  1  0  0  0  0  0  0  0  0  0
    3.6829   -2.2539    0.0000 O   0  0  0  0  0  0  0  0  0  0  0  0
    3.2704   -1.5395    0.0000 C   0  0  0  0  0  0  0  0  0  0  0  0
    2.4454   -1.5395    0.0000 C   0  0  0  0  0  0  0  0  0  0  0  0
    2.0329   -0.8250    0.0000 C   0  0  0  0  0  0  0  0  0  0  0  0
    1.2079   -0.8250    0.0000 C   0  0  0  0  0  0  0  0  0  0  0  0
    0.7954   -0.1105    0.0000 C   0  0  0  0  0  0  0  0  0  0  0  0
   -0.0296   -0.1105    0.0000 C   0  0  0  0  0  0  0  0  0  0  0  0
   -0.4421    0.6039    0.0000 C   0  0  0  0  0  0  0  0  0  0  0  0
   -1.2671    0.6039    0.0000 C   0  0  0  0  0  0  0  0  0  0  0  0
    2.4454   -0.1105    0.0000 C   0  0  0  0  0  0  0  0  0  0  0  0
    3.2704   -0.1105    0.0000 C   0  0  0  0  0  0  0  0  0  0  0  0
    3.6829    0.6039    0.0000 O   0  0  0  0  0  0  0  0  0  0  0  0
    4.5079    0.6039    0.0000 C   0  0  0  0  0  0  0  0  0  0  0  0
    5.2831    0.8861    0.0000 C   0  0  0  0  0  0  0  0  0  0  0  0
    4.3646    1.4164    0.0000 C   0  0  0  0  0  0  0  0  0  0  0  0
    4.9204   -0.1105    0.0000 C   0  0  2  0  0  0  0  0  0  0  0  0
    5.3329   -0.8250    0.0000 H   0  0  0  0  0  0  0  0  0  0  0  0
    5.7454   -0.1105    0.0000 C   0  0  0  0  0  0  0  0  0  0  0  0
    6.1579   -0.8250    0.0000 C   0  0  0  0  0  0  0  0  0  0  0  0
    5.7454   -1.5395    0.0000 C   0  0  0  0  0  0  0  0  0  0  0  0
    6.1579   -2.2539    0.0000 C   0  0  0  0  0  0  0  0  0  0  0  0
    4.9204   -1.5395    0.0000 C   0  0  0  0  0  0  0  0  0  0  0  0
    4.5079   -0.8250    0.0000 C   0  0  1  0  0  0  0  0  0  0  0  0
    4.0954   -1.5395    0.0000 H   0  0  0  0  0  0  0  0  0  0  0  0
    3.6829   -0.8250    0.0000 C   0  0  0  0  0  0  0  0  0  0  0  0
    3.6829   -3.6829    0.0000 C   0  0  2  0  0  0  0  0  0  0  0  0
    4.5079   -3.6829    0.0000 O   0  0  0  0  0  0  0  0  0  0  0  0
    3.2704   -4.3974    0.0000 C   0  0  1  0  0  0  0  0  0  0  0  0
    3.6829   -5.1118    0.0000 O   0  0  0  0  0  0  0  0  0  0  0  0
    2.0329   -6.5408    0.0000 C   0  0  2  0  0  0  0  0  0  0  0  0
    1.2079   -6.5408    0.0000 O   0  0  0  0  0  0  0  0  0  0  0  0
    0.7954   -7.2552    0.0000 O   0  0  0  0  0  0  0  0  0  0  0  0
   -0.0296   -7.2552    0.0000 C   0  0  2  0  0  0  0  0  0  0  0  0
   -0.4421   -6.5408    0.0000 C   0  0  0  0  0  0  0  0  0  0  0  0
   -1.2671   -6.5408    0.0000 O   0  0  0  0  0  0  0  0  0  0  0  0
   -0.4421   -7.9697    0.0000 C   0  0  1  0  0  0  0  0  0  0  0  0
   -1.2671   -7.9697    0.0000 O   0  0  0  0  0  0  0  0  0  0  0  0
   -0.0296   -8.6842    0.0000 C   0  0  2  0  0  0  0  0  0  0  0  0
   -0.4421   -9.3987    0.0000 O   0  0  0  0  0  0  0  0  0  0  0  0
    0.7954   -8.6842    0.0000 C   0  0  1  0  0  0  0  0  0  0  0  0
    1.2079   -9.3987    0.0000 O   0  0  0  0  0  0  0  0  0  0  0  0
    2.9804   -8.1818    0.0000 H   0  0  0  0  0  0  0  0  0  0  0  0
    2.7354   -8.1818    0.0000 H   0  0  0  0  0  0  0  0  0  0  0  0
    3.1979   -8.8097    0.0000 H   0  0  0  0  0  0  0  0  0  0  0  0
    4.2179   -7.4675    0.0000 H   0  0  0  0  0  0  0  0  0  0  0  0
    5.0429   -5.6141    0.0000 H   0  0  0  0  0  0  0  0  0  0  0  0
    5.5779   -6.5408    0.0000 H   0  0  0  0  0  0  0  0  0  0  0  0
    4.4354   -8.0953    0.0000 H   0  0  0  0  0  0  0  0  0  0  0  0
    1.3754   -4.3974    0.0000 H   0  0  0  0  0  0  0  0  0  0  0  0
    1.4979   -4.6095    0.0000 H   0  0  0  0  0  0  0  0  0  0  0  0
    0.6729   -2.7563    0.0000 H   0  0  0  0  0  0  0  0  0  0  0  0
    0.1379   -3.6829    0.0000 H   0  0  0  0  0  0  0  0  0  0  0  0
    0.5054   -5.3241    0.0000 H   0  0  0  0  0  0  0  0  0  0  0  0
   -0.7321   -6.0384    0.0000 H   0  0  0  0  0  0  0  0  0  0  0  0
   -1.1446   -6.7529    0.0000 H   0  0  0  0  0  0  0  0  0  0  0  0
   -2.2146   -6.7529    0.0000 H   0  0  0  0  0  0  0  0  0  0  0  0
   -2.9896   -4.9863    0.0000 H   0  0  0  0  0  0  0  0  0  0  0  0
   -2.2146   -5.3241    0.0000 H   0  0  0  0  0  0  0  0  0  0  0  0
   -2.9896   -3.5574    0.0000 H   0  0  0  0  0  0  0  0  0  0  0  0
   -2.3371   -3.6829    0.0000 H   0  0  0  0  0  0  0  0  0  0  0  0
   -1.1946   -2.1284    0.0000 H   0  0  0  0  0  0  0  0  0  0  0  0
   -0.9771   -2.7563    0.0000 H   0  0  0  0  0  0  0  0  0  0  0  0
    0.9404   -2.9684    0.0000 H   0  0  0  0  0  0  0  0  0  0  0  0
    2.7354   -2.0418    0.0000 H   0  0  0  0  0  0  0  0  0  0  0  0
    1.9294   -2.4332    0.0000 H   0  0  0  0  0  0  0  0  0  0  0  0
    0.6729   -1.7516    0.0000 H   0  0  0  0  0  0  0  0  0  0  0  0
    0.1379   -0.8250    0.0000 H   0  0  0  0  0  0  0  0  0  0  0  0
    1.3304    0.8161    0.0000 H   0  0  0  0  0  0  0  0  0  0  0  0
    0.2604    0.8161    0.0000 H   0  0  0  0  0  0  0  0  0  0  0  0
   -0.5646   -1.0372    0.0000 H   0  0  0  0  0  0  0  0  0  0  0  0
   -1.0996   -0.1105    0.0000 H   0  0  0  0  0  0  0  0  0  0  0  0
    0.0929    1.5306    0.0000 H   0  0  0  0  0  0  0  0  0  0  0  0
   -0.9771    1.5305    0.0000 H   0  0  0  0  0  0  0  0  0  0  0  0
   -1.8021    1.5305    0.0000 H   0  0  0  0  0  0  0  0  0  0  0  0
   -1.8021   -0.3227    0.0000 H   0  0  0  0  0  0  0  0  0  0  0  0
   -2.3371    0.6039    0.0000 H   0  0  0  0  0  0  0  0  0  0  0  0
    1.9294    0.7832    0.0000 H   0  0  0  0  0  0  0  0  0  0  0  0
    6.1028    0.1984    0.0000 H   0  0  0  0  0  0  0  0  0  0  0  0
    5.4688    1.9399    0.0000 H   0  0  0  0  0  0  0  0  0  0  0  0
    6.2886    1.2521    0.0000 H   0  0  0  0  0  0  0  0  0  0  0  0
    5.1842    2.1042    0.0000 H   0  0  0  0  0  0  0  0  0  0  0  0
    3.3591    1.7823    0.0000 H   0  0  0  0  0  0  0  0  0  0  0  0
    4.1788    2.4701    0.0000 H   0  0  0  0  0  0  0  0  0  0  0  0
    6.2804    0.8161    0.0000 H   0  0  0  0  0  0  0  0  0  0  0  0
    6.8154   -0.1105    0.0000 H   0  0  0  0  0  0  0  0  0  0  0  0
    7.2279   -0.8250    0.0000 H   0  0  0  0  0  0  0  0  0  0  0  0
    6.6929   -1.7516    0.0000 H   0  0  0  0  0  0  0  0  0  0  0  0
    5.6229   -3.1806    0.0000 H   0  0  0  0  0  0  0  0  0  0  0  0
    7.2279   -2.2539    0.0000 H   0  0  0  0  0  0  0  0  0  0  0  0
    6.6929   -3.1805    0.0000 H   0  0  0  0  0  0  0  0  0  0  0  0
    4.4044   -2.4332    0.0000 H   0  0  0  0  0  0  0  0  0  0  0  0
    4.2179   -2.7563    0.0000 H   0  0  0  0  0  0  0  0  0  0  0  0
    4.9929   -4.5229    0.0000 H   0  0  0  0  0  0  0  0  0  0  0  0
    4.3404   -4.3974    0.0000 H   0  0  0  0  0  0  0  0  0  0  0  0
    3.1979   -5.9519    0.0000 H   0  0  0  0  0  0  0  0  0  0  0  0
    1.4979   -5.6142    0.0000 H   0  0  0  0  0  0  0  0  0  0  0  0
    0.7229   -5.7008    0.0000 H   0  0  0  0  0  0  0  0  0  0  0  0
    0.5054   -6.3285    0.0000 H   0  0  0  0  0  0  0  0  0  0  0  0
    0.0929   -5.6141    0.0000 H   0  0  0  0  0  0  0  0  0  0  0  0
   -0.9771   -5.6142    0.0000 H   0  0  0  0  0  0  0  0  0  0  0  0
   -1.7521   -5.7008    0.0000 H   0  0  0  0  0  0  0  0  0  0  0  0
   -0.9771   -7.0431    0.0000 H   0  0  0  0  0  0  0  0  0  0  0  0
   -1.7521   -7.1297    0.0000 H   0  0  0  0  0  0  0  0  0  0  0  0
   -1.0996   -8.6842    0.0000 H   0  0  0  0  0  0  0  0  0  0  0  0
   -1.4121   -9.3987    0.0000 H   0  0  0  0  0  0  0  0  0  0  0  0
    0.2604   -9.6108    0.0000 H   0  0  0  0  0  0  0  0  0  0  0  0
    0.7229  -10.2387    0.0000 H   0  0  0  0  0  0  0  0  0  0  0  0
  2  1  1  6  0  0  0
  2  3  1  0  0  0  0
  2 62  1  0  0  0  0
  4  3  1  0  0  0  0
  4  5  1  0  0  0  0
  4 60  1  0  0  0  0
  4 72  1  1  0  0  0
  5  6  1  0  0  0  0
  5  7  1  0  0  0  0
  5 73  1  6  0  0  0
  6 74  1  0  0  0  0
  7  8  1  0  0  0  0
  7 10  1  0  0  0  0
  7 75  1  1  0  0  0
  8  9  1  0  0  0  0
  8 76  1  0  0  0  0
  8 77  1  0  0  0  0
  9 78  1  0  0  0  0
 11 10  1  0  0  0  0
 11 12  1  1  0  0  0
 11 13  1  0  0  0  0
 14 13  1  0  0  0  0
 14 15  1  0  0  0  0
 14 58  1  0  0  0  0
 14 79  1  1  0  0  0
 15 16  1  0  0  0  0
 15 29  1  0  0  0  0
 15 80  1  6  0  0  0
 16 17  1  0  0  0  0
 16 81  1  0  0  0  0
 16 82  1  0  0  0  0
 18 17  1  0  0  0  0
 18 19  1  0  0  0  0
 18 83  1  1  0  0  0
 20 19  1  0  0  0  0
 20 21  1  0  0  0  0
 20 84  1  1  0  0  0
 21 22  1  0  0  0  0
 21 85  1  0  0  0  0
 21 86  1  0  0  0  0
 22 87  1  0  0  0  0
 23 20  1  0  0  0  0
 23 24  1  0  0  0  0
 23 25  1  0  0  0  0
 23 88  1  6  0  0  0
 24 89  1  0  0  0  0
 25 26  1  0  0  0  0
 25 27  1  0  0  0  0
 25 90  1  1  0  0  0
 26 91  1  0  0  0  0
 27 18  1  0  0  0  0
 27 28  1  0  0  0  0
 27 92  1  6  0  0  0
 28 93  1  0  0  0  0
 30 29  1  0  0  0  0
 30 31  1  0  0  0  0
 30 94  1  6  0  0  0
 31 32  1  0  0  0  0
 32 33  2  0  0  0  0
 32 55  1  0  0  0  0
 33 34  1  0  0  0  0
 33 95  1  0  0  0  0
 34 35  1  0  0  0  0
 34 40  2  0  0  0  0
 35 36  1  0  0  0  0
 35 96  1  0  0  0  0
 35 97  1  0  0  0  0
 36 37  1  0  0  0  0
 36 98  1  0  0  0  0
 36 99  1  0  0  0  0
 37 38  1  0  0  0  0
 37100  1  0  0  0  0
 37101  1  0  0  0  0
 38 39  1  0  0  0  0
 38102  1  0  0  0  0
 38103  1  0  0  0  0
 39104  1  0  0  0  0
 39105  1  0  0  0  0
 39106  1  0  0  0  0
 40 41  1  0  0  0  0
 40107  1  0  0  0  0
 41 42  1  0  0  0  0
 41 55  2  0  0  0  0
 42 43  1  0  0  0  0
 43 44  1  0  0  0  0
 43 45  1  0  0  0  0
 44108  1  0  0  0  0
 44109  1  0  0  0  0
 44110  1  0  0  0  0
 45111  1  0  0  0  0
 45112  1  0  0  0  0
 45113  1  0  0  0  0
 46 43  1  0  0  0  0
 46 47  1  1  0  0  0
 46 48  1  0  0  0  0
 46 53  1  0  0  0  0
 48 49  1  0  0  0  0
 48114  1  0  0  0  0
 48115  1  0  0  0  0
 49 50  1  0  0  0  0
 49116  1  0  0  0  0
 49117  1  0  0  0  0
 50 51  1  0  0  0  0
 50 52  2  0  0  0  0
 51118  1  0  0  0  0
 51119  1  0  0  0  0
 51120  1  0  0  0  0
 52121  1  0  0  0  0
 53 52  1  0  0  0  0
 53 54  1  6  0  0  0
 53 55  1  0  0  0  0
 56 30  1  0  0  0  0
 56 57  1  0  0  0  0
 56122  1  1  0  0  0
 57123  1  0  0  0  0
 58 56  1  0  0  0  0
 58 59  1  0  0  0  0
 58124  1  6  0  0  0
 59125  1  0  0  0  0
 60 11  1  0  0  0  0
 60 61  1  0  0  0  0
 60126  1  6  0  0  0
 61127  1  0  0  0  0
 63 62  1  0  0  0  0
 63 64  1  0  0  0  0
 63128  1  6  0  0  0
 64 65  1  0  0  0  0
 64129  1  0  0  0  0
 64130  1  0  0  0  0
 65131  1  0  0  0  0
 66 63  1  0  0  0  0
 66 67  1  0  0  0  0
 66 68  1  0  0  0  0
 66132  1  1  0  0  0
 67133  1  0  0  0  0
 68 69  1  0  0  0  0
 68 70  1  0  0  0  0
 68134  1  6  0  0  0
 69135  1  0  0  0  0
 70  2  1  0  0  0  0
 70 71  1  0  0  0  0
 70136  1  1  0  0  0
 71137  1  0  0  0  0
M  END
>  <DRUGBANK_ID>
DB18541

>  <COMMON_NAME>
VB-313

>  <CAS_NUMBER>
2699021-79-7

>  <UNII>
VFD5BFU5ZG

$$$$
