
 OpenBabel10282417072D

 89 89  0  0  0  0  0  0  0  0999 V2000
    0.7145  -11.1375    0.0000 C   0  0  0  0  0  0  0  0  0  0  0  0
    1.4289  -11.5500    0.0000 N   0  3  0  0  0  0  0  0  0  0  0  0
    1.0164  -12.2645    0.0000 C   0  0  0  0  0  0  0  0  0  0  0  0
    1.8414  -10.8355    0.0000 C   0  0  0  0  0  0  0  0  0  0  0  0
    2.1434  -11.9625    0.0000 C   0  0  0  0  0  0  0  0  0  0  0  0
    2.8579  -11.5500    0.0000 C   0  0  0  0  0  0  0  0  0  0  0  0
    3.5724  -11.9625    0.0000 O   0  0  0  0  0  0  0  0  0  0  0  0
    4.2868  -11.5500    0.0000 P   0  0  3  0  0  0  0  0  0  0  0  0
    4.6993  -12.2645    0.0000 O   0  5  0  0  0  0  0  0  0  0  0  0
    3.8743  -10.8355    0.0000 O   0  0  0  0  0  0  0  0  0  0  0  0
    5.0013  -11.1375    0.0000 O   0  0  0  0  0  0  0  0  0  0  0  0
    5.7158  -11.5500    0.0000 C   0  0  0  0  0  0  0  0  0  0  0  0
    6.4302  -11.1375    0.0000 C   0  0  0  0  0  0  0  0  0  0  0  0
    7.1447  -11.5500    0.0000 C   0  0  0  0  0  0  0  0  0  0  0  0
    7.8592  -11.1375    0.0000 C   0  0  0  0  0  0  0  0  0  0  0  0
    8.5737  -11.5500    0.0000 C   0  0  0  0  0  0  0  0  0  0  0  0
    9.2881  -11.1375    0.0000 C   0  0  0  0  0  0  0  0  0  0  0  0
   10.0026  -11.5500    0.0000 C   0  0  0  0  0  0  0  0  0  0  0  0
   10.7171  -11.1375    0.0000 C   0  0  0  0  0  0  0  0  0  0  0  0
   11.4315  -11.5500    0.0000 C   0  0  0  0  0  0  0  0  0  0  0  0
   12.1460  -11.1375    0.0000 C   0  0  0  0  0  0  0  0  0  0  0  0
   12.8605  -11.5500    0.0000 C   0  0  0  0  0  0  0  0  0  0  0  0
   13.5749  -11.1375    0.0000 C   0  0  0  0  0  0  0  0  0  0  0  0
   14.2894  -11.5500    0.0000 C   0  0  0  0  0  0  0  0  0  0  0  0
   15.0039  -11.1375    0.0000 C   0  0  0  0  0  0  0  0  0  0  0  0
   15.7184  -11.5500    0.0000 C   0  0  0  0  0  0  0  0  0  0  0  0
   16.4328  -11.1375    0.0000 C   0  0  0  0  0  0  0  0  0  0  0  0
   17.1473  -11.5500    0.0000 C   0  0  0  0  0  0  0  0  0  0  0  0
   17.8618  -11.1375    0.0000 C   0  0  0  0  0  0  0  0  0  0  0  0
   18.5762  -11.5500    0.0000 C   0  0  0  0  0  0  0  0  0  0  0  0
   19.2907  -11.1375    0.0000 C   0  0  0  0  0  0  0  0  0  0  0  0
   20.0052  -11.5500    0.0000 C   0  0  0  0  0  0  0  0  0  0  0  0
   20.0052  -12.3750    0.0000 C   0  0  0  0  0  0  0  0  0  0  0  0
   20.7197  -12.7875    0.0000 I   0  0  0  0  0  0  0  0  0  0  0  0
   19.2907  -12.7875    0.0000 C   0  0  0  0  0  0  0  0  0  0  0  0
   18.5762  -12.3750    0.0000 C   0  0  0  0  0  0  0  0  0  0  0  0
    0.7145  -10.0675    0.0000 H   0  0  0  0  0  0  0  0  0  0  0  0
   -0.2122  -11.6725    0.0000 H   0  0  0  0  0  0  0  0  0  0  0  0
   -0.2121  -10.6025    0.0000 H   0  0  0  0  0  0  0  0  0  0  0  0
   -0.0536  -12.2645    0.0000 H   0  0  0  0  0  0  0  0  0  0  0  0
    1.5514  -13.1911    0.0000 H   0  0  0  0  0  0  0  0  0  0  0  0
    0.4814  -13.1912    0.0000 H   0  0  0  0  0  0  0  0  0  0  0  0
    2.9114  -10.8355    0.0000 H   0  0  0  0  0  0  0  0  0  0  0  0
    1.3064   -9.9089    0.0000 H   0  0  0  0  0  0  0  0  0  0  0  0
    2.3764   -9.9088    0.0000 H   0  0  0  0  0  0  0  0  0  0  0  0
    2.1434  -13.0325    0.0000 H   0  0  0  0  0  0  0  0  0  0  0  0
    3.0700  -12.4975    0.0000 H   0  0  0  0  0  0  0  0  0  0  0  0
    2.8579  -10.4800    0.0000 H   0  0  0  0  0  0  0  0  0  0  0  0
    3.7845  -11.0150    0.0000 H   0  0  0  0  0  0  0  0  0  0  0  0
    5.7158  -12.6200    0.0000 H   0  0  0  0  0  0  0  0  0  0  0  0
    6.6425  -12.0850    0.0000 H   0  0  0  0  0  0  0  0  0  0  0  0
    6.4302  -10.0675    0.0000 H   0  0  0  0  0  0  0  0  0  0  0  0
    7.3568  -10.6025    0.0000 H   0  0  0  0  0  0  0  0  0  0  0  0
    7.1447  -12.6200    0.0000 H   0  0  0  0  0  0  0  0  0  0  0  0
    8.0713  -12.0850    0.0000 H   0  0  0  0  0  0  0  0  0  0  0  0
    7.8592  -10.0675    0.0000 H   0  0  0  0  0  0  0  0  0  0  0  0
    8.7858  -10.6025    0.0000 H   0  0  0  0  0  0  0  0  0  0  0  0
    8.5737  -12.6200    0.0000 H   0  0  0  0  0  0  0  0  0  0  0  0
    9.5004  -12.0850    0.0000 H   0  0  0  0  0  0  0  0  0  0  0  0
    9.2881  -10.0675    0.0000 H   0  0  0  0  0  0  0  0  0  0  0  0
   10.2147  -10.6025    0.0000 H   0  0  0  0  0  0  0  0  0  0  0  0
   10.0026  -12.6200    0.0000 H   0  0  0  0  0  0  0  0  0  0  0  0
   10.9292  -12.0850    0.0000 H   0  0  0  0  0  0  0  0  0  0  0  0
   10.7171  -10.0675    0.0000 H   0  0  0  0  0  0  0  0  0  0  0  0
   11.6438  -10.6025    0.0000 H   0  0  0  0  0  0  0  0  0  0  0  0
   11.4315  -12.6200    0.0000 H   0  0  0  0  0  0  0  0  0  0  0  0
   12.3581  -12.0850    0.0000 H   0  0  0  0  0  0  0  0  0  0  0  0
   12.1460  -10.0675    0.0000 H   0  0  0  0  0  0  0  0  0  0  0  0
   13.0726  -10.6025    0.0000 H   0  0  0  0  0  0  0  0  0  0  0  0
   12.8605  -12.6200    0.0000 H   0  0  0  0  0  0  0  0  0  0  0  0
   13.7872  -12.0850    0.0000 H   0  0  0  0  0  0  0  0  0  0  0  0
   13.5749  -10.0675    0.0000 H   0  0  0  0  0  0  0  0  0  0  0  0
   14.5015  -10.6025    0.0000 H   0  0  0  0  0  0  0  0  0  0  0  0
   14.2894  -12.6200    0.0000 H   0  0  0  0  0  0  0  0  0  0  0  0
   15.2160  -12.0850    0.0000 H   0  0  0  0  0  0  0  0  0  0  0  0
   15.0039  -10.0675    0.0000 H   0  0  0  0  0  0  0  0  0  0  0  0
   15.9305  -10.6025    0.0000 H   0  0  0  0  0  0  0  0  0  0  0  0
   15.7184  -12.6200    0.0000 H   0  0  0  0  0  0  0  0  0  0  0  0
   16.6451  -12.0850    0.0000 H   0  0  0  0  0  0  0  0  0  0  0  0
   16.4328  -10.0675    0.0000 H   0  0  0  0  0  0  0  0  0  0  0  0
   17.3594  -10.6025    0.0000 H   0  0  0  0  0  0  0  0  0  0  0  0
   17.1473  -12.6200    0.0000 H   0  0  0  0  0  0  0  0  0  0  0  0
   18.0739  -12.0850    0.0000 H   0  0  0  0  0  0  0  0  0  0  0  0
   17.8618  -10.0675    0.0000 H   0  0  0  0  0  0  0  0  0  0  0  0
   18.7885  -10.6025    0.0000 H   0  0  0  0  0  0  0  0  0  0  0  0
   19.2907  -10.1055    0.0000 H   0  0  0  0  0  0  0  0  0  0  0  0
   20.8989  -11.0340    0.0000 H   0  0  0  0  0  0  0  0  0  0  0  0
   19.2907  -13.8195    0.0000 H   0  0  0  0  0  0  0  0  0  0  0  0
   17.6825  -12.8910    0.0000 H   0  0  0  0  0  0  0  0  0  0  0  0
  1  2  1  0  0  0  0
  1 37  1  0  0  0  0
  1 38  1  0  0  0  0
  1 39  1  0  0  0  0
  2  3  1  0  0  0  0
  2  4  1  0  0  0  0
  2  5  1  0  0  0  0
  3 40  1  0  0  0  0
  3 41  1  0  0  0  0
  3 42  1  0  0  0  0
  4 43  1  0  0  0  0
  4 44  1  0  0  0  0
  4 45  1  0  0  0  0
  5  6  1  0  0  0  0
  5 46  1  0  0  0  0
  5 47  1  0  0  0  0
  6  7  1  0  0  0  0
  6 48  1  0  0  0  0
  6 49  1  0  0  0  0
  7  8  1  0  0  0  0
  8  9  1  0  0  0  0
  8 10  2  0  0  0  0
  8 11  1  0  0  0  0
 11 12  1  0  0  0  0
 12 13  1  0  0  0  0
 12 50  1  0  0  0  0
 12 51  1  0  0  0  0
 13 14  1  0  0  0  0
 13 52  1  0  0  0  0
 13 53  1  0  0  0  0
 14 15  1  0  0  0  0
 14 54  1  0  0  0  0
 14 55  1  0  0  0  0
 15 16  1  0  0  0  0
 15 56  1  0  0  0  0
 15 57  1  0  0  0  0
 16 17  1  0  0  0  0
 16 58  1  0  0  0  0
 16 59  1  0  0  0  0
 17 18  1  0  0  0  0
 17 60  1  0  0  0  0
 17 61  1  0  0  0  0
 18 19  1  0  0  0  0
 18 62  1  0  0  0  0
 18 63  1  0  0  0  0
 19 20  1  0  0  0  0
 19 64  1  0  0  0  0
 19 65  1  0  0  0  0
 20 21  1  0  0  0  0
 20 66  1  0  0  0  0
 20 67  1  0  0  0  0
 21 22  1  0  0  0  0
 21 68  1  0  0  0  0
 21 69  1  0  0  0  0
 22 23  1  0  0  0  0
 22 70  1  0  0  0  0
 22 71  1  0  0  0  0
 23 24  1  0  0  0  0
 23 72  1  0  0  0  0
 23 73  1  0  0  0  0
 24 25  1  0  0  0  0
 24 74  1  0  0  0  0
 24 75  1  0  0  0  0
 25 26  1  0  0  0  0
 25 76  1  0  0  0  0
 25 77  1  0  0  0  0
 26 27  1  0  0  0  0
 26 78  1  0  0  0  0
 26 79  1  0  0  0  0
 27 28  1  0  0  0  0
 27 80  1  0  0  0  0
 27 81  1  0  0  0  0
 28 29  1  0  0  0  0
 28 82  1  0  0  0  0
 28 83  1  0  0  0  0
 29 30  1  0  0  0  0
 29 84  1  0  0  0  0
 29 85  1  0  0  0  0
 30 31  2  0  0  0  0
 30 36  1  0  0  0  0
 31 32  1  0  0  0  0
 31 86  1  0  0  0  0
 32 33  2  0  0  0  0
 32 87  1  0  0  0  0
 33 34  1  0  0  0  0
 33 35  1  0  0  0  0
 35 36  2  0  0  0  0
 35 88  1  0  0  0  0
 36 89  1  0  0  0  0
M  ISO  1  34 124
M  CHG  2   2   1   9  -1
M  END
>  <DRUGBANK_ID>
DB17127

>  <COMMON_NAME>
Iopofosine I-124

>  <CAS_NUMBER>
873438-87-0

>  <UNII>
08W354EC17

>  <SYNONYMS>
18-(p-(124i )-iodophenyl)octadecyl phosphocholine; Ethanaminium, 2-((hydroxy((18-(4-(iodo-124i)phenyl)octadecyl)oxy)phosphinyl)oxy)-n,n,n-trimethyl-, inner salt

$$$$
