
 OpenBabel10282417072D

 32 32  0  0  1  0  0  0  0  0999 V2000
   -0.3297   -0.8227    0.0000 C   0  0  0  0  0  0  0  0  0  0  0  0
    0.1553   -0.1553    0.0000 C   0  0  1  0  0  0  0  0  0  0  0  0
   -0.0997    0.6294    0.0000 C   0  0  0  0  0  0  0  0  0  0  0  0
    0.5678    1.1143    0.0000 C   0  0  3  0  0  0  0  0  0  0  0  0
    1.2352    0.6294    0.0000 C   0  0  0  0  0  0  0  0  0  0  0  0
    0.9803   -0.1553    0.0000 C   0  0  2  0  0  0  0  0  0  0  0  0
    1.4652   -0.8227    0.0000 C   0  0  0  0  0  0  0  0  0  0  0  0
    0.1628    1.8330    0.0000 C   0  0  0  0  0  0  0  0  0  0  0  0
    0.5827    2.5432    0.0000 C   0  0  0  0  0  0  0  0  0  0  0  0
    0.1777    3.2619    0.0000 O   0  0  0  0  0  0  0  0  0  0  0  0
    1.4077    2.5345    0.0000 O   0  0  0  0  0  0  0  0  0  0  0  0
    0.9728    1.8330    0.0000 C   0  0  0  0  0  0  0  0  0  0  0  0
    1.7977    1.8417    0.0000 N   0  0  0  0  0  0  0  0  0  0  0  0
   -1.3938   -0.7107    0.0000 H   0  0  0  0  0  0  0  0  0  0  0  0
    0.1054   -1.8002    0.0000 H   0  0  0  0  0  0  0  0  0  0  0  0
   -0.9587   -1.6883    0.0000 H   0  0  0  0  0  0  0  0  0  0  0  0
   -0.9015    0.0121    0.0000 H   0  0  0  0  0  0  0  0  0  0  0  0
   -1.1173    0.9601    0.0000 H   0  0  0  0  0  0  0  0  0  0  0  0
   -0.2670    1.6862    0.0000 H   0  0  0  0  0  0  0  0  0  0  0  0
    2.2528    0.9601    0.0000 H   0  0  0  0  0  0  0  0  0  0  0  0
    1.9918   -0.1272    0.0000 H   0  0  0  0  0  0  0  0  0  0  0  0
    2.0371    0.0121    0.0000 H   0  0  0  0  0  0  0  0  0  0  0  0
    1.0300   -1.8002    0.0000 H   0  0  0  0  0  0  0  0  0  0  0  0
    2.5293   -0.7108    0.0000 H   0  0  0  0  0  0  0  0  0  0  0  0
    2.0941   -1.6883    0.0000 H   0  0  0  0  0  0  0  0  0  0  0  0
   -0.9071    1.8441    0.0000 H   0  0  0  0  0  0  0  0  0  0  0  0
   -0.3626    2.7651    0.0000 H   0  0  0  0  0  0  0  0  0  0  0  0
    1.8676    1.7181    0.0000 H   0  0  0  0  0  0  0  0  0  0  0  0
    0.4281    2.7540    0.0000 H   0  0  0  0  0  0  0  0  0  0  0  0
    1.4980    2.7652    0.0000 H   0  0  0  0  0  0  0  0  0  0  0  0
    2.3170    0.9638    0.0000 H   0  0  0  0  0  0  0  0  0  0  0  0
    2.2984    2.7304    0.0000 H   0  0  0  0  0  0  0  0  0  0  0  0
  1 14  1  0  0  0  0
  1 15  1  0  0  0  0
  1 16  1  0  0  0  0
  2  1  1  0  0  0  0
  2  3  1  0  0  0  0
  2  6  1  0  0  0  0
  2 17  1  6  0  0  0
  3  4  1  0  0  0  0
  3 18  1  0  0  0  0
  3 19  1  0  0  0  0
  4  5  1  0  0  0  0
  4  8  1  0  0  0  0
  4 12  1  0  0  0  0
  5  6  1  0  0  0  0
  5 20  1  0  0  0  0
  5 21  1  0  0  0  0
  6  7  1  0  0  0  0
  6 22  1  1  0  0  0
  7 23  1  0  0  0  0
  7 24  1  0  0  0  0
  7 25  1  0  0  0  0
  8  9  1  0  0  0  0
  8 26  1  0  0  0  0
  8 27  1  0  0  0  0
  9 10  2  0  0  0  0
  9 11  1  0  0  0  0
 11 28  1  0  0  0  0
 12 13  1  0  0  0  0
 12 29  1  0  0  0  0
 12 30  1  0  0  0  0
 13 31  1  0  0  0  0
 13 32  1  0  0  0  0
M  END
>  <DRUGBANK_ID>
DB12032

>  <COMMON_NAME>
Atagabalin

>  <CAS_NUMBER>
223445-75-8

>  <UNII>
JT7957Q2FB

>  <SYNONYMS>
Atagabalin

$$$$
