
 OpenBabel10282417072D

 52 53  0  0  0  0  0  0  0  0999 V2000
   -2.4498   -0.0102    0.0000 C   0  0  0  0  0  0  0  0  0  0  0  0
   -1.7326   -0.4206    0.0000 C   0  0  0  0  0  0  0  0  0  0  0  0
   -3.1635   -0.4241    0.0000 C   0  0  0  0  0  0  0  0  0  0  0  0
   -2.4498    0.8206    0.0000 C   0  0  0  0  0  0  0  0  0  0  0  0
   -1.0223   -0.0033    0.0000 N   0  0  0  0  0  0  0  0  0  0  0  0
   -3.8808   -0.0102    0.0000 N   0  0  0  0  0  0  0  0  0  0  0  0
   -3.1635   -1.2482    0.0000 N   0  0  0  0  0  0  0  0  0  0  0  0
   -3.1670    1.2309    0.0000 N   0  0  0  0  0  0  0  0  0  0  0  0
   -0.3051   -0.4102    0.0000 C   0  0  0  0  0  0  0  0  0  0  0  0
   -1.0258    0.8206    0.0000 C   0  0  0  0  0  0  0  0  0  0  0  0
   -3.8773    0.8172    0.0000 C   0  0  0  0  0  0  0  0  0  0  0  0
    0.4051    0.0068    0.0000 C   0  0  0  0  0  0  0  0  0  0  0  0
   -0.3016   -1.2378    0.0000 C   0  0  0  0  0  0  0  0  0  0  0  0
   -0.3154    1.2378    0.0000 O   0  0  0  0  0  0  0  0  0  0  0  0
   -4.5946    1.2309    0.0000 C   0  0  0  0  0  0  0  0  0  0  0  0
    1.1223   -0.4033    0.0000 S   0  0  0  0  0  0  0  0  0  0  0  0
    0.4017    0.8309    0.0000 C   0  0  0  0  0  0  0  0  0  0  0  0
    1.8361    0.0137    0.0000 S   0  0  0  0  0  0  0  0  0  0  0  0
    1.1119    1.2482    0.0000 C   0  0  0  0  0  0  0  0  0  0  0  0
    2.5532   -0.3930    0.0000 C   0  0  0  0  0  0  0  0  0  0  0  0
    1.8292    0.8378    0.0000 O   0  0  0  0  0  0  0  0  0  0  0  0
    3.2601    0.0240    0.0000 C   0  0  3  0  0  0  0  0  0  0  0  0
    3.5153    0.8103    0.0000 C   0  0  0  0  0  0  0  0  0  0  0  0
    3.9255   -0.4620    0.0000 O   0  0  0  0  0  0  0  0  0  0  0  0
    4.3394    0.8103    0.0000 C   0  0  0  0  0  0  0  0  0  0  0  0
    4.5946    0.0240    0.0000 C   0  0  0  0  0  0  0  0  0  0  0  0
   -1.7265   -1.4906    0.0000 H   0  0  0  0  0  0  0  0  0  0  0  0
   -0.8024   -0.9494    0.0000 H   0  0  0  0  0  0  0  0  0  0  0  0
   -1.5571    1.3384    0.0000 H   0  0  0  0  0  0  0  0  0  0  0  0
   -4.0161   -1.7405    0.0000 H   0  0  0  0  0  0  0  0  0  0  0  0
   -2.3109   -1.7404    0.0000 H   0  0  0  0  0  0  0  0  0  0  0  0
   -1.9225    1.3314    0.0000 H   0  0  0  0  0  0  0  0  0  0  0  0
   -1.2260   -1.7767    0.0000 H   0  0  0  0  0  0  0  0  0  0  0  0
    0.6273   -1.7689    0.0000 H   0  0  0  0  0  0  0  0  0  0  0  0
   -0.2971   -2.3078    0.0000 H   0  0  0  0  0  0  0  0  0  0  0  0
   -4.5951    2.3009    0.0000 H   0  0  0  0  0  0  0  0  0  0  0  0
   -5.5210    0.6955    0.0000 H   0  0  0  0  0  0  0  0  0  0  0  0
   -5.5215    1.7655    0.0000 H   0  0  0  0  0  0  0  0  0  0  0  0
   -0.5281    1.3604    0.0000 H   0  0  0  0  0  0  0  0  0  0  0  0
    0.3945    1.9009    0.0000 H   0  0  0  0  0  0  0  0  0  0  0  0
    1.1057    2.3182    0.0000 H   0  0  0  0  0  0  0  0  0  0  0  0
    2.0359    1.7877    0.0000 H   0  0  0  0  0  0  0  0  0  0  0  0
    2.5623   -1.4630    0.0000 H   0  0  0  0  0  0  0  0  0  0  0  0
    3.4846   -0.9197    0.0000 H   0  0  0  0  0  0  0  0  0  0  0  0
    1.8330   -0.1322    0.0000 H   0  0  0  0  0  0  0  0  0  0  0  0
    2.4253    0.6933    0.0000 H   0  0  0  0  0  0  0  0  0  0  0  0
    2.8862    1.6758    0.0000 H   0  0  0  0  0  0  0  0  0  0  0  0
    4.0010    1.7637    0.0000 H   0  0  0  0  0  0  0  0  0  0  0  0
    4.9685    1.6758    0.0000 H   0  0  0  0  0  0  0  0  0  0  0  0
    5.3962    0.6427    0.0000 H   0  0  0  0  0  0  0  0  0  0  0  0
    5.6122   -0.3069    0.0000 H   0  0  0  0  0  0  0  0  0  0  0  0
    5.3514    0.7804    0.0000 H   0  0  0  0  0  0  0  0  0  0  0  0
  1  2  1  0  0  0  0
  1  3  2  0  0  0  0
  1  4  1  0  0  0  0
  2  5  1  0  0  0  0
  2 27  1  0  0  0  0
  2 28  1  0  0  0  0
  3  6  1  0  0  0  0
  3  7  1  0  0  0  0
  4  8  2  0  0  0  0
  4 29  1  0  0  0  0
  5  9  1  0  0  0  0
  5 10  1  0  0  0  0
  6 11  2  0  0  0  0
  7 30  1  0  0  0  0
  7 31  1  0  0  0  0
  8 11  1  0  0  0  0
  9 12  2  0  0  0  0
  9 13  1  0  0  0  0
 10 14  2  0  0  0  0
 10 32  1  0  0  0  0
 11 15  1  0  0  0  0
 12 16  1  0  0  0  0
 12 17  1  0  0  0  0
 13 33  1  0  0  0  0
 13 34  1  0  0  0  0
 13 35  1  0  0  0  0
 15 36  1  0  0  0  0
 15 37  1  0  0  0  0
 15 38  1  0  0  0  0
 16 18  1  0  0  0  0
 17 19  1  0  0  0  0
 17 39  1  0  0  0  0
 17 40  1  0  0  0  0
 18 20  1  0  0  0  0
 19 21  1  0  0  0  0
 19 41  1  0  0  0  0
 19 42  1  0  0  0  0
 20 22  1  0  0  0  0
 20 43  1  0  0  0  0
 20 44  1  0  0  0  0
 21 45  1  0  0  0  0
 22 23  1  0  0  0  0
 22 24  1  0  0  0  0
 22 46  1  0  0  0  0
 23 25  1  0  0  0  0
 23 47  1  0  0  0  0
 23 48  1  0  0  0  0
 24 26  1  0  0  0  0
 25 26  1  0  0  0  0
 25 49  1  0  0  0  0
 25 50  1  0  0  0  0
 26 51  1  0  0  0  0
 26 52  1  0  0  0  0
M  END
>  <DRUGBANK_ID>
DB08966

>  <COMMON_NAME>
Fursultiamine

>  <CAS_NUMBER>
804-30-8

>  <UNII>
05J61265PX

>  <SYNONYMS>
Fursultiamina; Fursultiamine; Fursultiaminum; Thiamin tetrahydrofurfuryl disulfide; Thiamine tetrahydrofurfuryl disulfide; TTFD

$$$$
