
 OpenBabel10282417072D

 69 74  0  0  0  0  0  0  0  0999 V2000
    3.2417    2.7855    0.0000 C   0  0  0  0  0  0  0  0  0  0  0  0
    3.0581    1.9812    0.0000 C   0  0  0  0  0  0  0  0  0  0  0  0
    2.2698    1.7381    0.0000 C   0  0  0  0  0  0  0  0  0  0  0  0
    2.6369    3.3467    0.0000 C   0  0  0  0  0  0  0  0  0  0  0  0
    1.6650    2.2992    0.0000 C   0  0  0  0  0  0  0  0  0  0  0  0
    1.8487    3.1035    0.0000 C   0  0  0  0  0  0  0  0  0  0  0  0
    1.3342    3.7485    0.0000 C   0  0  0  0  0  0  0  0  0  0  0  0
    0.9217    1.9411    0.0000 N   0  0  0  0  0  0  0  0  0  0  0  0
    0.5093    3.7485    0.0000 C   0  0  0  0  0  0  0  0  0  0  0  0
   -0.0051    3.1035    0.0000 C   0  0  0  0  0  0  0  0  0  0  0  0
    0.1785    2.2992    0.0000 C   0  0  0  0  0  0  0  0  0  0  0  0
   -0.4263    1.7381    0.0000 C   0  0  0  0  0  0  0  0  0  0  0  0
   -1.2146    1.9812    0.0000 C   0  0  0  0  0  0  0  0  0  0  0  0
   -1.3982    2.7855    0.0000 C   0  0  0  0  0  0  0  0  0  0  0  0
   -0.7934    3.3467    0.0000 C   0  0  0  0  0  0  0  0  0  0  0  0
   -1.8194    1.4201    0.0000 Cl  0  0  0  0  0  0  0  0  0  0  0  0
    0.9217    1.1161    0.0000 C   0  0  0  0  0  0  0  0  0  0  0  0
    0.2073    0.7036    0.0000 C   0  0  0  0  0  0  0  0  0  0  0  0
    0.2073   -0.1213    0.0000 C   0  0  0  0  0  0  0  0  0  0  0  0
   -0.5071   -0.5337    0.0000 N   0  0  0  0  0  0  0  0  0  0  0  0
   -1.7252   -3.5770    0.0000 C   0  0  0  0  0  0  0  0  0  0  0  0
   -2.5322   -3.7485    0.0000 C   0  0  0  0  0  0  0  0  0  0  0  0
   -3.0842   -3.1353    0.0000 C   0  0  0  0  0  0  0  0  0  0  0  0
   -2.8293   -2.3508    0.0000 C   0  0  3  0  0  0  0  0  0  0  0  0
   -2.0223   -2.1791    0.0000 N   0  0  3  0  0  0  0  0  0  0  0  0
   -1.4703   -2.7922    0.0000 C   0  0  0  0  0  0  0  0  0  0  0  0
   -3.2418   -1.6362    0.0000 N   0  0  0  0  0  0  0  0  0  0  0  0
   -2.6898   -1.0231    0.0000 C   0  0  0  0  0  0  0  0  0  0  0  0
   -1.9361   -1.3587    0.0000 C   0  0  0  0  0  0  0  0  0  0  0  0
   -0.5071   -1.3587    0.0000 C   0  0  0  0  0  0  0  0  0  0  0  0
   -1.2216   -1.7713    0.0000 C   0  0  0  0  0  0  0  0  0  0  0  0
   -1.9361   -0.5337    0.0000 C   0  0  0  0  0  0  0  0  0  0  0  0
   -1.2216   -0.1213    0.0000 C   0  0  0  0  0  0  0  0  0  0  0  0
   -2.8613   -0.2162    0.0000 O   0  0  0  0  0  0  0  0  0  0  0  0
    4.2279    3.0897    0.0000 H   0  0  0  0  0  0  0  0  0  0  0  0
    3.8146    1.2792    0.0000 H   0  0  0  0  0  0  0  0  0  0  0  0
    2.0402    0.7320    0.0000 H   0  0  0  0  0  0  0  0  0  0  0  0
    2.8665    4.3528    0.0000 H   0  0  0  0  0  0  0  0  0  0  0  0
    1.7984    4.7126    0.0000 H   0  0  0  0  0  0  0  0  0  0  0  0
    2.3975    3.8684    0.0000 H   0  0  0  0  0  0  0  0  0  0  0  0
    0.0451    4.7125    0.0000 H   0  0  0  0  0  0  0  0  0  0  0  0
   -0.5540    3.8683    0.0000 H   0  0  0  0  0  0  0  0  0  0  0  0
   -0.1967    0.7320    0.0000 H   0  0  0  0  0  0  0  0  0  0  0  0
   -2.3844    3.0897    0.0000 H   0  0  0  0  0  0  0  0  0  0  0  0
   -1.0230    4.3528    0.0000 H   0  0  0  0  0  0  0  0  0  0  0  0
    1.8484    0.5811    0.0000 H   0  0  0  0  0  0  0  0  0  0  0  0
    0.9217    0.0461    0.0000 H   0  0  0  0  0  0  0  0  0  0  0  0
   -0.7194    1.2386    0.0000 H   0  0  0  0  0  0  0  0  0  0  0  0
   -0.7193    0.1686    0.0000 H   0  0  0  0  0  0  0  0  0  0  0  0
    1.1339   -0.6563    0.0000 H   0  0  0  0  0  0  0  0  0  0  0  0
    0.2073   -1.1913    0.0000 H   0  0  0  0  0  0  0  0  0  0  0  0
   -1.0092   -4.3721    0.0000 H   0  0  0  0  0  0  0  0  0  0  0  0
   -0.6786   -3.3545    0.0000 H   0  0  0  0  0  0  0  0  0  0  0  0
   -2.8629   -4.7661    0.0000 H   0  0  0  0  0  0  0  0  0  0  0  0
   -3.5788   -3.9709    0.0000 H   0  0  0  0  0  0  0  0  0  0  0  0
   -4.1308   -3.3577    0.0000 H   0  0  0  0  0  0  0  0  0  0  0  0
   -3.8001   -2.3401    0.0000 H   0  0  0  0  0  0  0  0  0  0  0  0
   -2.1133   -3.1459    0.0000 H   0  0  0  0  0  0  0  0  0  0  0  0
   -0.4237   -2.5697    0.0000 H   0  0  0  0  0  0  0  0  0  0  0  0
   -1.1397   -1.7746    0.0000 H   0  0  0  0  0  0  0  0  0  0  0  0
   -4.2209   -1.5333    0.0000 H   0  0  0  0  0  0  0  0  0  0  0  0
    0.4196   -1.8937    0.0000 H   0  0  0  0  0  0  0  0  0  0  0  0
    0.4195   -0.8237    0.0000 H   0  0  0  0  0  0  0  0  0  0  0  0
   -1.2216   -2.8413    0.0000 H   0  0  0  0  0  0  0  0  0  0  0  0
   -2.1483   -2.3063    0.0000 H   0  0  0  0  0  0  0  0  0  0  0  0
   -2.8627    0.0014    0.0000 H   0  0  0  0  0  0  0  0  0  0  0  0
   -1.9360    0.5363    0.0000 H   0  0  0  0  0  0  0  0  0  0  0  0
   -1.2216    0.9487    0.0000 H   0  0  0  0  0  0  0  0  0  0  0  0
   -0.2950    0.4138    0.0000 H   0  0  0  0  0  0  0  0  0  0  0  0
  1  2  2  0  0  0  0
  1 35  1  0  0  0  0
  2  3  1  0  0  0  0
  2 36  1  0  0  0  0
  3  5  2  0  0  0  0
  3 37  1  0  0  0  0
  4  1  1  0  0  0  0
  4 38  1  0  0  0  0
  5  8  1  0  0  0  0
  5  6  1  0  0  0  0
  6  4  2  0  0  0  0
  6  7  1  0  0  0  0
  7  9  1  0  0  0  0
  7 39  1  0  0  0  0
  7 40  1  0  0  0  0
  8 17  1  0  0  0  0
  8 11  1  0  0  0  0
  9 10  1  0  0  0  0
  9 41  1  0  0  0  0
  9 42  1  0  0  0  0
 10 11  2  0  0  0  0
 11 12  1  0  0  0  0
 12 13  2  0  0  0  0
 12 43  1  0  0  0  0
 13 16  1  0  0  0  0
 13 14  1  0  0  0  0
 14 15  2  0  0  0  0
 14 44  1  0  0  0  0
 15 10  1  0  0  0  0
 15 45  1  0  0  0  0
 17 18  1  0  0  0  0
 17 46  1  0  0  0  0
 17 47  1  0  0  0  0
 18 19  1  0  0  0  0
 18 48  1  0  0  0  0
 18 49  1  0  0  0  0
 19 20  1  0  0  0  0
 19 50  1  0  0  0  0
 19 51  1  0  0  0  0
 21 22  1  0  0  0  0
 21 26  1  0  0  0  0
 21 52  1  0  0  0  0
 21 53  1  0  0  0  0
 22 23  1  0  0  0  0
 22 54  1  0  0  0  0
 22 55  1  0  0  0  0
 23 24  1  0  0  0  0
 23 56  1  0  0  0  0
 23 57  1  0  0  0  0
 24 25  1  0  0  0  0
 24 27  1  0  0  0  0
 24 58  1  0  0  0  0
 25 26  1  0  0  0  0
 26 59  1  0  0  0  0
 26 60  1  0  0  0  0
 27 28  1  0  0  0  0
 27 61  1  0  0  0  0
 28 29  1  0  0  0  0
 28 34  2  0  0  0  0
 29 25  1  0  0  0  0
 29 32  1  0  0  0  0
 30 31  1  0  0  0  0
 30 20  1  0  0  0  0
 30 62  1  0  0  0  0
 30 63  1  0  0  0  0
 31 29  1  0  0  0  0
 31 64  1  0  0  0  0
 31 65  1  0  0  0  0
 32 33  1  0  0  0  0
 32 66  1  0  0  0  0
 32 67  1  0  0  0  0
 33 20  1  0  0  0  0
 33 68  1  0  0  0  0
 33 69  1  0  0  0  0
M  END
>  <DRUGBANK_ID>
DB13676

>  <COMMON_NAME>
Mosapramine

>  <CAS_NUMBER>
89419-40-9

>  <UNII>
04UZQ7O9SJ

>  <SYNONYMS>
Mosapramine

$$$$
