320
 OpenBabel10282417072D

 47 50  0  0  0  0  0  0  0  0999 V2000
   -6.0303   -0.9389    0.0000 F   0  0  0  0  0  0  0  0  0  0  0  0
   -5.3159   -0.5264    0.0000 C   0  0  0  0  0  0  0  0  0  0  0  0
   -5.3159    0.2986    0.0000 C   0  0  0  0  0  0  0  0  0  0  0  0
   -4.6014    0.7111    0.0000 C   0  0  0  0  0  0  0  0  0  0  0  0
   -4.6014   -0.9389    0.0000 C   0  0  0  0  0  0  0  0  0  0  0  0
   -3.8869   -0.5264    0.0000 C   0  0  0  0  0  0  0  0  0  0  0  0
   -3.8869    0.2986    0.0000 C   0  0  0  0  0  0  0  0  0  0  0  0
   -3.1725    0.7111    0.0000 C   0  0  0  0  0  0  0  0  0  0  0  0
   -2.4580    0.2986    0.0000 C   0  0  0  0  0  0  0  0  0  0  0  0
   -2.4580   -0.5264    0.0000 O   0  0  0  0  0  0  0  0  0  0  0  0
   -1.7435    0.7111    0.0000 N   0  0  0  0  0  0  0  0  0  0  0  0
   -1.0290    0.2986    0.0000 C   0  0  0  0  0  0  0  0  0  0  0  0
   -1.0290   -0.5264    0.0000 O   0  0  0  0  0  0  0  0  0  0  0  0
   -0.3146    0.7111    0.0000 N   0  0  0  0  0  0  0  0  0  0  0  0
    0.3999    0.2986    0.0000 C   0  0  0  0  0  0  0  0  0  0  0  0
    1.1144    0.7111    0.0000 C   0  0  0  0  0  0  0  0  0  0  0  0
    1.8288    0.2986    0.0000 C   0  0  0  0  0  0  0  0  0  0  0  0
    2.5433    0.7111    0.0000 F   0  0  0  0  0  0  0  0  0  0  0  0
    0.3999   -0.5264    0.0000 C   0  0  0  0  0  0  0  0  0  0  0  0
    1.1144   -0.9389    0.0000 C   0  0  0  0  0  0  0  0  0  0  0  0
    1.8288   -0.5264    0.0000 C   0  0  0  0  0  0  0  0  0  0  0  0
    2.5433   -0.9389    0.0000 O   0  0  0  0  0  0  0  0  0  0  0  0
    3.2578   -0.5264    0.0000 C   0  0  0  0  0  0  0  0  0  0  0  0
    3.2578    0.2986    0.0000 C   0  0  0  0  0  0  0  0  0  0  0  0
    3.9722    0.7111    0.0000 C   0  0  0  0  0  0  0  0  0  0  0  0
    4.6867    0.2986    0.0000 N   0  0  0  0  0  0  0  0  0  0  0  0
    4.6867   -0.5264    0.0000 C   0  0  0  0  0  0  0  0  0  0  0  0
    3.9722   -0.9389    0.0000 C   0  0  0  0  0  0  0  0  0  0  0  0
    5.2998   -1.0785    0.0000 N   0  0  0  0  0  0  0  0  0  0  0  0
    4.9643   -1.8321    0.0000 C   0  0  0  0  0  0  0  0  0  0  0  0
    4.1438   -1.7459    0.0000 C   0  0  0  0  0  0  0  0  0  0  0  0
   -6.2096    0.8146    0.0000 H   0  0  0  0  0  0  0  0  0  0  0  0
   -4.6014    1.7431    0.0000 H   0  0  0  0  0  0  0  0  0  0  0  0
   -4.6014   -1.9709    0.0000 H   0  0  0  0  0  0  0  0  0  0  0  0
   -2.9932   -1.0424    0.0000 H   0  0  0  0  0  0  0  0  0  0  0  0
   -3.1725    1.7811    0.0000 H   0  0  0  0  0  0  0  0  0  0  0  0
   -2.2459    1.2461    0.0000 H   0  0  0  0  0  0  0  0  0  0  0  0
   -1.7435    1.6956    0.0000 H   0  0  0  0  0  0  0  0  0  0  0  0
   -0.3146    1.6956    0.0000 H   0  0  0  0  0  0  0  0  0  0  0  0
    1.1144    1.7431    0.0000 H   0  0  0  0  0  0  0  0  0  0  0  0
   -0.4938   -1.0424    0.0000 H   0  0  0  0  0  0  0  0  0  0  0  0
    1.1144   -1.9709    0.0000 H   0  0  0  0  0  0  0  0  0  0  0  0
    2.3641    0.8146    0.0000 H   0  0  0  0  0  0  0  0  0  0  0  0
    3.9722    1.7431    0.0000 H   0  0  0  0  0  0  0  0  0  0  0  0
    6.2628   -0.8738    0.0000 H   0  0  0  0  0  0  0  0  0  0  0  0
    5.4803   -2.7258    0.0000 H   0  0  0  0  0  0  0  0  0  0  0  0
    3.4533   -2.5129    0.0000 H   0  0  0  0  0  0  0  0  0  0  0  0
  1  2  1  0  0  0  0
  2  3  2  0  0  0  0
  2  5  1  0  0  0  0
  3  4  1  0  0  0  0
  3 32  1  0  0  0  0
  4  7  2  0  0  0  0
  4 33  1  0  0  0  0
  5  6  2  0  0  0  0
  5 34  1  0  0  0  0
  6  7  1  0  0  0  0
  6 35  1  0  0  0  0
  7  8  1  0  0  0  0
  8  9  1  0  0  0  0
  8 36  1  0  0  0  0
  8 37  1  0  0  0  0
  9 10  2  0  0  0  0
  9 11  1  0  0  0  0
 11 12  1  0  0  0  0
 11 38  1  0  0  0  0
 12 13  2  0  0  0  0
 12 14  1  0  0  0  0
 14 15  1  0  0  0  0
 14 39  1  0  0  0  0
 15 16  2  0  0  0  0
 15 19  1  0  0  0  0
 16 17  1  0  0  0  0
 16 40  1  0  0  0  0
 17 18  1  0  0  0  0
 17 21  2  0  0  0  0
 19 20  2  0  0  0  0
 19 41  1  0  0  0  0
 20 21  1  0  0  0  0
 20 42  1  0  0  0  0
 21 22  1  0  0  0  0
 22 23  1  0  0  0  0
 23 24  2  0  0  0  0
 23 28  1  0  0  0  0
 24 25  1  0  0  0  0
 24 43  1  0  0  0  0
 25 26  2  0  0  0  0
 25 44  1  0  0  0  0
 26 27  1  0  0  0  0
 27 28  2  0  0  0  0
 27 29  1  0  0  0  0
 28 31  1  0  0  0  0
 29 30  1  0  0  0  0
 29 45  1  0  0  0  0
 30 31  2  0  0  0  0
 30 46  1  0  0  0  0
 31 47  1  0  0  0  0
M  END
>  <DRUGBANK_ID>
DB06997

>  <COMMON_NAME>
2-(4-fluorophenyl)-N-{[3-fluoro-4-(1H-pyrrolo[2,3-b]pyridin-4-yloxy)phenyl]carbamoyl}acetamide

$$$$
