NGH
 OpenBabel10282417072D

 41 41  0  0  0  0  0  0  0  0999 V2000
    0.1931   -1.7069    0.0000 C   0  0  0  0  0  0  0  0  0  0  0  0
   -0.2194   -2.4214    0.0000 C   0  0  0  0  0  0  0  0  0  0  0  0
   -1.0445   -2.4214    0.0000 C   0  0  0  0  0  0  0  0  0  0  0  0
   -1.4570   -1.7069    0.0000 C   0  0  0  0  0  0  0  0  0  0  0  0
   -1.0445   -0.9924    0.0000 C   0  0  0  0  0  0  0  0  0  0  0  0
   -0.2194   -0.9924    0.0000 C   0  0  0  0  0  0  0  0  0  0  0  0
   -1.4570   -3.1359    0.0000 O   0  0  0  0  0  0  0  0  0  0  0  0
   -2.2821   -3.1359    0.0000 C   0  0  0  0  0  0  0  0  0  0  0  0
    0.1931   -0.2778    0.0000 S   0  0  0  0  0  0  0  0  0  0  0  0
    0.9077   -0.6904    0.0000 O   0  0  0  0  0  0  0  0  0  0  0  0
   -0.5213    0.1347    0.0000 O   0  0  0  0  0  0  0  0  0  0  0  0
    0.6056    0.4367    0.0000 N   0  0  0  0  0  0  0  0  0  0  0  0
    0.1931    1.1512    0.0000 C   0  0  0  0  0  0  0  0  0  0  0  0
    1.4307    0.4367    0.0000 C   0  0  0  0  0  0  0  0  0  0  0  0
    1.8432    1.1512    0.0000 C   0  0  0  0  0  0  0  0  0  0  0  0
    2.6683    1.1512    0.0000 N   0  0  0  0  0  0  0  0  0  0  0  0
    3.0808    1.8657    0.0000 O   0  0  0  0  0  0  0  0  0  0  0  0
    1.4307    1.8657    0.0000 O   0  0  0  0  0  0  0  0  0  0  0  0
   -0.6319    1.1512    0.0000 C   0  0  0  0  0  0  0  0  0  0  0  0
   -1.0445    0.4367    0.0000 C   0  0  0  0  0  0  0  0  0  0  0  0
   -1.0445    1.8657    0.0000 C   0  0  0  0  0  0  0  0  0  0  0  0
    1.2251   -1.7069    0.0000 H   0  0  0  0  0  0  0  0  0  0  0  0
    0.2966   -3.3151    0.0000 H   0  0  0  0  0  0  0  0  0  0  0  0
   -2.4890   -1.7069    0.0000 H   0  0  0  0  0  0  0  0  0  0  0  0
   -1.5605   -0.0987    0.0000 H   0  0  0  0  0  0  0  0  0  0  0  0
   -2.8171   -2.2093    0.0000 H   0  0  0  0  0  0  0  0  0  0  0  0
   -2.8171   -4.0625    0.0000 H   0  0  0  0  0  0  0  0  0  0  0  0
   -3.3521   -3.1359    0.0000 H   0  0  0  0  0  0  0  0  0  0  0  0
    0.7281    2.0778    0.0000 H   0  0  0  0  0  0  0  0  0  0  0  0
   -0.3419    2.0778    0.0000 H   0  0  0  0  0  0  0  0  0  0  0  0
    1.9657   -0.4899    0.0000 H   0  0  0  0  0  0  0  0  0  0  0  0
    2.5007    0.4367    0.0000 H   0  0  0  0  0  0  0  0  0  0  0  0
    3.1606    0.2986    0.0000 H   0  0  0  0  0  0  0  0  0  0  0  0
    4.0508    1.8657    0.0000 H   0  0  0  0  0  0  0  0  0  0  0  0
   -1.7019    1.1512    0.0000 H   0  0  0  0  0  0  0  0  0  0  0  0
   -2.1145    0.4368    0.0000 H   0  0  0  0  0  0  0  0  0  0  0  0
   -0.5096   -0.4900    0.0000 H   0  0  0  0  0  0  0  0  0  0  0  0
   -1.5796   -0.4899    0.0000 H   0  0  0  0  0  0  0  0  0  0  0  0
   -0.5096    2.7924    0.0000 H   0  0  0  0  0  0  0  0  0  0  0  0
   -2.1145    1.8656    0.0000 H   0  0  0  0  0  0  0  0  0  0  0  0
   -1.5796    2.7923    0.0000 H   0  0  0  0  0  0  0  0  0  0  0  0
  1  2  2  0  0  0  0
  1  6  1  0  0  0  0
  1 22  1  0  0  0  0
  2  3  1  0  0  0  0
  2 23  1  0  0  0  0
  3  4  2  0  0  0  0
  3  7  1  0  0  0  0
  4  5  1  0  0  0  0
  4 24  1  0  0  0  0
  5  6  2  0  0  0  0
  5 25  1  0  0  0  0
  6  9  1  0  0  0  0
  7  8  1  0  0  0  0
  8 26  1  0  0  0  0
  8 27  1  0  0  0  0
  8 28  1  0  0  0  0
  9 10  2  0  0  0  0
  9 11  2  0  0  0  0
  9 12  1  0  0  0  0
 12 13  1  0  0  0  0
 12 14  1  0  0  0  0
 13 19  1  0  0  0  0
 13 29  1  0  0  0  0
 13 30  1  0  0  0  0
 14 15  1  0  0  0  0
 14 31  1  0  0  0  0
 14 32  1  0  0  0  0
 15 16  1  0  0  0  0
 15 18  2  0  0  0  0
 16 17  1  0  0  0  0
 16 33  1  0  0  0  0
 17 34  1  0  0  0  0
 19 20  1  0  0  0  0
 19 21  1  0  0  0  0
 19 35  1  0  0  0  0
 20 36  1  0  0  0  0
 20 37  1  0  0  0  0
 20 38  1  0  0  0  0
 21 39  1  0  0  0  0
 21 40  1  0  0  0  0
 21 41  1  0  0  0  0
M  END
>  <DRUGBANK_ID>
DB08271

>  <COMMON_NAME>
N-ISOBUTYL-N-[4-METHOXYPHENYLSULFONYL]GLYCYL HYDROXAMIC ACID

>  <UNII>
9P3H27MP46

$$$$
