CA2
 OpenBabel10282417072D

 44 45  0  0  0  0  0  0  0  0999 V2000
   -2.8760   -0.0339    0.0000 O   0  0  0  0  0  0  0  0  0  0  0  0
   -2.5938   -0.8092    0.0000 C   0  0  0  0  0  0  0  0  0  0  0  0
   -3.1241   -1.4412    0.0000 O   0  0  0  0  0  0  0  0  0  0  0  0
   -1.7814   -0.9524    0.0000 C   0  0  2  0  0  0  0  0  0  0  0  0
   -2.0635   -1.7277    0.0000 O   0  0  0  0  0  0  0  0  0  0  0  0
   -1.7814   -0.1274    0.0000 C   0  0  0  0  0  0  0  0  0  0  0  0
   -1.0669    0.2851    0.0000 C   0  0  1  0  0  0  0  0  0  0  0  0
   -0.3524   -0.1274    0.0000 C   0  0  1  0  0  0  0  0  0  0  0  0
    0.3620    0.2851    0.0000 O   0  0  0  0  0  0  0  0  0  0  0  0
   -0.3524   -0.9524    0.0000 C   0  0  2  0  0  0  0  0  0  0  0  0
    0.3620   -1.3649    0.0000 O   0  0  0  0  0  0  0  0  0  0  0  0
   -1.0669   -1.3649    0.0000 C   0  0  0  0  0  0  0  0  0  0  0  0
   -1.0669    1.1101    0.0000 C   0  0  0  0  0  0  0  0  0  0  0  0
   -0.3524    1.5226    0.0000 C   0  0  0  0  0  0  0  0  0  0  0  0
    0.3620    1.1101    0.0000 C   0  0  0  0  0  0  0  0  0  0  0  0
    1.0765    1.5226    0.0000 O   0  0  0  0  0  0  0  0  0  0  0  0
    1.7910    1.1101    0.0000 C   0  0  0  0  0  0  0  0  0  0  0  0
    2.5054    1.5226    0.0000 C   0  0  0  0  0  0  0  0  0  0  0  0
    3.2199    1.1101    0.0000 C   0  0  0  0  0  0  0  0  0  0  0  0
    3.2199    0.2851    0.0000 C   0  0  0  0  0  0  0  0  0  0  0  0
    2.5054   -0.1274    0.0000 C   0  0  0  0  0  0  0  0  0  0  0  0
    1.7910    0.2851    0.0000 C   0  0  0  0  0  0  0  0  0  0  0  0
   -1.5726    0.5770    0.0000 H   0  0  0  0  0  0  0  0  0  0  0  0
   -0.3524    0.4565    0.0000 H   0  0  0  0  0  0  0  0  0  0  0  0
    0.1533   -0.6605    0.0000 H   0  0  0  0  0  0  0  0  0  0  0  0
   -4.0469   -1.2785    0.0000 H   0  0  0  0  0  0  0  0  0  0  0  0
   -3.0187   -1.8962    0.0000 H   0  0  0  0  0  0  0  0  0  0  0  0
   -2.7080    0.4076    0.0000 H   0  0  0  0  0  0  0  0  0  0  0  0
   -1.7814    0.9426    0.0000 H   0  0  0  0  0  0  0  0  0  0  0  0
    1.2021   -0.1999    0.0000 H   0  0  0  0  0  0  0  0  0  0  0  0
    0.3620   -2.3349    0.0000 H   0  0  0  0  0  0  0  0  0  0  0  0
   -1.0669   -2.4349    0.0000 H   0  0  0  0  0  0  0  0  0  0  0  0
   -0.1403   -1.8999    0.0000 H   0  0  0  0  0  0  0  0  0  0  0  0
   -1.9935    1.6451    0.0000 H   0  0  0  0  0  0  0  0  0  0  0  0
   -1.0669    2.1801    0.0000 H   0  0  0  0  0  0  0  0  0  0  0  0
   -0.3524    2.5926    0.0000 H   0  0  0  0  0  0  0  0  0  0  0  0
    0.5743    2.0576    0.0000 H   0  0  0  0  0  0  0  0  0  0  0  0
    0.3620    0.0401    0.0000 H   0  0  0  0  0  0  0  0  0  0  0  0
    1.2886    0.5751    0.0000 H   0  0  0  0  0  0  0  0  0  0  0  0
    2.5054    2.5546    0.0000 H   0  0  0  0  0  0  0  0  0  0  0  0
    4.1136    1.6261    0.0000 H   0  0  0  0  0  0  0  0  0  0  0  0
    4.1136   -0.2309    0.0000 H   0  0  0  0  0  0  0  0  0  0  0  0
    2.5054   -1.1594    0.0000 H   0  0  0  0  0  0  0  0  0  0  0  0
    0.8973   -0.2309    0.0000 H   0  0  0  0  0  0  0  0  0  0  0  0
  1  2  2  0  0  0  0
  2  3  1  0  0  0  0
  3 26  1  0  0  0  0
  4  2  1  6  0  0  0
  4  5  1  0  0  0  0
  4  6  1  0  0  0  0
  4 12  1  0  0  0  0
  5 27  1  0  0  0  0
  6  7  1  0  0  0  0
  6 28  1  0  0  0  0
  6 29  1  0  0  0  0
  7  8  1  0  0  0  0
  7 13  1  0  0  0  0
  7 23  1  1  0  0  0
  8  9  1  0  0  0  0
  8 10  1  0  0  0  0
  8 24  1  6  0  0  0
  9 30  1  0  0  0  0
 10 11  1  0  0  0  0
 10 12  1  0  0  0  0
 10 25  1  1  0  0  0
 11 31  1  0  0  0  0
 12 32  1  0  0  0  0
 12 33  1  0  0  0  0
 13 14  1  0  0  0  0
 13 34  1  0  0  0  0
 13 35  1  0  0  0  0
 14 15  1  0  0  0  0
 14 36  1  0  0  0  0
 14 37  1  0  0  0  0
 15 16  1  0  0  0  0
 15 38  1  0  0  0  0
 15 39  1  0  0  0  0
 16 17  1  0  0  0  0
 17 18  2  0  0  0  0
 17 22  1  0  0  0  0
 18 19  1  0  0  0  0
 18 40  1  0  0  0  0
 19 20  2  0  0  0  0
 19 41  1  0  0  0  0
 20 21  1  0  0  0  0
 20 42  1  0  0  0  0
 21 22  2  0  0  0  0
 21 43  1  0  0  0  0
 22 44  1  0  0  0  0
M  END
>  <DRUGBANK_ID>
DB04656

>  <COMMON_NAME>
1,3,4-TRIHYDROXY-5-(3-PHENOXYPROPYL)-CYCLOHEXANE-1-CARBOXYLIC A CID

$$$$
