OWL
 OpenBabel10282417072D

 42 45  0  0  0  0  0  0  0  0999 V2000
   -1.2541    2.0136    0.0000 C   0  0  0  0  0  0  0  0  0  0  0  0
   -1.2541    0.3636    0.0000 C   0  0  0  0  0  0  0  0  0  0  0  0
   -0.5396    1.6011    0.0000 C   0  0  0  0  0  0  0  0  0  0  0  0
   -1.9686    1.6011    0.0000 C   0  0  0  0  0  0  0  0  0  0  0  0
   -1.9686    0.7761    0.0000 C   0  0  0  0  0  0  0  0  0  0  0  0
   -0.5396    0.7761    0.0000 C   0  0  0  0  0  0  0  0  0  0  0  0
    0.1748   -0.4614    0.0000 C   0  0  0  0  0  0  0  0  0  0  0  0
    0.1748   -2.1114    0.0000 C   0  0  0  0  0  0  0  0  0  0  0  0
   -0.5396   -0.8739    0.0000 C   0  0  0  0  0  0  0  0  0  0  0  0
    0.8893   -0.8739    0.0000 C   0  0  0  0  0  0  0  0  0  0  0  0
    0.8893   -1.6989    0.0000 C   0  0  0  0  0  0  0  0  0  0  0  0
   -0.5396   -1.6989    0.0000 C   0  0  0  0  0  0  0  0  0  0  0  0
   -1.2541   -0.4614    0.0000 N   0  0  0  0  0  0  0  0  0  0  0  0
    1.6038   -2.9364    0.0000 C   0  0  0  0  0  0  0  0  0  0  0  0
    0.9363   -3.4214    0.0000 N   0  0  0  0  0  0  0  0  0  0  0  0
    2.2712   -3.4214    0.0000 N   0  0  0  0  0  0  0  0  0  0  0  0
   -0.5396    3.2511    0.0000 C   0  0  0  0  0  0  0  0  0  0  0  0
   -0.4534    4.0715    0.0000 N   0  0  0  0  0  0  0  0  0  0  0  0
    0.2140    2.9155    0.0000 N   0  0  0  0  0  0  0  0  0  0  0  0
   -1.2541    2.8386    0.0000 N   0  0  0  0  0  0  0  0  0  0  0  0
    1.6038   -2.1114    0.0000 N   0  0  0  0  0  0  0  0  0  0  0  0
    1.1913   -4.2060    0.0000 C   0  0  0  0  0  0  0  0  0  0  0  0
    2.0163   -4.2060    0.0000 C   0  0  0  0  0  0  0  0  0  0  0  0
    0.3536    4.2431    0.0000 C   0  0  0  0  0  0  0  0  0  0  0  0
    0.7661    3.5286    0.0000 C   0  0  0  0  0  0  0  0  0  0  0  0
    0.3541    2.1171    0.0000 H   0  0  0  0  0  0  0  0  0  0  0  0
   -2.8623    2.1171    0.0000 H   0  0  0  0  0  0  0  0  0  0  0  0
   -2.8623    0.2601    0.0000 H   0  0  0  0  0  0  0  0  0  0  0  0
    0.3541    0.2601    0.0000 H   0  0  0  0  0  0  0  0  0  0  0  0
    0.1748    0.5706    0.0000 H   0  0  0  0  0  0  0  0  0  0  0  0
    0.1748   -3.1434    0.0000 H   0  0  0  0  0  0  0  0  0  0  0  0
    1.7830   -0.3579    0.0000 H   0  0  0  0  0  0  0  0  0  0  0  0
   -1.4333   -2.2149    0.0000 H   0  0  0  0  0  0  0  0  0  0  0  0
   -2.1067   -0.9537    0.0000 H   0  0  0  0  0  0  0  0  0  0  0  0
   -0.0000   -3.1172    0.0000 H   0  0  0  0  0  0  0  0  0  0  0  0
   -1.1851    4.7302    0.0000 H   0  0  0  0  0  0  0  0  0  0  0  0
   -2.1067    3.3309    0.0000 H   0  0  0  0  0  0  0  0  0  0  0  0
    2.4564   -1.6191    0.0000 H   0  0  0  0  0  0  0  0  0  0  0  0
    0.5847   -5.0409    0.0000 H   0  0  0  0  0  0  0  0  0  0  0  0
    2.6229   -5.0409    0.0000 H   0  0  0  0  0  0  0  0  0  0  0  0
    0.7733    5.1859    0.0000 H   0  0  0  0  0  0  0  0  0  0  0  0
    1.7924    3.4207    0.0000 H   0  0  0  0  0  0  0  0  0  0  0  0
  1  3  1  0  0  0  0
  2 13  1  0  0  0  0
  3  6  2  0  0  0  0
  3 26  1  0  0  0  0
  4  1  2  0  0  0  0
  4  5  1  0  0  0  0
  4 27  1  0  0  0  0
  5  2  2  0  0  0  0
  5 28  1  0  0  0  0
  6  2  1  0  0  0  0
  6 29  1  0  0  0  0
  7 10  1  0  0  0  0
  7 30  1  0  0  0  0
  8 11  1  0  0  0  0
  8 31  1  0  0  0  0
  9  7  2  0  0  0  0
  9 12  1  0  0  0  0
 10 11  2  0  0  0  0
 10 32  1  0  0  0  0
 11 21  1  0  0  0  0
 12  8  2  0  0  0  0
 12 33  1  0  0  0  0
 13  9  1  0  0  0  0
 13 34  1  0  0  0  0
 14 16  2  0  0  0  0
 15 14  1  0  0  0  0
 15 22  1  0  0  0  0
 15 35  1  0  0  0  0
 16 23  1  0  0  0  0
 17 18  1  0  0  0  0
 18 36  1  0  0  0  0
 19 17  2  0  0  0  0
 19 25  1  0  0  0  0
 20  1  1  0  0  0  0
 20 17  1  0  0  0  0
 20 37  1  0  0  0  0
 21 14  1  0  0  0  0
 21 38  1  0  0  0  0
 22 23  2  0  0  0  0
 22 39  1  0  0  0  0
 23 40  1  0  0  0  0
 24 18  1  0  0  0  0
 24 41  1  0  0  0  0
 25 24  2  0  0  0  0
 25 42  1  0  0  0  0
M  END
>  <DRUGBANK_ID>
DB08331

>  <COMMON_NAME>
N-1H-imidazol-2-yl-N'-[4-(1H-imidazol-2-ylamino)phenyl]benzene-1,4-diamine

$$$$
