
 OpenBabel10282417072D

 33 34  0  0  0  0  0  0  0  0999 V2000
   -2.1434    8.6625    0.0000 C   0  0  0  0  0  0  0  0  0  0  0  0
   -3.5724    6.1875    0.0000 C   0  0  0  0  0  0  0  0  0  0  0  0
    0.0000    3.3000    0.0000 C   0  0  0  0  0  0  0  0  0  0  0  0
   -1.4289    3.3000    0.0000 C   0  0  0  0  0  0  0  0  0  0  0  0
    0.0000    4.1250    0.0000 C   0  0  0  0  0  0  0  0  0  0  0  0
   -1.4289    4.1250    0.0000 C   0  0  0  0  0  0  0  0  0  0  0  0
   -1.4289    7.4250    0.0000 C   0  0  0  0  0  0  0  0  0  0  0  0
   -2.1434    7.8375    0.0000 C   0  0  0  0  0  0  0  0  0  0  0  0
   -2.8579    6.6000    0.0000 C   0  0  0  0  0  0  0  0  0  0  0  0
   -0.7145    2.8875    0.0000 C   0  0  0  0  0  0  0  0  0  0  0  0
   -0.7145    4.5375    0.0000 C   0  0  0  0  0  0  0  0  0  0  0  0
   -1.4289    6.6000    0.0000 C   0  0  0  0  0  0  0  0  0  0  0  0
   -0.7145    2.0625    0.0000 N   0  0  0  0  0  0  0  0  0  0  0  0
   -2.8579    7.4250    0.0000 N   0  0  0  0  0  0  0  0  0  0  0  0
   -2.1434    6.1875    0.0000 N   0  0  0  0  0  0  0  0  0  0  0  0
   -0.7145    6.1875    0.0000 N   0  0  0  0  0  0  0  0  0  0  0  0
   -1.5395    5.3625    0.0000 O   0  0  0  0  0  0  0  0  0  0  0  0
    0.1105    5.3625    0.0000 O   0  0  0  0  0  0  0  0  0  0  0  0
   -0.7145    5.3625    0.0000 S   0  0  0  0  0  0  0  0  0  0  0  0
   -1.2168    9.1975    0.0000 H   0  0  0  0  0  0  0  0  0  0  0  0
   -3.0700    9.1975    0.0000 H   0  0  0  0  0  0  0  0  0  0  0  0
   -2.1434    9.7325    0.0000 H   0  0  0  0  0  0  0  0  0  0  0  0
   -4.4990    6.7225    0.0000 H   0  0  0  0  0  0  0  0  0  0  0  0
   -3.5724    5.1175    0.0000 H   0  0  0  0  0  0  0  0  0  0  0  0
   -4.4991    5.6525    0.0000 H   0  0  0  0  0  0  0  0  0  0  0  0
    0.8937    2.7840    0.0000 H   0  0  0  0  0  0  0  0  0  0  0  0
   -2.3226    2.7840    0.0000 H   0  0  0  0  0  0  0  0  0  0  0  0
    0.8937    4.6410    0.0000 H   0  0  0  0  0  0  0  0  0  0  0  0
   -2.3226    4.6410    0.0000 H   0  0  0  0  0  0  0  0  0  0  0  0
   -0.5352    7.9410    0.0000 H   0  0  0  0  0  0  0  0  0  0  0  0
   -1.5671    1.5702    0.0000 H   0  0  0  0  0  0  0  0  0  0  0  0
    0.1381    1.5703    0.0000 H   0  0  0  0  0  0  0  0  0  0  0  0
    0.1381    6.6797    0.0000 H   0  0  0  0  0  0  0  0  0  0  0  0
  1 20  1  0  0  0  0
  1 21  1  0  0  0  0
  1 22  1  0  0  0  0
  2 23  1  0  0  0  0
  2 24  1  0  0  0  0
  2 25  1  0  0  0  0
  3 26  1  0  0  0  0
  4 27  1  0  0  0  0
  5  3  1  0  0  0  0
  5 28  1  0  0  0  0
  6  4  2  0  0  0  0
  6 29  1  0  0  0  0
  7 30  1  0  0  0  0
  8  1  1  0  0  0  0
  8  7  2  0  0  0  0
  9  2  1  0  0  0  0
 10  3  2  0  0  0  0
 10  4  1  0  0  0  0
 11  5  2  0  0  0  0
 11  6  1  0  0  0  0
 12  7  1  0  0  0  0
 13 10  1  0  0  0  0
 13 31  1  0  0  0  0
 13 32  1  0  0  0  0
 14  8  1  0  0  0  0
 14  9  2  0  0  0  0
 15  9  1  0  0  0  0
 15 12  2  0  0  0  0
 16 12  1  0  0  0  0
 16 33  1  0  0  0  0
 19 11  1  0  0  0  0
 19 16  1  0  0  0  0
 19 17  2  0  0  0  0
 19 18  2  0  0  0  0
M  END
>  <DRUGBANK_ID>
DB13283

>  <COMMON_NAME>
Sulfaisodimidine

>  <CAS_NUMBER>
515-64-0

>  <UNII>
W03L3ODK6E

>  <SYNONYMS>
solfisomidina; Sulfisomidine

$$$$
