
 OpenBabel10282417072D

 14 13  0  0  0  0  0  0  0  0999 V2000
    2.0625    0.7145    0.0000 C   0  0  0  0  0  0  0  0  0  0  0  0
    1.2375    0.7145    0.0000 C   0  0  0  0  0  0  0  0  0  0  0  0
    0.8250    1.4289    0.0000 C   0  0  0  0  0  0  0  0  0  0  0  0
    1.2375    2.1434    0.0000 O   0  0  0  0  0  0  0  0  0  0  0  0
    0.0000    1.4289    0.0000 O   0  0  0  0  0  0  0  0  0  0  0  0
    0.8250    0.0000    0.0000 C   0  0  0  0  0  0  0  0  0  0  0  0
    1.2375   -0.7145    0.0000 O   0  0  0  0  0  0  0  0  0  0  0  0
    0.0000    0.0000    0.0000 O   0  0  0  0  0  0  0  0  0  0  0  0
    2.5975   -0.2121    0.0000 H   0  0  0  0  0  0  0  0  0  0  0  0
    2.5975    1.6411    0.0000 H   0  0  0  0  0  0  0  0  0  0  0  0
    3.1325    0.7145    0.0000 H   0  0  0  0  0  0  0  0  0  0  0  0
    0.1675    0.7145    0.0000 H   0  0  0  0  0  0  0  0  0  0  0  0
    2.1745    2.1434    0.0000 H   0  0  0  0  0  0  0  0  0  0  0  0
    0.7690   -1.5260    0.0000 H   0  0  0  0  0  0  0  0  0  0  0  0
  1  2  1  0  0  0  0
  1  9  1  0  0  0  0
  1 10  1  0  0  0  0
  1 11  1  0  0  0  0
  2  3  1  0  0  0  0
  2  6  1  0  0  0  0
  2 12  1  0  0  0  0
  3  4  1  0  0  0  0
  3  5  2  0  0  0  0
  4 13  1  0  0  0  0
  6  7  1  0  0  0  0
  6  8  2  0  0  0  0
  7 14  1  0  0  0  0
M  END
>  <DRUGBANK_ID>
DB04183

>  <SECONDARY_ACCESSION_NUMBERS>
EXPT01309

>  <COMMON_NAME>
Methylmalonic Acid

>  <CAS_NUMBER>
516-05-2

>  <UNII>
8LL8S712J7

$$$$
