
 OpenBabel10282417072D

 68 72  0  0  1  0  0  0  0  0999 V2000
    0.0768   -2.3215    0.0000 C   0  0  0  0  0  0  0  0  0  0  0  0
    0.8838   -2.1500    0.0000 O   0  0  0  0  0  0  0  0  0  0  0  0
    1.1387   -1.3654    0.0000 C   0  0  0  0  0  0  0  0  0  0  0  0
    0.6538   -0.6979    0.0000 N   0  0  0  0  0  0  0  0  0  0  0  0
    1.1387   -0.0305    0.0000 N   0  0  0  0  0  0  0  0  0  0  0  0
    1.9233   -0.2854    0.0000 C   0  0  0  0  0  0  0  0  0  0  0  0
    2.6378    0.1271    0.0000 C   0  0  0  0  0  0  0  0  0  0  0  0
    3.3523   -0.2854    0.0000 C   0  0  0  0  0  0  0  0  0  0  0  0
    3.3523   -1.1104    0.0000 C   0  0  0  0  0  0  0  0  0  0  0  0
    2.6378   -1.5229    0.0000 N   0  0  0  0  0  0  0  0  0  0  0  0
    1.9233   -1.1104    0.0000 N   0  0  0  0  0  0  0  0  0  0  0  0
    4.0668   -1.5229    0.0000 N   0  0  0  0  0  0  0  0  0  0  0  0
    4.7812   -1.1104    0.0000 C   0  0  0  0  0  0  0  0  0  0  0  0
    5.4957   -1.5229    0.0000 C   0  0  0  0  0  0  0  0  0  0  0  0
    5.4957   -2.3479    0.0000 C   0  0  0  0  0  0  0  0  0  0  0  0
    4.7812   -2.7604    0.0000 C   0  0  0  0  0  0  0  0  0  0  0  0
    4.0668   -2.3479    0.0000 C   0  0  0  0  0  0  0  0  0  0  0  0
    6.2102   -2.7604    0.0000 C   0  0  0  0  0  0  0  0  0  0  0  0
    6.9246   -2.3479    0.0000 C   0  0  0  0  0  0  0  0  0  0  0  0
    7.6391   -2.7604    0.0000 C   0  0  0  0  0  0  0  0  0  0  0  0
    7.6391   -3.5854    0.0000 C   0  0  0  0  0  0  0  0  0  0  0  0
    8.3536   -3.9979    0.0000 O   0  0  0  0  0  0  0  0  0  0  0  0
    8.3536   -4.8229    0.0000 C   0  0  0  0  0  0  0  0  0  0  0  0
    9.0681   -5.2354    0.0000 C   0  0  0  0  0  0  0  0  0  0  0  0
    9.0681   -6.0604    0.0000 N   0  0  0  0  0  0  0  0  0  0  0  0
    9.7825   -6.4729    0.0000 C   0  0  0  0  0  0  0  0  0  0  0  0
    9.7825   -7.2979    0.0000 C   0  0  0  0  0  0  0  0  0  0  0  0
    9.0681   -7.7104    0.0000 N   0  0  0  0  0  0  0  0  0  0  0  0
    9.0681   -8.5354    0.0000 C   0  0  0  0  0  0  0  0  0  0  0  0
    8.3536   -7.2979    0.0000 C   0  0  0  0  0  0  0  0  0  0  0  0
    7.6391   -7.7104    0.0000 O   0  0  0  0  0  0  0  0  0  0  0  0
    8.3536   -6.4729    0.0000 C   0  0  1  0  0  0  0  0  0  0  0  0
    7.6391   -6.0604    0.0000 C   0  0  0  0  0  0  0  0  0  0  0  0
    6.9246   -3.9979    0.0000 C   0  0  0  0  0  0  0  0  0  0  0  0
    6.2102   -3.5854    0.0000 C   0  0  0  0  0  0  0  0  0  0  0  0
   -0.6391   -1.5263    0.0000 H   0  0  0  0  0  0  0  0  0  0  0  0
   -0.2539   -3.3391    0.0000 H   0  0  0  0  0  0  0  0  0  0  0  0
   -0.9698   -2.5439    0.0000 H   0  0  0  0  0  0  0  0  0  0  0  0
    2.6378    1.1591    0.0000 H   0  0  0  0  0  0  0  0  0  0  0  0
    4.2460    0.2306    0.0000 H   0  0  0  0  0  0  0  0  0  0  0  0
    4.7812   -0.0404    0.0000 H   0  0  0  0  0  0  0  0  0  0  0  0
    5.7078   -0.5754    0.0000 H   0  0  0  0  0  0  0  0  0  0  0  0
    6.4223   -0.9879    0.0000 H   0  0  0  0  0  0  0  0  0  0  0  0
    6.4223   -2.0579    0.0000 H   0  0  0  0  0  0  0  0  0  0  0  0
    5.4957   -3.4179    0.0000 H   0  0  0  0  0  0  0  0  0  0  0  0
    4.7812   -3.8304    0.0000 H   0  0  0  0  0  0  0  0  0  0  0  0
    3.8545   -3.2954    0.0000 H   0  0  0  0  0  0  0  0  0  0  0  0
    3.1401   -2.8829    0.0000 H   0  0  0  0  0  0  0  0  0  0  0  0
    3.1402   -1.8129    0.0000 H   0  0  0  0  0  0  0  0  0  0  0  0
    6.9246   -1.3159    0.0000 H   0  0  0  0  0  0  0  0  0  0  0  0
    8.5328   -2.2444    0.0000 H   0  0  0  0  0  0  0  0  0  0  0  0
    7.4270   -5.3579    0.0000 H   0  0  0  0  0  0  0  0  0  0  0  0
    8.3536   -5.8929    0.0000 H   0  0  0  0  0  0  0  0  0  0  0  0
    9.9947   -4.7004    0.0000 H   0  0  0  0  0  0  0  0  0  0  0  0
    9.9947   -5.7704    0.0000 H   0  0  0  0  0  0  0  0  0  0  0  0
   10.7092   -5.9379    0.0000 H   0  0  0  0  0  0  0  0  0  0  0  0
   10.7091   -7.0079    0.0000 H   0  0  0  0  0  0  0  0  0  0  0  0
   10.7092   -7.8329    0.0000 H   0  0  0  0  0  0  0  0  0  0  0  0
    9.7825   -8.3679    0.0000 H   0  0  0  0  0  0  0  0  0  0  0  0
    8.1415   -9.0704    0.0000 H   0  0  0  0  0  0  0  0  0  0  0  0
    9.9947   -9.0704    0.0000 H   0  0  0  0  0  0  0  0  0  0  0  0
    9.0681   -9.6054    0.0000 H   0  0  0  0  0  0  0  0  0  0  0  0
    7.4270   -7.0079    0.0000 H   0  0  0  0  0  0  0  0  0  0  0  0
    7.6391   -4.9904    0.0000 H   0  0  0  0  0  0  0  0  0  0  0  0
    6.7125   -6.5954    0.0000 H   0  0  0  0  0  0  0  0  0  0  0  0
    6.7124   -5.5254    0.0000 H   0  0  0  0  0  0  0  0  0  0  0  0
    6.9246   -5.0299    0.0000 H   0  0  0  0  0  0  0  0  0  0  0  0
    5.3165   -4.1014    0.0000 H   0  0  0  0  0  0  0  0  0  0  0  0
  1  2  1  0  0  0  0
  1 36  1  0  0  0  0
  1 37  1  0  0  0  0
  1 38  1  0  0  0  0
  2  3  1  0  0  0  0
  3  4  2  0  0  0  0
  3 11  1  0  0  0  0
  4  5  1  0  0  0  0
  5  6  2  0  0  0  0
  6  7  1  0  0  0  0
  6 11  1  0  0  0  0
  7  8  2  0  0  0  0
  7 39  1  0  0  0  0
  8  9  1  0  0  0  0
  8 40  1  0  0  0  0
  9 10  2  0  0  0  0
  9 12  1  0  0  0  0
 10 11  1  0  0  0  0
 12 13  1  0  0  0  0
 12 17  1  0  0  0  0
 13 14  1  0  0  0  0
 13 41  1  0  0  0  0
 13 42  1  0  0  0  0
 14 15  1  0  0  0  0
 14 43  1  0  0  0  0
 14 44  1  0  0  0  0
 15 16  1  0  0  0  0
 15 18  1  0  0  0  0
 15 45  1  0  0  0  0
 16 17  1  0  0  0  0
 16 46  1  0  0  0  0
 16 47  1  0  0  0  0
 17 48  1  0  0  0  0
 17 49  1  0  0  0  0
 18 19  2  0  0  0  0
 18 35  1  0  0  0  0
 19 20  1  0  0  0  0
 19 50  1  0  0  0  0
 20 21  2  0  0  0  0
 20 51  1  0  0  0  0
 21 22  1  0  0  0  0
 21 34  1  0  0  0  0
 22 23  1  0  0  0  0
 23 24  1  0  0  0  0
 23 52  1  0  0  0  0
 23 53  1  0  0  0  0
 24 25  1  0  0  0  0
 24 54  1  0  0  0  0
 24 55  1  0  0  0  0
 25 26  1  0  0  0  0
 26 27  1  0  0  0  0
 26 56  1  0  0  0  0
 26 57  1  0  0  0  0
 27 28  1  0  0  0  0
 27 58  1  0  0  0  0
 27 59  1  0  0  0  0
 28 29  1  0  0  0  0
 28 30  1  0  0  0  0
 29 60  1  0  0  0  0
 29 61  1  0  0  0  0
 29 62  1  0  0  0  0
 30 31  2  0  0  0  0
 32 30  1  0  0  0  0
 32 25  1  0  0  0  0
 32 33  1  0  0  0  0
 32 63  1  6  0  0  0
 33 64  1  0  0  0  0
 33 65  1  0  0  0  0
 33 66  1  0  0  0  0
 34 35  2  0  0  0  0
 34 67  1  0  0  0  0
 35 68  1  0  0  0  0
M  END
>  <DRUGBANK_ID>
DB17018

>  <COMMON_NAME>
AZD-5153

>  <CAS_NUMBER>
1869912-39-9

>  <UNII>
C7C7U6YEAO

>  <SYNONYMS>
2-piperazinone, 4-(2-(4-(1-(3-methoxy-1,2,4-triazolo(4,3-b)pyridazin-6-yl)-4-piperidinyl)phenoxy)ethyl)-1,3-dimethyl-, (3r)-

$$$$
