
 OpenBabel10282417072D

 77 81  0  0  1  0  0  0  0  0999 V2000
    3.0123    0.3620    0.0000 C   0  0  0  0  0  0  0  0  0  0  0  0
    3.7969    0.6170    0.0000 C   0  0  0  0  0  0  0  0  0  0  0  0
    4.4100    0.0649    0.0000 C   0  0  0  0  0  0  0  0  0  0  0  0
    3.9684    1.4239    0.0000 C   0  0  0  0  0  0  0  0  0  0  0  0
    4.7531    1.6789    0.0000 O   0  0  0  0  0  0  0  0  0  0  0  0
    3.3553    1.9760    0.0000 N   0  0  0  0  0  0  0  0  0  0  0  0
    2.5707    1.7210    0.0000 C   0  0  0  0  0  0  0  0  0  0  0  0
    1.9576    2.2731    0.0000 C   0  0  0  0  0  0  0  0  0  0  0  0
    2.1291    3.0800    0.0000 C   0  0  0  0  0  0  0  0  0  0  0  0
    2.9138    3.3350    0.0000 C   0  0  0  0  0  0  0  0  0  0  0  0
    3.5269    2.7829    0.0000 C   0  0  0  0  0  0  0  0  0  0  0  0
    2.9138    4.1600    0.0000 N   0  0  0  0  0  0  0  0  0  0  0  0
    2.1291    4.4149    0.0000 C   0  0  0  0  0  0  0  0  0  0  0  0
    1.8742    5.1995    0.0000 C   0  0  0  0  0  0  0  0  0  0  0  0
    1.6442    3.7475    0.0000 N   0  0  0  0  0  0  0  0  0  0  0  0
    0.8192    3.7475    0.0000 C   0  0  2  0  0  0  0  0  0  0  0  0
    0.4613    4.4908    0.0000 C   0  0  0  0  0  0  0  0  0  0  0  0
   -0.3430    4.6744    0.0000 C   0  0  2  0  0  0  0  0  0  0  0  0
   -0.9881    4.1600    0.0000 C   0  0  0  0  0  0  0  0  0  0  0  0
   -0.9881    3.3350    0.0000 C   0  0  0  0  0  0  0  0  0  0  0  0
   -0.3430    2.8206    0.0000 C   0  0  2  0  0  0  0  0  0  0  0  0
    0.4613    3.0042    0.0000 C   0  0  0  0  0  0  0  0  0  0  0  0
   -0.5748    3.7475    0.0000 N   0  0  0  0  0  0  0  0  0  0  0  0
   -1.3998    3.7475    0.0000 C   0  0  0  0  0  0  0  0  0  0  0  0
   -1.8123    4.4619    0.0000 C   0  0  0  0  0  0  0  0  0  0  0  0
   -2.6373    4.4619    0.0000 C   0  0  2  0  0  0  0  0  0  0  0  0
   -3.0498    3.7475    0.0000 N   0  0  0  0  0  0  0  0  0  0  0  0
   -2.6373    3.0330    0.0000 C   0  0  0  0  0  0  0  0  0  0  0  0
   -1.8123    3.0330    0.0000 C   0  0  0  0  0  0  0  0  0  0  0  0
   -3.0498    2.3185    0.0000 O   0  0  0  0  0  0  0  0  0  0  0  0
   -3.0498    5.1764    0.0000 C   0  0  0  0  0  0  0  0  0  0  0  0
   -3.8748    5.1764    0.0000 C   0  0  0  0  0  0  0  0  0  0  0  0
   -4.2873    5.8909    0.0000 C   0  0  0  0  0  0  0  0  0  0  0  0
   -3.8748    6.6054    0.0000 C   0  0  0  0  0  0  0  0  0  0  0  0
   -3.0498    6.6054    0.0000 C   0  0  0  0  0  0  0  0  0  0  0  0
   -2.6373    7.3198    0.0000 F   0  0  0  0  0  0  0  0  0  0  0  0
   -2.6373    5.8909    0.0000 C   0  0  0  0  0  0  0  0  0  0  0  0
    2.2171    1.0779    0.0000 H   0  0  0  0  0  0  0  0  0  0  0  0
    2.7899   -0.6846    0.0000 H   0  0  0  0  0  0  0  0  0  0  0  0
    1.9947    0.0313    0.0000 H   0  0  0  0  0  0  0  0  0  0  0  0
    4.8145    0.9476    0.0000 H   0  0  0  0  0  0  0  0  0  0  0  0
    4.1875   -0.9817    0.0000 H   0  0  0  0  0  0  0  0  0  0  0  0
    5.4276    0.3955    0.0000 H   0  0  0  0  0  0  0  0  0  0  0  0
    5.2051   -0.6511    0.0000 H   0  0  0  0  0  0  0  0  0  0  0  0
    2.3482    0.6744    0.0000 H   0  0  0  0  0  0  0  0  0  0  0  0
    1.5531    1.3904    0.0000 H   0  0  0  0  0  0  0  0  0  0  0  0
    0.9400    1.9425    0.0000 H   0  0  0  0  0  0  0  0  0  0  0  0
    1.1624    2.9891    0.0000 H   0  0  0  0  0  0  0  0  0  0  0  0
    4.5446    3.1135    0.0000 H   0  0  0  0  0  0  0  0  0  0  0  0
    4.3220    2.0669    0.0000 H   0  0  0  0  0  0  0  0  0  0  0  0
    2.5902    5.9946    0.0000 H   0  0  0  0  0  0  0  0  0  0  0  0
    0.8276    5.4220    0.0000 H   0  0  0  0  0  0  0  0  0  0  0  0
    1.5436    6.2171    0.0000 H   0  0  0  0  0  0  0  0  0  0  0  0
    1.3885    4.6535    0.0000 H   0  0  0  0  0  0  0  0  0  0  0  0
    1.1285    5.3273    0.0000 H   0  0  0  0  0  0  0  0  0  0  0  0
    0.1079    5.5008    0.0000 H   0  0  0  0  0  0  0  0  0  0  0  0
    0.2169    3.7626    0.0000 H   0  0  0  0  0  0  0  0  0  0  0  0
   -1.9521    4.6243    0.0000 H   0  0  0  0  0  0  0  0  0  0  0  0
   -1.8941    3.5907    0.0000 H   0  0  0  0  0  0  0  0  0  0  0  0
   -1.9521    2.8707    0.0000 H   0  0  0  0  0  0  0  0  0  0  0  0
   -1.1079    2.2717    0.0000 H   0  0  0  0  0  0  0  0  0  0  0  0
   -0.9216    3.7207    0.0000 H   0  0  0  0  0  0  0  0  0  0  0  0
    1.1285    2.1677    0.0000 H   0  0  0  0  0  0  0  0  0  0  0  0
    1.5246    3.1241    0.0000 H   0  0  0  0  0  0  0  0  0  0  0  0
   -1.9348    2.8208    0.0000 H   0  0  0  0  0  0  0  0  0  0  0  0
   -2.4698    3.7475    0.0000 H   0  0  0  0  0  0  0  0  0  0  0  0
   -1.2773    5.3886    0.0000 H   0  0  0  0  0  0  0  0  0  0  0  0
   -2.3473    5.3885    0.0000 H   0  0  0  0  0  0  0  0  0  0  0  0
   -2.1023    3.5352    0.0000 H   0  0  0  0  0  0  0  0  0  0  0  0
   -4.0343    3.7475    0.0000 H   0  0  0  0  0  0  0  0  0  0  0  0
   -1.2773    2.1064    0.0000 H   0  0  0  0  0  0  0  0  0  0  0  0
   -1.2773    3.9596    0.0000 H   0  0  0  0  0  0  0  0  0  0  0  0
   -0.7423    3.0330    0.0000 H   0  0  0  0  0  0  0  0  0  0  0  0
   -4.3908    4.2827    0.0000 H   0  0  0  0  0  0  0  0  0  0  0  0
   -5.3193    5.8909    0.0000 H   0  0  0  0  0  0  0  0  0  0  0  0
   -4.3908    7.4991    0.0000 H   0  0  0  0  0  0  0  0  0  0  0  0
   -1.6053    5.8909    0.0000 H   0  0  0  0  0  0  0  0  0  0  0  0
  1  2  1  0  0  0  0
  1 38  1  0  0  0  0
  1 39  1  0  0  0  0
  1 40  1  0  0  0  0
  2  3  1  0  0  0  0
  2  4  1  0  0  0  0
  2 41  1  0  0  0  0
  3 42  1  0  0  0  0
  3 43  1  0  0  0  0
  3 44  1  0  0  0  0
  4  5  2  0  0  0  0
  4  6  1  0  0  0  0
  6  7  1  0  0  0  0
  6 11  1  0  0  0  0
  7  8  1  0  0  0  0
  7 45  1  0  0  0  0
  7 46  1  0  0  0  0
  8  9  1  0  0  0  0
  8 47  1  0  0  0  0
  8 48  1  0  0  0  0
  9 10  2  0  0  0  0
  9 15  1  0  0  0  0
 10 11  1  0  0  0  0
 10 12  1  0  0  0  0
 11 49  1  0  0  0  0
 11 50  1  0  0  0  0
 12 13  2  0  0  0  0
 13 14  1  0  0  0  0
 13 15  1  0  0  0  0
 14 51  1  0  0  0  0
 14 52  1  0  0  0  0
 14 53  1  0  0  0  0
 16 15  1  0  0  0  0
 16 17  1  0  0  0  0
 16 22  1  0  0  0  0
 16 54  1  6  0  0  0
 17 55  1  0  0  0  0
 17 56  1  0  0  0  0
 18 17  1  0  0  0  0
 18 19  1  0  0  0  0
 18 23  1  0  0  0  0
 18 57  1  6  0  0  0
 19 20  1  0  0  0  0
 19 58  1  0  0  0  0
 19 59  1  0  0  0  0
 20 60  1  0  0  0  0
 20 61  1  0  0  0  0
 21 20  1  0  0  0  0
 21 22  1  0  0  0  0
 21 23  1  0  0  0  0
 21 62  1  6  0  0  0
 22 63  1  0  0  0  0
 22 64  1  0  0  0  0
 23 24  1  0  0  0  0
 24 25  1  0  0  0  0
 24 65  1  0  0  0  0
 24 66  1  0  0  0  0
 25 67  1  0  0  0  0
 25 68  1  0  0  0  0
 26 25  1  0  0  0  0
 26 27  1  0  0  0  0
 26 31  1  0  0  0  0
 26 69  1  1  0  0  0
 27 28  1  0  0  0  0
 27 70  1  0  0  0  0
 28 29  1  0  0  0  0
 28 30  2  0  0  0  0
 29 71  1  0  0  0  0
 29 72  1  0  0  0  0
 29 73  1  0  0  0  0
 31 32  2  0  0  0  0
 31 37  1  0  0  0  0
 32 33  1  0  0  0  0
 32 74  1  0  0  0  0
 33 34  2  0  0  0  0
 33 75  1  0  0  0  0
 34 35  1  0  0  0  0
 34 76  1  0  0  0  0
 35 36  1  0  0  0  0
 35 37  2  0  0  0  0
 37 77  1  0  0  0  0
M  END
>  <DRUGBANK_ID>
DB14813

>  <COMMON_NAME>
PF-232798

>  <CAS_NUMBER>
849753-15-7

>  <UNII>
63P7W7886U

>  <SYNONYMS>
PF-00232798

$$$$
