
 OpenBabel10282417072D

 67 71  0  0  0  0  0  0  0  0999 V2000
   -1.0717    5.1562    0.0000 C   0  0  0  0  0  0  0  0  0  0  0  0
   -3.2151    1.4437    0.0000 C   0  0  0  0  0  0  0  0  0  0  0  0
   -1.7861    4.7437    0.0000 C   0  0  0  0  0  0  0  0  0  0  0  0
   -0.3572    4.7437    0.0000 C   0  0  0  0  0  0  0  0  0  0  0  0
   -2.5006    1.0312    0.0000 C   0  0  0  0  0  0  0  0  0  0  0  0
   -3.2151    2.2687    0.0000 C   0  0  0  0  0  0  0  0  0  0  0  0
    0.3572   -4.7437    0.0000 C   0  0  0  0  0  0  0  0  0  0  0  0
    3.2151   -3.9187    0.0000 C   0  0  0  0  0  0  0  0  0  0  0  0
   -1.7861    3.9187    0.0000 C   0  0  0  0  0  0  0  0  0  0  0  0
   -0.3572    3.9187    0.0000 C   0  0  0  0  0  0  0  0  0  0  0  0
   -1.7861    1.4437    0.0000 C   0  0  0  0  0  0  0  0  0  0  0  0
   -2.5006    2.6812    0.0000 C   0  0  0  0  0  0  0  0  0  0  0  0
    2.5006   -3.5062    0.0000 C   0  0  0  0  0  0  0  0  0  0  0  0
    1.0717   -5.1562    0.0000 C   0  0  0  0  0  0  0  0  0  0  0  0
    0.3572   -3.9187    0.0000 C   0  0  0  0  0  0  0  0  0  0  0  0
    3.2151   -4.7437    0.0000 C   0  0  0  0  0  0  0  0  0  0  0  0
    0.3572    0.2062    0.0000 C   0  0  0  0  0  0  0  0  0  0  0  0
   -1.0717    0.2062    0.0000 C   0  0  0  0  0  0  0  0  0  0  0  0
    0.3572    1.0312    0.0000 C   0  0  0  0  0  0  0  0  0  0  0  0
   -1.0717    1.0312    0.0000 C   0  0  0  0  0  0  0  0  0  0  0  0
   -0.3572   -1.0312    0.0000 C   0  0  0  0  0  0  0  0  0  0  0  0
    0.3572   -2.2687    0.0000 C   0  0  0  0  0  0  0  0  0  0  0  0
   -1.0717    3.5062    0.0000 C   0  0  0  0  0  0  0  0  0  0  0  0
   -1.7861    2.2687    0.0000 C   0  0  0  0  0  0  0  0  0  0  0  0
    0.3572   -1.4437    0.0000 C   0  0  3  0  0  0  0  0  0  0  0  0
    1.7861   -3.9187    0.0000 C   0  0  0  0  0  0  0  0  0  0  0  0
    1.7861   -4.7437    0.0000 C   0  0  0  0  0  0  0  0  0  0  0  0
    1.0717   -3.5062    0.0000 C   0  0  0  0  0  0  0  0  0  0  0  0
   -1.0717    2.6812    0.0000 C   0  0  0  0  0  0  0  0  0  0  0  0
   -0.3572    2.2687    0.0000 C   0  0  0  0  0  0  0  0  0  0  0  0
    2.5006   -5.1562    0.0000 N   0  0  0  0  0  0  0  0  0  0  0  0
   -0.3572   -0.2062    0.0000 N   0  0  0  0  0  0  0  0  0  0  0  0
   -0.3572    1.4437    0.0000 N   0  0  0  0  0  0  0  0  0  0  0  0
    1.0717   -1.0312    0.0000 O   0  0  0  0  0  0  0  0  0  0  0  0
    0.3572    2.6812    0.0000 O   0  0  0  0  0  0  0  0  0  0  0  0
    1.0717   -2.6812    0.0000 O   0  0  0  0  0  0  0  0  0  0  0  0
   -1.0717    6.1882    0.0000 H   0  0  0  0  0  0  0  0  0  0  0  0
   -4.1088    0.9277    0.0000 H   0  0  0  0  0  0  0  0  0  0  0  0
   -2.6798    5.2597    0.0000 H   0  0  0  0  0  0  0  0  0  0  0  0
    0.5365    5.2597    0.0000 H   0  0  0  0  0  0  0  0  0  0  0  0
   -2.5006   -0.0008    0.0000 H   0  0  0  0  0  0  0  0  0  0  0  0
   -4.1088    2.7847    0.0000 H   0  0  0  0  0  0  0  0  0  0  0  0
   -0.5365   -5.2597    0.0000 H   0  0  0  0  0  0  0  0  0  0  0  0
    4.1088   -3.4027    0.0000 H   0  0  0  0  0  0  0  0  0  0  0  0
   -2.6798    3.4027    0.0000 H   0  0  0  0  0  0  0  0  0  0  0  0
    0.5365    3.4027    0.0000 H   0  0  0  0  0  0  0  0  0  0  0  0
   -0.8924    0.9277    0.0000 H   0  0  0  0  0  0  0  0  0  0  0  0
   -2.5006    3.7132    0.0000 H   0  0  0  0  0  0  0  0  0  0  0  0
    2.5006   -2.4742    0.0000 H   0  0  0  0  0  0  0  0  0  0  0  0
    1.0717   -6.1882    0.0000 H   0  0  0  0  0  0  0  0  0  0  0  0
   -0.5365   -3.4027    0.0000 H   0  0  0  0  0  0  0  0  0  0  0  0
    4.1088   -5.2597    0.0000 H   0  0  0  0  0  0  0  0  0  0  0  0
    1.2838   -0.3288    0.0000 H   0  0  0  0  0  0  0  0  0  0  0  0
    0.3572   -0.8638    0.0000 H   0  0  0  0  0  0  0  0  0  0  0  0
   -1.9983   -0.3289    0.0000 H   0  0  0  0  0  0  0  0  0  0  0  0
   -1.0716   -0.8638    0.0000 H   0  0  0  0  0  0  0  0  0  0  0  0
    1.2839    1.5662    0.0000 H   0  0  0  0  0  0  0  0  0  0  0  0
    0.3572    2.1012    0.0000 H   0  0  0  0  0  0  0  0  0  0  0  0
   -1.9983    1.5662    0.0000 H   0  0  0  0  0  0  0  0  0  0  0  0
   -1.0717    2.1012    0.0000 H   0  0  0  0  0  0  0  0  0  0  0  0
   -1.2839   -1.5662    0.0000 H   0  0  0  0  0  0  0  0  0  0  0  0
   -1.2838   -0.4962    0.0000 H   0  0  0  0  0  0  0  0  0  0  0  0
   -0.5694   -2.8037    0.0000 H   0  0  0  0  0  0  0  0  0  0  0  0
    0.3572   -3.3387    0.0000 H   0  0  0  0  0  0  0  0  0  0  0  0
   -0.5695   -1.9787    0.0000 H   0  0  0  0  0  0  0  0  0  0  0  0
   -1.0717    1.6112    0.0000 H   0  0  0  0  0  0  0  0  0  0  0  0
    1.9117   -1.5162    0.0000 H   0  0  0  0  0  0  0  0  0  0  0  0
  1 37  1  0  0  0  0
  2 38  1  0  0  0  0
  3  1  2  0  0  0  0
  3 39  1  0  0  0  0
  4  1  1  0  0  0  0
  4 40  1  0  0  0  0
  5  2  2  0  0  0  0
  5 41  1  0  0  0  0
  6  2  1  0  0  0  0
  6 42  1  0  0  0  0
  7 43  1  0  0  0  0
  8 44  1  0  0  0  0
  9  3  1  0  0  0  0
  9 45  1  0  0  0  0
 10  4  2  0  0  0  0
 10 46  1  0  0  0  0
 11  5  1  0  0  0  0
 11 47  1  0  0  0  0
 12  6  2  0  0  0  0
 12 48  1  0  0  0  0
 13  8  2  0  0  0  0
 13 49  1  0  0  0  0
 14  7  2  0  0  0  0
 14 50  1  0  0  0  0
 15  7  1  0  0  0  0
 15 51  1  0  0  0  0
 16  8  1  0  0  0  0
 16 52  1  0  0  0  0
 17 53  1  0  0  0  0
 17 54  1  0  0  0  0
 18 55  1  0  0  0  0
 18 56  1  0  0  0  0
 19 17  1  0  0  0  0
 19 57  1  0  0  0  0
 19 58  1  0  0  0  0
 20 18  1  0  0  0  0
 20 59  1  0  0  0  0
 20 60  1  0  0  0  0
 21 61  1  0  0  0  0
 21 62  1  0  0  0  0
 22 63  1  0  0  0  0
 22 64  1  0  0  0  0
 23  9  2  0  0  0  0
 23 10  1  0  0  0  0
 24 11  2  0  0  0  0
 24 12  1  0  0  0  0
 25 21  1  0  0  0  0
 25 22  1  0  0  0  0
 25 65  1  0  0  0  0
 26 13  1  0  0  0  0
 27 14  1  0  0  0  0
 27 26  2  0  0  0  0
 28 15  2  0  0  0  0
 28 26  1  0  0  0  0
 29 23  1  0  0  0  0
 29 24  1  0  0  0  0
 29 66  1  0  0  0  0
 30 29  1  0  0  0  0
 31 16  2  0  0  0  0
 31 27  1  0  0  0  0
 32 17  1  0  0  0  0
 32 18  1  0  0  0  0
 32 21  1  0  0  0  0
 33 19  1  0  0  0  0
 33 20  1  0  0  0  0
 33 30  1  0  0  0  0
 34 25  1  0  0  0  0
 34 67  1  0  0  0  0
 35 30  2  0  0  0  0
 36 22  1  0  0  0  0
 36 28  1  0  0  0  0
M  END
>  <DRUGBANK_ID>
DB14067

>  <COMMON_NAME>
Dofequidar

>  <CAS_NUMBER>
129716-58-1

>  <UNII>
0BJK6B565B

>  <SYNONYMS>
Dofequidar

$$$$
