LPM
 OpenBabel10282417072D

 29 28  0  0  0  0  0  0  0  0999 V2000
   -2.5389    0.1160    0.0000 C   0  0  0  0  0  0  0  0  0  0  0  0
   -3.2534   -0.2965    0.0000 O   0  0  0  0  0  0  0  0  0  0  0  0
   -2.5389    0.9411    0.0000 N   0  0  0  0  0  0  0  0  0  0  0  0
   -1.8244   -0.2965    0.0000 C   0  0  0  0  0  0  0  0  0  0  0  0
   -1.1099    0.1160    0.0000 C   0  0  0  0  0  0  0  0  0  0  0  0
   -0.3953   -0.2965    0.0000 C   0  0  0  0  0  0  0  0  0  0  0  0
    0.3191    0.1160    0.0000 C   0  0  0  0  0  0  0  0  0  0  0  0
    1.0337   -0.2965    0.0000 C   0  0  1  0  0  0  0  0  0  0  0  0
    1.0337   -1.1216    0.0000 S   0  0  0  0  0  0  0  0  0  0  0  0
    1.7482    0.1160    0.0000 C   0  0  0  0  0  0  0  0  0  0  0  0
    2.4628   -0.2965    0.0000 C   0  0  0  0  0  0  0  0  0  0  0  0
    3.1772    0.1160    0.0000 S   0  0  0  0  0  0  0  0  0  0  0  0
    0.5279   -0.5885    0.0000 H   0  0  0  0  0  0  0  0  0  0  0  0
   -1.6863    1.4334    0.0000 H   0  0  0  0  0  0  0  0  0  0  0  0
   -3.3915    1.4334    0.0000 H   0  0  0  0  0  0  0  0  0  0  0  0
   -1.8244   -1.3665    0.0000 H   0  0  0  0  0  0  0  0  0  0  0  0
   -0.8978   -0.8315    0.0000 H   0  0  0  0  0  0  0  0  0  0  0  0
   -1.1099    1.1860    0.0000 H   0  0  0  0  0  0  0  0  0  0  0  0
   -0.1833    0.6511    0.0000 H   0  0  0  0  0  0  0  0  0  0  0  0
   -0.3952   -1.3665    0.0000 H   0  0  0  0  0  0  0  0  0  0  0  0
    0.5314   -0.8315    0.0000 H   0  0  0  0  0  0  0  0  0  0  0  0
    0.3190    1.1860    0.0000 H   0  0  0  0  0  0  0  0  0  0  0  0
    1.2457    0.6511    0.0000 H   0  0  0  0  0  0  0  0  0  0  0  0
   -0.1441   -1.8016    0.0000 H   0  0  0  0  0  0  0  0  0  0  0  0
    1.7482    1.1860    0.0000 H   0  0  0  0  0  0  0  0  0  0  0  0
    2.6748    0.6511    0.0000 H   0  0  0  0  0  0  0  0  0  0  0  0
    2.4629   -1.3665    0.0000 H   0  0  0  0  0  0  0  0  0  0  0  0
    3.3895   -0.8315    0.0000 H   0  0  0  0  0  0  0  0  0  0  0  0
    4.3550   -0.5639    0.0000 H   0  0  0  0  0  0  0  0  0  0  0  0
  1  2  2  0  0  0  0
  1  3  1  0  0  0  0
  1  4  1  0  0  0  0
  3 14  1  0  0  0  0
  3 15  1  0  0  0  0
  4  5  1  0  0  0  0
  4 16  1  0  0  0  0
  4 17  1  0  0  0  0
  5  6  1  0  0  0  0
  5 18  1  0  0  0  0
  5 19  1  0  0  0  0
  6  7  1  0  0  0  0
  6 20  1  0  0  0  0
  6 21  1  0  0  0  0
  7  8  1  0  0  0  0
  7 22  1  0  0  0  0
  7 23  1  0  0  0  0
  8  9  1  0  0  0  0
  8 10  1  0  0  0  0
  8 13  1  1  0  0  0
  9 24  1  0  0  0  0
 10 11  1  0  0  0  0
 10 25  1  0  0  0  0
 10 26  1  0  0  0  0
 11 12  1  0  0  0  0
 11 27  1  0  0  0  0
 11 28  1  0  0  0  0
 12 29  1  0  0  0  0
M  END
>  <DRUGBANK_ID>
DB08120

>  <COMMON_NAME>
6,8-DIMERCAPTO-OCTANOIC ACID AMIDE

$$$$
