
 OpenBabel10282417072D

 29 28  0  0  1  0  0  0  0  0999 V2000
    2.2836    2.3973    0.0000 C   0  0  0  0  0  0  0  0  0  0  0  0
    2.9980    1.9848    0.0000 N   0  0  0  0  0  0  0  0  0  0  0  0
    3.7125    2.3973    0.0000 C   0  0  0  0  0  0  0  0  0  0  0  0
    3.7125    3.2223    0.0000 N   0  0  0  0  0  0  0  0  0  0  0  0
    4.4270    1.9848    0.0000 N   0  0  0  0  0  0  0  0  0  0  0  0
    5.1414    2.3973    0.0000 C   0  0  0  0  0  0  0  0  0  0  0  0
    5.8559    1.9848    0.0000 C   0  0  0  0  0  0  0  0  0  0  0  0
    6.5704    2.3973    0.0000 C   0  0  0  0  0  0  0  0  0  0  0  0
    7.2849    1.9848    0.0000 C   0  0  2  0  0  0  0  0  0  0  0  0
    7.2849    1.1598    0.0000 N   0  0  0  0  0  0  0  0  0  0  0  0
    7.9993    2.3973    0.0000 C   0  0  0  0  0  0  0  0  0  0  0  0
    8.7138    1.9848    0.0000 O   0  0  0  0  0  0  0  0  0  0  0  0
    7.9993    3.2223    0.0000 O   0  0  0  0  0  0  0  0  0  0  0  0
    2.2836    3.4673    0.0000 H   0  0  0  0  0  0  0  0  0  0  0  0
    1.3569    1.8623    0.0000 H   0  0  0  0  0  0  0  0  0  0  0  0
    1.3570    2.9323    0.0000 H   0  0  0  0  0  0  0  0  0  0  0  0
    2.9980    1.0003    0.0000 H   0  0  0  0  0  0  0  0  0  0  0  0
    4.5651    3.7146    0.0000 H   0  0  0  0  0  0  0  0  0  0  0  0
    4.4270    1.0003    0.0000 H   0  0  0  0  0  0  0  0  0  0  0  0
    5.1414    3.4673    0.0000 H   0  0  0  0  0  0  0  0  0  0  0  0
    6.0680    2.9323    0.0000 H   0  0  0  0  0  0  0  0  0  0  0  0
    5.8559    0.9148    0.0000 H   0  0  0  0  0  0  0  0  0  0  0  0
    6.7825    1.4498    0.0000 H   0  0  0  0  0  0  0  0  0  0  0  0
    6.5704    3.4673    0.0000 H   0  0  0  0  0  0  0  0  0  0  0  0
    7.4970    2.9323    0.0000 H   0  0  0  0  0  0  0  0  0  0  0  0
    6.3583    1.4498    0.0000 H   0  0  0  0  0  0  0  0  0  0  0  0
    6.4016    0.6498    0.0000 H   0  0  0  0  0  0  0  0  0  0  0  0
    8.1682    0.6498    0.0000 H   0  0  0  0  0  0  0  0  0  0  0  0
    8.7138    1.0478    0.0000 H   0  0  0  0  0  0  0  0  0  0  0  0
  1  2  1  0  0  0  0
  1 14  1  0  0  0  0
  1 15  1  0  0  0  0
  1 16  1  0  0  0  0
  2  3  1  0  0  0  0
  2 17  1  0  0  0  0
  3  4  2  0  0  0  0
  3  5  1  0  0  0  0
  4 18  1  0  0  0  0
  5  6  1  0  0  0  0
  5 19  1  0  0  0  0
  6  7  1  0  0  0  0
  6 20  1  0  0  0  0
  6 21  1  0  0  0  0
  7  8  1  0  0  0  0
  7 22  1  0  0  0  0
  7 23  1  0  0  0  0
  8  9  1  0  0  0  0
  8 24  1  0  0  0  0
  8 25  1  0  0  0  0
  9 10  1  0  0  0  0
  9 11  1  0  0  0  0
  9 26  1  6  0  0  0
 10 27  1  0  0  0  0
 10 28  1  0  0  0  0
 11 12  1  0  0  0  0
 11 13  2  0  0  0  0
 12 29  1  0  0  0  0
M  END
>  <DRUGBANK_ID>
DB11815

>  <COMMON_NAME>
Tilarginine

>  <CAS_NUMBER>
17035-90-4

>  <UNII>
27JT06E6GR

>  <SYNONYMS>
L-Monomethylarginine; L-Ng-monomethyl Arginine; L-NMMA; N-Methylarginine; N-Monomethyl-L-arginine; N(G)-Methylarginine; N(G)-Monomethyl-L-arginine; N5-(Methylamidino)-L-ornithine; NG-Monomethyl-L-arginine; omega-N-Methylarginine; omega-N-Monomethylarginine; Targinine; Tilarginine

$$$$
