
 OpenBabel10282417072D

 72 73  0  0  1  0  0  0  0  0999 V2000
    5.9370   -0.8250    0.0000 S   0  0  0  0  0  0  0  0  0  0  0  0
    3.0791   -0.8250    0.0000 O   0  0  0  0  0  0  0  0  0  0  0  0
    5.9370    0.0000    0.0000 O   0  0  0  0  0  0  0  0  0  0  0  0
    2.3645   -1.2375    0.0000 O   0  0  0  0  0  0  0  0  0  0  0  0
    6.6515    3.7126    0.0000 O   0  0  0  0  0  0  0  0  0  0  0  0
    1.6500   -2.4751    0.0000 O   0  0  0  0  0  0  0  0  0  0  0  0
    7.3659    2.4751    0.0000 O   0  0  0  0  0  0  0  0  0  0  0  0
    4.5080    0.0000    0.0000 N   0  0  0  0  0  0  0  0  0  0  0  0
    3.7935   -2.0625    0.0000 N   0  0  0  0  0  0  0  0  0  0  0  0
    5.2224    2.8876    0.0000 N   0  0  0  0  0  0  0  0  0  0  0  0
    4.5080   -0.8250    0.0000 C   0  0  1  0  0  0  0  0  0  0  0  0
    5.9370    1.6500    0.0000 C   0  0  0  0  0  0  0  0  0  0  0  0
    5.2224    1.2375    0.0000 C   0  0  0  0  0  0  0  0  0  0  0  0
    5.2224   -1.2375    0.0000 C   0  0  0  0  0  0  0  0  0  0  0  0
    3.7935   -1.2375    0.0000 C   0  0  0  0  0  0  0  0  0  0  0  0
    3.0791   -2.4751    0.0000 C   0  0  2  0  0  0  0  0  0  0  0  0
    5.9370    2.4751    0.0000 C   0  0  1  0  0  0  0  0  0  0  0  0
    5.2224    0.4125    0.0000 C   0  0  0  0  0  0  0  0  0  0  0  0
    3.0791   -3.3001    0.0000 C   0  0  0  0  0  0  0  0  0  0  0  0
    2.3645   -2.0625    0.0000 C   0  0  0  0  0  0  0  0  0  0  0  0
    6.6515    2.8876    0.0000 C   0  0  0  0  0  0  0  0  0  0  0  0
    6.6515   -1.2375    0.0000 C   0  0  0  0  0  0  0  0  0  0  0  0
    3.7935   -3.7126    0.0000 C   0  0  0  0  0  0  0  0  0  0  0  0
    2.3645   -3.7126    0.0000 C   0  0  0  0  0  0  0  0  0  0  0  0
    7.3659   -0.8250    0.0000 C   0  0  0  0  0  0  0  0  0  0  0  0
    3.7935   -4.5376    0.0000 C   0  0  0  0  0  0  0  0  0  0  0  0
    2.3645   -4.5376    0.0000 C   0  0  0  0  0  0  0  0  0  0  0  0
    3.0791   -4.9501    0.0000 C   0  0  0  0  0  0  0  0  0  0  0  0
    7.3659    0.0000    0.0000 C   0  0  0  0  0  0  0  0  0  0  0  0
    8.0804   -1.2375    0.0000 C   0  0  0  0  0  0  0  0  0  0  0  0
    1.6500   -0.8250    0.0000 C   0  0  0  0  0  0  0  0  0  0  0  0
    7.3659    4.1251    0.0000 C   0  0  0  0  0  0  0  0  0  0  0  0
    8.0804    0.4125    0.0000 C   0  0  0  0  0  0  0  0  0  0  0  0
    8.7949   -0.8250    0.0000 C   0  0  0  0  0  0  0  0  0  0  0  0
    8.7949    0.0000    0.0000 C   0  0  0  0  0  0  0  0  0  0  0  0
    1.6500    0.0000    0.0000 C   0  0  0  0  0  0  0  0  0  0  0  0
    7.3659    4.9501    0.0000 C   0  0  0  0  0  0  0  0  0  0  0  0
    3.6554    0.4922    0.0000 H   0  0  0  0  0  0  0  0  0  0  0  0
    4.6461   -2.5547    0.0000 H   0  0  0  0  0  0  0  0  0  0  0  0
    5.2223    3.9076    0.0000 H   0  0  0  0  0  0  0  0  0  0  0  0
    4.3391    2.3775    0.0000 H   0  0  0  0  0  0  0  0  0  0  0  0
    5.4347   -0.2900    0.0000 H   0  0  0  0  0  0  0  0  0  0  0  0
    6.8636    1.1150    0.0000 H   0  0  0  0  0  0  0  0  0  0  0  0
    6.8637    2.1850    0.0000 H   0  0  0  0  0  0  0  0  0  0  0  0
    4.2958    1.7725    0.0000 H   0  0  0  0  0  0  0  0  0  0  0  0
    4.2957    0.7025    0.0000 H   0  0  0  0  0  0  0  0  0  0  0  0
    5.2223   -2.3075    0.0000 H   0  0  0  0  0  0  0  0  0  0  0  0
    4.2957   -1.7725    0.0000 H   0  0  0  0  0  0  0  0  0  0  0  0
    4.0058   -3.0100    0.0000 H   0  0  0  0  0  0  0  0  0  0  0  0
    5.0104    1.9401    0.0000 H   0  0  0  0  0  0  0  0  0  0  0  0
    6.6515   -2.3075    0.0000 H   0  0  0  0  0  0  0  0  0  0  0  0
    7.5782   -1.7725    0.0000 H   0  0  0  0  0  0  0  0  0  0  0  0
    4.6872   -3.1966    0.0000 H   0  0  0  0  0  0  0  0  0  0  0  0
    1.4708   -3.1966    0.0000 H   0  0  0  0  0  0  0  0  0  0  0  0
    4.6872   -5.0536    0.0000 H   0  0  0  0  0  0  0  0  0  0  0  0
    1.4708   -5.0536    0.0000 H   0  0  0  0  0  0  0  0  0  0  0  0
    3.0792   -5.9821    0.0000 H   0  0  0  0  0  0  0  0  0  0  0  0
    6.4722    0.5160    0.0000 H   0  0  0  0  0  0  0  0  0  0  0  0
    8.0804   -2.2695    0.0000 H   0  0  0  0  0  0  0  0  0  0  0  0
    0.7234   -1.3600    0.0000 H   0  0  0  0  0  0  0  0  0  0  0  0
    0.7234   -0.2900    0.0000 H   0  0  0  0  0  0  0  0  0  0  0  0
    8.2926    3.5901    0.0000 H   0  0  0  0  0  0  0  0  0  0  0  0
    8.2925    4.6601    0.0000 H   0  0  0  0  0  0  0  0  0  0  0  0
    8.0804    1.4445    0.0000 H   0  0  0  0  0  0  0  0  0  0  0  0
    9.6886   -1.3410    0.0000 H   0  0  0  0  0  0  0  0  0  0  0  0
    9.6886    0.5160    0.0000 H   0  0  0  0  0  0  0  0  0  0  0  0
    2.5766    0.5350    0.0000 H   0  0  0  0  0  0  0  0  0  0  0  0
    0.7234    0.5350    0.0000 H   0  0  0  0  0  0  0  0  0  0  0  0
    1.6500    1.0700    0.0000 H   0  0  0  0  0  0  0  0  0  0  0  0
    8.2925    5.4851    0.0000 H   0  0  0  0  0  0  0  0  0  0  0  0
    6.4393    5.4851    0.0000 H   0  0  0  0  0  0  0  0  0  0  0  0
    7.3659    6.0201    0.0000 H   0  0  0  0  0  0  0  0  0  0  0  0
  1 14  1  0  0  0  0
  1 22  1  0  0  0  0
  2 15  2  0  0  0  0
  3 18  2  0  0  0  0
  4 20  1  0  0  0  0
  4 31  1  0  0  0  0
  5 21  1  0  0  0  0
  5 32  1  0  0  0  0
  6 20  2  0  0  0  0
  7 21  2  0  0  0  0
  8 18  1  0  0  0  0
  8 38  1  0  0  0  0
  9 15  1  0  0  0  0
  9 39  1  0  0  0  0
 10 40  1  0  0  0  0
 10 41  1  0  0  0  0
 11  8  1  0  0  0  0
 11 14  1  0  0  0  0
 11 15  1  0  0  0  0
 11 42  1  6  0  0  0
 12 13  1  0  0  0  0
 12 17  1  0  0  0  0
 12 43  1  0  0  0  0
 12 44  1  0  0  0  0
 13 18  1  0  0  0  0
 13 45  1  0  0  0  0
 13 46  1  0  0  0  0
 14 47  1  0  0  0  0
 14 48  1  0  0  0  0
 16  9  1  0  0  0  0
 16 19  1  0  0  0  0
 16 20  1  0  0  0  0
 16 49  1  1  0  0  0
 17 10  1  0  0  0  0
 17 21  1  0  0  0  0
 17 50  1  1  0  0  0
 19 23  2  0  0  0  0
 19 24  1  0  0  0  0
 22 25  1  0  0  0  0
 22 51  1  0  0  0  0
 22 52  1  0  0  0  0
 23 26  1  0  0  0  0
 23 53  1  0  0  0  0
 24 27  2  0  0  0  0
 24 54  1  0  0  0  0
 25 29  2  0  0  0  0
 25 30  1  0  0  0  0
 26 28  2  0  0  0  0
 26 55  1  0  0  0  0
 27 28  1  0  0  0  0
 27 56  1  0  0  0  0
 28 57  1  0  0  0  0
 29 33  1  0  0  0  0
 29 58  1  0  0  0  0
 30 34  2  0  0  0  0
 30 59  1  0  0  0  0
 31 36  1  0  0  0  0
 31 60  1  0  0  0  0
 31 61  1  0  0  0  0
 32 37  1  0  0  0  0
 32 62  1  0  0  0  0
 32 63  1  0  0  0  0
 33 35  2  0  0  0  0
 33 64  1  0  0  0  0
 34 35  1  0  0  0  0
 34 65  1  0  0  0  0
 35 66  1  0  0  0  0
 36 67  1  0  0  0  0
 36 68  1  0  0  0  0
 36 69  1  0  0  0  0
 37 70  1  0  0  0  0
 37 71  1  0  0  0  0
 37 72  1  0  0  0  0
M  END
>  <DRUGBANK_ID>
DB05460

>  <SECONDARY_ACCESSION_NUMBERS>
DB12215

>  <COMMON_NAME>
Ezatiostat

>  <CAS_NUMBER>
168682-53-9

>  <UNII>
057D10I8S8

>  <SYNONYMS>
Ezatiostat; gamma-Glutamyl-S-(benzyl)-cysteinyl-R(-)-phenylglycine diethyl ester

$$$$
