
 OpenBabel10282417072D

116122  0  0  0  0  0  0  0  0999 V2000
   -1.4905   -3.6851    0.0000 O   0  0  0  0  0  0  0  0  0  0  0  0
   -2.2062   -4.1060    0.0000 C   0  0  2  0  0  0  0  0  0  0  0  0
   -2.9229   -3.7047    0.0000 O   0  0  0  0  0  0  0  0  0  0  0  0
   -2.1899   -4.9326    0.0000 C   0  0  1  0  0  0  0  0  0  0  0  0
   -3.6289   -4.1183    0.0000 C   0  0  1  0  0  0  0  0  0  0  0  0
   -2.9048   -5.3451    0.0000 C   0  0  2  0  0  0  0  0  0  0  0  0
   -1.4702   -5.3355    0.0000 O   0  0  0  0  0  0  0  0  0  0  0  0
   -3.6233   -4.9469    0.0000 C   0  0  2  0  0  0  0  0  0  0  0  0
   -4.3486   -3.7153    0.0000 C   0  0  0  0  0  0  0  0  0  0  0  0
   -2.8940   -6.1728    0.0000 O   0  0  0  0  0  0  0  0  0  0  0  0
   -4.3337   -5.3669    0.0000 O   0  0  0  0  0  0  0  0  0  0  0  0
   -5.0535   -4.1382    0.0000 O   0  0  0  0  0  0  0  0  0  0  0  0
    0.7277   -0.9252    0.0000 C   0  0  2  0  0  0  0  0  0  0  0  0
    0.0273   -0.5032    0.0000 C   0  0  2  0  0  0  0  0  0  0  0  0
    1.4464   -0.5179    0.0000 C   0  0  0  0  0  0  0  0  0  0  0  0
    0.7277   -1.7466    0.0000 C   0  0  0  0  0  0  0  0  0  0  0  0
   -0.6911   -0.9182    0.0000 C   0  0  1  0  0  0  0  0  0  0  0  0
    0.0307    0.3180    0.0000 C   0  0  0  0  0  0  0  0  0  0  0  0
    1.4157    0.3034    0.0000 C   0  0  2  0  0  0  0  0  0  0  0  0
    0.0203   -2.1531    0.0000 C   0  0  0  0  0  0  0  0  0  0  0  0
   -0.6982   -1.7431    0.0000 C   0  0  2  0  0  0  0  0  0  0  0  0
   -1.4063   -0.4999    0.0000 C   0  0  0  0  0  0  0  0  0  0  0  0
   -0.6982   -0.0933    0.0000 C   0  0  0  0  0  0  0  0  0  0  0  0
    0.7459    0.7211    0.0000 C   0  0  0  0  0  0  0  0  0  0  0  0
    1.4505    1.1501    0.0000 O   0  0  0  0  0  0  0  0  0  0  0  0
   -1.4058   -2.1529    0.0000 C   0  0  2  0  0  0  0  0  0  0  0  0
   -2.1256   -0.9182    0.0000 C   0  0  0  0  0  0  0  0  0  0  0  0
    2.1964    1.6326    0.0000 C   0  0  1  0  0  0  0  0  0  0  0  0
   -2.1256   -1.7431    0.0000 C   0  0  0  0  0  0  0  0  0  0  0  0
    2.1998    2.4541    0.0000 C   0  0  2  0  0  0  0  0  0  0  0  0
    2.9157    1.2184    0.0000 O   0  0  0  0  0  0  0  0  0  0  0  0
    1.4883    2.8684    0.0000 O   0  0  0  0  0  0  0  0  0  0  0  0
    2.9157    2.8614    0.0000 C   0  0  2  0  0  0  0  0  0  0  0  0
    3.6268    1.6258    0.0000 C   0  0  1  0  0  0  0  0  0  0  0  0
    1.4813    3.6933    0.0000 C   0  0  2  0  0  0  0  0  0  0  0  0
    3.6268    2.4541    0.0000 C   0  0  1  0  0  0  0  0  0  0  0  0
    2.9227    3.6897    0.0000 O   0  0  0  0  0  0  0  0  0  0  0  0
    4.3417    1.2114    0.0000 C   0  0  0  0  0  0  0  0  0  0  0  0
    2.1853    4.1110    0.0000 O   0  0  0  0  0  0  0  0  0  0  0  0
    0.7628    4.0997    0.0000 C   0  0  1  0  0  0  0  0  0  0  0  0
    4.3417    2.8614    0.0000 O   0  0  0  0  0  0  0  0  0  0  0  0
    5.0535    1.6180    0.0000 O   0  0  0  0  0  0  0  0  0  0  0  0
    2.1817    4.9358    0.0000 C   0  0  1  0  0  0  0  0  0  0  0  0
    0.7591    4.9248    0.0000 C   0  0  2  0  0  0  0  0  0  0  0  0
    0.0475    3.6828    0.0000 O   0  0  0  0  0  0  0  0  0  0  0  0
    1.4632    5.3387    0.0000 C   0  0  2  0  0  0  0  0  0  0  0  0
    2.9011    5.3422    0.0000 C   0  0  0  0  0  0  0  0  0  0  0  0
    0.0406    5.3185    0.0000 O   0  0  0  0  0  0  0  0  0  0  0  0
    1.4597    6.1569    0.0000 O   0  0  0  0  0  0  0  0  0  0  0  0
    0.0203   -1.3283    0.0000 H   0  0  0  0  0  0  0  0  0  0  0  0
   -0.6639   -2.4422    0.0000 H   0  0  0  0  0  0  0  0  0  0  0  0
    1.4373   -1.3324    0.0000 C   0  0  0  0  0  0  0  0  0  0  0  0
    2.1672   -0.1114    0.0000 C   0  0  0  0  0  0  0  0  0  0  0  0
    2.9674    0.0962    0.0000 C   0  0  0  0  0  0  0  0  0  0  0  0
   -1.1680   -2.9897    0.0000 C   0  0  0  0  0  0  0  0  0  0  0  0
   -1.8243   -2.8831    0.0000 C   0  0  0  0  0  0  0  0  0  0  0  0
   -2.6550   -2.8858    0.0000 O   0  0  0  0  0  0  0  0  0  0  0  0
    2.9088    6.1728    0.0000 O   0  0  0  0  0  0  0  0  0  0  0  0
   -2.2175   -3.0361    0.0000 H   0  0  0  0  0  0  0  0  0  0  0  0
   -1.2722   -4.3824    0.0000 H   0  0  0  0  0  0  0  0  0  0  0  0
   -3.6393   -3.0484    0.0000 H   0  0  0  0  0  0  0  0  0  0  0  0
   -1.9748   -5.8742    0.0000 H   0  0  0  0  0  0  0  0  0  0  0  0
   -1.4573   -6.3054    0.0000 H   0  0  0  0  0  0  0  0  0  0  0  0
   -4.5545   -4.4198    0.0000 H   0  0  0  0  0  0  0  0  0  0  0  0
   -4.3646   -2.6454    0.0000 H   0  0  0  0  0  0  0  0  0  0  0  0
   -5.2836   -3.1951    0.0000 H   0  0  0  0  0  0  0  0  0  0  0  0
   -3.7276   -6.6687    0.0000 H   0  0  0  0  0  0  0  0  0  0  0  0
   -5.1787   -4.8906    0.0000 H   0  0  0  0  0  0  0  0  0  0  0  0
   -5.9016   -3.6674    0.0000 H   0  0  0  0  0  0  0  0  0  0  0  0
    2.3808   -1.0392    0.0000 H   0  0  0  0  0  0  0  0  0  0  0  0
    2.3588    0.0410    0.0000 H   0  0  0  0  0  0  0  0  0  0  0  0
    1.6538   -2.2825    0.0000 H   0  0  0  0  0  0  0  0  0  0  0  0
    0.7261   -2.8166    0.0000 H   0  0  0  0  0  0  0  0  0  0  0  0
   -0.8920    0.8597    0.0000 H   0  0  0  0  0  0  0  0  0  0  0  0
    0.0401    1.3880    0.0000 H   0  0  0  0  0  0  0  0  0  0  0  0
    0.0219   -3.2231    0.0000 H   0  0  0  0  0  0  0  0  0  0  0  0
   -0.9046   -2.6911    0.0000 H   0  0  0  0  0  0  0  0  0  0  0  0
   -1.4050    0.5701    0.0000 H   0  0  0  0  0  0  0  0  0  0  0  0
   -2.3335    0.0342    0.0000 H   0  0  0  0  0  0  0  0  0  0  0  0
    0.2238    0.4497    0.0000 H   0  0  0  0  0  0  0  0  0  0  0  0
   -1.6294    0.4337    0.0000 H   0  0  0  0  0  0  0  0  0  0  0  0
   -0.7074    0.9767    0.0000 H   0  0  0  0  0  0  0  0  0  0  0  0
    0.7696    1.7908    0.0000 H   0  0  0  0  0  0  0  0  0  0  0  0
    1.6872    1.2299    0.0000 H   0  0  0  0  0  0  0  0  0  0  0  0
   -3.0531   -0.3847    0.0000 H   0  0  0  0  0  0  0  0  0  0  0  0
   -3.0518   -1.4539    0.0000 H   0  0  0  0  0  0  0  0  0  0  0  0
    1.2576    2.1459    0.0000 H   0  0  0  0  0  0  0  0  0  0  0  0
   -3.0506   -2.2809    0.0000 H   0  0  0  0  0  0  0  0  0  0  0  0
   -3.0531   -1.2095    0.0000 H   0  0  0  0  0  0  0  0  0  0  0  0
    1.2711    1.9227    0.0000 H   0  0  0  0  0  0  0  0  0  0  0  0
    1.9930    3.4032    0.0000 H   0  0  0  0  0  0  0  0  0  0  0  0
    3.6241    0.5558    0.0000 H   0  0  0  0  0  0  0  0  0  0  0  0
    2.4134    3.1678    0.0000 H   0  0  0  0  0  0  0  0  0  0  0  0
    3.6280    3.5241    0.0000 H   0  0  0  0  0  0  0  0  0  0  0  0
    3.7668    4.1676    0.0000 H   0  0  0  0  0  0  0  0  0  0  0  0
    4.3383    0.1414    0.0000 H   0  0  0  0  0  0  0  0  0  0  0  0
    5.2663    0.6728    0.0000 H   0  0  0  0  0  0  0  0  0  0  0  0
    0.7697    3.0297    0.0000 H   0  0  0  0  0  0  0  0  0  0  0  0
    5.1789    2.3716    0.0000 H   0  0  0  0  0  0  0  0  0  0  0  0
    5.8913    1.1291    0.0000 H   0  0  0  0  0  0  0  0  0  0  0  0
    3.1070    4.3985    0.0000 H   0  0  0  0  0  0  0  0  0  0  0  0
   -0.1603    4.3774    0.0000 H   0  0  0  0  0  0  0  0  0  0  0  0
   -0.7945    4.1644    0.0000 H   0  0  0  0  0  0  0  0  0  0  0  0
    2.3853    5.8815    0.0000 H   0  0  0  0  0  0  0  0  0  0  0  0
    3.8227    4.7986    0.0000 H   0  0  0  0  0  0  0  0  0  0  0  0
    3.8327    5.8686    0.0000 H   0  0  0  0  0  0  0  0  0  0  0  0
    0.0189    6.2883    0.0000 H   0  0  0  0  0  0  0  0  0  0  0  0
    2.2977    6.6455    0.0000 H   0  0  0  0  0  0  0  0  0  0  0  0
    1.7077   -2.3677    0.0000 H   0  0  0  0  0  0  0  0  0  0  0  0
    2.4966   -1.4834    0.0000 H   0  0  0  0  0  0  0  0  0  0  0  0
    3.6913   -0.6393    0.0000 H   0  0  0  0  0  0  0  0  0  0  0  0
    3.2424    1.0909    0.0000 H   0  0  0  0  0  0  0  0  0  0  0  0
   -1.9131   -3.7576    0.0000 H   0  0  0  0  0  0  0  0  0  0  0  0
   -0.1304   -3.2510    0.0000 H   0  0  0  0  0  0  0  0  0  0  0  0
   -0.8755   -4.0189    0.0000 H   0  0  0  0  0  0  0  0  0  0  0  0
    3.7533    6.6500    0.0000 H   0  0  0  0  0  0  0  0  0  0  0  0
  2  1  1  0  0  0  0
  2  3  1  0  0  0  0
  2  4  1  0  0  0  0
  2 59  1  6  0  0  0
  3  5  1  0  0  0  0
  4  6  1  0  0  0  0
  4  7  1  0  0  0  0
  4 60  1  1  0  0  0
  5  8  1  0  0  0  0
  5  9  1  0  0  0  0
  5 61  1  6  0  0  0
  6 10  1  0  0  0  0
  6  8  1  0  0  0  0
  6 62  1  6  0  0  0
  7 63  1  0  0  0  0
  8 11  1  0  0  0  0
  8 64  1  1  0  0  0
  9 12  1  0  0  0  0
  9 65  1  0  0  0  0
  9 66  1  0  0  0  0
 10 67  1  0  0  0  0
 11 68  1  0  0  0  0
 12 69  1  0  0  0  0
 13 14  1  0  0  0  0
 13 15  1  6  0  0  0
 13 16  1  0  0  0  0
 13 52  1  0  0  0  0
 14 17  1  0  0  0  0
 14 18  1  0  0  0  0
 14 50  1  1  0  0  0
 15 19  1  0  0  0  0
 15 70  1  0  0  0  0
 15 71  1  0  0  0  0
 16 20  1  0  0  0  0
 16 72  1  0  0  0  0
 16 73  1  0  0  0  0
 17 21  1  0  0  0  0
 17 22  1  0  0  0  0
 17 23  1  6  0  0  0
 18 24  1  0  0  0  0
 18 74  1  0  0  0  0
 18 75  1  0  0  0  0
 19 25  1  6  0  0  0
 19 24  1  0  0  0  0
 19 53  1  0  0  0  0
 20 21  1  0  0  0  0
 20 76  1  0  0  0  0
 20 77  1  0  0  0  0
 21 26  1  0  0  0  0
 21 51  1  1  0  0  0
 22 27  1  0  0  0  0
 22 78  1  0  0  0  0
 22 79  1  0  0  0  0
 23 80  1  0  0  0  0
 23 81  1  0  0  0  0
 23 82  1  0  0  0  0
 24 83  1  0  0  0  0
 24 84  1  0  0  0  0
 26 29  1  0  0  0  0
 26 55  1  0  0  0  0
 26 56  1  6  0  0  0
 27 29  1  0  0  0  0
 27 85  1  0  0  0  0
 27 86  1  0  0  0  0
 28 25  1  0  0  0  0
 28 30  1  0  0  0  0
 28 31  1  0  0  0  0
 28 87  1  6  0  0  0
 29 88  1  0  0  0  0
 29 89  1  0  0  0  0
 30 32  1  0  0  0  0
 30 33  1  0  0  0  0
 30 90  1  1  0  0  0
 31 34  1  0  0  0  0
 33 36  1  0  0  0  0
 33 37  1  0  0  0  0
 33 91  1  6  0  0  0
 34 38  1  0  0  0  0
 34 36  1  0  0  0  0
 34 92  1  6  0  0  0
 35 32  1  0  0  0  0
 35 39  1  0  0  0  0
 35 40  1  0  0  0  0
 35 93  1  6  0  0  0
 36 41  1  0  0  0  0
 36 94  1  1  0  0  0
 37 95  1  0  0  0  0
 38 42  1  0  0  0  0
 38 96  1  0  0  0  0
 38 97  1  0  0  0  0
 39 43  1  0  0  0  0
 40 44  1  0  0  0  0
 40 45  1  0  0  0  0
 40 98  1  1  0  0  0
 41 99  1  0  0  0  0
 42100  1  0  0  0  0
 43 46  1  0  0  0  0
 43 47  1  0  0  0  0
 43101  1  6  0  0  0
 44 48  1  0  0  0  0
 44 46  1  0  0  0  0
 44102  1  6  0  0  0
 45103  1  0  0  0  0
 46 49  1  0  0  0  0
 46104  1  1  0  0  0
 47 58  1  0  0  0  0
 47105  1  0  0  0  0
 47106  1  0  0  0  0
 48107  1  0  0  0  0
 49108  1  0  0  0  0
 52 53  1  0  0  0  0
 52109  1  0  0  0  0
 52110  1  0  0  0  0
 53 54  2  0  0  0  0
 54111  1  0  0  0  0
 54112  1  0  0  0  0
 55113  1  0  0  0  0
 55114  1  0  0  0  0
 55115  1  0  0  0  0
 56  1  1  0  0  0  0
 56 57  2  0  0  0  0
 58116  1  0  0  0  0
M  END
>  <DRUGBANK_ID>
DB16882

>  <COMMON_NAME>
Stevioside

>  <CAS_NUMBER>
57817-89-7

>  <UNII>
0YON5MXJ9P

>  <SYNONYMS>
Steviosin

$$$$
