
 OpenBabel10282417072D

 36 36  0  0  1  0  0  0  0  0999 V2000
    3.2755    2.0361    0.0000 C   0  0  0  0  0  0  0  0  0  0  0  0
    2.5610    2.4486    0.0000 C   0  0  0  0  0  0  0  0  0  0  0  0
   -1.7086    1.8448    0.0000 C   0  0  0  0  0  0  0  0  0  0  0  0
    3.9899    2.4486    0.0000 C   0  0  1  0  0  0  0  0  0  0  0  0
   -0.8881    1.7586    0.0000 C   0  0  2  0  0  0  0  0  0  0  0  0
    1.8465    2.0361    0.0000 C   0  0  0  0  0  0  0  0  0  0  0  0
   -0.4756    1.0441    0.0000 C   0  0  2  0  0  0  0  0  0  0  0  0
    4.7044    2.0361    0.0000 C   0  0  0  0  0  0  0  0  0  0  0  0
    0.4176    2.0361    0.0000 C   0  0  2  0  0  0  0  0  0  0  0  0
    0.3314    1.2156    0.0000 C   0  0  1  0  0  0  0  0  0  0  0  0
    0.5945    0.4337    0.0000 F   0  0  0  0  0  0  0  0  0  0  0  0
    3.9899    3.2736    0.0000 N   0  0  0  0  0  0  0  0  0  0  0  0
   -2.1935    1.1773    0.0000 O   0  0  0  0  0  0  0  0  0  0  0  0
    1.8465    1.2111    0.0000 O   0  0  0  0  0  0  0  0  0  0  0  0
   -0.8112    0.2904    0.0000 O   0  0  0  0  0  0  0  0  0  0  0  0
    5.4189    2.4486    0.0000 O   0  0  0  0  0  0  0  0  0  0  0  0
    4.7044    1.2111    0.0000 O   0  0  0  0  0  0  0  0  0  0  0  0
    1.1365    1.0356    0.0000 O   0  0  0  0  0  0  0  0  0  0  0  0
   -0.3361    2.3716    0.0000 O   0  0  0  0  0  0  0  0  0  0  0  0
    1.1321    2.4486    0.0000 O   0  0  0  0  0  0  0  0  0  0  0  0
    3.9899    1.6236    0.0000 H   0  0  0  0  0  0  0  0  0  0  0  0
   -1.0737    0.9547    0.0000 H   0  0  0  0  0  0  0  0  0  0  0  0
   -1.2350    0.7217    0.0000 H   0  0  0  0  0  0  0  0  0  0  0  0
    1.1095    1.5868    0.0000 H   0  0  0  0  0  0  0  0  0  0  0  0
    3.2755    0.9661    0.0000 H   0  0  0  0  0  0  0  0  0  0  0  0
    4.2022    1.5011    0.0000 H   0  0  0  0  0  0  0  0  0  0  0  0
    2.5610    3.5186    0.0000 H   0  0  0  0  0  0  0  0  0  0  0  0
    1.6344    2.9836    0.0000 H   0  0  0  0  0  0  0  0  0  0  0  0
   -2.1439    2.8223    0.0000 H   0  0  0  0  0  0  0  0  0  0  0  0
   -2.7727    1.9566    0.0000 H   0  0  0  0  0  0  0  0  0  0  0  0
    4.8732    3.7836    0.0000 H   0  0  0  0  0  0  0  0  0  0  0  0
    3.1066    3.7836    0.0000 H   0  0  0  0  0  0  0  0  0  0  0  0
   -3.1582    1.2786    0.0000 H   0  0  0  0  0  0  0  0  0  0  0  0
   -1.7759    0.1890    0.0000 H   0  0  0  0  0  0  0  0  0  0  0  0
    3.8929    0.7426    0.0000 H   0  0  0  0  0  0  0  0  0  0  0  0
    1.4265    0.1100    0.0000 H   0  0  0  0  0  0  0  0  0  0  0  0
  1 25  1  0  0  0  0
  1 26  1  0  0  0  0
  2  1  1  0  0  0  0
  2 27  1  0  0  0  0
  2 28  1  0  0  0  0
  3 29  1  0  0  0  0
  3 30  1  0  0  0  0
  4  1  1  0  0  0  0
  4 12  1  0  0  0  0
  4 21  1  1  0  0  0
  5  3  1  0  0  0  0
  5 22  1  6  0  0  0
  6  2  1  0  0  0  0
  7  5  1  0  0  0  0
  7 15  1  0  0  0  0
  7 23  1  1  0  0  0
  8  4  1  0  0  0  0
  9 20  1  0  0  0  0
  9 24  1  1  0  0  0
 10  7  1  0  0  0  0
 10  9  1  0  0  0  0
 10 11  1  1  0  0  0
 10 18  1  0  0  0  0
 12 31  1  0  0  0  0
 12 32  1  0  0  0  0
 13  3  1  0  0  0  0
 13 33  1  0  0  0  0
 14  6  2  0  0  0  0
 15 34  1  0  0  0  0
 16  8  2  0  0  0  0
 17  8  1  0  0  0  0
 17 35  1  0  0  0  0
 18 36  1  0  0  0  0
 19  5  1  0  0  0  0
 19  9  1  0  0  0  0
 20  6  1  0  0  0  0
M  END
>  <DRUGBANK_ID>
DB03371

>  <SECONDARY_ACCESSION_NUMBERS>
EXPT00553

>  <COMMON_NAME>
Modified Ribosylated Glutamyl Ester

$$$$
