
 OpenBabel10282417072D

 60 62  0  0  0  0  0  0  0  0999 V2000
    2.1130    0.0000    0.0000 S   0  0  0  0  0  0  0  0  0  0  0  0
    2.1130    2.4750    0.0000 S   0  0  0  0  0  0  0  0  0  0  0  0
    2.9380    0.0000    0.0000 O   0  0  0  0  0  0  0  0  0  0  0  0
    1.2880    0.0000    0.0000 O   0  0  0  0  0  0  0  0  0  0  0  0
    0.6840    0.0000    0.0000 O   0  0  0  0  0  0  0  0  0  0  0  0
   -1.4593    2.0625    0.0000 O   0  0  0  0  0  0  0  0  0  0  0  0
   -2.1738    0.8250    0.0000 O   0  0  0  0  0  0  0  0  0  0  0  0
    2.1130    0.8250    0.0000 N   0  0  0  0  0  0  0  0  0  0  0  0
   -0.0304    1.2375    0.0000 N   0  0  0  0  0  0  0  0  0  0  0  0
    1.3985    1.2375    0.0000 C   0  0  1  0  0  0  0  0  0  0  0  0
    2.8274    1.2375    0.0000 C   0  0  0  0  0  0  0  0  0  0  0  0
    1.3985    2.0625    0.0000 C   0  0  0  0  0  0  0  0  0  0  0  0
    2.8274    2.0625    0.0000 C   0  0  0  0  0  0  0  0  0  0  0  0
    0.6840    0.8250    0.0000 C   0  0  0  0  0  0  0  0  0  0  0  0
    2.1130   -0.8250    0.0000 C   0  0  0  0  0  0  0  0  0  0  0  0
   -0.7448    0.8250    0.0000 C   0  0  1  0  0  0  0  0  0  0  0  0
   -0.7448    0.0000    0.0000 C   0  0  0  0  0  0  0  0  0  0  0  0
    1.3985   -1.2375    0.0000 C   0  0  0  0  0  0  0  0  0  0  0  0
    2.8274   -1.2375    0.0000 C   0  0  0  0  0  0  0  0  0  0  0  0
   -1.4593    1.2375    0.0000 C   0  0  0  0  0  0  0  0  0  0  0  0
   -1.4593   -0.4125    0.0000 C   0  0  0  0  0  0  0  0  0  0  0  0
    1.3985   -2.0625    0.0000 C   0  0  0  0  0  0  0  0  0  0  0  0
    2.8274   -2.0625    0.0000 C   0  0  0  0  0  0  0  0  0  0  0  0
    2.1130   -2.4750    0.0000 C   0  0  0  0  0  0  0  0  0  0  0  0
   -2.1738    0.0000    0.0000 C   0  0  0  0  0  0  0  0  0  0  0  0
   -1.4593   -1.2375    0.0000 C   0  0  0  0  0  0  0  0  0  0  0  0
    2.1130   -3.3000    0.0000 C   0  0  0  0  0  0  0  0  0  0  0  0
   -2.8882   -0.4125    0.0000 C   0  0  0  0  0  0  0  0  0  0  0  0
   -2.1738   -1.6500    0.0000 C   0  0  0  0  0  0  0  0  0  0  0  0
   -2.1738    2.4750    0.0000 C   0  0  0  0  0  0  0  0  0  0  0  0
   -2.8882   -1.2375    0.0000 C   0  0  0  0  0  0  0  0  0  0  0  0
   -2.1738    3.3000    0.0000 C   0  0  0  0  0  0  0  0  0  0  0  0
   -0.0304    2.2220    0.0000 H   0  0  0  0  0  0  0  0  0  0  0  0
    1.3985    0.1675    0.0000 H   0  0  0  0  0  0  0  0  0  0  0  0
    3.7541    0.7025    0.0000 H   0  0  0  0  0  0  0  0  0  0  0  0
    3.7540    1.7725    0.0000 H   0  0  0  0  0  0  0  0  0  0  0  0
    0.4719    2.5975    0.0000 H   0  0  0  0  0  0  0  0  0  0  0  0
    0.4719    1.5275    0.0000 H   0  0  0  0  0  0  0  0  0  0  0  0
    3.7541    2.5975    0.0000 H   0  0  0  0  0  0  0  0  0  0  0  0
    3.7540    1.5275    0.0000 H   0  0  0  0  0  0  0  0  0  0  0  0
    0.1819    0.2900    0.0000 H   0  0  0  0  0  0  0  0  0  0  0  0
    0.1818   -0.5350    0.0000 H   0  0  0  0  0  0  0  0  0  0  0  0
   -0.7448   -1.0700    0.0000 H   0  0  0  0  0  0  0  0  0  0  0  0
    0.5048   -0.7215    0.0000 H   0  0  0  0  0  0  0  0  0  0  0  0
    3.7211   -0.7215    0.0000 H   0  0  0  0  0  0  0  0  0  0  0  0
    0.5048   -2.5785    0.0000 H   0  0  0  0  0  0  0  0  0  0  0  0
    3.7211   -2.5785    0.0000 H   0  0  0  0  0  0  0  0  0  0  0  0
   -2.1738    1.0320    0.0000 H   0  0  0  0  0  0  0  0  0  0  0  0
   -0.5656   -1.7535    0.0000 H   0  0  0  0  0  0  0  0  0  0  0  0
    1.1864   -3.8350    0.0000 H   0  0  0  0  0  0  0  0  0  0  0  0
    3.0396   -3.8350    0.0000 H   0  0  0  0  0  0  0  0  0  0  0  0
    2.1130   -4.3700    0.0000 H   0  0  0  0  0  0  0  0  0  0  0  0
   -3.7819    0.1035    0.0000 H   0  0  0  0  0  0  0  0  0  0  0  0
   -2.1738   -2.6820    0.0000 H   0  0  0  0  0  0  0  0  0  0  0  0
   -3.1004    1.9400    0.0000 H   0  0  0  0  0  0  0  0  0  0  0  0
   -3.1004    3.0100    0.0000 H   0  0  0  0  0  0  0  0  0  0  0  0
   -3.7819   -1.7535    0.0000 H   0  0  0  0  0  0  0  0  0  0  0  0
   -1.2472    3.8350    0.0000 H   0  0  0  0  0  0  0  0  0  0  0  0
   -3.1004    3.8350    0.0000 H   0  0  0  0  0  0  0  0  0  0  0  0
   -2.1738    4.3700    0.0000 H   0  0  0  0  0  0  0  0  0  0  0  0
  1  3  2  0  0  0  0
  1  4  2  0  0  0  0
  1  8  1  0  0  0  0
  1 15  1  0  0  0  0
  2 12  1  0  0  0  0
  2 13  1  0  0  0  0
  5 14  2  0  0  0  0
  6 20  1  0  0  0  0
  6 30  1  0  0  0  0
  7 20  2  0  0  0  0
  8 10  1  0  0  0  0
  8 11  1  0  0  0  0
  9 14  1  0  0  0  0
  9 33  1  0  0  0  0
 10 12  1  0  0  0  0
 10 14  1  0  0  0  0
 10 34  1  1  0  0  0
 11 13  1  0  0  0  0
 11 35  1  0  0  0  0
 11 36  1  0  0  0  0
 12 37  1  0  0  0  0
 12 38  1  0  0  0  0
 13 39  1  0  0  0  0
 13 40  1  0  0  0  0
 15 18  2  0  0  0  0
 15 19  1  0  0  0  0
 16  9  1  0  0  0  0
 16 17  1  0  0  0  0
 16 20  1  0  0  0  0
 16 41  1  6  0  0  0
 17 21  1  0  0  0  0
 17 42  1  0  0  0  0
 17 43  1  0  0  0  0
 18 22  1  0  0  0  0
 18 44  1  0  0  0  0
 19 23  2  0  0  0  0
 19 45  1  0  0  0  0
 21 25  2  0  0  0  0
 21 26  1  0  0  0  0
 22 24  2  0  0  0  0
 22 46  1  0  0  0  0
 23 24  1  0  0  0  0
 23 47  1  0  0  0  0
 24 27  1  0  0  0  0
 25 28  1  0  0  0  0
 25 48  1  0  0  0  0
 26 29  2  0  0  0  0
 26 49  1  0  0  0  0
 27 50  1  0  0  0  0
 27 51  1  0  0  0  0
 27 52  1  0  0  0  0
 28 31  2  0  0  0  0
 28 53  1  0  0  0  0
 29 31  1  0  0  0  0
 29 54  1  0  0  0  0
 30 32  1  0  0  0  0
 30 55  1  0  0  0  0
 30 56  1  0  0  0  0
 31 57  1  0  0  0  0
 32 58  1  0  0  0  0
 32 59  1  0  0  0  0
 32 60  1  0  0  0  0
M  END
>  <DRUGBANK_ID>
DB01712

>  <SECONDARY_ACCESSION_NUMBERS>
EXPT02976

>  <COMMON_NAME>
(3R)-4-(p-toluenesulfonyl)-1,4-thiazane-3-carboxylicacid-L-phenylalanine ethyl ester

$$$$
