486
 OpenBabel10282417072D

 63 65  0  0  1  0  0  0  0  0999 V2000
    8.8492   -1.5184    0.0000 O   0  0  0  0  0  0  0  0  0  0  0  0
    9.5737    2.2512    0.0000 O   0  0  0  0  0  0  0  0  0  0  0  0
    7.4068    0.9851    0.0000 O   0  0  0  0  0  0  0  0  0  0  0  0
    9.5637   -0.2809    0.0000 C   0  0  2  0  0  0  0  0  0  0  0  0
    8.8492    0.1316    0.0000 C   0  0  1  0  0  0  0  0  0  0  0  0
    9.5637   -1.1059    0.0000 C   0  0  0  0  0  0  0  0  0  0  0  0
   10.3145    0.1372    0.0000 C   0  0  0  0  0  0  0  0  0  0  0  0
    8.8360    0.9908    0.0000 C   0  0  0  0  0  0  0  0  0  0  0  0
    8.1347   -0.2809    0.0000 C   0  0  0  0  0  0  0  0  0  0  0  0
   10.3211    0.9965    0.0000 C   0  0  0  0  0  0  0  0  0  0  0  0
    8.1347   -1.1059    0.0000 C   0  0  0  0  0  0  0  0  0  0  0  0
    9.5769    1.4263    0.0000 C   0  0  0  0  0  0  0  0  0  0  0  0
    9.9762   -1.8204    0.0000 C   0  0  0  0  0  0  0  0  0  0  0  0
   10.3888   -1.1059    0.0000 C   0  0  0  0  0  0  0  0  0  0  0  0
    7.3973    0.1602    0.0000 C   0  0  0  0  0  0  0  0  0  0  0  0
    5.9368   -1.5384    0.0000 C   0  0  0  0  0  0  0  0  0  0  0  0
    6.6497   -1.1231    0.0000 C   0  0  0  0  0  0  0  0  0  0  0  0
    7.3973   -1.5471    0.0000 C   0  0  0  0  0  0  0  0  0  0  0  0
    6.6497   -0.2638    0.0000 C   0  0  0  0  0  0  0  0  0  0  0  0
    5.2240   -1.9536    0.0000 C   0  0  0  0  0  0  0  0  0  0  0  0
    6.3521   -2.2512    0.0000 C   0  0  0  0  0  0  0  0  0  0  0  0
    5.5216   -0.8255    0.0000 C   0  0  0  0  0  0  0  0  0  0  0  0
    4.5079   -1.5438    0.0000 C   0  0  0  0  0  0  0  0  0  0  0  0
    3.7950   -1.9591    0.0000 C   0  0  0  0  0  0  0  0  0  0  0  0
    3.0789   -1.5494    0.0000 C   0  0  0  0  0  0  0  0  0  0  0  0
    2.3660   -1.9646    0.0000 C   0  0  0  0  0  0  0  0  0  0  0  0
    1.6500   -1.5549    0.0000 C   0  0  0  0  0  0  0  0  0  0  0  0
   10.1328   -0.6153    0.0000 H   0  0  0  0  0  0  0  0  0  0  0  0
    9.4183    0.4660    0.0000 H   0  0  0  0  0  0  0  0  0  0  0  0
    8.2236    1.4442    0.0000 H   0  0  0  0  0  0  0  0  0  0  0  0
   11.2349   -0.4085    0.0000 H   0  0  0  0  0  0  0  0  0  0  0  0
   11.2463    0.6632    0.0000 H   0  0  0  0  0  0  0  0  0  0  0  0
    7.9032    1.5150    0.0000 H   0  0  0  0  0  0  0  0  0  0  0  0
    8.8256    2.0607    0.0000 H   0  0  0  0  0  0  0  0  0  0  0  0
   11.2498    1.5279    0.0000 H   0  0  0  0  0  0  0  0  0  0  0  0
   10.3233    2.0665    0.0000 H   0  0  0  0  0  0  0  0  0  0  0  0
    9.4412   -2.7470    0.0000 H   0  0  0  0  0  0  0  0  0  0  0  0
   11.0462   -1.8204    0.0000 H   0  0  0  0  0  0  0  0  0  0  0  0
   10.5112   -2.7471    0.0000 H   0  0  0  0  0  0  0  0  0  0  0  0
   10.9238   -2.0325    0.0000 H   0  0  0  0  0  0  0  0  0  0  0  0
   10.9238   -0.1793    0.0000 H   0  0  0  0  0  0  0  0  0  0  0  0
   11.4588   -1.1059    0.0000 H   0  0  0  0  0  0  0  0  0  0  0  0
    7.4093   -2.5790    0.0000 H   0  0  0  0  0  0  0  0  0  0  0  0
    5.7580    0.2556    0.0000 H   0  0  0  0  0  0  0  0  0  0  0  0
    5.2281   -3.0236    0.0000 H   0  0  0  0  0  0  0  0  0  0  0  0
    4.2994   -2.4921    0.0000 H   0  0  0  0  0  0  0  0  0  0  0  0
    5.8208   -3.1800    0.0000 H   0  0  0  0  0  0  0  0  0  0  0  0
    7.4221   -2.2470    0.0000 H   0  0  0  0  0  0  0  0  0  0  0  0
    6.8908   -3.1757    0.0000 H   0  0  0  0  0  0  0  0  0  0  0  0
    6.0531    0.1032    0.0000 H   0  0  0  0  0  0  0  0  0  0  0  0
    4.4516   -0.8296    0.0000 H   0  0  0  0  0  0  0  0  0  0  0  0
    4.9831    0.0991    0.0000 H   0  0  0  0  0  0  0  0  0  0  0  0
    4.5038   -0.4738    0.0000 H   0  0  0  0  0  0  0  0  0  0  0  0
    3.5792   -1.0124    0.0000 H   0  0  0  0  0  0  0  0  0  0  0  0
    3.7992   -3.0291    0.0000 H   0  0  0  0  0  0  0  0  0  0  0  0
    2.8705   -2.4977    0.0000 H   0  0  0  0  0  0  0  0  0  0  0  0
    3.0748   -0.4794    0.0000 H   0  0  0  0  0  0  0  0  0  0  0  0
    2.1502   -1.0179    0.0000 H   0  0  0  0  0  0  0  0  0  0  0  0
    2.3701   -3.0346    0.0000 H   0  0  0  0  0  0  0  0  0  0  0  0
    1.4414   -2.5032    0.0000 H   0  0  0  0  0  0  0  0  0  0  0  0
    1.6459   -0.4849    0.0000 H   0  0  0  0  0  0  0  0  0  0  0  0
    0.7254   -2.0935    0.0000 H   0  0  0  0  0  0  0  0  0  0  0  0
    0.7213   -1.0235    0.0000 H   0  0  0  0  0  0  0  0  0  0  0  0
  1  6  1  0  0  0  0
  1 11  1  0  0  0  0
  2 12  2  0  0  0  0
  3 15  1  0  0  0  0
  3 30  1  0  0  0  0
  4  5  1  0  0  0  0
  4  6  1  0  0  0  0
  4  7  1  0  0  0  0
  4 28  1  6  0  0  0
  5  8  1  0  0  0  0
  5  9  1  0  0  0  0
  5 29  1  1  0  0  0
  6 13  1  0  0  0  0
  6 14  1  0  0  0  0
  7 10  1  0  0  0  0
  7 31  1  0  0  0  0
  7 32  1  0  0  0  0
  8 12  1  0  0  0  0
  8 33  1  0  0  0  0
  8 34  1  0  0  0  0
  9 11  1  0  0  0  0
  9 15  2  0  0  0  0
 10 12  1  0  0  0  0
 10 35  1  0  0  0  0
 10 36  1  0  0  0  0
 11 18  2  0  0  0  0
 13 37  1  0  0  0  0
 13 38  1  0  0  0  0
 13 39  1  0  0  0  0
 14 40  1  0  0  0  0
 14 41  1  0  0  0  0
 14 42  1  0  0  0  0
 15 19  1  0  0  0  0
 16 17  1  0  0  0  0
 16 20  1  0  0  0  0
 16 21  1  0  0  0  0
 16 22  1  0  0  0  0
 17 18  1  0  0  0  0
 17 19  2  0  0  0  0
 18 43  1  0  0  0  0
 19 44  1  0  0  0  0
 20 23  1  0  0  0  0
 20 45  1  0  0  0  0
 20 46  1  0  0  0  0
 21 47  1  0  0  0  0
 21 48  1  0  0  0  0
 21 49  1  0  0  0  0
 22 50  1  0  0  0  0
 22 51  1  0  0  0  0
 22 52  1  0  0  0  0
 23 24  1  0  0  0  0
 23 53  1  0  0  0  0
 23 54  1  0  0  0  0
 24 25  1  0  0  0  0
 24 55  1  0  0  0  0
 24 56  1  0  0  0  0
 25 26  1  0  0  0  0
 25 57  1  0  0  0  0
 25 58  1  0  0  0  0
 26 27  1  0  0  0  0
 26 59  1  0  0  0  0
 26 60  1  0  0  0  0
 27 61  1  0  0  0  0
 27 62  1  0  0  0  0
 27 63  1  0  0  0  0
M  END
>  <DRUGBANK_ID>
DB00486

>  <SECONDARY_ACCESSION_NUMBERS>
APRD01127

>  <COMMON_NAME>
Nabilone

>  <CAS_NUMBER>
51022-71-0

>  <UNII>
2N4O9L084N

>  <SYNONYMS>
Nabilon; Nabilona; Nabilone; Nabilonum

$$$$
