
 OpenBabel10282417072D

 44 46  0  0  0  0  0  0  0  0999 V2000
    0.7366    0.4138    0.0000 C   0  0  2  0  0  0  0  0  0  0  0  0
    0.7366   -0.4111    0.0000 C   0  0  0  0  0  0  0  0  0  0  0  0
    1.5617    0.4138    0.0000 C   0  0  2  0  0  0  0  0  0  0  0  0
    1.5617   -0.4111    0.0000 N   0  0  0  0  0  0  0  0  0  0  0  0
    2.3463   -0.6660    0.0000 C   0  0  2  0  0  0  0  0  0  0  0  0
    2.8312    0.0013    0.0000 C   0  0  0  0  0  0  0  0  0  0  0  0
    2.3463    0.6687    0.0000 S   0  0  0  0  0  0  0  0  0  0  0  0
    3.5501   -0.4036    0.0000 C   0  0  0  0  0  0  0  0  0  0  0  0
    3.5501    0.4063    0.0000 C   0  0  0  0  0  0  0  0  0  0  0  0
    2.6014   -1.4507    0.0000 C   0  0  0  0  0  0  0  0  0  0  0  0
    3.4083   -1.6222    0.0000 O   0  0  0  0  0  0  0  0  0  0  0  0
    2.0491   -2.0638    0.0000 O   0  0  0  0  0  0  0  0  0  0  0  0
    0.0222    0.8263    0.0000 N   0  0  0  0  0  0  0  0  0  0  0  0
    0.1533   -0.9945    0.0000 O   0  0  0  0  0  0  0  0  0  0  0  0
    1.5617    1.2388    0.0000 H   0  0  0  0  0  0  0  0  0  0  0  0
   -0.6922    0.4138    0.0000 C   0  0  0  0  0  0  0  0  0  0  0  0
   -0.6922   -0.4111    0.0000 O   0  0  0  0  0  0  0  0  0  0  0  0
   -1.4067    0.8263    0.0000 C   0  0  1  0  0  0  0  0  0  0  0  0
   -2.1212    0.4138    0.0000 C   0  0  0  0  0  0  0  0  0  0  0  0
   -2.8356    0.8263    0.0000 C   0  0  0  0  0  0  0  0  0  0  0  0
   -3.5501    0.4138    0.0000 C   0  0  0  0  0  0  0  0  0  0  0  0
   -3.5501   -0.4111    0.0000 C   0  0  0  0  0  0  0  0  0  0  0  0
   -2.8356   -0.8236    0.0000 C   0  0  0  0  0  0  0  0  0  0  0  0
   -2.1212   -0.4111    0.0000 C   0  0  0  0  0  0  0  0  0  0  0  0
   -1.4067    1.6513    0.0000 N   0  0  0  0  0  0  0  0  0  0  0  0
   -2.1212    2.0638    0.0000 C   0  0  0  0  0  0  0  0  0  0  0  0
   -0.1901   -0.1212    0.0000 H   0  0  0  0  0  0  0  0  0  0  0  0
    1.5898   -1.4227    0.0000 H   0  0  0  0  0  0  0  0  0  0  0  0
    3.5615   -1.4735    0.0000 H   0  0  0  0  0  0  0  0  0  0  0  0
    4.4710    0.1412    0.0000 H   0  0  0  0  0  0  0  0  0  0  0  0
    4.4824   -0.9287    0.0000 H   0  0  0  0  0  0  0  0  0  0  0  0
    4.4710   -0.1385    0.0000 H   0  0  0  0  0  0  0  0  0  0  0  0
    3.5614    1.4762    0.0000 H   0  0  0  0  0  0  0  0  0  0  0  0
    4.4823    0.9315    0.0000 H   0  0  0  0  0  0  0  0  0  0  0  0
    3.6979   -2.5133    0.0000 H   0  0  0  0  0  0  0  0  0  0  0  0
    0.0222    1.8108    0.0000 H   0  0  0  0  0  0  0  0  0  0  0  0
   -0.4801    1.3613    0.0000 H   0  0  0  0  0  0  0  0  0  0  0  0
   -2.8356    1.8583    0.0000 H   0  0  0  0  0  0  0  0  0  0  0  0
   -4.4438    0.9298    0.0000 H   0  0  0  0  0  0  0  0  0  0  0  0
   -4.4438   -0.9271    0.0000 H   0  0  0  0  0  0  0  0  0  0  0  0
   -2.8356   -1.8556    0.0000 H   0  0  0  0  0  0  0  0  0  0  0  0
   -1.2275   -0.9271    0.0000 H   0  0  0  0  0  0  0  0  0  0  0  0
   -2.1212    3.0958    0.0000 H   0  0  0  0  0  0  0  0  0  0  0  0
   -3.0149    1.5478    0.0000 H   0  0  0  0  0  0  0  0  0  0  0  0
  1 13  1  0  0  0  0
  1  2  1  0  0  0  0
  1 27  1  6  0  0  0
  2 14  2  0  0  0  0
  2  4  1  0  0  0  0
  3  1  1  0  0  0  0
  3  4  1  0  0  0  0
  3  7  1  0  0  0  0
  3 15  1  6  0  0  0
  4  5  1  0  0  0  0
  5  6  1  0  0  0  0
  5 10  1  0  0  0  0
  5 28  1  1  0  0  0
  6  7  1  0  0  0  0
  6  8  1  0  0  0  0
  6  9  1  0  0  0  0
  8 29  1  0  0  0  0
  8 30  1  0  0  0  0
  8 31  1  0  0  0  0
  9 32  1  0  0  0  0
  9 33  1  0  0  0  0
  9 34  1  0  0  0  0
 10 11  1  0  0  0  0
 10 12  2  0  0  0  0
 11 35  1  0  0  0  0
 13 16  1  0  0  0  0
 13 36  1  0  0  0  0
 16 17  2  0  0  0  0
 16 18  1  0  0  0  0
 18 19  1  0  0  0  0
 18 25  1  0  0  0  0
 18 37  1  6  0  0  0
 20 19  1  0  0  0  0
 20 21  2  0  0  0  0
 20 38  1  0  0  0  0
 21 22  1  0  0  0  0
 21 39  1  0  0  0  0
 22 23  2  0  0  0  0
 22 40  1  0  0  0  0
 23 24  1  0  0  0  0
 23 41  1  0  0  0  0
 24 19  2  0  0  0  0
 24 42  1  0  0  0  0
 25 26  2  0  0  0  0
 26 43  1  0  0  0  0
 26 44  1  0  0  0  0
M  END
>  <DRUGBANK_ID>
DB13836

>  <COMMON_NAME>
Metampicillin

>  <CAS_NUMBER>
6489-97-0

>  <UNII>
G0H6U7VSTK

>  <SYNONYMS>
Metampicilina; Metampicillin; Metampicilline; Metampicillinum

$$$$
