MLN
 OpenBabel10282417072D

 58 58  0  0  0  0  0  0  0  0999 V2000
    3.9651    2.2687    0.0000 O   0  0  0  0  0  0  0  0  0  0  0  0
    4.6796    1.8562    0.0000 P   0  0  0  0  0  0  0  0  0  0  0  0
    5.0921    2.5707    0.0000 O   0  0  0  0  0  0  0  0  0  0  0  0
    5.3940    1.4437    0.0000 O   0  0  0  0  0  0  0  0  0  0  0  0
    4.2671    1.1418    0.0000 O   0  0  0  0  0  0  0  0  0  0  0  0
    5.3940    0.6187    0.0000 C   0  0  2  0  0  0  0  0  0  0  0  0
    4.6796    0.2062    0.0000 C   0  0  0  0  0  0  0  0  0  0  0  0
    6.1085    0.2062    0.0000 C   0  0  0  0  0  0  0  0  0  0  0  0
    6.8230    0.6187    0.0000 C   0  0  0  0  0  0  0  0  0  0  0  0
    7.5375    0.2062    0.0000 C   0  0  0  0  0  0  0  0  0  0  0  0
    7.5375   -0.6188    0.0000 C   0  0  0  0  0  0  0  0  0  0  0  0
    4.6796   -0.6188    0.0000 O   0  0  0  0  0  0  0  0  0  0  0  0
    3.9651    0.6187    0.0000 N   0  0  0  0  0  0  0  0  0  0  0  0
    3.2506    0.2062    0.0000 C   0  0  1  0  0  0  0  0  0  0  0  0
    3.2506   -0.6188    0.0000 C   0  0  0  0  0  0  0  0  0  0  0  0
    2.5362   -1.0313    0.0000 C   0  0  0  0  0  0  0  0  0  0  0  0
    2.5362   -1.8563    0.0000 C   0  0  0  0  0  0  0  0  0  0  0  0
    1.8217   -0.6188    0.0000 C   0  0  0  0  0  0  0  0  0  0  0  0
    2.5362    0.6187    0.0000 C   0  0  0  0  0  0  0  0  0  0  0  0
    1.8217    0.2062    0.0000 N   0  0  0  0  0  0  0  0  0  0  0  0
    2.5362    1.4437    0.0000 O   0  0  0  0  0  0  0  0  0  0  0  0
    1.1072    0.6187    0.0000 C   0  0  0  0  0  0  0  0  0  0  0  0
    0.3928    0.2062    0.0000 C   0  0  0  0  0  0  0  0  0  0  0  0
   -0.3217    0.6187    0.0000 C   0  0  0  0  0  0  0  0  0  0  0  0
   -0.3217    1.4437    0.0000 C   0  0  0  0  0  0  0  0  0  0  0  0
    0.3928    1.8562    0.0000 C   0  0  0  0  0  0  0  0  0  0  0  0
    1.1072    1.4437    0.0000 C   0  0  0  0  0  0  0  0  0  0  0  0
   -1.0362    1.8562    0.0000 N   0  3  0  0  0  0  0  0  0  0  0  0
   -1.7507    1.4437    0.0000 O   0  5  0  0  0  0  0  0  0  0  0  0
   -1.0362    2.6812    0.0000 O   0  0  0  0  0  0  0  0  0  0  0  0
    4.8884    0.9107    0.0000 H   0  0  0  0  0  0  0  0  0  0  0  0
    3.7563   -0.0857    0.0000 H   0  0  0  0  0  0  0  0  0  0  0  0
    3.9651    3.2387    0.0000 H   0  0  0  0  0  0  0  0  0  0  0  0
    3.2971    1.1418    0.0000 H   0  0  0  0  0  0  0  0  0  0  0  0
    6.1085   -0.8638    0.0000 H   0  0  0  0  0  0  0  0  0  0  0  0
    7.0351   -0.3288    0.0000 H   0  0  0  0  0  0  0  0  0  0  0  0
    6.8230    1.6887    0.0000 H   0  0  0  0  0  0  0  0  0  0  0  0
    7.7496    1.1537    0.0000 H   0  0  0  0  0  0  0  0  0  0  0  0
    8.4641    0.7412    0.0000 H   0  0  0  0  0  0  0  0  0  0  0  0
    8.4641   -0.3288    0.0000 H   0  0  0  0  0  0  0  0  0  0  0  0
    6.6109   -1.1538    0.0000 H   0  0  0  0  0  0  0  0  0  0  0  0
    8.4641   -1.1538    0.0000 H   0  0  0  0  0  0  0  0  0  0  0  0
    7.5375   -1.6888    0.0000 H   0  0  0  0  0  0  0  0  0  0  0  0
    3.9651    1.6032    0.0000 H   0  0  0  0  0  0  0  0  0  0  0  0
    4.1773   -1.1538    0.0000 H   0  0  0  0  0  0  0  0  0  0  0  0
    3.2506   -1.6888    0.0000 H   0  0  0  0  0  0  0  0  0  0  0  0
    1.6096   -1.5663    0.0000 H   0  0  0  0  0  0  0  0  0  0  0  0
    1.6096   -2.3913    0.0000 H   0  0  0  0  0  0  0  0  0  0  0  0
    3.4628   -2.3913    0.0000 H   0  0  0  0  0  0  0  0  0  0  0  0
    2.5362   -2.9263    0.0000 H   0  0  0  0  0  0  0  0  0  0  0  0
    1.8217    0.4512    0.0000 H   0  0  0  0  0  0  0  0  0  0  0  0
    0.8951   -1.1538    0.0000 H   0  0  0  0  0  0  0  0  0  0  0  0
    0.8950   -0.0838    0.0000 H   0  0  0  0  0  0  0  0  0  0  0  0
    1.8217   -0.7783    0.0000 H   0  0  0  0  0  0  0  0  0  0  0  0
    0.3928   -0.8258    0.0000 H   0  0  0  0  0  0  0  0  0  0  0  0
   -1.2154    0.1027    0.0000 H   0  0  0  0  0  0  0  0  0  0  0  0
    0.3928    2.8882    0.0000 H   0  0  0  0  0  0  0  0  0  0  0  0
    2.0009    1.9597    0.0000 H   0  0  0  0  0  0  0  0  0  0  0  0
  1  2  1  0  0  0  0
  1 33  1  0  0  0  0
  2  3  2  0  0  0  0
  2  4  1  0  0  0  0
  2  5  1  0  0  0  0
  5 34  1  0  0  0  0
  6  4  1  0  0  0  0
  6  7  1  0  0  0  0
  6  8  1  0  0  0  0
  6 31  1  6  0  0  0
  7 12  2  0  0  0  0
  7 13  1  0  0  0  0
  8  9  1  0  0  0  0
  8 35  1  0  0  0  0
  8 36  1  0  0  0  0
  9 10  1  0  0  0  0
  9 37  1  0  0  0  0
  9 38  1  0  0  0  0
 10 11  1  0  0  0  0
 10 39  1  0  0  0  0
 10 40  1  0  0  0  0
 11 41  1  0  0  0  0
 11 42  1  0  0  0  0
 11 43  1  0  0  0  0
 13 44  1  0  0  0  0
 14 13  1  0  0  0  0
 14 15  1  0  0  0  0
 14 19  1  0  0  0  0
 14 32  1  6  0  0  0
 15 16  1  0  0  0  0
 15 45  1  0  0  0  0
 15 46  1  0  0  0  0
 16 17  1  0  0  0  0
 16 18  1  0  0  0  0
 16 47  1  0  0  0  0
 17 48  1  0  0  0  0
 17 49  1  0  0  0  0
 17 50  1  0  0  0  0
 18 51  1  0  0  0  0
 18 52  1  0  0  0  0
 18 53  1  0  0  0  0
 19 20  1  0  0  0  0
 19 21  2  0  0  0  0
 20 22  1  0  0  0  0
 20 54  1  0  0  0  0
 22 23  2  0  0  0  0
 22 27  1  0  0  0  0
 23 24  1  0  0  0  0
 23 55  1  0  0  0  0
 24 25  2  0  0  0  0
 24 56  1  0  0  0  0
 25 26  1  0  0  0  0
 25 28  1  0  0  0  0
 26 27  2  0  0  0  0
 26 57  1  0  0  0  0
 27 58  1  0  0  0  0
 28 29  1  0  0  0  0
 28 30  2  0  0  0  0
M  CHG  2  28   1  29  -1
M  END
>  <DRUGBANK_ID>
DB02276

>  <SECONDARY_ACCESSION_NUMBERS>
EXPT02185

>  <COMMON_NAME>
(S)-2-(Phosphonoxy)Caproyl-L-Leucyl-P-Nitroanilide

$$$$
