HMDB03818.mol
 OpenBabel10282417072D

 51 54  0  0  0  0  0  0  0  0999 V2000
   -2.0637   -0.5198    0.0000 C   0  0  0  0  0  0  0  0  0  0  0  0
   -2.0637   -1.3448    0.0000 C   0  0  1  0  0  0  0  0  0  0  0  0
   -1.3492   -1.7573    0.0000 C   0  0  0  0  0  0  0  0  0  0  0  0
   -0.6348   -1.3448    0.0000 C   0  0  0  0  0  0  0  0  0  0  0  0
   -0.6348   -0.5198    0.0000 C   0  0  2  0  0  0  0  0  0  0  0  0
   -1.3492   -0.1073    0.0000 C   0  0  0  0  0  0  0  0  0  0  0  0
    0.0797   -1.7573    0.0000 C   0  0  0  0  0  0  0  0  0  0  0  0
    0.7942   -1.3448    0.0000 C   0  0  0  0  0  0  0  0  0  0  0  0
    0.7942   -0.5198    0.0000 C   0  0  2  0  0  0  0  0  0  0  0  0
    0.0797   -0.1073    0.0000 C   0  0  2  0  0  0  0  0  0  0  0  0
    1.5086   -0.1073    0.0000 C   0  0  1  0  0  0  0  0  0  0  0  0
    1.5086    0.7177    0.0000 C   0  0  2  0  0  0  0  0  0  0  0  0
    0.7942    1.1302    0.0000 C   0  0  0  0  0  0  0  0  0  0  0  0
    0.0797    0.7177    0.0000 C   0  0  0  0  0  0  0  0  0  0  0  0
    2.2933   -0.3622    0.0000 C   0  0  0  0  0  0  0  0  0  0  0  0
    2.7782    0.3052    0.0000 C   0  0  0  0  0  0  0  0  0  0  0  0
    2.2933    0.9727    0.0000 C   0  0  2  0  0  0  0  0  0  0  0  0
   -0.6348    0.3052    0.0000 C   0  0  0  0  0  0  0  0  0  0  0  0
   -2.7782   -1.7573    0.0000 O   0  0  0  0  0  0  0  0  0  0  0  0
    1.5949    1.5382    0.0000 C   0  0  0  0  0  0  0  0  0  0  0  0
    2.5482    1.7573    0.0000 O   0  0  0  0  0  0  0  0  0  0  0  0
    0.7942    0.3052    0.0000 H   0  0  0  0  0  0  0  0  0  0  0  0
    0.0797   -0.9323    0.0000 H   0  0  0  0  0  0  0  0  0  0  0  0
    1.5086   -0.9323    0.0000 H   0  0  0  0  0  0  0  0  0  0  0  0
   -2.9903    0.0152    0.0000 H   0  0  0  0  0  0  0  0  0  0  0  0
   -2.0637    0.5502    0.0000 H   0  0  0  0  0  0  0  0  0  0  0  0
   -2.9903   -0.8098    0.0000 H   0  0  0  0  0  0  0  0  0  0  0  0
   -1.3492   -2.8273    0.0000 H   0  0  0  0  0  0  0  0  0  0  0  0
   -0.4225   -2.2923    0.0000 H   0  0  0  0  0  0  0  0  0  0  0  0
   -1.3492    0.9627    0.0000 H   0  0  0  0  0  0  0  0  0  0  0  0
   -2.2758    0.4277    0.0000 H   0  0  0  0  0  0  0  0  0  0  0  0
    0.0797   -2.7893    0.0000 H   0  0  0  0  0  0  0  0  0  0  0  0
    1.7208   -1.8798    0.0000 H   0  0  0  0  0  0  0  0  0  0  0  0
    1.7208   -0.8098    0.0000 H   0  0  0  0  0  0  0  0  0  0  0  0
    0.7942    2.2002    0.0000 H   0  0  0  0  0  0  0  0  0  0  0  0
   -0.1324    1.6652    0.0000 H   0  0  0  0  0  0  0  0  0  0  0  0
   -0.8469    1.2527    0.0000 H   0  0  0  0  0  0  0  0  0  0  0  0
   -0.8469    0.1827    0.0000 H   0  0  0  0  0  0  0  0  0  0  0  0
    2.6240   -1.3798    0.0000 H   0  0  0  0  0  0  0  0  0  0  0  0
    3.3501   -0.5296    0.0000 H   0  0  0  0  0  0  0  0  0  0  0  0
    3.8482    0.3052    0.0000 H   0  0  0  0  0  0  0  0  0  0  0  0
    3.2640    1.2586    0.0000 H   0  0  0  0  0  0  0  0  0  0  0  0
    3.3501    1.1401    0.0000 H   0  0  0  0  0  0  0  0  0  0  0  0
    0.2918    0.8402    0.0000 H   0  0  0  0  0  0  0  0  0  0  0  0
   -1.5614    0.8402    0.0000 H   0  0  0  0  0  0  0  0  0  0  0  0
   -0.6348    1.3752    0.0000 H   0  0  0  0  0  0  0  0  0  0  0  0
   -3.6182   -1.2723    0.0000 H   0  0  0  0  0  0  0  0  0  0  0  0
    2.5724    1.9733    0.0000 H   0  0  0  0  0  0  0  0  0  0  0  0
    0.7293    2.1672    0.0000 H   0  0  0  0  0  0  0  0  0  0  0  0
    1.7068    2.6023    0.0000 H   0  0  0  0  0  0  0  0  0  0  0  0
    3.4970    1.9590    0.0000 H   0  0  0  0  0  0  0  0  0  0  0  0
  1  2  1  0  0  0  0
  1 25  1  0  0  0  0
  1 26  1  0  0  0  0
  2  3  1  0  0  0  0
  2 19  1  0  0  0  0
  2 27  1  6  0  0  0
  3  4  1  0  0  0  0
  3 28  1  0  0  0  0
  3 29  1  0  0  0  0
  4  5  1  0  0  0  0
  4  7  2  0  0  0  0
  5  6  1  0  0  0  0
  5 18  1  1  0  0  0
  6  1  1  0  0  0  0
  6 30  1  0  0  0  0
  6 31  1  0  0  0  0
  7  8  1  0  0  0  0
  7 32  1  0  0  0  0
  8  9  1  0  0  0  0
  8 33  1  0  0  0  0
  8 34  1  0  0  0  0
  9 10  1  0  0  0  0
  9 11  1  0  0  0  0
  9 22  1  1  0  0  0
 10  5  1  0  0  0  0
 10 23  1  6  0  0  0
 11 12  1  0  0  0  0
 11 15  1  0  0  0  0
 11 24  1  6  0  0  0
 12 13  1  0  0  0  0
 12 20  1  1  0  0  0
 13 14  1  0  0  0  0
 13 35  1  0  0  0  0
 13 36  1  0  0  0  0
 14 10  1  0  0  0  0
 14 37  1  0  0  0  0
 14 38  1  0  0  0  0
 15 16  1  0  0  0  0
 15 39  1  0  0  0  0
 15 40  1  0  0  0  0
 16 17  1  0  0  0  0
 16 41  1  0  0  0  0
 16 42  1  0  0  0  0
 17 12  1  0  0  0  0
 17 21  1  0  0  0  0
 17 43  1  6  0  0  0
 18 44  1  0  0  0  0
 18 45  1  0  0  0  0
 18 46  1  0  0  0  0
 19 47  1  0  0  0  0
 20 48  1  0  0  0  0
 20 49  1  0  0  0  0
 20 50  1  0  0  0  0
 21 51  1  0  0  0  0
M  END
>  <DRUGBANK_ID>
DB01524

>  <COMMON_NAME>
Androstenediol

>  <CAS_NUMBER>
521-17-5

>  <UNII>
95PS51EMXY

>  <SYNONYMS>
5-andendiol; 5-androstenediol; androst-5-ene-3beta,17beta-diol; androst-5-enediol; Androstenediol; hermaphrodiol

$$$$
