
 OpenBabel10282417072D

 43 45  0  0  1  0  0  0  0  0999 V2000
   13.4713  -10.2244    0.0000 N   0  0  0  0  0  0  0  0  0  0  0  0
   12.7510   -9.8058    0.0000 C   0  0  0  0  0  0  0  0  0  0  0  0
   12.7398  -11.3031    0.0000 C   0  0  1  0  0  0  0  0  0  0  0  0
   14.1880   -9.8058    0.0000 C   0  0  0  0  0  0  0  0  0  0  0  0
   12.7510   -8.9798    0.0000 C   0  0  0  0  0  0  0  0  0  0  0  0
   12.0344  -10.2281    0.0000 C   0  0  0  0  0  0  0  0  0  0  0  0
   12.0685  -10.8240    0.0000 O   0  0  0  0  0  0  0  0  0  0  0  0
   12.4833  -12.0875    0.0000 C   0  0  1  0  0  0  0  0  0  0  0  0
   14.1880   -8.9798    0.0000 N   0  0  0  0  0  0  0  0  0  0  0  0
   12.0344   -8.5687    0.0000 C   0  0  0  0  0  0  0  0  0  0  0  0
   11.3215   -9.8058    0.0000 C   0  0  0  0  0  0  0  0  0  0  0  0
   11.4122  -11.3031    0.0000 C   0  0  1  0  0  0  0  0  0  0  0  0
   11.6611  -12.0875    0.0000 C   0  0  1  0  0  0  0  0  0  0  0  0
   12.9660  -12.7476    0.0000 O   0  0  0  0  0  0  0  0  0  0  0  0
   11.3215   -8.9798    0.0000 C   0  0  0  0  0  0  0  0  0  0  0  0
   10.6955  -10.2131    0.0000 C   0  0  0  0  0  0  0  0  0  0  0  0
   10.6314  -11.0428    0.0000 C   0  0  0  0  0  0  0  0  0  0  0  0
   11.1744  -12.7476    0.0000 O   0  0  0  0  0  0  0  0  0  0  0  0
   10.6558   -8.5687    0.0000 C   0  0  0  0  0  0  0  0  0  0  0  0
    9.8733  -11.5840    0.0000 O   0  0  0  0  0  0  0  0  0  0  0  0
    9.0473  -11.5764    0.0000 P   0  0  0  0  0  0  0  0  0  0  0  0
    8.2289  -11.5764    0.0000 O   0  0  0  0  0  0  0  0  0  0  0  0
    9.0510  -10.7580    0.0000 O   0  0  0  0  0  0  0  0  0  0  0  0
    9.0435  -12.3986    0.0000 O   0  0  0  0  0  0  0  0  0  0  0  0
   12.5508  -10.2499    0.0000 H   0  0  0  0  0  0  0  0  0  0  0  0
   15.0830  -10.3196    0.0000 H   0  0  0  0  0  0  0  0  0  0  0  0
   12.0332  -11.2601    0.0000 H   0  0  0  0  0  0  0  0  0  0  0  0
   13.5400  -11.9195    0.0000 H   0  0  0  0  0  0  0  0  0  0  0  0
   12.0332   -7.5367    0.0000 H   0  0  0  0  0  0  0  0  0  0  0  0
   11.2477  -10.2458    0.0000 H   0  0  0  0  0  0  0  0  0  0  0  0
   12.1435  -13.0426    0.0000 H   0  0  0  0  0  0  0  0  0  0  0  0
   12.5742  -13.6349    0.0000 H   0  0  0  0  0  0  0  0  0  0  0  0
    9.7417   -9.7282    0.0000 H   0  0  0  0  0  0  0  0  0  0  0  0
   10.7524  -11.2816    0.0000 H   0  0  0  0  0  0  0  0  0  0  0  0
    9.7986  -10.7966    0.0000 H   0  0  0  0  0  0  0  0  0  0  0  0
   10.4725   -9.9847    0.0000 H   0  0  0  0  0  0  0  0  0  0  0  0
    9.6462  -10.6253    0.0000 H   0  0  0  0  0  0  0  0  0  0  0  0
   10.2104  -12.6394    0.0000 H   0  0  0  0  0  0  0  0  0  0  0  0
   10.6875   -7.4992    0.0000 H   0  0  0  0  0  0  0  0  0  0  0  0
    9.7137   -9.0760    0.0000 H   0  0  0  0  0  0  0  0  0  0  0  0
    9.7454   -8.0065    0.0000 H   0  0  0  0  0  0  0  0  0  0  0  0
    7.7439  -10.7364    0.0000 H   0  0  0  0  0  0  0  0  0  0  0  0
    9.8932  -10.2768    0.0000 H   0  0  0  0  0  0  0  0  0  0  0  0
  1  2  1  0  0  0  0
  1  4  1  0  0  0  0
  2  5  2  0  0  0  0
  2  6  1  0  0  0  0
  3  1  1  0  0  0  0
  3  7  1  0  0  0  0
  3  8  1  0  0  0  0
  3 25  1  1  0  0  0
  4  9  2  0  0  0  0
  4 26  1  0  0  0  0
  5 10  1  0  0  0  0
  5  9  1  0  0  0  0
  6 11  2  0  0  0  0
  6 27  1  0  0  0  0
  7 12  1  0  0  0  0
  8 13  1  0  0  0  0
  8 14  1  0  0  0  0
  8 28  1  1  0  0  0
 10 15  2  0  0  0  0
 10 29  1  0  0  0  0
 11 16  1  0  0  0  0
 11 15  1  0  0  0  0
 12 17  1  0  0  0  0
 12 13  1  0  0  0  0
 12 30  1  6  0  0  0
 13 18  1  0  0  0  0
 13 31  1  1  0  0  0
 14 32  1  0  0  0  0
 15 19  1  0  0  0  0
 16 33  1  0  0  0  0
 16 34  1  0  0  0  0
 16 35  1  0  0  0  0
 17 20  1  0  0  0  0
 17 36  1  0  0  0  0
 17 37  1  0  0  0  0
 18 38  1  0  0  0  0
 19 39  1  0  0  0  0
 19 40  1  0  0  0  0
 19 41  1  0  0  0  0
 20 21  1  0  0  0  0
 21 22  1  0  0  0  0
 21 23  1  0  0  0  0
 21 24  2  0  0  0  0
 22 42  1  0  0  0  0
 23 43  1  0  0  0  0
M  END
>  <DRUGBANK_ID>
DB02030

>  <SECONDARY_ACCESSION_NUMBERS>
EXPT02761

>  <COMMON_NAME>
Alpha-Ribazole-5'-Phosphate

>  <UNII>
TT4G266KJN

$$$$
