
 OpenBabel10282417072D

 53 57  0  0  0  0  0  0  0  0999 V2000
   -2.3090    1.1936    0.0000 C   0  0  0  0  0  0  0  0  0  0  0  0
   -3.0008    0.7443    0.0000 C   0  0  1  0  0  0  0  0  0  0  0  0
   -2.7873   -0.0525    0.0000 C   0  0  0  0  0  0  0  0  0  0  0  0
   -1.9634   -0.0956    0.0000 N   0  0  0  0  0  0  0  0  0  0  0  0
   -1.6678    0.6744    0.0000 C   0  0  0  0  0  0  0  0  0  0  0  0
   -3.7359    1.1188    0.0000 O   0  0  0  0  0  0  0  0  0  0  0  0
   -1.5141   -0.7875    0.0000 C   0  0  0  0  0  0  0  0  0  0  0  0
   -1.9266   -1.5020    0.0000 O   0  0  0  0  0  0  0  0  0  0  0  0
   -0.6902   -0.7443    0.0000 N   0  0  0  0  0  0  0  0  0  0  0  0
   -0.2409   -1.4362    0.0000 C   0  0  0  0  0  0  0  0  0  0  0  0
    0.5829   -1.4794    0.0000 C   0  0  0  0  0  0  0  0  0  0  0  0
   -0.5365   -2.2064    0.0000 C   0  0  0  0  0  0  0  0  0  0  0  0
    0.1045   -2.7256    0.0000 N   0  0  0  0  0  0  0  0  0  0  0  0
    0.7964   -2.2763    0.0000 N   0  0  0  0  0  0  0  0  0  0  0  0
    1.9631   -1.1096    0.0000 C   0  0  0  0  0  0  0  0  0  0  0  0
    1.1662   -0.8961    0.0000 N   0  0  0  0  0  0  0  0  0  0  0  0
    1.5933   -2.4898    0.0000 C   0  0  0  0  0  0  0  0  0  0  0  0
    2.1766   -1.9065    0.0000 C   0  0  0  0  0  0  0  0  0  0  0  0
    2.5465   -0.5262    0.0000 N   0  0  0  0  0  0  0  0  0  0  0  0
    3.3613   -0.6553    0.0000 C   0  0  0  0  0  0  0  0  0  0  0  0
    3.7359    0.0796    0.0000 C   0  0  0  0  0  0  0  0  0  0  0  0
    3.1525    0.6630    0.0000 C   0  0  0  0  0  0  0  0  0  0  0  0
    2.4175    0.2885    0.0000 C   0  0  2  0  0  0  0  0  0  0  0  0
    1.6824    0.6631    0.0000 C   0  0  0  0  0  0  0  0  0  0  0  0
    0.9680    1.9006    0.0000 C   0  0  0  0  0  0  0  0  0  0  0  0
    0.2535    1.4881    0.0000 C   0  0  0  0  0  0  0  0  0  0  0  0
    0.2535    0.6631    0.0000 C   0  0  0  0  0  0  0  0  0  0  0  0
    0.9679    0.2506    0.0000 C   0  0  0  0  0  0  0  0  0  0  0  0
    1.6824    1.4881    0.0000 C   0  0  0  0  0  0  0  0  0  0  0  0
    1.0111   -0.5732    0.0000 F   0  0  0  0  0  0  0  0  0  0  0  0
    0.9680    2.7256    0.0000 F   0  0  0  0  0  0  0  0  0  0  0  0
   -2.2530    2.2621    0.0000 H   0  0  0  0  0  0  0  0  0  0  0  0
   -1.3315    1.6288    0.0000 H   0  0  0  0  0  0  0  0  0  0  0  0
   -3.0569    1.8128    0.0000 H   0  0  0  0  0  0  0  0  0  0  0  0
   -3.4606   -0.8841    0.0000 H   0  0  0  0  0  0  0  0  0  0  0  0
   -2.3520   -1.0300    0.0000 H   0  0  0  0  0  0  0  0  0  0  0  0
   -0.6343    0.9513    0.0000 H   0  0  0  0  0  0  0  0  0  0  0  0
   -1.4454    1.7210    0.0000 H   0  0  0  0  0  0  0  0  0  0  0  0
   -3.7867    2.0875    0.0000 H   0  0  0  0  0  0  0  0  0  0  0  0
   -0.2432    0.1329    0.0000 H   0  0  0  0  0  0  0  0  0  0  0  0
   -1.5333   -2.4735    0.0000 H   0  0  0  0  0  0  0  0  0  0  0  0
    1.8604   -3.4866    0.0000 H   0  0  0  0  0  0  0  0  0  0  0  0
    3.1734   -2.1736    0.0000 H   0  0  0  0  0  0  0  0  0  0  0  0
    3.8470   -1.6087    0.0000 H   0  0  0  0  0  0  0  0  0  0  0  0
    2.7323   -1.5209    0.0000 H   0  0  0  0  0  0  0  0  0  0  0  0
    4.7927    0.2469    0.0000 H   0  0  0  0  0  0  0  0  0  0  0  0
    4.0666    1.0972    0.0000 H   0  0  0  0  0  0  0  0  0  0  0  0
    3.3199    1.7198    0.0000 H   0  0  0  0  0  0  0  0  0  0  0  0
    2.2869    1.2919    0.0000 H   0  0  0  0  0  0  0  0  0  0  0  0
    2.4175    1.3585    0.0000 H   0  0  0  0  0  0  0  0  0  0  0  0
   -0.6402    2.0041    0.0000 H   0  0  0  0  0  0  0  0  0  0  0  0
   -0.6402    0.1471    0.0000 H   0  0  0  0  0  0  0  0  0  0  0  0
    2.5761    2.0041    0.0000 H   0  0  0  0  0  0  0  0  0  0  0  0
  1  2  1  0  0  0  0
  1  5  1  0  0  0  0
  1 32  1  0  0  0  0
  1 33  1  0  0  0  0
  2  3  1  0  0  0  0
  2  6  1  0  0  0  0
  2 34  1  6  0  0  0
  3  4  1  0  0  0  0
  3 35  1  0  0  0  0
  3 36  1  0  0  0  0
  4  5  1  0  0  0  0
  4  7  1  0  0  0  0
  5 37  1  0  0  0  0
  5 38  1  0  0  0  0
  6 39  1  0  0  0  0
  7  8  2  0  0  0  0
  7  9  1  0  0  0  0
  9 10  1  0  0  0  0
  9 40  1  0  0  0  0
 10 12  1  0  0  0  0
 11 14  1  0  0  0  0
 11 10  2  0  0  0  0
 12 13  2  0  0  0  0
 12 41  1  0  0  0  0
 13 14  1  0  0  0  0
 14 17  1  0  0  0  0
 15 16  2  0  0  0  0
 15 18  1  0  0  0  0
 15 19  1  0  0  0  0
 16 11  1  0  0  0  0
 17 18  2  0  0  0  0
 17 42  1  0  0  0  0
 18 43  1  0  0  0  0
 19 20  1  0  0  0  0
 19 23  1  0  0  0  0
 20 21  1  0  0  0  0
 20 44  1  0  0  0  0
 20 45  1  0  0  0  0
 21 22  1  0  0  0  0
 21 46  1  0  0  0  0
 21 47  1  0  0  0  0
 22 23  1  0  0  0  0
 22 48  1  0  0  0  0
 22 49  1  0  0  0  0
 23 24  1  0  0  0  0
 23 50  1  6  0  0  0
 24 29  1  0  0  0  0
 25 26  1  0  0  0  0
 25 29  2  0  0  0  0
 25 31  1  0  0  0  0
 26 27  2  0  0  0  0
 26 51  1  0  0  0  0
 27 28  1  0  0  0  0
 27 52  1  0  0  0  0
 28 24  2  0  0  0  0
 28 30  1  0  0  0  0
 29 53  1  0  0  0  0
M  END
>  <DRUGBANK_ID>
DB14723

>  <COMMON_NAME>
Larotrectinib

>  <CAS_NUMBER>
1223403-58-4

>  <UNII>
PF9462I9HX

>  <SYNONYMS>
Larotrectinib

$$$$
