
 OpenBabel10282417072D

105104  0  0  1  0  0  0  0  0999 V2000
   12.5664    8.0802    0.0000 C   0  0  0  0  0  0  0  0  0  0  0  0
   11.8520    7.6677    0.0000 C   0  0  0  0  0  0  0  0  0  0  0  0
   11.1375    8.0802    0.0000 C   0  0  0  0  0  0  0  0  0  0  0  0
   11.8520    6.8427    0.0000 C   0  0  2  0  0  0  0  0  0  0  0  0
   11.1375    6.4302    0.0000 N   0  0  0  0  0  0  0  0  0  0  0  0
   10.4230    6.8427    0.0000 C   0  0  0  0  0  0  0  0  0  0  0  0
    9.7086    6.4302    0.0000 C   0  0  0  0  0  0  0  0  0  0  0  0
   10.4230    7.6677    0.0000 O   0  0  0  0  0  0  0  0  0  0  0  0
   12.5664    6.4302    0.0000 C   0  0  0  0  0  0  0  0  0  0  0  0
   12.5664    5.6052    0.0000 O   0  0  0  0  0  0  0  0  0  0  0  0
   13.2809    6.8427    0.0000 N   0  0  0  0  0  0  0  0  0  0  0  0
   13.9954    6.4302    0.0000 C   0  0  1  0  0  0  0  0  0  0  0  0
   13.9954    5.6052    0.0000 C   0  0  0  0  0  0  0  0  0  0  0  0
   14.7099    5.1927    0.0000 O   0  0  0  0  0  0  0  0  0  0  0  0
   14.7099    6.8427    0.0000 C   0  0  0  0  0  0  0  0  0  0  0  0
   14.7099    7.6677    0.0000 O   0  0  0  0  0  0  0  0  0  0  0  0
   15.4243    6.4302    0.0000 N   0  0  0  0  0  0  0  0  0  0  0  0
   16.1388    6.8427    0.0000 C   0  0  1  0  0  0  0  0  0  0  0  0
   16.1388    7.6677    0.0000 C   0  0  0  0  0  0  0  0  0  0  0  0
   16.8533    8.0802    0.0000 C   0  0  0  0  0  0  0  0  0  0  0  0
   16.8533    8.9052    0.0000 C   0  0  0  0  0  0  0  0  0  0  0  0
   17.5677    9.3177    0.0000 N   0  0  0  0  0  0  0  0  0  0  0  0
   17.5677   10.1427    0.0000 C   0  0  0  0  0  0  0  0  0  0  0  0
   16.8533   10.5552    0.0000 N   0  0  0  0  0  0  0  0  0  0  0  0
   18.2822   10.5552    0.0000 N   0  0  0  0  0  0  0  0  0  0  0  0
   16.8533    6.4302    0.0000 C   0  0  0  0  0  0  0  0  0  0  0  0
   16.8533    5.6052    0.0000 O   0  0  0  0  0  0  0  0  0  0  0  0
   17.5677    6.8427    0.0000 N   0  0  0  0  0  0  0  0  0  0  0  0
   18.2822    6.4302    0.0000 C   0  0  1  0  0  0  0  0  0  0  0  0
   18.2822    5.6052    0.0000 C   0  0  0  0  0  0  0  0  0  0  0  0
   17.5677    5.1927    0.0000 C   0  0  0  0  0  0  0  0  0  0  0  0
   17.5677    4.3677    0.0000 C   0  0  0  0  0  0  0  0  0  0  0  0
   16.8533    3.9552    0.0000 N   0  0  0  0  0  0  0  0  0  0  0  0
   16.8533    3.1302    0.0000 C   0  0  0  0  0  0  0  0  0  0  0  0
   17.5677    2.7177    0.0000 N   0  0  0  0  0  0  0  0  0  0  0  0
   16.1388    2.7177    0.0000 N   0  0  0  0  0  0  0  0  0  0  0  0
   18.9967    6.8427    0.0000 C   0  0  0  0  0  0  0  0  0  0  0  0
   18.9967    7.6677    0.0000 O   0  0  0  0  0  0  0  0  0  0  0  0
   19.7112    6.4302    0.0000 N   0  0  0  0  0  0  0  0  0  0  0  0
   20.4256    6.8427    0.0000 C   0  0  1  0  0  0  0  0  0  0  0  0
   21.1401    6.4302    0.0000 C   0  0  0  0  0  0  0  0  0  0  0  0
   21.8546    6.8427    0.0000 C   0  0  0  0  0  0  0  0  0  0  0  0
   22.5690    6.4302    0.0000 C   0  0  0  0  0  0  0  0  0  0  0  0
   23.2835    6.8427    0.0000 N   0  0  0  0  0  0  0  0  0  0  0  0
   23.9980    6.4302    0.0000 C   0  0  0  0  0  0  0  0  0  0  0  0
   24.7124    6.8427    0.0000 N   0  0  0  0  0  0  0  0  0  0  0  0
   23.9980    5.6052    0.0000 N   0  0  0  0  0  0  0  0  0  0  0  0
   20.4256    7.6677    0.0000 C   0  0  0  0  0  0  0  0  0  0  0  0
   21.1401    8.0802    0.0000 N   0  0  0  0  0  0  0  0  0  0  0  0
   19.7112    8.0802    0.0000 O   0  0  0  0  0  0  0  0  0  0  0  0
   13.4931    7.5452    0.0000 H   0  0  0  0  0  0  0  0  0  0  0  0
   12.5664    9.1502    0.0000 H   0  0  0  0  0  0  0  0  0  0  0  0
   13.4930    8.6152    0.0000 H   0  0  0  0  0  0  0  0  0  0  0  0
   10.9254    7.1327    0.0000 H   0  0  0  0  0  0  0  0  0  0  0  0
   11.1375    9.1502    0.0000 H   0  0  0  0  0  0  0  0  0  0  0  0
   10.2109    7.5452    0.0000 H   0  0  0  0  0  0  0  0  0  0  0  0
   10.2108    8.6152    0.0000 H   0  0  0  0  0  0  0  0  0  0  0  0
   10.9254    7.3777    0.0000 H   0  0  0  0  0  0  0  0  0  0  0  0
   11.1375    5.4457    0.0000 H   0  0  0  0  0  0  0  0  0  0  0  0
    8.7819    6.9652    0.0000 H   0  0  0  0  0  0  0  0  0  0  0  0
    9.7086    5.3602    0.0000 H   0  0  0  0  0  0  0  0  0  0  0  0
    8.7820    5.8952    0.0000 H   0  0  0  0  0  0  0  0  0  0  0  0
   13.2809    7.8272    0.0000 H   0  0  0  0  0  0  0  0  0  0  0  0
   13.0688    5.8952    0.0000 H   0  0  0  0  0  0  0  0  0  0  0  0
   13.0688    5.0702    0.0000 H   0  0  0  0  0  0  0  0  0  0  0  0
   13.9954    4.5352    0.0000 H   0  0  0  0  0  0  0  0  0  0  0  0
   14.7099    4.2227    0.0000 H   0  0  0  0  0  0  0  0  0  0  0  0
   15.4243    5.4457    0.0000 H   0  0  0  0  0  0  0  0  0  0  0  0
   15.2122    7.3777    0.0000 H   0  0  0  0  0  0  0  0  0  0  0  0
   15.2122    8.2027    0.0000 H   0  0  0  0  0  0  0  0  0  0  0  0
   16.1388    8.7377    0.0000 H   0  0  0  0  0  0  0  0  0  0  0  0
   17.7799    7.5452    0.0000 H   0  0  0  0  0  0  0  0  0  0  0  0
   17.7799    8.6152    0.0000 H   0  0  0  0  0  0  0  0  0  0  0  0
   15.9266    9.4402    0.0000 H   0  0  0  0  0  0  0  0  0  0  0  0
   16.8533    9.9752    0.0000 H   0  0  0  0  0  0  0  0  0  0  0  0
   18.4203    8.8255    0.0000 H   0  0  0  0  0  0  0  0  0  0  0  0
   16.8533   11.5397    0.0000 H   0  0  0  0  0  0  0  0  0  0  0  0
   16.0007   10.0630    0.0000 H   0  0  0  0  0  0  0  0  0  0  0  0
   19.1348   10.0629    0.0000 H   0  0  0  0  0  0  0  0  0  0  0  0
   17.5677    7.8272    0.0000 H   0  0  0  0  0  0  0  0  0  0  0  0
   17.3556    5.8952    0.0000 H   0  0  0  0  0  0  0  0  0  0  0  0
   19.2088    5.0702    0.0000 H   0  0  0  0  0  0  0  0  0  0  0  0
   18.2822    4.5352    0.0000 H   0  0  0  0  0  0  0  0  0  0  0  0
   16.6411    5.7277    0.0000 H   0  0  0  0  0  0  0  0  0  0  0  0
   16.6411    4.6577    0.0000 H   0  0  0  0  0  0  0  0  0  0  0  0
   18.4944    3.8327    0.0000 H   0  0  0  0  0  0  0  0  0  0  0  0
   17.5677    3.2977    0.0000 H   0  0  0  0  0  0  0  0  0  0  0  0
   16.0007    4.4474    0.0000 H   0  0  0  0  0  0  0  0  0  0  0  0
   17.5677    1.7332    0.0000 H   0  0  0  0  0  0  0  0  0  0  0  0
   18.4203    3.2099    0.0000 H   0  0  0  0  0  0  0  0  0  0  0  0
   15.2862    3.2100    0.0000 H   0  0  0  0  0  0  0  0  0  0  0  0
   19.7112    5.4457    0.0000 H   0  0  0  0  0  0  0  0  0  0  0  0
   20.4256    5.7727    0.0000 H   0  0  0  0  0  0  0  0  0  0  0  0
   21.1401    5.3602    0.0000 H   0  0  0  0  0  0  0  0  0  0  0  0
   22.0667    5.8952    0.0000 H   0  0  0  0  0  0  0  0  0  0  0  0
   21.8546    7.9127    0.0000 H   0  0  0  0  0  0  0  0  0  0  0  0
   22.7813    7.3777    0.0000 H   0  0  0  0  0  0  0  0  0  0  0  0
   22.5690    5.3602    0.0000 H   0  0  0  0  0  0  0  0  0  0  0  0
   23.4956    5.8952    0.0000 H   0  0  0  0  0  0  0  0  0  0  0  0
   23.2835    7.8272    0.0000 H   0  0  0  0  0  0  0  0  0  0  0  0
   25.5650    6.3505    0.0000 H   0  0  0  0  0  0  0  0  0  0  0  0
   24.7124    7.8272    0.0000 H   0  0  0  0  0  0  0  0  0  0  0  0
   23.1454    5.1129    0.0000 H   0  0  0  0  0  0  0  0  0  0  0  0
   21.9927    7.5879    0.0000 H   0  0  0  0  0  0  0  0  0  0  0  0
   21.1401    9.0647    0.0000 H   0  0  0  0  0  0  0  0  0  0  0  0
  1  2  1  0  0  0  0
  1 51  1  0  0  0  0
  1 52  1  0  0  0  0
  1 53  1  0  0  0  0
  2  3  1  0  0  0  0
  2 54  1  0  0  0  0
  3 55  1  0  0  0  0
  3 56  1  0  0  0  0
  3 57  1  0  0  0  0
  4  2  1  0  0  0  0
  4  5  1  0  0  0  0
  4  9  1  0  0  0  0
  4 58  1  6  0  0  0
  5  6  1  0  0  0  0
  5 59  1  0  0  0  0
  6  7  1  0  0  0  0
  6  8  2  0  0  0  0
  7 60  1  0  0  0  0
  7 61  1  0  0  0  0
  7 62  1  0  0  0  0
  9 10  2  0  0  0  0
  9 11  1  0  0  0  0
 11 63  1  0  0  0  0
 12 11  1  0  0  0  0
 12 13  1  0  0  0  0
 12 15  1  0  0  0  0
 12 64  1  1  0  0  0
 13 14  1  0  0  0  0
 13 65  1  0  0  0  0
 13 66  1  0  0  0  0
 14 67  1  0  0  0  0
 15 16  2  0  0  0  0
 15 17  1  0  0  0  0
 17 68  1  0  0  0  0
 18 17  1  0  0  0  0
 18 19  1  0  0  0  0
 18 26  1  0  0  0  0
 18 69  1  6  0  0  0
 19 20  1  0  0  0  0
 19 70  1  0  0  0  0
 19 71  1  0  0  0  0
 20 21  1  0  0  0  0
 20 72  1  0  0  0  0
 20 73  1  0  0  0  0
 21 22  1  0  0  0  0
 21 74  1  0  0  0  0
 21 75  1  0  0  0  0
 22 23  1  0  0  0  0
 22 76  1  0  0  0  0
 23 24  1  0  0  0  0
 23 25  2  0  0  0  0
 24 77  1  0  0  0  0
 24 78  1  0  0  0  0
 25 79  1  0  0  0  0
 26 27  2  0  0  0  0
 26 28  1  0  0  0  0
 28 80  1  0  0  0  0
 29 28  1  0  0  0  0
 29 30  1  0  0  0  0
 29 37  1  0  0  0  0
 29 81  1  1  0  0  0
 30 31  1  0  0  0  0
 30 82  1  0  0  0  0
 30 83  1  0  0  0  0
 31 32  1  0  0  0  0
 31 84  1  0  0  0  0
 31 85  1  0  0  0  0
 32 33  1  0  0  0  0
 32 86  1  0  0  0  0
 32 87  1  0  0  0  0
 33 34  1  0  0  0  0
 33 88  1  0  0  0  0
 34 35  1  0  0  0  0
 34 36  2  0  0  0  0
 35 89  1  0  0  0  0
 35 90  1  0  0  0  0
 36 91  1  0  0  0  0
 37 38  2  0  0  0  0
 37 39  1  0  0  0  0
 39 92  1  0  0  0  0
 40 39  1  0  0  0  0
 40 41  1  0  0  0  0
 40 48  1  0  0  0  0
 40 93  1  1  0  0  0
 41 42  1  0  0  0  0
 41 94  1  0  0  0  0
 41 95  1  0  0  0  0
 42 43  1  0  0  0  0
 42 96  1  0  0  0  0
 42 97  1  0  0  0  0
 43 44  1  0  0  0  0
 43 98  1  0  0  0  0
 43 99  1  0  0  0  0
 44 45  1  0  0  0  0
 44100  1  0  0  0  0
 45 46  1  0  0  0  0
 45 47  2  0  0  0  0
 46101  1  0  0  0  0
 46102  1  0  0  0  0
 47103  1  0  0  0  0
 48 49  1  0  0  0  0
 48 50  2  0  0  0  0
 49104  1  0  0  0  0
 49105  1  0  0  0  0
M  END
>  <DRUGBANK_ID>
DB18345

>  <COMMON_NAME>
CN-105

>  <CAS_NUMBER>
1632243-07-2

>  <UNII>
W525NLS74J

>  <SYNONYMS>
Ac-VSRRR- NH2

$$$$
