
 OpenBabel10282417072D

 73 76  0  0  0  0  0  0  0  0999 V2000
   11.4393   -9.6114    0.0000 O   0  0  0  0  0  0  0  0  0  0  0  0
   14.2878  -12.9149    0.0000 O   0  0  0  0  0  0  0  0  0  0  0  0
   13.5869  -14.1486    0.0000 O   0  0  0  0  0  0  0  0  0  0  0  0
   10.7447  -10.8374    0.0000 N   0  0  0  0  0  0  0  0  0  0  0  0
    5.0193  -13.3238    0.0000 N   0  0  0  0  0  0  0  0  0  0  0  0
   10.7450  -11.6735    0.0000 C   0  0  0  0  0  0  0  0  0  0  0  0
   11.4394  -10.4361    0.0000 C   0  0  0  0  0  0  0  0  0  0  0  0
   10.0305  -10.4252    0.0000 C   0  0  0  0  0  0  0  0  0  0  0  0
    9.3128  -10.8397    0.0000 C   0  0  0  0  0  0  0  0  0  0  0  0
   12.1441  -10.8430    0.0000 C   0  0  0  0  0  0  0  0  0  0  0  0
    7.8882  -11.6673    0.0000 C   0  0  0  0  0  0  0  0  0  0  0  0
    7.1627  -12.0863    0.0000 C   0  0  0  0  0  0  0  0  0  0  0  0
   11.4598  -12.0855    0.0000 C   0  0  0  0  0  0  0  0  0  0  0  0
   10.0158  -12.0952    0.0000 C   0  0  0  0  0  0  0  0  0  0  0  0
   11.4604  -12.9105    0.0000 C   0  0  0  0  0  0  0  0  0  0  0  0
    9.3128  -11.6647    0.0000 C   0  0  0  0  0  0  0  0  0  0  0  0
    8.6026  -10.4297    0.0000 C   0  0  0  0  0  0  0  0  0  0  0  0
    8.5984  -12.0772    0.0000 C   0  0  0  0  0  0  0  0  0  0  0  0
    7.8881  -10.8423    0.0000 C   0  0  0  0  0  0  0  0  0  0  0  0
    6.4482  -11.6738    0.0000 C   0  0  0  0  0  0  0  0  0  0  0  0
    7.1627  -12.9113    0.0000 C   0  0  0  0  0  0  0  0  0  0  0  0
   12.1442  -11.6736    0.0000 C   0  0  0  0  0  0  0  0  0  0  0  0
   12.8585  -10.4304    0.0000 C   0  0  0  0  0  0  0  0  0  0  0  0
   10.0164  -12.9202    0.0000 C   0  0  0  0  0  0  0  0  0  0  0  0
   10.7311  -13.3322    0.0000 C   0  0  0  0  0  0  0  0  0  0  0  0
    5.7338  -12.9113    0.0000 C   0  0  0  0  0  0  0  0  0  0  0  0
    5.7338  -12.0863    0.0000 C   0  0  0  0  0  0  0  0  0  0  0  0
    6.4482  -13.3238    0.0000 C   0  0  0  0  0  0  0  0  0  0  0  0
   12.1808  -13.3258    0.0000 C   0  0  0  0  0  0  0  0  0  0  0  0
   12.8587  -12.0860    0.0000 C   0  0  0  0  0  0  0  0  0  0  0  0
   13.5730  -10.8427    0.0000 C   0  0  0  0  0  0  0  0  0  0  0  0
   13.5731  -11.6733    0.0000 C   0  0  0  0  0  0  0  0  0  0  0  0
   12.8868  -12.9175    0.0000 C   0  0  0  0  0  0  0  0  0  0  0  0
   13.5862  -13.3207    0.0000 C   0  0  0  0  0  0  0  0  0  0  0  0
    4.3148  -12.9169    0.0000 C   0  0  0  0  0  0  0  0  0  0  0  0
    5.0192  -14.1486    0.0000 C   0  0  0  0  0  0  0  0  0  0  0  0
   14.9895  -13.3194    0.0000 C   0  0  0  0  0  0  0  0  0  0  0  0
   10.0303   -9.3552    0.0000 H   0  0  0  0  0  0  0  0  0  0  0  0
    9.1038   -9.8903    0.0000 H   0  0  0  0  0  0  0  0  0  0  0  0
   13.0708  -11.3779    0.0000 H   0  0  0  0  0  0  0  0  0  0  0  0
   12.3532  -11.5689    0.0000 H   0  0  0  0  0  0  0  0  0  0  0  0
    9.1217  -11.5798    0.0000 H   0  0  0  0  0  0  0  0  0  0  0  0
   10.2065  -12.1807    0.0000 H   0  0  0  0  0  0  0  0  0  0  0  0
    8.6025   -9.3977    0.0000 H   0  0  0  0  0  0  0  0  0  0  0  0
    8.5985  -13.1092    0.0000 H   0  0  0  0  0  0  0  0  0  0  0  0
    6.9943  -10.3264    0.0000 H   0  0  0  0  0  0  0  0  0  0  0  0
    6.4482  -10.6418    0.0000 H   0  0  0  0  0  0  0  0  0  0  0  0
    8.0564  -13.4273    0.0000 H   0  0  0  0  0  0  0  0  0  0  0  0
   11.2176  -12.2087    0.0000 H   0  0  0  0  0  0  0  0  0  0  0  0
   12.1443  -12.7436    0.0000 H   0  0  0  0  0  0  0  0  0  0  0  0
   12.8583   -9.3604    0.0000 H   0  0  0  0  0  0  0  0  0  0  0  0
   13.7850   -9.8952    0.0000 H   0  0  0  0  0  0  0  0  0  0  0  0
    9.1230  -13.4368    0.0000 H   0  0  0  0  0  0  0  0  0  0  0  0
   10.7318  -14.3642    0.0000 H   0  0  0  0  0  0  0  0  0  0  0  0
    4.8401  -11.5703    0.0000 H   0  0  0  0  0  0  0  0  0  0  0  0
    6.4482  -14.3558    0.0000 H   0  0  0  0  0  0  0  0  0  0  0  0
   12.1815  -14.3578    0.0000 H   0  0  0  0  0  0  0  0  0  0  0  0
   12.8589  -13.1560    0.0000 H   0  0  0  0  0  0  0  0  0  0  0  0
   13.7855  -12.6208    0.0000 H   0  0  0  0  0  0  0  0  0  0  0  0
   14.4996  -10.3075    0.0000 H   0  0  0  0  0  0  0  0  0  0  0  0
   14.4997  -11.3776    0.0000 H   0  0  0  0  0  0  0  0  0  0  0  0
   14.4998  -12.2081    0.0000 H   0  0  0  0  0  0  0  0  0  0  0  0
   14.4997  -11.1382    0.0000 H   0  0  0  0  0  0  0  0  0  0  0  0
   12.8861  -11.8855    0.0000 H   0  0  0  0  0  0  0  0  0  0  0  0
    4.3150  -11.8469    0.0000 H   0  0  0  0  0  0  0  0  0  0  0  0
    3.3881  -13.4517    0.0000 H   0  0  0  0  0  0  0  0  0  0  0  0
    3.3882  -12.3817    0.0000 H   0  0  0  0  0  0  0  0  0  0  0  0
    4.0925  -14.6835    0.0000 H   0  0  0  0  0  0  0  0  0  0  0  0
    5.9458  -14.6837    0.0000 H   0  0  0  0  0  0  0  0  0  0  0  0
    5.0191  -15.2186    0.0000 H   0  0  0  0  0  0  0  0  0  0  0  0
   14.9902  -14.3894    0.0000 H   0  0  0  0  0  0  0  0  0  0  0  0
   15.9158  -12.7838    0.0000 H   0  0  0  0  0  0  0  0  0  0  0  0
   15.9165  -13.8538    0.0000 H   0  0  0  0  0  0  0  0  0  0  0  0
  1  7  2  0  0  0  0
  2 34  1  0  0  0  0
  2 37  1  0  0  0  0
  3 34  2  0  0  0  0
  4  6  1  0  0  0  0
  4  7  1  0  0  0  0
  4  8  1  0  0  0  0
  5 26  1  0  0  0  0
  5 35  1  0  0  0  0
  5 36  1  0  0  0  0
  6 13  1  0  0  0  0
  6 14  2  0  0  0  0
  7 10  1  0  0  0  0
  8  9  1  0  0  0  0
  8 38  1  0  0  0  0
  8 39  1  0  0  0  0
  9 16  2  0  0  0  0
  9 17  1  0  0  0  0
 10 22  1  0  0  0  0
 10 23  1  0  0  0  0
 10 40  1  0  0  0  0
 11 12  1  0  0  0  0
 11 18  2  0  0  0  0
 11 19  1  0  0  0  0
 12 20  2  0  0  0  0
 12 21  1  0  0  0  0
 13 15  2  0  0  0  0
 13 41  1  0  0  0  0
 14 24  1  0  0  0  0
 14 42  1  0  0  0  0
 15 25  1  0  0  0  0
 15 29  1  0  0  0  0
 16 18  1  0  0  0  0
 16 43  1  0  0  0  0
 17 19  2  0  0  0  0
 17 44  1  0  0  0  0
 18 45  1  0  0  0  0
 19 46  1  0  0  0  0
 20 27  1  0  0  0  0
 20 47  1  0  0  0  0
 21 28  2  0  0  0  0
 21 48  1  0  0  0  0
 22 30  1  0  0  0  0
 22 49  1  0  0  0  0
 22 50  1  0  0  0  0
 23 31  1  0  0  0  0
 23 51  1  0  0  0  0
 23 52  1  0  0  0  0
 24 25  2  0  0  0  0
 24 53  1  0  0  0  0
 25 54  1  0  0  0  0
 26 27  2  0  0  0  0
 26 28  1  0  0  0  0
 27 55  1  0  0  0  0
 28 56  1  0  0  0  0
 29 33  2  0  0  0  0
 29 57  1  0  0  0  0
 30 32  1  0  0  0  0
 30 58  1  0  0  0  0
 30 59  1  0  0  0  0
 31 32  1  0  0  0  0
 31 60  1  0  0  0  0
 31 61  1  0  0  0  0
 32 62  1  0  0  0  0
 32 63  1  0  0  0  0
 33 34  1  0  0  0  0
 33 64  1  0  0  0  0
 35 65  1  0  0  0  0
 35 66  1  0  0  0  0
 35 67  1  0  0  0  0
 36 68  1  0  0  0  0
 36 69  1  0  0  0  0
 36 70  1  0  0  0  0
 37 71  1  0  0  0  0
 37 72  1  0  0  0  0
 37 73  1  0  0  0  0
M  END
>  <DRUGBANK_ID>
DB02545

>  <SECONDARY_ACCESSION_NUMBERS>
EXPT01424

>  <COMMON_NAME>
Fexaramine

>  <CAS_NUMBER>
574013-66-4

>  <UNII>
WTG9GFA65U

$$$$
