D5G
 OpenBabel10282417072D

 49 50  0  0  0  0  0  0  0  0999 V2000
   -3.0264   -0.7449    0.0000 C   0  0  0  0  0  0  0  0  0  0  0  0
   -3.7409   -1.1574    0.0000 C   0  0  0  0  0  0  0  0  0  0  0  0
   -4.4554   -0.7449    0.0000 C   0  0  0  0  0  0  0  0  0  0  0  0
   -4.4554    0.0801    0.0000 C   0  0  0  0  0  0  0  0  0  0  0  0
   -3.7409    0.4926    0.0000 C   0  0  0  0  0  0  0  0  0  0  0  0
   -3.0264    0.0801    0.0000 C   0  0  0  0  0  0  0  0  0  0  0  0
   -2.3120    0.4926    0.0000 N   0  0  0  0  0  0  0  0  0  0  0  0
   -1.5975    0.0801    0.0000 C   0  0  0  0  0  0  0  0  0  0  0  0
   -1.5975   -0.7449    0.0000 S   0  0  0  0  0  0  0  0  0  0  0  0
   -0.8830    0.4926    0.0000 N   0  0  0  0  0  0  0  0  0  0  0  0
   -0.1685    0.0801    0.0000 C   0  0  1  0  0  0  0  0  0  0  0  0
   -0.1685   -0.7449    0.0000 C   0  0  0  0  0  0  0  0  0  0  0  0
    0.5459   -1.1574    0.0000 C   0  0  0  0  0  0  0  0  0  0  0  0
    1.2604   -0.7449    0.0000 C   0  0  0  0  0  0  0  0  0  0  0  0
    0.5459   -1.9824    0.0000 C   0  0  0  0  0  0  0  0  0  0  0  0
    0.5459    0.4926    0.0000 C   0  0  0  0  0  0  0  0  0  0  0  0
    0.5459    1.3176    0.0000 O   0  0  0  0  0  0  0  0  0  0  0  0
    1.2604    0.0801    0.0000 N   0  0  0  0  0  0  0  0  0  0  0  0
    1.9749    0.4926    0.0000 C   0  0  2  0  0  0  0  0  0  0  0  0
    2.0611    1.3131    0.0000 C   0  0  0  0  0  0  0  0  0  0  0  0
    2.8681    1.4846    0.0000 O   0  0  0  0  0  0  0  0  0  0  0  0
    2.7285    0.1570    0.0000 C   0  0  0  0  0  0  0  0  0  0  0  0
    3.2806    0.7701    0.0000 C   0  0  1  0  0  0  0  0  0  0  0  0
    4.1011    0.6839    0.0000 O   0  0  0  0  0  0  0  0  0  0  0  0
   -0.6742   -0.2119    0.0000 H   0  0  0  0  0  0  0  0  0  0  0  0
    1.4852    0.8106    0.0000 H   0  0  0  0  0  0  0  0  0  0  0  0
    3.5986    1.2599    0.0000 H   0  0  0  0  0  0  0  0  0  0  0  0
   -2.1327   -1.2609    0.0000 H   0  0  0  0  0  0  0  0  0  0  0  0
   -3.7409   -2.1894    0.0000 H   0  0  0  0  0  0  0  0  0  0  0  0
   -5.3491   -1.2609    0.0000 H   0  0  0  0  0  0  0  0  0  0  0  0
   -5.3491    0.5961    0.0000 H   0  0  0  0  0  0  0  0  0  0  0  0
   -3.7409    1.5246    0.0000 H   0  0  0  0  0  0  0  0  0  0  0  0
   -2.3120    1.4771    0.0000 H   0  0  0  0  0  0  0  0  0  0  0  0
   -0.8830    1.4771    0.0000 H   0  0  0  0  0  0  0  0  0  0  0  0
   -1.0952   -1.2799    0.0000 H   0  0  0  0  0  0  0  0  0  0  0  0
   -0.1685   -1.8149    0.0000 H   0  0  0  0  0  0  0  0  0  0  0  0
    1.4725   -1.6924    0.0000 H   0  0  0  0  0  0  0  0  0  0  0  0
    2.1870   -1.2799    0.0000 H   0  0  0  0  0  0  0  0  0  0  0  0
    1.2604    0.3251    0.0000 H   0  0  0  0  0  0  0  0  0  0  0  0
    2.1871   -0.2099    0.0000 H   0  0  0  0  0  0  0  0  0  0  0  0
   -0.3807   -2.5174    0.0000 H   0  0  0  0  0  0  0  0  0  0  0  0
    1.4725   -2.5174    0.0000 H   0  0  0  0  0  0  0  0  0  0  0  0
    0.5459   -3.0524    0.0000 H   0  0  0  0  0  0  0  0  0  0  0  0
    1.2604   -0.9044    0.0000 H   0  0  0  0  0  0  0  0  0  0  0  0
    1.2659    2.0291    0.0000 H   0  0  0  0  0  0  0  0  0  0  0  0
    2.3381    2.3466    0.0000 H   0  0  0  0  0  0  0  0  0  0  0  0
    2.9509   -0.8896    0.0000 H   0  0  0  0  0  0  0  0  0  0  0  0
    3.7620   -0.1200    0.0000 H   0  0  0  0  0  0  0  0  0  0  0  0
    4.4957   -0.2022    0.0000 H   0  0  0  0  0  0  0  0  0  0  0  0
  1  2  1  0  0  0  0
  1  6  2  0  0  0  0
  1 28  1  0  0  0  0
  2  3  2  0  0  0  0
  2 29  1  0  0  0  0
  3  4  1  0  0  0  0
  3 30  1  0  0  0  0
  4  5  2  0  0  0  0
  4 31  1  0  0  0  0
  5  6  1  0  0  0  0
  5 32  1  0  0  0  0
  6  7  1  0  0  0  0
  7  8  1  0  0  0  0
  7 33  1  0  0  0  0
  8  9  2  0  0  0  0
  8 10  1  0  0  0  0
 10 34  1  0  0  0  0
 11 10  1  0  0  0  0
 11 12  1  0  0  0  0
 11 16  1  0  0  0  0
 11 25  1  1  0  0  0
 12 13  1  0  0  0  0
 12 35  1  0  0  0  0
 12 36  1  0  0  0  0
 13 14  1  0  0  0  0
 13 15  1  0  0  0  0
 13 37  1  0  0  0  0
 14 38  1  0  0  0  0
 14 39  1  0  0  0  0
 14 40  1  0  0  0  0
 15 41  1  0  0  0  0
 15 42  1  0  0  0  0
 15 43  1  0  0  0  0
 16 17  2  0  0  0  0
 16 18  1  0  0  0  0
 18 44  1  0  0  0  0
 19 18  1  0  0  0  0
 19 20  1  0  0  0  0
 19 22  1  0  0  0  0
 19 26  1  1  0  0  0
 20 21  1  0  0  0  0
 20 45  1  0  0  0  0
 20 46  1  0  0  0  0
 21 23  1  0  0  0  0
 22 23  1  0  0  0  0
 22 47  1  0  0  0  0
 22 48  1  0  0  0  0
 23 24  1  0  0  0  0
 23 27  1  1  0  0  0
 24 49  1  0  0  0  0
M  END
>  <DRUGBANK_ID>
DB07627

>  <COMMON_NAME>
(2S)-4-METHYL-2-(3-PHENYLTHIOUREIDO)-N-((3S)-TETRAHYDRO-2-HYDROXY-3-FURANYL)PENTANAMIDE

$$$$
