26C
 OpenBabel10282417072D

 25 26  0  0  0  0  0  0  0  0999 V2000
    0.6491    2.8772    0.0000 O   0  0  0  0  0  0  0  0  0  0  0  0
   -0.0653    2.4647    0.0000 C   0  0  0  0  0  0  0  0  0  0  0  0
   -0.7798    2.8772    0.0000 O   0  0  0  0  0  0  0  0  0  0  0  0
   -0.0653    1.6397    0.0000 C   0  0  0  0  0  0  0  0  0  0  0  0
    0.6491    1.2272    0.0000 C   0  0  0  0  0  0  0  0  0  0  0  0
   -0.7798    1.2272    0.0000 C   0  0  0  0  0  0  0  0  0  0  0  0
   -0.7798    0.4022    0.0000 C   0  0  0  0  0  0  0  0  0  0  0  0
   -0.0653   -0.0103    0.0000 C   0  0  0  0  0  0  0  0  0  0  0  0
    0.6491    0.4022    0.0000 C   0  0  0  0  0  0  0  0  0  0  0  0
   -0.0653   -0.8353    0.0000 C   0  0  0  0  0  0  0  0  0  0  0  0
    0.6491   -1.2478    0.0000 C   0  0  0  0  0  0  0  0  0  0  0  0
    1.3636   -0.8353    0.0000 F   0  0  0  0  0  0  0  0  0  0  0  0
    0.6491   -2.0728    0.0000 C   0  0  0  0  0  0  0  0  0  0  0  0
   -0.0653   -2.4853    0.0000 C   0  0  0  0  0  0  0  0  0  0  0  0
   -0.7798   -2.0728    0.0000 C   0  0  0  0  0  0  0  0  0  0  0  0
   -0.7798   -1.2478    0.0000 C   0  0  0  0  0  0  0  0  0  0  0  0
   -1.4943   -0.8353    0.0000 F   0  0  0  0  0  0  0  0  0  0  0  0
   -0.7798    3.8142    0.0000 H   0  0  0  0  0  0  0  0  0  0  0  0
    1.5428    1.7432    0.0000 H   0  0  0  0  0  0  0  0  0  0  0  0
   -1.6735    1.7432    0.0000 H   0  0  0  0  0  0  0  0  0  0  0  0
   -1.6735   -0.1138    0.0000 H   0  0  0  0  0  0  0  0  0  0  0  0
    1.5428   -0.1138    0.0000 H   0  0  0  0  0  0  0  0  0  0  0  0
    1.5428   -2.5888    0.0000 H   0  0  0  0  0  0  0  0  0  0  0  0
   -0.0653   -3.5173    0.0000 H   0  0  0  0  0  0  0  0  0  0  0  0
   -1.6735   -2.5888    0.0000 H   0  0  0  0  0  0  0  0  0  0  0  0
  1  2  2  0  0  0  0
  2  3  1  0  0  0  0
  2  4  1  0  0  0  0
  3 18  1  0  0  0  0
  4  5  2  0  0  0  0
  4  6  1  0  0  0  0
  5  9  1  0  0  0  0
  5 19  1  0  0  0  0
  6  7  2  0  0  0  0
  6 20  1  0  0  0  0
  7  8  1  0  0  0  0
  7 21  1  0  0  0  0
  8  9  2  0  0  0  0
  8 10  1  0  0  0  0
  9 22  1  0  0  0  0
 10 11  1  0  0  0  0
 10 16  2  0  0  0  0
 11 12  1  0  0  0  0
 11 13  2  0  0  0  0
 13 14  1  0  0  0  0
 13 23  1  0  0  0  0
 14 15  2  0  0  0  0
 14 24  1  0  0  0  0
 15 16  1  0  0  0  0
 15 25  1  0  0  0  0
 16 17  1  0  0  0  0
M  END
>  <DRUGBANK_ID>
DB06935

>  <COMMON_NAME>
2',6'-DIFLUOROBIPHENYL-4-CARBOXYLIC ACID

$$$$
