
 OpenBabel10282417072D

  1  0  0  0  0  0  0  0  0  0999 V2000
    0.0000    0.0000    0.0000 In  0  1  0  0  0  0  0  0  0  0  0  0
M  ISO  1   1 111
M  CHG  1   1   3
M  END
>  <DRUGBANK_ID>
DB14535

>  <COMMON_NAME>
Indium cation In-111

>  <CAS_NUMBER>
131391-70-3

>  <UNII>
WJZ06C0H8L

>  <SYNONYMS>
Indium (111In) cation; Indium cation In 111; Indium cation In-111 (3+); Indium In-111 cation; Indium-111 cation; Indium, ion (In3+) In-111

$$$$
