
 OpenBabel10282417072D

 72 77  0  0  1  0  0  0  0  0999 V2000
    0.4210    6.1875    0.0000 F   0  0  0  0  0  0  0  0  0  0  0  0
    0.4210    7.0125    0.0000 C   0  0  0  0  0  0  0  0  0  0  0  0
   -0.2934    7.4250    0.0000 C   0  0  0  0  0  0  0  0  0  0  0  0
   -0.2934    8.2500    0.0000 C   0  0  0  0  0  0  0  0  0  0  0  0
    0.4210    8.6625    0.0000 C   0  0  0  0  0  0  0  0  0  0  0  0
    1.1355    8.2500    0.0000 C   0  0  0  0  0  0  0  0  0  0  0  0
    1.1355    7.4250    0.0000 C   0  0  0  0  0  0  0  0  0  0  0  0
    1.8500    7.0125    0.0000 N   0  0  0  0  0  0  0  0  0  0  0  0
    2.5645    7.4250    0.0000 C   0  0  0  0  0  0  0  0  0  0  0  0
    3.2789    7.0125    0.0000 C   0  0  0  0  0  0  0  0  0  0  0  0
    3.2789    6.1875    0.0000 N   0  0  0  0  0  0  0  0  0  0  0  0
    3.9934    5.7750    0.0000 C   0  0  0  0  0  0  0  0  0  0  0  0
    3.9934    4.9500    0.0000 C   0  0  0  0  0  0  0  0  0  0  0  0
    4.7079    4.5375    0.0000 C   0  0  0  0  0  0  0  0  0  0  0  0
    4.7079    3.7125    0.0000 C   0  0  0  0  0  0  0  0  0  0  0  0
    3.9934    3.3000    0.0000 C   0  0  0  0  0  0  0  0  0  0  0  0
    3.9934    2.4750    0.0000 C   0  0  0  0  0  0  0  0  0  0  0  0
    3.2789    2.0625    0.0000 O   0  0  0  0  0  0  0  0  0  0  0  0
    3.2789    1.2375    0.0000 C   0  0  0  0  0  0  0  0  0  0  0  0
    3.9934    0.8250    0.0000 C   0  0  0  0  0  0  0  0  0  0  0  0
    3.9934    0.0000    0.0000 C   0  0  0  0  0  0  0  0  0  0  0  0
    3.2789   -0.4125    0.0000 C   0  0  0  0  0  0  0  0  0  0  0  0
    2.5645    0.0000    0.0000 C   0  0  0  0  0  0  0  0  0  0  0  0
    1.7798   -0.2549    0.0000 C   0  0  0  0  0  0  0  0  0  0  0  0
    1.5249   -1.0396    0.0000 O   0  0  0  0  0  0  0  0  0  0  0  0
    1.2949    0.4125    0.0000 N   0  0  0  0  0  0  0  0  0  0  0  0
    1.7798    1.0799    0.0000 C   0  0  0  0  0  0  0  0  0  0  0  0
    2.5645    0.8250    0.0000 C   0  0  0  0  0  0  0  0  0  0  0  0
    0.4699    0.4125    0.0000 C   0  0  1  0  0  0  0  0  0  0  0  0
    0.0574   -0.3020    0.0000 C   0  0  0  0  0  0  0  0  0  0  0  0
   -0.7676   -0.3020    0.0000 C   0  0  0  0  0  0  0  0  0  0  0  0
   -1.1801    0.4125    0.0000 C   0  0  0  0  0  0  0  0  0  0  0  0
   -2.0051    0.4125    0.0000 O   0  0  0  0  0  0  0  0  0  0  0  0
   -0.7676    1.1270    0.0000 N   0  0  0  0  0  0  0  0  0  0  0  0
    0.0574    1.1270    0.0000 C   0  0  0  0  0  0  0  0  0  0  0  0
    0.4699    1.8414    0.0000 O   0  0  0  0  0  0  0  0  0  0  0  0
    3.2789    3.7125    0.0000 C   0  0  0  0  0  0  0  0  0  0  0  0
    3.2789    4.5375    0.0000 C   0  0  0  0  0  0  0  0  0  0  0  0
    2.5645    5.7750    0.0000 C   0  0  0  0  0  0  0  0  0  0  0  0
    1.8500    6.1875    0.0000 C   0  0  0  0  0  0  0  0  0  0  0  0
   -1.0079    8.6625    0.0000 C   0  0  0  0  0  0  0  0  0  0  0  0
   -1.7224    9.0750    0.0000 N   0  0  0  0  0  0  0  0  0  0  0  0
   -1.1871    6.9090    0.0000 H   0  0  0  0  0  0  0  0  0  0  0  0
    0.4210    9.6945    0.0000 H   0  0  0  0  0  0  0  0  0  0  0  0
    2.0292    8.7660    0.0000 H   0  0  0  0  0  0  0  0  0  0  0  0
    2.5645    8.4950    0.0000 H   0  0  0  0  0  0  0  0  0  0  0  0
    3.4912    7.9600    0.0000 H   0  0  0  0  0  0  0  0  0  0  0  0
    4.2056    7.5475    0.0000 H   0  0  0  0  0  0  0  0  0  0  0  0
    4.2055    6.4775    0.0000 H   0  0  0  0  0  0  0  0  0  0  0  0
    4.9200    6.3100    0.0000 H   0  0  0  0  0  0  0  0  0  0  0  0
    4.9200    5.2400    0.0000 H   0  0  0  0  0  0  0  0  0  0  0  0
    5.6016    5.0535    0.0000 H   0  0  0  0  0  0  0  0  0  0  0  0
    5.6016    3.1965    0.0000 H   0  0  0  0  0  0  0  0  0  0  0  0
    4.9200    1.9400    0.0000 H   0  0  0  0  0  0  0  0  0  0  0  0
    3.9934    1.4050    0.0000 H   0  0  0  0  0  0  0  0  0  0  0  0
    4.8871    1.3410    0.0000 H   0  0  0  0  0  0  0  0  0  0  0  0
    4.8871   -0.5160    0.0000 H   0  0  0  0  0  0  0  0  0  0  0  0
    3.2789   -1.4445    0.0000 H   0  0  0  0  0  0  0  0  0  0  0  0
    1.4491    2.0975    0.0000 H   0  0  0  0  0  0  0  0  0  0  0  0
    2.5364    1.8365    0.0000 H   0  0  0  0  0  0  0  0  0  0  0  0
    1.0049   -0.5141    0.0000 H   0  0  0  0  0  0  0  0  0  0  0  0
    0.5924   -1.2286    0.0000 H   0  0  0  0  0  0  0  0  0  0  0  0
   -0.4776   -1.2286    0.0000 H   0  0  0  0  0  0  0  0  0  0  0  0
   -1.3026   -1.2286    0.0000 H   0  0  0  0  0  0  0  0  0  0  0  0
   -1.8376   -0.3020    0.0000 H   0  0  0  0  0  0  0  0  0  0  0  0
   -1.2599    1.9796    0.0000 H   0  0  0  0  0  0  0  0  0  0  0  0
    2.3852    3.1965    0.0000 H   0  0  0  0  0  0  0  0  0  0  0  0
    2.3852    5.0535    0.0000 H   0  0  0  0  0  0  0  0  0  0  0  0
    2.5645    4.7050    0.0000 H   0  0  0  0  0  0  0  0  0  0  0  0
    1.6379    5.2400    0.0000 H   0  0  0  0  0  0  0  0  0  0  0  0
    0.9234    5.6525    0.0000 H   0  0  0  0  0  0  0  0  0  0  0  0
    0.9234    6.7225    0.0000 H   0  0  0  0  0  0  0  0  0  0  0  0
  1  2  1  0  0  0  0
  2  3  2  0  0  0  0
  2  7  1  0  0  0  0
  3  4  1  0  0  0  0
  3 43  1  0  0  0  0
  4  5  2  0  0  0  0
  4 41  1  0  0  0  0
  5  6  1  0  0  0  0
  5 44  1  0  0  0  0
  6  7  2  0  0  0  0
  6 45  1  0  0  0  0
  7  8  1  0  0  0  0
  8  9  1  0  0  0  0
  8 40  1  0  0  0  0
  9 10  1  0  0  0  0
  9 46  1  0  0  0  0
  9 47  1  0  0  0  0
 10 11  1  0  0  0  0
 10 48  1  0  0  0  0
 10 49  1  0  0  0  0
 11 12  1  0  0  0  0
 11 39  1  0  0  0  0
 12 13  1  0  0  0  0
 12 50  1  0  0  0  0
 12 51  1  0  0  0  0
 13 14  2  0  0  0  0
 13 38  1  0  0  0  0
 14 15  1  0  0  0  0
 14 52  1  0  0  0  0
 15 16  2  0  0  0  0
 15 53  1  0  0  0  0
 16 17  1  0  0  0  0
 16 37  1  0  0  0  0
 17 18  1  0  0  0  0
 17 54  1  0  0  0  0
 17 55  1  0  0  0  0
 18 19  1  0  0  0  0
 19 20  2  0  0  0  0
 19 28  1  0  0  0  0
 20 21  1  0  0  0  0
 20 56  1  0  0  0  0
 21 22  2  0  0  0  0
 21 57  1  0  0  0  0
 22 23  1  0  0  0  0
 22 58  1  0  0  0  0
 23 24  1  0  0  0  0
 23 28  2  0  0  0  0
 24 25  2  0  0  0  0
 24 26  1  0  0  0  0
 26 27  1  0  0  0  0
 27 28  1  0  0  0  0
 27 59  1  0  0  0  0
 27 60  1  0  0  0  0
 29 26  1  0  0  0  0
 29 30  1  0  0  0  0
 29 35  1  0  0  0  0
 29 61  1  6  0  0  0
 30 31  1  0  0  0  0
 30 62  1  0  0  0  0
 30 63  1  0  0  0  0
 31 32  1  0  0  0  0
 31 64  1  0  0  0  0
 31 65  1  0  0  0  0
 32 33  2  0  0  0  0
 32 34  1  0  0  0  0
 34 35  1  0  0  0  0
 34 66  1  0  0  0  0
 35 36  2  0  0  0  0
 37 38  2  0  0  0  0
 37 67  1  0  0  0  0
 38 68  1  0  0  0  0
 39 40  1  0  0  0  0
 39 69  1  0  0  0  0
 39 70  1  0  0  0  0
 40 71  1  0  0  0  0
 40 72  1  0  0  0  0
 41 42  3  0  0  0  0
M  END
>  <DRUGBANK_ID>
DB17584

>  <COMMON_NAME>
Mezigdomide

>  <CAS_NUMBER>
2259648-80-9

>  <UNII>
LA88IH4O02

>  <SYNONYMS>
4-(4-((4-(((2-((3s)-2,6-dioxopiperidin-3-yl)-1-oxo-2,3-dihydro-1h-isoindol-4- yl)oxy)methyl)phenyl)methyl)piperazin-1-yl)-3-fluorobenzonitrile; Benzonitrile, 4-(4-((4-(((2-((3s)-2,6-dioxo-3-piperidinyl)-2,3-dihydro-1-oxo-1h-isoindol-4-yl)oxy)methyl)phenyl)methyl)-1-piperazinyl)-3-fluoro-

$$$$
