
 OpenBabel10282417072D

 53 55  0  0  0  0  0  0  0  0999 V2000
   -5.2686    1.4458    0.0000 C   0  0  0  0  0  0  0  0  0  0  0  0
   -5.2698    0.6185    0.0000 C   0  0  0  0  0  0  0  0  0  0  0  0
   -4.5548    0.2056    0.0000 C   0  0  0  0  0  0  0  0  0  0  0  0
   -3.8383    0.6189    0.0000 C   0  0  0  0  0  0  0  0  0  0  0  0
   -3.8412    1.4496    0.0000 C   0  0  0  0  0  0  0  0  0  0  0  0
   -4.5566    1.8587    0.0000 C   0  0  0  0  0  0  0  0  0  0  0  0
   -3.1295    0.2083    0.0000 C   0  0  3  0  0  0  0  0  0  0  0  0
   -2.6499    0.8718    0.0000 O   0  0  0  0  0  0  0  0  0  0  0  0
   -1.8655    0.6156    0.0000 N   0  0  0  0  0  0  0  0  0  0  0  0
   -1.8649   -0.2095    0.0000 C   0  0  0  0  0  0  0  0  0  0  0  0
   -2.6524   -0.4643    0.0000 C   0  0  0  0  0  0  0  0  0  0  0  0
    0.2827   -1.4562    0.0000 C   0  0  0  0  0  0  0  0  0  0  0  0
    0.9953   -1.8645    0.0000 C   0  0  0  0  0  0  0  0  0  0  0  0
    1.7078   -1.4520    0.0000 N   0  0  0  0  0  0  0  0  0  0  0  0
    2.4204   -1.8603    0.0000 C   0  0  0  0  0  0  0  0  0  0  0  0
    3.1330   -1.4477    0.0000 C   0  0  0  0  0  0  0  0  0  0  0  0
    3.8455   -1.8562    0.0000 N   0  0  0  0  0  0  0  0  0  0  0  0
    4.5581   -1.4436    0.0000 C   0  0  0  0  0  0  0  0  0  0  0  0
    5.2731   -1.8552    0.0000 C   0  0  0  0  0  0  0  0  0  0  0  0
    5.9879   -2.2670    0.0000 F   0  0  0  0  0  0  0  0  0  0  0  0
   -1.1474   -0.6292    0.0000 C   0  0  0  0  0  0  0  0  0  0  0  0
   -1.1485   -1.4566    0.0000 C   0  0  0  0  0  0  0  0  0  0  0  0
   -0.4336   -1.8695    0.0000 C   0  0  0  0  0  0  0  0  0  0  0  0
    0.2799   -0.6255    0.0000 C   0  0  0  0  0  0  0  0  0  0  0  0
   -0.4354   -0.2164    0.0000 C   0  0  0  0  0  0  0  0  0  0  0  0
    0.9875   -2.6877    0.0000 O   0  0  0  0  0  0  0  0  0  0  0  0
    3.1252   -0.6209    0.0000 O   0  0  0  0  0  0  0  0  0  0  0  0
    4.8614   -2.5703    0.0000 F   0  0  0  0  0  0  0  0  0  0  0  0
    5.6846   -1.1403    0.0000 F   0  0  0  0  0  0  0  0  0  0  0  0
   -3.7170   -0.3750    0.0000 C   0  0  0  0  0  0  0  0  0  0  0  0
   -3.5081   -1.0459    0.0000 F   0  0  0  0  0  0  0  0  0  0  0  0
   -4.4738   -0.2329    0.0000 F   0  0  0  0  0  0  0  0  0  0  0  0
   -4.3046   -0.9584    0.0000 F   0  0  0  0  0  0  0  0  0  0  0  0
   -5.9879    0.2125    0.0000 Cl  0  0  0  0  0  0  0  0  0  0  0  0
   -4.5629    2.6877    0.0000 Cl  0  0  0  0  0  0  0  0  0  0  0  0
    0.9917   -0.2084    0.0000 C   0  0  0  0  0  0  0  0  0  0  0  0
   -6.1625    1.9616    0.0000 H   0  0  0  0  0  0  0  0  0  0  0  0
   -4.5551   -0.8264    0.0000 H   0  0  0  0  0  0  0  0  0  0  0  0
   -2.9494    1.9690    0.0000 H   0  0  0  0  0  0  0  0  0  0  0  0
   -2.9894   -1.4798    0.0000 H   0  0  0  0  0  0  0  0  0  0  0  0
   -3.7107   -0.6224    0.0000 H   0  0  0  0  0  0  0  0  0  0  0  0
    1.7056   -0.4675    0.0000 H   0  0  0  0  0  0  0  0  0  0  0  0
    2.4228   -2.9303    0.0000 H   0  0  0  0  0  0  0  0  0  0  0  0
    3.3480   -2.3937    0.0000 H   0  0  0  0  0  0  0  0  0  0  0  0
    3.8476   -2.8407    0.0000 H   0  0  0  0  0  0  0  0  0  0  0  0
    4.5568   -0.3736    0.0000 H   0  0  0  0  0  0  0  0  0  0  0  0
    5.4841   -0.9074    0.0000 H   0  0  0  0  0  0  0  0  0  0  0  0
   -2.0426   -1.9719    0.0000 H   0  0  0  0  0  0  0  0  0  0  0  0
   -0.4338   -2.9015    0.0000 H   0  0  0  0  0  0  0  0  0  0  0  0
   -0.4384    0.8156    0.0000 H   0  0  0  0  0  0  0  0  0  0  0  0
    1.9218   -0.7374    0.0000 H   0  0  0  0  0  0  0  0  0  0  0  0
    0.9848    0.8616    0.0000 H   0  0  0  0  0  0  0  0  0  0  0  0
    1.9149    0.3326    0.0000 H   0  0  0  0  0  0  0  0  0  0  0  0
  1  2  2  0  0  0  0
  1 37  1  0  0  0  0
  2  3  1  0  0  0  0
  2 34  1  0  0  0  0
  3  4  2  0  0  0  0
  3 38  1  0  0  0  0
  4  5  1  0  0  0  0
  5  6  2  0  0  0  0
  5 39  1  0  0  0  0
  6  1  1  0  0  0  0
  6 35  1  0  0  0  0
  7  8  1  0  0  0  0
  7  4  1  0  0  0  0
  7 30  1  0  0  0  0
  8  9  1  0  0  0  0
  9 10  2  0  0  0  0
 10 11  1  0  0  0  0
 11  7  1  0  0  0  0
 11 40  1  0  0  0  0
 11 41  1  0  0  0  0
 12 24  1  0  0  0  0
 12 13  1  0  0  0  0
 13 26  2  0  0  0  0
 13 14  1  0  0  0  0
 14 15  1  0  0  0  0
 14 42  1  0  0  0  0
 15 16  1  0  0  0  0
 15 43  1  0  0  0  0
 15 44  1  0  0  0  0
 16 27  2  0  0  0  0
 16 17  1  0  0  0  0
 17 18  1  0  0  0  0
 17 45  1  0  0  0  0
 18 19  1  0  0  0  0
 18 46  1  0  0  0  0
 18 47  1  0  0  0  0
 19 20  1  0  0  0  0
 19 28  1  0  0  0  0
 19 29  1  0  0  0  0
 21 22  2  0  0  0  0
 21 10  1  0  0  0  0
 22 23  1  0  0  0  0
 22 48  1  0  0  0  0
 23 12  2  0  0  0  0
 23 49  1  0  0  0  0
 24 25  2  0  0  0  0
 24 36  1  0  0  0  0
 25 21  1  0  0  0  0
 25 50  1  0  0  0  0
 30 31  1  0  0  0  0
 30 32  1  0  0  0  0
 30 33  1  0  0  0  0
 36 51  1  0  0  0  0
 36 52  1  0  0  0  0
 36 53  1  0  0  0  0
M  END
>  <DRUGBANK_ID>
DB11414

>  <COMMON_NAME>
Fluralaner

>  <CAS_NUMBER>
864731-61-3

>  <UNII>
WSH8393RM5

>  <SYNONYMS>
Fluralaner

$$$$
