
 OpenBabel10282417072D

 63 67  0  0  0  0  0  0  0  0999 V2000
   -3.9192   -0.8190    0.0000 C   0  0  0  0  0  0  0  0  0  0  0  0
   -3.9203   -1.6458    0.0000 C   0  0  0  0  0  0  0  0  0  0  0  0
   -3.2059   -2.0586    0.0000 C   0  0  0  0  0  0  0  0  0  0  0  0
   -2.4899   -1.6454    0.0000 C   0  0  0  0  0  0  0  0  0  0  0  0
   -2.4927   -0.8153    0.0000 C   0  0  0  0  0  0  0  0  0  0  0  0
   -3.2077   -0.4064    0.0000 C   0  0  0  0  0  0  0  0  0  0  0  0
    3.2082   -0.8237    0.0000 C   0  0  0  0  0  0  0  0  0  0  0  0
    3.9203   -0.4115    0.0000 C   0  0  0  0  0  0  0  0  0  0  0  0
    4.6325   -0.8195    0.0000 N   0  0  0  0  0  0  0  0  0  0  0  0
    5.3446   -0.4072    0.0000 C   0  0  0  0  0  0  0  0  0  0  0  0
    1.7818   -0.8273    0.0000 C   0  0  0  0  0  0  0  0  0  0  0  0
    1.7806   -1.6543    0.0000 C   0  0  0  0  0  0  0  0  0  0  0  0
    2.4951   -2.0668    0.0000 C   0  0  0  0  0  0  0  0  0  0  0  0
    3.2111   -1.6538    0.0000 C   0  0  0  0  0  0  0  0  0  0  0  0
    2.4933   -0.4147    0.0000 C   0  0  0  0  0  0  0  0  0  0  0  0
   -1.0624    1.6462    0.0000 C   0  0  0  0  0  0  0  0  0  0  0  0
   -1.0636    0.8193    0.0000 C   0  0  0  0  0  0  0  0  0  0  0  0
   -0.3492    0.4067    0.0000 C   0  0  0  0  0  0  0  0  0  0  0  0
    0.3669    0.8198    0.0000 C   0  0  0  0  0  0  0  0  0  0  0  0
    0.3640    1.6498    0.0000 C   0  0  0  0  0  0  0  0  0  0  0  0
   -0.3510    2.0588    0.0000 C   0  0  0  0  0  0  0  0  0  0  0  0
   -2.4903    1.6503    0.0000 C   0  0  0  0  0  0  0  0  0  0  0  0
   -1.7781    2.0626    0.0000 N   0  0  0  0  0  0  0  0  0  0  0  0
   -3.9136    1.6503    0.0000 C   0  0  0  0  0  0  0  0  0  0  0  0
   -3.9136    0.8258    0.0000 C   0  0  0  0  0  0  0  0  0  0  0  0
   -3.2019    0.4177    0.0000 C   0  0  0  0  0  0  0  0  0  0  0  0
   -2.4903    0.8258    0.0000 N   0  0  0  0  0  0  0  0  0  0  0  0
   -3.2019    2.0668    0.0000 N   0  0  0  0  0  0  0  0  0  0  0  0
   -5.3435    1.6462    0.0000 C   0  0  0  0  0  0  0  0  0  0  0  0
   -5.3446    0.8193    0.0000 C   0  0  0  0  0  0  0  0  0  0  0  0
   -4.6301    0.4067    0.0000 C   0  0  0  0  0  0  0  0  0  0  0  0
   -4.6320    2.0588    0.0000 C   0  0  0  0  0  0  0  0  0  0  0  0
    1.0753    0.4094    0.0000 C   0  0  0  0  0  0  0  0  0  0  0  0
    1.0710   -0.4150    0.0000 N   0  0  0  0  0  0  0  0  0  0  0  0
    1.7874    0.8258    0.0000 O   0  0  0  0  0  0  0  0  0  0  0  0
    1.0628   -2.0600    0.0000 C   0  0  0  0  0  0  0  0  0  0  0  0
   -4.8131   -0.3033    0.0000 H   0  0  0  0  0  0  0  0  0  0  0  0
   -4.8145   -2.1610    0.0000 H   0  0  0  0  0  0  0  0  0  0  0  0
   -3.2062   -3.0906    0.0000 H   0  0  0  0  0  0  0  0  0  0  0  0
   -1.5953   -2.1600    0.0000 H   0  0  0  0  0  0  0  0  0  0  0  0
   -1.6009   -0.2960    0.0000 H   0  0  0  0  0  0  0  0  0  0  0  0
    3.9179    0.6585    0.0000 H   0  0  0  0  0  0  0  0  0  0  0  0
    4.8454    0.1261    0.0000 H   0  0  0  0  0  0  0  0  0  0  0  0
    4.6348   -1.8395    0.0000 H   0  0  0  0  0  0  0  0  0  0  0  0
    6.2719   -0.9411    0.0000 H   0  0  0  0  0  0  0  0  0  0  0  0
    5.3433    0.6628    0.0000 H   0  0  0  0  0  0  0  0  0  0  0  0
    6.2706    0.1289    0.0000 H   0  0  0  0  0  0  0  0  0  0  0  0
    2.4949   -3.0988    0.0000 H   0  0  0  0  0  0  0  0  0  0  0  0
    4.1056   -2.1684    0.0000 H   0  0  0  0  0  0  0  0  0  0  0  0
    2.4903    0.6173    0.0000 H   0  0  0  0  0  0  0  0  0  0  0  0
   -1.9578    0.3040    0.0000 H   0  0  0  0  0  0  0  0  0  0  0  0
   -0.3495   -0.6253    0.0000 H   0  0  0  0  0  0  0  0  0  0  0  0
    1.2558    2.1691    0.0000 H   0  0  0  0  0  0  0  0  0  0  0  0
   -0.3541    3.0908    0.0000 H   0  0  0  0  0  0  0  0  0  0  0  0
   -1.7770    3.0471    0.0000 H   0  0  0  0  0  0  0  0  0  0  0  0
   -6.2374    2.1619    0.0000 H   0  0  0  0  0  0  0  0  0  0  0  0
   -6.2387    0.3039    0.0000 H   0  0  0  0  0  0  0  0  0  0  0  0
   -4.6272   -0.6253    0.0000 H   0  0  0  0  0  0  0  0  0  0  0  0
   -4.6364    3.0908    0.0000 H   0  0  0  0  0  0  0  0  0  0  0  0
    0.2166   -0.9042    0.0000 H   0  0  0  0  0  0  0  0  0  0  0  0
    0.1411   -1.5165    0.0000 H   0  0  0  0  0  0  0  0  0  0  0  0
    1.0530   -3.1300    0.0000 H   0  0  0  0  0  0  0  0  0  0  0  0
    0.1313   -2.5865    0.0000 H   0  0  0  0  0  0  0  0  0  0  0  0
  1  2  2  0  0  0  0
  1 37  1  0  0  0  0
  2  3  1  0  0  0  0
  2 38  1  0  0  0  0
  3  4  2  0  0  0  0
  3 39  1  0  0  0  0
  4  5  1  0  0  0  0
  4 40  1  0  0  0  0
  5  6  2  0  0  0  0
  5 41  1  0  0  0  0
  6  1  1  0  0  0  0
  7 15  2  0  0  0  0
  7  8  1  0  0  0  0
  8  9  1  0  0  0  0
  8 42  1  0  0  0  0
  8 43  1  0  0  0  0
  9 10  1  0  0  0  0
  9 44  1  0  0  0  0
 10 45  1  0  0  0  0
 10 46  1  0  0  0  0
 10 47  1  0  0  0  0
 11 12  2  0  0  0  0
 12 13  1  0  0  0  0
 12 36  1  0  0  0  0
 13 14  2  0  0  0  0
 13 48  1  0  0  0  0
 14  7  1  0  0  0  0
 14 49  1  0  0  0  0
 15 11  1  0  0  0  0
 15 50  1  0  0  0  0
 16 17  2  0  0  0  0
 17 18  1  0  0  0  0
 17 51  1  0  0  0  0
 18 19  2  0  0  0  0
 18 52  1  0  0  0  0
 19 20  1  0  0  0  0
 19 33  1  0  0  0  0
 20 21  2  0  0  0  0
 20 53  1  0  0  0  0
 21 16  1  0  0  0  0
 21 54  1  0  0  0  0
 22 23  1  0  0  0  0
 22 28  2  0  0  0  0
 23 16  1  0  0  0  0
 23 55  1  0  0  0  0
 24 25  1  0  0  0  0
 24 28  1  0  0  0  0
 24 32  2  0  0  0  0
 25 26  1  0  0  0  0
 26 27  2  0  0  0  0
 26  6  1  0  0  0  0
 27 22  1  0  0  0  0
 29 30  2  0  0  0  0
 29 56  1  0  0  0  0
 30 31  1  0  0  0  0
 30 57  1  0  0  0  0
 31 25  2  0  0  0  0
 31 58  1  0  0  0  0
 32 29  1  0  0  0  0
 32 59  1  0  0  0  0
 33 34  1  0  0  0  0
 33 35  2  0  0  0  0
 34 11  1  0  0  0  0
 34 60  1  0  0  0  0
 36 61  1  0  0  0  0
 36 62  1  0  0  0  0
 36 63  1  0  0  0  0
M  END
>  <DRUGBANK_ID>
DB16844

>  <COMMON_NAME>
BMS-833923

>  <CAS_NUMBER>
1059734-66-5

>  <UNII>
41J7ZJ239R

>  <SYNONYMS>
BMS-833923 free base anhydrous

$$$$
