
 OpenBabel10282417072D

 75 78  0  0  0  0  0  0  0  0999 V2000
   -3.4969   -0.5702    0.0000 P   0  0  3  0  0  0  0  0  0  0  0  0
    0.4192   -2.3139    0.0000 P   0  0  3  0  0  0  0  0  0  0  0  0
   -2.1915   -1.1514    0.0000 P   0  0  3  0  0  0  0  0  0  0  0  0
   -0.8861   -1.7326    0.0000 P   0  0  3  0  0  0  0  0  0  0  0  0
   -5.0323    1.4629    0.0000 O   0  0  0  0  0  0  0  0  0  0  0  0
    3.0972   -3.4219    0.0000 O   0  0  0  0  0  0  0  0  0  0  0  0
   -6.5971    0.0108    0.0000 O   0  0  0  0  0  0  0  0  0  0  0  0
   -7.1517    1.7178    0.0000 O   0  0  0  0  0  0  0  0  0  0  0  0
    2.6221   -1.3407    0.0000 O   0  0  0  0  0  0  0  0  0  0  0  0
   -3.9818    0.0971    0.0000 O   0  0  0  0  0  0  0  0  0  0  0  0
    1.2398   -2.2276    0.0000 O   0  0  0  0  0  0  0  0  0  0  0  0
   -7.1285    2.7728    0.0000 O   0  0  0  0  0  0  0  0  0  0  0  0
   -3.0119   -1.2377    0.0000 O   0  0  0  0  0  0  0  0  0  0  0  0
    5.2798   -2.2614    0.0000 O   0  0  0  0  0  0  0  0  0  0  0  0
   -0.4011   -2.4001    0.0000 O   0  0  0  0  0  0  0  0  0  0  0  0
   -2.8294   -0.0853    0.0000 O   0  0  0  0  0  0  0  0  0  0  0  0
   -4.1642   -1.0551    0.0000 O   0  0  0  0  0  0  0  0  0  0  0  0
    0.5055   -3.1343    0.0000 O   0  0  0  0  0  0  0  0  0  0  0  0
   -5.6996    5.2479    0.0000 O   0  0  0  0  0  0  0  0  0  0  0  0
    0.3330   -1.4934    0.0000 O   0  0  0  0  0  0  0  0  0  0  0  0
   -1.3710   -1.0652    0.0000 O   0  0  0  0  0  0  0  0  0  0  0  0
   -2.1052   -1.9719    0.0000 O   0  0  0  0  0  0  0  0  0  0  0  0
   -0.2186   -1.2477    0.0000 O   0  0  0  0  0  0  0  0  0  0  0  0
   -2.2777   -0.3309    0.0000 O   0  0  0  0  0  0  0  0  0  0  0  0
   -1.5534   -2.2176    0.0000 O   0  0  0  0  0  0  0  0  0  0  0  0
   -5.6996    2.7728    0.0000 N   0  0  0  0  0  0  0  0  0  0  0  0
    4.5653   -3.4989    0.0000 N   0  0  0  0  0  0  0  0  0  0  0  0
   -6.4141    4.0104    0.0000 N   0  0  0  0  0  0  0  0  0  0  0  0
    5.9942   -3.4989    0.0000 N   0  0  0  0  0  0  0  0  0  0  0  0
    6.7087   -4.7364    0.0000 N   0  0  0  0  0  0  0  0  0  0  0  0
   -6.1122    0.6783    0.0000 C   0  0  1  0  0  0  0  0  0  0  0  0
   -6.3671    1.4629    0.0000 C   0  0  2  0  0  0  0  0  0  0  0  0
   -5.2872    0.6783    0.0000 C   0  0  1  0  0  0  0  0  0  0  0  0
   -5.6996    1.9478    0.0000 C   0  0  1  0  0  0  0  0  0  0  0  0
    2.9577   -2.0944    0.0000 C   0  0  2  0  0  0  0  0  0  0  0  0
    2.5452   -2.8088    0.0000 C   0  0  1  0  0  0  0  0  0  0  0  0
    3.7646   -2.2659    0.0000 C   0  0  0  0  0  0  0  0  0  0  0  0
    3.8509   -3.0863    0.0000 C   0  0  1  0  0  0  0  0  0  0  0  0
   -4.8023    0.0108    0.0000 C   0  0  0  0  0  0  0  0  0  0  0  0
    1.7246   -2.8950    0.0000 C   0  0  0  0  0  0  0  0  0  0  0  0
   -6.4141    3.1853    0.0000 C   0  0  0  0  0  0  0  0  0  0  0  0
   -4.9852    3.1853    0.0000 C   0  0  0  0  0  0  0  0  0  0  0  0
    4.5653   -4.3238    0.0000 C   0  0  0  0  0  0  0  0  0  0  0  0
    5.2798   -3.0863    0.0000 C   0  0  0  0  0  0  0  0  0  0  0  0
   -4.9852    4.0104    0.0000 C   0  0  0  0  0  0  0  0  0  0  0  0
   -5.6996    4.4228    0.0000 C   0  0  0  0  0  0  0  0  0  0  0  0
    5.2798   -4.7364    0.0000 C   0  0  0  0  0  0  0  0  0  0  0  0
    5.9942   -4.3238    0.0000 C   0  0  0  0  0  0  0  0  0  0  0  0
   -6.8570    4.2661    0.0000 H   0  0  0  0  0  0  0  0  0  0  0  0
    7.1517   -4.4806    0.0000 H   0  0  0  0  0  0  0  0  0  0  0  0
    6.7087   -5.2479    0.0000 H   0  0  0  0  0  0  0  0  0  0  0  0
   -7.5618    0.1121    0.0000 H   0  0  0  0  0  0  0  0  0  0  0  0
   -7.3534    2.6666    0.0000 H   0  0  0  0  0  0  0  0  0  0  0  0
    3.1922   -0.5559    0.0000 H   0  0  0  0  0  0  0  0  0  0  0  0
   -1.9433   -0.4799    0.0000 H   0  0  0  0  0  0  0  0  0  0  0  0
   -0.2792   -3.7045    0.0000 H   0  0  0  0  0  0  0  0  0  0  0  0
   -2.8899   -2.5421    0.0000 H   0  0  0  0  0  0  0  0  0  0  0  0
    0.6675   -1.6423    0.0000 H   0  0  0  0  0  0  0  0  0  0  0  0
   -7.1690    0.8457    0.0000 H   0  0  0  0  0  0  0  0  0  0  0  0
   -7.1237    0.7063    0.0000 H   0  0  0  0  0  0  0  0  0  0  0  0
   -4.2304    0.8457    0.0000 H   0  0  0  0  0  0  0  0  0  0  0  0
   -4.7462    2.4335    0.0000 H   0  0  0  0  0  0  0  0  0  0  0  0
    1.8892   -2.0384    0.0000 H   0  0  0  0  0  0  0  0  0  0  0  0
    2.1617   -3.8077    0.0000 H   0  0  0  0  0  0  0  0  0  0  0  0
    4.5597   -1.5499    0.0000 H   0  0  0  0  0  0  0  0  0  0  0  0
    4.7636   -2.6493    0.0000 H   0  0  0  0  0  0  0  0  0  0  0  0
    3.7948   -4.1548    0.0000 H   0  0  0  0  0  0  0  0  0  0  0  0
   -5.2375   -0.9667    0.0000 H   0  0  0  0  0  0  0  0  0  0  0  0
   -5.8664   -0.1010    0.0000 H   0  0  0  0  0  0  0  0  0  0  0  0
    1.2893   -3.8725    0.0000 H   0  0  0  0  0  0  0  0  0  0  0  0
    2.3535   -3.7607    0.0000 H   0  0  0  0  0  0  0  0  0  0  0  0
   -4.0915    2.6693    0.0000 H   0  0  0  0  0  0  0  0  0  0  0  0
    3.6715   -4.8398    0.0000 H   0  0  0  0  0  0  0  0  0  0  0  0
   -4.0915    4.5264    0.0000 H   0  0  0  0  0  0  0  0  0  0  0  0
    5.2798   -5.7684    0.0000 H   0  0  0  0  0  0  0  0  0  0  0  0
  1 10  1  0  0  0  0
  1 13  1  0  0  0  0
  1 16  1  0  0  0  0
  1 17  2  0  0  0  0
  2 11  1  0  0  0  0
  2 15  1  0  0  0  0
  2 18  1  0  0  0  0
  2 20  2  0  0  0  0
  3 13  1  0  0  0  0
  3 21  1  0  0  0  0
  3 22  1  0  0  0  0
  3 24  2  0  0  0  0
  4 15  1  0  0  0  0
  4 21  1  0  0  0  0
  4 23  1  0  0  0  0
  4 25  2  0  0  0  0
  5 33  1  0  0  0  0
  5 34  1  0  0  0  0
  6 36  1  0  0  0  0
  6 38  1  0  0  0  0
  7 52  1  0  0  0  0
  8 53  1  0  0  0  0
  9 54  1  0  0  0  0
 10 39  1  0  0  0  0
 11 40  1  0  0  0  0
 12 41  2  0  0  0  0
 14 44  2  0  0  0  0
 16 55  1  0  0  0  0
 18 56  1  0  0  0  0
 19 46  2  0  0  0  0
 22 57  1  0  0  0  0
 23 58  1  0  0  0  0
 26 41  1  0  0  0  0
 26 42  1  0  0  0  0
 27 43  1  0  0  0  0
 27 44  1  0  0  0  0
 28 41  1  0  0  0  0
 28 46  1  0  0  0  0
 28 49  1  0  0  0  0
 29 44  1  0  0  0  0
 29 48  2  0  0  0  0
 30 48  1  0  0  0  0
 30 50  1  0  0  0  0
 30 51  1  0  0  0  0
 31  7  1  0  0  0  0
 31 32  1  0  0  0  0
 31 33  1  0  0  0  0
 31 59  1  6  0  0  0
 32  8  1  0  0  0  0
 32 34  1  0  0  0  0
 32 60  1  6  0  0  0
 33 39  1  0  0  0  0
 33 61  1  1  0  0  0
 34 26  1  0  0  0  0
 34 62  1  1  0  0  0
 35  9  1  0  0  0  0
 35 36  1  0  0  0  0
 35 37  1  0  0  0  0
 35 63  1  6  0  0  0
 36 40  1  0  0  0  0
 36 64  1  1  0  0  0
 37 38  1  0  0  0  0
 37 65  1  0  0  0  0
 37 66  1  0  0  0  0
 38 27  1  0  0  0  0
 38 67  1  1  0  0  0
 39 68  1  0  0  0  0
 39 69  1  0  0  0  0
 40 70  1  0  0  0  0
 40 71  1  0  0  0  0
 42 45  2  0  0  0  0
 42 72  1  0  0  0  0
 43 47  2  0  0  0  0
 43 73  1  0  0  0  0
 45 46  1  0  0  0  0
 45 74  1  0  0  0  0
 47 48  1  0  0  0  0
 47 75  1  0  0  0  0
M  END
>  <DRUGBANK_ID>
DB04983

>  <COMMON_NAME>
Denufosol

>  <CAS_NUMBER>
211448-85-0

>  <UNII>
5PC250KSSH

>  <SYNONYMS>
Denufosol

$$$$
