
 OpenBabel10282417072D

 61 62  0  0  0  0  0  0  0  0999 V2000
    0.7109   -0.2154    0.0000 C   0  0  0  0  0  0  0  0  0  0  0  0
   -2.1435   -0.2236    0.0000 C   0  0  0  0  0  0  0  0  0  0  0  0
    0.0048   -0.6353    0.0000 C   0  0  0  0  0  0  0  0  0  0  0  0
   -1.4204   -0.6356    0.0000 C   0  0  1  0  0  0  0  0  0  0  0  0
   -0.7099   -0.2229    0.0000 C   0  0  0  0  0  0  0  0  0  0  0  0
    1.4298   -0.6203    0.0000 N   0  0  0  0  0  0  0  0  0  0  0  0
    4.2588    1.0721    0.0000 C   0  0  0  0  0  0  0  0  0  0  0  0
   -2.8454   -0.6485    0.0000 O   0  0  0  0  0  0  0  0  0  0  0  0
    3.5608    0.6525    0.0000 C   0  0  2  0  0  0  0  0  0  0  0  0
    0.7027    0.6098    0.0000 O   0  0  0  0  0  0  0  0  0  0  0  0
   -2.1394    0.6016    0.0000 O   0  0  0  0  0  0  0  0  0  0  0  0
    4.9860    0.6675    0.0000 O   0  0  0  0  0  0  0  0  0  0  0  0
    2.8341    1.0446    0.0000 C   0  0  0  0  0  0  0  0  0  0  0  0
    3.5610   -0.1729    0.0000 C   0  0  0  0  0  0  0  0  0  0  0  0
    2.1487   -0.1998    0.0000 C   0  0  1  0  0  0  0  0  0  0  0  0
    4.2545    1.8973    0.0000 O   0  0  0  0  0  0  0  0  0  0  0  0
    2.1361    0.6250    0.0000 C   0  0  0  0  0  0  0  0  0  0  0  0
    2.8551   -0.6054    0.0000 C   0  0  0  0  0  0  0  0  0  0  0  0
   -1.4152   -1.4604    0.0000 C   0  0  0  0  0  0  0  0  0  0  0  0
   -0.6658   -1.1102    0.0000 C   0  0  0  0  0  0  0  0  0  0  0  0
    0.6795   -1.1102    0.0000 C   0  0  0  0  0  0  0  0  0  0  0  0
   -2.1330   -1.8774    0.0000 O   0  0  0  0  0  0  0  0  0  0  0  0
   -4.2765   -1.4788    0.0000 O   0  0  0  0  0  0  0  0  0  0  0  0
   -3.5617   -1.8867    0.0000 C   0  0  0  0  0  0  0  0  0  0  0  0
   -2.8479   -1.4697    0.0000 C   0  0  0  0  0  0  0  0  0  0  0  0
   -4.9860   -1.8958    0.0000 C   0  0  0  0  0  0  0  0  0  0  0  0
   -0.4158   -1.8973    0.0000 C   0  0  0  0  0  0  0  0  0  0  0  0
    0.4088   -1.8973    0.0000 C   0  0  0  0  0  0  0  0  0  0  0  0
   -2.3438   -1.1762    0.0000 H   0  0  0  0  0  0  0  0  0  0  0  0
   -0.7114    0.8471    0.0000 H   0  0  0  0  0  0  0  0  0  0  0  0
    0.2163    0.3129    0.0000 H   0  0  0  0  0  0  0  0  0  0  0  0
    1.4378   -1.6048    0.0000 H   0  0  0  0  0  0  0  0  0  0  0  0
   -3.6664   -0.1969    0.0000 H   0  0  0  0  0  0  0  0  0  0  0  0
    4.4922    0.1258    0.0000 H   0  0  0  0  0  0  0  0  0  0  0  0
    5.0009   -0.2694    0.0000 H   0  0  0  0  0  0  0  0  0  0  0  0
    2.8092    2.1143    0.0000 H   0  0  0  0  0  0  0  0  0  0  0  0
    3.7465    1.6035    0.0000 H   0  0  0  0  0  0  0  0  0  0  0  0
    4.4946   -0.6956    0.0000 H   0  0  0  0  0  0  0  0  0  0  0  0
    3.5820   -1.2427    0.0000 H   0  0  0  0  0  0  0  0  0  0  0  0
    1.2165    0.3255    0.0000 H   0  0  0  0  0  0  0  0  0  0  0  0
    1.2008    1.1447    0.0000 H   0  0  0  0  0  0  0  0  0  0  0  0
    1.2181    0.0754    0.0000 H   0  0  0  0  0  0  0  0  0  0  0  0
    2.8703   -1.6753    0.0000 H   0  0  0  0  0  0  0  0  0  0  0  0
    1.9329   -1.1481    0.0000 H   0  0  0  0  0  0  0  0  0  0  0  0
   -0.4862   -1.9912    0.0000 H   0  0  0  0  0  0  0  0  0  0  0  0
   -1.4114   -2.5304    0.0000 H   0  0  0  0  0  0  0  0  0  0  0  0
   -1.6803   -0.7700    0.0000 H   0  0  0  0  0  0  0  0  0  0  0  0
   -1.4284   -1.8607    0.0000 H   0  0  0  0  0  0  0  0  0  0  0  0
    1.6975   -0.7806    0.0000 H   0  0  0  0  0  0  0  0  0  0  0  0
    1.4292   -1.8736    0.0000 H   0  0  0  0  0  0  0  0  0  0  0  0
   -3.5563   -2.9567    0.0000 H   0  0  0  0  0  0  0  0  0  0  0  0
   -2.6323   -2.4170    0.0000 H   0  0  0  0  0  0  0  0  0  0  0  0
   -2.8535   -0.3997    0.0000 H   0  0  0  0  0  0  0  0  0  0  0  0
   -1.9241   -0.9298    0.0000 H   0  0  0  0  0  0  0  0  0  0  0  0
   -5.9168   -1.3680    0.0000 H   0  0  0  0  0  0  0  0  0  0  0  0
   -4.9777   -2.9658    0.0000 H   0  0  0  0  0  0  0  0  0  0  0  0
   -5.9085   -2.4380    0.0000 H   0  0  0  0  0  0  0  0  0  0  0  0
   -1.0476   -2.7609    0.0000 H   0  0  0  0  0  0  0  0  0  0  0  0
    0.0684   -2.8515    0.0000 H   0  0  0  0  0  0  0  0  0  0  0  0
    1.0303   -2.7683    0.0000 H   0  0  0  0  0  0  0  0  0  0  0  0
   -0.0810   -2.8486    0.0000 H   0  0  0  0  0  0  0  0  0  0  0  0
  2  4  1  0  0  0  0
  3  1  1  0  0  0  0
  4  5  1  0  0  0  0
  4 19  1  0  0  0  0
  4 29  1  6  0  0  0
  5  3  1  0  0  0  0
  5 30  1  0  0  0  0
  5 31  1  0  0  0  0
  6  1  1  0  0  0  0
  6 32  1  0  0  0  0
  8  2  1  0  0  0  0
  8 33  1  0  0  0  0
  9  7  1  0  0  0  0
  9 14  1  0  0  0  0
  9 13  1  0  0  0  0
  9 34  1  6  0  0  0
 10  1  2  0  0  0  0
 11  2  2  0  0  0  0
 12  7  1  0  0  0  0
 12 35  1  0  0  0  0
 13 17  1  0  0  0  0
 13 36  1  0  0  0  0
 13 37  1  0  0  0  0
 14 18  1  0  0  0  0
 14 38  1  0  0  0  0
 14 39  1  0  0  0  0
 15  6  1  0  0  0  0
 15 40  1  6  0  0  0
 16  7  2  0  0  0  0
 17 15  1  0  0  0  0
 17 41  1  0  0  0  0
 17 42  1  0  0  0  0
 18 15  1  0  0  0  0
 18 43  1  0  0  0  0
 18 44  1  0  0  0  0
 19 45  1  0  0  0  0
 19 46  1  0  0  0  0
 20  3  1  0  0  0  0
 20 47  1  0  0  0  0
 20 48  1  0  0  0  0
 21  3  1  0  0  0  0
 21 49  1  0  0  0  0
 21 50  1  0  0  0  0
 22 19  1  0  0  0  0
 23 24  1  0  0  0  0
 24 25  1  0  0  0  0
 24 51  1  0  0  0  0
 24 52  1  0  0  0  0
 25 22  1  0  0  0  0
 25 53  1  0  0  0  0
 25 54  1  0  0  0  0
 26 23  1  0  0  0  0
 26 55  1  0  0  0  0
 26 56  1  0  0  0  0
 26 57  1  0  0  0  0
 27 20  1  0  0  0  0
 27 28  1  0  0  0  0
 27 58  1  0  0  0  0
 27 59  1  0  0  0  0
 28 21  1  0  0  0  0
 28 60  1  0  0  0  0
 28 61  1  0  0  0  0
M  END
>  <DRUGBANK_ID>
DB11623

>  <COMMON_NAME>
Candoxatrilat

>  <CAS_NUMBER>
123122-54-3

>  <UNII>
7WU8BZ90TH

>  <SYNONYMS>
Candoxatrilat; Candoxatrilate

$$$$
