
 OpenBabel10282417072D

 50 52  0  0  0  0  0  0  0  0999 V2000
    1.9710   -2.6179    0.0000 C   0  0  0  0  0  0  0  0  0  0  0  0
    2.6917   -2.2098    0.0000 C   0  0  0  0  0  0  0  0  0  0  0  0
    3.4037   -1.7930    0.0000 O   0  0  0  0  0  0  0  0  0  0  0  0
    3.0998   -2.9217    0.0000 C   0  0  0  0  0  0  0  0  0  0  0  0
    2.2749   -1.4891    0.0000 C   0  0  0  0  0  0  0  0  0  0  0  0
    1.4500   -1.4891    0.0000 N   0  0  0  0  0  0  0  0  0  0  0  0
    1.0332   -0.7771    0.0000 C   0  0  0  0  0  0  0  0  0  0  0  0
    1.4500   -0.0564    0.0000 N   0  0  0  0  0  0  0  0  0  0  0  0
    1.0332    0.6555    0.0000 C   0  0  0  0  0  0  0  0  0  0  0  0
    1.4500    1.3762    0.0000 C   0  0  0  0  0  0  0  0  0  0  0  0
    2.2749    1.3762    0.0000 N   0  0  0  0  0  0  0  0  0  0  0  0
    2.6917    2.0882    0.0000 C   0  0  0  0  0  0  0  0  0  0  0  0
    3.5165    2.0882    0.0000 C   0  0  0  0  0  0  0  0  0  0  0  0
    3.5165    1.2633    0.0000 F   0  0  0  0  0  0  0  0  0  0  0  0
    3.5165    2.9217    0.0000 F   0  0  0  0  0  0  0  0  0  0  0  0
    4.3414    2.0882    0.0000 F   0  0  0  0  0  0  0  0  0  0  0  0
    2.2749    2.8089    0.0000 C   0  0  0  0  0  0  0  0  0  0  0  0
    1.4500    2.8089    0.0000 C   0  0  0  0  0  0  0  0  0  0  0  0
    1.0332    2.0882    0.0000 C   0  0  0  0  0  0  0  0  0  0  0  0
    0.2083    0.6555    0.0000 N   0  0  0  0  0  0  0  0  0  0  0  0
   -0.2083   -0.0564    0.0000 C   0  0  0  0  0  0  0  0  0  0  0  0
   -1.0332   -0.0564    0.0000 N   0  0  0  0  0  0  0  0  0  0  0  0
   -1.4500   -0.7771    0.0000 C   0  0  0  0  0  0  0  0  0  0  0  0
   -2.2748   -0.7771    0.0000 C   0  0  0  0  0  0  0  0  0  0  0  0
   -2.6916   -1.4891    0.0000 C   0  0  0  0  0  0  0  0  0  0  0  0
   -3.5165   -1.4891    0.0000 C   0  0  0  0  0  0  0  0  0  0  0  0
   -3.5165   -0.6642    0.0000 F   0  0  0  0  0  0  0  0  0  0  0  0
   -3.5165   -2.3140    0.0000 F   0  0  0  0  0  0  0  0  0  0  0  0
   -4.3414   -1.4891    0.0000 F   0  0  0  0  0  0  0  0  0  0  0  0
   -2.2748   -2.2098    0.0000 N   0  0  0  0  0  0  0  0  0  0  0  0
   -1.4500   -2.2098    0.0000 C   0  0  0  0  0  0  0  0  0  0  0  0
   -1.0332   -1.4891    0.0000 C   0  0  0  0  0  0  0  0  0  0  0  0
    0.2083   -0.7771    0.0000 N   0  0  0  0  0  0  0  0  0  0  0  0
    1.0489   -2.0752    0.0000 H   0  0  0  0  0  0  0  0  0  0  0  0
    1.9621   -3.6879    0.0000 H   0  0  0  0  0  0  0  0  0  0  0  0
    1.0399   -3.1451    0.0000 H   0  0  0  0  0  0  0  0  0  0  0  0
    4.2466   -2.2729    0.0000 H   0  0  0  0  0  0  0  0  0  0  0  0
    2.5620   -3.8467    0.0000 H   0  0  0  0  0  0  0  0  0  0  0  0
    4.1698   -2.9250    0.0000 H   0  0  0  0  0  0  0  0  0  0  0  0
    3.6319   -3.8500    0.0000 H   0  0  0  0  0  0  0  0  0  0  0  0
    2.8096   -0.5623    0.0000 H   0  0  0  0  0  0  0  0  0  0  0  0
    1.7397   -0.5626    0.0000 H   0  0  0  0  0  0  0  0  0  0  0  0
    0.9603   -2.3432    0.0000 H   0  0  0  0  0  0  0  0  0  0  0  0
    2.7906    3.7028    0.0000 H   0  0  0  0  0  0  0  0  0  0  0  0
    0.9343    3.7028    0.0000 H   0  0  0  0  0  0  0  0  0  0  0  0
    0.0012    2.0855    0.0000 H   0  0  0  0  0  0  0  0  0  0  0  0
   -1.5251    0.7964    0.0000 H   0  0  0  0  0  0  0  0  0  0  0  0
   -2.7881    0.1182    0.0000 H   0  0  0  0  0  0  0  0  0  0  0  0
   -0.9343   -3.1037    0.0000 H   0  0  0  0  0  0  0  0  0  0  0  0
   -0.0012   -1.4864    0.0000 H   0  0  0  0  0  0  0  0  0  0  0  0
  1  2  1  0  0  0  0
  1 34  1  0  0  0  0
  1 35  1  0  0  0  0
  1 36  1  0  0  0  0
  2  3  1  0  0  0  0
  2  4  1  0  0  0  0
  2  5  1  0  0  0  0
  3 37  1  0  0  0  0
  4 38  1  0  0  0  0
  4 39  1  0  0  0  0
  4 40  1  0  0  0  0
  5  6  1  0  0  0  0
  5 41  1  0  0  0  0
  5 42  1  0  0  0  0
  6  7  1  0  0  0  0
  6 43  1  0  0  0  0
  7  8  2  0  0  0  0
  7 33  1  0  0  0  0
  8  9  1  0  0  0  0
  9 10  1  0  0  0  0
  9 20  2  0  0  0  0
 10 11  2  0  0  0  0
 10 19  1  0  0  0  0
 11 12  1  0  0  0  0
 12 13  1  0  0  0  0
 12 17  2  0  0  0  0
 13 14  1  0  0  0  0
 13 15  1  0  0  0  0
 13 16  1  0  0  0  0
 17 18  1  0  0  0  0
 17 44  1  0  0  0  0
 18 19  2  0  0  0  0
 18 45  1  0  0  0  0
 19 46  1  0  0  0  0
 20 21  1  0  0  0  0
 21 22  1  0  0  0  0
 21 33  2  0  0  0  0
 22 23  1  0  0  0  0
 22 47  1  0  0  0  0
 23 24  2  0  0  0  0
 23 32  1  0  0  0  0
 24 25  1  0  0  0  0
 24 48  1  0  0  0  0
 25 26  1  0  0  0  0
 25 30  2  0  0  0  0
 26 27  1  0  0  0  0
 26 28  1  0  0  0  0
 26 29  1  0  0  0  0
 30 31  1  0  0  0  0
 31 32  2  0  0  0  0
 31 49  1  0  0  0  0
 32 50  1  0  0  0  0
M  END
>  <DRUGBANK_ID>
DB13874

>  <COMMON_NAME>
Enasidenib

>  <CAS_NUMBER>
1446502-11-9

>  <UNII>
3T1SS4E7AG

>  <SYNONYMS>
2-Methyl-1-(4-(6-(trifluoromethyl)pyridin-2-yl)-6-(2-(trifluoromethyl)pyridin-4-ylamino)-1,3,5-triazin-2-ylamino)propan-2-ol; Enasidenib

$$$$
