
 OpenBabel10282417072D

 69 70  0  0  0  0  0  0  0  0999 V2000
    2.1434   -0.9817    0.0000 O   0  0  0  0  0  0  0  0  0  0  0  0
   -2.1434   -0.9817    0.0000 O   0  0  0  0  0  0  0  0  0  0  0  0
    1.4289    0.2557    0.0000 O   0  0  0  0  0  0  0  0  0  0  0  0
   -1.4289    0.2557    0.0000 O   0  0  0  0  0  0  0  0  0  0  0  0
    4.2869   -0.5692    0.0000 O   0  0  0  0  0  0  0  0  0  0  0  0
   -4.2869   -0.5692    0.0000 O   0  0  0  0  0  0  0  0  0  0  0  0
    1.4289    2.7308    0.0000 O   0  5  0  0  0  0  0  0  0  0  0  0
    2.1434    1.4932    0.0000 O   0  0  0  0  0  0  0  0  0  0  0  0
    0.0000   -2.2192    0.0000 N   0  0  0  0  0  0  0  0  0  0  0  0
    1.4289    1.9057    0.0000 N   0  3  0  0  0  0  0  0  0  0  0  0
    0.0000   -0.5692    0.0000 C   0  0  3  0  0  0  0  0  0  0  0  0
    0.7145   -0.9817    0.0000 C   0  0  0  0  0  0  0  0  0  0  0  0
   -0.7145   -0.9817    0.0000 C   0  0  0  0  0  0  0  0  0  0  0  0
    0.0000    0.2557    0.0000 C   0  0  0  0  0  0  0  0  0  0  0  0
    0.7145   -1.8067    0.0000 C   0  0  0  0  0  0  0  0  0  0  0  0
   -0.7145   -1.8067    0.0000 C   0  0  0  0  0  0  0  0  0  0  0  0
    1.4289   -0.5692    0.0000 C   0  0  0  0  0  0  0  0  0  0  0  0
   -1.4289   -0.5692    0.0000 C   0  0  0  0  0  0  0  0  0  0  0  0
    0.7145    0.6682    0.0000 C   0  0  0  0  0  0  0  0  0  0  0  0
   -0.7145    0.6682    0.0000 C   0  0  0  0  0  0  0  0  0  0  0  0
    1.4289   -2.2192    0.0000 C   0  0  0  0  0  0  0  0  0  0  0  0
   -1.4289   -2.2192    0.0000 C   0  0  0  0  0  0  0  0  0  0  0  0
    0.7145    1.4932    0.0000 C   0  0  0  0  0  0  0  0  0  0  0  0
   -0.7145    1.4932    0.0000 C   0  0  0  0  0  0  0  0  0  0  0  0
    0.0000    1.9057    0.0000 C   0  0  0  0  0  0  0  0  0  0  0  0
    2.8579   -0.5692    0.0000 C   0  0  0  0  0  0  0  0  0  0  0  0
   -2.8579   -0.5692    0.0000 C   0  0  0  0  0  0  0  0  0  0  0  0
    3.5724   -0.9817    0.0000 C   0  0  0  0  0  0  0  0  0  0  0  0
   -3.5724   -0.9817    0.0000 C   0  0  0  0  0  0  0  0  0  0  0  0
    5.0013   -0.9817    0.0000 C   0  0  0  0  0  0  0  0  0  0  0  0
   -5.0013   -0.9817    0.0000 C   0  0  0  0  0  0  0  0  0  0  0  0
    5.7158   -0.5692    0.0000 C   0  0  0  0  0  0  0  0  0  0  0  0
   -5.7159   -0.5692    0.0000 C   0  0  0  0  0  0  0  0  0  0  0  0
    6.4303   -0.9817    0.0000 C   0  0  0  0  0  0  0  0  0  0  0  0
   -6.4303   -0.9817    0.0000 C   0  0  0  0  0  0  0  0  0  0  0  0
    0.0000   -2.7308    0.0000 H   0  0  0  0  0  0  0  0  0  0  0  0
    0.0000   -1.6392    0.0000 H   0  0  0  0  0  0  0  0  0  0  0  0
    1.6082    0.1522    0.0000 H   0  0  0  0  0  0  0  0  0  0  0  0
   -1.6082    0.1522    0.0000 H   0  0  0  0  0  0  0  0  0  0  0  0
    1.4289   -3.2892    0.0000 H   0  0  0  0  0  0  0  0  0  0  0  0
    2.3556   -1.6842    0.0000 H   0  0  0  0  0  0  0  0  0  0  0  0
    2.3555   -2.7542    0.0000 H   0  0  0  0  0  0  0  0  0  0  0  0
   -2.3556   -1.6842    0.0000 H   0  0  0  0  0  0  0  0  0  0  0  0
   -1.4289   -3.2892    0.0000 H   0  0  0  0  0  0  0  0  0  0  0  0
   -2.3555   -2.7542    0.0000 H   0  0  0  0  0  0  0  0  0  0  0  0
   -1.6082    2.0092    0.0000 H   0  0  0  0  0  0  0  0  0  0  0  0
    0.0000    2.9377    0.0000 H   0  0  0  0  0  0  0  0  0  0  0  0
    2.8579    0.5008    0.0000 H   0  0  0  0  0  0  0  0  0  0  0  0
    3.7845   -0.0342    0.0000 H   0  0  0  0  0  0  0  0  0  0  0  0
   -2.8579    0.5008    0.0000 H   0  0  0  0  0  0  0  0  0  0  0  0
   -3.7845   -0.0342    0.0000 H   0  0  0  0  0  0  0  0  0  0  0  0
    3.5724   -2.0517    0.0000 H   0  0  0  0  0  0  0  0  0  0  0  0
    2.6458   -1.5167    0.0000 H   0  0  0  0  0  0  0  0  0  0  0  0
   -3.5724   -2.0517    0.0000 H   0  0  0  0  0  0  0  0  0  0  0  0
   -2.6458   -1.5167    0.0000 H   0  0  0  0  0  0  0  0  0  0  0  0
    5.0013   -2.0517    0.0000 H   0  0  0  0  0  0  0  0  0  0  0  0
    5.9279   -1.5167    0.0000 H   0  0  0  0  0  0  0  0  0  0  0  0
   -5.0012   -2.0517    0.0000 H   0  0  0  0  0  0  0  0  0  0  0  0
   -5.9279   -1.5168    0.0000 H   0  0  0  0  0  0  0  0  0  0  0  0
    5.7158    0.5008    0.0000 H   0  0  0  0  0  0  0  0  0  0  0  0
    6.6424   -0.0342    0.0000 H   0  0  0  0  0  0  0  0  0  0  0  0
   -5.7160    0.5008    0.0000 H   0  0  0  0  0  0  0  0  0  0  0  0
   -6.6426   -0.0342    0.0000 H   0  0  0  0  0  0  0  0  0  0  0  0
    6.4303   -2.0517    0.0000 H   0  0  0  0  0  0  0  0  0  0  0  0
    7.3569   -0.4467    0.0000 H   0  0  0  0  0  0  0  0  0  0  0  0
    7.3570   -1.5167    0.0000 H   0  0  0  0  0  0  0  0  0  0  0  0
   -7.3570   -0.4467    0.0000 H   0  0  0  0  0  0  0  0  0  0  0  0
   -6.4303   -2.0517    0.0000 H   0  0  0  0  0  0  0  0  0  0  0  0
   -7.3569   -1.5167    0.0000 H   0  0  0  0  0  0  0  0  0  0  0  0
  1 17  1  0  0  0  0
  1 26  1  0  0  0  0
  2 18  1  0  0  0  0
  2 27  1  0  0  0  0
  3 17  2  0  0  0  0
  4 18  2  0  0  0  0
  5 28  1  0  0  0  0
  5 30  1  0  0  0  0
  6 29  1  0  0  0  0
  6 31  1  0  0  0  0
  7 10  1  0  0  0  0
  8 10  2  0  0  0  0
  9 15  1  0  0  0  0
  9 16  1  0  0  0  0
  9 36  1  0  0  0  0
 10 23  1  0  0  0  0
 11 12  1  0  0  0  0
 11 13  1  0  0  0  0
 11 14  1  0  0  0  0
 11 37  1  0  0  0  0
 12 15  2  0  0  0  0
 12 17  1  0  0  0  0
 13 16  2  0  0  0  0
 13 18  1  0  0  0  0
 14 19  2  0  0  0  0
 14 20  1  0  0  0  0
 15 21  1  0  0  0  0
 16 22  1  0  0  0  0
 19 23  1  0  0  0  0
 19 38  1  0  0  0  0
 20 24  2  0  0  0  0
 20 39  1  0  0  0  0
 21 40  1  0  0  0  0
 21 41  1  0  0  0  0
 21 42  1  0  0  0  0
 22 43  1  0  0  0  0
 22 44  1  0  0  0  0
 22 45  1  0  0  0  0
 23 25  2  0  0  0  0
 24 25  1  0  0  0  0
 24 46  1  0  0  0  0
 25 47  1  0  0  0  0
 26 28  1  0  0  0  0
 26 48  1  0  0  0  0
 26 49  1  0  0  0  0
 27 29  1  0  0  0  0
 27 50  1  0  0  0  0
 27 51  1  0  0  0  0
 28 52  1  0  0  0  0
 28 53  1  0  0  0  0
 29 54  1  0  0  0  0
 29 55  1  0  0  0  0
 30 32  1  0  0  0  0
 30 56  1  0  0  0  0
 30 57  1  0  0  0  0
 31 33  1  0  0  0  0
 31 58  1  0  0  0  0
 31 59  1  0  0  0  0
 32 34  1  0  0  0  0
 32 60  1  0  0  0  0
 32 61  1  0  0  0  0
 33 35  1  0  0  0  0
 33 62  1  0  0  0  0
 33 63  1  0  0  0  0
 34 64  1  0  0  0  0
 34 65  1  0  0  0  0
 34 66  1  0  0  0  0
 35 67  1  0  0  0  0
 35 68  1  0  0  0  0
 35 69  1  0  0  0  0
M  CHG  2   7  -1  10   1
M  END
>  <DRUGBANK_ID>
DB09240

>  <COMMON_NAME>
Niludipine

>  <CAS_NUMBER>
22609-73-0

>  <UNII>
9844OS3B0J

>  <SYNONYMS>
Niludipine

$$$$
