RHS
 OpenBabel10282417072D

 43 42  0  0  0  0  0  0  0  0999 V2000
   -2.6966   -0.3403    0.0000 N   0  0  0  0  0  0  0  0  0  0  0  0
   -1.9822   -0.7528    0.0000 C   0  0  0  0  0  0  0  0  0  0  0  0
   -1.9822   -1.5778    0.0000 O   0  0  0  0  0  0  0  0  0  0  0  0
   -1.2677   -0.3403    0.0000 C   0  0  1  0  0  0  0  0  0  0  0  0
   -1.2677    0.4847    0.0000 C   0  0  0  0  0  0  0  0  0  0  0  0
   -1.2677    1.3097    0.0000 C   0  0  0  0  0  0  0  0  0  0  0  0
   -2.0927    0.4847    0.0000 C   0  0  0  0  0  0  0  0  0  0  0  0
   -0.4427    0.4847    0.0000 C   0  0  0  0  0  0  0  0  0  0  0  0
   -0.5532   -0.7528    0.0000 C   0  0  0  0  0  0  0  0  0  0  0  0
    0.1612   -0.3403    0.0000 C   0  0  0  0  0  0  0  0  0  0  0  0
    0.1612    0.4847    0.0000 O   0  0  0  0  0  0  0  0  0  0  0  0
    0.8757   -0.7528    0.0000 N   0  0  0  0  0  0  0  0  0  0  0  0
    1.5902   -0.3403    0.0000 C   0  0  0  0  0  0  0  0  0  0  0  0
    2.3047   -0.7528    0.0000 C   0  0  0  0  0  0  0  0  0  0  0  0
    3.0191   -0.3403    0.0000 C   0  0  0  0  0  0  0  0  0  0  0  0
    1.5902    0.4847    0.0000 C   0  0  0  0  0  0  0  0  0  0  0  0
    2.3047    0.8972    0.0000 C   0  0  0  0  0  0  0  0  0  0  0  0
   -1.7734   -0.0484    0.0000 H   0  0  0  0  0  0  0  0  0  0  0  0
   -2.6966    0.6442    0.0000 H   0  0  0  0  0  0  0  0  0  0  0  0
   -3.5492   -0.8325    0.0000 H   0  0  0  0  0  0  0  0  0  0  0  0
   -0.3411    1.8447    0.0000 H   0  0  0  0  0  0  0  0  0  0  0  0
   -2.1943    1.8447    0.0000 H   0  0  0  0  0  0  0  0  0  0  0  0
   -1.2677    2.3797    0.0000 H   0  0  0  0  0  0  0  0  0  0  0  0
   -2.6277    1.4113    0.0000 H   0  0  0  0  0  0  0  0  0  0  0  0
   -2.6277   -0.4419    0.0000 H   0  0  0  0  0  0  0  0  0  0  0  0
   -3.1627    0.4847    0.0000 H   0  0  0  0  0  0  0  0  0  0  0  0
    0.0923   -0.4419    0.0000 H   0  0  0  0  0  0  0  0  0  0  0  0
    0.0923    1.4113    0.0000 H   0  0  0  0  0  0  0  0  0  0  0  0
    0.6273    0.4847    0.0000 H   0  0  0  0  0  0  0  0  0  0  0  0
   -0.5532   -1.8228    0.0000 H   0  0  0  0  0  0  0  0  0  0  0  0
    0.3735   -1.2878    0.0000 H   0  0  0  0  0  0  0  0  0  0  0  0
    0.8757   -1.7373    0.0000 H   0  0  0  0  0  0  0  0  0  0  0  0
    2.5168    0.1947    0.0000 H   0  0  0  0  0  0  0  0  0  0  0  0
    2.3047   -1.8228    0.0000 H   0  0  0  0  0  0  0  0  0  0  0  0
    3.2314   -1.2878    0.0000 H   0  0  0  0  0  0  0  0  0  0  0  0
    3.9458   -0.8753    0.0000 H   0  0  0  0  0  0  0  0  0  0  0  0
    3.0191    0.7297    0.0000 H   0  0  0  0  0  0  0  0  0  0  0  0
    3.9457    0.1947    0.0000 H   0  0  0  0  0  0  0  0  0  0  0  0
    0.6636    1.0197    0.0000 H   0  0  0  0  0  0  0  0  0  0  0  0
    1.5902    1.5547    0.0000 H   0  0  0  0  0  0  0  0  0  0  0  0
    3.2313    0.3622    0.0000 H   0  0  0  0  0  0  0  0  0  0  0  0
    2.3047    1.9672    0.0000 H   0  0  0  0  0  0  0  0  0  0  0  0
    3.2314    1.4322    0.0000 H   0  0  0  0  0  0  0  0  0  0  0  0
  1  2  1  0  0  0  0
  1 19  1  0  0  0  0
  1 20  1  0  0  0  0
  2  3  2  0  0  0  0
  2  4  1  0  0  0  0
  4  5  1  0  0  0  0
  4  9  1  0  0  0  0
  4 18  1  6  0  0  0
  5  6  1  0  0  0  0
  5  7  1  0  0  0  0
  5  8  1  0  0  0  0
  6 21  1  0  0  0  0
  6 22  1  0  0  0  0
  6 23  1  0  0  0  0
  7 24  1  0  0  0  0
  7 25  1  0  0  0  0
  7 26  1  0  0  0  0
  8 27  1  0  0  0  0
  8 28  1  0  0  0  0
  8 29  1  0  0  0  0
  9 10  1  0  0  0  0
  9 30  1  0  0  0  0
  9 31  1  0  0  0  0
 10 11  2  0  0  0  0
 10 12  1  0  0  0  0
 12 13  1  0  0  0  0
 12 32  1  0  0  0  0
 13 14  1  0  0  0  0
 13 16  1  0  0  0  0
 13 33  1  0  0  0  0
 14 15  1  0  0  0  0
 14 34  1  0  0  0  0
 14 35  1  0  0  0  0
 15 36  1  0  0  0  0
 15 37  1  0  0  0  0
 15 38  1  0  0  0  0
 16 17  1  0  0  0  0
 16 39  1  0  0  0  0
 16 40  1  0  0  0  0
 17 41  1  0  0  0  0
 17 42  1  0  0  0  0
 17 43  1  0  0  0  0
M  END
>  <DRUGBANK_ID>
DB08474

>  <COMMON_NAME>
3-(CARBOXYAMIDE(2-CARBOXYAMIDE-2-TERTBUTYLETHYL))PENTAN

$$$$
