
 OpenBabel10282417072D

 38 38  0  0  0  0  0  0  0  0999 V2000
   -2.5088    0.3392    0.0000 C   0  0  0  0  0  0  0  0  0  0  0  0
   -3.2233   -0.0732    0.0000 C   0  0  0  0  0  0  0  0  0  0  0  0
   -3.2233   -0.8982    0.0000 C   0  0  0  0  0  0  0  0  0  0  0  0
   -2.5088   -1.3107    0.0000 C   0  0  0  0  0  0  0  0  0  0  0  0
   -1.7944   -0.8982    0.0000 C   0  0  0  0  0  0  0  0  0  0  0  0
   -1.7944   -0.0732    0.0000 N   0  3  0  0  0  0  0  0  0  0  0  0
   -0.3654   -0.8982    0.0000 C   0  0  0  0  0  0  0  0  0  0  0  0
   -0.3654   -0.0732    0.0000 C   0  0  0  0  0  0  0  0  0  0  0  0
   -1.0799    0.3392    0.0000 C   0  0  0  0  0  0  0  0  0  0  0  0
    0.3489   -1.3107    0.0000 N   0  0  0  0  0  0  0  0  0  0  0  0
    1.0635   -0.8982    0.0000 C   0  0  0  0  0  0  0  0  0  0  0  0
    1.0635   -0.0732    0.0000 N   0  0  0  0  0  0  0  0  0  0  0  0
    0.3489    0.3392    0.0000 C   0  0  0  0  0  0  0  0  0  0  0  0
   -2.5088    1.1642    0.0000 C   0  0  0  0  0  0  0  0  0  0  0  0
    0.3489    1.1642    0.0000 N   0  0  0  0  0  0  0  0  0  0  0  0
    1.7943   -1.3107    0.0000 C   0  0  0  0  0  0  0  0  0  0  0  0
    2.5088   -0.8982    0.0000 C   0  0  0  0  0  0  0  0  0  0  0  0
    3.2233   -1.3107    0.0000 C   0  0  0  0  0  0  0  0  0  0  0  0
   -1.0207    1.3107    0.0000 Cl  0  5  0  0  0  0  0  0  0  0  0  0
   -4.1170    0.4429    0.0000 H   0  0  0  0  0  0  0  0  0  0  0  0
   -4.1170   -1.4142    0.0000 H   0  0  0  0  0  0  0  0  0  0  0  0
   -2.5088   -2.3427    0.0000 H   0  0  0  0  0  0  0  0  0  0  0  0
   -0.9007   -1.4142    0.0000 H   0  0  0  0  0  0  0  0  0  0  0  0
   -1.2592   -1.4142    0.0000 H   0  0  0  0  0  0  0  0  0  0  0  0
   -1.0799    1.4092    0.0000 H   0  0  0  0  0  0  0  0  0  0  0  0
   -2.0065    0.8743    0.0000 H   0  0  0  0  0  0  0  0  0  0  0  0
   -1.5822    1.6992    0.0000 H   0  0  0  0  0  0  0  0  0  0  0  0
   -3.4354    1.6992    0.0000 H   0  0  0  0  0  0  0  0  0  0  0  0
   -2.5088    2.2342    0.0000 H   0  0  0  0  0  0  0  0  0  0  0  0
    1.2015    1.6564    0.0000 H   0  0  0  0  0  0  0  0  0  0  0  0
   -0.5037    1.6564    0.0000 H   0  0  0  0  0  0  0  0  0  0  0  0
    1.7995   -2.3807    0.0000 H   0  0  0  0  0  0  0  0  0  0  0  0
    2.7222   -1.8435    0.0000 H   0  0  0  0  0  0  0  0  0  0  0  0
    2.5088    0.1718    0.0000 H   0  0  0  0  0  0  0  0  0  0  0  0
    3.4354   -0.3632    0.0000 H   0  0  0  0  0  0  0  0  0  0  0  0
    3.2233   -2.3807    0.0000 H   0  0  0  0  0  0  0  0  0  0  0  0
    4.1499   -0.7757    0.0000 H   0  0  0  0  0  0  0  0  0  0  0  0
    4.1500   -1.8457    0.0000 H   0  0  0  0  0  0  0  0  0  0  0  0
  1  2  2  0  0  0  0
  1  6  1  0  0  0  0
  1 14  1  0  0  0  0
  2  3  1  0  0  0  0
  2 20  1  0  0  0  0
  3  4  2  0  0  0  0
  3 21  1  0  0  0  0
  4  5  1  0  0  0  0
  4 22  1  0  0  0  0
  5  6  2  0  0  0  0
  5 23  1  0  0  0  0
  6  9  1  0  0  0  0
  7  8  2  0  0  0  0
  7 10  1  0  0  0  0
  7 24  1  0  0  0  0
  8  9  1  0  0  0  0
  8 13  1  0  0  0  0
  9 25  1  0  0  0  0
  9 26  1  0  0  0  0
 10 11  2  0  0  0  0
 11 12  1  0  0  0  0
 11 16  1  0  0  0  0
 12 13  2  0  0  0  0
 13 15  1  0  0  0  0
 14 27  1  0  0  0  0
 14 28  1  0  0  0  0
 14 29  1  0  0  0  0
 15 30  1  0  0  0  0
 15 31  1  0  0  0  0
 16 17  1  0  0  0  0
 16 32  1  0  0  0  0
 16 33  1  0  0  0  0
 17 18  1  0  0  0  0
 17 34  1  0  0  0  0
 17 35  1  0  0  0  0
 18 36  1  0  0  0  0
 18 37  1  0  0  0  0
 18 38  1  0  0  0  0
M  CHG  2   6   1  19  -1
M  END
>  <DRUGBANK_ID>
DB11374

>  <COMMON_NAME>
Amprolium

>  <CAS_NUMBER>
121-25-5

>  <UNII>
71M75T660B

>  <SYNONYMS>
1-((4-amino-2-Propyl-5-pyrimidinyl)methyl)-2-picolinium chloride; Amprolio; Amprolium

$$$$
