993
 OpenBabel10282417072D

 26 28  0  0  0  0  0  0  0  0999 V2000
    3.6703   -0.0585    0.0000 S   0  0  0  0  0  0  0  0  0  0  0  0
    3.3111    2.5335    0.0000 O   0  5  0  0  0  0  0  0  0  0  0  0
    4.2672    1.4716    0.0000 O   0  0  0  0  0  0  0  0  0  0  0  0
    2.2021    0.0185    0.0000 N   0  0  0  0  0  0  0  0  0  0  0  0
    5.1654   -1.0446    0.0000 N   0  0  0  0  0  0  0  0  0  0  0  0
    2.0625    1.3460    0.0000 N   0  0  0  0  0  0  0  0  0  0  0  0
    2.9558   -1.2960    0.0000 N   0  0  0  0  0  0  0  0  0  0  0  0
    5.1654   -2.3724    0.0000 N   0  0  0  0  0  0  0  0  0  0  0  0
    3.4826    1.7266    0.0000 N   0  3  0  0  0  0  0  0  0  0  0  0
    3.6703   -2.5335    0.0000 N   0  0  0  0  0  0  0  0  0  0  0  0
    2.9558    0.3540    0.0000 C   0  0  0  0  0  0  0  0  0  0  0  0
    4.3847   -1.2960    0.0000 C   0  0  0  0  0  0  0  0  0  0  0  0
    3.6703   -0.8835    0.0000 C   0  0  0  0  0  0  0  0  0  0  0  0
    2.8695    1.1745    0.0000 C   0  0  0  0  0  0  0  0  0  0  0  0
    1.6500    0.6316    0.0000 C   0  0  0  0  0  0  0  0  0  0  0  0
    4.3847   -2.1210    0.0000 C   0  0  0  0  0  0  0  0  0  0  0  0
    2.0305   -0.7886    0.0000 C   0  0  0  0  0  0  0  0  0  0  0  0
    5.6469   -1.7085    0.0000 C   0  0  0  0  0  0  0  0  0  0  0  0
    2.9558   -2.1210    0.0000 C   0  0  0  0  0  0  0  0  0  0  0  0
    5.4712   -0.1088    0.0000 H   0  0  0  0  0  0  0  0  0  0  0  0
    0.6237    0.5237    0.0000 H   0  0  0  0  0  0  0  0  0  0  0  0
    1.0129   -1.1192    0.0000 H   0  0  0  0  0  0  0  0  0  0  0  0
    2.8256   -1.5046    0.0000 H   0  0  0  0  0  0  0  0  0  0  0  0
    1.8080   -1.8352    0.0000 H   0  0  0  0  0  0  0  0  0  0  0  0
    6.6789   -1.7085    0.0000 H   0  0  0  0  0  0  0  0  0  0  0  0
    2.0621   -2.6370    0.0000 H   0  0  0  0  0  0  0  0  0  0  0  0
  1 11  1  0  0  0  0
  1 13  1  0  0  0  0
  2  9  1  0  0  0  0
  3  9  2  0  0  0  0
  4 11  1  0  0  0  0
  4 15  1  0  0  0  0
  4 17  1  0  0  0  0
  5 12  1  0  0  0  0
  5 18  1  0  0  0  0
  5 20  1  0  0  0  0
  6 14  1  0  0  0  0
  6 15  2  0  0  0  0
  7 13  2  0  0  0  0
  7 19  1  0  0  0  0
  8 16  1  0  0  0  0
  8 18  2  0  0  0  0
  9 14  1  0  0  0  0
 10 16  1  0  0  0  0
 10 19  2  0  0  0  0
 11 14  2  0  0  0  0
 12 13  1  0  0  0  0
 12 16  2  0  0  0  0
 15 21  1  0  0  0  0
 17 22  1  0  0  0  0
 17 23  1  0  0  0  0
 17 24  1  0  0  0  0
 18 25  1  0  0  0  0
 19 26  1  0  0  0  0
M  CHG  2   2  -1   9   1
M  END
>  <DRUGBANK_ID>
DB00993

>  <SECONDARY_ACCESSION_NUMBERS>
APRD00811

>  <COMMON_NAME>
Azathioprine

>  <CAS_NUMBER>
446-86-6

>  <UNII>
MRK240IY2L

>  <SYNONYMS>
6-((1-Methyl-4-nitro-1H-imidazol-5-yl)thio)-1H-purine; 6-(1'-Methyl-4'-nitro-5'-imidazolyl)-mercaptopurine; Azamun; Azathioprine; Azathioprinum; Azatioprina

$$$$
