MR2
 OpenBabel10282417072D

 46 50  0  0  0  0  0  0  0  0999 V2000
   -1.6073   -0.3718    0.0000 C   0  0  0  0  0  0  0  0  0  0  0  0
   -1.6073    0.4532    0.0000 C   0  0  0  0  0  0  0  0  0  0  0  0
   -2.3217    0.8657    0.0000 C   0  0  0  0  0  0  0  0  0  0  0  0
   -2.3217    1.6907    0.0000 C   0  0  0  0  0  0  0  0  0  0  0  0
   -1.6073    2.1032    0.0000 C   0  0  0  0  0  0  0  0  0  0  0  0
   -0.8928    1.6907    0.0000 C   0  0  0  0  0  0  0  0  0  0  0  0
   -0.1783    2.1032    0.0000 C   0  0  0  0  0  0  0  0  0  0  0  0
    0.5361    1.6907    0.0000 C   0  0  0  0  0  0  0  0  0  0  0  0
    0.5361    0.8657    0.0000 C   0  0  0  0  0  0  0  0  0  0  0  0
   -0.1783    0.4532    0.0000 C   0  0  0  0  0  0  0  0  0  0  0  0
   -0.8928    0.8657    0.0000 C   0  0  0  0  0  0  0  0  0  0  0  0
   -0.1783   -0.3718    0.0000 C   0  0  0  0  0  0  0  0  0  0  0  0
    0.6341   -0.2285    0.0000 C   0  0  0  0  0  0  0  0  0  0  0  0
    0.9163    0.5467    0.0000 C   0  0  0  0  0  0  0  0  0  0  0  0
    1.7288    0.6900    0.0000 C   0  0  0  0  0  0  0  0  0  0  0  0
    2.2591    0.0580    0.0000 C   0  0  0  0  0  0  0  0  0  0  0  0
    1.9769   -0.7173    0.0000 C   0  0  0  0  0  0  0  0  0  0  0  0
    1.1644   -0.8605    0.0000 C   0  0  0  0  0  0  0  0  0  0  0  0
    0.1038   -1.1470    0.0000 C   0  0  0  0  0  0  0  0  0  0  0  0
    0.9163   -1.2903    0.0000 C   0  0  0  0  0  0  0  0  0  0  0  0
    1.1985   -2.0655    0.0000 C   0  0  0  0  0  0  0  0  0  0  0  0
    0.6682   -2.6975    0.0000 C   0  0  0  0  0  0  0  0  0  0  0  0
   -0.1443   -2.5543    0.0000 C   0  0  0  0  0  0  0  0  0  0  0  0
   -0.4265   -1.7790    0.0000 C   0  0  0  0  0  0  0  0  0  0  0  0
   -0.1783    2.9282    0.0000 N   0  3  0  0  0  0  0  0  0  0  0  0
   -0.8928   -0.7843    0.0000 O   0  0  0  0  0  0  0  0  0  0  0  0
   -2.3217   -0.7843    0.0000 O   0  0  0  0  0  0  0  0  0  0  0  0
    3.0715    0.2012    0.0000 O   0  0  0  0  0  0  0  0  0  0  0  0
    0.9503   -3.4728    0.0000 O   0  0  0  0  0  0  0  0  0  0  0  0
   -0.8928    3.3407    0.0000 O   0  5  0  0  0  0  0  0  0  0  0  0
    0.5361    3.3407    0.0000 O   0  0  0  0  0  0  0  0  0  0  0  0
   -3.2154    0.3497    0.0000 H   0  0  0  0  0  0  0  0  0  0  0  0
   -3.2154    2.2067    0.0000 H   0  0  0  0  0  0  0  0  0  0  0  0
   -1.6073    3.1352    0.0000 H   0  0  0  0  0  0  0  0  0  0  0  0
    1.4298    2.2067    0.0000 H   0  0  0  0  0  0  0  0  0  0  0  0
    1.4298    0.3497    0.0000 H   0  0  0  0  0  0  0  0  0  0  0  0
    0.2529    1.3373    0.0000 H   0  0  0  0  0  0  0  0  0  0  0  0
    2.0817    1.6598    0.0000 H   0  0  0  0  0  0  0  0  0  0  0  0
    2.6402   -1.5079    0.0000 H   0  0  0  0  0  0  0  0  0  0  0  0
    0.8114   -1.8302    0.0000 H   0  0  0  0  0  0  0  0  0  0  0  0
    1.5797   -0.4997    0.0000 H   0  0  0  0  0  0  0  0  0  0  0  0
    2.2148   -2.2447    0.0000 H   0  0  0  0  0  0  0  0  0  0  0  0
   -0.8076   -3.3449    0.0000 H   0  0  0  0  0  0  0  0  0  0  0  0
   -1.4428   -1.5998    0.0000 H   0  0  0  0  0  0  0  0  0  0  0  0
    3.6738   -0.5166    0.0000 H   0  0  0  0  0  0  0  0  0  0  0  0
    0.3479   -4.1905    0.0000 H   0  0  0  0  0  0  0  0  0  0  0  0
  1  2  1  0  0  0  0
  1 26  1  0  0  0  0
  1 27  2  0  0  0  0
  2  3  2  0  0  0  0
  2 11  1  0  0  0  0
  3  4  1  0  0  0  0
  3 32  1  0  0  0  0
  4  5  2  0  0  0  0
  4 33  1  0  0  0  0
  5  6  1  0  0  0  0
  5 34  1  0  0  0  0
  6  7  2  0  0  0  0
  6 11  1  0  0  0  0
  7  8  1  0  0  0  0
  7 25  1  0  0  0  0
  8  9  2  0  0  0  0
  8 35  1  0  0  0  0
  9 10  1  0  0  0  0
  9 36  1  0  0  0  0
 10 11  2  0  0  0  0
 10 12  1  0  0  0  0
 12 13  1  0  0  0  0
 12 19  1  0  0  0  0
 12 26  1  0  0  0  0
 13 14  2  0  0  0  0
 13 18  1  0  0  0  0
 14 15  1  0  0  0  0
 14 37  1  0  0  0  0
 15 16  2  0  0  0  0
 15 38  1  0  0  0  0
 16 17  1  0  0  0  0
 16 28  1  0  0  0  0
 17 18  2  0  0  0  0
 17 39  1  0  0  0  0
 18 40  1  0  0  0  0
 19 20  2  0  0  0  0
 19 24  1  0  0  0  0
 20 21  1  0  0  0  0
 20 41  1  0  0  0  0
 21 22  2  0  0  0  0
 21 42  1  0  0  0  0
 22 23  1  0  0  0  0
 22 29  1  0  0  0  0
 23 24  2  0  0  0  0
 23 43  1  0  0  0  0
 24 44  1  0  0  0  0
 25 30  1  0  0  0  0
 25 31  2  0  0  0  0
 28 45  1  0  0  0  0
 29 46  1  0  0  0  0
M  CHG  2  25   1  30  -1
M  END
>  <DRUGBANK_ID>
DB08204

>  <COMMON_NAME>
3-DIPHENOL-6-NITRO-3H-BENZO[DE]ISOCHROMEN-1-ONE

$$$$
