
 OpenBabel10282417072D

 78 81  0  0  1  0  0  0  0  0999 V2000
   12.3382   -8.0488    0.0000 C   0  0  0  0  0  0  0  0  0  0  0  0
    9.4842   -8.0571    0.0000 C   0  0  0  0  0  0  0  0  0  0  0  0
   11.6322   -8.4687    0.0000 C   0  0  0  0  0  0  0  0  0  0  0  0
   10.2071   -8.4690    0.0000 C   0  0  1  0  0  0  0  0  0  0  0  0
   10.9175   -8.0564    0.0000 C   0  0  0  0  0  0  0  0  0  0  0  0
   13.0570   -8.4537    0.0000 N   0  0  0  0  0  0  0  0  0  0  0  0
   15.8854   -6.7615    0.0000 C   0  0  0  0  0  0  0  0  0  0  0  0
    8.7824   -8.4819    0.0000 O   0  0  0  0  0  0  0  0  0  0  0  0
    8.0591   -8.0574    0.0000 C   0  0  0  0  0  0  0  0  0  0  0  0
   15.1875   -7.1810    0.0000 C   0  0  2  0  0  0  0  0  0  0  0  0
   12.3299   -7.2238    0.0000 O   0  0  0  0  0  0  0  0  0  0  0  0
    9.4883   -7.2319    0.0000 O   0  0  0  0  0  0  0  0  0  0  0  0
   16.6124   -7.1661    0.0000 O   0  0  0  0  0  0  0  0  0  0  0  0
   14.4610   -6.7890    0.0000 C   0  0  0  0  0  0  0  0  0  0  0  0
   15.1877   -8.0064    0.0000 C   0  0  0  0  0  0  0  0  0  0  0  0
   13.7757   -8.0333    0.0000 C   0  0  1  0  0  0  0  0  0  0  0  0
   15.8811   -5.9364    0.0000 O   0  0  0  0  0  0  0  0  0  0  0  0
   13.7631   -7.2085    0.0000 C   0  0  0  0  0  0  0  0  0  0  0  0
   14.4820   -8.4388    0.0000 C   0  0  0  0  0  0  0  0  0  0  0  0
   10.2124   -9.2936    0.0000 C   0  0  0  0  0  0  0  0  0  0  0  0
   10.9616   -8.9435    0.0000 C   0  0  0  0  0  0  0  0  0  0  0  0
   12.3067   -8.9435    0.0000 C   0  0  0  0  0  0  0  0  0  0  0  0
    9.4947   -9.7105    0.0000 O   0  0  0  0  0  0  0  0  0  0  0  0
    7.3516   -9.3121    0.0000 O   0  0  0  0  0  0  0  0  0  0  0  0
    8.0663   -9.7198    0.0000 C   0  0  0  0  0  0  0  0  0  0  0  0
    8.7799   -9.3029    0.0000 C   0  0  0  0  0  0  0  0  0  0  0  0
    6.6423   -9.7290    0.0000 C   0  0  0  0  0  0  0  0  0  0  0  0
   11.2116   -9.7305    0.0000 C   0  0  0  0  0  0  0  0  0  0  0  0
   12.0361   -9.7305    0.0000 C   0  0  0  0  0  0  0  0  0  0  0  0
    8.0591   -7.2324    0.0000 C   0  0  0  0  0  0  0  0  0  0  0  0
    7.3446   -6.8199    0.0000 C   0  0  0  0  0  0  0  0  0  0  0  0
    7.3446   -8.4699    0.0000 C   0  0  0  0  0  0  0  0  0  0  0  0
    6.6301   -7.2324    0.0000 C   0  0  0  0  0  0  0  0  0  0  0  0
    6.6301   -8.0574    0.0000 C   0  0  0  0  0  0  0  0  0  0  0  0
    5.8455   -6.9775    0.0000 C   0  0  0  0  0  0  0  0  0  0  0  0
    5.3606   -7.6449    0.0000 C   0  0  0  0  0  0  0  0  0  0  0  0
    5.8454   -8.3124    0.0000 C   0  0  0  0  0  0  0  0  0  0  0  0
    9.2837   -9.0096    0.0000 H   0  0  0  0  0  0  0  0  0  0  0  0
   10.9159   -6.9864    0.0000 H   0  0  0  0  0  0  0  0  0  0  0  0
   11.8437   -7.5206    0.0000 H   0  0  0  0  0  0  0  0  0  0  0  0
   13.0650   -9.4382    0.0000 H   0  0  0  0  0  0  0  0  0  0  0  0
   16.1189   -7.7077    0.0000 H   0  0  0  0  0  0  0  0  0  0  0  0
   16.6272   -8.1030    0.0000 H   0  0  0  0  0  0  0  0  0  0  0  0
   14.4362   -5.7193    0.0000 H   0  0  0  0  0  0  0  0  0  0  0  0
   15.3734   -6.2301    0.0000 H   0  0  0  0  0  0  0  0  0  0  0  0
   16.1213   -8.5291    0.0000 H   0  0  0  0  0  0  0  0  0  0  0  0
   15.2087   -9.0762    0.0000 H   0  0  0  0  0  0  0  0  0  0  0  0
   12.8435   -7.5080    0.0000 H   0  0  0  0  0  0  0  0  0  0  0  0
   12.8278   -6.6888    0.0000 H   0  0  0  0  0  0  0  0  0  0  0  0
   12.8451   -7.7581    0.0000 H   0  0  0  0  0  0  0  0  0  0  0  0
   14.4973   -9.5087    0.0000 H   0  0  0  0  0  0  0  0  0  0  0  0
   13.5599   -8.9815    0.0000 H   0  0  0  0  0  0  0  0  0  0  0  0
   11.1415   -9.8244    0.0000 H   0  0  0  0  0  0  0  0  0  0  0  0
   10.2162  -10.3636    0.0000 H   0  0  0  0  0  0  0  0  0  0  0  0
    9.9471   -8.6033    0.0000 H   0  0  0  0  0  0  0  0  0  0  0  0
   10.1990   -9.6940    0.0000 H   0  0  0  0  0  0  0  0  0  0  0  0
   13.3247   -8.6139    0.0000 H   0  0  0  0  0  0  0  0  0  0  0  0
   13.0564   -9.7069    0.0000 H   0  0  0  0  0  0  0  0  0  0  0  0
    8.0718  -10.7898    0.0000 H   0  0  0  0  0  0  0  0  0  0  0  0
    8.9957  -10.2500    0.0000 H   0  0  0  0  0  0  0  0  0  0  0  0
    8.7743   -8.2329    0.0000 H   0  0  0  0  0  0  0  0  0  0  0  0
    9.7037   -8.7630    0.0000 H   0  0  0  0  0  0  0  0  0  0  0  0
    5.7115   -9.2012    0.0000 H   0  0  0  0  0  0  0  0  0  0  0  0
    6.6506  -10.7990    0.0000 H   0  0  0  0  0  0  0  0  0  0  0  0
    5.7198  -10.2712    0.0000 H   0  0  0  0  0  0  0  0  0  0  0  0
   10.5798  -10.5941    0.0000 H   0  0  0  0  0  0  0  0  0  0  0  0
   11.6958  -10.6847    0.0000 H   0  0  0  0  0  0  0  0  0  0  0  0
   12.6576  -10.6015    0.0000 H   0  0  0  0  0  0  0  0  0  0  0  0
   11.5463  -10.6818    0.0000 H   0  0  0  0  0  0  0  0  0  0  0  0
    8.9528   -6.7164    0.0000 H   0  0  0  0  0  0  0  0  0  0  0  0
    7.3446   -5.7879    0.0000 H   0  0  0  0  0  0  0  0  0  0  0  0
    7.3446   -9.5019    0.0000 H   0  0  0  0  0  0  0  0  0  0  0  0
    5.5148   -5.9599    0.0000 H   0  0  0  0  0  0  0  0  0  0  0  0
    4.7887   -6.8101    0.0000 H   0  0  0  0  0  0  0  0  0  0  0  0
    4.2906   -7.6448    0.0000 H   0  0  0  0  0  0  0  0  0  0  0  0
    4.8747   -8.5982    0.0000 H   0  0  0  0  0  0  0  0  0  0  0  0
    5.5147   -9.3300    0.0000 H   0  0  0  0  0  0  0  0  0  0  0  0
    4.7886   -8.4797    0.0000 H   0  0  0  0  0  0  0  0  0  0  0  0
  2  4  1  0  0  0  0
  3  1  1  0  0  0  0
  4  5  1  0  0  0  0
  4 20  1  0  0  0  0
  4 38  1  6  0  0  0
  5  3  1  0  0  0  0
  5 39  1  0  0  0  0
  5 40  1  0  0  0  0
  6  1  1  0  0  0  0
  6 41  1  0  0  0  0
  8  2  1  0  0  0  0
  9  8  1  0  0  0  0
  9 30  1  0  0  0  0
 10  7  1  0  0  0  0
 10 15  1  0  0  0  0
 10 14  1  0  0  0  0
 10 42  1  6  0  0  0
 11  1  2  0  0  0  0
 12  2  2  0  0  0  0
 13  7  1  0  0  0  0
 13 43  1  0  0  0  0
 14 18  1  0  0  0  0
 14 44  1  0  0  0  0
 14 45  1  0  0  0  0
 15 19  1  0  0  0  0
 15 46  1  0  0  0  0
 15 47  1  0  0  0  0
 16  6  1  0  0  0  0
 16 48  1  6  0  0  0
 17  7  2  0  0  0  0
 18 16  1  0  0  0  0
 18 49  1  0  0  0  0
 18 50  1  0  0  0  0
 19 16  1  0  0  0  0
 19 51  1  0  0  0  0
 19 52  1  0  0  0  0
 20 53  1  0  0  0  0
 20 54  1  0  0  0  0
 21  3  1  0  0  0  0
 21 55  1  0  0  0  0
 21 56  1  0  0  0  0
 22  3  1  0  0  0  0
 22 57  1  0  0  0  0
 22 58  1  0  0  0  0
 23 20  1  0  0  0  0
 24 25  1  0  0  0  0
 25 26  1  0  0  0  0
 25 59  1  0  0  0  0
 25 60  1  0  0  0  0
 26 23  1  0  0  0  0
 26 61  1  0  0  0  0
 26 62  1  0  0  0  0
 27 24  1  0  0  0  0
 27 63  1  0  0  0  0
 27 64  1  0  0  0  0
 27 65  1  0  0  0  0
 28 21  1  0  0  0  0
 28 29  1  0  0  0  0
 28 66  1  0  0  0  0
 28 67  1  0  0  0  0
 29 22  1  0  0  0  0
 29 68  1  0  0  0  0
 29 69  1  0  0  0  0
 30 70  1  0  0  0  0
 31 30  2  0  0  0  0
 31 71  1  0  0  0  0
 32  9  2  0  0  0  0
 32 72  1  0  0  0  0
 33 31  1  0  0  0  0
 34 32  1  0  0  0  0
 34 33  2  0  0  0  0
 35 33  1  0  0  0  0
 35 73  1  0  0  0  0
 35 74  1  0  0  0  0
 36 35  1  0  0  0  0
 36 75  1  0  0  0  0
 36 76  1  0  0  0  0
 37 34  1  0  0  0  0
 37 36  1  0  0  0  0
 37 77  1  0  0  0  0
 37 78  1  0  0  0  0
M  END
>  <DRUGBANK_ID>
DB00616

>  <SECONDARY_ACCESSION_NUMBERS>
APRD00027

>  <COMMON_NAME>
Candoxatril

>  <CAS_NUMBER>
123122-55-4

>  <UNII>
ACP75508EE

>  <SYNONYMS>
[4(S)-cis]-4-[[[1-[3-[(2,3-dihydro-1H-Indeb5-yl)oxy]-2-[(2-methoxyethoxy)methyl]-3-oxopropyl]cyclopentyl]carbonyl]amino]cyclohexanecarboxylic acid; 4-({1-[(S)-2-(indan-5-yloxycarbonyl)-3-(2-methoxy-ethoxy)-propyl]-cyclopentanecarbonyl}-amino)-cyclohexanecarboxylic acid; Candoxatril

$$$$
