PVB
 OpenBabel10282417072D

 55 57  0  0  0  0  0  0  0  0999 V2000
    0.1173    0.0363    0.0000 N   0  0  0  0  0  0  0  0  0  0  0  0
   -2.3512   -1.8283    0.0000 C   0  0  0  0  0  0  0  0  0  0  0  0
   -2.0962   -1.0437    0.0000 N   0  0  0  0  0  0  0  0  0  0  0  0
   -1.3116   -0.7887    0.0000 C   0  0  0  0  0  0  0  0  0  0  0  0
   -0.5971   -1.2012    0.0000 N   0  0  0  0  0  0  0  0  0  0  0  0
    0.1173   -0.7887    0.0000 C   0  0  0  0  0  0  0  0  0  0  0  0
   -0.5971    0.4488    0.0000 C   0  0  0  0  0  0  0  0  0  0  0  0
   -1.3116    0.0363    0.0000 C   0  0  0  0  0  0  0  0  0  0  0  0
   -2.0962    0.2912    0.0000 N   0  0  0  0  0  0  0  0  0  0  0  0
   -2.5811   -0.3762    0.0000 C   0  0  0  0  0  0  0  0  0  0  0  0
   -0.5971    1.2738    0.0000 N   0  0  0  0  0  0  0  0  0  0  0  0
   -1.3116    1.6863    0.0000 C   0  0  0  0  0  0  0  0  0  0  0  0
   -2.0261    1.2738    0.0000 C   0  0  0  0  0  0  0  0  0  0  0  0
   -2.7405    1.6863    0.0000 C   0  0  0  0  0  0  0  0  0  0  0  0
   -2.7405    2.5113    0.0000 C   0  0  0  0  0  0  0  0  0  0  0  0
   -2.0261    2.9238    0.0000 C   0  0  0  0  0  0  0  0  0  0  0  0
   -2.0261    3.7488    0.0000 Cl  0  0  0  0  0  0  0  0  0  0  0  0
   -1.3116    2.5113    0.0000 C   0  0  0  0  0  0  0  0  0  0  0  0
   -3.4550    2.9238    0.0000 C   0  0  0  0  0  0  0  0  0  0  0  0
   -3.4550    3.7488    0.0000 O   0  0  0  0  0  0  0  0  0  0  0  0
   -4.1695    2.5113    0.0000 O   0  0  0  0  0  0  0  0  0  0  0  0
    0.8318   -1.2012    0.0000 N   0  0  0  0  0  0  0  0  0  0  0  0
    1.5463   -0.7887    0.0000 C   0  0  2  0  0  0  0  0  0  0  0  0
    2.2608   -1.2012    0.0000 C   0  0  0  0  0  0  0  0  0  0  0  0
    2.9752   -0.7887    0.0000 C   0  0  0  0  0  0  0  0  0  0  0  0
    2.2608   -2.0262    0.0000 C   0  0  0  0  0  0  0  0  0  0  0  0
    1.5463    0.0363    0.0000 C   0  0  0  0  0  0  0  0  0  0  0  0
    2.2608    0.4488    0.0000 O   0  0  0  0  0  0  0  0  0  0  0  0
   -3.1581   -1.9998    0.0000 C   0  0  0  0  0  0  0  0  0  0  0  0
   -1.7991   -2.4414    0.0000 C   0  0  0  0  0  0  0  0  0  0  0  0
    1.5463   -1.3727    0.0000 H   0  0  0  0  0  0  0  0  0  0  0  0
   -2.6818   -2.8459    0.0000 H   0  0  0  0  0  0  0  0  0  0  0  0
   -3.6131   -0.3762    0.0000 H   0  0  0  0  0  0  0  0  0  0  0  0
    0.2555    1.7661    0.0000 H   0  0  0  0  0  0  0  0  0  0  0  0
   -2.0261    0.2418    0.0000 H   0  0  0  0  0  0  0  0  0  0  0  0
   -3.6342    1.1703    0.0000 H   0  0  0  0  0  0  0  0  0  0  0  0
   -0.4179    3.0273    0.0000 H   0  0  0  0  0  0  0  0  0  0  0  0
   -2.6435    4.2173    0.0000 H   0  0  0  0  0  0  0  0  0  0  0  0
    0.8318   -2.1857    0.0000 H   0  0  0  0  0  0  0  0  0  0  0  0
    3.1875   -1.7362    0.0000 H   0  0  0  0  0  0  0  0  0  0  0  0
    3.9019   -1.3237    0.0000 H   0  0  0  0  0  0  0  0  0  0  0  0
    2.9752    0.2813    0.0000 H   0  0  0  0  0  0  0  0  0  0  0  0
    3.9018   -0.2537    0.0000 H   0  0  0  0  0  0  0  0  0  0  0  0
    1.3342   -2.5612    0.0000 H   0  0  0  0  0  0  0  0  0  0  0  0
    3.1874   -2.5612    0.0000 H   0  0  0  0  0  0  0  0  0  0  0  0
    2.2608   -3.0962    0.0000 H   0  0  0  0  0  0  0  0  0  0  0  0
    0.6197    0.5713    0.0000 H   0  0  0  0  0  0  0  0  0  0  0  0
    1.5463    1.1063    0.0000 H   0  0  0  0  0  0  0  0  0  0  0  0
    3.1008   -0.0362    0.0000 H   0  0  0  0  0  0  0  0  0  0  0  0
   -3.8741   -1.2046    0.0000 H   0  0  0  0  0  0  0  0  0  0  0  0
   -3.4888   -3.0174    0.0000 H   0  0  0  0  0  0  0  0  0  0  0  0
   -4.2047   -2.2223    0.0000 H   0  0  0  0  0  0  0  0  0  0  0  0
   -2.1297   -3.4590    0.0000 H   0  0  0  0  0  0  0  0  0  0  0  0
   -0.7525   -2.2189    0.0000 H   0  0  0  0  0  0  0  0  0  0  0  0
   -1.0831   -3.2365    0.0000 H   0  0  0  0  0  0  0  0  0  0  0  0
  1  6  1  0  0  0  0
  1  7  2  0  0  0  0
  2  3  1  0  0  0  0
  2 29  1  0  0  0  0
  2 30  1  0  0  0  0
  2 32  1  0  0  0  0
  3  4  1  0  0  0  0
  3 10  1  0  0  0  0
  4  5  1  0  0  0  0
  4  8  2  0  0  0  0
  5  6  2  0  0  0  0
  6 22  1  0  0  0  0
  7  8  1  0  0  0  0
  7 11  1  0  0  0  0
  8  9  1  0  0  0  0
  9 10  2  0  0  0  0
 10 33  1  0  0  0  0
 11 12  1  0  0  0  0
 11 34  1  0  0  0  0
 12 13  2  0  0  0  0
 12 18  1  0  0  0  0
 13 14  1  0  0  0  0
 13 35  1  0  0  0  0
 14 15  2  0  0  0  0
 14 36  1  0  0  0  0
 15 16  1  0  0  0  0
 15 19  1  0  0  0  0
 16 17  1  0  0  0  0
 16 18  2  0  0  0  0
 18 37  1  0  0  0  0
 19 20  1  0  0  0  0
 19 21  2  0  0  0  0
 20 38  1  0  0  0  0
 22 39  1  0  0  0  0
 23 22  1  0  0  0  0
 23 24  1  0  0  0  0
 23 27  1  0  0  0  0
 23 31  1  6  0  0  0
 24 25  1  0  0  0  0
 24 26  1  0  0  0  0
 24 40  1  0  0  0  0
 25 41  1  0  0  0  0
 25 42  1  0  0  0  0
 25 43  1  0  0  0  0
 26 44  1  0  0  0  0
 26 45  1  0  0  0  0
 26 46  1  0  0  0  0
 27 28  1  0  0  0  0
 27 47  1  0  0  0  0
 27 48  1  0  0  0  0
 28 49  1  0  0  0  0
 29 50  1  0  0  0  0
 29 51  1  0  0  0  0
 29 52  1  0  0  0  0
 30 53  1  0  0  0  0
 30 54  1  0  0  0  0
 30 55  1  0  0  0  0
M  END
>  <DRUGBANK_ID>
DB02733

>  <SECONDARY_ACCESSION_NUMBERS>
EXPT02705

>  <COMMON_NAME>
Purvalanol

$$$$
