
 OpenBabel10282417072D

 41 40  0  0  0  0  0  0  0  0999 V2000
    1.4289   -0.4124    0.0000 C   0  0  0  0  0  0  0  0  0  0  0  0
    0.7144    0.0000    0.0000 Sn  0  0  0  0  0  0  0  0  0  0  0  0
    0.7144    0.8250    0.0000 C   0  0  0  0  0  0  0  0  0  0  0  0
    0.0000   -0.4124    0.0000 C   0  0  0  0  0  0  0  0  0  0  0  0
    1.4289    1.2375    0.0000 C   0  0  0  0  0  0  0  0  0  0  0  0
    1.4289    2.0624    0.0000 C   0  0  0  0  0  0  0  0  0  0  0  0
    2.1434    2.4749    0.0000 C   0  0  0  0  0  0  0  0  0  0  0  0
    1.4288   -1.2374    0.0000 C   0  0  0  0  0  0  0  0  0  0  0  0
    2.1432   -1.6499    0.0000 C   0  0  0  0  0  0  0  0  0  0  0  0
    2.1430   -2.4749    0.0000 C   0  0  0  0  0  0  0  0  0  0  0  0
   -0.7146    0.0001    0.0000 C   0  0  0  0  0  0  0  0  0  0  0  0
   -1.4290   -0.4122    0.0000 C   0  0  0  0  0  0  0  0  0  0  0  0
   -2.1434    0.0002    0.0000 C   0  0  0  0  0  0  0  0  0  0  0  0
    0.5008   -0.7968    0.0000 H   0  0  0  0  0  0  0  0  0  0  0  0
    2.3555    0.1226    0.0000 H   0  0  0  0  0  0  0  0  0  0  0  0
    1.4288    0.6576    0.0000 H   0  0  0  0  0  0  0  0  0  0  0  0
   -0.2122    1.3600    0.0000 H   0  0  0  0  0  0  0  0  0  0  0  0
    0.7144    1.8950    0.0000 H   0  0  0  0  0  0  0  0  0  0  0  0
    0.0000   -1.4824    0.0000 H   0  0  0  0  0  0  0  0  0  0  0  0
   -0.9266   -0.9474    0.0000 H   0  0  0  0  0  0  0  0  0  0  0  0
    2.3555    0.7025    0.0000 H   0  0  0  0  0  0  0  0  0  0  0  0
    2.3555    1.7725    0.0000 H   0  0  0  0  0  0  0  0  0  0  0  0
    0.5023    2.5974    0.0000 H   0  0  0  0  0  0  0  0  0  0  0  0
    1.4289    3.1324    0.0000 H   0  0  0  0  0  0  0  0  0  0  0  0
    3.0700    1.9399    0.0000 H   0  0  0  0  0  0  0  0  0  0  0  0
    2.1434    3.5449    0.0000 H   0  0  0  0  0  0  0  0  0  0  0  0
    3.0701    3.0099    0.0000 H   0  0  0  0  0  0  0  0  0  0  0  0
    0.5021   -1.7723    0.0000 H   0  0  0  0  0  0  0  0  0  0  0  0
    1.4287   -2.3074    0.0000 H   0  0  0  0  0  0  0  0  0  0  0  0
    3.0699   -1.1150    0.0000 H   0  0  0  0  0  0  0  0  0  0  0  0
    3.0697   -2.1851    0.0000 H   0  0  0  0  0  0  0  0  0  0  0  0
    1.2162   -3.0097    0.0000 H   0  0  0  0  0  0  0  0  0  0  0  0
    3.0695   -3.0101    0.0000 H   0  0  0  0  0  0  0  0  0  0  0  0
    2.1427   -3.5449    0.0000 H   0  0  0  0  0  0  0  0  0  0  0  0
   -0.7146    1.0701    0.0000 H   0  0  0  0  0  0  0  0  0  0  0  0
   -1.6412    0.5352    0.0000 H   0  0  0  0  0  0  0  0  0  0  0  0
   -1.4291   -1.4822    0.0000 H   0  0  0  0  0  0  0  0  0  0  0  0
   -2.3556   -0.9472    0.0000 H   0  0  0  0  0  0  0  0  0  0  0  0
   -2.1435    1.0702    0.0000 H   0  0  0  0  0  0  0  0  0  0  0  0
   -3.0700   -0.5349    0.0000 H   0  0  0  0  0  0  0  0  0  0  0  0
   -3.0701    0.5351    0.0000 H   0  0  0  0  0  0  0  0  0  0  0  0
  1  8  1  0  0  0  0
  1 15  1  0  0  0  0
  1 16  1  0  0  0  0
  2  1  1  0  0  0  0
  2 14  1  0  0  0  0
  2  3  1  0  0  0  0
  2  4  1  0  0  0  0
  3  5  1  0  0  0  0
  3 17  1  0  0  0  0
  3 18  1  0  0  0  0
  4 11  1  0  0  0  0
  4 19  1  0  0  0  0
  4 20  1  0  0  0  0
  5  6  1  0  0  0  0
  5 21  1  0  0  0  0
  5 22  1  0  0  0  0
  6  7  1  0  0  0  0
  6 23  1  0  0  0  0
  6 24  1  0  0  0  0
  7 25  1  0  0  0  0
  7 26  1  0  0  0  0
  7 27  1  0  0  0  0
  8  9  1  0  0  0  0
  8 28  1  0  0  0  0
  8 29  1  0  0  0  0
  9 10  1  0  0  0  0
  9 30  1  0  0  0  0
  9 31  1  0  0  0  0
 10 32  1  0  0  0  0
 10 33  1  0  0  0  0
 10 34  1  0  0  0  0
 11 12  1  0  0  0  0
 11 35  1  0  0  0  0
 11 36  1  0  0  0  0
 12 13  1  0  0  0  0
 12 37  1  0  0  0  0
 12 38  1  0  0  0  0
 13 39  1  0  0  0  0
 13 40  1  0  0  0  0
 13 41  1  0  0  0  0
M  END
>  <DRUGBANK_ID>
DB08601

>  <COMMON_NAME>
Tributyltin

>  <CAS_NUMBER>
688-73-3

>  <UNII>
4XDX163P3D

>  <SYNONYMS>
Tri-n-butylstannane hydride; Tri-n-butyltin hydride; Tributylstannane; Tributylstannanyl; Tributyltin hydride

$$$$
