368
 OpenBabel10282417072D

 23 23  0  0  1  0  0  0  0  0999 V2000
    2.8075    1.4438    0.0000 O   0  0  0  0  0  0  0  0  0  0  0  0
    2.0930   -1.4438    0.0000 O   0  0  0  0  0  0  0  0  0  0  0  0
    3.5220   -2.2688    0.0000 O   0  0  0  0  0  0  0  0  0  0  0  0
    4.2365    2.2688    0.0000 N   0  0  0  0  0  0  0  0  0  0  0  0
    3.5220    1.0313    0.0000 C   0  0  2  0  0  0  0  0  0  0  0  0
    3.5220    0.2063    0.0000 C   0  0  0  0  0  0  0  0  0  0  0  0
    4.2365    1.4438    0.0000 C   0  0  0  0  0  0  0  0  0  0  0  0
    2.8075   -0.2063    0.0000 C   0  0  0  0  0  0  0  0  0  0  0  0
    4.2365   -0.2063    0.0000 C   0  0  0  0  0  0  0  0  0  0  0  0
    2.8075   -1.0313    0.0000 C   0  0  0  0  0  0  0  0  0  0  0  0
    4.2365   -1.0313    0.0000 C   0  0  0  0  0  0  0  0  0  0  0  0
    3.5220   -1.4438    0.0000 C   0  0  0  0  0  0  0  0  0  0  0  0
    2.8075    2.4138    0.0000 H   0  0  0  0  0  0  0  0  0  0  0  0
    1.2815   -0.9753    0.0000 H   0  0  0  0  0  0  0  0  0  0  0  0
    2.7105   -2.7373    0.0000 H   0  0  0  0  0  0  0  0  0  0  0  0
    5.1198    2.7788    0.0000 H   0  0  0  0  0  0  0  0  0  0  0  0
    3.3532    2.7788    0.0000 H   0  0  0  0  0  0  0  0  0  0  0  0
    2.5954    0.4963    0.0000 H   0  0  0  0  0  0  0  0  0  0  0  0
    5.1631    0.9088    0.0000 H   0  0  0  0  0  0  0  0  0  0  0  0
    4.2365    0.3738    0.0000 H   0  0  0  0  0  0  0  0  0  0  0  0
    1.9137    0.3097    0.0000 H   0  0  0  0  0  0  0  0  0  0  0  0
    5.1303    0.3097    0.0000 H   0  0  0  0  0  0  0  0  0  0  0  0
    5.1302   -1.5473    0.0000 H   0  0  0  0  0  0  0  0  0  0  0  0
  1 13  1  0  0  0  0
  2 10  1  0  0  0  0
  2 14  1  0  0  0  0
  3 12  1  0  0  0  0
  3 15  1  0  0  0  0
  4  7  1  0  0  0  0
  4 16  1  0  0  0  0
  4 17  1  0  0  0  0
  5  1  1  0  0  0  0
  5  6  1  0  0  0  0
  5  7  1  0  0  0  0
  5 18  1  6  0  0  0
  6  8  2  0  0  0  0
  6  9  1  0  0  0  0
  7 19  1  0  0  0  0
  7 20  1  0  0  0  0
  8 10  1  0  0  0  0
  8 21  1  0  0  0  0
  9 11  2  0  0  0  0
  9 22  1  0  0  0  0
 10 12  2  0  0  0  0
 11 12  1  0  0  0  0
 11 23  1  0  0  0  0
M  END
>  <DRUGBANK_ID>
DB00368

>  <SECONDARY_ACCESSION_NUMBERS>
APRD01299

>  <COMMON_NAME>
Norepinephrine

>  <CAS_NUMBER>
51-41-2

>  <UNII>
X4W3ENH1CV

>  <SYNONYMS>
(−)-arterenol; (−)-noradrenaline; (−)-norepinephrine; (R)-(−)-norepinephrine; (R)-4-(2-amino-1-hydroxyethyl)-1,2-benzenediol; (R)-noradrenaline; (R)-norepinephrine; 4-[(1R)-2-Amino-1-hydroxyethyl]-1,2-benzenediol; Arterenol; L-noradrenaline; L-Norepinephrine; Nor-adrenaline; Noradrenaline; Norepinefrina; Norépinéphrine; Norepinephrine; Norepinephrinum

$$$$
