
 OpenBabel10282417072D

 39 41  0  0  1  0  0  0  0  0999 V2000
    0.7145    9.2411    0.0000 C   0  0  0  0  0  0  0  0  0  0  0  0
    0.7145    8.4161    0.0000 N   0  0  0  0  0  0  0  0  0  0  0  0
    1.4289    8.0036    0.0000 C   0  0  0  0  0  0  0  0  0  0  0  0
    1.4289    7.1786    0.0000 C   0  0  0  0  0  0  0  0  0  0  0  0
    0.7145    6.7661    0.0000 N   0  0  0  0  0  0  0  0  0  0  0  0
   -0.0000    7.1786    0.0000 C   0  0  0  0  0  0  0  0  0  0  0  0
   -0.0000    8.0036    0.0000 N   0  0  0  0  0  0  0  0  0  0  0  0
    0.7145    5.9411    0.0000 C   0  0  0  0  0  0  0  0  0  0  0  0
    1.4289    5.5286    0.0000 C   0  0  0  0  0  0  0  0  0  0  0  0
    1.4289    4.7036    0.0000 C   0  0  0  0  0  0  0  0  0  0  0  0
    0.7145    4.2911    0.0000 C   0  0  0  0  0  0  0  0  0  0  0  0
    0.0000    4.7036    0.0000 C   0  0  0  0  0  0  0  0  0  0  0  0
   -0.0000    5.5286    0.0000 C   0  0  0  0  0  0  0  0  0  0  0  0
   -0.7145    5.9411    0.0000 F   0  0  0  0  0  0  0  0  0  0  0  0
    0.7145    3.4661    0.0000 N   0  0  0  0  0  0  0  0  0  0  0  0
    1.3819    2.9812    0.0000 C   0  0  0  0  0  0  0  0  0  0  0  0
    1.1270    2.1965    0.0000 C   0  0  1  0  0  0  0  0  0  0  0  0
    0.3020    2.1965    0.0000 O   0  0  0  0  0  0  0  0  0  0  0  0
    0.0470    2.9812    0.0000 C   0  0  0  0  0  0  0  0  0  0  0  0
   -0.7376    3.2361    0.0000 O   0  0  0  0  0  0  0  0  0  0  0  0
    1.6119    1.5291    0.0000 C   0  0  0  0  0  0  0  0  0  0  0  0
    2.4324    1.6153    0.0000 O   0  0  0  0  0  0  0  0  0  0  0  0
    1.6411    9.7761    0.0000 H   0  0  0  0  0  0  0  0  0  0  0  0
   -0.2121    9.7761    0.0000 H   0  0  0  0  0  0  0  0  0  0  0  0
    0.7145   10.3111    0.0000 H   0  0  0  0  0  0  0  0  0  0  0  0
    2.3556    8.5386    0.0000 H   0  0  0  0  0  0  0  0  0  0  0  0
    2.3555    7.4686    0.0000 H   0  0  0  0  0  0  0  0  0  0  0  0
    2.3556    6.6436    0.0000 H   0  0  0  0  0  0  0  0  0  0  0  0
    1.4289    6.1086    0.0000 H   0  0  0  0  0  0  0  0  0  0  0  0
   -0.8937    6.6626    0.0000 H   0  0  0  0  0  0  0  0  0  0  0  0
    2.3226    6.0446    0.0000 H   0  0  0  0  0  0  0  0  0  0  0  0
    2.3226    4.1876    0.0000 H   0  0  0  0  0  0  0  0  0  0  0  0
   -0.8937    4.1876    0.0000 H   0  0  0  0  0  0  0  0  0  0  0  0
    2.3995    3.3119    0.0000 H   0  0  0  0  0  0  0  0  0  0  0  0
    2.1385    2.2246    0.0000 H   0  0  0  0  0  0  0  0  0  0  0  0
    2.1838    2.3639    0.0000 H   0  0  0  0  0  0  0  0  0  0  0  0
    1.1767    0.5516    0.0000 H   0  0  0  0  0  0  0  0  0  0  0  0
    2.2408    0.6634    0.0000 H   0  0  0  0  0  0  0  0  0  0  0  0
    3.0025    0.8305    0.0000 H   0  0  0  0  0  0  0  0  0  0  0  0
  1  2  1  0  0  0  0
  1 23  1  0  0  0  0
  1 24  1  0  0  0  0
  1 25  1  0  0  0  0
  2  3  1  0  0  0  0
  2  7  1  0  0  0  0
  3  4  1  0  0  0  0
  3 26  1  0  0  0  0
  3 27  1  0  0  0  0
  4  5  1  0  0  0  0
  4 28  1  0  0  0  0
  4 29  1  0  0  0  0
  5  6  1  0  0  0  0
  5  8  1  0  0  0  0
  6  7  2  0  0  0  0
  6 30  1  0  0  0  0
  8  9  2  0  0  0  0
  8 13  1  0  0  0  0
  9 10  1  0  0  0  0
  9 31  1  0  0  0  0
 10 11  2  0  0  0  0
 10 32  1  0  0  0  0
 11 12  1  0  0  0  0
 11 15  1  0  0  0  0
 12 13  2  0  0  0  0
 12 33  1  0  0  0  0
 13 14  1  0  0  0  0
 15 16  1  0  0  0  0
 15 19  1  0  0  0  0
 16 17  1  0  0  0  0
 16 34  1  0  0  0  0
 16 35  1  0  0  0  0
 17 18  1  0  0  0  0
 17 21  1  0  0  0  0
 17 36  1  1  0  0  0
 18 19  1  0  0  0  0
 19 20  2  0  0  0  0
 21 22  1  0  0  0  0
 21 37  1  0  0  0  0
 21 38  1  0  0  0  0
 22 39  1  0  0  0  0
M  END
>  <DRUGBANK_ID>
DB13077

>  <COMMON_NAME>
Delpazolid

>  <CAS_NUMBER>
1219707-39-7

>  <UNII>
43EP6XV33E

>  <SYNONYMS>
(5R)-3-(3-fluoro-4-(1-methyl-5,6-dihydro-1,2,4-triazin-4-yl)phenyl)-5-(hydroxymethyl)oxazolidin-2-one; (5R)-3-(3-fluoro-4-(1-methyl-5,6-dihydro-1,2,4-triazin-4(1H)-yl)phenyl)-5-(hydroxymethyl)-1,3-oxazolidin-2-one; (R)-3-[3-Fluoro-4-(1-methyl-1,4,5,6-tetrahydro-1,2,4-triazin-4-yl)phenyl]-5(R)-(hydroxymethyl)oxazolidin-2-one; 2-oxazolidinone, 3-(4-(5,6-dihydro-1-methyl-1,2,4-triazin-4(1H)-yl)-3-fluorophenyl)-5-(hydroxymethyl)-, (5R)-

$$$$
