PPT
 OpenBabel10282417072D

 24 24  0  0  0  0  0  0  0  0999 V2000
    0.9141    1.1356    0.0000 C   0  0  0  0  0  0  0  0  0  0  0  0
    1.6286    1.5481    0.0000 C   0  0  0  0  0  0  0  0  0  0  0  0
    1.6286    2.3731    0.0000 O   0  0  0  0  0  0  0  0  0  0  0  0
    2.3431    1.1356    0.0000 O   0  0  0  0  0  0  0  0  0  0  0  0
    0.9141    0.3106    0.0000 C   0  0  0  0  0  0  0  0  0  0  0  0
    0.1997   -0.1019    0.0000 C   0  0  0  0  0  0  0  0  0  0  0  0
    0.1997   -0.9269    0.0000 C   0  0  0  0  0  0  0  0  0  0  0  0
   -0.5148    0.3106    0.0000 C   0  0  0  0  0  0  0  0  0  0  0  0
   -0.5148   -1.3394    0.0000 C   0  0  0  0  0  0  0  0  0  0  0  0
   -1.2293   -0.1019    0.0000 C   0  0  0  0  0  0  0  0  0  0  0  0
   -1.2293   -0.9269    0.0000 C   0  0  0  0  0  0  0  0  0  0  0  0
   -1.9437   -1.3394    0.0000 C   0  0  0  0  0  0  0  0  0  0  0  0
   -0.0125    1.6706    0.0000 H   0  0  0  0  0  0  0  0  0  0  0  0
   -0.0125    0.6006    0.0000 H   0  0  0  0  0  0  0  0  0  0  0  0
    2.3431    0.1986    0.0000 H   0  0  0  0  0  0  0  0  0  0  0  0
    1.8408   -0.2244    0.0000 H   0  0  0  0  0  0  0  0  0  0  0  0
    0.9141   -0.7594    0.0000 H   0  0  0  0  0  0  0  0  0  0  0  0
    1.0934   -1.4429    0.0000 H   0  0  0  0  0  0  0  0  0  0  0  0
   -0.5148    1.3426    0.0000 H   0  0  0  0  0  0  0  0  0  0  0  0
   -0.5148   -2.3714    0.0000 H   0  0  0  0  0  0  0  0  0  0  0  0
   -2.1230    0.4141    0.0000 H   0  0  0  0  0  0  0  0  0  0  0  0
   -2.8704   -0.8044    0.0000 H   0  0  0  0  0  0  0  0  0  0  0  0
   -1.9437   -2.4094    0.0000 H   0  0  0  0  0  0  0  0  0  0  0  0
   -2.8703   -1.8744    0.0000 H   0  0  0  0  0  0  0  0  0  0  0  0
  1  2  1  0  0  0  0
  1  5  1  0  0  0  0
  1 13  1  0  0  0  0
  1 14  1  0  0  0  0
  2  3  2  0  0  0  0
  2  4  1  0  0  0  0
  4 15  1  0  0  0  0
  5  6  1  0  0  0  0
  5 16  1  0  0  0  0
  5 17  1  0  0  0  0
  6  7  2  0  0  0  0
  6  8  1  0  0  0  0
  7  9  1  0  0  0  0
  7 18  1  0  0  0  0
  8 10  2  0  0  0  0
  8 19  1  0  0  0  0
  9 11  2  0  0  0  0
  9 20  1  0  0  0  0
 10 11  1  0  0  0  0
 10 21  1  0  0  0  0
 11 12  1  0  0  0  0
 12 22  1  0  0  0  0
 12 23  1  0  0  0  0
 12 24  1  0  0  0  0
M  END
>  <DRUGBANK_ID>
DB03400

>  <SECONDARY_ACCESSION_NUMBERS>
EXPT02648

>  <COMMON_NAME>
3-(P-Tolyl)Propionic Acid

>  <UNII>
BG327JNM0V

$$$$
