
 OpenBabel10282417072D

 45 48  0  0  0  0  0  0  0  0999 V2000
   -2.5345   -1.4401    0.0000 N   0  0  0  0  0  0  0  0  0  0  0  0
   -2.5345   -2.2658    0.0000 C   0  0  0  0  0  0  0  0  0  0  0  0
   -1.8220   -2.6744    0.0000 N   0  0  0  0  0  0  0  0  0  0  0  0
   -1.1095   -2.2658    0.0000 C   0  0  0  0  0  0  0  0  0  0  0  0
   -1.1095   -1.4401    0.0000 C   0  0  0  0  0  0  0  0  0  0  0  0
   -1.8220   -1.0231    0.0000 C   0  0  0  0  0  0  0  0  0  0  0  0
   -0.3901   -1.0287    0.0000 C   0  0  0  0  0  0  0  0  0  0  0  0
    1.0442   -0.2127    0.0000 N   0  0  0  0  0  0  0  0  0  0  0  0
    0.3305    0.2043    0.0000 C   0  0  0  0  0  0  0  0  0  0  0  0
   -0.3896   -0.2044    0.0000 N   0  0  0  0  0  0  0  0  0  0  0  0
    1.0374   -1.0386    0.0000 C   0  0  0  0  0  0  0  0  0  0  0  0
    0.3196   -1.4445    0.0000 C   0  0  0  0  0  0  0  0  0  0  0  0
    0.4838   -2.2528    0.0000 C   0  0  0  0  0  0  0  0  0  0  0  0
    1.3033   -2.3463    0.0000 C   0  0  0  0  0  0  0  0  0  0  0  0
    1.6454   -1.5959    0.0000 N   0  0  0  0  0  0  0  0  0  0  0  0
    0.3382    1.0295    0.0000 N   0  0  0  0  0  0  0  0  0  0  0  0
    1.0576    1.4365    0.0000 C   0  0  0  0  0  0  0  0  0  0  0  0
    1.0648    2.2585    0.0000 C   0  0  0  0  0  0  0  0  0  0  0  0
    0.3542    2.6796    0.0000 O   0  0  0  0  0  0  0  0  0  0  0  0
   -0.3652    2.2727    0.0000 C   0  0  0  0  0  0  0  0  0  0  0  0
   -0.3740    1.4444    0.0000 C   0  0  0  0  0  0  0  0  0  0  0  0
   -3.2490   -2.6796    0.0000 N   0  0  0  0  0  0  0  0  0  0  0  0
    2.4544   -1.4315    0.0000 S   0  0  0  0  0  0  0  0  0  0  0  0
    2.4483   -0.6020    0.0000 O   0  0  0  0  0  0  0  0  0  0  0  0
    3.2490   -1.2107    0.0000 O   0  0  0  0  0  0  0  0  0  0  0  0
    2.6652   -2.2240    0.0000 C   0  0  0  0  0  0  0  0  0  0  0  0
   -0.2165   -2.7831    0.0000 H   0  0  0  0  0  0  0  0  0  0  0  0
   -1.8220    0.0089    0.0000 H   0  0  0  0  0  0  0  0  0  0  0  0
   -0.2393   -3.0415    0.0000 H   0  0  0  0  0  0  0  0  0  0  0  0
    0.8583   -3.2551    0.0000 H   0  0  0  0  0  0  0  0  0  0  0  0
    1.8301   -3.2777    0.0000 H   0  0  0  0  0  0  0  0  0  0  0  0
    2.3723   -2.2998    0.0000 H   0  0  0  0  0  0  0  0  0  0  0  0
    1.9795    0.8934    0.0000 H   0  0  0  0  0  0  0  0  0  0  0  0
    1.9889    1.9634    0.0000 H   0  0  0  0  0  0  0  0  0  0  0  0
    1.9968    2.7842    0.0000 H   0  0  0  0  0  0  0  0  0  0  0  0
    1.0763    3.3284    0.0000 H   0  0  0  0  0  0  0  0  0  0  0  0
   -1.2866    2.8167    0.0000 H   0  0  0  0  0  0  0  0  0  0  0  0
   -1.2972    1.7472    0.0000 H   0  0  0  0  0  0  0  0  0  0  0  0
   -1.3045    0.9161    0.0000 H   0  0  0  0  0  0  0  0  0  0  0  0
   -1.2958    1.9877    0.0000 H   0  0  0  0  0  0  0  0  0  0  0  0
   -4.1023   -2.1885    0.0000 H   0  0  0  0  0  0  0  0  0  0  0  0
   -3.2477   -3.6641    0.0000 H   0  0  0  0  0  0  0  0  0  0  0  0
    1.9072   -2.9792    0.0000 H   0  0  0  0  0  0  0  0  0  0  0  0
    3.6982   -2.5028    0.0000 H   0  0  0  0  0  0  0  0  0  0  0  0
    2.9402   -3.2580    0.0000 H   0  0  0  0  0  0  0  0  0  0  0  0
  1  2  1  0  0  0  0
  1  6  2  0  0  0  0
  2  3  2  0  0  0  0
  2 22  1  0  0  0  0
  3  4  1  0  0  0  0
  4  5  2  0  0  0  0
  4 27  1  0  0  0  0
  5  6  1  0  0  0  0
  5  7  1  0  0  0  0
  6 28  1  0  0  0  0
  7 12  2  0  0  0  0
  7 10  1  0  0  0  0
  8  9  1  0  0  0  0
  9 16  1  0  0  0  0
  9 10  2  0  0  0  0
 11  8  2  0  0  0  0
 11 12  1  0  0  0  0
 12 13  1  0  0  0  0
 13 14  1  0  0  0  0
 13 29  1  0  0  0  0
 13 30  1  0  0  0  0
 14 15  1  0  0  0  0
 14 31  1  0  0  0  0
 14 32  1  0  0  0  0
 15 11  1  0  0  0  0
 15 23  1  0  0  0  0
 16 17  1  0  0  0  0
 16 21  1  0  0  0  0
 17 18  1  0  0  0  0
 17 33  1  0  0  0  0
 17 34  1  0  0  0  0
 18 19  1  0  0  0  0
 18 35  1  0  0  0  0
 18 36  1  0  0  0  0
 19 20  1  0  0  0  0
 20 21  1  0  0  0  0
 20 37  1  0  0  0  0
 20 38  1  0  0  0  0
 21 39  1  0  0  0  0
 21 40  1  0  0  0  0
 22 41  1  0  0  0  0
 22 42  1  0  0  0  0
 23 24  2  0  0  0  0
 23 25  2  0  0  0  0
 23 26  1  0  0  0  0
 26 43  1  0  0  0  0
 26 44  1  0  0  0  0
 26 45  1  0  0  0  0
M  END
>  <DRUGBANK_ID>
DB13051

>  <COMMON_NAME>
CH-5132799

>  <CAS_NUMBER>
1007207-67-1

>  <UNII>
JCL936W835

$$$$
