
 OpenBabel10282417072D

188192  0  0  0  0  0  0  0  0999 V2000
    5.1402   -0.1193    0.0000 O   0  0  0  0  0  0  0  0  0  0  0  0
    4.3313    0.0425    0.0000 C   0  0  2  0  0  0  0  0  0  0  0  0
    3.7866   -0.5768    0.0000 C   0  0  0  0  0  0  0  0  0  0  0  0
    4.0670    0.8239    0.0000 C   0  0  2  0  0  0  0  0  0  0  0  0
    3.2583    0.9857    0.0000 N   0  0  0  0  0  0  0  0  0  0  0  0
    2.9941    1.7671    0.0000 C   0  0  0  0  0  0  0  0  0  0  0  0
    3.5387    2.3867    0.0000 O   0  0  0  0  0  0  0  0  0  0  0  0
    2.1854    1.9289    0.0000 C   0  0  2  0  0  0  0  0  0  0  0  0
    1.6125    1.2747    0.0000 C   0  0  0  0  0  0  0  0  0  0  0  0
    0.7554    1.4534    0.0000 S   0  0  0  0  0  0  0  0  0  0  0  0
    0.1769    0.7923    0.0000 S   0  0  0  0  0  0  0  0  0  0  0  0
   -0.9834   -0.4676    0.0000 N   0  0  0  0  0  0  0  0  0  0  0  0
   -1.5322   -1.0834    0.0000 C   0  0  0  0  0  0  0  0  0  0  0  0
   -2.3397   -0.9158    0.0000 O   0  0  0  0  0  0  0  0  0  0  0  0
   -1.2733   -1.8664    0.0000 C   0  0  2  0  0  0  0  0  0  0  0  0
   -0.4656   -2.0339    0.0000 N   0  0  0  0  0  0  0  0  0  0  0  0
   -0.2067   -2.8168    0.0000 C   0  0  0  0  0  0  0  0  0  0  0  0
    0.6010   -2.9842    0.0000 C   0  0  0  0  0  0  0  0  0  0  0  0
    0.8598   -3.7673    0.0000 N   0  0  0  0  0  0  0  0  0  0  0  0
    1.6438   -4.0553    0.0000 C   0  0  0  0  0  0  0  0  0  0  0  0
    1.5349   -4.8859    0.0000 C   0  0  0  0  0  0  0  0  0  0  0  0
    2.2253   -5.3429    0.0000 N   0  0  0  0  0  0  0  0  0  0  0  0
    3.0095   -5.0872    0.0000 C   0  0  0  0  0  0  0  0  0  0  0  0
    3.6230   -5.6386    0.0000 C   0  0  0  0  0  0  0  0  0  0  0  0
    3.4524   -6.4455    0.0000 O   0  0  0  0  0  0  0  0  0  0  0  0
    4.4073   -5.3828    0.0000 O   0  5  0  0  0  0  0  0  0  0  0  0
    1.9350   -6.1247    0.0000 C   0  0  0  0  0  0  0  0  0  0  0  0
    1.1027   -6.0166    0.0000 C   0  0  0  0  0  0  0  0  0  0  0  0
    0.6435   -6.7098    0.0000 N   0  0  0  0  0  0  0  0  0  0  0  0
    0.9003   -7.4937    0.0000 C   0  0  0  0  0  0  0  0  0  0  0  0
    0.3497   -8.1077    0.0000 C   0  0  0  0  0  0  0  0  0  0  0  0
   -0.4573   -7.9382    0.0000 O   0  0  0  0  0  0  0  0  0  0  0  0
    0.6065   -8.8918    0.0000 O   0  5  0  0  0  0  0  0  0  0  0  0
   -0.1478   -6.4185    0.0000 C   0  0  0  0  0  0  0  0  0  0  0  0
   -0.0454   -5.5942    0.0000 C   0  0  0  0  0  0  0  0  0  0  0  0
   -0.7329   -5.1385    0.0000 N   0  0  0  0  0  0  0  0  0  0  0  0
   -1.5178   -5.3920    0.0000 C   0  0  0  0  0  0  0  0  0  0  0  0
   -2.1298   -4.8391    0.0000 C   0  0  0  0  0  0  0  0  0  0  0  0
   -1.9568   -4.0325    0.0000 O   0  0  0  0  0  0  0  0  0  0  0  0
   -2.9148   -5.0923    0.0000 O   0  5  0  0  0  0  0  0  0  0  0  0
   -0.4388   -4.3589    0.0000 C   0  0  0  0  0  0  0  0  0  0  0  0
    0.3958   -4.4749    0.0000 C   0  0  0  0  0  0  0  0  0  0  0  0
   -0.7556   -3.4327    0.0000 O   0  0  0  0  0  0  0  0  0  0  0  0
   -1.8220   -2.4821    0.0000 C   0  0  0  0  0  0  0  0  0  0  0  0
   -2.6296   -2.3149    0.0000 C   0  0  0  0  0  0  0  0  0  0  0  0
   -2.8875   -1.5268    0.0000 C   0  0  0  0  0  0  0  0  0  0  0  0
   -3.6953   -1.3595    0.0000 C   0  0  0  0  0  0  0  0  0  0  0  0
   -4.2476   -1.9722    0.0000 C   0  0  0  0  0  0  0  0  0  0  0  0
   -3.9897   -2.7600    0.0000 C   0  0  0  0  0  0  0  0  0  0  0  0
   -3.1795   -2.9353    0.0000 C   0  0  0  0  0  0  0  0  0  0  0  0
   -3.2107    2.2614    0.0000 C   0  0  0  0  0  0  0  0  0  0  0  0
   -3.7646    1.6501    0.0000 C   0  0  0  0  0  0  0  0  0  0  0  0
   -3.5084    0.8615    0.0000 C   0  0  0  0  0  0  0  0  0  0  0  0
   -4.0622    0.2501    0.0000 C   0  0  0  0  0  0  0  0  0  0  0  0
   -4.8693    0.4193    0.0000 C   0  0  0  0  0  0  0  0  0  0  0  0
   -5.4204   -0.1941    0.0000 O   0  0  0  0  0  0  0  0  0  0  0  0
   -5.1256    1.2081    0.0000 C   0  0  0  0  0  0  0  0  0  0  0  0
   -4.5743    1.8274    0.0000 C   0  0  0  0  0  0  0  0  0  0  0  0
   -2.0460    2.7440    0.0000 C   0  0  0  0  0  0  0  0  0  0  0  0
   -2.8817    2.9249    0.0000 O   0  0  0  0  0  0  0  0  0  0  0  0
   -1.4726    3.3839    0.0000 N   0  0  0  0  0  0  0  0  0  0  0  0
   -1.7424    4.1999    0.0000 C   0  0  2  0  0  0  0  0  0  0  0  0
   -2.5489    4.3714    0.0000 C   0  0  0  0  0  0  0  0  0  0  0  0
   -2.8038    5.1558    0.0000 C   0  0  0  0  0  0  0  0  0  0  0  0
   -2.3156    5.8280    0.0000 C   0  0  0  0  0  0  0  0  0  0  0  0
   -2.8038    6.4999    0.0000 N   0  0  0  0  0  0  0  0  0  0  0  0
   -3.5939    6.2433    0.0000 C   0  0  0  0  0  0  0  0  0  0  0  0
   -4.3097    6.6622    0.0000 C   0  0  0  0  0  0  0  0  0  0  0  0
   -5.0258    6.2433    0.0000 C   0  0  0  0  0  0  0  0  0  0  0  0
   -5.0258    5.4136    0.0000 C   0  0  0  0  0  0  0  0  0  0  0  0
   -4.3097    5.0030    0.0000 C   0  0  0  0  0  0  0  0  0  0  0  0
   -3.5939    5.4126    0.0000 C   0  0  0  0  0  0  0  0  0  0  0  0
   -1.1642    4.8354    0.0000 C   0  0  0  0  0  0  0  0  0  0  0  0
   -1.4229    5.6188    0.0000 O   0  0  0  0  0  0  0  0  0  0  0  0
   -0.3194    4.6683    0.0000 N   0  0  0  0  0  0  0  0  0  0  0  0
    0.2490    5.3082    0.0000 C   0  0  1  0  0  0  0  0  0  0  0  0
   -0.0162    6.0893    0.0000 C   0  0  0  0  0  0  0  0  0  0  0  0
    0.5274    6.7095    0.0000 C   0  0  0  0  0  0  0  0  0  0  0  0
    0.2622    7.4905    0.0000 C   0  0  0  0  0  0  0  0  0  0  0  0
    0.8058    8.1109    0.0000 C   0  0  0  0  0  0  0  0  0  0  0  0
    0.5405    8.8918    0.0000 N   0  0  0  0  0  0  0  0  0  0  0  0
    1.0832    5.1480    0.0000 C   0  0  0  0  0  0  0  0  0  0  0  0
    1.6231    5.7718    0.0000 O   0  0  0  0  0  0  0  0  0  0  0  0
    1.3641    4.3372    0.0000 N   0  0  0  0  0  0  0  0  0  0  0  0
    2.2078    4.1660    0.0000 C   0  0  2  0  0  0  0  0  0  0  0  0
    2.4817    3.3552    0.0000 C   0  0  0  0  0  0  0  0  0  0  0  0
    3.2868    3.1758    0.0000 O   0  0  0  0  0  0  0  0  0  0  0  0
    1.9075    2.7562    0.0000 N   0  0  0  0  0  0  0  0  0  0  0  0
    2.7535    4.7847    0.0000 C   0  0  2  0  0  0  0  0  0  0  0  0
    2.4905    5.5665    0.0000 O   0  0  0  0  0  0  0  0  0  0  0  0
    3.5618    4.6217    0.0000 C   0  0  0  0  0  0  0  0  0  0  0  0
    4.6119    1.4433    0.0000 C   0  0  0  0  0  0  0  0  0  0  0  0
    5.4204    1.2815    0.0000 O   0  0  0  0  0  0  0  0  0  0  0  0
    4.6119    2.2682    0.0000 O   0  0  0  0  0  0  0  0  0  0  0  0
   -2.3716    1.3157    0.0000 N   0  0  0  0  0  0  0  0  0  0  0  0
   -2.6513   -0.1127    0.0000 O   0  0  0  0  0  0  0  0  0  0  0  0
   -2.1004    0.5011    0.0000 C   0  0  0  0  0  0  0  0  0  0  0  0
   -1.7996    1.9569    0.0000 C   0  0  1  0  0  0  0  0  0  0  0  0
   -0.6734    0.9652    0.0000 C   0  0  0  0  0  0  0  0  0  0  0  0
   -1.2423    0.3155    0.0000 C   0  0  2  0  0  0  0  0  0  0  0  0
    0.7878   -5.1569    0.0000 Lu  0  1  0  0  0  0  0  0  0  0  0  0
    5.4510   -1.0382    0.0000 H   0  0  0  0  0  0  0  0  0  0  0  0
    3.2821    0.2526    0.0000 H   0  0  0  0  0  0  0  0  0  0  0  0
    2.7375   -0.3665    0.0000 H   0  0  0  0  0  0  0  0  0  0  0  0
    4.1291   -1.5905    0.0000 H   0  0  0  0  0  0  0  0  0  0  0  0
    3.0799   -1.3802    0.0000 H   0  0  0  0  0  0  0  0  0  0  0  0
    3.3606    0.0202    0.0000 H   0  0  0  0  0  0  0  0  0  0  0  0
    2.6083    0.2463    0.0000 H   0  0  0  0  0  0  0  0  0  0  0  0
    2.5291    0.9156    0.0000 H   0  0  0  0  0  0  0  0  0  0  0  0
    1.9521    0.2600    0.0000 H   0  0  0  0  0  0  0  0  0  0  0  0
    0.9016    0.4750    0.0000 H   0  0  0  0  0  0  0  0  0  0  0  0
   -0.0194   -0.6674    0.0000 H   0  0  0  0  0  0  0  0  0  0  0  0
   -0.5614   -1.0676    0.0000 H   0  0  0  0  0  0  0  0  0  0  0  0
    0.1894   -1.2989    0.0000 H   0  0  0  0  0  0  0  0  0  0  0  0
    1.3129   -2.1854    0.0000 H   0  0  0  0  0  0  0  0  0  0  0  0
    1.6487   -3.2014    0.0000 H   0  0  0  0  0  0  0  0  0  0  0  0
    2.5592   -3.5013    0.0000 H   0  0  0  0  0  0  0  0  0  0  0  0
    2.5397   -4.6403    0.0000 H   0  0  0  0  0  0  0  0  0  0  0  0
    0.5614   -5.3299    0.0000 H   0  0  0  0  0  0  0  0  0  0  0  0
    1.4511   -5.9526    0.0000 H   0  0  0  0  0  0  0  0  0  0  0  0
    3.2310   -4.0404    0.0000 H   0  0  0  0  0  0  0  0  0  0  0  0
    4.0268   -4.7556    0.0000 H   0  0  0  0  0  0  0  0  0  0  0  0
    2.4879   -7.0408    0.0000 H   0  0  0  0  0  0  0  0  0  0  0  0
    1.3500   -7.0206    0.0000 H   0  0  0  0  0  0  0  0  0  0  0  0
    0.6583   -5.0432    0.0000 H   0  0  0  0  0  0  0  0  0  0  0  0
    0.0360   -5.9328    0.0000 H   0  0  0  0  0  0  0  0  0  0  0  0
    1.9474   -7.7138    0.0000 H   0  0  0  0  0  0  0  0  0  0  0  0
    1.2331   -8.5106    0.0000 H   0  0  0  0  0  0  0  0  0  0  0  0
   -1.0615   -6.9753    0.0000 H   0  0  0  0  0  0  0  0  0  0  0  0
   -1.0466   -5.8379    0.0000 H   0  0  0  0  0  0  0  0  0  0  0  0
    0.9268   -5.1472    0.0000 H   0  0  0  0  0  0  0  0  0  0  0  0
    0.0371   -4.5274    0.0000 H   0  0  0  0  0  0  0  0  0  0  0  0
   -1.7421   -6.4382    0.0000 H   0  0  0  0  0  0  0  0  0  0  0  0
   -2.5360   -5.7209    0.0000 H   0  0  0  0  0  0  0  0  0  0  0  0
   -0.9852   -3.4389    0.0000 H   0  0  0  0  0  0  0  0  0  0  0  0
    0.1534   -3.4677    0.0000 H   0  0  0  0  0  0  0  0  0  0  0  0
    0.8381   -5.4492    0.0000 H   0  0  0  0  0  0  0  0  0  0  0  0
    1.4626   -4.5573    0.0000 H   0  0  0  0  0  0  0  0  0  0  0  0
   -1.4861   -3.4980    0.0000 H   0  0  0  0  0  0  0  0  0  0  0  0
   -2.5338   -3.2810    0.0000 H   0  0  0  0  0  0  0  0  0  0  0  0
   -2.1998   -0.7574    0.0000 H   0  0  0  0  0  0  0  0  0  0  0  0
   -4.0165   -0.3788    0.0000 H   0  0  0  0  0  0  0  0  0  0  0  0
   -5.2572   -1.7585    0.0000 H   0  0  0  0  0  0  0  0  0  0  0  0
   -4.6808   -3.5264    0.0000 H   0  0  0  0  0  0  0  0  0  0  0  0
   -2.8586   -3.9161    0.0000 H   0  0  0  0  0  0  0  0  0  0  0  0
   -3.5382    3.2801    0.0000 H   0  0  0  0  0  0  0  0  0  0  0  0
   -2.4923    3.0543    0.0000 H   0  0  0  0  0  0  0  0  0  0  0  0
   -2.4993    0.6454    0.0000 H   0  0  0  0  0  0  0  0  0  0  0  0
   -3.7434   -0.7314    0.0000 H   0  0  0  0  0  0  0  0  0  0  0  0
   -6.3371   -0.0003    0.0000 H   0  0  0  0  0  0  0  0  0  0  0  0
   -6.1357    1.4198    0.0000 H   0  0  0  0  0  0  0  0  0  0  0  0
   -4.8930    2.8090    0.0000 H   0  0  0  0  0  0  0  0  0  0  0  0
   -0.5088    3.1829    0.0000 H   0  0  0  0  0  0  0  0  0  0  0  0
   -2.4563    3.4029    0.0000 H   0  0  0  0  0  0  0  0  0  0  0  0
   -3.2649    3.5763    0.0000 H   0  0  0  0  0  0  0  0  0  0  0  0
   -3.5955    4.5939    0.0000 H   0  0  0  0  0  0  0  0  0  0  0  0
   -1.2836    5.8281    0.0000 H   0  0  0  0  0  0  0  0  0  0  0  0
   -2.4995    7.4362    0.0000 H   0  0  0  0  0  0  0  0  0  0  0  0
   -4.3096    7.6942    0.0000 H   0  0  0  0  0  0  0  0  0  0  0  0
   -5.9210    6.7568    0.0000 H   0  0  0  0  0  0  0  0  0  0  0  0
   -5.9188    4.8963    0.0000 H   0  0  0  0  0  0  0  0  0  0  0  0
   -4.3101    3.9710    0.0000 H   0  0  0  0  0  0  0  0  0  0  0  0
   -0.0054    3.7352    0.0000 H   0  0  0  0  0  0  0  0  0  0  0  0
   -0.7998    5.5202    0.0000 H   0  0  0  0  0  0  0  0  0  0  0  0
   -1.0657    6.2979    0.0000 H   0  0  0  0  0  0  0  0  0  0  0  0
   -0.3604    7.1024    0.0000 H   0  0  0  0  0  0  0  0  0  0  0  0
    1.5769    6.5009    0.0000 H   0  0  0  0  0  0  0  0  0  0  0  0
    1.2328    7.5141    0.0000 H   0  0  0  0  0  0  0  0  0  0  0  0
   -0.7873    7.6990    0.0000 H   0  0  0  0  0  0  0  0  0  0  0  0
   -0.0821    8.5036    0.0000 H   0  0  0  0  0  0  0  0  0  0  0  0
    1.8553    7.9025    0.0000 H   0  0  0  0  0  0  0  0  0  0  0  0
    1.5111    8.9156    0.0000 H   0  0  0  0  0  0  0  0  0  0  0  0
    1.2128    9.6588    0.0000 H   0  0  0  0  0  0  0  0  0  0  0  0
   -0.4600    9.0905    0.0000 H   0  0  0  0  0  0  0  0  0  0  0  0
    0.7159    3.5962    0.0000 H   0  0  0  0  0  0  0  0  0  0  0  0
    1.5002    3.3634    0.0000 H   0  0  0  0  0  0  0  0  0  0  0  0
    0.9467    2.9711    0.0000 H   0  0  0  0  0  0  0  0  0  0  0  0
    1.7046    4.9964    0.0000 H   0  0  0  0  0  0  0  0  0  0  0  0
    3.1321    6.2940    0.0000 H   0  0  0  0  0  0  0  0  0  0  0  0
    3.9031    3.6076    0.0000 H   0  0  0  0  0  0  0  0  0  0  0  0
    4.2694    5.4243    0.0000 H   0  0  0  0  0  0  0  0  0  0  0  0
    4.6107    4.4102    0.0000 H   0  0  0  0  0  0  0  0  0  0  0  0
    5.7206    0.3939    0.0000 H   0  0  0  0  0  0  0  0  0  0  0  0
   -3.3358    1.5147    0.0000 H   0  0  0  0  0  0  0  0  0  0  0  0
   -2.5898    2.6784    0.0000 H   0  0  0  0  0  0  0  0  0  0  0  0
   -1.0156    1.9790    0.0000 H   0  0  0  0  0  0  0  0  0  0  0  0
    0.0345    1.7675    0.0000 H   0  0  0  0  0  0  0  0  0  0  0  0
   -1.9576   -0.4802    0.0000 H   0  0  0  0  0  0  0  0  0  0  0  0
  1102  1  0  0  0  0
  2  1  1  0  0  0  0
  2  3  1  0  0  0  0
  2103  1  1  0  0  0
  3104  1  0  0  0  0
  3105  1  0  0  0  0
  3106  1  0  0  0  0
  4  2  1  0  0  0  0
  4  5  1  0  0  0  0
  4 92  1  0  0  0  0
  4107  1  1  0  0  0
  5  6  1  0  0  0  0
  5108  1  0  0  0  0
  6  7  2  0  0  0  0
  8  6  1  0  0  0  0
  8  9  1  0  0  0  0
  8 88  1  0  0  0  0
  8109  1  1  0  0  0
  9 10  1  0  0  0  0
  9110  1  0  0  0  0
  9111  1  0  0  0  0
 10 11  1  0  0  0  0
 11 99  1  0  0  0  0
 12 13  1  0  0  0  0
 12112  1  0  0  0  0
 13 14  2  0  0  0  0
 15 13  1  0  0  0  0
 15 16  1  0  0  0  0
 15 44  1  0  0  0  0
 15113  1  1  0  0  0
 16 17  1  0  0  0  0
 16114  1  0  0  0  0
 17 18  1  0  0  0  0
 17 43  2  0  0  0  0
 18 19  1  0  0  0  0
 18115  1  0  0  0  0
 18116  1  0  0  0  0
 19 20  1  0  0  0  0
 19 42  1  0  0  0  0
 20 21  1  0  0  0  0
 20117  1  0  0  0  0
 20118  1  0  0  0  0
 21 22  1  0  0  0  0
 21119  1  0  0  0  0
 21120  1  0  0  0  0
 22 23  1  0  0  0  0
 22 27  1  0  0  0  0
 23 24  1  0  0  0  0
 23121  1  0  0  0  0
 23122  1  0  0  0  0
 24 25  2  0  0  0  0
 24 26  1  0  0  0  0
 27 28  1  0  0  0  0
 27123  1  0  0  0  0
 27124  1  0  0  0  0
 28 29  1  0  0  0  0
 28125  1  0  0  0  0
 28126  1  0  0  0  0
 29 30  1  0  0  0  0
 29 34  1  0  0  0  0
 30 31  1  0  0  0  0
 30127  1  0  0  0  0
 30128  1  0  0  0  0
 31 32  2  0  0  0  0
 31 33  1  0  0  0  0
 34 35  1  0  0  0  0
 34129  1  0  0  0  0
 34130  1  0  0  0  0
 35 36  1  0  0  0  0
 35131  1  0  0  0  0
 35132  1  0  0  0  0
 36 37  1  0  0  0  0
 36 41  1  0  0  0  0
 37 38  1  0  0  0  0
 37133  1  0  0  0  0
 37134  1  0  0  0  0
 38 39  2  0  0  0  0
 38 40  1  0  0  0  0
 41 42  1  0  0  0  0
 41135  1  0  0  0  0
 41136  1  0  0  0  0
 42137  1  0  0  0  0
 42138  1  0  0  0  0
 44 45  1  0  0  0  0
 44139  1  0  0  0  0
 44140  1  0  0  0  0
 45 46  2  0  0  0  0
 45 50  1  0  0  0  0
 46 47  1  0  0  0  0
 46141  1  0  0  0  0
 47 48  2  0  0  0  0
 47142  1  0  0  0  0
 48 49  1  0  0  0  0
 48143  1  0  0  0  0
 49 50  2  0  0  0  0
 49144  1  0  0  0  0
 50145  1  0  0  0  0
 51 52  1  0  0  0  0
 51146  1  0  0  0  0
 51147  1  0  0  0  0
 52 53  2  0  0  0  0
 52 58  1  0  0  0  0
 53 54  1  0  0  0  0
 53148  1  0  0  0  0
 54 55  2  0  0  0  0
 54149  1  0  0  0  0
 55 56  1  0  0  0  0
 55 57  1  0  0  0  0
 56150  1  0  0  0  0
 57 58  2  0  0  0  0
 57151  1  0  0  0  0
 58152  1  0  0  0  0
 59 60  2  0  0  0  0
 59 61  1  0  0  0  0
 59 98  1  0  0  0  0
 61 62  1  0  0  0  0
 61153  1  0  0  0  0
 62 63  1  0  0  0  0
 62 73  1  0  0  0  0
 62154  1  1  0  0  0
 63 64  1  0  0  0  0
 63155  1  0  0  0  0
 63156  1  0  0  0  0
 64 65  2  0  0  0  0
 64 72  1  0  0  0  0
 65 66  1  0  0  0  0
 65157  1  0  0  0  0
 66 67  1  0  0  0  0
 66158  1  0  0  0  0
 67 68  1  0  0  0  0
 67 72  2  0  0  0  0
 68159  1  0  0  0  0
 69 68  2  0  0  0  0
 69160  1  0  0  0  0
 70 69  1  0  0  0  0
 70161  1  0  0  0  0
 71 70  2  0  0  0  0
 71162  1  0  0  0  0
 72 71  1  0  0  0  0
 73 74  2  0  0  0  0
 73 75  1  0  0  0  0
 75 76  1  0  0  0  0
 75163  1  0  0  0  0
 76 77  1  0  0  0  0
 76 82  1  0  0  0  0
 76164  1  6  0  0  0
 77 78  1  0  0  0  0
 77165  1  0  0  0  0
 77166  1  0  0  0  0
 78 79  1  0  0  0  0
 78167  1  0  0  0  0
 78168  1  0  0  0  0
 79 80  1  0  0  0  0
 79169  1  0  0  0  0
 79170  1  0  0  0  0
 80 81  1  0  0  0  0
 80171  1  0  0  0  0
 80172  1  0  0  0  0
 81173  1  0  0  0  0
 81174  1  0  0  0  0
 82 83  2  0  0  0  0
 82 84  1  0  0  0  0
 84 85  1  0  0  0  0
 84175  1  0  0  0  0
 85 86  1  0  0  0  0
 85 89  1  0  0  0  0
 85176  1  6  0  0  0
 86 87  2  0  0  0  0
 86 88  1  0  0  0  0
 88177  1  0  0  0  0
 89 90  1  0  0  0  0
 89 91  1  0  0  0  0
 89178  1  1  0  0  0
 90179  1  0  0  0  0
 91180  1  0  0  0  0
 91181  1  0  0  0  0
 91182  1  0  0  0  0
 92 93  1  0  0  0  0
 92 94  2  0  0  0  0
 93183  1  0  0  0  0
 95 97  1  0  0  0  0
 95184  1  0  0  0  0
 97100  1  0  0  0  0
 97 96  2  0  0  0  0
 98 51  1  0  0  0  0
 98 95  1  0  0  0  0
 98185  1  6  0  0  0
 99186  1  0  0  0  0
 99187  1  0  0  0  0
100 12  1  0  0  0  0
100 99  1  0  0  0  0
100188  1  1  0  0  0
M  ISO  1 101 177
M  CHG  4  26  -1  33  -1  40  -1 101   3
M  END
>  <DRUGBANK_ID>
DB13985

>  <COMMON_NAME>
Lutetium Lu 177 dotatate

>  <CAS_NUMBER>
437608-50-9

>  <UNII>
AE221IM3BB

>  <SYNONYMS>
177Lu-DOTA-octreotate; 177Lu-DOTA-Tyr3-octreotate; 177Lu-dotatate; Dotatate lutenium Lu-177; Lu-DOTA-TATE; Lutetium dotatate Lu-177; lutetium Lu 177 dotatate; Lutetium oxodotreotide Lu-177

$$$$
