CM9
 OpenBabel10282417072D

 51 52  0  0  0  0  0  0  0  0999 V2000
  -10.8536   -1.1839    0.0000 O   0  0  0  0  0  0  0  0  0  0  0  0
  -10.1391   -1.5964    0.0000 C   0  0  0  0  0  0  0  0  0  0  0  0
  -10.1391   -2.4214    0.0000 C   0  0  2  0  0  0  0  0  0  0  0  0
   -9.4246   -2.8339    0.0000 C   0  0  0  0  0  0  0  0  0  0  0  0
   -9.4246   -3.6589    0.0000 C   0  0  0  0  0  0  0  0  0  0  0  0
  -10.1391   -4.0714    0.0000 C   0  0  2  0  0  0  0  0  0  0  0  0
  -10.1391   -4.8964    0.0000 C   0  0  0  0  0  0  0  0  0  0  0  0
  -10.8536   -3.6589    0.0000 C   0  0  0  0  0  0  0  0  0  0  0  0
  -10.8536   -2.8339    0.0000 C   0  0  0  0  0  0  0  0  0  0  0  0
   -9.4246   -1.1839    0.0000 N   0  0  0  0  0  0  0  0  0  0  0  0
   -9.4246   -0.3589    0.0000 C   0  0  1  0  0  0  0  0  0  0  0  0
  -10.1391    0.0536    0.0000 C   0  0  0  0  0  0  0  0  0  0  0  0
  -10.1391    0.8786    0.0000 C   0  0  0  0  0  0  0  0  0  0  0  0
  -10.8536    1.2911    0.0000 S   0  0  0  0  0  0  0  0  0  0  0  0
  -10.8536    2.1161    0.0000 C   0  0  0  0  0  0  0  0  0  0  0  0
   -8.7102    0.0536    0.0000 C   0  0  0  0  0  0  0  0  0  0  0  0
   -7.9957   -0.3589    0.0000 O   0  0  0  0  0  0  0  0  0  0  0  0
   -8.7102    0.8786    0.0000 N   0  0  0  0  0  0  0  0  0  0  0  0
   -7.9957    1.2911    0.0000 C   0  0  0  0  0  0  0  0  0  0  0  0
   -7.9957    2.1161    0.0000 C   0  0  0  0  0  0  0  0  0  0  0  0
   -7.2812    2.5286    0.0000 C   0  0  0  0  0  0  0  0  0  0  0  0
   -6.5667    2.1161    0.0000 N   0  0  0  0  0  0  0  0  0  0  0  0
   -6.5667    1.2911    0.0000 C   0  0  0  0  0  0  0  0  0  0  0  0
   -7.2812    0.8786    0.0000 C   0  0  0  0  0  0  0  0  0  0  0  0
   -9.6334   -2.1294    0.0000 H   0  0  0  0  0  0  0  0  0  0  0  0
   -9.6334   -4.3634    0.0000 H   0  0  0  0  0  0  0  0  0  0  0  0
   -9.9303   -0.6509    0.0000 H   0  0  0  0  0  0  0  0  0  0  0  0
   -8.4980   -2.2989    0.0000 H   0  0  0  0  0  0  0  0  0  0  0  0
   -8.4980   -3.3689    0.0000 H   0  0  0  0  0  0  0  0  0  0  0  0
   -8.4980   -4.1939    0.0000 H   0  0  0  0  0  0  0  0  0  0  0  0
   -9.4246   -4.7289    0.0000 H   0  0  0  0  0  0  0  0  0  0  0  0
  -11.0657   -5.4314    0.0000 H   0  0  0  0  0  0  0  0  0  0  0  0
   -9.2125   -5.4314    0.0000 H   0  0  0  0  0  0  0  0  0  0  0  0
  -10.1391   -5.9664    0.0000 H   0  0  0  0  0  0  0  0  0  0  0  0
  -11.7802   -4.1939    0.0000 H   0  0  0  0  0  0  0  0  0  0  0  0
  -11.7802   -3.1239    0.0000 H   0  0  0  0  0  0  0  0  0  0  0  0
  -11.7802   -2.2989    0.0000 H   0  0  0  0  0  0  0  0  0  0  0  0
  -11.7802   -3.3689    0.0000 H   0  0  0  0  0  0  0  0  0  0  0  0
   -8.5720   -1.6762    0.0000 H   0  0  0  0  0  0  0  0  0  0  0  0
  -11.0657   -0.4814    0.0000 H   0  0  0  0  0  0  0  0  0  0  0  0
  -11.0657    0.5886    0.0000 H   0  0  0  0  0  0  0  0  0  0  0  0
   -9.2125    1.4136    0.0000 H   0  0  0  0  0  0  0  0  0  0  0  0
  -10.1391    1.9486    0.0000 H   0  0  0  0  0  0  0  0  0  0  0  0
   -9.9270    2.6511    0.0000 H   0  0  0  0  0  0  0  0  0  0  0  0
  -11.7802    2.6511    0.0000 H   0  0  0  0  0  0  0  0  0  0  0  0
  -10.8536    3.1861    0.0000 H   0  0  0  0  0  0  0  0  0  0  0  0
   -9.5628    1.3709    0.0000 H   0  0  0  0  0  0  0  0  0  0  0  0
   -8.8894    2.6321    0.0000 H   0  0  0  0  0  0  0  0  0  0  0  0
   -7.2812    3.5606    0.0000 H   0  0  0  0  0  0  0  0  0  0  0  0
   -5.6730    0.7751    0.0000 H   0  0  0  0  0  0  0  0  0  0  0  0
   -7.2812   -0.1534    0.0000 H   0  0  0  0  0  0  0  0  0  0  0  0
  1  2  2  0  0  0  0
  2 10  1  0  0  0  0
  3  2  1  0  0  0  0
  3  4  1  0  0  0  0
  3  9  1  0  0  0  0
  3 25  1  1  0  0  0
  4  5  1  0  0  0  0
  4 28  1  0  0  0  0
  4 29  1  0  0  0  0
  5  6  1  0  0  0  0
  5 30  1  0  0  0  0
  5 31  1  0  0  0  0
  6  7  1  0  0  0  0
  6  8  1  0  0  0  0
  6 26  1  1  0  0  0
  7 32  1  0  0  0  0
  7 33  1  0  0  0  0
  7 34  1  0  0  0  0
  8  9  1  0  0  0  0
  8 35  1  0  0  0  0
  8 36  1  0  0  0  0
  9 37  1  0  0  0  0
  9 38  1  0  0  0  0
 10 39  1  0  0  0  0
 11 10  1  0  0  0  0
 11 12  1  0  0  0  0
 11 16  1  0  0  0  0
 11 27  1  6  0  0  0
 12 13  1  0  0  0  0
 12 40  1  0  0  0  0
 12 41  1  0  0  0  0
 13 14  1  0  0  0  0
 13 42  1  0  0  0  0
 13 43  1  0  0  0  0
 14 15  1  0  0  0  0
 15 44  1  0  0  0  0
 15 45  1  0  0  0  0
 15 46  1  0  0  0  0
 16 17  2  0  0  0  0
 16 18  1  0  0  0  0
 18 19  1  0  0  0  0
 18 47  1  0  0  0  0
 19 20  1  0  0  0  0
 19 24  2  0  0  0  0
 20 21  2  0  0  0  0
 20 48  1  0  0  0  0
 21 22  1  0  0  0  0
 21 49  1  0  0  0  0
 22 23  2  0  0  0  0
 23 24  1  0  0  0  0
 23 50  1  0  0  0  0
 24 51  1  0  0  0  0
M  END
>  <DRUGBANK_ID>
DB07569

>  <COMMON_NAME>
CIS-4-METHYL-N-[(1S)-3-(METHYLSULFANYL)-1-(PYRIDIN-4-YLCARBAMOYL)PROPYL]CYCLOHEXANECARBOXAMIDE

$$$$
