
 OpenBabel10282417072D

 61 66  0  0  1  0  0  0  0  0999 V2000
    4.0935   -4.3738    0.0000 C   0  0  0  0  0  0  0  0  0  0  0  0
    4.5784   -3.7064    0.0000 C   0  0  0  0  0  0  0  0  0  0  0  0
    4.2428   -2.9527    0.0000 C   0  0  0  0  0  0  0  0  0  0  0  0
    4.7278   -2.2852    0.0000 C   0  0  0  0  0  0  0  0  0  0  0  0
    5.5482   -2.3715    0.0000 C   0  0  0  0  0  0  0  0  0  0  0  0
    5.8838   -3.1252    0.0000 C   0  0  0  0  0  0  0  0  0  0  0  0
    5.3989   -3.7926    0.0000 N   0  0  0  0  0  0  0  0  0  0  0  0
    4.3922   -1.5316    0.0000 C   0  0  0  0  0  0  0  0  0  0  0  0
    3.5852   -1.3600    0.0000 N   0  0  0  0  0  0  0  0  0  0  0  0
    3.4990   -0.5396    0.0000 C   0  0  0  0  0  0  0  0  0  0  0  0
    4.2527   -0.2040    0.0000 C   0  0  0  0  0  0  0  0  0  0  0  0
    4.8047   -0.8171    0.0000 O   0  0  0  0  0  0  0  0  0  0  0  0
    2.7845   -0.1271    0.0000 C   0  0  0  0  0  0  0  0  0  0  0  0
    2.0701   -0.5396    0.0000 O   0  0  0  0  0  0  0  0  0  0  0  0
    2.7845    0.6979    0.0000 N   0  0  0  0  0  0  0  0  0  0  0  0
    2.0701    1.1104    0.0000 C   0  0  0  0  0  0  0  0  0  0  0  0
    1.3556    0.6979    0.0000 C   0  0  0  0  0  0  0  0  0  0  0  0
    0.6411    1.1104    0.0000 C   0  0  0  0  0  0  0  0  0  0  0  0
   -0.1435    0.8555    0.0000 O   0  0  0  0  0  0  0  0  0  0  0  0
   -0.6284    1.5229    0.0000 C   0  0  0  0  0  0  0  0  0  0  0  0
   -0.1435    2.1904    0.0000 N   0  0  0  0  0  0  0  0  0  0  0  0
    0.6411    1.9354    0.0000 C   0  0  0  0  0  0  0  0  0  0  0  0
    1.3556    2.3479    0.0000 N   0  0  0  0  0  0  0  0  0  0  0  0
    2.0701    1.9354    0.0000 C   0  0  0  0  0  0  0  0  0  0  0  0
    2.7845    2.3479    0.0000 N   0  0  0  0  0  0  0  0  0  0  0  0
    2.8708    3.1684    0.0000 C   0  0  0  0  0  0  0  0  0  0  0  0
    3.6777    3.3400    0.0000 C   0  0  0  0  0  0  0  0  0  0  0  0
    4.0902    2.6255    0.0000 C   0  0  1  0  0  0  0  0  0  0  0  0
    4.9107    2.5392    0.0000 O   0  0  0  0  0  0  0  0  0  0  0  0
    3.5382    2.0124    0.0000 C   0  0  0  0  0  0  0  0  0  0  0  0
   -1.4534    1.5229    0.0000 N   0  0  0  0  0  0  0  0  0  0  0  0
   -1.8659    0.8085    0.0000 C   0  0  0  0  0  0  0  0  0  0  0  0
   -2.6909    0.8085    0.0000 C   0  0  0  0  0  0  0  0  0  0  0  0
   -3.1034    1.5229    0.0000 O   0  0  0  0  0  0  0  0  0  0  0  0
   -2.6909    2.2374    0.0000 C   0  0  0  0  0  0  0  0  0  0  0  0
   -1.8659    2.2374    0.0000 C   0  0  0  0  0  0  0  0  0  0  0  0
    3.0294   -4.2619    0.0000 H   0  0  0  0  0  0  0  0  0  0  0  0
    4.5287   -5.3513    0.0000 H   0  0  0  0  0  0  0  0  0  0  0  0
    3.4646   -5.2394    0.0000 H   0  0  0  0  0  0  0  0  0  0  0  0
    3.2165   -2.8448    0.0000 H   0  0  0  0  0  0  0  0  0  0  0  0
    6.1548   -1.5366    0.0000 H   0  0  0  0  0  0  0  0  0  0  0  0
    6.9101   -3.2331    0.0000 H   0  0  0  0  0  0  0  0  0  0  0  0
    4.4673    0.8054    0.0000 H   0  0  0  0  0  0  0  0  0  0  0  0
    3.6371    1.1901    0.0000 H   0  0  0  0  0  0  0  0  0  0  0  0
    1.3556   -0.3341    0.0000 H   0  0  0  0  0  0  0  0  0  0  0  0
    2.0756    3.8844    0.0000 H   0  0  0  0  0  0  0  0  0  0  0  0
    3.1477    4.2020    0.0000 H   0  0  0  0  0  0  0  0  0  0  0  0
    4.1129    4.3175    0.0000 H   0  0  0  0  0  0  0  0  0  0  0  0
    4.7462    3.3960    0.0000 H   0  0  0  0  0  0  0  0  0  0  0  0
    4.6730    3.5229    0.0000 H   0  0  0  0  0  0  0  0  0  0  0  0
    5.3052    1.6530    0.0000 H   0  0  0  0  0  0  0  0  0  0  0  0
    3.7607    0.9658    0.0000 H   0  0  0  0  0  0  0  0  0  0  0  0
    2.7067    1.3390    0.0000 H   0  0  0  0  0  0  0  0  0  0  0  0
   -1.3309   -0.1182    0.0000 H   0  0  0  0  0  0  0  0  0  0  0  0
   -2.4009   -0.1181    0.0000 H   0  0  0  0  0  0  0  0  0  0  0  0
   -3.2259   -0.1182    0.0000 H   0  0  0  0  0  0  0  0  0  0  0  0
   -3.7609    0.8085    0.0000 H   0  0  0  0  0  0  0  0  0  0  0  0
   -3.2259    3.1640    0.0000 H   0  0  0  0  0  0  0  0  0  0  0  0
   -2.1559    3.1640    0.0000 H   0  0  0  0  0  0  0  0  0  0  0  0
   -1.3309    3.1640    0.0000 H   0  0  0  0  0  0  0  0  0  0  0  0
   -0.7959    2.2374    0.0000 H   0  0  0  0  0  0  0  0  0  0  0  0
  1  2  1  0  0  0  0
  1 37  1  0  0  0  0
  1 38  1  0  0  0  0
  1 39  1  0  0  0  0
  2  3  2  0  0  0  0
  2  7  1  0  0  0  0
  3  4  1  0  0  0  0
  3 40  1  0  0  0  0
  4  5  2  0  0  0  0
  4  8  1  0  0  0  0
  5  6  1  0  0  0  0
  5 41  1  0  0  0  0
  6  7  2  0  0  0  0
  6 42  1  0  0  0  0
  8  9  2  0  0  0  0
  8 12  1  0  0  0  0
  9 10  1  0  0  0  0
 10 11  2  0  0  0  0
 10 13  1  0  0  0  0
 11 12  1  0  0  0  0
 11 43  1  0  0  0  0
 13 14  2  0  0  0  0
 13 15  1  0  0  0  0
 15 16  1  0  0  0  0
 15 44  1  0  0  0  0
 16 17  1  0  0  0  0
 16 24  2  0  0  0  0
 17 18  2  0  0  0  0
 17 45  1  0  0  0  0
 18 19  1  0  0  0  0
 18 22  1  0  0  0  0
 19 20  1  0  0  0  0
 20 21  2  0  0  0  0
 20 31  1  0  0  0  0
 21 22  1  0  0  0  0
 22 23  2  0  0  0  0
 23 24  1  0  0  0  0
 24 25  1  0  0  0  0
 25 26  1  0  0  0  0
 25 30  1  0  0  0  0
 26 27  1  0  0  0  0
 26 46  1  0  0  0  0
 26 47  1  0  0  0  0
 27 48  1  0  0  0  0
 27 49  1  0  0  0  0
 28 27  1  0  0  0  0
 28 29  1  0  0  0  0
 28 30  1  0  0  0  0
 28 50  1  6  0  0  0
 29 51  1  0  0  0  0
 30 52  1  0  0  0  0
 30 53  1  0  0  0  0
 31 32  1  0  0  0  0
 31 36  1  0  0  0  0
 32 33  1  0  0  0  0
 32 54  1  0  0  0  0
 32 55  1  0  0  0  0
 33 34  1  0  0  0  0
 33 56  1  0  0  0  0
 33 57  1  0  0  0  0
 34 35  1  0  0  0  0
 35 36  1  0  0  0  0
 35 58  1  0  0  0  0
 35 59  1  0  0  0  0
 36 60  1  0  0  0  0
 36 61  1  0  0  0  0
M  END
>  <DRUGBANK_ID>
DB18060

>  <COMMON_NAME>
Emavusertib

>  <CAS_NUMBER>
1801344-14-8

>  <UNII>
MH5DMF9JKY

>  <SYNONYMS>
4-oxazolecarboxamide, n-(5-((3r)-3-hydroxy-1-pyrrolidinyl)-2-(4-morpholinyl)oxazolo(4,5-b)pyridin-6-yl)-2-(2-methyl-4-pyridinyl)-

$$$$
