
 OpenBabel10282417072D

 48 50  0  0  0  0  0  0  0  0999 V2000
   -2.8718    0.2071    0.0000 C   0  0  2  0  0  0  0  0  0  0  0  0
   -2.8689    0.9905    0.0000 C   0  0  1  0  0  0  0  0  0  0  0  0
   -1.7727    0.5841    0.0000 N   0  3  0  0  0  0  0  0  0  0  0  0
   -3.5499    0.6017    0.0000 O   0  0  0  0  0  0  0  0  0  0  0  0
   -2.2433   -0.2868    0.0000 C   0  0  2  0  0  0  0  0  0  0  0  0
   -2.2493    1.4873    0.0000 C   0  0  1  0  0  0  0  0  0  0  0  0
    1.1267    0.6193    0.0000 C   0  0  2  0  0  0  0  0  0  0  0  0
    0.4077    1.0313    0.0000 C   0  0  0  0  0  0  0  0  0  0  0  0
    1.8400    1.0344    0.0000 C   0  0  0  0  0  0  0  0  0  0  0  0
   -1.4775    1.3208    0.0000 C   0  0  0  0  0  0  0  0  0  0  0  0
   -1.4716   -0.1056    0.0000 C   0  0  0  0  0  0  0  0  0  0  0  0
   -0.3113    0.6134    0.0000 O   0  0  0  0  0  0  0  0  0  0  0  0
   -1.1384    0.6076    0.0000 C   0  0  1  0  0  0  0  0  0  0  0  0
    0.4048    1.8585    0.0000 O   0  0  0  0  0  0  0  0  0  0  0  0
   -0.9806   -0.2079    0.0000 C   0  0  0  0  0  0  0  0  0  0  0  0
   -0.9864    1.3793    0.0000 C   0  0  0  0  0  0  0  0  0  0  0  0
   -3.4593   -0.3774    0.0000 H   0  0  0  0  0  0  0  0  0  0  0  0
   -3.4593    1.5780    0.0000 H   0  0  0  0  0  0  0  0  0  0  0  0
    2.5532    0.6251    0.0000 O   0  0  0  0  0  0  0  0  0  0  0  0
    1.1294   -0.2078    0.0000 C   0  0  0  0  0  0  0  0  0  0  0  0
    0.4159   -0.6201    0.0000 C   0  0  0  0  0  0  0  0  0  0  0  0
    0.4183   -1.4466    0.0000 C   0  0  0  0  0  0  0  0  0  0  0  0
    1.1366   -1.8585    0.0000 C   0  0  0  0  0  0  0  0  0  0  0  0
    1.8539   -1.4381    0.0000 C   0  0  0  0  0  0  0  0  0  0  0  0
    1.8480   -0.6130    0.0000 C   0  0  0  0  0  0  0  0  0  0  0  0
    3.5499    0.6251    0.0000 Br  0  5  0  0  0  0  0  0  0  0  0  0
   -1.3934    0.3633    0.0000 H   0  0  0  0  0  0  0  0  0  0  0  0
   -1.3968    0.8407    0.0000 H   0  0  0  0  0  0  0  0  0  0  0  0
    0.2018    0.0813    0.0000 H   0  0  0  0  0  0  0  0  0  0  0  0
    1.8368    2.1044    0.0000 H   0  0  0  0  0  0  0  0  0  0  0  0
    0.9116    1.5664    0.0000 H   0  0  0  0  0  0  0  0  0  0  0  0
   -0.8133    2.1597    0.0000 H   0  0  0  0  0  0  0  0  0  0  0  0
   -0.4143    1.2002    0.0000 H   0  0  0  0  0  0  0  0  0  0  0  0
   -0.7970   -0.9361    0.0000 H   0  0  0  0  0  0  0  0  0  0  0  0
   -0.4096    0.0252    0.0000 H   0  0  0  0  0  0  0  0  0  0  0  0
   -0.5607   -0.2930    0.0000 H   0  0  0  0  0  0  0  0  0  0  0  0
   -1.2575   -1.2415    0.0000 H   0  0  0  0  0  0  0  0  0  0  0  0
    0.0529    0.0691    0.0000 H   0  0  0  0  0  0  0  0  0  0  0  0
   -0.2239   -0.9645    0.0000 H   0  0  0  0  0  0  0  0  0  0  0  0
    0.0487    1.1082    0.0000 H   0  0  0  0  0  0  0  0  0  0  0  0
   -1.2691    2.4113    0.0000 H   0  0  0  0  0  0  0  0  0  0  0  0
   -0.2341    2.1402    0.0000 H   0  0  0  0  0  0  0  0  0  0  0  0
    2.5557   -0.3449    0.0000 H   0  0  0  0  0  0  0  0  0  0  0  0
   -0.4787   -0.1056    0.0000 H   0  0  0  0  0  0  0  0  0  0  0  0
   -0.4739   -1.9652    0.0000 H   0  0  0  0  0  0  0  0  0  0  0  0
    1.1415   -2.8905    0.0000 H   0  0  0  0  0  0  0  0  0  0  0  0
    2.7511   -1.9480    0.0000 H   0  0  0  0  0  0  0  0  0  0  0  0
    2.7372   -0.0893    0.0000 H   0  0  0  0  0  0  0  0  0  0  0  0
  1 17  1  6  0  0  0
  1  4  1  0  0  0  0
  2  4  1  0  0  0  0
  2 18  1  6  0  0  0
  2  1  1  0  0  0  0
  5 11  1  0  0  0  0
  5  3  1  0  0  0  0
  5  1  1  0  0  0  0
  5 27  1  1  0  0  0
  6 10  1  0  0  0  0
  6  3  1  0  0  0  0
  6  2  1  0  0  0  0
  6 28  1  1  0  0  0
  7 20  1  0  0  0  0
  7  8  1  0  0  0  0
  7 29  1  1  0  0  0
  8 12  1  0  0  0  0
  9 19  1  0  0  0  0
  9  7  1  0  0  0  0
  9 30  1  0  0  0  0
  9 31  1  0  0  0  0
 10 32  1  0  0  0  0
 10 33  1  0  0  0  0
 11 34  1  0  0  0  0
 11 35  1  0  0  0  0
 13 12  1  0  0  0  0
 13 11  1  0  0  0  0
 13 10  1  0  0  0  0
 13 36  1  1  0  0  0
 14  8  2  0  0  0  0
 15  3  1  0  0  0  0
 15 37  1  0  0  0  0
 15 38  1  0  0  0  0
 15 39  1  0  0  0  0
 16  3  1  0  0  0  0
 16 40  1  0  0  0  0
 16 41  1  0  0  0  0
 16 42  1  0  0  0  0
 19 43  1  0  0  0  0
 20 21  2  0  0  0  0
 21 22  1  0  0  0  0
 21 44  1  0  0  0  0
 22 23  2  0  0  0  0
 22 45  1  0  0  0  0
 23 24  1  0  0  0  0
 23 46  1  0  0  0  0
 24 25  2  0  0  0  0
 24 47  1  0  0  0  0
 25 20  1  0  0  0  0
 25 48  1  0  0  0  0
M  CHG  2   3   1  26  -1
M  END
>  <DRUGBANK_ID>
DB00462

>  <SECONDARY_ACCESSION_NUMBERS>
APRD00314

>  <COMMON_NAME>
Methscopolamine bromide

>  <CAS_NUMBER>
155-41-9

>  <UNII>
RTN51LK7WL

>  <SYNONYMS>
(−)-scopolamine methobromide; (−)-scopolamine methyl bromide; Hyoscine methobromide; Hyoscine methyl bromide; Methscopolamine bromide; Methylscopolamine bromide; N-methylhyoscine bromide; N-methylscopolammonium bromide; Scopolamine methobromide; Scopolamine methyl bromide

$$$$
