
 OpenBabel10282417072D

 75 79  0  0  1  0  0  0  0  0999 V2000
    5.2654   -0.9545    0.0000 C   0  0  0  0  0  0  0  0  0  0  0  0
    4.4574   -2.1331    0.0000 C   0  0  0  0  0  0  0  0  0  0  0  0
   -0.3018    5.1746    0.0000 C   0  0  0  0  0  0  0  0  0  0  0  0
    1.3029   -3.2498    0.0000 C   0  0  0  0  0  0  0  0  0  0  0  0
    3.3212    3.2513    0.0000 C   0  0  0  0  0  0  0  0  0  0  0  0
   -0.3636   -0.6674    0.0000 C   0  0  0  0  0  0  0  0  0  0  0  0
   -0.3636   -1.4924    0.0000 C   0  0  0  0  0  0  0  0  0  0  0  0
    0.3509   -0.2549    0.0000 C   0  0  0  0  0  0  0  0  0  0  0  0
    0.3509   -1.9049    0.0000 C   0  0  0  0  0  0  0  0  0  0  0  0
    3.9934    0.8250    0.0000 C   0  0  0  0  0  0  0  0  0  0  0  0
    0.2080    3.6053    0.0000 C   0  0  0  0  0  0  0  0  0  0  0  0
    3.2789    1.2375    0.0000 C   0  0  0  0  0  0  0  0  0  0  0  0
    0.4630    2.8207    0.0000 C   0  0  0  0  0  0  0  0  0  0  0  0
    3.2789   -0.4125    0.0000 C   0  0  0  0  0  0  0  0  0  0  0  0
    3.0086   -2.0006    0.0000 C   0  0  0  0  0  0  0  0  0  0  0  0
    1.5671    4.0469    0.0000 C   0  0  0  0  0  0  0  0  0  0  0  0
    1.6204   -1.6406    0.0000 C   0  0  0  0  0  0  0  0  0  0  0  0
    3.9934    0.0000    0.0000 C   0  0  0  0  0  0  0  0  0  0  0  0
    2.2549   -2.3362    0.0000 C   0  0  2  0  0  0  0  0  0  0  0  0
    0.7601    4.2184    0.0000 C   0  0  0  0  0  0  0  0  0  0  0  0
    1.0654   -0.6674    0.0000 C   0  0  0  0  0  0  0  0  0  0  0  0
    2.5645    0.0000    0.0000 C   0  0  0  0  0  0  0  0  0  0  0  0
    2.5645    0.8250    0.0000 C   0  0  0  0  0  0  0  0  0  0  0  0
    2.9224   -1.1801    0.0000 C   0  0  1  0  0  0  0  0  0  0  0  0
    1.0654   -1.4924    0.0000 C   0  0  0  0  0  0  0  0  0  0  0  0
    1.8220    3.2623    0.0000 C   0  0  0  0  0  0  0  0  0  0  0  0
    1.2700    2.6492    0.0000 C   0  0  0  0  0  0  0  0  0  0  0  0
    3.8199   -0.8298    0.0000 C   0  0  0  0  0  0  0  0  0  0  0  0
    1.2949    0.4125    0.0000 C   0  0  0  0  0  0  0  0  0  0  0  0
    1.7798   -0.2549    0.0000 C   0  0  2  0  0  0  0  0  0  0  0  0
    4.8928   -0.1453    0.0000 Cl  0  0  0  0  0  0  0  0  0  0  0  0
    4.5211   -1.3105    0.0000 N   0  0  0  0  0  0  0  0  0  0  0  0
    2.1154   -1.0086    0.0000 N   0  0  3  0  0  0  0  0  0  0  0  0
    1.7798    1.0799    0.0000 N   0  0  0  0  0  0  0  0  0  0  0  0
    2.5137   -3.2150    0.0000 O   0  0  0  0  0  0  0  0  0  0  0  0
    3.5150    0.0162    0.0000 O   0  0  0  0  0  0  0  0  0  0  0  0
    0.4385    0.3879    0.0000 O   0  0  0  0  0  0  0  0  0  0  0  0
    2.2270    2.2549    0.0000 O   0  0  0  0  0  0  0  0  0  0  0  0
    0.5987    1.7227    0.0000 O   0  0  0  0  0  0  0  0  0  0  0  0
    0.5051    5.0030    0.0000 O   0  0  0  0  0  0  0  0  0  0  0  0
    1.4932   -2.3621    0.0000 O   0  0  0  0  0  0  0  0  0  0  0  0
    2.6213    3.6880    0.0000 O   0  0  0  0  0  0  0  0  0  0  0  0
    1.4606    1.8470    0.0000 S   0  0  0  0  0  0  0  0  0  0  0  0
    1.7721   -3.0051    0.0000 H   0  0  0  0  0  0  0  0  0  0  0  0
    2.5537   -0.4421    0.0000 H   0  0  0  0  0  0  0  0  0  0  0  0
    6.1479   -1.5596    0.0000 H   0  0  0  0  0  0  0  0  0  0  0  0
    5.3482    0.1123    0.0000 H   0  0  0  0  0  0  0  0  0  0  0  0
    6.2307   -0.4928    0.0000 H   0  0  0  0  0  0  0  0  0  0  0  0
    3.4922   -2.5950    0.0000 H   0  0  0  0  0  0  0  0  0  0  0  0
    5.3400   -2.7380    0.0000 H   0  0  0  0  0  0  0  0  0  0  0  0
    4.3748   -3.1999    0.0000 H   0  0  0  0  0  0  0  0  0  0  0  0
   -0.6323    6.1923    0.0000 H   0  0  0  0  0  0  0  0  0  0  0  0
   -1.0179    4.3795    0.0000 H   0  0  0  0  0  0  0  0  0  0  0  0
   -1.3484    5.3972    0.0000 H   0  0  0  0  0  0  0  0  0  0  0  0
    0.2847   -3.5787    0.0000 H   0  0  0  0  0  0  0  0  0  0  0  0
    2.0968   -3.9672    0.0000 H   0  0  0  0  0  0  0  0  0  0  0  0
    1.0786   -4.2960    0.0000 H   0  0  0  0  0  0  0  0  0  0  0  0
    3.2846    2.1819    0.0000 H   0  0  0  0  0  0  0  0  0  0  0  0
    4.2656    3.7543    0.0000 H   0  0  0  0  0  0  0  0  0  0  0  0
    4.2290    2.6849    0.0000 H   0  0  0  0  0  0  0  0  0  0  0  0
   -1.2573   -0.1514    0.0000 H   0  0  0  0  0  0  0  0  0  0  0  0
   -1.2573   -2.0084    0.0000 H   0  0  0  0  0  0  0  0  0  0  0  0
    0.3509    0.7771    0.0000 H   0  0  0  0  0  0  0  0  0  0  0  0
    0.3509   -2.9369    0.0000 H   0  0  0  0  0  0  0  0  0  0  0  0
    4.8871    1.3410    0.0000 H   0  0  0  0  0  0  0  0  0  0  0  0
   -0.8015    3.8199    0.0000 H   0  0  0  0  0  0  0  0  0  0  0  0
    3.2789    2.2695    0.0000 H   0  0  0  0  0  0  0  0  0  0  0  0
   -0.2275    2.0537    0.0000 H   0  0  0  0  0  0  0  0  0  0  0  0
    3.2789   -1.4445    0.0000 H   0  0  0  0  0  0  0  0  0  0  0  0
    3.9352   -2.5356    0.0000 H   0  0  0  0  0  0  0  0  0  0  0  0
    3.9060   -1.4179    0.0000 H   0  0  0  0  0  0  0  0  0  0  0  0
    2.2576    4.8138    0.0000 H   0  0  0  0  0  0  0  0  0  0  0  0
    0.5512   -1.6807    0.0000 H   0  0  0  0  0  0  0  0  0  0  0  0
    1.1340   -0.6876    0.0000 H   0  0  0  0  0  0  0  0  0  0  0  0
    1.8449   -3.9176    0.0000 H   0  0  0  0  0  0  0  0  0  0  0  0
  1 46  1  0  0  0  0
  1 47  1  0  0  0  0
  1 48  1  0  0  0  0
  2 49  1  0  0  0  0
  2 50  1  0  0  0  0
  2 51  1  0  0  0  0
  3 52  1  0  0  0  0
  3 53  1  0  0  0  0
  3 54  1  0  0  0  0
  4 55  1  0  0  0  0
  4 56  1  0  0  0  0
  4 57  1  0  0  0  0
  5 58  1  0  0  0  0
  5 59  1  0  0  0  0
  5 60  1  0  0  0  0
  6 61  1  0  0  0  0
  7  6  2  0  0  0  0
  7 62  1  0  0  0  0
  8  6  1  0  0  0  0
  8 63  1  0  0  0  0
  9  7  1  0  0  0  0
  9 64  1  0  0  0  0
 10 65  1  0  0  0  0
 11 66  1  0  0  0  0
 12 10  2  0  0  0  0
 12 67  1  0  0  0  0
 13 11  2  0  0  0  0
 13 68  1  0  0  0  0
 14 69  1  0  0  0  0
 15 70  1  0  0  0  0
 15 71  1  0  0  0  0
 16 72  1  0  0  0  0
 17 73  1  0  0  0  0
 17 74  1  0  0  0  0
 18 10  1  0  0  0  0
 18 14  2  0  0  0  0
 19 15  1  0  0  0  0
 19 17  1  0  0  0  0
 19 35  1  0  0  0  0
 19 44  1  6  0  0  0
 20 11  1  0  0  0  0
 20 16  2  0  0  0  0
 21  8  2  0  0  0  0
 22 14  1  0  0  0  0
 23 12  1  0  0  0  0
 23 22  2  0  0  0  0
 24 15  1  0  0  0  0
 24 28  1  0  0  0  0
 24 45  1  1  0  0  0
 25  9  2  0  0  0  0
 25 21  1  0  0  0  0
 26 16  1  0  0  0  0
 27 13  1  0  0  0  0
 27 26  2  0  0  0  0
 30 21  1  1  0  0  0
 30 22  1  0  0  0  0
 30 29  1  0  0  0  0
 30 33  1  0  0  0  0
 31 18  1  0  0  0  0
 32  1  1  0  0  0  0
 32  2  1  0  0  0  0
 32 28  1  0  0  0  0
 33 17  1  0  0  0  0
 33 24  1  0  0  0  0
 34 23  1  0  0  0  0
 34 29  1  0  0  0  0
 35 75  1  0  0  0  0
 36 28  2  0  0  0  0
 37 29  2  0  0  0  0
 40  3  1  0  0  0  0
 40 20  1  0  0  0  0
 41  4  1  0  0  0  0
 41 25  1  0  0  0  0
 42  5  1  0  0  0  0
 42 26  1  0  0  0  0
 43 27  1  0  0  0  0
 43 34  1  0  0  0  0
 43 38  2  0  0  0  0
 43 39  2  0  0  0  0
M  END
>  <DRUGBANK_ID>
DB12643

>  <COMMON_NAME>
Nelivaptan

>  <CAS_NUMBER>
439687-69-1

>  <UNII>
3TY57MQ4OA

>  <SYNONYMS>
Nelivaptan

$$$$
