
 OpenBabel10282417072D

 48 48  0  0  0  0  0  0  0  0999 V2000
    1.4289    0.8250    0.0000 C   0  0  1  0  0  0  0  0  0  0  0  0
    0.7145    1.2375    0.0000 C   0  0  1  0  0  0  0  0  0  0  0  0
    1.4289   -0.0000    0.0000 C   0  0  1  0  0  0  0  0  0  0  0  0
    0.0000    0.8250    0.0000 C   0  0  2  0  0  0  0  0  0  0  0  0
    0.7145   -0.4125    0.0000 C   0  0  1  0  0  0  0  0  0  0  0  0
    0.0000    0.0000    0.0000 C   0  0  1  0  0  0  0  0  0  0  0  0
    2.1434    2.8875    0.0000 O   0  0  0  0  0  0  0  0  0  0  0  0
    1.3184    2.0625    0.0000 O   0  0  0  0  0  0  0  0  0  0  0  0
    2.9684    2.0625    0.0000 O   0  0  0  0  0  0  0  0  0  0  0  0
    0.4125    3.1895    0.0000 O   0  0  0  0  0  0  0  0  0  0  0  0
   -0.4125    1.7605    0.0000 O   0  0  0  0  0  0  0  0  0  0  0  0
   -0.7145    2.8875    0.0000 O   0  0  0  0  0  0  0  0  0  0  0  0
    3.2704   -0.7145    0.0000 O   0  0  0  0  0  0  0  0  0  0  0  0
    2.4454    0.7145    0.0000 O   0  0  0  0  0  0  0  0  0  0  0  0
    3.5724    0.4125    0.0000 O   0  0  0  0  0  0  0  0  0  0  0  0
   -1.8414    1.5395    0.0000 O   0  0  0  0  0  0  0  0  0  0  0  0
   -1.0164    0.1105    0.0000 O   0  0  0  0  0  0  0  0  0  0  0  0
   -2.1434    0.4125    0.0000 O   0  0  0  0  0  0  0  0  0  0  0  0
    1.0164   -2.3645    0.0000 O   0  0  0  0  0  0  0  0  0  0  0  0
    1.8414   -0.9355    0.0000 O   0  0  0  0  0  0  0  0  0  0  0  0
    2.1434   -2.0625    0.0000 O   0  0  0  0  0  0  0  0  0  0  0  0
   -0.7145   -2.0625    0.0000 O   0  0  0  0  0  0  0  0  0  0  0  0
   -1.5395   -1.2375    0.0000 O   0  0  0  0  0  0  0  0  0  0  0  0
    0.1105   -1.2375    0.0000 O   0  0  0  0  0  0  0  0  0  0  0  0
    2.1434    1.2375    0.0000 O   0  0  0  0  0  0  0  0  0  0  0  0
    0.7145    2.0625    0.0000 O   0  0  0  0  0  0  0  0  0  0  0  0
    2.1434   -0.4125    0.0000 O   0  0  0  0  0  0  0  0  0  0  0  0
   -0.7145    1.2375    0.0000 O   0  0  0  0  0  0  0  0  0  0  0  0
    0.7145   -1.2375    0.0000 O   0  0  0  0  0  0  0  0  0  0  0  0
   -0.7145   -0.4125    0.0000 O   0  0  0  0  0  0  0  0  0  0  0  0
    2.1434    2.0625    0.0000 S   0  0  0  0  0  0  0  0  0  0  0  0
    0.0000    2.4750    0.0000 S   0  0  0  0  0  0  0  0  0  0  0  0
    2.8579   -0.0000    0.0000 S   0  0  0  0  0  0  0  0  0  0  0  0
   -1.4289    0.8250    0.0000 S   0  0  0  0  0  0  0  0  0  0  0  0
    1.4289   -1.6500    0.0000 S   0  0  0  0  0  0  0  0  0  0  0  0
   -0.7145   -1.2375    0.0000 S   0  0  0  0  0  0  0  0  0  0  0  0
    1.1468    1.6002    0.0000 H   0  0  0  0  0  0  0  0  0  0  0  0
    0.9966    2.0127    0.0000 H   0  0  0  0  0  0  0  0  0  0  0  0
    2.1434    0.4125    0.0000 H   0  0  0  0  0  0  0  0  0  0  0  0
    0.0000    1.6500    0.0000 H   0  0  0  0  0  0  0  0  0  0  0  0
    1.4289   -0.8250    0.0000 H   0  0  0  0  0  0  0  0  0  0  0  0
   -0.7145    0.4125    0.0000 H   0  0  0  0  0  0  0  0  0  0  0  0
    2.9834    3.3725    0.0000 H   0  0  0  0  0  0  0  0  0  0  0  0
    1.3825    3.1895    0.0000 H   0  0  0  0  0  0  0  0  0  0  0  0
    2.7854   -1.5545    0.0000 H   0  0  0  0  0  0  0  0  0  0  0  0
   -1.3564    2.3795    0.0000 H   0  0  0  0  0  0  0  0  0  0  0  0
    0.0464   -2.3645    0.0000 H   0  0  0  0  0  0  0  0  0  0  0  0
   -1.5545   -2.5475    0.0000 H   0  0  0  0  0  0  0  0  0  0  0  0
  1 25  1  0  0  0  0
  1 37  1  1  0  0  0
  2  1  1  0  0  0  0
  2 26  1  0  0  0  0
  2 38  1  6  0  0  0
  3  1  1  0  0  0  0
  3 27  1  0  0  0  0
  3 39  1  1  0  0  0
  4  2  1  0  0  0  0
  4 28  1  0  0  0  0
  4 40  1  1  0  0  0
  5  3  1  0  0  0  0
  5 29  1  0  0  0  0
  5 41  1  1  0  0  0
  6  4  1  0  0  0  0
  6  5  1  0  0  0  0
  6 30  1  0  0  0  0
  6 42  1  6  0  0  0
  7 43  1  0  0  0  0
 10 44  1  0  0  0  0
 13 45  1  0  0  0  0
 16 46  1  0  0  0  0
 19 47  1  0  0  0  0
 22 48  1  0  0  0  0
 31  7  1  0  0  0  0
 31  8  2  0  0  0  0
 31  9  2  0  0  0  0
 31 25  1  0  0  0  0
 32 10  1  0  0  0  0
 32 11  2  0  0  0  0
 32 12  2  0  0  0  0
 32 26  1  0  0  0  0
 33 13  1  0  0  0  0
 33 14  2  0  0  0  0
 33 15  2  0  0  0  0
 33 27  1  0  0  0  0
 34 16  1  0  0  0  0
 34 17  2  0  0  0  0
 34 18  2  0  0  0  0
 34 28  1  0  0  0  0
 35 19  1  0  0  0  0
 35 20  2  0  0  0  0
 35 21  2  0  0  0  0
 35 29  1  0  0  0  0
 36 22  1  0  0  0  0
 36 23  2  0  0  0  0
 36 24  2  0  0  0  0
 36 30  1  0  0  0  0
M  END
>  <DRUGBANK_ID>
DB01666

>  <SECONDARY_ACCESSION_NUMBERS>
EXPT01854

>  <COMMON_NAME>
D-Myo-Inositol-Hexasulphate

$$$$
