
 OpenBabel10282417072D

 40 43  0  0  0  0  0  0  0  0999 V2000
   -0.9296   -0.6218    0.0000 O   0  0  0  0  0  0  0  0  0  0  0  0
    0.5172   -2.2719    0.0000 O   0  0  0  0  0  0  0  0  0  0  0  0
   -0.2278    2.2719    0.0000 O   0  0  0  0  0  0  0  0  0  0  0  0
    3.0785   -1.0220    0.0000 O   0  0  0  0  0  0  0  0  0  0  0  0
   -0.9296   -2.2719    0.0000 N   0  0  0  0  0  0  0  0  0  0  0  0
   -0.2278   -1.0343    0.0000 C   0  0  0  0  0  0  0  0  0  0  0  0
   -0.2278   -1.8594    0.0000 C   0  0  0  0  0  0  0  0  0  0  0  0
    0.5972   -1.0343    0.0000 C   0  0  0  0  0  0  0  0  0  0  0  0
   -0.2278   -0.2031    0.0000 C   0  0  0  0  0  0  0  0  0  0  0  0
   -1.6315   -1.0343    0.0000 C   0  0  0  0  0  0  0  0  0  0  0  0
   -1.6315   -1.8594    0.0000 C   0  0  0  0  0  0  0  0  0  0  0  0
    0.4740    0.2093    0.0000 C   0  0  0  0  0  0  0  0  0  0  0  0
    1.0529   -1.7363    0.0000 C   0  0  0  0  0  0  0  0  0  0  0  0
   -0.9296    0.2093    0.0000 C   0  0  0  0  0  0  0  0  0  0  0  0
    1.0096   -0.2893    0.0000 C   0  0  0  0  0  0  0  0  0  0  0  0
   -2.3765   -0.6218    0.0000 C   0  0  0  0  0  0  0  0  0  0  0  0
   -2.3765   -2.2719    0.0000 C   0  0  0  0  0  0  0  0  0  0  0  0
    0.4740    1.0343    0.0000 C   0  0  0  0  0  0  0  0  0  0  0  0
    1.8779   -1.7363    0.0000 C   0  0  0  0  0  0  0  0  0  0  0  0
   -0.9296    1.0343    0.0000 C   0  0  0  0  0  0  0  0  0  0  0  0
    1.8410   -0.2893    0.0000 C   0  0  0  0  0  0  0  0  0  0  0  0
   -0.2278    1.4468    0.0000 C   0  0  0  0  0  0  0  0  0  0  0  0
    2.2534   -1.0343    0.0000 C   0  0  0  0  0  0  0  0  0  0  0  0
   -3.0785   -1.0343    0.0000 C   0  0  0  0  0  0  0  0  0  0  0  0
   -3.0785   -1.8594    0.0000 C   0  0  0  0  0  0  0  0  0  0  0  0
    0.5837    2.7404    0.0000 H   0  0  0  0  0  0  0  0  0  0  0  0
    3.5590   -1.8264    0.0000 H   0  0  0  0  0  0  0  0  0  0  0  0
   -0.9296   -3.2564    0.0000 H   0  0  0  0  0  0  0  0  0  0  0  0
    1.3697   -0.3033    0.0000 H   0  0  0  0  0  0  0  0  0  0  0  0
    0.5604   -2.6432    0.0000 H   0  0  0  0  0  0  0  0  0  0  0  0
   -1.8253   -0.3033    0.0000 H   0  0  0  0  0  0  0  0  0  0  0  0
    0.4856    0.5998    0.0000 H   0  0  0  0  0  0  0  0  0  0  0  0
   -2.3897    0.4101    0.0000 H   0  0  0  0  0  0  0  0  0  0  0  0
   -2.3897   -3.3038    0.0000 H   0  0  0  0  0  0  0  0  0  0  0  0
    1.3697    1.5468    0.0000 H   0  0  0  0  0  0  0  0  0  0  0  0
    2.4083   -2.6216    0.0000 H   0  0  0  0  0  0  0  0  0  0  0  0
   -1.8253    1.5468    0.0000 H   0  0  0  0  0  0  0  0  0  0  0  0
    2.3650    0.5998    0.0000 H   0  0  0  0  0  0  0  0  0  0  0  0
   -3.9742   -0.5217    0.0000 H   0  0  0  0  0  0  0  0  0  0  0  0
   -3.9742   -2.3720    0.0000 H   0  0  0  0  0  0  0  0  0  0  0  0
  1  6  1  0  0  0  0
  1 10  1  0  0  0  0
  2  7  2  0  0  0  0
  3 22  1  0  0  0  0
  3 26  1  0  0  0  0
  4 23  1  0  0  0  0
  4 27  1  0  0  0  0
  5  7  1  0  0  0  0
  5 11  1  0  0  0  0
  5 28  1  0  0  0  0
  6  7  1  0  0  0  0
  6  8  1  0  0  0  0
  6  9  1  0  0  0  0
  8 13  2  0  0  0  0
  8 15  1  0  0  0  0
  9 12  2  0  0  0  0
  9 14  1  0  0  0  0
 10 11  1  0  0  0  0
 10 16  2  0  0  0  0
 11 17  2  0  0  0  0
 12 18  1  0  0  0  0
 12 29  1  0  0  0  0
 13 19  1  0  0  0  0
 13 30  1  0  0  0  0
 14 20  2  0  0  0  0
 14 31  1  0  0  0  0
 15 21  2  0  0  0  0
 15 32  1  0  0  0  0
 16 24  1  0  0  0  0
 16 33  1  0  0  0  0
 17 25  1  0  0  0  0
 17 34  1  0  0  0  0
 18 22  2  0  0  0  0
 18 35  1  0  0  0  0
 19 23  2  0  0  0  0
 19 36  1  0  0  0  0
 20 22  1  0  0  0  0
 20 37  1  0  0  0  0
 21 23  1  0  0  0  0
 21 38  1  0  0  0  0
 24 25  2  0  0  0  0
 24 39  1  0  0  0  0
 25 40  1  0  0  0  0
M  END
>  <DRUGBANK_ID>
DB09219

>  <COMMON_NAME>
Bisoxatin

>  <CAS_NUMBER>
17692-24-9

>  <UNII>
7C75N0L7FP

>  <SYNONYMS>
Bisoxatin

$$$$
