
 OpenBabel10282417072D

 66 68  0  0  1  0  0  0  0  0999 V2000
    6.8860   -2.2456    0.0000 C   0  0  0  0  0  0  0  0  0  0  0  0
    6.8860   -3.0706    0.0000 C   0  0  2  0  0  0  0  0  0  0  0  0
    6.1716   -3.4831    0.0000 N   0  0  0  0  0  0  0  0  0  0  0  0
    5.4571   -3.0706    0.0000 C   0  0  0  0  0  0  0  0  0  0  0  0
    5.4571   -2.2456    0.0000 O   0  0  0  0  0  0  0  0  0  0  0  0
    4.7426   -3.4831    0.0000 C   0  0  2  0  0  0  0  0  0  0  0  0
    4.6564   -4.3036    0.0000 C   0  0  0  0  0  0  0  0  0  0  0  0
    3.8494   -4.4751    0.0000 C   0  0  0  0  0  0  0  0  0  0  0  0
    3.4369   -3.7606    0.0000 C   0  0  0  0  0  0  0  0  0  0  0  0
    3.9890   -3.1475    0.0000 N   0  0  0  0  0  0  0  0  0  0  0  0
    3.8174   -2.3405    0.0000 C   0  0  0  0  0  0  0  0  0  0  0  0
    4.4305   -1.7885    0.0000 O   0  0  0  0  0  0  0  0  0  0  0  0
    3.0328   -2.0856    0.0000 C   0  0  2  0  0  0  0  0  0  0  0  0
    2.3654   -2.5705    0.0000 C   0  0  0  0  0  0  0  0  0  0  0  0
    1.6979   -2.0856    0.0000 C   0  0  0  0  0  0  0  0  0  0  0  0
    1.9529   -1.3010    0.0000 C   0  0  0  0  0  0  0  0  0  0  0  0
    2.7779   -1.3010    0.0000 N   0  0  0  0  0  0  0  0  0  0  0  0
    3.2628   -0.6335    0.0000 C   0  0  0  0  0  0  0  0  0  0  0  0
    4.0833   -0.7198    0.0000 O   0  0  0  0  0  0  0  0  0  0  0  0
    2.9272    0.1201    0.0000 C   0  0  1  0  0  0  0  0  0  0  0  0
    2.1068    0.2064    0.0000 O   0  0  0  0  0  0  0  0  0  0  0  0
    3.4122    0.7876    0.0000 C   0  0  2  0  0  0  0  0  0  0  0  0
    4.2326    0.7013    0.0000 N   0  0  0  0  0  0  0  0  0  0  0  0
    3.0766    1.5412    0.0000 C   0  0  0  0  0  0  0  0  0  0  0  0
    3.5615    2.2087    0.0000 C   0  0  0  0  0  0  0  0  0  0  0  0
    3.2260    2.9624    0.0000 C   0  0  0  0  0  0  0  0  0  0  0  0
    3.7109    3.6298    0.0000 C   0  0  0  0  0  0  0  0  0  0  0  0
    4.5314    3.5436    0.0000 C   0  0  0  0  0  0  0  0  0  0  0  0
    4.8669    2.7899    0.0000 C   0  0  0  0  0  0  0  0  0  0  0  0
    4.3820    2.1224    0.0000 C   0  0  0  0  0  0  0  0  0  0  0  0
    7.6005   -3.4831    0.0000 C   0  0  0  0  0  0  0  0  0  0  0  0
    8.3150   -3.0706    0.0000 N   0  0  0  0  0  0  0  0  0  0  0  0
    7.6005   -4.3081    0.0000 O   0  0  0  0  0  0  0  0  0  0  0  0
    7.8126   -1.7106    0.0000 H   0  0  0  0  0  0  0  0  0  0  0  0
    5.9594   -1.7106    0.0000 H   0  0  0  0  0  0  0  0  0  0  0  0
    6.8860   -1.1756    0.0000 H   0  0  0  0  0  0  0  0  0  0  0  0
    5.9593   -2.5356    0.0000 H   0  0  0  0  0  0  0  0  0  0  0  0
    6.1716   -4.4676    0.0000 H   0  0  0  0  0  0  0  0  0  0  0  0
    5.6400   -4.0659    0.0000 H   0  0  0  0  0  0  0  0  0  0  0  0
    5.4516   -5.0196    0.0000 H   0  0  0  0  0  0  0  0  0  0  0  0
    4.3794   -5.3371    0.0000 H   0  0  0  0  0  0  0  0  0  0  0  0
    3.4142   -5.4526    0.0000 H   0  0  0  0  0  0  0  0  0  0  0  0
    2.7809   -4.5311    0.0000 H   0  0  0  0  0  0  0  0  0  0  0  0
    2.3728   -3.6487    0.0000 H   0  0  0  0  0  0  0  0  0  0  0  0
    3.0535   -2.7617    0.0000 H   0  0  0  0  0  0  0  0  0  0  0  0
    3.2002   -3.1424    0.0000 H   0  0  0  0  0  0  0  0  0  0  0  0
    2.3654   -3.6405    0.0000 H   0  0  0  0  0  0  0  0  0  0  0  0
    1.4120   -3.0563    0.0000 H   0  0  0  0  0  0  0  0  0  0  0  0
    0.6803   -2.4162    0.0000 H   0  0  0  0  0  0  0  0  0  0  0  0
    0.9413   -1.3290    0.0000 H   0  0  0  0  0  0  0  0  0  0  0  0
    1.3240   -0.4353    0.0000 H   0  0  0  0  0  0  0  0  0  0  0  0
    2.4387   -0.3476    0.0000 H   0  0  0  0  0  0  0  0  0  0  0  0
    2.2983   -0.7455    0.0000 H   0  0  0  0  0  0  0  0  0  0  0  0
    1.7123    1.0926    0.0000 H   0  0  0  0  0  0  0  0  0  0  0  0
    3.8473   -0.1899    0.0000 H   0  0  0  0  0  0  0  0  0  0  0  0
    4.6474   -0.2306    0.0000 H   0  0  0  0  0  0  0  0  0  0  0  0
    4.8322    1.5264    0.0000 H   0  0  0  0  0  0  0  0  0  0  0  0
    2.0125    1.6530    0.0000 H   0  0  0  0  0  0  0  0  0  0  0  0
    2.6413    2.5187    0.0000 H   0  0  0  0  0  0  0  0  0  0  0  0
    2.1997    3.0703    0.0000 H   0  0  0  0  0  0  0  0  0  0  0  0
    3.2911    4.5726    0.0000 H   0  0  0  0  0  0  0  0  0  0  0  0
    5.1380    4.3785    0.0000 H   0  0  0  0  0  0  0  0  0  0  0  0
    5.8932    2.6820    0.0000 H   0  0  0  0  0  0  0  0  0  0  0  0
    4.8017    1.1796    0.0000 H   0  0  0  0  0  0  0  0  0  0  0  0
    9.1676   -3.5629    0.0000 H   0  0  0  0  0  0  0  0  0  0  0  0
    8.3150   -2.0861    0.0000 H   0  0  0  0  0  0  0  0  0  0  0  0
  1 34  1  0  0  0  0
  1 35  1  0  0  0  0
  1 36  1  0  0  0  0
  2  1  1  0  0  0  0
  2  3  1  0  0  0  0
  2 31  1  0  0  0  0
  2 37  1  6  0  0  0
  3  4  1  0  0  0  0
  3 38  1  0  0  0  0
  4  5  2  0  0  0  0
  6  4  1  0  0  0  0
  6  7  1  0  0  0  0
  6 10  1  0  0  0  0
  6 39  1  1  0  0  0
  7  8  1  0  0  0  0
  7 40  1  0  0  0  0
  7 41  1  0  0  0  0
  8  9  1  0  0  0  0
  8 42  1  0  0  0  0
  8 43  1  0  0  0  0
  9 10  1  0  0  0  0
  9 44  1  0  0  0  0
  9 45  1  0  0  0  0
 10 11  1  0  0  0  0
 11 12  2  0  0  0  0
 13 11  1  0  0  0  0
 13 14  1  0  0  0  0
 13 17  1  0  0  0  0
 13 46  1  1  0  0  0
 14 15  1  0  0  0  0
 14 47  1  0  0  0  0
 14 48  1  0  0  0  0
 15 16  1  0  0  0  0
 15 49  1  0  0  0  0
 15 50  1  0  0  0  0
 16 17  1  0  0  0  0
 16 51  1  0  0  0  0
 16 52  1  0  0  0  0
 17 18  1  0  0  0  0
 18 19  2  0  0  0  0
 18 20  1  0  0  0  0
 20 21  1  0  0  0  0
 20 22  1  0  0  0  0
 20 53  1  6  0  0  0
 21 54  1  0  0  0  0
 22 23  1  0  0  0  0
 22 24  1  0  0  0  0
 22 55  1  6  0  0  0
 23 56  1  0  0  0  0
 23 57  1  0  0  0  0
 24 25  1  0  0  0  0
 24 58  1  0  0  0  0
 24 59  1  0  0  0  0
 25 26  2  0  0  0  0
 25 30  1  0  0  0  0
 26 27  1  0  0  0  0
 26 60  1  0  0  0  0
 27 28  2  0  0  0  0
 27 61  1  0  0  0  0
 28 29  1  0  0  0  0
 28 62  1  0  0  0  0
 29 30  2  0  0  0  0
 29 63  1  0  0  0  0
 30 64  1  0  0  0  0
 31 32  1  0  0  0  0
 31 33  2  0  0  0  0
 32 65  1  0  0  0  0
 32 66  1  0  0  0  0
M  END
>  <DRUGBANK_ID>
DB04092

>  <SECONDARY_ACCESSION_NUMBERS>
EXPT00584

>  <COMMON_NAME>
Apstatin

>  <CAS_NUMBER>
160470-73-5

>  <UNII>
JZK8P9AG86

$$$$
