
 OpenBabel10282417072D

 56 59  0  0  0  0  0  0  0  0999 V2000
   -0.9983   -0.7542    0.0000 C   0  0  2  0  0  0  0  0  0  0  0  0
    1.1594    0.4710    0.0000 C   0  0  1  0  0  0  0  0  0  0  0  0
   -0.2514   -0.3734    0.0000 C   0  0  2  0  0  0  0  0  0  0  0  0
   -0.9983   -1.5792    0.0000 C   0  0  0  0  0  0  0  0  0  0  0  0
    1.1594   -0.3587    0.0000 C   0  0  2  0  0  0  0  0  0  0  0  0
    0.4515   -0.7737    0.0000 C   0  0  2  0  0  0  0  0  0  0  0  0
    1.9161    0.7200    0.0000 C   0  0  2  0  0  0  0  0  0  0  0  0
   -0.2661    0.4759    0.0000 C   0  0  2  0  0  0  0  0  0  0  0  0
   -1.7256   -0.3294    0.0000 C   0  0  0  0  0  0  0  0  0  0  0  0
    0.4515    0.8713    0.0000 C   0  0  0  0  0  0  0  0  0  0  0  0
    2.3749    0.0463    0.0000 C   0  0  2  0  0  0  0  0  0  0  0  0
    1.9307   -0.5980    0.0000 C   0  0  0  0  0  0  0  0  0  0  0  0
    0.4515   -1.6086    0.0000 C   0  0  0  0  0  0  0  0  0  0  0  0
   -0.2661   -2.0137    0.0000 C   0  0  2  0  0  0  0  0  0  0  0  0
   -1.7403   -1.9844    0.0000 C   0  0  0  0  0  0  0  0  0  0  0  0
    1.9161    1.6573    0.0000 C   0  0  0  0  0  0  0  0  0  0  0  0
   -2.4579   -0.7542    0.0000 C   0  0  0  0  0  0  0  0  0  0  0  0
   -2.4579   -1.5646    0.0000 C   0  0  0  0  0  0  0  0  0  0  0  0
   -0.2514   -1.1936    0.0000 F   0  0  0  0  0  0  0  0  0  0  0  0
    1.2814    2.0137    0.0000 O   0  0  0  0  0  0  0  0  0  0  0  0
   -3.1951   -1.9258    0.0000 O   0  0  0  0  0  0  0  0  0  0  0  0
    2.6337    1.1301    0.0000 O   0  0  0  0  0  0  0  0  0  0  0  0
   -0.9983    0.1195    0.0000 C   0  0  0  0  0  0  0  0  0  0  0  0
    1.1594    1.2961    0.0000 C   0  0  0  0  0  0  0  0  0  0  0  0
   -0.9641    0.8957    0.0000 O   0  0  0  0  0  0  0  0  0  0  0  0
   -0.2661   -2.8631    0.0000 F   0  0  0  0  0  0  0  0  0  0  0  0
    2.6093    1.9941    0.0000 C   0  0  0  0  0  0  0  0  0  0  0  0
    2.6093    2.8631    0.0000 Cl  0  0  0  0  0  0  0  0  0  0  0  0
    3.1951    0.0219    0.0000 C   0  0  0  0  0  0  0  0  0  0  0  0
    1.1448   -1.2521    0.0000 H   0  0  0  0  0  0  0  0  0  0  0  0
    0.4515    0.1342    0.0000 H   0  0  0  0  0  0  0  0  0  0  0  0
   -1.1929   -0.0588    0.0000 H   0  0  0  0  0  0  0  0  0  0  0  0
   -1.7241    0.7026    0.0000 H   0  0  0  0  0  0  0  0  0  0  0  0
    0.4574    1.9413    0.0000 H   0  0  0  0  0  0  0  0  0  0  0  0
   -0.4683    1.4181    0.0000 H   0  0  0  0  0  0  0  0  0  0  0  0
    2.8583   -0.9083    0.0000 H   0  0  0  0  0  0  0  0  0  0  0  0
    2.2806   -1.6092    0.0000 H   0  0  0  0  0  0  0  0  0  0  0  0
    1.1864   -1.3667    0.0000 H   0  0  0  0  0  0  0  0  0  0  0  0
    1.3755   -2.1481    0.0000 H   0  0  0  0  0  0  0  0  0  0  0  0
    1.3794   -1.0758    0.0000 H   0  0  0  0  0  0  0  0  0  0  0  0
    0.6579   -2.5532    0.0000 H   0  0  0  0  0  0  0  0  0  0  0  0
   -1.7555   -3.0163    0.0000 H   0  0  0  0  0  0  0  0  0  0  0  0
   -3.3522   -0.2391    0.0000 H   0  0  0  0  0  0  0  0  0  0  0  0
    3.4716    0.6414    0.0000 H   0  0  0  0  0  0  0  0  0  0  0  0
   -0.0717    0.6545    0.0000 H   0  0  0  0  0  0  0  0  0  0  0  0
   -1.9249    0.6545    0.0000 H   0  0  0  0  0  0  0  0  0  0  0  0
   -0.9983    1.1895    0.0000 H   0  0  0  0  0  0  0  0  0  0  0  0
    2.0860    1.8311    0.0000 H   0  0  0  0  0  0  0  0  0  0  0  0
    0.2328    1.8311    0.0000 H   0  0  0  0  0  0  0  0  0  0  0  0
    1.1594    2.3661    0.0000 H   0  0  0  0  0  0  0  0  0  0  0  0
   -0.9468    1.8655    0.0000 H   0  0  0  0  0  0  0  0  0  0  0  0
    3.5163    1.4264    0.0000 H   0  0  0  0  0  0  0  0  0  0  0  0
    3.5453    2.5125    0.0000 H   0  0  0  0  0  0  0  0  0  0  0  0
    3.7023   -0.9202    0.0000 H   0  0  0  0  0  0  0  0  0  0  0  0
    3.7574    0.9322    0.0000 H   0  0  0  0  0  0  0  0  0  0  0  0
    4.2646   -0.0099    0.0000 H   0  0  0  0  0  0  0  0  0  0  0  0
  1 23  1  1  0  0  0
  2 10  1  0  0  0  0
  2 24  1  1  0  0  0
  2  5  1  0  0  0  0
  3  1  1  0  0  0  0
  3 19  1  6  0  0  0
  4  1  1  0  0  0  0
  5  6  1  0  0  0  0
  5 30  1  6  0  0  0
  6  3  1  0  0  0  0
  6 31  1  1  0  0  0
  6 13  1  0  0  0  0
  7  2  1  0  0  0  0
  7 16  1  1  0  0  0
  7 22  1  0  0  0  0
  7 11  1  0  0  0  0
  8  3  1  0  0  0  0
  8 25  1  0  0  0  0
  8 32  1  6  0  0  0
  9  1  1  0  0  0  0
  9 33  1  0  0  0  0
 10  8  1  0  0  0  0
 10 34  1  0  0  0  0
 10 35  1  0  0  0  0
 11 12  1  0  0  0  0
 11 29  1  0  0  0  0
 11 36  1  6  0  0  0
 12  5  1  0  0  0  0
 12 37  1  0  0  0  0
 12 38  1  0  0  0  0
 13 14  1  0  0  0  0
 13 39  1  0  0  0  0
 13 40  1  0  0  0  0
 14  4  1  0  0  0  0
 14 26  1  0  0  0  0
 14 41  1  1  0  0  0
 15  4  2  0  0  0  0
 15 18  1  0  0  0  0
 15 42  1  0  0  0  0
 17  9  2  0  0  0  0
 17 43  1  0  0  0  0
 18 17  1  0  0  0  0
 20 16  2  0  0  0  0
 21 18  2  0  0  0  0
 22 44  1  0  0  0  0
 23 45  1  0  0  0  0
 23 46  1  0  0  0  0
 23 47  1  0  0  0  0
 24 48  1  0  0  0  0
 24 49  1  0  0  0  0
 24 50  1  0  0  0  0
 25 51  1  0  0  0  0
 27 16  1  0  0  0  0
 27 52  1  0  0  0  0
 27 53  1  0  0  0  0
 28 27  1  0  0  0  0
 29 54  1  0  0  0  0
 29 55  1  0  0  0  0
 29 56  1  0  0  0  0
M  END
>  <DRUGBANK_ID>
DB00596

>  <SECONDARY_ACCESSION_NUMBERS>
APRD01010

>  <COMMON_NAME>
Ulobetasol

>  <CAS_NUMBER>
98651-66-2

>  <UNII>
9P6159HM7T

>  <SYNONYMS>
21-chloro diflorasone; Halobetasol; Ulobetasol; Ulob√©tasol; Ulobetasolum

$$$$
