
 OpenBabel10282417072D

 93 94  0  0  0  0  0  0  0  0999 V2000
    7.8592  -15.2625    0.0000 C   0  0  0  0  0  0  0  0  0  0  0  0
    8.5737  -14.8500    0.0000 C   0  0  0  0  0  0  0  0  0  0  0  0
    9.2881  -15.2625    0.0000 C   0  0  0  0  0  0  0  0  0  0  0  0
   10.0026  -14.8500    0.0000 C   0  0  0  0  0  0  0  0  0  0  0  0
   10.7171  -15.2625    0.0000 C   0  0  0  0  0  0  0  0  0  0  0  0
   11.4315  -14.8500    0.0000 C   0  0  0  0  0  0  0  0  0  0  0  0
   12.1460  -15.2625    0.0000 C   0  0  0  0  0  0  0  0  0  0  0  0
   12.8605  -14.8500    0.0000 C   0  0  0  0  0  0  0  0  0  0  0  0
   13.5749  -15.2625    0.0000 C   0  0  0  0  0  0  0  0  0  0  0  0
   14.2894  -14.8500    0.0000 C   0  0  0  0  0  0  0  0  0  0  0  0
   15.0039  -15.2625    0.0000 C   0  0  0  0  0  0  0  0  0  0  0  0
   15.7184  -14.8500    0.0000 C   0  0  0  0  0  0  0  0  0  0  0  0
   16.4328  -15.2625    0.0000 N   0  0  0  0  0  0  0  0  0  0  0  0
   17.1473  -14.8500    0.0000 C   0  0  0  0  0  0  0  0  0  0  0  0
   17.8618  -15.2625    0.0000 C   0  0  3  0  0  0  0  0  0  0  0  0
   18.5762  -14.8500    0.0000 C   0  0  0  0  0  0  0  0  0  0  0  0
   19.2907  -15.2625    0.0000 C   0  0  0  0  0  0  0  0  0  0  0  0
   20.0052  -14.8500    0.0000 C   0  0  0  0  0  0  0  0  0  0  0  0
   20.7197  -15.2625    0.0000 C   0  0  0  0  0  0  0  0  0  0  0  0
   21.4341  -14.8500    0.0000 C   0  0  0  0  0  0  0  0  0  0  0  0
   22.1486  -15.2625    0.0000 C   0  0  0  0  0  0  0  0  0  0  0  0
   22.8631  -14.8500    0.0000 C   0  0  0  0  0  0  0  0  0  0  0  0
   23.5775  -15.2625    0.0000 C   0  0  0  0  0  0  0  0  0  0  0  0
   24.2920  -14.8500    0.0000 C   0  0  0  0  0  0  0  0  0  0  0  0
   25.0065  -15.2625    0.0000 N   0  0  0  0  0  0  0  0  0  0  0  0
   25.7210  -14.8500    0.0000 C   0  0  0  0  0  0  0  0  0  0  0  0
   25.7210  -14.0250    0.0000 O   0  0  0  0  0  0  0  0  0  0  0  0
   26.4354  -15.2625    0.0000 C   0  0  0  0  0  0  0  0  0  0  0  0
   26.4354  -16.0875    0.0000 C   0  0  0  0  0  0  0  0  0  0  0  0
   27.2200  -16.3424    0.0000 N   0  0  0  0  0  0  0  0  0  0  0  0
   27.7050  -15.6750    0.0000 C   0  0  0  0  0  0  0  0  0  0  0  0
   27.2200  -15.0076    0.0000 N   0  0  0  0  0  0  0  0  0  0  0  0
   27.4750  -14.2229    0.0000 C   0  0  0  0  0  0  0  0  0  0  0  0
   25.7210  -16.5000    0.0000 N   0  0  0  0  0  0  0  0  0  0  0  0
   25.0065  -16.0875    0.0000 C   0  0  0  0  0  0  0  0  0  0  0  0
   24.2920  -16.5000    0.0000 O   0  0  0  0  0  0  0  0  0  0  0  0
   25.7210  -17.3250    0.0000 C   0  0  0  0  0  0  0  0  0  0  0  0
   17.8618  -16.0875    0.0000 O   0  0  0  0  0  0  0  0  0  0  0  0
    6.9326  -14.7275    0.0000 H   0  0  0  0  0  0  0  0  0  0  0  0
    7.8592  -16.3325    0.0000 H   0  0  0  0  0  0  0  0  0  0  0  0
    6.9325  -15.7975    0.0000 H   0  0  0  0  0  0  0  0  0  0  0  0
    8.5737  -13.7800    0.0000 H   0  0  0  0  0  0  0  0  0  0  0  0
    9.5004  -14.3150    0.0000 H   0  0  0  0  0  0  0  0  0  0  0  0
    9.2881  -16.3325    0.0000 H   0  0  0  0  0  0  0  0  0  0  0  0
   10.2147  -15.7975    0.0000 H   0  0  0  0  0  0  0  0  0  0  0  0
   10.0026  -13.7800    0.0000 H   0  0  0  0  0  0  0  0  0  0  0  0
   10.9292  -14.3150    0.0000 H   0  0  0  0  0  0  0  0  0  0  0  0
   10.7171  -16.3325    0.0000 H   0  0  0  0  0  0  0  0  0  0  0  0
   11.6438  -15.7975    0.0000 H   0  0  0  0  0  0  0  0  0  0  0  0
   11.4315  -13.7800    0.0000 H   0  0  0  0  0  0  0  0  0  0  0  0
   12.3581  -14.3150    0.0000 H   0  0  0  0  0  0  0  0  0  0  0  0
   12.1460  -16.3325    0.0000 H   0  0  0  0  0  0  0  0  0  0  0  0
   13.0726  -15.7975    0.0000 H   0  0  0  0  0  0  0  0  0  0  0  0
   12.8605  -13.7800    0.0000 H   0  0  0  0  0  0  0  0  0  0  0  0
   13.7872  -14.3150    0.0000 H   0  0  0  0  0  0  0  0  0  0  0  0
   13.5749  -16.3325    0.0000 H   0  0  0  0  0  0  0  0  0  0  0  0
   14.5015  -15.7975    0.0000 H   0  0  0  0  0  0  0  0  0  0  0  0
   14.2894  -13.7800    0.0000 H   0  0  0  0  0  0  0  0  0  0  0  0
   15.2160  -14.3150    0.0000 H   0  0  0  0  0  0  0  0  0  0  0  0
   15.0039  -16.3325    0.0000 H   0  0  0  0  0  0  0  0  0  0  0  0
   15.9305  -15.7975    0.0000 H   0  0  0  0  0  0  0  0  0  0  0  0
   15.7184  -13.7800    0.0000 H   0  0  0  0  0  0  0  0  0  0  0  0
   16.6451  -14.3150    0.0000 H   0  0  0  0  0  0  0  0  0  0  0  0
   16.4328  -16.2825    0.0000 H   0  0  0  0  0  0  0  0  0  0  0  0
   17.1473  -13.7800    0.0000 H   0  0  0  0  0  0  0  0  0  0  0  0
   18.0739  -14.3150    0.0000 H   0  0  0  0  0  0  0  0  0  0  0  0
   17.8618  -14.1925    0.0000 H   0  0  0  0  0  0  0  0  0  0  0  0
   18.5762  -13.7800    0.0000 H   0  0  0  0  0  0  0  0  0  0  0  0
   19.5028  -14.3150    0.0000 H   0  0  0  0  0  0  0  0  0  0  0  0
   19.2907  -16.3325    0.0000 H   0  0  0  0  0  0  0  0  0  0  0  0
   20.2173  -15.7975    0.0000 H   0  0  0  0  0  0  0  0  0  0  0  0
   20.0052  -13.7800    0.0000 H   0  0  0  0  0  0  0  0  0  0  0  0
   20.9318  -14.3150    0.0000 H   0  0  0  0  0  0  0  0  0  0  0  0
   20.7197  -16.3325    0.0000 H   0  0  0  0  0  0  0  0  0  0  0  0
   21.6464  -15.7975    0.0000 H   0  0  0  0  0  0  0  0  0  0  0  0
   21.4341  -13.7800    0.0000 H   0  0  0  0  0  0  0  0  0  0  0  0
   22.3607  -14.3150    0.0000 H   0  0  0  0  0  0  0  0  0  0  0  0
   22.1486  -16.3325    0.0000 H   0  0  0  0  0  0  0  0  0  0  0  0
   23.0752  -15.7975    0.0000 H   0  0  0  0  0  0  0  0  0  0  0  0
   22.8631  -13.7800    0.0000 H   0  0  0  0  0  0  0  0  0  0  0  0
   23.7898  -14.3150    0.0000 H   0  0  0  0  0  0  0  0  0  0  0  0
   23.5775  -16.3325    0.0000 H   0  0  0  0  0  0  0  0  0  0  0  0
   24.5041  -15.7975    0.0000 H   0  0  0  0  0  0  0  0  0  0  0  0
   24.2920  -13.7800    0.0000 H   0  0  0  0  0  0  0  0  0  0  0  0
   25.2186  -14.3150    0.0000 H   0  0  0  0  0  0  0  0  0  0  0  0
   28.7370  -15.6750    0.0000 H   0  0  0  0  0  0  0  0  0  0  0  0
   28.5216  -14.0005    0.0000 H   0  0  0  0  0  0  0  0  0  0  0  0
   26.7591  -13.4277    0.0000 H   0  0  0  0  0  0  0  0  0  0  0  0
   27.8057  -13.2053    0.0000 H   0  0  0  0  0  0  0  0  0  0  0  0
   24.7944  -17.8600    0.0000 H   0  0  0  0  0  0  0  0  0  0  0  0
   26.6476  -17.8600    0.0000 H   0  0  0  0  0  0  0  0  0  0  0  0
   25.7210  -18.3950    0.0000 H   0  0  0  0  0  0  0  0  0  0  0  0
   17.0218  -16.5725    0.0000 H   0  0  0  0  0  0  0  0  0  0  0  0
  1  2  1  0  0  0  0
  1 39  1  0  0  0  0
  1 40  1  0  0  0  0
  1 41  1  0  0  0  0
  2  3  1  0  0  0  0
  2 42  1  0  0  0  0
  2 43  1  0  0  0  0
  3  4  1  0  0  0  0
  3 44  1  0  0  0  0
  3 45  1  0  0  0  0
  4  5  1  0  0  0  0
  4 46  1  0  0  0  0
  4 47  1  0  0  0  0
  5  6  1  0  0  0  0
  5 48  1  0  0  0  0
  5 49  1  0  0  0  0
  6  7  1  0  0  0  0
  6 50  1  0  0  0  0
  6 51  1  0  0  0  0
  7  8  1  0  0  0  0
  7 52  1  0  0  0  0
  7 53  1  0  0  0  0
  8  9  1  0  0  0  0
  8 54  1  0  0  0  0
  8 55  1  0  0  0  0
  9 10  1  0  0  0  0
  9 56  1  0  0  0  0
  9 57  1  0  0  0  0
 10 11  1  0  0  0  0
 10 58  1  0  0  0  0
 10 59  1  0  0  0  0
 11 12  1  0  0  0  0
 11 60  1  0  0  0  0
 11 61  1  0  0  0  0
 12 13  1  0  0  0  0
 12 62  1  0  0  0  0
 12 63  1  0  0  0  0
 13 14  1  0  0  0  0
 13 64  1  0  0  0  0
 14 15  1  0  0  0  0
 14 65  1  0  0  0  0
 14 66  1  0  0  0  0
 15 16  1  0  0  0  0
 15 38  1  0  0  0  0
 15 67  1  0  0  0  0
 16 17  1  0  0  0  0
 16 68  1  0  0  0  0
 16 69  1  0  0  0  0
 17 18  1  0  0  0  0
 17 70  1  0  0  0  0
 17 71  1  0  0  0  0
 18 19  1  0  0  0  0
 18 72  1  0  0  0  0
 18 73  1  0  0  0  0
 19 20  1  0  0  0  0
 19 74  1  0  0  0  0
 19 75  1  0  0  0  0
 20 21  1  0  0  0  0
 20 76  1  0  0  0  0
 20 77  1  0  0  0  0
 21 22  1  0  0  0  0
 21 78  1  0  0  0  0
 21 79  1  0  0  0  0
 22 23  1  0  0  0  0
 22 80  1  0  0  0  0
 22 81  1  0  0  0  0
 23 24  1  0  0  0  0
 23 82  1  0  0  0  0
 23 83  1  0  0  0  0
 24 25  1  0  0  0  0
 24 84  1  0  0  0  0
 24 85  1  0  0  0  0
 25 26  1  0  0  0  0
 25 35  1  0  0  0  0
 26 27  2  0  0  0  0
 26 28  1  0  0  0  0
 28 29  2  0  0  0  0
 28 32  1  0  0  0  0
 29 30  1  0  0  0  0
 29 34  1  0  0  0  0
 30 31  2  0  0  0  0
 31 32  1  0  0  0  0
 31 86  1  0  0  0  0
 32 33  1  0  0  0  0
 33 87  1  0  0  0  0
 33 88  1  0  0  0  0
 33 89  1  0  0  0  0
 34 35  1  0  0  0  0
 34 37  1  0  0  0  0
 35 36  2  0  0  0  0
 37 90  1  0  0  0  0
 37 91  1  0  0  0  0
 37 92  1  0  0  0  0
 38 93  1  0  0  0  0
M  END
>  <DRUGBANK_ID>
DB13098

>  <COMMON_NAME>
CT-2584

>  <CAS_NUMBER>
166981-13-1

>  <UNII>
67E5N3R22H

$$$$
