
 OpenBabel10282417072D

 29 28  0  0  0  0  0  0  0  0999 V2000
   -2.1436   -0.2062    0.0000 C   0  0  0  0  0  0  0  0  0  0  0  0
   -1.4290   -0.6187    0.0000 C   0  0  0  0  0  0  0  0  0  0  0  0
    0.7145   -0.2062    0.0000 C   0  0  0  0  0  0  0  0  0  0  0  0
    0.0000   -0.6187    0.0000 C   0  0  0  0  0  0  0  0  0  0  0  0
    1.4290   -0.6187    0.0000 C   0  0  0  0  0  0  0  0  0  0  0  0
   -0.7145   -0.2062    0.0000 C   0  0  0  0  0  0  0  0  0  0  0  0
    2.1436   -0.2062    0.0000 C   0  0  0  0  0  0  0  0  0  0  0  0
    2.8582   -0.6187    0.0000 O   0  0  0  0  0  0  0  0  0  0  0  0
   -2.8582   -0.6187    0.0000 C   0  0  0  0  0  0  0  0  0  0  0  0
    0.7144    0.6187    0.0000 C   0  0  0  0  0  0  0  0  0  0  0  0
   -2.1436    0.6187    0.0000 C   0  0  0  0  0  0  0  0  0  0  0  0
   -1.4290   -1.6507    0.0000 H   0  0  0  0  0  0  0  0  0  0  0  0
    0.0000   -1.6887    0.0000 H   0  0  0  0  0  0  0  0  0  0  0  0
   -0.9266   -1.1537    0.0000 H   0  0  0  0  0  0  0  0  0  0  0  0
    1.4290   -1.6507    0.0000 H   0  0  0  0  0  0  0  0  0  0  0  0
   -0.7145    0.8638    0.0000 H   0  0  0  0  0  0  0  0  0  0  0  0
    0.2121    0.3288    0.0000 H   0  0  0  0  0  0  0  0  0  0  0  0
    2.1436    0.8638    0.0000 H   0  0  0  0  0  0  0  0  0  0  0  0
    3.0702    0.3288    0.0000 H   0  0  0  0  0  0  0  0  0  0  0  0
    2.8583   -1.5887    0.0000 H   0  0  0  0  0  0  0  0  0  0  0  0
   -3.7848   -0.0836    0.0000 H   0  0  0  0  0  0  0  0  0  0  0  0
   -2.8583   -1.6887    0.0000 H   0  0  0  0  0  0  0  0  0  0  0  0
   -3.7849   -1.1536    0.0000 H   0  0  0  0  0  0  0  0  0  0  0  0
    1.6410    1.1538    0.0000 H   0  0  0  0  0  0  0  0  0  0  0  0
   -0.2123    1.1536    0.0000 H   0  0  0  0  0  0  0  0  0  0  0  0
    0.7143    1.6887    0.0000 H   0  0  0  0  0  0  0  0  0  0  0  0
   -1.2170    1.1537    0.0000 H   0  0  0  0  0  0  0  0  0  0  0  0
   -3.0702    1.1537    0.0000 H   0  0  0  0  0  0  0  0  0  0  0  0
   -2.1436    1.6887    0.0000 H   0  0  0  0  0  0  0  0  0  0  0  0
  1 11  1  0  0  0  0
  1  9  1  0  0  0  0
  2  1  2  0  0  0  0
  2 12  1  0  0  0  0
  3 10  1  0  0  0  0
  3  4  1  0  0  0  0
  3  5  2  0  0  0  0
  4  6  1  0  0  0  0
  4 13  1  0  0  0  0
  4 14  1  0  0  0  0
  5  7  1  0  0  0  0
  5 15  1  0  0  0  0
  6  2  1  0  0  0  0
  6 16  1  0  0  0  0
  6 17  1  0  0  0  0
  7  8  1  0  0  0  0
  7 18  1  0  0  0  0
  7 19  1  0  0  0  0
  8 20  1  0  0  0  0
  9 21  1  0  0  0  0
  9 22  1  0  0  0  0
  9 23  1  0  0  0  0
 10 24  1  0  0  0  0
 10 25  1  0  0  0  0
 10 26  1  0  0  0  0
 11 27  1  0  0  0  0
 11 28  1  0  0  0  0
 11 29  1  0  0  0  0
M  END
>  <DRUGBANK_ID>
DB14183

>  <COMMON_NAME>
Geraniol

>  <CAS_NUMBER>
106-24-1

>  <UNII>
L837108USY

>  <SYNONYMS>
(2E)-3,7-dimethylocta-2,6-dien-1-ol; (E)-3,7-Dimethyl-2,6-octadien-1-ol; (E)-Geraniol; (E)-Nerol; 2-trans-3,7-Dimethyl-2,6-octadien-1-ol; 2,6-Octadien-1-ol, 3,7-dimethyl-, (E)-; 2,6-Octadien-1-ol, 3,7-dimethyl-, trans-; 3,7-Dimethyl-2,6-octadien-1-ol, (E)-; 3,7-Dimethyl-trans-2,6-octadien-1-ol; geranyl alcohol; Lemonol; t-geraniol

$$$$
