
 OpenBabel10282417072D

 12 10  0  0  0  0  0  0  0  0999 V2000
   -1.1737   -0.2015    0.0000 C   0  0  0  0  0  0  0  0  0  0  0  0
   -1.8814   -0.6241    0.0000 N   0  0  0  0  0  0  0  0  0  0  0  0
   -0.4495   -0.5931    0.0000 N   0  0  0  0  0  0  0  0  0  0  0  0
   -1.1872    0.6241    0.0000 O   0  0  0  0  0  0  0  0  0  0  0  0
    1.0382   -0.3657    0.0000 O   0  0  0  0  0  0  0  0  0  0  0  0
    1.8814   -0.3657    0.0000 O   0  0  0  0  0  0  0  0  0  0  0  0
   -2.7412   -0.1445    0.0000 H   0  0  0  0  0  0  0  0  0  0  0  0
   -1.8669   -1.6085    0.0000 H   0  0  0  0  0  0  0  0  0  0  0  0
   -0.4220   -1.5772    0.0000 H   0  0  0  0  0  0  0  0  0  0  0  0
    0.3890   -0.0773    0.0000 H   0  0  0  0  0  0  0  0  0  0  0  0
    0.5532    0.4743    0.0000 H   0  0  0  0  0  0  0  0  0  0  0  0
    2.3664   -1.2057    0.0000 H   0  0  0  0  0  0  0  0  0  0  0  0
  1  2  1  0  0  0  0
  1  3  1  0  0  0  0
  1  4  2  0  0  0  0
  2  7  1  0  0  0  0
  2  8  1  0  0  0  0
  3  9  1  0  0  0  0
  3 10  1  0  0  0  0
  5  6  1  0  0  0  0
  5 11  1  0  0  0  0
  6 12  1  0  0  0  0
M  END
>  <DRUGBANK_ID>
DB11129

>  <COMMON_NAME>
Carbamide peroxide

>  <CAS_NUMBER>
124-43-6

>  <UNII>
31PZ2VAU81

>  <SYNONYMS>
Carbamide peroxide; Hydrogen peroxide carbamide; Urea dioxide; Urea hydrogen peroxide; Urea peroxide

$$$$
