
 OpenBabel10282417072D

 66 69  0  0  0  0  0  0  0  0999 V2000
   -4.8946    8.4777    0.0000 C   0  0  0  0  0  0  0  0  0  0  0  0
   -4.1801    8.0652    0.0000 N   0  0  0  0  0  0  0  0  0  0  0  0
   -3.4656    8.4777    0.0000 C   0  0  0  0  0  0  0  0  0  0  0  0
   -4.1801    7.2402    0.0000 C   0  0  0  0  0  0  0  0  0  0  0  0
   -3.4656    6.8277    0.0000 C   0  0  0  0  0  0  0  0  0  0  0  0
   -2.7512    7.2402    0.0000 O   0  0  0  0  0  0  0  0  0  0  0  0
   -3.4656    6.0027    0.0000 N   0  0  0  0  0  0  0  0  0  0  0  0
   -2.7512    5.5902    0.0000 C   0  0  0  0  0  0  0  0  0  0  0  0
   -2.7512    4.7652    0.0000 C   0  0  0  0  0  0  0  0  0  0  0  0
   -3.4656    4.3527    0.0000 C   0  0  0  0  0  0  0  0  0  0  0  0
   -4.1801    4.7652    0.0000 C   0  0  0  0  0  0  0  0  0  0  0  0
   -4.1801    5.5902    0.0000 C   0  0  0  0  0  0  0  0  0  0  0  0
   -3.4656    3.5277    0.0000 C   0  0  0  0  0  0  0  0  0  0  0  0
   -2.7512    3.1152    0.0000 C   0  0  0  0  0  0  0  0  0  0  0  0
   -2.7512    2.2902    0.0000 C   0  0  0  0  0  0  0  0  0  0  0  0
   -3.4656    1.8777    0.0000 C   0  0  0  0  0  0  0  0  0  0  0  0
   -3.4656    1.0527    0.0000 N   0  0  0  0  0  0  0  0  0  0  0  0
   -2.7512    0.6402    0.0000 C   0  0  0  0  0  0  0  0  0  0  0  0
   -2.0367    1.0527    0.0000 O   0  0  0  0  0  0  0  0  0  0  0  0
   -2.7512   -0.1848    0.0000 C   0  0  0  0  0  0  0  0  0  0  0  0
   -2.0837   -0.6697    0.0000 N   0  0  0  0  0  0  0  0  0  0  0  0
   -2.3387   -1.4544    0.0000 C   0  0  0  0  0  0  0  0  0  0  0  0
   -3.1637   -1.4544    0.0000 C   0  0  0  0  0  0  0  0  0  0  0  0
   -3.4186   -0.6697    0.0000 N   0  0  0  0  0  0  0  0  0  0  0  0
   -1.8538   -2.1218    0.0000 C   0  0  0  0  0  0  0  0  0  0  0  0
   -1.3688   -2.7892    0.0000 N   0  0  0  0  0  0  0  0  0  0  0  0
   -4.1801    2.2902    0.0000 C   0  0  0  0  0  0  0  0  0  0  0  0
   -4.1801    3.1152    0.0000 C   0  0  0  0  0  0  0  0  0  0  0  0
   -4.8946    1.8777    0.0000 C   0  0  0  0  0  0  0  0  0  0  0  0
   -4.8946    1.0527    0.0000 C   0  0  0  0  0  0  0  0  0  0  0  0
   -5.6091    0.6402    0.0000 C   0  0  0  0  0  0  0  0  0  0  0  0
   -6.3235    1.0527    0.0000 C   0  0  0  0  0  0  0  0  0  0  0  0
   -6.3235    1.8777    0.0000 C   0  0  0  0  0  0  0  0  0  0  0  0
   -5.6091    2.2902    0.0000 C   0  0  0  0  0  0  0  0  0  0  0  0
   -4.8946    9.5477    0.0000 H   0  0  0  0  0  0  0  0  0  0  0  0
   -5.8212    7.9427    0.0000 H   0  0  0  0  0  0  0  0  0  0  0  0
   -5.8213    9.0127    0.0000 H   0  0  0  0  0  0  0  0  0  0  0  0
   -2.5390    7.9427    0.0000 H   0  0  0  0  0  0  0  0  0  0  0  0
   -3.4656    9.5477    0.0000 H   0  0  0  0  0  0  0  0  0  0  0  0
   -2.5389    9.0127    0.0000 H   0  0  0  0  0  0  0  0  0  0  0  0
   -5.1067    6.7052    0.0000 H   0  0  0  0  0  0  0  0  0  0  0  0
   -4.1801    6.1702    0.0000 H   0  0  0  0  0  0  0  0  0  0  0  0
   -1.8245    6.1252    0.0000 H   0  0  0  0  0  0  0  0  0  0  0  0
   -1.8246    5.0552    0.0000 H   0  0  0  0  0  0  0  0  0  0  0  0
   -1.8245    4.2302    0.0000 H   0  0  0  0  0  0  0  0  0  0  0  0
   -2.7512    3.6952    0.0000 H   0  0  0  0  0  0  0  0  0  0  0  0
   -4.3922    3.8177    0.0000 H   0  0  0  0  0  0  0  0  0  0  0  0
   -5.1067    4.2302    0.0000 H   0  0  0  0  0  0  0  0  0  0  0  0
   -5.1067    5.3002    0.0000 H   0  0  0  0  0  0  0  0  0  0  0  0
   -5.1067    6.1252    0.0000 H   0  0  0  0  0  0  0  0  0  0  0  0
   -4.1801    6.6602    0.0000 H   0  0  0  0  0  0  0  0  0  0  0  0
   -1.8575    3.6312    0.0000 H   0  0  0  0  0  0  0  0  0  0  0  0
   -1.8575    1.7742    0.0000 H   0  0  0  0  0  0  0  0  0  0  0  0
   -4.3182    0.5605    0.0000 H   0  0  0  0  0  0  0  0  0  0  0  0
   -3.7703   -2.2893    0.0000 H   0  0  0  0  0  0  0  0  0  0  0  0
   -4.3549   -0.3654    0.0000 H   0  0  0  0  0  0  0  0  0  0  0  0
   -5.0738    3.6312    0.0000 H   0  0  0  0  0  0  0  0  0  0  0  0
   -4.0009    0.5367    0.0000 H   0  0  0  0  0  0  0  0  0  0  0  0
   -5.6091   -0.4298    0.0000 H   0  0  0  0  0  0  0  0  0  0  0  0
   -6.5358    0.1052    0.0000 H   0  0  0  0  0  0  0  0  0  0  0  0
   -7.2502    0.5177    0.0000 H   0  0  0  0  0  0  0  0  0  0  0  0
   -7.2501    1.5877    0.0000 H   0  0  0  0  0  0  0  0  0  0  0  0
   -7.2502    2.4127    0.0000 H   0  0  0  0  0  0  0  0  0  0  0  0
   -6.3235    2.9477    0.0000 H   0  0  0  0  0  0  0  0  0  0  0  0
   -5.6091    3.3602    0.0000 H   0  0  0  0  0  0  0  0  0  0  0  0
   -4.6825    2.8252    0.0000 H   0  0  0  0  0  0  0  0  0  0  0  0
  1  2  1  0  0  0  0
  1 35  1  0  0  0  0
  1 36  1  0  0  0  0
  1 37  1  0  0  0  0
  2  3  1  0  0  0  0
  2  4  1  0  0  0  0
  3 38  1  0  0  0  0
  3 39  1  0  0  0  0
  3 40  1  0  0  0  0
  4  5  1  0  0  0  0
  4 41  1  0  0  0  0
  4 42  1  0  0  0  0
  5  6  2  0  0  0  0
  5  7  1  0  0  0  0
  7  8  1  0  0  0  0
  7 12  1  0  0  0  0
  8  9  1  0  0  0  0
  8 43  1  0  0  0  0
  8 44  1  0  0  0  0
  9 10  1  0  0  0  0
  9 45  1  0  0  0  0
  9 46  1  0  0  0  0
 10 11  1  0  0  0  0
 10 13  1  0  0  0  0
 10 47  1  0  0  0  0
 11 12  1  0  0  0  0
 11 48  1  0  0  0  0
 11 49  1  0  0  0  0
 12 50  1  0  0  0  0
 12 51  1  0  0  0  0
 13 14  2  0  0  0  0
 13 28  1  0  0  0  0
 14 15  1  0  0  0  0
 14 52  1  0  0  0  0
 15 16  2  0  0  0  0
 15 53  1  0  0  0  0
 16 17  1  0  0  0  0
 16 27  1  0  0  0  0
 17 18  1  0  0  0  0
 17 54  1  0  0  0  0
 18 19  2  0  0  0  0
 18 20  1  0  0  0  0
 20 21  2  0  0  0  0
 20 24  1  0  0  0  0
 21 22  1  0  0  0  0
 22 23  2  0  0  0  0
 22 25  1  0  0  0  0
 23 24  1  0  0  0  0
 23 55  1  0  0  0  0
 24 56  1  0  0  0  0
 25 26  3  0  0  0  0
 27 28  2  0  0  0  0
 27 29  1  0  0  0  0
 28 57  1  0  0  0  0
 29 30  2  0  0  0  0
 29 34  1  0  0  0  0
 30 31  1  0  0  0  0
 30 58  1  0  0  0  0
 31 32  1  0  0  0  0
 31 59  1  0  0  0  0
 31 60  1  0  0  0  0
 32 33  1  0  0  0  0
 32 61  1  0  0  0  0
 32 62  1  0  0  0  0
 33 34  1  0  0  0  0
 33 63  1  0  0  0  0
 33 64  1  0  0  0  0
 34 65  1  0  0  0  0
 34 66  1  0  0  0  0
M  END
>  <DRUGBANK_ID>
DB17140

>  <COMMON_NAME>
JNJ-28312141

>  <CAS_NUMBER>
885692-52-4

>  <UNII>
YKQ241VJ92

>  <SYNONYMS>
1h-imidazole-2-carboxamide, 5-cyano-n-(2-(1-cyclohexen-1-yl)-4-(1-(2-(dimethylamino)acetyl)-4-piperidinyl)phenyl)-; 4-cyano-N-[2-(1-cyclohexen-1-yl)-4-[1-[(dimethylamino)acetyl]-4-piperidinyl]phenyl]-1H-imidazole-2-carboxamide

$$$$
