
 OpenBabel10282417072D

 44 46  0  0  0  0  0  0  0  0999 V2000
   -0.7144    3.3346    0.0000 C   0  0  0  0  0  0  0  0  0  0  0  0
    2.1434    3.3346    0.0000 C   0  0  0  0  0  0  0  0  0  0  0  0
    0.3821   -2.0859    0.0000 C   0  0  0  0  0  0  0  0  0  0  0  0
   -0.7738   -1.2460    0.0000 C   0  0  0  0  0  0  0  0  0  0  0  0
    0.8670   -1.4185    0.0000 C   0  0  0  0  0  0  0  0  0  0  0  0
   -0.2889   -0.5786    0.0000 C   0  0  0  0  0  0  0  0  0  0  0  0
   -0.7144    0.8596    0.0000 C   0  0  0  0  0  0  0  0  0  0  0  0
    0.0000    1.2721    0.0000 C   0  0  0  0  0  0  0  0  0  0  0  0
   -0.9232   -2.6671    0.0000 C   0  0  0  0  0  0  0  0  0  0  0  0
   -2.1434    0.8596    0.0000 C   0  0  0  0  0  0  0  0  0  0  0  0
   -0.7144    2.5096    0.0000 C   0  0  0  0  0  0  0  0  0  0  0  0
    2.1434    2.5096    0.0000 C   0  0  1  0  0  0  0  0  0  0  0  0
   -0.4383   -1.9997    0.0000 C   0  0  0  0  0  0  0  0  0  0  0  0
    0.5315   -0.6648    0.0000 C   0  0  0  0  0  0  0  0  0  0  0  0
   -1.4289    1.2721    0.0000 C   0  0  0  0  0  0  0  0  0  0  0  0
    0.0000    2.0971    0.0000 C   0  0  0  0  0  0  0  0  0  0  0  0
   -1.4289    2.0971    0.0000 C   0  0  0  0  0  0  0  0  0  0  0  0
    1.4289    2.0971    0.0000 C   0  0  2  0  0  0  0  0  0  0  0  0
    1.0164    0.0025    0.0000 C   0  0  0  0  0  0  0  0  0  0  0  0
    1.4289    1.2721    0.0000 C   0  0  0  0  0  0  0  0  0  0  0  0
   -2.1434    2.5096    0.0000 Cl  0  0  0  0  0  0  0  0  0  0  0  0
   -1.4081   -3.3346    0.0000 N   0  0  0  0  0  0  0  0  0  0  0  0
   -2.8578    0.4471    0.0000 N   0  0  0  0  0  0  0  0  0  0  0  0
    0.7144    2.5096    0.0000 N   0  0  0  0  0  0  0  0  0  0  0  0
    1.8414    0.0025    0.0000 N   0  0  0  0  0  0  0  0  0  0  0  0
    2.0963    0.7871    0.0000 N   0  0  0  0  0  0  0  0  0  0  0  0
    2.8578    2.0971    0.0000 O   0  0  0  0  0  0  0  0  0  0  0  0
    0.7615    0.7871    0.0000 O   0  0  0  0  0  0  0  0  0  0  0  0
    1.4289    2.9221    0.0000 H   0  0  0  0  0  0  0  0  0  0  0  0
    2.1434    1.6846    0.0000 H   0  0  0  0  0  0  0  0  0  0  0  0
    0.2122    3.8696    0.0000 H   0  0  0  0  0  0  0  0  0  0  0  0
   -1.6410    3.8696    0.0000 H   0  0  0  0  0  0  0  0  0  0  0  0
   -0.7144    4.4046    0.0000 H   0  0  0  0  0  0  0  0  0  0  0  0
    3.0700    3.8696    0.0000 H   0  0  0  0  0  0  0  0  0  0  0  0
    1.2168    3.8696    0.0000 H   0  0  0  0  0  0  0  0  0  0  0  0
    2.1434    4.4046    0.0000 H   0  0  0  0  0  0  0  0  0  0  0  0
    0.8019   -3.0287    0.0000 H   0  0  0  0  0  0  0  0  0  0  0  0
   -1.8001   -1.1381    0.0000 H   0  0  0  0  0  0  0  0  0  0  0  0
    1.8933   -1.5264    0.0000 H   0  0  0  0  0  0  0  0  0  0  0  0
   -0.7087    0.3642    0.0000 H   0  0  0  0  0  0  0  0  0  0  0  0
   -0.7144   -0.1724    0.0000 H   0  0  0  0  0  0  0  0  0  0  0  0
    0.8937    0.7561    0.0000 H   0  0  0  0  0  0  0  0  0  0  0  0
    0.7144    3.4941    0.0000 H   0  0  0  0  0  0  0  0  0  0  0  0
    2.8578    1.1271    0.0000 H   0  0  0  0  0  0  0  0  0  0  0  0
  1 31  1  0  0  0  0
  1 32  1  0  0  0  0
  1 33  1  0  0  0  0
  2 34  1  0  0  0  0
  2 35  1  0  0  0  0
  2 36  1  0  0  0  0
  3 37  1  0  0  0  0
  4 38  1  0  0  0  0
  5  3  1  0  0  0  0
  5 39  1  0  0  0  0
  6  4  2  0  0  0  0
  6 40  1  0  0  0  0
  7 41  1  0  0  0  0
  8  7  2  0  0  0  0
  8 42  1  0  0  0  0
 11  1  1  0  0  0  0
 12  2  1  0  0  0  0
 12 18  1  0  0  0  0
 12 27  1  0  0  0  0
 12 29  1  1  0  0  0
 13  3  2  0  0  0  0
 13  4  1  0  0  0  0
 13  9  1  0  0  0  0
 14  5  2  0  0  0  0
 14  6  1  0  0  0  0
 15  7  1  0  0  0  0
 15 10  1  0  0  0  0
 16  8  1  0  0  0  0
 16 11  2  0  0  0  0
 17 11  1  0  0  0  0
 17 15  2  0  0  0  0
 18 20  1  0  0  0  0
 18 24  1  0  0  0  0
 18 30  1  1  0  0  0
 19 14  1  0  0  0  0
 21 17  1  0  0  0  0
 22  9  3  0  0  0  0
 23 10  3  0  0  0  0
 24 16  1  0  0  0  0
 24 43  1  0  0  0  0
 25 19  2  0  0  0  0
 26 20  2  0  0  0  0
 26 25  1  0  0  0  0
 27 44  1  0  0  0  0
 28 19  1  0  0  0  0
 28 20  1  0  0  0  0
M  END
>  <DRUGBANK_ID>
DB13939

>  <COMMON_NAME>
RAD-140

>  <CAS_NUMBER>
1182367-47-0

>  <UNII>
4O87Q44KNC

>  <SYNONYMS>
2-Chloro-4-(((1R,2S)-1-(5-(4-cyanophenyl)-1,3,4-oxadiazol-2-yl)-2-hydroxypropyl)amino)-3-methylbenzonitrile

$$$$
