
 OpenBabel10282417072D

 32 33  0  0  0  0  0  0  0  0999 V2000
   -0.0000   -1.4559    0.0000 C   0  0  0  0  0  0  0  0  0  0  0  0
   -0.0000   -0.6309    0.0000 N   0  3  0  0  0  0  0  0  0  0  0  0
    0.7145   -0.2184    0.0000 C   0  0  0  0  0  0  0  0  0  0  0  0
    1.4289   -0.6309    0.0000 C   0  0  0  0  0  0  0  0  0  0  0  0
    2.1434   -0.2184    0.0000 C   0  0  0  0  0  0  0  0  0  0  0  0
    2.1434    0.6066    0.0000 C   0  0  0  0  0  0  0  0  0  0  0  0
    1.4289    1.0191    0.0000 C   0  0  0  0  0  0  0  0  0  0  0  0
    0.7145    0.6066    0.0000 C   0  0  0  0  0  0  0  0  0  0  0  0
    0.0000    1.0191    0.0000 C   0  0  0  0  0  0  0  0  0  0  0  0
   -0.7145    0.6066    0.0000 C   0  0  0  0  0  0  0  0  0  0  0  0
   -0.7145   -0.2184    0.0000 C   0  0  0  0  0  0  0  0  0  0  0  0
   -1.4289   -0.6309    0.0000 C   0  0  0  0  0  0  0  0  0  0  0  0
   -2.1434   -0.2184    0.0000 C   0  0  0  0  0  0  0  0  0  0  0  0
   -2.1434    0.6066    0.0000 C   0  0  0  0  0  0  0  0  0  0  0  0
   -1.4289    1.0191    0.0000 C   0  0  0  0  0  0  0  0  0  0  0  0
   -2.8579   -0.6309    0.0000 N   0  0  0  0  0  0  0  0  0  0  0  0
    2.8579   -0.6309    0.0000 N   0  0  0  0  0  0  0  0  0  0  0  0
    5.2150    0.0000    0.0000 Cl  0  5  0  0  0  0  0  0  0  0  0  0
   -0.9266   -1.9909    0.0000 H   0  0  0  0  0  0  0  0  0  0  0  0
    0.9266   -1.9909    0.0000 H   0  0  0  0  0  0  0  0  0  0  0  0
    0.0000   -2.5259    0.0000 H   0  0  0  0  0  0  0  0  0  0  0  0
    1.4289   -1.6629    0.0000 H   0  0  0  0  0  0  0  0  0  0  0  0
    3.0371    1.1226    0.0000 H   0  0  0  0  0  0  0  0  0  0  0  0
    1.4289    2.0511    0.0000 H   0  0  0  0  0  0  0  0  0  0  0  0
    0.0000    2.0511    0.0000 H   0  0  0  0  0  0  0  0  0  0  0  0
   -1.4289   -1.6629    0.0000 H   0  0  0  0  0  0  0  0  0  0  0  0
   -3.0371    1.1226    0.0000 H   0  0  0  0  0  0  0  0  0  0  0  0
   -1.4289    2.0511    0.0000 H   0  0  0  0  0  0  0  0  0  0  0  0
   -3.7105   -0.1386    0.0000 H   0  0  0  0  0  0  0  0  0  0  0  0
   -2.8579   -1.6154    0.0000 H   0  0  0  0  0  0  0  0  0  0  0  0
    2.8579   -1.6154    0.0000 H   0  0  0  0  0  0  0  0  0  0  0  0
    3.7105   -0.1386    0.0000 H   0  0  0  0  0  0  0  0  0  0  0  0
  1  2  1  0  0  0  0
  1 19  1  0  0  0  0
  1 20  1  0  0  0  0
  1 21  1  0  0  0  0
  2  3  2  0  0  0  0
  2 11  1  0  0  0  0
  3  4  1  0  0  0  0
  3  8  1  0  0  0  0
  4  5  2  0  0  0  0
  4 22  1  0  0  0  0
  5  6  1  0  0  0  0
  5 17  1  0  0  0  0
  6  7  2  0  0  0  0
  6 23  1  0  0  0  0
  7  8  1  0  0  0  0
  7 24  1  0  0  0  0
  8  9  2  0  0  0  0
  9 10  1  0  0  0  0
  9 25  1  0  0  0  0
 10 11  2  0  0  0  0
 10 15  1  0  0  0  0
 11 12  1  0  0  0  0
 12 13  2  0  0  0  0
 12 26  1  0  0  0  0
 13 14  1  0  0  0  0
 13 16  1  0  0  0  0
 14 15  2  0  0  0  0
 14 27  1  0  0  0  0
 15 28  1  0  0  0  0
 16 29  1  0  0  0  0
 16 30  1  0  0  0  0
 17 31  1  0  0  0  0
 17 32  1  0  0  0  0
M  CHG  2   2   1  18  -1
M  END
>  <DRUGBANK_ID>
DB13326

>  <COMMON_NAME>
Euflavine

>  <CAS_NUMBER>
86-40-8

>  <UNII>
1TW3Q60E36

>  <SYNONYMS>
3,6-diamino-10-methylacridinium chloride

$$$$
