M2F
 OpenBabel10282417072D

 37 38  0  0  0  0  0  0  0  0999 V2000
    1.3416    1.9953    0.0000 O   0  5  0  0  0  0  0  0  0  0  0  0
    2.0561    1.5828    0.0000 N   0  3  0  0  0  0  0  0  0  0  0  0
    2.7706    1.9953    0.0000 O   0  0  0  0  0  0  0  0  0  0  0  0
    2.0561    0.7578    0.0000 C   0  0  0  0  0  0  0  0  0  0  0  0
    2.7706    0.3453    0.0000 C   0  0  0  0  0  0  0  0  0  0  0  0
    2.7706   -0.4797    0.0000 C   0  0  0  0  0  0  0  0  0  0  0  0
    3.4850   -0.8922    0.0000 N   0  3  0  0  0  0  0  0  0  0  0  0
    3.4850   -1.7172    0.0000 O   0  5  0  0  0  0  0  0  0  0  0  0
    4.1995   -0.4797    0.0000 O   0  0  0  0  0  0  0  0  0  0  0  0
    2.0561   -0.8922    0.0000 C   0  0  0  0  0  0  0  0  0  0  0  0
    1.3416   -0.4797    0.0000 C   0  0  0  0  0  0  0  0  0  0  0  0
    1.3416    0.3453    0.0000 C   0  0  0  0  0  0  0  0  0  0  0  0
    0.6272    0.7578    0.0000 O   0  0  0  0  0  0  0  0  0  0  0  0
   -0.0873    0.3453    0.0000 C   0  0  2  0  0  0  0  0  0  0  0  0
   -0.0873   -0.4797    0.0000 O   0  0  0  0  0  0  0  0  0  0  0  0
   -0.8018    0.7578    0.0000 C   0  0  1  0  0  0  0  0  0  0  0  0
   -0.8018    1.5828    0.0000 F   0  0  0  0  0  0  0  0  0  0  0  0
   -1.5163    0.3453    0.0000 C   0  0  1  0  0  0  0  0  0  0  0  0
   -2.2307    0.7578    0.0000 O   0  0  0  0  0  0  0  0  0  0  0  0
   -1.5163   -0.4797    0.0000 C   0  0  2  0  0  0  0  0  0  0  0  0
   -2.2307   -0.8922    0.0000 O   0  0  0  0  0  0  0  0  0  0  0  0
   -0.8018   -0.8922    0.0000 C   0  0  1  0  0  0  0  0  0  0  0  0
   -0.8018   -1.7172    0.0000 C   0  0  0  0  0  0  0  0  0  0  0  0
   -1.5163   -2.1297    0.0000 O   0  0  0  0  0  0  0  0  0  0  0  0
    0.4184    0.0533    0.0000 H   0  0  0  0  0  0  0  0  0  0  0  0
   -0.2961    1.0497    0.0000 H   0  0  0  0  0  0  0  0  0  0  0  0
   -0.2961   -1.1842    0.0000 H   0  0  0  0  0  0  0  0  0  0  0  0
   -1.5163    0.9292    0.0000 H   0  0  0  0  0  0  0  0  0  0  0  0
   -2.0220   -0.1878    0.0000 H   0  0  0  0  0  0  0  0  0  0  0  0
    3.6643    0.8613    0.0000 H   0  0  0  0  0  0  0  0  0  0  0  0
    2.0561   -1.9242    0.0000 H   0  0  0  0  0  0  0  0  0  0  0  0
    0.4479   -0.9957    0.0000 H   0  0  0  0  0  0  0  0  0  0  0  0
   -2.2307    1.7278    0.0000 H   0  0  0  0  0  0  0  0  0  0  0  0
   -3.0708   -0.4072    0.0000 H   0  0  0  0  0  0  0  0  0  0  0  0
    0.1248   -2.2522    0.0000 H   0  0  0  0  0  0  0  0  0  0  0  0
   -0.8018   -2.7872    0.0000 H   0  0  0  0  0  0  0  0  0  0  0  0
   -2.3563   -1.6447    0.0000 H   0  0  0  0  0  0  0  0  0  0  0  0
  1  2  1  0  0  0  0
  2  3  2  0  0  0  0
  2  4  1  0  0  0  0
  4  5  1  0  0  0  0
  4 12  2  0  0  0  0
  5  6  2  0  0  0  0
  5 30  1  0  0  0  0
  6  7  1  0  0  0  0
  6 10  1  0  0  0  0
  7  8  1  0  0  0  0
  7  9  2  0  0  0  0
 10 11  2  0  0  0  0
 10 31  1  0  0  0  0
 11 12  1  0  0  0  0
 11 32  1  0  0  0  0
 12 13  1  0  0  0  0
 14 13  1  0  0  0  0
 14 15  1  0  0  0  0
 14 16  1  0  0  0  0
 14 25  1  1  0  0  0
 15 22  1  0  0  0  0
 16 17  1  0  0  0  0
 16 18  1  0  0  0  0
 16 26  1  1  0  0  0
 18 19  1  0  0  0  0
 18 20  1  0  0  0  0
 18 28  1  1  0  0  0
 19 33  1  0  0  0  0
 20 21  1  0  0  0  0
 20 22  1  0  0  0  0
 20 29  1  6  0  0  0
 21 34  1  0  0  0  0
 22 23  1  0  0  0  0
 22 27  1  1  0  0  0
 23 24  1  0  0  0  0
 23 35  1  0  0  0  0
 23 36  1  0  0  0  0
 24 37  1  0  0  0  0
M  CHG  4   1  -1   2   1   7   1   8  -1
M  END
>  <DRUGBANK_ID>
DB08158

>  <COMMON_NAME>
2,4-DINITROPHENYL 2-DEOXY-2-FLUORO-BETA-D-MANNOPYRANOSIDE

$$$$
