
 OpenBabel10282417072D

 17 16  0  0  0  0  0  0  0  0999 V2000
   -1.7849   -0.2066    0.0000 N   0  0  0  0  0  0  0  0  0  0  0  0
   -1.0709   -0.6200    0.0000 C   0  0  0  0  0  0  0  0  0  0  0  0
   -0.3569   -0.2066    0.0000 C   0  0  3  0  0  0  0  0  0  0  0  0
    0.3569   -0.6200    0.0000 C   0  0  0  0  0  0  0  0  0  0  0  0
    1.0709   -0.2066    0.0000 C   0  0  0  0  0  0  0  0  0  0  0  0
    1.7849   -0.6200    0.0000 O   0  0  0  0  0  0  0  0  0  0  0  0
   -0.3610    0.6200    0.0000 O   0  0  0  0  0  0  0  0  0  0  0  0
    1.0668    0.6200    0.0000 O   0  0  0  0  0  0  0  0  0  0  0  0
   -1.7836    0.8134    0.0000 H   0  0  0  0  0  0  0  0  0  0  0  0
   -2.6689   -0.7155    0.0000 H   0  0  0  0  0  0  0  0  0  0  0  0
   -1.0709   -1.6900    0.0000 H   0  0  0  0  0  0  0  0  0  0  0  0
   -1.9979   -1.1544    0.0000 H   0  0  0  0  0  0  0  0  0  0  0  0
   -1.2852    0.3255    0.0000 H   0  0  0  0  0  0  0  0  0  0  0  0
    0.3568   -1.6900    0.0000 H   0  0  0  0  0  0  0  0  0  0  0  0
   -0.5701   -1.1543    0.0000 H   0  0  0  0  0  0  0  0  0  0  0  0
    1.7837   -1.5570    0.0000 H   0  0  0  0  0  0  0  0  0  0  0  0
    0.4766    1.1092    0.0000 H   0  0  0  0  0  0  0  0  0  0  0  0
  1  2  1  0  0  0  0
  1  9  1  0  0  0  0
  1 10  1  0  0  0  0
  2  3  1  0  0  0  0
  2 11  1  0  0  0  0
  2 12  1  0  0  0  0
  3  7  1  0  0  0  0
  3  4  1  0  0  0  0
  3 13  1  0  0  0  0
  4  5  1  0  0  0  0
  4 14  1  0  0  0  0
  4 15  1  0  0  0  0
  5  6  1  0  0  0  0
  5  8  2  0  0  0  0
  6 16  1  0  0  0  0
  7 17  1  0  0  0  0
M  END
>  <DRUGBANK_ID>
DB15985

>  <COMMON_NAME>
Gamma-amino-beta-hydroxybutyric acid

>  <CAS_NUMBER>
924-49-2

>  <UNII>
1ZHM019FLD

>  <SYNONYMS>
4-Amino-3-hydroxybutyric acid; Buxamine; Gamma-amino-beta-hydroxybutyric acid

$$$$
