ANS
 OpenBabel10282417072D

 30 31  0  0  0  0  0  0  0  0999 V2000
   -0.8462   -1.1602    0.0000 C   0  0  0  0  0  0  0  0  0  0  0  0
   -1.5607   -0.7477    0.0000 C   0  0  0  0  0  0  0  0  0  0  0  0
   -1.5607    0.0773    0.0000 C   0  0  0  0  0  0  0  0  0  0  0  0
   -0.8462    0.4898    0.0000 C   0  0  0  0  0  0  0  0  0  0  0  0
   -0.1317    0.0773    0.0000 C   0  0  0  0  0  0  0  0  0  0  0  0
    0.5828    0.4898    0.0000 C   0  0  0  0  0  0  0  0  0  0  0  0
    1.2972    0.0773    0.0000 C   0  0  0  0  0  0  0  0  0  0  0  0
    1.2972   -0.7477    0.0000 C   0  0  0  0  0  0  0  0  0  0  0  0
    0.5828   -1.1602    0.0000 C   0  0  0  0  0  0  0  0  0  0  0  0
   -0.1317   -0.7477    0.0000 C   0  0  0  0  0  0  0  0  0  0  0  0
    0.5828    1.3148    0.0000 N   0  0  0  0  0  0  0  0  0  0  0  0
    1.2972    1.7273    0.0000 C   0  0  0  0  0  0  0  0  0  0  0  0
   -0.1317    1.7273    0.0000 C   0  0  0  0  0  0  0  0  0  0  0  0
   -0.8462   -1.9852    0.0000 S   0  0  0  0  0  0  0  0  0  0  0  0
   -0.8462   -2.8102    0.0000 O   0  0  0  0  0  0  0  0  0  0  0  0
   -1.6712   -1.9852    0.0000 O   0  0  0  0  0  0  0  0  0  0  0  0
   -0.0212   -1.9852    0.0000 O   0  0  0  0  0  0  0  0  0  0  0  0
   -2.4544   -1.2637    0.0000 H   0  0  0  0  0  0  0  0  0  0  0  0
   -2.4544    0.5933    0.0000 H   0  0  0  0  0  0  0  0  0  0  0  0
   -0.8462    1.5218    0.0000 H   0  0  0  0  0  0  0  0  0  0  0  0
    2.1909    0.5933    0.0000 H   0  0  0  0  0  0  0  0  0  0  0  0
    2.1909   -1.2637    0.0000 H   0  0  0  0  0  0  0  0  0  0  0  0
    0.5828   -2.1922    0.0000 H   0  0  0  0  0  0  0  0  0  0  0  0
    2.2239    1.1923    0.0000 H   0  0  0  0  0  0  0  0  0  0  0  0
    1.2972    2.7973    0.0000 H   0  0  0  0  0  0  0  0  0  0  0  0
    2.2238    2.2623    0.0000 H   0  0  0  0  0  0  0  0  0  0  0  0
   -0.1317    2.7973    0.0000 H   0  0  0  0  0  0  0  0  0  0  0  0
   -1.0583    1.1923    0.0000 H   0  0  0  0  0  0  0  0  0  0  0  0
   -1.0584    2.2623    0.0000 H   0  0  0  0  0  0  0  0  0  0  0  0
    0.4638   -2.8252    0.0000 H   0  0  0  0  0  0  0  0  0  0  0  0
  1  2  2  0  0  0  0
  1 10  1  0  0  0  0
  1 14  1  0  0  0  0
  2  3  1  0  0  0  0
  2 18  1  0  0  0  0
  3  4  2  0  0  0  0
  3 19  1  0  0  0  0
  4  5  1  0  0  0  0
  4 20  1  0  0  0  0
  5  6  2  0  0  0  0
  5 10  1  0  0  0  0
  6  7  1  0  0  0  0
  6 11  1  0  0  0  0
  7  8  2  0  0  0  0
  7 21  1  0  0  0  0
  8  9  1  0  0  0  0
  8 22  1  0  0  0  0
  9 10  2  0  0  0  0
  9 23  1  0  0  0  0
 11 12  1  0  0  0  0
 11 13  1  0  0  0  0
 12 24  1  0  0  0  0
 12 25  1  0  0  0  0
 12 26  1  0  0  0  0
 13 27  1  0  0  0  0
 13 28  1  0  0  0  0
 13 29  1  0  0  0  0
 14 15  2  0  0  0  0
 14 16  2  0  0  0  0
 14 17  1  0  0  0  0
 17 30  1  0  0  0  0
M  END
>  <DRUGBANK_ID>
DB07376

>  <COMMON_NAME>
5-(DIMETHYLAMINO)-1-NAPHTHALENESULFONIC ACID(DANSYL ACID)

$$$$
