
 OpenBabel10282417072D

 58 53  0  0  0  0  0  0  0  0999 V2000
   -6.2031    0.3575    0.0000 C   0  0  0  0  0  0  0  0  0  0  0  0
   -5.3770    0.3575    0.0000 C   0  0  0  0  0  0  0  0  0  0  0  0
   -4.9654   -0.3575    0.0000 N   0  0  0  0  0  0  0  0  0  0  0  0
   -4.1422   -0.3575    0.0000 C   0  0  0  0  0  0  0  0  0  0  0  0
   -3.7306    0.3575    0.0000 C   0  0  0  0  0  0  0  0  0  0  0  0
   -2.9074    0.3575    0.0000 C   0  0  0  0  0  0  0  0  0  0  0  0
   -2.4958   -0.3575    0.0000 N   0  0  0  0  0  0  0  0  0  0  0  0
   -1.6726   -0.3575    0.0000 C   0  0  0  0  0  0  0  0  0  0  0  0
   -1.2610    0.3575    0.0000 C   0  0  0  0  0  0  0  0  0  0  0  0
   -0.4378    0.3575    0.0000 C   0  0  0  0  0  0  0  0  0  0  0  0
   -0.0261   -0.3575    0.0000 C   0  0  0  0  0  0  0  0  0  0  0  0
    0.7969   -0.3575    0.0000 N   0  0  0  0  0  0  0  0  0  0  0  0
    1.2085    0.3575    0.0000 C   0  0  0  0  0  0  0  0  0  0  0  0
    2.0318    0.3575    0.0000 C   0  0  0  0  0  0  0  0  0  0  0  0
    2.4433   -0.3575    0.0000 C   0  0  0  0  0  0  0  0  0  0  0  0
    3.2666   -0.3575    0.0000 N   0  0  0  0  0  0  0  0  0  0  0  0
    3.6782    0.3575    0.0000 C   0  0  0  0  0  0  0  0  0  0  0  0
    4.5013    0.3575    0.0000 C   0  0  0  0  0  0  0  0  0  0  0  0
    6.2031   -0.1679    0.0000 Cl  0  0  0  0  0  0  0  0  0  0  0  0
    6.2031   -0.1679    0.0000 Cl  0  0  0  0  0  0  0  0  0  0  0  0
    6.2031   -0.1679    0.0000 Cl  0  0  0  0  0  0  0  0  0  0  0  0
    6.2031   -0.1679    0.0000 Cl  0  0  0  0  0  0  0  0  0  0  0  0
   -6.7381    1.2841    0.0000 H   0  0  0  0  0  0  0  0  0  0  0  0
   -6.7381   -0.5691    0.0000 H   0  0  0  0  0  0  0  0  0  0  0  0
   -7.2731    0.3575    0.0000 H   0  0  0  0  0  0  0  0  0  0  0  0
   -4.8414    1.2838    0.0000 H   0  0  0  0  0  0  0  0  0  0  0  0
   -5.9117    1.2843    0.0000 H   0  0  0  0  0  0  0  0  0  0  0  0
   -5.4760   -1.2405    0.0000 H   0  0  0  0  0  0  0  0  0  0  0  0
   -3.6066   -1.2838    0.0000 H   0  0  0  0  0  0  0  0  0  0  0  0
   -3.0722   -0.3565    0.0000 H   0  0  0  0  0  0  0  0  0  0  0  0
   -4.2662    1.2838    0.0000 H   0  0  0  0  0  0  0  0  0  0  0  0
   -4.8006    0.3565    0.0000 H   0  0  0  0  0  0  0  0  0  0  0  0
   -2.3718    1.2838    0.0000 H   0  0  0  0  0  0  0  0  0  0  0  0
   -1.8374    0.3565    0.0000 H   0  0  0  0  0  0  0  0  0  0  0  0
   -3.0064   -1.2405    0.0000 H   0  0  0  0  0  0  0  0  0  0  0  0
   -1.1370   -1.2838    0.0000 H   0  0  0  0  0  0  0  0  0  0  0  0
   -0.6026   -0.3565    0.0000 H   0  0  0  0  0  0  0  0  0  0  0  0
   -1.7776    1.2509    0.0000 H   0  0  0  0  0  0  0  0  0  0  0  0
    0.0787    1.2509    0.0000 H   0  0  0  0  0  0  0  0  0  0  0  0
   -0.5616   -1.2838    0.0000 H   0  0  0  0  0  0  0  0  0  0  0  0
    0.5086   -1.2843    0.0000 H   0  0  0  0  0  0  0  0  0  0  0  0
    1.3075   -1.2405    0.0000 H   0  0  0  0  0  0  0  0  0  0  0  0
    0.6729    1.2838    0.0000 H   0  0  0  0  0  0  0  0  0  0  0  0
    1.7432    1.2843    0.0000 H   0  0  0  0  0  0  0  0  0  0  0  0
    2.5674    1.2838    0.0000 H   0  0  0  0  0  0  0  0  0  0  0  0
    3.1018    0.3564    0.0000 H   0  0  0  0  0  0  0  0  0  0  0  0
    1.9077   -1.2838    0.0000 H   0  0  0  0  0  0  0  0  0  0  0  0
    2.9780   -1.2843    0.0000 H   0  0  0  0  0  0  0  0  0  0  0  0
    3.7772   -1.2405    0.0000 H   0  0  0  0  0  0  0  0  0  0  0  0
    3.1426    1.2838    0.0000 H   0  0  0  0  0  0  0  0  0  0  0  0
    4.2129    1.2843    0.0000 H   0  0  0  0  0  0  0  0  0  0  0  0
    5.0363   -0.5691    0.0000 H   0  0  0  0  0  0  0  0  0  0  0  0
    5.0363    1.2841    0.0000 H   0  0  0  0  0  0  0  0  0  0  0  0
    5.5713    0.3575    0.0000 H   0  0  0  0  0  0  0  0  0  0  0  0
    7.4311   -0.1679    0.0000 H   0  0  0  0  0  0  0  0  0  0  0  0
    7.4311   -0.1679    0.0000 H   0  0  0  0  0  0  0  0  0  0  0  0
    7.4311   -0.1679    0.0000 H   0  0  0  0  0  0  0  0  0  0  0  0
    7.4311   -0.1679    0.0000 H   0  0  0  0  0  0  0  0  0  0  0  0
  1  2  1  0  0  0  0
  1 23  1  0  0  0  0
  1 24  1  0  0  0  0
  1 25  1  0  0  0  0
  2  3  1  0  0  0  0
  2 26  1  0  0  0  0
  2 27  1  0  0  0  0
  3  4  1  0  0  0  0
  3 28  1  0  0  0  0
  4  5  1  0  0  0  0
  4 29  1  0  0  0  0
  4 30  1  0  0  0  0
  5  6  1  0  0  0  0
  5 31  1  0  0  0  0
  5 32  1  0  0  0  0
  6  7  1  0  0  0  0
  6 33  1  0  0  0  0
  6 34  1  0  0  0  0
  7  8  1  0  0  0  0
  7 35  1  0  0  0  0
  8  9  1  0  0  0  0
  8 36  1  0  0  0  0
  8 37  1  0  0  0  0
  9 10  2  0  0  0  0
  9 38  1  0  0  0  0
 10 11  1  0  0  0  0
 10 39  1  0  0  0  0
 11 12  1  0  0  0  0
 11 40  1  0  0  0  0
 11 41  1  0  0  0  0
 12 13  1  0  0  0  0
 12 42  1  0  0  0  0
 13 14  1  0  0  0  0
 13 43  1  0  0  0  0
 13 44  1  0  0  0  0
 14 15  1  0  0  0  0
 14 45  1  0  0  0  0
 14 46  1  0  0  0  0
 15 16  1  0  0  0  0
 15 47  1  0  0  0  0
 15 48  1  0  0  0  0
 16 17  1  0  0  0  0
 16 49  1  0  0  0  0
 17 18  1  0  0  0  0
 17 50  1  0  0  0  0
 17 51  1  0  0  0  0
 18 52  1  0  0  0  0
 18 53  1  0  0  0  0
 18 54  1  0  0  0  0
 19 55  1  0  0  0  0
 20 56  1  0  0  0  0
 21 57  1  0  0  0  0
 22 58  1  0  0  0  0
M  END
>  <DRUGBANK_ID>
DB05722

>  <COMMON_NAME>
CGC-11047

>  <CAS_NUMBER>
206991-64-2

>  <UNII>
HU43305R7O

$$$$
