
 OpenBabel10282417072D

 52 53  0  0  0  0  0  0  0  0999 V2000
   -0.7644   -4.4455    0.0000 P   0  0  0  0  0  0  0  0  0  0  0  0
   -0.3851   -1.5722    0.0000 O   0  0  0  0  0  0  0  0  0  0  0  0
    1.7343   -1.3173    0.0000 O   0  0  0  0  0  0  0  0  0  0  0  0
    1.1797   -3.0243    0.0000 O   0  0  0  0  0  0  0  0  0  0  0  0
   -0.2795   -3.7781    0.0000 O   0  0  0  0  0  0  0  0  0  0  0  0
   -1.1697   -0.8574    0.0000 O   0  0  0  0  0  0  0  0  0  0  0  0
    1.1797    0.8495    0.0000 O   0  0  0  0  0  0  0  0  0  0  0  0
   -1.2494   -5.1129    0.0000 O   0  0  0  0  0  0  0  0  0  0  0  0
   -0.0970   -4.9304    0.0000 O   0  0  0  0  0  0  0  0  0  0  0  0
   -1.4319   -3.9605    0.0000 O   0  0  0  0  0  0  0  0  0  0  0  0
   -1.7343    3.6055    0.0000 O   0  0  0  0  0  0  0  0  0  0  0  0
    0.7271    3.8643    0.0000 O   0  0  0  0  0  0  0  0  0  0  0  0
    0.8764    2.4431    0.0000 O   0  0  0  0  0  0  0  0  0  0  0  0
   -1.0632    5.1129    0.0000 O   0  0  0  0  0  0  0  0  0  0  0  0
    0.9497   -0.6025    0.0000 N   0  0  0  0  0  0  0  0  0  0  0  0
   -0.1302    0.1821    0.0000 N   0  0  0  0  0  0  0  0  0  0  0  0
   -0.9138    3.6918    0.0000 N   0  0  0  0  0  0  0  0  0  0  0  0
    0.2822   -1.0874    0.0000 C   0  0  1  0  0  0  0  0  0  0  0  0
    0.9497   -1.5722    0.0000 C   0  0  1  0  0  0  0  0  0  0  0  0
    0.6947   -2.3569    0.0000 C   0  0  1  0  0  0  0  0  0  0  0  0
   -0.1302   -2.3569    0.0000 C   0  0  1  0  0  0  0  0  0  0  0  0
   -0.3851   -0.6025    0.0000 C   0  0  0  0  0  0  0  0  0  0  0  0
   -0.6151   -3.0243    0.0000 C   0  0  0  0  0  0  0  0  0  0  0  0
    0.6947    0.1821    0.0000 C   0  0  0  0  0  0  0  0  0  0  0  0
   -0.6151    0.8495    0.0000 C   0  0  0  0  0  0  0  0  0  0  0  0
   -0.2795    1.6033    0.0000 C   0  0  0  0  0  0  0  0  0  0  0  0
   -0.7644    2.2707    0.0000 C   0  0  0  0  0  0  0  0  0  0  0  0
   -0.4289    3.0243    0.0000 C   0  0  2  0  0  0  0  0  0  0  0  0
    0.3915    3.1105    0.0000 C   0  0  0  0  0  0  0  0  0  0  0  0
   -0.5782    4.4455    0.0000 C   0  0  0  0  0  0  0  0  0  0  0  0
    1.4362   -0.7605    0.0000 H   0  0  0  0  0  0  0  0  0  0  0  0
    2.4551   -1.9664    0.0000 H   0  0  0  0  0  0  0  0  0  0  0  0
    0.7853   -3.9105    0.0000 H   0  0  0  0  0  0  0  0  0  0  0  0
   -2.2141   -5.0114    0.0000 H   0  0  0  0  0  0  0  0  0  0  0  0
   -0.1984   -5.8951    0.0000 H   0  0  0  0  0  0  0  0  0  0  0  0
   -2.3045    4.3902    0.0000 H   0  0  0  0  0  0  0  0  0  0  0  0
    1.6590    3.9623    0.0000 H   0  0  0  0  0  0  0  0  0  0  0  0
   -0.6688    5.9991    0.0000 H   0  0  0  0  0  0  0  0  0  0  0  0
    1.1170   -0.5154    0.0000 H   0  0  0  0  0  0  0  0  0  0  0  0
    1.7515   -2.1895    0.0000 H   0  0  0  0  0  0  0  0  0  0  0  0
   -1.1870   -2.1895    0.0000 H   0  0  0  0  0  0  0  0  0  0  0  0
   -1.6792   -2.9124    0.0000 H   0  0  0  0  0  0  0  0  0  0  0  0
   -1.0503   -2.0468    0.0000 H   0  0  0  0  0  0  0  0  0  0  0  0
   -1.6792    0.7376    0.0000 H   0  0  0  0  0  0  0  0  0  0  0  0
   -1.2440    1.7151    0.0000 H   0  0  0  0  0  0  0  0  0  0  0  0
    0.7846    1.7152    0.0000 H   0  0  0  0  0  0  0  0  0  0  0  0
    0.1557    2.5808    0.0000 H   0  0  0  0  0  0  0  0  0  0  0  0
   -1.8285    2.1588    0.0000 H   0  0  0  0  0  0  0  0  0  0  0  0
   -1.3933    3.1363    0.0000 H   0  0  0  0  0  0  0  0  0  0  0  0
   -1.4930    2.9125    0.0000 H   0  0  0  0  0  0  0  0  0  0  0  0
    0.4859    4.5574    0.0000 H   0  0  0  0  0  0  0  0  0  0  0  0
    0.0507    3.5799    0.0000 H   0  0  0  0  0  0  0  0  0  0  0  0
  1  5  1  0  0  0  0
  1  8  1  0  0  0  0
  1  9  1  0  0  0  0
  1 10  2  0  0  0  0
  2 21  1  0  0  0  0
  3 32  1  0  0  0  0
  4 33  1  0  0  0  0
  5 23  1  0  0  0  0
  6 22  2  0  0  0  0
  7 24  2  0  0  0  0
  8 34  1  0  0  0  0
  9 35  1  0  0  0  0
 11 17  1  0  0  0  0
 11 36  1  0  0  0  0
 12 29  1  0  0  0  0
 12 37  1  0  0  0  0
 13 29  2  0  0  0  0
 14 30  1  0  0  0  0
 14 38  1  0  0  0  0
 15 24  1  0  0  0  0
 15 31  1  0  0  0  0
 16 22  1  0  0  0  0
 16 24  1  0  0  0  0
 16 25  1  0  0  0  0
 17 30  1  0  0  0  0
 18  2  1  1  0  0  0
 18 15  1  0  0  0  0
 18 19  1  0  0  0  0
 18 22  1  0  0  0  0
 19  3  1  0  0  0  0
 19 20  1  0  0  0  0
 19 39  1  1  0  0  0
 20  4  1  0  0  0  0
 20 21  1  0  0  0  0
 20 40  1  1  0  0  0
 21 23  1  0  0  0  0
 21 41  1  6  0  0  0
 23 42  1  0  0  0  0
 23 43  1  0  0  0  0
 25 26  1  0  0  0  0
 25 44  1  0  0  0  0
 25 45  1  0  0  0  0
 26 27  1  0  0  0  0
 26 46  1  0  0  0  0
 26 47  1  0  0  0  0
 27 28  1  0  0  0  0
 27 48  1  0  0  0  0
 27 49  1  0  0  0  0
 28 17  1  0  0  0  0
 28 29  1  0  0  0  0
 28 50  1  6  0  0  0
 30 51  1  0  0  0  0
 30 52  1  0  0  0  0
M  END
>  <DRUGBANK_ID>
DB02666

>  <SECONDARY_ACCESSION_NUMBERS>
EXPT02810

>  <COMMON_NAME>
(C8-R)-hydantocidin 5'-phosphate

$$$$
