SCX
 OpenBabel10282417072D

 45 48  0  0  0  0  0  0  0  0999 V2000
   -1.7718    1.4215    0.0000 C   0  0  0  0  0  0  0  0  0  0  0  0
   -0.9872    1.1665    0.0000 C   0  0  0  0  0  0  0  0  0  0  0  0
   -0.9872    0.3415    0.0000 N   0  0  0  0  0  0  0  0  0  0  0  0
   -1.7718    0.0866    0.0000 N   0  0  0  0  0  0  0  0  0  0  0  0
   -2.2567    0.7540    0.0000 C   0  0  0  0  0  0  0  0  0  0  0  0
   -0.2727    1.5790    0.0000 N   0  0  0  0  0  0  0  0  0  0  0  0
    0.4418    1.1665    0.0000 C   0  0  0  0  0  0  0  0  0  0  0  0
    0.4418    0.3415    0.0000 C   0  0  0  0  0  0  0  0  0  0  0  0
   -0.2727   -0.0710    0.0000 C   0  0  0  0  0  0  0  0  0  0  0  0
   -0.2727   -0.8960    0.0000 N   0  0  0  0  0  0  0  0  0  0  0  0
    1.1562    1.5790    0.0000 C   0  0  0  0  0  0  0  0  0  0  0  0
    0.4418   -1.3085    0.0000 C   0  0  0  0  0  0  0  0  0  0  0  0
    0.4418   -2.1335    0.0000 C   0  0  0  0  0  0  0  0  0  0  0  0
    1.1562   -2.5460    0.0000 C   0  0  0  0  0  0  0  0  0  0  0  0
    1.1562   -3.3710    0.0000 N   0  0  0  0  0  0  0  0  0  0  0  0
    0.4418   -3.7835    0.0000 C   0  0  0  0  0  0  0  0  0  0  0  0
   -0.2727   -3.3710    0.0000 N   0  0  0  0  0  0  0  0  0  0  0  0
   -0.2727   -2.5460    0.0000 C   0  0  0  0  0  0  0  0  0  0  0  0
    1.1562    2.4040    0.0000 C   0  0  0  0  0  0  0  0  0  0  0  0
    1.8707    2.8165    0.0000 C   0  0  0  0  0  0  0  0  0  0  0  0
    2.5852    2.4040    0.0000 C   0  0  0  0  0  0  0  0  0  0  0  0
    2.5852    1.5790    0.0000 C   0  0  0  0  0  0  0  0  0  0  0  0
    1.8707    1.1665    0.0000 C   0  0  0  0  0  0  0  0  0  0  0  0
   -2.0267    2.2061    0.0000 C   0  0  0  0  0  0  0  0  0  0  0  0
    0.4418   -4.6085    0.0000 N   0  0  0  0  0  0  0  0  0  0  0  0
   -2.8337    2.3776    0.0000 C   0  0  0  0  0  0  0  0  0  0  0  0
    0.4418    2.8165    0.0000 F   0  0  0  0  0  0  0  0  0  0  0  0
    1.8707    0.3415    0.0000 F   0  0  0  0  0  0  0  0  0  0  0  0
   -3.2887    0.7540    0.0000 H   0  0  0  0  0  0  0  0  0  0  0  0
    1.3355   -0.1745    0.0000 H   0  0  0  0  0  0  0  0  0  0  0  0
   -1.1253   -1.3883    0.0000 H   0  0  0  0  0  0  0  0  0  0  0  0
    1.3684   -0.7735    0.0000 H   0  0  0  0  0  0  0  0  0  0  0  0
    1.3684   -1.8435    0.0000 H   0  0  0  0  0  0  0  0  0  0  0  0
    2.0499   -2.0300    0.0000 H   0  0  0  0  0  0  0  0  0  0  0  0
   -1.1664   -2.0300    0.0000 H   0  0  0  0  0  0  0  0  0  0  0  0
    1.8707    3.8485    0.0000 H   0  0  0  0  0  0  0  0  0  0  0  0
    3.4789    2.9200    0.0000 H   0  0  0  0  0  0  0  0  0  0  0  0
    3.4789    1.0630    0.0000 H   0  0  0  0  0  0  0  0  0  0  0  0
   -1.3107    3.0013    0.0000 H   0  0  0  0  0  0  0  0  0  0  0  0
   -2.3574    3.2237    0.0000 H   0  0  0  0  0  0  0  0  0  0  0  0
   -0.4108   -5.1008    0.0000 H   0  0  0  0  0  0  0  0  0  0  0  0
    1.2944   -5.1008    0.0000 H   0  0  0  0  0  0  0  0  0  0  0  0
   -3.1644    3.3952    0.0000 H   0  0  0  0  0  0  0  0  0  0  0  0
   -3.5496    1.5824    0.0000 H   0  0  0  0  0  0  0  0  0  0  0  0
   -3.8803    2.6000    0.0000 H   0  0  0  0  0  0  0  0  0  0  0  0
  1  2  2  0  0  0  0
  1 24  1  0  0  0  0
  2  6  1  0  0  0  0
  3  9  1  0  0  0  0
  3  2  1  0  0  0  0
  4  5  2  0  0  0  0
  4  3  1  0  0  0  0
  5  1  1  0  0  0  0
  5 29  1  0  0  0  0
  6  7  2  0  0  0  0
  7 11  1  0  0  0  0
  8  7  1  0  0  0  0
  8 30  1  0  0  0  0
  9  8  2  0  0  0  0
 10 12  1  0  0  0  0
 10  9  1  0  0  0  0
 10 31  1  0  0  0  0
 11 19  1  0  0  0  0
 12 32  1  0  0  0  0
 12 33  1  0  0  0  0
 13 14  1  0  0  0  0
 13 12  1  0  0  0  0
 14 34  1  0  0  0  0
 15 14  2  0  0  0  0
 16 15  1  0  0  0  0
 17 16  2  0  0  0  0
 17 18  1  0  0  0  0
 18 13  2  0  0  0  0
 18 35  1  0  0  0  0
 19 27  1  0  0  0  0
 19 20  2  0  0  0  0
 20 36  1  0  0  0  0
 21 20  1  0  0  0  0
 21 37  1  0  0  0  0
 22 21  2  0  0  0  0
 22 38  1  0  0  0  0
 23 11  2  0  0  0  0
 23 22  1  0  0  0  0
 24 39  1  0  0  0  0
 24 40  1  0  0  0  0
 25 16  1  0  0  0  0
 25 41  1  0  0  0  0
 25 42  1  0  0  0  0
 26 24  1  0  0  0  0
 26 43  1  0  0  0  0
 26 44  1  0  0  0  0
 26 45  1  0  0  0  0
 28 23  1  0  0  0  0
M  END
>  <DRUGBANK_ID>
DB08538

>  <COMMON_NAME>
N-((2-aminopyrimidin-5-yl)methyl)-5-(2,6-difluorophenyl)-3-ethylpyrazolo[1,5-a]pyrimidin-7-amine

$$$$
