
 OpenBabel10282417072D

 20 19  0  0  0  0  0  0  0  0999 V2000
    0.0040    0.2353    0.0000 C   0  0  2  0  0  0  0  0  0  0  0  0
   -0.6873   -0.2311    0.0000 C   0  0  2  0  0  0  0  0  0  0  0  0
    0.6914   -0.2478    0.0000 C   0  0  1  0  0  0  0  0  0  0  0  0
   -2.0246   -0.2227    0.0000 O   0  0  0  0  0  0  0  0  0  0  0  0
   -1.3414    0.2478    0.0000 C   0  0  0  0  0  0  0  0  0  0  0  0
    0.0083    1.0560    0.0000 O   0  0  0  0  0  0  0  0  0  0  0  0
   -0.6998   -1.0561    0.0000 O   0  0  0  0  0  0  0  0  0  0  0  0
    0.6956   -1.0727    0.0000 O   0  0  0  0  0  0  0  0  0  0  0  0
    2.0246   -0.2478    0.0000 O   0  0  0  0  0  0  0  0  0  0  0  0
    1.3414    0.2227    0.0000 C   0  0  0  0  0  0  0  0  0  0  0  0
   -1.3295    1.0727    0.0000 H   0  0  0  0  0  0  0  0  0  0  0  0
   -0.9395    0.7401    0.0000 H   0  0  0  0  0  0  0  0  0  0  0  0
    0.2537   -0.7405    0.0000 H   0  0  0  0  0  0  0  0  0  0  0  0
   -0.2569   -0.7435    0.0000 H   0  0  0  0  0  0  0  0  0  0  0  0
    0.8509    1.5366    0.0000 H   0  0  0  0  0  0  0  0  0  0  0  0
   -1.5471   -1.5283    0.0000 H   0  0  0  0  0  0  0  0  0  0  0  0
   -0.1420   -1.5620    0.0000 H   0  0  0  0  0  0  0  0  0  0  0  0
    1.9476   -1.2147    0.0000 H   0  0  0  0  0  0  0  0  0  0  0  0
    1.3288    1.2926    0.0000 H   0  0  0  0  0  0  0  0  0  0  0  0
    0.3856    0.7037    0.0000 H   0  0  0  0  0  0  0  0  0  0  0  0
  1  6  1  0  0  0  0
  1 12  1  6  0  0  0
  2  1  1  0  0  0  0
  2  7  1  0  0  0  0
  2 13  1  6  0  0  0
  3  1  1  0  0  0  0
  3  8  1  0  0  0  0
  3 14  1  1  0  0  0
  4  5  2  0  0  0  0
  5  2  1  0  0  0  0
  5 11  1  0  0  0  0
  6 15  1  0  0  0  0
  7 16  1  0  0  0  0
  8 17  1  0  0  0  0
  9 10  1  0  0  0  0
  9 18  1  0  0  0  0
 10  3  1  0  0  0  0
 10 19  1  0  0  0  0
 10 20  1  0  0  0  0
M  END
>  <DRUGBANK_ID>
DB16873

>  <COMMON_NAME>
L-Arabinose

>  <CAS_NUMBER>
5328-37-0

>  <UNII>
B40ROO395Z

>  <SYNONYMS>
Arabinose, L-; Pectinose

$$$$
