
 OpenBabel10282417072D

 92 92  0  0  0  0  0  0  0  0999 V2000
   -4.6467    1.0296    0.0000 C   0  0  0  0  0  0  0  0  0  0  0  0
   -3.9317    1.4414    0.0000 C   0  0  0  0  0  0  0  0  0  0  0  0
   -3.2169    1.0296    0.0000 C   0  0  0  0  0  0  0  0  0  0  0  0
   -2.5020    1.4414    0.0000 C   0  0  0  0  0  0  0  0  0  0  0  0
   -1.7872    1.0296    0.0000 C   0  0  0  0  0  0  0  0  0  0  0  0
   -1.0724    1.4413    0.0000 C   0  0  0  0  0  0  0  0  0  0  0  0
   -0.3574    1.0295    0.0000 C   0  0  0  0  0  0  0  0  0  0  0  0
    0.3572    1.4413    0.0000 C   0  0  0  0  0  0  0  0  0  0  0  0
    1.0675    1.0295    0.0000 C   0  0  0  0  0  0  0  0  0  0  0  0
    1.7823    1.4413    0.0000 C   0  0  0  0  0  0  0  0  0  0  0  0
    2.4971    1.0295    0.0000 C   0  0  0  0  0  0  0  0  0  0  0  0
    3.2120    1.4413    0.0000 C   0  0  0  0  0  0  0  0  0  0  0  0
    3.9269    1.0295    0.0000 C   0  0  0  0  0  0  0  0  0  0  0  0
    4.6418    1.4413    0.0000 C   0  0  0  0  0  0  0  0  0  0  0  0
    5.3519    1.0295    0.0000 C   0  0  0  0  0  0  0  0  0  0  0  0
    6.0668    1.4413    0.0000 C   0  0  0  0  0  0  0  0  0  0  0  0
   -5.3568    1.4414    0.0000 N   0  3  0  0  0  0  0  0  0  0  0  0
   -6.0668    1.0296    0.0000 C   0  0  0  0  0  0  0  0  0  0  0  0
   -5.3568    2.2699    0.0000 C   0  0  0  0  0  0  0  0  0  0  0  0
   -6.0668    1.8534    0.0000 C   0  0  0  0  0  0  0  0  0  0  0  0
    0.3572   -0.6178    0.0000 C   0  0  0  0  0  0  0  0  0  0  0  0
    1.0675   -1.0298    0.0000 C   0  0  0  0  0  0  0  0  0  0  0  0
    1.0675   -1.8581    0.0000 C   0  0  0  0  0  0  0  0  0  0  0  0
    0.3572   -2.2699    0.0000 C   0  0  0  0  0  0  0  0  0  0  0  0
   -0.3574   -1.8581    0.0000 C   0  0  0  0  0  0  0  0  0  0  0  0
   -1.0724   -2.2699    0.0000 C   0  0  0  0  0  0  0  0  0  0  0  0
   -1.7872   -1.8581    0.0000 C   0  0  0  0  0  0  0  0  0  0  0  0
   -1.7872   -1.0298    0.0000 C   0  0  0  0  0  0  0  0  0  0  0  0
   -1.0724   -0.6178    0.0000 C   0  0  0  0  0  0  0  0  0  0  0  0
   -0.3574   -1.0298    0.0000 C   0  0  0  0  0  0  0  0  0  0  0  0
   -2.5020   -2.2699    0.0000 O   0  0  0  0  0  0  0  0  0  0  0  0
   -3.2169   -1.8581    0.0000 C   0  0  0  0  0  0  0  0  0  0  0  0
    1.7823   -0.6178    0.0000 C   0  0  1  0  0  0  0  0  0  0  0  0
    2.4971   -1.0298    0.0000 C   0  0  0  0  0  0  0  0  0  0  0  0
    2.4971   -1.8581    0.0000 O   0  0  0  0  0  0  0  0  0  0  0  0
    3.2120   -0.6178    0.0000 O   0  5  0  0  0  0  0  0  0  0  0  0
    1.7823    0.2058    0.0000 C   0  0  0  0  0  0  0  0  0  0  0  0
   -4.6483   -0.0404    0.0000 H   0  0  0  0  0  0  0  0  0  0  0  0
   -3.7207    0.4934    0.0000 H   0  0  0  0  0  0  0  0  0  0  0  0
   -3.9316    2.5114    0.0000 H   0  0  0  0  0  0  0  0  0  0  0  0
   -3.0053    1.9768    0.0000 H   0  0  0  0  0  0  0  0  0  0  0  0
   -3.2169   -0.0404    0.0000 H   0  0  0  0  0  0  0  0  0  0  0  0
   -2.2905    0.4941    0.0000 H   0  0  0  0  0  0  0  0  0  0  0  0
   -2.5020    2.5114    0.0000 H   0  0  0  0  0  0  0  0  0  0  0  0
   -1.5756    1.9768    0.0000 H   0  0  0  0  0  0  0  0  0  0  0  0
   -1.7873   -0.0404    0.0000 H   0  0  0  0  0  0  0  0  0  0  0  0
   -0.8608    0.4941    0.0000 H   0  0  0  0  0  0  0  0  0  0  0  0
   -1.0724    2.5113    0.0000 H   0  0  0  0  0  0  0  0  0  0  0  0
   -0.1460    1.9768    0.0000 H   0  0  0  0  0  0  0  0  0  0  0  0
   -0.3573   -0.0405    0.0000 H   0  0  0  0  0  0  0  0  0  0  0  0
    0.5691    0.4942    0.0000 H   0  0  0  0  0  0  0  0  0  0  0  0
    0.3586    2.5113    0.0000 H   0  0  0  0  0  0  0  0  0  0  0  0
    1.2847    1.9749    0.0000 H   0  0  0  0  0  0  0  0  0  0  0  0
    1.0660   -0.0405    0.0000 H   0  0  0  0  0  0  0  0  0  0  0  0
    1.9935    0.4934    0.0000 H   0  0  0  0  0  0  0  0  0  0  0  0
    1.7823    2.5113    0.0000 H   0  0  0  0  0  0  0  0  0  0  0  0
    2.7087    1.9767    0.0000 H   0  0  0  0  0  0  0  0  0  0  0  0
    2.4971   -0.0405    0.0000 H   0  0  0  0  0  0  0  0  0  0  0  0
    3.4235    0.4940    0.0000 H   0  0  0  0  0  0  0  0  0  0  0  0
    3.2120    2.5113    0.0000 H   0  0  0  0  0  0  0  0  0  0  0  0
    4.1384    1.9768    0.0000 H   0  0  0  0  0  0  0  0  0  0  0  0
    3.9269   -0.0405    0.0000 H   0  0  0  0  0  0  0  0  0  0  0  0
    4.8533    0.4940    0.0000 H   0  0  0  0  0  0  0  0  0  0  0  0
    4.6434    2.5113    0.0000 H   0  0  0  0  0  0  0  0  0  0  0  0
    5.5694    1.9747    0.0000 H   0  0  0  0  0  0  0  0  0  0  0  0
    5.3503   -0.0405    0.0000 H   0  0  0  0  0  0  0  0  0  0  0  0
    6.2779    0.4934    0.0000 H   0  0  0  0  0  0  0  0  0  0  0  0
    6.9929    0.9054    0.0000 H   0  0  0  0  0  0  0  0  0  0  0  0
    6.0679    2.5113    0.0000 H   0  0  0  0  0  0  0  0  0  0  0  0
    6.9940    1.9754    0.0000 H   0  0  0  0  0  0  0  0  0  0  0  0
   -6.9945    1.5628    0.0000 H   0  0  0  0  0  0  0  0  0  0  0  0
   -6.0647   -0.0404    0.0000 H   0  0  0  0  0  0  0  0  0  0  0  0
   -6.9924    0.4928    0.0000 H   0  0  0  0  0  0  0  0  0  0  0  0
   -4.4302    2.8049    0.0000 H   0  0  0  0  0  0  0  0  0  0  0  0
   -6.2834    2.8049    0.0000 H   0  0  0  0  0  0  0  0  0  0  0  0
   -5.3568    3.3399    0.0000 H   0  0  0  0  0  0  0  0  0  0  0  0
   -6.0645    2.9234    0.0000 H   0  0  0  0  0  0  0  0  0  0  0  0
   -6.9946    1.3204    0.0000 H   0  0  0  0  0  0  0  0  0  0  0  0
   -6.9923    2.3904    0.0000 H   0  0  0  0  0  0  0  0  0  0  0  0
    0.3585    0.4142    0.0000 H   0  0  0  0  0  0  0  0  0  0  0  0
    1.9617   -2.3733    0.0000 H   0  0  0  0  0  0  0  0  0  0  0  0
    0.3585   -3.3019    0.0000 H   0  0  0  0  0  0  0  0  0  0  0  0
   -1.0725   -3.3019    0.0000 H   0  0  0  0  0  0  0  0  0  0  0  0
   -2.6808   -0.5135    0.0000 H   0  0  0  0  0  0  0  0  0  0  0  0
   -1.0725    0.4142    0.0000 H   0  0  0  0  0  0  0  0  0  0  0  0
   -3.2180   -0.7881    0.0000 H   0  0  0  0  0  0  0  0  0  0  0  0
   -4.1430   -2.3940    0.0000 H   0  0  0  0  0  0  0  0  0  0  0  0
   -4.1441   -1.3240    0.0000 H   0  0  0  0  0  0  0  0  0  0  0  0
    0.8558   -0.0825    0.0000 H   0  0  0  0  0  0  0  0  0  0  0  0
    2.7089    0.7408    0.0000 H   0  0  0  0  0  0  0  0  0  0  0  0
    0.8557    0.7408    0.0000 H   0  0  0  0  0  0  0  0  0  0  0  0
    1.7823    1.2758    0.0000 H   0  0  0  0  0  0  0  0  0  0  0  0
  1 17  1  0  0  0  0
  1  2  1  0  0  0  0
  1 38  1  0  0  0  0
  1 39  1  0  0  0  0
  2  3  1  0  0  0  0
  2 40  1  0  0  0  0
  2 41  1  0  0  0  0
  3  4  1  0  0  0  0
  3 42  1  0  0  0  0
  3 43  1  0  0  0  0
  4  5  1  0  0  0  0
  4 44  1  0  0  0  0
  4 45  1  0  0  0  0
  5  6  1  0  0  0  0
  5 46  1  0  0  0  0
  5 47  1  0  0  0  0
  6  7  1  0  0  0  0
  6 48  1  0  0  0  0
  6 49  1  0  0  0  0
  7  8  1  0  0  0  0
  7 50  1  0  0  0  0
  7 51  1  0  0  0  0
  8  9  1  0  0  0  0
  8 52  1  0  0  0  0
  8 53  1  0  0  0  0
  9 10  1  0  0  0  0
  9 54  1  0  0  0  0
  9 55  1  0  0  0  0
 10 11  1  0  0  0  0
 10 56  1  0  0  0  0
 10 57  1  0  0  0  0
 11 12  1  0  0  0  0
 11 58  1  0  0  0  0
 11 59  1  0  0  0  0
 12 13  1  0  0  0  0
 12 60  1  0  0  0  0
 12 61  1  0  0  0  0
 13 14  1  0  0  0  0
 13 62  1  0  0  0  0
 13 63  1  0  0  0  0
 14 15  1  0  0  0  0
 14 64  1  0  0  0  0
 14 65  1  0  0  0  0
 15 16  1  0  0  0  0
 15 66  1  0  0  0  0
 15 67  1  0  0  0  0
 16 68  1  0  0  0  0
 16 69  1  0  0  0  0
 16 70  1  0  0  0  0
 17 18  1  0  0  0  0
 17 19  1  0  0  0  0
 17 20  1  0  0  0  0
 18 71  1  0  0  0  0
 18 72  1  0  0  0  0
 18 73  1  0  0  0  0
 19 74  1  0  0  0  0
 19 75  1  0  0  0  0
 19 76  1  0  0  0  0
 20 77  1  0  0  0  0
 20 78  1  0  0  0  0
 20 79  1  0  0  0  0
 21 22  1  0  0  0  0
 21 30  2  0  0  0  0
 21 80  1  0  0  0  0
 22 23  2  0  0  0  0
 22 33  1  0  0  0  0
 23 24  1  0  0  0  0
 23 81  1  0  0  0  0
 24 25  2  0  0  0  0
 24 82  1  0  0  0  0
 25 26  1  0  0  0  0
 25 30  1  0  0  0  0
 26 27  2  0  0  0  0
 26 83  1  0  0  0  0
 27 28  1  0  0  0  0
 27 31  1  0  0  0  0
 28 29  2  0  0  0  0
 28 84  1  0  0  0  0
 29 30  1  0  0  0  0
 29 85  1  0  0  0  0
 31 32  1  0  0  0  0
 32 86  1  0  0  0  0
 32 87  1  0  0  0  0
 32 88  1  0  0  0  0
 33 37  1  0  0  0  0
 33 89  1  1  0  0  0
 34 33  1  0  0  0  0
 34 35  2  0  0  0  0
 34 36  1  0  0  0  0
 37 90  1  0  0  0  0
 37 91  1  0  0  0  0
 37 92  1  0  0  0  0
M  CHG  2  17   1  36  -1
M  END
>  <DRUGBANK_ID>
DB15877

>  <COMMON_NAME>
Cetyltrimethylammonium naproxenate

>  <CAS_NUMBER>
102580-74-5

>  <UNII>
5333CM4X3G

>  <SYNONYMS>
Cetyl trimethylammonium naproxenate; Cetyltrimethylammonium naproxenate

$$$$
