
 OpenBabel10282417072D

 17 16  0  0  0  0  0  0  0  0999 V2000
    1.7605   -1.8414    0.0000 O   0  0  0  0  0  0  0  0  0  0  0  0
    2.4750   -1.4289    0.0000 C   0  0  0  0  0  0  0  0  0  0  0  0
    3.1895   -1.8414    0.0000 C   0  0  0  0  0  0  0  0  0  0  0  0
    3.1895   -2.6664    0.0000 O   0  0  0  0  0  0  0  0  0  0  0  0
    3.9039   -1.4289    0.0000 C   0  0  0  0  0  0  0  0  0  0  0  0
    4.6184   -1.8414    0.0000 O   0  0  0  0  0  0  0  0  0  0  0  0
    5.3329   -1.4289    0.0000 P   0  0  0  0  0  0  0  0  0  0  0  0
    6.0474   -1.0164    0.0000 O   0  0  0  0  0  0  0  0  0  0  0  0
    5.7454   -2.1434    0.0000 O   0  0  0  0  0  0  0  0  0  0  0  0
    4.9204   -0.7145    0.0000 O   0  0  0  0  0  0  0  0  0  0  0  0
    0.9205   -1.3564    0.0000 H   0  0  0  0  0  0  0  0  0  0  0  0
    2.4750   -0.3589    0.0000 H   0  0  0  0  0  0  0  0  0  0  0  0
    3.4016   -0.8939    0.0000 H   0  0  0  0  0  0  0  0  0  0  0  0
    3.9039   -0.3589    0.0000 H   0  0  0  0  0  0  0  0  0  0  0  0
    4.8305   -0.8939    0.0000 H   0  0  0  0  0  0  0  0  0  0  0  0
    6.8874   -1.5014    0.0000 H   0  0  0  0  0  0  0  0  0  0  0  0
    5.2604   -2.9834    0.0000 H   0  0  0  0  0  0  0  0  0  0  0  0
  1  2  1  0  0  0  0
  1 11  1  0  0  0  0
  2  3  1  0  0  0  0
  2 12  1  0  0  0  0
  2 13  1  0  0  0  0
  3  4  2  0  0  0  0
  3  5  1  0  0  0  0
  5  6  1  0  0  0  0
  5 14  1  0  0  0  0
  5 15  1  0  0  0  0
  6  7  1  0  0  0  0
  7  8  1  0  0  0  0
  7  9  1  0  0  0  0
  7 10  2  0  0  0  0
  8 16  1  0  0  0  0
  9 17  1  0  0  0  0
M  END
>  <DRUGBANK_ID>
DB04326

>  <SECONDARY_ACCESSION_NUMBERS>
EXPT00026; DB12496

>  <COMMON_NAME>
Dihydroxyacetone phosphate

>  <CAS_NUMBER>
57-04-5

>  <UNII>
T7KF2T6W95

>  <SYNONYMS>
1-hydroxy-3-(phosphonooxy)-2-Propanone; 1-Hydroxy-3-(phosphonooxy)acetone; 1,3-Dihydroxy-2-propanone monodihydrogen phosphate; 1,3-Dihydroxy-2-propanone phosphate; 1,3-Dihydroxyacetone 1-phosphate; 3-hydroxy-2-oxopropyl phosphate; DHAP; Dihydroxyacetone monophosphate; Glycerone monophosphate; Glycerone phosphate

$$$$
