
 OpenBabel10282417072D

 54 57  0  0  0  0  0  0  0  0999 V2000
    3.9934    3.3000    0.0000 C   0  0  0  0  0  0  0  0  0  0  0  0
    3.9934    2.4750    0.0000 C   0  0  0  0  0  0  0  0  0  0  0  0
    3.2789    2.0625    0.0000 C   0  0  0  0  0  0  0  0  0  0  0  0
    2.5645    2.4750    0.0000 C   0  0  0  0  0  0  0  0  0  0  0  0
    1.8500    2.0625    0.0000 C   0  0  0  0  0  0  0  0  0  0  0  0
    3.2789    1.2375    0.0000 C   0  0  0  0  0  0  0  0  0  0  0  0
    3.9934    0.8250    0.0000 C   0  0  0  0  0  0  0  0  0  0  0  0
    3.9934    0.0000    0.0000 C   0  0  0  0  0  0  0  0  0  0  0  0
    4.7079   -0.4125    0.0000 C   0  0  0  0  0  0  0  0  0  0  0  0
    3.2789   -0.4125    0.0000 N   0  0  0  0  0  0  0  0  0  0  0  0
    2.5645    0.0000    0.0000 C   0  0  0  0  0  0  0  0  0  0  0  0
    1.7798   -0.2549    0.0000 C   0  0  0  0  0  0  0  0  0  0  0  0
    1.2949    0.4125    0.0000 C   0  0  0  0  0  0  0  0  0  0  0  0
    0.4699    0.4125    0.0000 C   0  0  0  0  0  0  0  0  0  0  0  0
    1.7798    1.0799    0.0000 N   0  0  0  0  0  0  0  0  0  0  0  0
    2.5645    0.8250    0.0000 N   0  0  0  0  0  0  0  0  0  0  0  0
    1.5249   -1.0396    0.0000 C   0  0  0  0  0  0  0  0  0  0  0  0
    2.0098   -1.7070    0.0000 N   0  0  0  0  0  0  0  0  0  0  0  0
    1.5249   -2.3744    0.0000 C   0  0  0  0  0  0  0  0  0  0  0  0
    0.7403   -2.1195    0.0000 S   0  0  0  0  0  0  0  0  0  0  0  0
    0.7403   -1.2945    0.0000 C   0  0  0  0  0  0  0  0  0  0  0  0
    0.0728   -0.8096    0.0000 Cl  0  0  0  0  0  0  0  0  0  0  0  0
    1.7798   -3.1591    0.0000 N   0  0  0  0  0  0  0  0  0  0  0  0
    2.5868   -3.3306    0.0000 C   0  0  0  0  0  0  0  0  0  0  0  0
    2.8417   -4.1152    0.0000 C   0  0  0  0  0  0  0  0  0  0  0  0
    2.2897   -4.7283    0.0000 O   0  0  0  0  0  0  0  0  0  0  0  0
    1.4827   -4.5568    0.0000 C   0  0  0  0  0  0  0  0  0  0  0  0
    1.2278   -3.7722    0.0000 C   0  0  0  0  0  0  0  0  0  0  0  0
    4.9200    3.8350    0.0000 H   0  0  0  0  0  0  0  0  0  0  0  0
    3.0668    3.8350    0.0000 H   0  0  0  0  0  0  0  0  0  0  0  0
    3.9934    4.3700    0.0000 H   0  0  0  0  0  0  0  0  0  0  0  0
    4.9200    1.9400    0.0000 H   0  0  0  0  0  0  0  0  0  0  0  0
    3.9934    1.4050    0.0000 H   0  0  0  0  0  0  0  0  0  0  0  0
    2.3522    1.5275    0.0000 H   0  0  0  0  0  0  0  0  0  0  0  0
    2.5645    3.5450    0.0000 H   0  0  0  0  0  0  0  0  0  0  0  0
    1.6379    3.0100    0.0000 H   0  0  0  0  0  0  0  0  0  0  0  0
    0.9234    2.5975    0.0000 H   0  0  0  0  0  0  0  0  0  0  0  0
    1.8500    0.9925    0.0000 H   0  0  0  0  0  0  0  0  0  0  0  0
    0.9233    1.5275    0.0000 H   0  0  0  0  0  0  0  0  0  0  0  0
    4.8871    1.3410    0.0000 H   0  0  0  0  0  0  0  0  0  0  0  0
    4.7079   -1.4825    0.0000 H   0  0  0  0  0  0  0  0  0  0  0  0
    5.6345    0.1225    0.0000 H   0  0  0  0  0  0  0  0  0  0  0  0
    5.6346   -0.9475    0.0000 H   0  0  0  0  0  0  0  0  0  0  0  0
   -0.0651    1.3391    0.0000 H   0  0  0  0  0  0  0  0  0  0  0  0
   -0.0651   -0.5141    0.0000 H   0  0  0  0  0  0  0  0  0  0  0  0
   -0.6001    0.4125    0.0000 H   0  0  0  0  0  0  0  0  0  0  0  0
    3.3028   -2.5354    0.0000 H   0  0  0  0  0  0  0  0  0  0  0  0
    3.6334   -3.5531    0.0000 H   0  0  0  0  0  0  0  0  0  0  0  0
    3.8883   -4.3377    0.0000 H   0  0  0  0  0  0  0  0  0  0  0  0
    3.1724   -5.1328    0.0000 H   0  0  0  0  0  0  0  0  0  0  0  0
    0.7667   -5.3520    0.0000 H   0  0  0  0  0  0  0  0  0  0  0  0
    0.4361   -4.3343    0.0000 H   0  0  0  0  0  0  0  0  0  0  0  0
    0.1812   -3.5497    0.0000 H   0  0  0  0  0  0  0  0  0  0  0  0
    0.8971   -2.7546    0.0000 H   0  0  0  0  0  0  0  0  0  0  0  0
  1  2  1  0  0  0  0
  1 29  1  0  0  0  0
  1 30  1  0  0  0  0
  1 31  1  0  0  0  0
  2  3  1  0  0  0  0
  2 32  1  0  0  0  0
  2 33  1  0  0  0  0
  3  4  1  0  0  0  0
  3  6  1  0  0  0  0
  3 34  1  0  0  0  0
  4  5  1  0  0  0  0
  4 35  1  0  0  0  0
  4 36  1  0  0  0  0
  5 37  1  0  0  0  0
  5 38  1  0  0  0  0
  5 39  1  0  0  0  0
  6  7  2  0  0  0  0
  6 16  1  0  0  0  0
  7  8  1  0  0  0  0
  7 40  1  0  0  0  0
  8  9  1  0  0  0  0
  8 10  2  0  0  0  0
  9 41  1  0  0  0  0
  9 42  1  0  0  0  0
  9 43  1  0  0  0  0
 10 11  1  0  0  0  0
 11 12  2  0  0  0  0
 11 16  1  0  0  0  0
 12 13  1  0  0  0  0
 12 17  1  0  0  0  0
 13 14  1  0  0  0  0
 13 15  2  0  0  0  0
 14 44  1  0  0  0  0
 14 45  1  0  0  0  0
 14 46  1  0  0  0  0
 15 16  1  0  0  0  0
 17 18  1  0  0  0  0
 17 21  2  0  0  0  0
 18 19  2  0  0  0  0
 19 20  1  0  0  0  0
 19 23  1  0  0  0  0
 20 21  1  0  0  0  0
 21 22  1  0  0  0  0
 23 24  1  0  0  0  0
 23 28  1  0  0  0  0
 24 25  1  0  0  0  0
 24 47  1  0  0  0  0
 24 48  1  0  0  0  0
 25 26  1  0  0  0  0
 25 49  1  0  0  0  0
 25 50  1  0  0  0  0
 26 27  1  0  0  0  0
 27 28  1  0  0  0  0
 27 51  1  0  0  0  0
 27 52  1  0  0  0  0
 28 53  1  0  0  0  0
 28 54  1  0  0  0  0
M  END
>  <DRUGBANK_ID>
DB18545

>  <COMMON_NAME>
Tildacerfont

>  <CAS_NUMBER>
1014983-00-6

>  <UNII>
09QCEV5481

>  <SYNONYMS>
3-(5-chloro-2-morpholin-4-yl-thiazol-4-yl)-7-(1-ethyl-propyl)-2,5-dimethyl-pyrazolo(1,5-a)pyrimidine; Pyrazolo(1,5-a)pyrimidine, 3-(4-chloro-2-(4-morpholinyl)-5-thiazolyl)-7-(1-ethylpropyl)-2,5-dimethyl-; Pyrazolo(1,5-a)pyrimidine, 3-(4-chloro-2-(4-morpholinyl)-5-thiazolyl)-7-(1-ethylpropyl)-2,5-dimethyl-pyrazolo(1,3-a)pyrimidine

$$$$
