
 OpenBabel10282417072D

 23 20  0  0  0  0  0  0  0  0999 V2000
   -0.2712    2.2015    0.0000 Mg  0  2  0  0  0  0  0  0  0  0  0  0
    0.3846    1.0575    0.0000 O   0  0  0  0  0  0  0  0  0  0  0  0
    0.3846    0.2900    0.0000 C   0  0  3  0  0  0  0  0  0  0  0  0
    1.0007   -0.2587    0.0000 C   0  0  0  0  0  0  0  0  0  0  0  0
    0.7916   -1.0575    0.0000 O   0  5  0  0  0  0  0  0  0  0  0  0
    1.7872    0.0002    0.0000 O   0  0  0  0  0  0  0  0  0  0  0  0
   -0.2790   -0.0959    0.0000 C   0  0  0  0  0  0  0  0  0  0  0  0
    1.9837    3.1134    0.0000 O   0  0  0  0  0  0  0  0  0  0  0  0
    1.9837    2.3459    0.0000 C   0  0  3  0  0  0  0  0  0  0  0  0
    2.5997    1.7971    0.0000 C   0  0  0  0  0  0  0  0  0  0  0  0
    2.3907    0.9983    0.0000 O   0  5  0  0  0  0  0  0  0  0  0  0
    3.3862    2.0561    0.0000 O   0  0  0  0  0  0  0  0  0  0  0  0
    1.3199    1.9599    0.0000 C   0  0  0  0  0  0  0  0  0  0  0  0
    1.2246    1.5425    0.0000 H   0  0  0  0  0  0  0  0  0  0  0  0
    1.3609    0.7279    0.0000 H   0  0  0  0  0  0  0  0  0  0  0  0
   -1.2073    0.4362    0.0000 H   0  0  0  0  0  0  0  0  0  0  0  0
   -0.2757   -1.1659    0.0000 H   0  0  0  0  0  0  0  0  0  0  0  0
   -1.2040   -0.6338    0.0000 H   0  0  0  0  0  0  0  0  0  0  0  0
    2.8237    3.5984    0.0000 H   0  0  0  0  0  0  0  0  0  0  0  0
    2.9600    2.7837    0.0000 H   0  0  0  0  0  0  0  0  0  0  0  0
    0.3916    2.4920    0.0000 H   0  0  0  0  0  0  0  0  0  0  0  0
    1.3232    0.8899    0.0000 H   0  0  0  0  0  0  0  0  0  0  0  0
    0.3949    1.4220    0.0000 H   0  0  0  0  0  0  0  0  0  0  0  0
  2 14  1  0  0  0  0
  3  2  1  0  0  0  0
  3 15  1  0  0  0  0
  4  3  1  0  0  0  0
  4  5  1  0  0  0  0
  4  6  2  0  0  0  0
  7  3  1  0  0  0  0
  7 16  1  0  0  0  0
  7 17  1  0  0  0  0
  7 18  1  0  0  0  0
  8 19  1  0  0  0  0
  9  8  1  0  0  0  0
  9 20  1  0  0  0  0
 10  9  1  0  0  0  0
 10 11  1  0  0  0  0
 10 12  2  0  0  0  0
 13  9  1  0  0  0  0
 13 21  1  0  0  0  0
 13 22  1  0  0  0  0
 13 23  1  0  0  0  0
M  CHG  3   1   2   5  -1  11  -1
M  END
>  <DRUGBANK_ID>
DB14515

>  <SECONDARY_ACCESSION_NUMBERS>
DBSALT002535

>  <COMMON_NAME>
Magnesium lactate

>  <CAS_NUMBER>
18917-93-6

>  <UNII>
MT6QI8324A

>  <SYNONYMS>
Magnesium DL-lactate; Magnesium lactate anhydrous; Magnesium lactate, anhydrous

$$$$
