
 OpenBabel10282417072D

 44 45  0  0  0  0  0  0  0  0999 V2000
    1.4534   -0.7827    0.0000 C   0  0  0  0  0  0  0  0  0  0  0  0
    1.4534   -1.6077    0.0000 N   0  0  0  0  0  0  0  0  0  0  0  0
    0.7389   -2.0202    0.0000 C   0  0  0  0  0  0  0  0  0  0  0  0
    0.0244   -1.6077    0.0000 C   0  0  0  0  0  0  0  0  0  0  0  0
    0.0244   -0.7827    0.0000 O   0  0  0  0  0  0  0  0  0  0  0  0
   -0.6900   -2.0202    0.0000 N   0  0  0  0  0  0  0  0  0  0  0  0
   -1.4045   -1.6077    0.0000 C   0  0  0  0  0  0  0  0  0  0  0  0
   -1.4907   -0.7872    0.0000 N   0  0  0  0  0  0  0  0  0  0  0  0
   -2.2977   -0.6157    0.0000 C   0  0  0  0  0  0  0  0  0  0  0  0
   -2.7102   -1.3301    0.0000 C   0  0  0  0  0  0  0  0  0  0  0  0
   -2.1582   -1.9432    0.0000 S   0  0  0  0  0  0  0  0  0  0  0  0
   -3.5352   -1.3301    0.0000 C   0  0  0  0  0  0  0  0  0  0  0  0
   -3.9477   -0.6157    0.0000 C   0  0  0  0  0  0  0  0  0  0  0  0
   -4.7727   -0.6157    0.0000 O   0  0  0  0  0  0  0  0  0  0  0  0
   -5.1852    0.0988    0.0000 C   0  0  0  0  0  0  0  0  0  0  0  0
   -5.5977    0.8133    0.0000 F   0  0  0  0  0  0  0  0  0  0  0  0
   -5.8997   -0.3137    0.0000 F   0  0  0  0  0  0  0  0  0  0  0  0
   -4.4707    0.5113    0.0000 F   0  0  0  0  0  0  0  0  0  0  0  0
   -3.5352    0.0988    0.0000 C   0  0  0  0  0  0  0  0  0  0  0  0
   -2.7102    0.0988    0.0000 C   0  0  0  0  0  0  0  0  0  0  0  0
    2.1678   -2.0202    0.0000 C   0  0  0  0  0  0  0  0  0  0  0  0
    2.1678   -2.8452    0.0000 O   0  0  0  0  0  0  0  0  0  0  0  0
    2.8823   -1.6077    0.0000 C   0  0  0  0  0  0  0  0  0  0  0  0
    3.5968   -2.0202    0.0000 N   0  0  0  0  0  0  0  0  0  0  0  0
    4.3113   -1.6077    0.0000 C   0  0  0  0  0  0  0  0  0  0  0  0
    4.3113   -0.7827    0.0000 O   0  0  0  0  0  0  0  0  0  0  0  0
    5.0257   -2.0202    0.0000 C   0  0  0  0  0  0  0  0  0  0  0  0
    5.7402   -1.6077    0.0000 N   0  0  0  0  0  0  0  0  0  0  0  0
    2.3800   -0.2477    0.0000 H   0  0  0  0  0  0  0  0  0  0  0  0
    0.5268   -0.2477    0.0000 H   0  0  0  0  0  0  0  0  0  0  0  0
    1.4534    0.2873    0.0000 H   0  0  0  0  0  0  0  0  0  0  0  0
    0.7389   -3.0902    0.0000 H   0  0  0  0  0  0  0  0  0  0  0  0
   -0.1877   -2.5552    0.0000 H   0  0  0  0  0  0  0  0  0  0  0  0
   -0.6900   -3.0047    0.0000 H   0  0  0  0  0  0  0  0  0  0  0  0
   -4.0512   -2.2238    0.0000 H   0  0  0  0  0  0  0  0  0  0  0  0
   -4.0512    0.9925    0.0000 H   0  0  0  0  0  0  0  0  0  0  0  0
   -2.1942    0.9925    0.0000 H   0  0  0  0  0  0  0  0  0  0  0  0
    2.8823   -0.5377    0.0000 H   0  0  0  0  0  0  0  0  0  0  0  0
    3.8089   -1.0727    0.0000 H   0  0  0  0  0  0  0  0  0  0  0  0
    3.5968   -3.0047    0.0000 H   0  0  0  0  0  0  0  0  0  0  0  0
    5.0257   -3.0902    0.0000 H   0  0  0  0  0  0  0  0  0  0  0  0
    5.9523   -2.5552    0.0000 H   0  0  0  0  0  0  0  0  0  0  0  0
    6.6235   -2.1177    0.0000 H   0  0  0  0  0  0  0  0  0  0  0  0
    5.7402   -0.5877    0.0000 H   0  0  0  0  0  0  0  0  0  0  0  0
  1  2  1  0  0  0  0
  1 29  1  0  0  0  0
  1 30  1  0  0  0  0
  1 31  1  0  0  0  0
  2  3  1  0  0  0  0
  2 21  1  0  0  0  0
  3  4  1  0  0  0  0
  3 32  1  0  0  0  0
  3 33  1  0  0  0  0
  4  5  2  0  0  0  0
  4  6  1  0  0  0  0
  6  7  1  0  0  0  0
  6 34  1  0  0  0  0
  7  8  2  0  0  0  0
  7 11  1  0  0  0  0
  8  9  1  0  0  0  0
  9 10  2  0  0  0  0
  9 20  1  0  0  0  0
 10 11  1  0  0  0  0
 10 12  1  0  0  0  0
 12 13  2  0  0  0  0
 12 35  1  0  0  0  0
 13 14  1  0  0  0  0
 13 19  1  0  0  0  0
 14 15  1  0  0  0  0
 15 16  1  0  0  0  0
 15 17  1  0  0  0  0
 15 18  1  0  0  0  0
 19 20  2  0  0  0  0
 19 36  1  0  0  0  0
 20 37  1  0  0  0  0
 21 22  2  0  0  0  0
 21 23  1  0  0  0  0
 23 24  1  0  0  0  0
 23 38  1  0  0  0  0
 23 39  1  0  0  0  0
 24 25  1  0  0  0  0
 24 40  1  0  0  0  0
 25 26  2  0  0  0  0
 25 27  1  0  0  0  0
 27 28  1  0  0  0  0
 27 41  1  0  0  0  0
 27 42  1  0  0  0  0
 28 43  1  0  0  0  0
 28 44  1  0  0  0  0
M  END
>  <DRUGBANK_ID>
DB15079

>  <COMMON_NAME>
Troriluzole

>  <CAS_NUMBER>
1926203-09-9

>  <UNII>
S7H48S6K7H

>  <SYNONYMS>
Troriluzole

$$$$
