
 OpenBabel10282417072D

101106  0  0  0  0  0  0  0  0999 V2000
   -3.2177    2.6793    0.0000 C   0  0  0  0  0  0  0  0  0  0  0  0
   -3.2177    1.8520    0.0000 N   0  0  0  0  0  0  0  0  0  0  0  0
   -3.9328    3.0950    0.0000 N   0  0  0  0  0  0  0  0  0  0  0  0
   -0.3574    0.2016    0.0000 C   0  0  0  0  0  0  0  0  0  0  0  0
    1.7792    1.4362    0.0000 C   0  0  0  0  0  0  0  0  0  0  0  0
   -1.0683    0.6131    0.0000 N   0  0  0  0  0  0  0  0  0  0  0  0
    2.4943    1.8478    0.0000 N   0  0  0  0  0  0  0  0  0  0  0  0
    1.0683   -0.6214    0.0000 C   0  0  0  0  0  0  0  0  0  0  0  0
   -3.9328    1.4405    0.0000 C   0  0  0  0  0  0  0  0  0  0  0  0
   -0.3574   -0.6214    0.0000 N   0  0  0  0  0  0  0  0  0  0  0  0
    1.0683    0.2016    0.0000 N   0  0  0  0  0  0  0  0  0  0  0  0
   -1.7917   -3.0867    0.0000 C   0  0  0  0  0  0  0  0  0  0  0  0
    3.9286    2.6751    0.0000 N   0  0  0  0  0  0  0  0  0  0  0  0
   -4.6478    1.8478    0.0000 C   0  0  0  0  0  0  0  0  0  0  0  0
    0.3574   -1.0331    0.0000 C   0  0  2  0  0  0  0  0  0  0  0  0
   -1.7876   -2.2636    0.0000 C   0  0  0  0  0  0  0  0  0  0  0  0
   -1.0725   -3.5025    0.0000 C   0  0  0  0  0  0  0  0  0  0  0  0
   -4.6478    2.6793    0.0000 C   0  0  0  0  0  0  0  0  0  0  0  0
    1.7792    0.6131    0.0000 C   0  0  1  0  0  0  0  0  0  0  0  0
   -2.5025    1.4405    0.0000 C   0  0  3  0  0  0  0  0  0  0  0  0
   -0.3574   -2.2678    0.0000 C   0  0  0  0  0  0  0  0  0  0  0  0
   -2.5025    3.0909    0.0000 O   0  0  0  0  0  0  0  0  0  0  0  0
   -0.3534   -3.0950    0.0000 C   0  0  0  0  0  0  0  0  0  0  0  0
   -1.0725   -1.8520    0.0000 C   0  0  0  0  0  0  0  0  0  0  0  0
    0.3574   -1.8562    0.0000 C   0  0  0  0  0  0  0  0  0  0  0  0
   -1.7917    1.8562    0.0000 C   0  0  0  0  0  0  0  0  0  0  0  0
   -2.5025    0.6173    0.0000 C   0  0  0  0  0  0  0  0  0  0  0  0
    4.6395    3.0867    0.0000 C   0  0  0  0  0  0  0  0  0  0  0  0
   -1.0725    1.4405    0.0000 C   0  0  0  0  0  0  0  0  0  0  0  0
   -1.7876    0.2016    0.0000 C   0  0  0  0  0  0  0  0  0  0  0  0
    0.3574    0.6131    0.0000 O   0  0  0  0  0  0  0  0  0  0  0  0
    3.2134    1.4362    0.0000 C   0  0  0  0  0  0  0  0  0  0  0  0
    2.4985    2.6751    0.0000 C   0  0  0  0  0  0  0  0  0  0  0  0
    3.2177    3.0909    0.0000 C   0  0  0  0  0  0  0  0  0  0  0  0
    3.9286    1.8520    0.0000 C   0  0  0  0  0  0  0  0  0  0  0  0
    1.0683    1.8478    0.0000 O   0  0  0  0  0  0  0  0  0  0  0  0
    1.7792   -1.0331    0.0000 O   0  0  0  0  0  0  0  0  0  0  0  0
    6.0737    3.9140    0.0000 N   0  0  0  0  0  0  0  0  0  0  0  0
   -2.4985   -1.8478    0.0000 Br  0  0  0  0  0  0  0  0  0  0  0  0
   -1.0808   -4.3256    0.0000 Br  0  0  0  0  0  0  0  0  0  0  0  0
   -2.5025   -3.4941    0.0000 O   0  0  0  0  0  0  0  0  0  0  0  0
    5.3546    2.6709    0.0000 C   0  0  0  0  0  0  0  0  0  0  0  0
    4.6353    3.9099    0.0000 C   0  0  0  0  0  0  0  0  0  0  0  0
    5.3462    0.2016    0.0000 N   0  0  0  0  0  0  0  0  0  0  0  0
   -5.3586    1.4405    0.0000 C   0  0  0  0  0  0  0  0  0  0  0  0
    5.3546    4.3256    0.0000 C   0  0  0  0  0  0  0  0  0  0  0  0
    6.0655    3.0867    0.0000 C   0  0  0  0  0  0  0  0  0  0  0  0
    2.4943    0.2016    0.0000 C   0  0  0  0  0  0  0  0  0  0  0  0
   -5.3586    3.0950    0.0000 C   0  0  0  0  0  0  0  0  0  0  0  0
    4.6353    0.6131    0.0000 C   0  0  0  0  0  0  0  0  0  0  0  0
    3.2052    0.6131    0.0000 C   0  0  0  0  0  0  0  0  0  0  0  0
    3.9202    0.2016    0.0000 C   0  0  0  0  0  0  0  0  0  0  0  0
   -6.0737    1.8478    0.0000 C   0  0  0  0  0  0  0  0  0  0  0  0
   -6.0737    2.6793    0.0000 C   0  0  0  0  0  0  0  0  0  0  0  0
   -3.9328    4.0795    0.0000 H   0  0  0  0  0  0  0  0  0  0  0  0
   -3.9305    0.3705    0.0000 H   0  0  0  0  0  0  0  0  0  0  0  0
   -4.8573    0.9018    0.0000 H   0  0  0  0  0  0  0  0  0  0  0  0
   -1.2097   -1.1141    0.0000 H   0  0  0  0  0  0  0  0  0  0  0  0
    0.2154    0.6934    0.0000 H   0  0  0  0  0  0  0  0  0  0  0  0
    1.2844   -1.5675    0.0000 H   0  0  0  0  0  0  0  0  0  0  0  0
    2.7055    1.1488    0.0000 H   0  0  0  0  0  0  0  0  0  0  0  0
   -2.5063    2.5105    0.0000 H   0  0  0  0  0  0  0  0  0  0  0  0
    0.5395   -3.6124    0.0000 H   0  0  0  0  0  0  0  0  0  0  0  0
   -1.0702   -0.8200    0.0000 H   0  0  0  0  0  0  0  0  0  0  0  0
    1.2837   -2.3917    0.0000 H   0  0  0  0  0  0  0  0  0  0  0  0
    1.2842   -1.3215    0.0000 H   0  0  0  0  0  0  0  0  0  0  0  0
   -1.7944    2.9262    0.0000 H   0  0  0  0  0  0  0  0  0  0  0  0
   -0.8656    2.3922    0.0000 H   0  0  0  0  0  0  0  0  0  0  0  0
   -3.4300    0.0837    0.0000 H   0  0  0  0  0  0  0  0  0  0  0  0
   -2.5050   -0.4527    0.0000 H   0  0  0  0  0  0  0  0  0  0  0  0
   -0.1471    1.9776    0.0000 H   0  0  0  0  0  0  0  0  0  0  0  0
   -0.1439    0.9089    0.0000 H   0  0  0  0  0  0  0  0  0  0  0  0
   -1.7914   -0.8684    0.0000 H   0  0  0  0  0  0  0  0  0  0  0  0
   -2.7160   -0.3303    0.0000 H   0  0  0  0  0  0  0  0  0  0  0  0
    3.2170    0.3662    0.0000 H   0  0  0  0  0  0  0  0  0  0  0  0
    4.1418    0.9042    0.0000 H   0  0  0  0  0  0  0  0  0  0  0  0
    1.5731    3.2122    0.0000 H   0  0  0  0  0  0  0  0  0  0  0  0
    2.4994    3.7451    0.0000 H   0  0  0  0  0  0  0  0  0  0  0  0
    3.2204    4.1609    0.0000 H   0  0  0  0  0  0  0  0  0  0  0  0
    2.2916    3.6268    0.0000 H   0  0  0  0  0  0  0  0  0  0  0  0
    4.8561    1.3184    0.0000 H   0  0  0  0  0  0  0  0  0  0  0  0
    4.8548    2.3877    0.0000 H   0  0  0  0  0  0  0  0  0  0  0  0
   -3.3125   -3.0230    0.0000 H   0  0  0  0  0  0  0  0  0  0  0  0
    5.3559    1.6389    0.0000 H   0  0  0  0  0  0  0  0  0  0  0  0
    3.7401    4.4234    0.0000 H   0  0  0  0  0  0  0  0  0  0  0  0
    5.3451   -0.8184    0.0000 H   0  0  0  0  0  0  0  0  0  0  0  0
    6.2301    0.7106    0.0000 H   0  0  0  0  0  0  0  0  0  0  0  0
   -5.3573    0.4085    0.0000 H   0  0  0  0  0  0  0  0  0  0  0  0
    5.3525    5.3576    0.0000 H   0  0  0  0  0  0  0  0  0  0  0  0
    6.9581    2.5688    0.0000 H   0  0  0  0  0  0  0  0  0  0  0  0
    2.4957   -0.8684    0.0000 H   0  0  0  0  0  0  0  0  0  0  0  0
    3.4216   -0.3323    0.0000 H   0  0  0  0  0  0  0  0  0  0  0  0
   -5.3572    4.1270    0.0000 H   0  0  0  0  0  0  0  0  0  0  0  0
    4.6367    1.6831    0.0000 H   0  0  0  0  0  0  0  0  0  0  0  0
    3.7094    1.1494    0.0000 H   0  0  0  0  0  0  0  0  0  0  0  0
    3.2039    1.6831    0.0000 H   0  0  0  0  0  0  0  0  0  0  0  0
    4.1311    1.1493    0.0000 H   0  0  0  0  0  0  0  0  0  0  0  0
    3.9202   -0.8684    0.0000 H   0  0  0  0  0  0  0  0  0  0  0  0
    2.9939   -0.3340    0.0000 H   0  0  0  0  0  0  0  0  0  0  0  0
   -6.9659    1.3292    0.0000 H   0  0  0  0  0  0  0  0  0  0  0  0
   -6.9682    3.1940    0.0000 H   0  0  0  0  0  0  0  0  0  0  0  0
  2  1  1  0  0  0  0
  3  1  1  0  0  0  0
  3 55  1  0  0  0  0
  4  6  1  0  0  0  0
  5 19  1  0  0  0  0
  6 30  1  0  0  0  0
  7  5  1  0  0  0  0
  8 15  1  0  0  0  0
  9  2  1  0  0  0  0
  9 56  1  0  0  0  0
  9 57  1  0  0  0  0
 10  4  1  0  0  0  0
 10 58  1  0  0  0  0
 11  8  1  0  0  0  0
 11 59  1  0  0  0  0
 12 17  1  0  0  0  0
 12 16  2  0  0  0  0
 13 34  1  0  0  0  0
 13 35  1  0  0  0  0
 14  9  1  0  0  0  0
 15 10  1  0  0  0  0
 15 25  1  0  0  0  0
 15 60  1  6  0  0  0
 16 24  1  0  0  0  0
 17 23  2  0  0  0  0
 18  3  1  0  0  0  0
 18 14  2  0  0  0  0
 19 11  1  0  0  0  0
 19 48  1  0  0  0  0
 19 61  1  1  0  0  0
 20  2  1  0  0  0  0
 20 62  1  0  0  0  0
 21 25  1  0  0  0  0
 22  1  2  0  0  0  0
 23 21  1  0  0  0  0
 23 63  1  0  0  0  0
 24 21  2  0  0  0  0
 24 64  1  0  0  0  0
 25 65  1  0  0  0  0
 25 66  1  0  0  0  0
 26 20  1  0  0  0  0
 26 67  1  0  0  0  0
 26 68  1  0  0  0  0
 27 20  1  0  0  0  0
 27 69  1  0  0  0  0
 27 70  1  0  0  0  0
 28 13  1  0  0  0  0
 29 26  1  0  0  0  0
 29  6  1  0  0  0  0
 29 71  1  0  0  0  0
 29 72  1  0  0  0  0
 30 27  1  0  0  0  0
 30 73  1  0  0  0  0
 30 74  1  0  0  0  0
 31  4  2  0  0  0  0
 32  7  1  0  0  0  0
 32 75  1  0  0  0  0
 32 76  1  0  0  0  0
 33  7  1  0  0  0  0
 33 77  1  0  0  0  0
 33 78  1  0  0  0  0
 34 33  1  0  0  0  0
 34 79  1  0  0  0  0
 34 80  1  0  0  0  0
 35 32  1  0  0  0  0
 35 81  1  0  0  0  0
 35 82  1  0  0  0  0
 36  5  2  0  0  0  0
 37  8  2  0  0  0  0
 38 47  1  0  0  0  0
 39 16  1  0  0  0  0
 40 17  1  0  0  0  0
 41 12  1  0  0  0  0
 41 83  1  0  0  0  0
 42 28  1  0  0  0  0
 42 84  1  0  0  0  0
 43 28  2  0  0  0  0
 43 85  1  0  0  0  0
 44 50  1  0  0  0  0
 44 86  1  0  0  0  0
 44 87  1  0  0  0  0
 45 14  1  0  0  0  0
 45 88  1  0  0  0  0
 46 43  1  0  0  0  0
 46 38  2  0  0  0  0
 46 89  1  0  0  0  0
 47 42  2  0  0  0  0
 47 90  1  0  0  0  0
 48 91  1  0  0  0  0
 48 92  1  0  0  0  0
 49 18  1  0  0  0  0
 49 93  1  0  0  0  0
 50 52  1  0  0  0  0
 50 94  1  0  0  0  0
 50 95  1  0  0  0  0
 51 48  1  0  0  0  0
 51 96  1  0  0  0  0
 51 97  1  0  0  0  0
 52 51  1  0  0  0  0
 52 98  1  0  0  0  0
 52 99  1  0  0  0  0
 53 45  2  0  0  0  0
 53100  1  0  0  0  0
 54 49  2  0  0  0  0
 54 53  1  0  0  0  0
 54101  1  0  0  0  0
M  END
>  <DRUGBANK_ID>
DB04869

>  <COMMON_NAME>
Olcegepant

>  <CAS_NUMBER>
204697-65-4

>  <UNII>
WOA5J8TX6M

>  <SYNONYMS>
Olcegepant

$$$$
