
 OpenBabel10282417072D

150151  0  0  1  0  0  0  0  0999 V2000
    7.8592  -13.6125    0.0000 C   0  0  0  0  0  0  0  0  0  0  0  0
   13.5749  -12.7875    0.0000 C   0  0  0  0  0  0  0  0  0  0  0  0
    9.2881   -7.8375    0.0000 C   0  0  0  0  0  0  0  0  0  0  0  0
   11.4315   -9.0750    0.0000 C   0  0  0  0  0  0  0  0  0  0  0  0
    6.4302   -7.8375    0.0000 C   0  0  0  0  0  0  0  0  0  0  0  0
   11.4315  -16.5000    0.0000 C   0  0  0  0  0  0  0  0  0  0  0  0
    9.2881  -10.3125    0.0000 C   0  0  0  0  0  0  0  0  0  0  0  0
   15.0039  -10.3125    0.0000 C   0  0  0  0  0  0  0  0  0  0  0  0
   12.8605  -14.0250    0.0000 C   0  0  0  0  0  0  0  0  0  0  0  0
    7.1447  -14.0250    0.0000 C   0  0  0  0  0  0  0  0  0  0  0  0
    6.4302  -10.3125    0.0000 C   0  0  0  0  0  0  0  0  0  0  0  0
   14.2894  -11.5500    0.0000 C   0  0  0  0  0  0  0  0  0  0  0  0
   12.1460  -15.2625    0.0000 C   0  0  0  0  0  0  0  0  0  0  0  0
   10.7171   -7.8375    0.0000 C   0  0  0  0  0  0  0  0  0  0  0  0
    9.2881  -12.7875    0.0000 C   0  0  0  0  0  0  0  0  0  0  0  0
    9.2881  -13.6125    0.0000 C   0  0  0  0  0  0  0  0  0  0  0  0
   10.0026  -12.3750    0.0000 C   0  0  0  0  0  0  0  0  0  0  0  0
   12.1460  -12.7875    0.0000 C   0  0  0  0  0  0  0  0  0  0  0  0
   12.1460  -10.3125    0.0000 C   0  0  0  0  0  0  0  0  0  0  0  0
    8.5737   -9.0750    0.0000 C   0  0  0  0  0  0  0  0  0  0  0  0
   12.1460  -13.6125    0.0000 C   0  0  0  0  0  0  0  0  0  0  0  0
   12.8605   -9.9000    0.0000 C   0  0  0  0  0  0  0  0  0  0  0  0
    7.8592   -8.6625    0.0000 C   0  0  0  0  0  0  0  0  0  0  0  0
    5.0013   -8.6625    0.0000 C   0  0  0  0  0  0  0  0  0  0  0  0
    4.2868   -9.0750    0.0000 C   0  0  0  0  0  0  0  0  0  0  0  0
    8.5737  -14.8500    0.0000 C   0  0  0  0  0  0  0  0  0  0  0  0
    7.8592  -16.0875    0.0000 C   0  0  0  0  0  0  0  0  0  0  0  0
    9.2881  -16.0875    0.0000 C   0  0  0  0  0  0  0  0  0  0  0  0
    8.5737  -17.3250    0.0000 C   0  0  0  0  0  0  0  0  0  0  0  0
   13.5749  -11.1375    0.0000 C   0  0  0  0  0  0  0  0  0  0  0  0
   11.4315  -14.8500    0.0000 C   0  0  0  0  0  0  0  0  0  0  0  0
    8.5737  -14.0250    0.0000 C   0  0  0  0  0  0  0  0  0  0  0  0
   12.8605  -12.3750    0.0000 C   0  0  1  0  0  0  0  0  0  0  0  0
    9.2881   -8.6625    0.0000 C   0  0  1  0  0  0  0  0  0  0  0  0
   11.4315   -9.9000    0.0000 C   0  0  1  0  0  0  0  0  0  0  0  0
    6.4302   -8.6625    0.0000 C   0  0  1  0  0  0  0  0  0  0  0  0
   10.7171  -16.0875    0.0000 C   0  0  2  0  0  0  0  0  0  0  0  0
   10.0026   -9.9000    0.0000 C   0  0  1  0  0  0  0  0  0  0  0  0
    8.5737  -16.5000    0.0000 C   0  0  0  0  0  0  0  0  0  0  0  0
   13.5749  -10.3125    0.0000 C   0  0  1  0  0  0  0  0  0  0  0  0
   11.4315  -14.0250    0.0000 C   0  0  2  0  0  0  0  0  0  0  0  0
    7.8592  -15.2625    0.0000 C   0  0  2  0  0  0  0  0  0  0  0  0
    7.1447   -9.0750    0.0000 C   0  0  0  0  0  0  0  0  0  0  0  0
    5.7158   -9.0750    0.0000 C   0  0  2  0  0  0  0  0  0  0  0  0
   12.8605  -11.5500    0.0000 C   0  0  1  0  0  0  0  0  0  0  0  0
   10.7171  -15.2625    0.0000 C   0  0  1  0  0  0  0  0  0  0  0  0
   10.0026  -16.5000    0.0000 C   0  0  2  0  0  0  0  0  0  0  0  0
    3.5724   -8.6625    0.0000 C   0  0  0  0  0  0  0  0  0  0  0  0
   10.0026  -11.5500    0.0000 C   0  0  0  0  0  0  0  0  0  0  0  0
    9.2881  -17.7375    0.0000 C   0  0  0  0  0  0  0  0  0  0  0  0
   10.0026   -9.0750    0.0000 C   0  0  1  0  0  0  0  0  0  0  0  0
   10.7171  -10.3125    0.0000 C   0  0  1  0  0  0  0  0  0  0  0  0
    7.1447   -9.9000    0.0000 O   0  0  0  0  0  0  0  0  0  0  0  0
    2.8579   -9.0750    0.0000 O   0  0  0  0  0  0  0  0  0  0  0  0
    3.5724   -7.8375    0.0000 O   0  0  0  0  0  0  0  0  0  0  0  0
    9.2881  -11.1375    0.0000 O   0  0  0  0  0  0  0  0  0  0  0  0
    9.2881  -18.5625    0.0000 O   0  0  0  0  0  0  0  0  0  0  0  0
   14.2894   -9.9000    0.0000 O   0  0  0  0  0  0  0  0  0  0  0  0
   12.1460  -14.4375    0.0000 O   0  0  0  0  0  0  0  0  0  0  0  0
    7.1447  -14.8500    0.0000 O   0  0  0  0  0  0  0  0  0  0  0  0
    5.7158   -9.9000    0.0000 O   0  0  0  0  0  0  0  0  0  0  0  0
   13.5749  -11.9625    0.0000 O   0  0  0  0  0  0  0  0  0  0  0  0
   11.4315  -15.6750    0.0000 O   0  0  0  0  0  0  0  0  0  0  0  0
   10.7171   -8.6625    0.0000 O   0  0  0  0  0  0  0  0  0  0  0  0
   10.0026  -17.3250    0.0000 O   0  0  0  0  0  0  0  0  0  0  0  0
   10.7171  -11.1375    0.0000 O   0  0  0  0  0  0  0  0  0  0  0  0
    8.5737  -12.3750    0.0000 H   0  0  0  0  0  0  0  0  0  0  0  0
   10.0026  -14.0250    0.0000 H   0  0  0  0  0  0  0  0  0  0  0  0
   10.7171  -12.7875    0.0000 H   0  0  0  0  0  0  0  0  0  0  0  0
   11.4315  -12.3750    0.0000 H   0  0  0  0  0  0  0  0  0  0  0  0
   12.1460  -11.1375    0.0000 H   0  0  0  0  0  0  0  0  0  0  0  0
   12.6763  -14.2445    0.0000 H   0  0  0  0  0  0  0  0  0  0  0  0
   12.8605   -9.0750    0.0000 H   0  0  0  0  0  0  0  0  0  0  0  0
   12.8605  -13.2000    0.0000 H   0  0  0  0  0  0  0  0  0  0  0  0
    8.5737   -8.2500    0.0000 H   0  0  0  0  0  0  0  0  0  0  0  0
   12.1460   -9.4875    0.0000 H   0  0  0  0  0  0  0  0  0  0  0  0
    7.1447   -8.2500    0.0000 H   0  0  0  0  0  0  0  0  0  0  0  0
   11.5295  -15.9442    0.0000 H   0  0  0  0  0  0  0  0  0  0  0  0
    9.1901   -9.7567    0.0000 H   0  0  0  0  0  0  0  0  0  0  0  0
   13.5749   -9.4875    0.0000 H   0  0  0  0  0  0  0  0  0  0  0  0
   12.2565  -14.0250    0.0000 H   0  0  0  0  0  0  0  0  0  0  0  0
    7.8592  -14.4375    0.0000 H   0  0  0  0  0  0  0  0  0  0  0  0
    5.7158   -8.2500    0.0000 H   0  0  0  0  0  0  0  0  0  0  0  0
   13.6855  -11.5500    0.0000 H   0  0  0  0  0  0  0  0  0  0  0  0
   11.5421  -15.2625    0.0000 H   0  0  0  0  0  0  0  0  0  0  0  0
   10.7171  -16.9125    0.0000 H   0  0  0  0  0  0  0  0  0  0  0  0
    9.1901   -9.2183    0.0000 H   0  0  0  0  0  0  0  0  0  0  0  0
   10.7171   -9.4875    0.0000 H   0  0  0  0  0  0  0  0  0  0  0  0
    7.8592  -12.5425    0.0000 H   0  0  0  0  0  0  0  0  0  0  0  0
    6.9326  -14.1475    0.0000 H   0  0  0  0  0  0  0  0  0  0  0  0
    6.9325  -13.0775    0.0000 H   0  0  0  0  0  0  0  0  0  0  0  0
   13.5749  -13.8575    0.0000 H   0  0  0  0  0  0  0  0  0  0  0  0
   14.5016  -12.2525    0.0000 H   0  0  0  0  0  0  0  0  0  0  0  0
   14.5015  -13.3225    0.0000 H   0  0  0  0  0  0  0  0  0  0  0  0
   10.2147   -7.3025    0.0000 H   0  0  0  0  0  0  0  0  0  0  0  0
    8.3615   -7.3025    0.0000 H   0  0  0  0  0  0  0  0  0  0  0  0
    9.2881   -6.7675    0.0000 H   0  0  0  0  0  0  0  0  0  0  0  0
   12.3581   -8.5400    0.0000 H   0  0  0  0  0  0  0  0  0  0  0  0
   10.5049   -8.5400    0.0000 H   0  0  0  0  0  0  0  0  0  0  0  0
   11.4315   -8.0050    0.0000 H   0  0  0  0  0  0  0  0  0  0  0  0
    7.3568   -7.3025    0.0000 H   0  0  0  0  0  0  0  0  0  0  0  0
    5.5036   -7.3025    0.0000 H   0  0  0  0  0  0  0  0  0  0  0  0
    6.4302   -6.7675    0.0000 H   0  0  0  0  0  0  0  0  0  0  0  0
   11.4315  -17.5700    0.0000 H   0  0  0  0  0  0  0  0  0  0  0  0
   12.3582  -15.9650    0.0000 H   0  0  0  0  0  0  0  0  0  0  0  0
   12.3581  -17.0350    0.0000 H   0  0  0  0  0  0  0  0  0  0  0  0
    8.3615   -9.7775    0.0000 H   0  0  0  0  0  0  0  0  0  0  0  0
    9.2881  -11.3825    0.0000 H   0  0  0  0  0  0  0  0  0  0  0  0
    8.3614  -10.8475    0.0000 H   0  0  0  0  0  0  0  0  0  0  0  0
   15.0039  -11.3825    0.0000 H   0  0  0  0  0  0  0  0  0  0  0  0
   15.9305   -9.7775    0.0000 H   0  0  0  0  0  0  0  0  0  0  0  0
   15.9306  -10.8475    0.0000 H   0  0  0  0  0  0  0  0  0  0  0  0
   13.7871  -14.5600    0.0000 H   0  0  0  0  0  0  0  0  0  0  0  0
   12.8605  -12.9550    0.0000 H   0  0  0  0  0  0  0  0  0  0  0  0
   13.7872  -13.4900    0.0000 H   0  0  0  0  0  0  0  0  0  0  0  0
    8.0713  -13.4900    0.0000 H   0  0  0  0  0  0  0  0  0  0  0  0
    6.2181  -13.4900    0.0000 H   0  0  0  0  0  0  0  0  0  0  0  0
    7.1447  -12.9550    0.0000 H   0  0  0  0  0  0  0  0  0  0  0  0
    6.4302  -11.3825    0.0000 H   0  0  0  0  0  0  0  0  0  0  0  0
    7.3569   -9.7775    0.0000 H   0  0  0  0  0  0  0  0  0  0  0  0
    7.3568  -10.8475    0.0000 H   0  0  0  0  0  0  0  0  0  0  0  0
   15.2160  -12.0850    0.0000 H   0  0  0  0  0  0  0  0  0  0  0  0
   14.2894  -10.4800    0.0000 H   0  0  0  0  0  0  0  0  0  0  0  0
   15.2161  -11.0150    0.0000 H   0  0  0  0  0  0  0  0  0  0  0  0
   13.0726  -15.7975    0.0000 H   0  0  0  0  0  0  0  0  0  0  0  0
   12.1460  -14.1925    0.0000 H   0  0  0  0  0  0  0  0  0  0  0  0
   13.0727  -14.7275    0.0000 H   0  0  0  0  0  0  0  0  0  0  0  0
   11.6437   -7.3025    0.0000 H   0  0  0  0  0  0  0  0  0  0  0  0
    9.7905   -7.3025    0.0000 H   0  0  0  0  0  0  0  0  0  0  0  0
   10.7171   -6.7675    0.0000 H   0  0  0  0  0  0  0  0  0  0  0  0
    8.5737  -10.1450    0.0000 H   0  0  0  0  0  0  0  0  0  0  0  0
    9.5004   -9.6100    0.0000 H   0  0  0  0  0  0  0  0  0  0  0  0
    7.8592   -7.5925    0.0000 H   0  0  0  0  0  0  0  0  0  0  0  0
    6.9326   -8.1275    0.0000 H   0  0  0  0  0  0  0  0  0  0  0  0
    5.0013   -7.5925    0.0000 H   0  0  0  0  0  0  0  0  0  0  0  0
    5.9279   -8.1275    0.0000 H   0  0  0  0  0  0  0  0  0  0  0  0
    4.2868  -10.1450    0.0000 H   0  0  0  0  0  0  0  0  0  0  0  0
    3.3601   -9.6100    0.0000 H   0  0  0  0  0  0  0  0  0  0  0  0
    9.5003  -15.3850    0.0000 H   0  0  0  0  0  0  0  0  0  0  0  0
    8.5737  -15.9200    0.0000 H   0  0  0  0  0  0  0  0  0  0  0  0
    6.9326  -16.6225    0.0000 H   0  0  0  0  0  0  0  0  0  0  0  0
    6.9326  -15.5525    0.0000 H   0  0  0  0  0  0  0  0  0  0  0  0
    9.2881  -15.0175    0.0000 H   0  0  0  0  0  0  0  0  0  0  0  0
   10.2147  -15.5525    0.0000 H   0  0  0  0  0  0  0  0  0  0  0  0
    7.6800  -17.8410    0.0000 H   0  0  0  0  0  0  0  0  0  0  0  0
   14.5016  -11.6725    0.0000 H   0  0  0  0  0  0  0  0  0  0  0  0
   13.5749  -12.2075    0.0000 H   0  0  0  0  0  0  0  0  0  0  0  0
   12.3582  -15.3850    0.0000 H   0  0  0  0  0  0  0  0  0  0  0  0
   11.4315  -15.9200    0.0000 H   0  0  0  0  0  0  0  0  0  0  0  0
    4.3839   -7.3690    0.0000 H   0  0  0  0  0  0  0  0  0  0  0  0
  1 89  1  0  0  0  0
  1 90  1  0  0  0  0
  1 91  1  0  0  0  0
  2 92  1  0  0  0  0
  2 93  1  0  0  0  0
  2 94  1  0  0  0  0
  3 95  1  0  0  0  0
  3 96  1  0  0  0  0
  3 97  1  0  0  0  0
  4 98  1  0  0  0  0
  4 99  1  0  0  0  0
  4100  1  0  0  0  0
  5101  1  0  0  0  0
  5102  1  0  0  0  0
  5103  1  0  0  0  0
  6104  1  0  0  0  0
  6105  1  0  0  0  0
  6106  1  0  0  0  0
  7107  1  0  0  0  0
  7108  1  0  0  0  0
  7109  1  0  0  0  0
  8110  1  0  0  0  0
  8111  1  0  0  0  0
  8112  1  0  0  0  0
  9113  1  0  0  0  0
  9114  1  0  0  0  0
  9115  1  0  0  0  0
 10116  1  0  0  0  0
 10117  1  0  0  0  0
 10118  1  0  0  0  0
 11119  1  0  0  0  0
 11120  1  0  0  0  0
 11121  1  0  0  0  0
 12122  1  0  0  0  0
 12123  1  0  0  0  0
 12124  1  0  0  0  0
 13125  1  0  0  0  0
 13126  1  0  0  0  0
 13127  1  0  0  0  0
 14128  1  0  0  0  0
 14129  1  0  0  0  0
 14130  1  0  0  0  0
 16 15  1  0  0  0  0
 17 15  2  0  0  0  0
 20131  1  0  0  0  0
 20132  1  0  0  0  0
 21 18  2  0  0  0  0
 22 19  2  0  0  0  0
 23 20  1  0  0  0  0
 23133  1  0  0  0  0
 23134  1  0  0  0  0
 24135  1  0  0  0  0
 24136  1  0  0  0  0
 25 24  1  0  0  0  0
 25137  1  0  0  0  0
 25138  1  0  0  0  0
 26139  1  0  0  0  0
 26140  1  0  0  0  0
 27141  1  0  0  0  0
 27142  1  0  0  0  0
 28143  1  0  0  0  0
 28144  1  0  0  0  0
 29145  1  0  0  0  0
 30146  1  0  0  0  0
 30147  1  0  0  0  0
 31148  1  0  0  0  0
 31149  1  0  0  0  0
 32  1  1  0  0  0  0
 32 16  2  0  0  0  0
 32 26  1  0  0  0  0
 33  2  1  0  0  0  0
 33 18  1  0  0  0  0
 33 74  1  6  0  0  0
 34  3  1  0  0  0  0
 34 20  1  0  0  0  0
 34 75  1  1  0  0  0
 35  4  1  0  0  0  0
 35 19  1  0  0  0  0
 35 76  1  6  0  0  0
 36  5  1  0  0  0  0
 36 77  1  6  0  0  0
 37  6  1  0  0  0  0
 37 78  1  6  0  0  0
 38  7  1  0  0  0  0
 38 79  1  6  0  0  0
 39 27  1  0  0  0  0
 39 28  1  0  0  0  0
 39 29  2  0  0  0  0
 40 22  1  0  0  0  0
 40 30  1  0  0  0  0
 40 58  1  0  0  0  0
 40 80  1  1  0  0  0
 41 21  1  0  0  0  0
 41 31  1  0  0  0  0
 41 59  1  0  0  0  0
 41 81  1  6  0  0  0
 42 26  1  0  0  0  0
 42 27  1  0  0  0  0
 42 60  1  0  0  0  0
 42 82  1  1  0  0  0
 43 23  1  0  0  0  0
 43 36  1  0  0  0  0
 44 24  1  0  0  0  0
 44 36  1  0  0  0  0
 44 61  1  0  0  0  0
 44 83  1  1  0  0  0
 45 30  1  0  0  0  0
 45 33  1  0  0  0  0
 45 62  1  0  0  0  0
 45 84  1  1  0  0  0
 46 31  1  0  0  0  0
 46 37  1  0  0  0  0
 46 63  1  0  0  0  0
 46 85  1  1  0  0  0
 47 28  1  0  0  0  0
 47 37  1  0  0  0  0
 47 86  1  1  0  0  0
 48 25  1  0  0  0  0
 49 17  1  0  0  0  0
 50 29  1  0  0  0  0
 51 34  1  0  0  0  0
 51 38  1  0  0  0  0
 51 64  1  0  0  0  0
 51 87  1  1  0  0  0
 52 35  1  0  0  0  0
 52 38  1  0  0  0  0
 52 88  1  1  0  0  0
 53 43  2  0  0  0  0
 54 48  2  0  0  0  0
 55 48  1  0  0  0  0
 55150  1  0  0  0  0
 56 49  2  0  0  0  0
 57 50  2  0  0  0  0
 58  8  1  0  0  0  0
 59  9  1  0  0  0  0
 60 10  1  0  0  0  0
 61 11  1  0  0  0  0
 62 12  1  0  0  0  0
 63 13  1  0  0  0  0
 64 14  1  0  0  0  0
 65 47  1  0  0  0  0
 65 50  1  0  0  0  0
 66 49  1  0  0  0  0
 66 52  1  0  0  0  0
 67 15  1  0  0  0  0
 68 16  1  0  0  0  0
 69 17  1  0  0  0  0
 70 18  1  0  0  0  0
 71 19  1  0  0  0  0
 72 21  1  0  0  0  0
 73 22  1  0  0  0  0
M  END
>  <DRUGBANK_ID>
DB04775

>  <COMMON_NAME>
Reidispongiolide C

$$$$
