
 OpenBabel10282417072D

 82 84  0  0  0  0  0  0  0  0999 V2000
   -0.1509   -0.2615    0.0000 O   0  0  0  0  0  0  0  0  0  0  0  0
   -1.2779   -1.3885    0.0000 O   0  0  0  0  0  0  0  0  0  0  0  0
    1.9924    0.9759    0.0000 O   0  0  0  0  0  0  0  0  0  0  0  0
    1.2779    2.2135    0.0000 O   0  0  0  0  0  0  0  0  0  0  0  0
    0.8654   -2.6260    0.0000 O   0  0  0  0  0  0  0  0  0  0  0  0
   -0.1509    1.3885    0.0000 O   0  0  0  0  0  0  0  0  0  0  0  0
    1.2779   -1.0865    0.0000 O   0  0  0  0  0  0  0  0  0  0  0  0
    2.7070    3.8635    0.0000 O   0  0  0  0  0  0  0  0  0  0  0  0
   -1.9924   -3.4510    0.0000 O   0  0  0  0  0  0  0  0  0  0  0  0
    2.7070    1.3885    0.0000 O   0  0  0  0  0  0  0  0  0  0  0  0
   -1.8009   -0.2615    0.0000 O   0  0  0  0  0  0  0  0  0  0  0  0
   -2.7069   -1.3885    0.0000 O   0  0  0  0  0  0  0  0  0  0  0  0
    4.1359    2.2135    0.0000 O   0  0  0  0  0  0  0  0  0  0  0  0
    3.4214    0.1509    0.0000 O   0  0  0  0  0  0  0  0  0  0  0  0
   -0.5634    0.4529    0.0000 O   0  0  0  0  0  0  0  0  0  0  0  0
    4.1359    3.8635    0.0000 O   0  0  0  0  0  0  0  0  0  0  0  0
    1.2779    4.6885    0.0000 O   0  0  0  0  0  0  0  0  0  0  0  0
   -4.1359   -2.2135    0.0000 O   0  0  0  0  0  0  0  0  0  0  0  0
    0.8654   -3.4510    0.0000 O   0  0  0  0  0  0  0  0  0  0  0  0
   -0.5634   -3.4510    0.0000 N   0  0  0  0  0  0  0  0  0  0  0  0
   -0.5634   -0.9759    0.0000 C   0  0  1  0  0  0  0  0  0  0  0  0
    0.5635    0.1509    0.0000 C   0  0  2  0  0  0  0  0  0  0  0  0
   -0.5634   -2.6260    0.0000 C   0  0  1  0  0  0  0  0  0  0  0  0
   -1.2779   -2.2135    0.0000 C   0  0  2  0  0  0  0  0  0  0  0  0
    0.1510   -2.2135    0.0000 C   0  0  2  0  0  0  0  0  0  0  0  0
    0.1510   -1.3885    0.0000 C   0  0  0  0  0  0  0  0  0  0  0  0
    0.5635    0.9759    0.0000 C   0  0  2  0  0  0  0  0  0  0  0  0
    1.2779   -0.2615    0.0000 C   0  0  2  0  0  0  0  0  0  0  0  0
    1.2779    1.3885    0.0000 C   0  0  1  0  0  0  0  0  0  0  0  0
    1.9924    0.1509    0.0000 C   0  0  1  0  0  0  0  0  0  0  0  0
   -1.9924   -2.6260    0.0000 C   0  0  1  0  0  0  0  0  0  0  0  0
    1.9924    2.6260    0.0000 C   0  0  1  0  0  0  0  0  0  0  0  0
    2.7070    2.2135    0.0000 C   0  0  1  0  0  0  0  0  0  0  0  0
    1.9924    3.4510    0.0000 C   0  0  1  0  0  0  0  0  0  0  0  0
   -0.9759   -0.2615    0.0000 C   0  0  0  0  0  0  0  0  0  0  0  0
   -2.7069   -2.2135    0.0000 C   0  0  1  0  0  0  0  0  0  0  0  0
    3.4214    2.6260    0.0000 C   0  0  2  0  0  0  0  0  0  0  0  0
    2.7070   -0.2615    0.0000 C   0  0  0  0  0  0  0  0  0  0  0  0
    3.4214    3.4510    0.0000 C   0  0  2  0  0  0  0  0  0  0  0  0
    1.2779    3.8635    0.0000 C   0  0  0  0  0  0  0  0  0  0  0  0
   -3.4213   -2.6260    0.0000 C   0  0  0  0  0  0  0  0  0  0  0  0
    0.1510   -3.8635    0.0000 C   0  0  0  0  0  0  0  0  0  0  0  0
    0.1510   -4.6885    0.0000 C   0  0  0  0  0  0  0  0  0  0  0  0
   -1.8495   -1.8835    0.0000 H   0  0  0  0  0  0  0  0  0  0  0  0
   -1.0064   -3.7068    0.0000 H   0  0  0  0  0  0  0  0  0  0  0  0
    0.8654   -3.5960    0.0000 H   0  0  0  0  0  0  0  0  0  0  0  0
   -0.1508    2.3585    0.0000 H   0  0  0  0  0  0  0  0  0  0  0  0
    0.4379   -1.5715    0.0000 H   0  0  0  0  0  0  0  0  0  0  0  0
   -2.8324   -3.9360    0.0000 H   0  0  0  0  0  0  0  0  0  0  0  0
    1.8670    0.9035    0.0000 H   0  0  0  0  0  0  0  0  0  0  0  0
   -2.2694    0.5500    0.0000 H   0  0  0  0  0  0  0  0  0  0  0  0
   -1.8669   -0.9035    0.0000 H   0  0  0  0  0  0  0  0  0  0  0  0
    4.1359    1.2435    0.0000 H   0  0  0  0  0  0  0  0  0  0  0  0
    4.2614   -0.3342    0.0000 H   0  0  0  0  0  0  0  0  0  0  0  0
    4.9759    3.3785    0.0000 H   0  0  0  0  0  0  0  0  0  0  0  0
    2.1179    5.1735    0.0000 H   0  0  0  0  0  0  0  0  0  0  0  0
   -4.1360   -1.2435    0.0000 H   0  0  0  0  0  0  0  0  0  0  0  0
   -0.3631    0.6859    0.0000 H   0  0  0  0  0  0  0  0  0  0  0  0
   -1.4900   -3.1610    0.0000 H   0  0  0  0  0  0  0  0  0  0  0  0
    0.1510   -3.2835    0.0000 H   0  0  0  0  0  0  0  0  0  0  0  0
    1.0777   -0.8536    0.0000 H   0  0  0  0  0  0  0  0  0  0  0  0
    1.0776   -1.9235    0.0000 H   0  0  0  0  0  0  0  0  0  0  0  0
   -0.3632    0.4410    0.0000 H   0  0  0  0  0  0  0  0  0  0  0  0
    0.3513   -0.7965    0.0000 H   0  0  0  0  0  0  0  0  0  0  0  0
    2.2046    1.9235    0.0000 H   0  0  0  0  0  0  0  0  0  0  0  0
    2.9190    0.6860    0.0000 H   0  0  0  0  0  0  0  0  0  0  0  0
   -1.0658   -3.1610    0.0000 H   0  0  0  0  0  0  0  0  0  0  0  0
    1.9924    1.5560    0.0000 H   0  0  0  0  0  0  0  0  0  0  0  0
    1.7804    1.6785    0.0000 H   0  0  0  0  0  0  0  0  0  0  0  0
    1.9924    4.5210    0.0000 H   0  0  0  0  0  0  0  0  0  0  0  0
   -1.7803   -1.6785    0.0000 H   0  0  0  0  0  0  0  0  0  0  0  0
    3.4214    1.5560    0.0000 H   0  0  0  0  0  0  0  0  0  0  0  0
    2.7071   -1.3315    0.0000 H   0  0  0  0  0  0  0  0  0  0  0  0
    1.7804   -0.7966    0.0000 H   0  0  0  0  0  0  0  0  0  0  0  0
    3.4214    4.5210    0.0000 H   0  0  0  0  0  0  0  0  0  0  0  0
    0.3513    3.3285    0.0000 H   0  0  0  0  0  0  0  0  0  0  0  0
    1.2779    2.7935    0.0000 H   0  0  0  0  0  0  0  0  0  0  0  0
   -3.4212   -3.6960    0.0000 H   0  0  0  0  0  0  0  0  0  0  0  0
   -2.4946   -3.1610    0.0000 H   0  0  0  0  0  0  0  0  0  0  0  0
   -0.7756   -5.2235    0.0000 H   0  0  0  0  0  0  0  0  0  0  0  0
    1.0776   -5.2235    0.0000 H   0  0  0  0  0  0  0  0  0  0  0  0
    0.1510   -5.7585    0.0000 H   0  0  0  0  0  0  0  0  0  0  0  0
  2 21  1  0  0  0  0
  2 24  1  0  0  0  0
  3 29  1  0  0  0  0
  3 30  1  0  0  0  0
  5 46  1  0  0  0  0
  6 47  1  0  0  0  0
  7 48  1  0  0  0  0
  8 34  1  0  0  0  0
  8 39  1  0  0  0  0
  9 49  1  0  0  0  0
 10 50  1  0  0  0  0
 11 35  1  0  0  0  0
 11 51  1  0  0  0  0
 12 52  1  0  0  0  0
 13 53  1  0  0  0  0
 14 38  1  0  0  0  0
 14 54  1  0  0  0  0
 15 35  2  0  0  0  0
 16 55  1  0  0  0  0
 17 40  1  0  0  0  0
 17 56  1  0  0  0  0
 18 41  1  0  0  0  0
 18 57  1  0  0  0  0
 19 42  2  0  0  0  0
 20 42  1  0  0  0  0
 20 45  1  0  0  0  0
 21  1  1  6  0  0  0
 21 26  1  0  0  0  0
 21 35  1  0  0  0  0
 22  1  1  0  0  0  0
 22 27  1  0  0  0  0
 22 28  1  0  0  0  0
 22 58  1  1  0  0  0
 23 20  1  0  0  0  0
 23 24  1  0  0  0  0
 23 25  1  0  0  0  0
 23 59  1  6  0  0  0
 24 31  1  0  0  0  0
 24 44  1  1  0  0  0
 25  5  1  0  0  0  0
 25 26  1  0  0  0  0
 25 60  1  1  0  0  0
 26 61  1  0  0  0  0
 26 62  1  0  0  0  0
 27  6  1  0  0  0  0
 27 29  1  0  0  0  0
 27 63  1  6  0  0  0
 28  7  1  0  0  0  0
 28 30  1  0  0  0  0
 28 64  1  1  0  0  0
 29  4  1  0  0  0  0
 29 65  1  1  0  0  0
 30 38  1  0  0  0  0
 30 66  1  1  0  0  0
 31  9  1  0  0  0  0
 31 36  1  0  0  0  0
 31 67  1  1  0  0  0
 32  4  1  0  0  0  0
 32 33  1  0  0  0  0
 32 34  1  0  0  0  0
 32 68  1  1  0  0  0
 33 10  1  0  0  0  0
 33 37  1  0  0  0  0
 33 69  1  6  0  0  0
 34 40  1  0  0  0  0
 34 70  1  6  0  0  0
 36 12  1  0  0  0  0
 36 41  1  0  0  0  0
 36 71  1  6  0  0  0
 37 13  1  0  0  0  0
 37 39  1  0  0  0  0
 37 72  1  1  0  0  0
 38 73  1  0  0  0  0
 38 74  1  0  0  0  0
 39 16  1  0  0  0  0
 39 75  1  1  0  0  0
 40 76  1  0  0  0  0
 40 77  1  0  0  0  0
 41 78  1  0  0  0  0
 41 79  1  0  0  0  0
 42 43  1  0  0  0  0
 43 80  1  0  0  0  0
 43 81  1  0  0  0  0
 43 82  1  0  0  0  0
M  END
>  <DRUGBANK_ID>
DB03296

>  <SECONDARY_ACCESSION_NUMBERS>
EXPT02917

>  <COMMON_NAME>
3'-beta-Sialyl-beta-lactose

>  <CAS_NUMBER>
64839-32-3

>  <UNII>
GW5N86WS9F

>  <SYNONYMS>
O-(N-Acetyl-alpha-neuraminosyl)-(2->3)-o-beta-D-galactopyranosyl-(1->4)-alpha-D-glucopyranose

$$$$
