
 OpenBabel10282417072D

 37 36  0  0  0  0  0  0  0  0999 V2000
    0.0000    0.2062    0.0000 O   0  0  0  0  0  0  0  0  0  0  0  0
    0.7145   -0.2062    0.0000 C   0  0  0  0  0  0  0  0  0  0  0  0
    1.4289    0.2062    0.0000 C   0  0  0  0  0  0  0  0  0  0  0  0
    2.1434   -0.2062    0.0000 O   0  0  0  0  0  0  0  0  0  0  0  0
    2.8579    0.2062    0.0000 C   0  0  0  0  0  0  0  0  0  0  0  0
    3.5724   -0.2062    0.0000 C   0  0  0  0  0  0  0  0  0  0  0  0
    4.2868    0.2062    0.0000 O   0  0  0  0  0  0  0  0  0  0  0  0
    5.0012   -0.2062    0.0000 C   0  0  0  0  0  0  0  0  0  0  0  0
   -0.7145   -0.2062    0.0000 C   0  0  0  0  0  0  0  0  0  0  0  0
   -1.4289    0.2062    0.0000 C   0  0  0  0  0  0  0  0  0  0  0  0
   -2.1434   -0.2062    0.0000 O   0  0  0  0  0  0  0  0  0  0  0  0
   -2.8579    0.2062    0.0000 C   0  0  0  0  0  0  0  0  0  0  0  0
   -3.5724   -0.2062    0.0000 C   0  0  0  0  0  0  0  0  0  0  0  0
   -4.2868    0.2062    0.0000 O   0  0  0  0  0  0  0  0  0  0  0  0
   -5.0012   -0.2062    0.0000 C   0  0  0  0  0  0  0  0  0  0  0  0
    0.7145   -1.2762    0.0000 H   0  0  0  0  0  0  0  0  0  0  0  0
    1.6411   -0.7412    0.0000 H   0  0  0  0  0  0  0  0  0  0  0  0
    1.4289    1.2762    0.0000 H   0  0  0  0  0  0  0  0  0  0  0  0
    2.3555    0.7413    0.0000 H   0  0  0  0  0  0  0  0  0  0  0  0
    2.8579    1.2762    0.0000 H   0  0  0  0  0  0  0  0  0  0  0  0
    3.7845    0.7413    0.0000 H   0  0  0  0  0  0  0  0  0  0  0  0
    3.5724   -1.2762    0.0000 H   0  0  0  0  0  0  0  0  0  0  0  0
    4.4990   -0.7412    0.0000 H   0  0  0  0  0  0  0  0  0  0  0  0
    5.0013   -1.2762    0.0000 H   0  0  0  0  0  0  0  0  0  0  0  0
    5.9278    0.3289    0.0000 H   0  0  0  0  0  0  0  0  0  0  0  0
    5.9279   -0.7411    0.0000 H   0  0  0  0  0  0  0  0  0  0  0  0
   -0.7145   -1.2762    0.0000 H   0  0  0  0  0  0  0  0  0  0  0  0
   -1.6411   -0.7412    0.0000 H   0  0  0  0  0  0  0  0  0  0  0  0
   -1.4289    1.2762    0.0000 H   0  0  0  0  0  0  0  0  0  0  0  0
   -2.3555    0.7413    0.0000 H   0  0  0  0  0  0  0  0  0  0  0  0
   -2.8579    1.2762    0.0000 H   0  0  0  0  0  0  0  0  0  0  0  0
   -3.7845    0.7413    0.0000 H   0  0  0  0  0  0  0  0  0  0  0  0
   -3.5724   -1.2762    0.0000 H   0  0  0  0  0  0  0  0  0  0  0  0
   -4.4990   -0.7412    0.0000 H   0  0  0  0  0  0  0  0  0  0  0  0
   -5.9278    0.3289    0.0000 H   0  0  0  0  0  0  0  0  0  0  0  0
   -5.0013   -1.2762    0.0000 H   0  0  0  0  0  0  0  0  0  0  0  0
   -5.9279   -0.7411    0.0000 H   0  0  0  0  0  0  0  0  0  0  0  0
  2  1  1  0  0  0  0
  2 16  1  0  0  0  0
  2 17  1  0  0  0  0
  3  2  1  0  0  0  0
  3 18  1  0  0  0  0
  3 19  1  0  0  0  0
  4  3  1  0  0  0  0
  5  4  1  0  0  0  0
  5 20  1  0  0  0  0
  5 21  1  0  0  0  0
  6  5  1  0  0  0  0
  6 22  1  0  0  0  0
  6 23  1  0  0  0  0
  7  6  1  0  0  0  0
  8  7  1  0  0  0  0
  8 24  1  0  0  0  0
  8 25  1  0  0  0  0
  8 26  1  0  0  0  0
  9  1  1  0  0  0  0
  9 27  1  0  0  0  0
  9 28  1  0  0  0  0
 10  9  1  0  0  0  0
 10 29  1  0  0  0  0
 10 30  1  0  0  0  0
 11 10  1  0  0  0  0
 12 11  1  0  0  0  0
 12 31  1  0  0  0  0
 12 32  1  0  0  0  0
 13 12  1  0  0  0  0
 13 33  1  0  0  0  0
 13 34  1  0  0  0  0
 14 13  1  0  0  0  0
 15 14  1  0  0  0  0
 15 35  1  0  0  0  0
 15 36  1  0  0  0  0
 15 37  1  0  0  0  0
M  END
>  <DRUGBANK_ID>
DB14000

>  <COMMON_NAME>
Tetraglyme

>  <CAS_NUMBER>
143-24-8

>  <UNII>
78L136FLZ9

>  <SYNONYMS>
bis[2-(2-methoxyethoxy)ethyl] ether; dimethoxytetraethylene glycol; Glyme 5; TEGDME; tetraethylene glycol dimethyl ether

$$$$
