
 OpenBabel10282417072D

 23 24  0  0  0  0  0  0  0  0999 V2000
    3.2635   -0.5542    0.0000 O   0  5  0  0  0  0  0  0  0  0  0  0
    2.6504   -0.0021    0.0000 N   0  3  0  0  0  0  0  0  0  0  0  0
    2.8219    0.8047    0.0000 O   0  0  0  0  0  0  0  0  0  0  0  0
    1.8658   -0.2571    0.0000 C   0  0  0  0  0  0  0  0  0  0  0  0
    1.6109   -1.0417    0.0000 C   0  0  0  0  0  0  0  0  0  0  0  0
    0.7859   -1.0417    0.0000 C   0  0  0  0  0  0  0  0  0  0  0  0
    0.5309   -0.2571    0.0000 C   0  0  0  0  0  0  0  0  0  0  0  0
    1.1984    0.2277    0.0000 O   0  0  0  0  0  0  0  0  0  0  0  0
   -0.2536   -0.0021    0.0000 C   0  0  0  0  0  0  0  0  0  0  0  0
   -0.8667   -0.5542    0.0000 N   0  0  0  0  0  0  0  0  0  0  0  0
   -1.6513   -0.2992    0.0000 N   0  0  0  0  0  0  0  0  0  0  0  0
   -2.3188   -0.7842    0.0000 C   0  0  0  0  0  0  0  0  0  0  0  0
   -2.9862   -0.2992    0.0000 C   0  0  0  0  0  0  0  0  0  0  0  0
   -2.7313    0.4853    0.0000 O   0  0  0  0  0  0  0  0  0  0  0  0
   -1.9063    0.4853    0.0000 C   0  0  0  0  0  0  0  0  0  0  0  0
   -1.4213    1.1527    0.0000 O   0  0  0  0  0  0  0  0  0  0  0  0
    2.2175   -1.8766    0.0000 H   0  0  0  0  0  0  0  0  0  0  0  0
    0.1793   -1.8766    0.0000 H   0  0  0  0  0  0  0  0  0  0  0  0
   -0.4681    1.0074    0.0000 H   0  0  0  0  0  0  0  0  0  0  0  0
   -2.3188   -1.8542    0.0000 H   0  0  0  0  0  0  0  0  0  0  0  0
   -3.2722   -1.2699    0.0000 H   0  0  0  0  0  0  0  0  0  0  0  0
   -4.0038   -0.6298    0.0000 H   0  0  0  0  0  0  0  0  0  0  0  0
   -3.7428    0.4574    0.0000 H   0  0  0  0  0  0  0  0  0  0  0  0
  1  2  1  0  0  0  0
  2  3  2  0  0  0  0
  2  4  1  0  0  0  0
  4  5  2  0  0  0  0
  4  8  1  0  0  0  0
  5  6  1  0  0  0  0
  5 17  1  0  0  0  0
  6  7  2  0  0  0  0
  6 18  1  0  0  0  0
  7  8  1  0  0  0  0
  7  9  1  0  0  0  0
  9 10  2  0  0  0  0
  9 19  1  0  0  0  0
 10 11  1  0  0  0  0
 11 12  1  0  0  0  0
 11 15  1  0  0  0  0
 12 13  1  0  0  0  0
 12 20  1  0  0  0  0
 12 21  1  0  0  0  0
 13 14  1  0  0  0  0
 13 22  1  0  0  0  0
 13 23  1  0  0  0  0
 14 15  1  0  0  0  0
 15 16  2  0  0  0  0
M  CHG  2   1  -1   2   1
M  END
>  <DRUGBANK_ID>
DB00614

>  <SECONDARY_ACCESSION_NUMBERS>
APRD00988

>  <COMMON_NAME>
Furazolidone

>  <CAS_NUMBER>
67-45-8

>  <UNII>
5J9CPU3RE0

>  <SYNONYMS>
3-(5'-Nitrofurfuralamino)-2-oxazolidone; 3-[(5-Nitrofurfurylidene)amino]-2-oxazolidinone; 3-[(5-Nitrofurfurylidene)amino]-2-oxazolidone; 3-[(5-Nitrofurylidene)amino]-2-oxazolidone; 3-{[(5-nitro-2-furanyl)methylene]amino}-2-oxazolidinone; 5-Nitro-N-(2-oxo-3-oxazolidinyl)-2-furanmethanimine; Furazolidona; Furazolidone; Furazolidonum; FZL; N-(5-Nitro-2-furfurylidene)-3-amino-2-oxazolidone; N-(5-Nitro-2-furfurylidene)-3-aminooxazolidine-2-one; Nitrofurazolidone; Nitrofurazolidonum

$$$$
