
 OpenBabel10282417072D

120128  0  0  0  0  0  0  0  0999 V2000
   -2.3544    0.5462    0.0000 C   0  0  0  0  0  0  0  0  0  0  0  0
   -2.4413    1.3724    0.0000 C   0  0  0  0  0  0  0  0  0  0  0  0
   -3.1929    1.7059    0.0000 C   0  0  0  0  0  0  0  0  0  0  0  0
   -3.3647    2.5139    0.0000 C   0  0  0  0  0  0  0  0  0  0  0  0
   -4.1869    2.5995    0.0000 N   0  0  0  0  0  0  0  0  0  0  0  0
   -4.5246    1.8479    0.0000 C   0  0  0  0  0  0  0  0  0  0  0  0
   -3.9072    1.2946    0.0000 N   0  0  0  0  0  0  0  0  0  0  0  0
   -1.7719    1.8526    0.0000 C   0  0  0  0  0  0  0  0  0  0  0  0
   -1.0223    1.5155    0.0000 C   0  0  0  0  0  0  0  0  0  0  0  0
   -0.9361    0.6946    0.0000 C   0  0  0  0  0  0  0  0  0  0  0  0
   -1.6024    0.2130    0.0000 C   0  0  0  0  0  0  0  0  0  0  0  0
   -0.1272    0.5253    0.0000 N   0  0  0  0  0  0  0  0  0  0  0  0
    0.2835    1.2401    0.0000 C   0  0  0  0  0  0  0  0  0  0  0  0
   -0.2665    1.8493    0.0000 C   0  0  0  0  0  0  0  0  0  0  0  0
    1.1105    1.2401    0.0000 C   0  0  0  0  0  0  0  0  0  0  0  0
    1.5246    1.9513    0.0000 C   0  0  0  0  0  0  0  0  0  0  0  0
    2.3474    1.9512    0.0000 C   0  0  0  0  0  0  0  0  0  0  0  0
    2.7629    1.2440    0.0000 C   0  0  0  0  0  0  0  0  0  0  0  0
    2.3503    0.5249    0.0000 C   0  0  0  0  0  0  0  0  0  0  0  0
    1.5223    0.5249    0.0000 C   0  0  0  0  0  0  0  0  0  0  0  0
    1.1114   -0.1897    0.0000 O   0  0  0  0  0  0  0  0  0  0  0  0
    0.2843   -0.1897    0.0000 C   0  0  1  0  0  0  0  0  0  0  0  0
    3.5788    1.3298    0.0000 C   0  0  0  0  0  0  0  0  0  0  0  0
    4.1336    0.7127    0.0000 N   0  0  0  0  0  0  0  0  0  0  0  0
    4.8837    1.0502    0.0000 C   0  0  0  0  0  0  0  0  0  0  0  0
    4.7975    1.8701    0.0000 N   0  0  0  0  0  0  0  0  0  0  0  0
    3.9941    2.0397    0.0000 C   0  0  0  0  0  0  0  0  0  0  0  0
   -0.1286   -0.9040    0.0000 C   0  0  0  0  0  0  0  0  0  0  0  0
    0.2834   -1.6188    0.0000 C   0  0  0  0  0  0  0  0  0  0  0  0
   -0.9538   -0.9034    0.0000 C   0  0  0  0  0  0  0  0  0  0  0  0
   -0.1296   -2.3331    0.0000 C   0  0  0  0  0  0  0  0  0  0  0  0
   -1.3668   -1.6177    0.0000 C   0  0  0  0  0  0  0  0  0  0  0  0
   -0.9547   -2.3325    0.0000 C   0  0  0  0  0  0  0  0  0  0  0  0
    5.5991    0.6391    0.0000 C   0  0  2  0  0  0  0  0  0  0  0  0
    6.3521    0.9762    0.0000 C   0  0  0  0  0  0  0  0  0  0  0  0
    5.6870   -0.1812    0.0000 N   0  0  0  0  0  0  0  0  0  0  0  0
    6.9056    0.3642    0.0000 C   0  0  0  0  0  0  0  0  0  0  0  0
    6.4945   -0.3511    0.0000 C   0  0  0  0  0  0  0  0  0  0  0  0
    5.0755   -0.7341    0.0000 C   0  0  0  0  0  0  0  0  0  0  0  0
    4.2908   -0.4809    0.0000 O   0  0  0  0  0  0  0  0  0  0  0  0
    5.2485   -1.5402    0.0000 C   0  0  1  0  0  0  0  0  0  0  0  0
    4.6369   -2.0930    0.0000 N   0  0  0  0  0  0  0  0  0  0  0  0
    3.8517   -1.8397    0.0000 C   0  0  0  0  0  0  0  0  0  0  0  0
    3.6785   -1.0330    0.0000 O   0  0  0  0  0  0  0  0  0  0  0  0
    3.2396   -2.3929    0.0000 O   0  0  0  0  0  0  0  0  0  0  0  0
    2.4545   -2.1396    0.0000 C   0  0  0  0  0  0  0  0  0  0  0  0
    6.0331   -1.7934    0.0000 C   0  0  0  0  0  0  0  0  0  0  0  0
    6.2062   -2.5995    0.0000 C   0  0  0  0  0  0  0  0  0  0  0  0
    6.6446   -1.2405    0.0000 C   0  0  0  0  0  0  0  0  0  0  0  0
    5.5935    1.5014    0.0000 H   0  0  0  0  0  0  0  0  0  0  0  0
   -5.3317    1.6768    0.0000 C   0  0  1  0  0  0  0  0  0  0  0  0
   -5.6677    0.9233    0.0000 N   0  0  0  0  0  0  0  0  0  0  0  0
   -5.9446    2.2292    0.0000 C   0  0  0  0  0  0  0  0  0  0  0  0
   -6.4882    1.0099    0.0000 C   0  0  0  0  0  0  0  0  0  0  0  0
   -6.6594    1.8169    0.0000 C   0  0  0  0  0  0  0  0  0  0  0  0
   -5.2559    0.2090    0.0000 C   0  0  0  0  0  0  0  0  0  0  0  0
   -5.6685   -0.5047    0.0000 C   0  0  2  0  0  0  0  0  0  0  0  0
   -4.4315    0.2086    0.0000 O   0  0  0  0  0  0  0  0  0  0  0  0
   -6.4929   -0.5042    0.0000 C   0  0  0  0  0  0  0  0  0  0  0  0
   -6.9048    0.2099    0.0000 C   0  0  0  0  0  0  0  0  0  0  0  0
   -6.9056   -1.2180    0.0000 C   0  0  0  0  0  0  0  0  0  0  0  0
   -5.2566   -1.2188    0.0000 N   0  0  0  0  0  0  0  0  0  0  0  0
   -4.4316   -1.2192    0.0000 C   0  0  0  0  0  0  0  0  0  0  0  0
   -4.0186   -0.5050    0.0000 O   0  0  0  0  0  0  0  0  0  0  0  0
   -4.0195   -1.9341    0.0000 O   0  0  0  0  0  0  0  0  0  0  0  0
   -3.1943   -1.9345    0.0000 C   0  0  0  0  0  0  0  0  0  0  0  0
   -5.2690    2.4975    0.0000 H   0  0  0  0  0  0  0  0  0  0  0  0
   -3.1887   -0.0612    0.0000 H   0  0  0  0  0  0  0  0  0  0  0  0
   -2.6746    3.2812    0.0000 H   0  0  0  0  0  0  0  0  0  0  0  0
   -4.0095    0.3154    0.0000 H   0  0  0  0  0  0  0  0  0  0  0  0
   -1.8748    2.8795    0.0000 H   0  0  0  0  0  0  0  0  0  0  0  0
   -1.4949   -0.8134    0.0000 H   0  0  0  0  0  0  0  0  0  0  0  0
   -0.0511    2.8586    0.0000 H   0  0  0  0  0  0  0  0  0  0  0  0
    1.0103    2.8460    0.0000 H   0  0  0  0  0  0  0  0  0  0  0  0
    2.8601    2.8469    0.0000 H   0  0  0  0  0  0  0  0  0  0  0  0
    2.8675   -0.3681    0.0000 H   0  0  0  0  0  0  0  0  0  0  0  0
    0.8191   -1.1165    0.0000 H   0  0  0  0  0  0  0  0  0  0  0  0
    3.9304   -0.2506    0.0000 H   0  0  0  0  0  0  0  0  0  0  0  0
    3.5764    2.9834    0.0000 H   0  0  0  0  0  0  0  0  0  0  0  0
    1.3154   -1.6195    0.0000 H   0  0  0  0  0  0  0  0  0  0  0  0
   -1.4692   -0.0093    0.0000 H   0  0  0  0  0  0  0  0  0  0  0  0
    0.3858   -3.2272    0.0000 H   0  0  0  0  0  0  0  0  0  0  0  0
   -2.3988   -1.6171    0.0000 H   0  0  0  0  0  0  0  0  0  0  0  0
   -1.4713   -3.2259    0.0000 H   0  0  0  0  0  0  0  0  0  0  0  0
    6.5723    2.0233    0.0000 H   0  0  0  0  0  0  0  0  0  0  0  0
    7.3850    1.2554    0.0000 H   0  0  0  0  0  0  0  0  0  0  0  0
    7.9695    0.4783    0.0000 H   0  0  0  0  0  0  0  0  0  0  0  0
    7.4902   -0.5320    0.0000 H   0  0  0  0  0  0  0  0  0  0  0  0
    6.9317   -1.3277    0.0000 H   0  0  0  0  0  0  0  0  0  0  0  0
    7.5631   -0.4050    0.0000 H   0  0  0  0  0  0  0  0  0  0  0  0
    6.0422   -0.8227    0.0000 H   0  0  0  0  0  0  0  0  0  0  0  0
    4.8435   -3.0556    0.0000 H   0  0  0  0  0  0  0  0  0  0  0  0
    2.2299   -1.0934    0.0000 H   0  0  0  0  0  0  0  0  0  0  0  0
    1.6608   -2.8572    0.0000 H   0  0  0  0  0  0  0  0  0  0  0  0
    1.4362   -1.8111    0.0000 H   0  0  0  0  0  0  0  0  0  0  0  0
    7.0514   -2.1219    0.0000 H   0  0  0  0  0  0  0  0  0  0  0  0
    5.4125   -3.3171    0.0000 H   0  0  0  0  0  0  0  0  0  0  0  0
    7.2245   -2.9280    0.0000 H   0  0  0  0  0  0  0  0  0  0  0  0
    6.4308   -3.6457    0.0000 H   0  0  0  0  0  0  0  0  0  0  0  0
    7.6629   -1.5690    0.0000 H   0  0  0  0  0  0  0  0  0  0  0  0
    6.4200   -0.1943    0.0000 H   0  0  0  0  0  0  0  0  0  0  0  0
    7.4383   -0.5229    0.0000 H   0  0  0  0  0  0  0  0  0  0  0  0
   -5.8323    3.2933    0.0000 H   0  0  0  0  0  0  0  0  0  0  0  0
   -6.8417    2.8123    0.0000 H   0  0  0  0  0  0  0  0  0  0  0  0
   -7.2045    0.2150    0.0000 H   0  0  0  0  0  0  0  0  0  0  0  0
   -7.5216    1.2873    0.0000 H   0  0  0  0  0  0  0  0  0  0  0  0
   -7.6367    2.2525    0.0000 H   0  0  0  0  0  0  0  0  0  0  0  0
   -7.4912    1.1439    0.0000 H   0  0  0  0  0  0  0  0  0  0  0  0
   -6.2030    0.4223    0.0000 H   0  0  0  0  0  0  0  0  0  0  0  0
   -7.5629   -0.5037    0.0000 H   0  0  0  0  0  0  0  0  0  0  0  0
   -6.3694    1.1363    0.0000 H   0  0  0  0  0  0  0  0  0  0  0  0
   -7.9748    0.2103    0.0000 H   0  0  0  0  0  0  0  0  0  0  0  0
   -7.4394    1.1368    0.0000 H   0  0  0  0  0  0  0  0  0  0  0  0
   -7.9756   -1.2173    0.0000 H   0  0  0  0  0  0  0  0  0  0  0  0
   -6.3712   -2.1450    0.0000 H   0  0  0  0  0  0  0  0  0  0  0  0
   -7.4412   -2.1443    0.0000 H   0  0  0  0  0  0  0  0  0  0  0  0
   -5.7492   -2.0712    0.0000 H   0  0  0  0  0  0  0  0  0  0  0  0
   -2.6597   -2.8614    0.0000 H   0  0  0  0  0  0  0  0  0  0  0  0
   -2.6589   -1.0081    0.0000 H   0  0  0  0  0  0  0  0  0  0  0  0
   -2.1243   -1.9350    0.0000 H   0  0  0  0  0  0  0  0  0  0  0  0
  1  2  1  0  0  0  0
  1 68  1  0  0  0  0
  2  3  1  0  0  0  0
  2  8  2  0  0  0  0
  4  3  2  0  0  0  0
  4  5  1  0  0  0  0
  4 69  1  0  0  0  0
  5  6  2  0  0  0  0
  6  7  1  0  0  0  0
  6 51  1  0  0  0  0
  7  3  1  0  0  0  0
  7 70  1  0  0  0  0
  8  9  1  0  0  0  0
  8 71  1  0  0  0  0
  9 10  2  0  0  0  0
  9 14  1  0  0  0  0
 10 11  1  0  0  0  0
 10 12  1  0  0  0  0
 11  1  2  0  0  0  0
 11 72  1  0  0  0  0
 12 22  1  0  0  0  0
 13 12  1  0  0  0  0
 13 15  1  0  0  0  0
 14 13  2  0  0  0  0
 14 73  1  0  0  0  0
 15 16  1  0  0  0  0
 16 74  1  0  0  0  0
 17 16  2  0  0  0  0
 17 75  1  0  0  0  0
 18 17  1  0  0  0  0
 18 23  1  0  0  0  0
 19 18  2  0  0  0  0
 19 76  1  0  0  0  0
 20 19  1  0  0  0  0
 20 15  2  0  0  0  0
 21 20  1  0  0  0  0
 22 21  1  0  0  0  0
 22 28  1  0  0  0  0
 22 77  1  6  0  0  0
 24 23  1  0  0  0  0
 24 25  1  0  0  0  0
 24 78  1  0  0  0  0
 25 26  2  0  0  0  0
 25 34  1  0  0  0  0
 26 27  1  0  0  0  0
 27 23  2  0  0  0  0
 27 79  1  0  0  0  0
 29 28  1  0  0  0  0
 29 80  1  0  0  0  0
 30 28  2  0  0  0  0
 30 81  1  0  0  0  0
 31 29  2  0  0  0  0
 31 82  1  0  0  0  0
 32 30  1  0  0  0  0
 32 83  1  0  0  0  0
 33 31  1  0  0  0  0
 33 32  2  0  0  0  0
 33 84  1  0  0  0  0
 34 50  1  1  0  0  0
 35 34  1  0  0  0  0
 35 85  1  0  0  0  0
 35 86  1  0  0  0  0
 36 34  1  0  0  0  0
 36 39  1  0  0  0  0
 37 35  1  0  0  0  0
 37 87  1  0  0  0  0
 37 88  1  0  0  0  0
 38 36  1  0  0  0  0
 38 37  1  0  0  0  0
 38 89  1  0  0  0  0
 38 90  1  0  0  0  0
 39 40  2  0  0  0  0
 39 41  1  0  0  0  0
 41 42  1  0  0  0  0
 41 47  1  0  0  0  0
 41 91  1  1  0  0  0
 42 43  1  0  0  0  0
 42 92  1  0  0  0  0
 44 43  2  0  0  0  0
 45 43  1  0  0  0  0
 46 45  1  0  0  0  0
 46 93  1  0  0  0  0
 46 94  1  0  0  0  0
 46 95  1  0  0  0  0
 47 48  1  0  0  0  0
 47 49  1  0  0  0  0
 47 96  1  0  0  0  0
 48 97  1  0  0  0  0
 48 98  1  0  0  0  0
 48 99  1  0  0  0  0
 49100  1  0  0  0  0
 49101  1  0  0  0  0
 49102  1  0  0  0  0
 51 67  1  6  0  0  0
 52 51  1  0  0  0  0
 52 56  1  0  0  0  0
 53 51  1  0  0  0  0
 53103  1  0  0  0  0
 53104  1  0  0  0  0
 54 52  1  0  0  0  0
 54105  1  0  0  0  0
 54106  1  0  0  0  0
 55 53  1  0  0  0  0
 55 54  1  0  0  0  0
 55107  1  0  0  0  0
 55108  1  0  0  0  0
 56 57  1  0  0  0  0
 56 58  2  0  0  0  0
 57 59  1  0  0  0  0
 57 62  1  0  0  0  0
 57109  1  6  0  0  0
 59 60  1  0  0  0  0
 59 61  1  0  0  0  0
 59110  1  0  0  0  0
 60111  1  0  0  0  0
 60112  1  0  0  0  0
 60113  1  0  0  0  0
 61114  1  0  0  0  0
 61115  1  0  0  0  0
 61116  1  0  0  0  0
 62 63  1  0  0  0  0
 62117  1  0  0  0  0
 64 63  2  0  0  0  0
 65 63  1  0  0  0  0
 66 65  1  0  0  0  0
 66118  1  0  0  0  0
 66119  1  0  0  0  0
 66120  1  0  0  0  0
M  END
>  <DRUGBANK_ID>
DB11574

>  <COMMON_NAME>
Elbasvir

>  <CAS_NUMBER>
1370468-36-2

>  <UNII>
632L571YDK

>  <SYNONYMS>
Elbasvir

$$$$
