
 OpenBabel10282417072D

 51 52  0  0  0  0  0  0  0  0999 V2000
   -0.9406    0.1352    0.0000 C   0  0  0  0  0  0  0  0  0  0  0  0
   -0.9406   -0.6897    0.0000 C   0  0  0  0  0  0  0  0  0  0  0  0
   -1.6551    0.5477    0.0000 C   0  0  0  0  0  0  0  0  0  0  0  0
   -0.2261    0.5477    0.0000 C   0  0  0  0  0  0  0  0  0  0  0  0
   -1.6551   -1.1022    0.0000 C   0  0  0  0  0  0  0  0  0  0  0  0
   -0.2261   -1.1022    0.0000 O   0  0  0  0  0  0  0  0  0  0  0  0
   -2.3695    0.1352    0.0000 C   0  0  0  0  0  0  0  0  0  0  0  0
    0.4882    0.1352    0.0000 N   0  0  0  0  0  0  0  0  0  0  0  0
   -0.2261    1.3727    0.0000 O   0  0  0  0  0  0  0  0  0  0  0  0
   -2.3695   -0.6897    0.0000 C   0  0  0  0  0  0  0  0  0  0  0  0
   -1.6551   -1.9272    0.0000 O   0  0  0  0  0  0  0  0  0  0  0  0
   -0.2261   -1.9272    0.0000 C   0  0  0  0  0  0  0  0  0  0  0  0
   -3.0840    0.5477    0.0000 S   0  0  0  0  0  0  0  0  0  0  0  0
    1.2027    0.5477    0.0000 C   0  0  0  0  0  0  0  0  0  0  0  0
   -2.3695   -2.3397    0.0000 C   0  0  0  0  0  0  0  0  0  0  0  0
   -3.7985    0.9602    0.0000 N   0  0  0  0  0  0  0  0  0  0  0  0
   -3.4965   -0.1667    0.0000 O   0  0  0  0  0  0  0  0  0  0  0  0
   -2.6715    1.2621    0.0000 O   0  0  0  0  0  0  0  0  0  0  0  0
    1.9172    0.1352    0.0000 C   0  0  3  0  0  0  0  0  0  0  0  0
    2.6709    0.4707    0.0000 N   0  0  0  0  0  0  0  0  0  0  0  0
    2.0034   -0.6852    0.0000 C   0  0  0  0  0  0  0  0  0  0  0  0
    3.2229   -0.1423    0.0000 C   0  0  0  0  0  0  0  0  0  0  0  0
    2.8424    1.2777    0.0000 C   0  0  0  0  0  0  0  0  0  0  0  0
    2.8104   -0.8568    0.0000 C   0  0  0  0  0  0  0  0  0  0  0  0
    3.6270    1.5326    0.0000 C   0  0  0  0  0  0  0  0  0  0  0  0
    3.7985    2.3396    0.0000 C   0  0  0  0  0  0  0  0  0  0  0  0
   -1.6551    1.5797    0.0000 H   0  0  0  0  0  0  0  0  0  0  0  0
    0.4881   -0.8493    0.0000 H   0  0  0  0  0  0  0  0  0  0  0  0
   -3.2632   -1.2057    0.0000 H   0  0  0  0  0  0  0  0  0  0  0  0
   -1.1527   -2.4622    0.0000 H   0  0  0  0  0  0  0  0  0  0  0  0
    0.7005   -2.4622    0.0000 H   0  0  0  0  0  0  0  0  0  0  0  0
   -0.2261   -2.9972    0.0000 H   0  0  0  0  0  0  0  0  0  0  0  0
    1.2027    1.6177    0.0000 H   0  0  0  0  0  0  0  0  0  0  0  0
    2.1293    1.0827    0.0000 H   0  0  0  0  0  0  0  0  0  0  0  0
   -3.2962   -1.8047    0.0000 H   0  0  0  0  0  0  0  0  0  0  0  0
   -2.3695   -3.4097    0.0000 H   0  0  0  0  0  0  0  0  0  0  0  0
   -3.2961   -2.8747    0.0000 H   0  0  0  0  0  0  0  0  0  0  0  0
   -3.7985    1.9802    0.0000 H   0  0  0  0  0  0  0  0  0  0  0  0
   -4.6818    0.4502    0.0000 H   0  0  0  0  0  0  0  0  0  0  0  0
    1.9732    1.2037    0.0000 H   0  0  0  0  0  0  0  0  0  0  0  0
    1.2082   -1.4011    0.0000 H   0  0  0  0  0  0  0  0  0  0  0  0
    2.2803   -1.7188    0.0000 H   0  0  0  0  0  0  0  0  0  0  0  0
    4.2870   -0.0304    0.0000 H   0  0  0  0  0  0  0  0  0  0  0  0
    3.8057   -1.0397    0.0000 H   0  0  0  0  0  0  0  0  0  0  0  0
    2.0472    1.9937    0.0000 H   0  0  0  0  0  0  0  0  0  0  0  0
    3.0649    2.3243    0.0000 H   0  0  0  0  0  0  0  0  0  0  0  0
    3.2456   -1.8343    0.0000 H   0  0  0  0  0  0  0  0  0  0  0  0
    3.8789   -0.9128    0.0000 H   0  0  0  0  0  0  0  0  0  0  0  0
    4.3939    0.8421    0.0000 H   0  0  0  0  0  0  0  0  0  0  0  0
    4.7800    2.6585    0.0000 H   0  0  0  0  0  0  0  0  0  0  0  0
    3.0315    3.0301    0.0000 H   0  0  0  0  0  0  0  0  0  0  0  0
  1  2  2  0  0  0  0
  1  3  1  0  0  0  0
  1  4  1  0  0  0  0
  2  5  1  0  0  0  0
  2  6  1  0  0  0  0
  3  7  2  0  0  0  0
  3 27  1  0  0  0  0
  4  8  1  0  0  0  0
  4  9  2  0  0  0  0
  5 10  2  0  0  0  0
  5 11  1  0  0  0  0
  6 12  1  0  0  0  0
  7 13  1  0  0  0  0
  7 10  1  0  0  0  0
  8 14  1  0  0  0  0
  8 28  1  0  0  0  0
 10 29  1  0  0  0  0
 11 15  1  0  0  0  0
 12 30  1  0  0  0  0
 12 31  1  0  0  0  0
 12 32  1  0  0  0  0
 13 16  1  0  0  0  0
 13 17  2  0  0  0  0
 13 18  2  0  0  0  0
 14 19  1  0  0  0  0
 14 33  1  0  0  0  0
 14 34  1  0  0  0  0
 15 35  1  0  0  0  0
 15 36  1  0  0  0  0
 15 37  1  0  0  0  0
 16 38  1  0  0  0  0
 16 39  1  0  0  0  0
 19 20  1  0  0  0  0
 19 21  1  0  0  0  0
 19 40  1  0  0  0  0
 20 22  1  0  0  0  0
 20 23  1  0  0  0  0
 21 24  1  0  0  0  0
 21 41  1  0  0  0  0
 21 42  1  0  0  0  0
 22 24  1  0  0  0  0
 22 43  1  0  0  0  0
 22 44  1  0  0  0  0
 23 25  1  0  0  0  0
 23 45  1  0  0  0  0
 23 46  1  0  0  0  0
 24 47  1  0  0  0  0
 24 48  1  0  0  0  0
 25 26  2  0  0  0  0
 25 49  1  0  0  0  0
 26 50  1  0  0  0  0
 26 51  1  0  0  0  0
M  END
>  <DRUGBANK_ID>
DB13523

>  <COMMON_NAME>
Veralipride

>  <CAS_NUMBER>
66644-81-3

>  <UNII>
S7064109UD

>  <SYNONYMS>
Veraliprida; Veralipride; Veralipridum

$$$$
