4827
 OpenBabel10282417072D

 13 12  0  0  0  0  0  0  0  0999 V2000
    3.0791    0.3630    0.0000 O   0  0  0  0  0  0  0  0  0  0  0  0
    3.7935   -0.8745    0.0000 O   0  0  0  0  0  0  0  0  0  0  0  0
    4.5080    0.3630    0.0000 N   0  0  0  0  0  0  0  0  0  0  0  0
    2.3645   -0.0495    0.0000 C   0  0  0  0  0  0  0  0  0  0  0  0
    1.6500    0.3630    0.0000 C   0  0  0  0  0  0  0  0  0  0  0  0
    3.7935   -0.0495    0.0000 C   0  0  0  0  0  0  0  0  0  0  0  0
    5.3606   -0.1293    0.0000 H   0  0  0  0  0  0  0  0  0  0  0  0
    4.5080    1.3475    0.0000 H   0  0  0  0  0  0  0  0  0  0  0  0
    2.3645   -1.1195    0.0000 H   0  0  0  0  0  0  0  0  0  0  0  0
    1.4378   -0.5845    0.0000 H   0  0  0  0  0  0  0  0  0  0  0  0
    1.6500    1.4330    0.0000 H   0  0  0  0  0  0  0  0  0  0  0  0
    0.7234   -0.1720    0.0000 H   0  0  0  0  0  0  0  0  0  0  0  0
    0.7233    0.8980    0.0000 H   0  0  0  0  0  0  0  0  0  0  0  0
  1  4  1  0  0  0  0
  1  6  1  0  0  0  0
  2  6  2  0  0  0  0
  3  6  1  0  0  0  0
  3  7  1  0  0  0  0
  3  8  1  0  0  0  0
  4  5  1  0  0  0  0
  4  9  1  0  0  0  0
  4 10  1  0  0  0  0
  5 11  1  0  0  0  0
  5 12  1  0  0  0  0
  5 13  1  0  0  0  0
M  END
>  <DRUGBANK_ID>
DB04827

>  <COMMON_NAME>
Urethane

>  <CAS_NUMBER>
51-79-6

>  <UNII>
3IN71E75Z5

>  <SYNONYMS>
Aethylcarbamat; Aethylurethan; Carbamic acid ethyl ester; Carbamidsaeure-aethylester; Ethyl carbamate; Ethylester kyseliny karbaminove; Uretan etylowy; Uretano; Urethan; Urethane; Urethanum

$$$$
