SBB
 OpenBabel10282417072D

 47 49  0  0  0  0  0  0  0  0999 V2000
   -2.4211    0.7752    0.0000 C   0  0  0  0  0  0  0  0  0  0  0  0
   -2.8336    1.4897    0.0000 C   0  0  0  0  0  0  0  0  0  0  0  0
   -2.4211    2.2041    0.0000 C   0  0  0  0  0  0  0  0  0  0  0  0
   -1.5961    2.2041    0.0000 C   0  0  0  0  0  0  0  0  0  0  0  0
   -1.1836    1.4897    0.0000 C   0  0  0  0  0  0  0  0  0  0  0  0
   -1.5961    0.7752    0.0000 C   0  0  0  0  0  0  0  0  0  0  0  0
   -1.1836    0.0607    0.0000 C   0  0  0  0  0  0  0  0  0  0  0  0
   -1.5961   -0.6537    0.0000 O   0  0  0  0  0  0  0  0  0  0  0  0
   -0.3586    0.0607    0.0000 N   0  0  0  0  0  0  0  0  0  0  0  0
    0.0539   -0.6537    0.0000 C   0  0  0  0  0  0  0  0  0  0  0  0
    0.8789   -0.6537    0.0000 C   0  0  1  0  0  0  0  0  0  0  0  0
    1.2914    0.0607    0.0000 C   0  0  0  0  0  0  0  0  0  0  0  0
    2.1164    0.0607    0.0000 C   0  0  0  0  0  0  0  0  0  0  0  0
   -2.8336    2.9186    0.0000 S   0  0  0  0  0  0  0  0  0  0  0  0
   -3.2461    3.6331    0.0000 N   0  0  0  0  0  0  0  0  0  0  0  0
   -3.5481    2.5061    0.0000 O   0  0  0  0  0  0  0  0  0  0  0  0
   -2.1191    3.3311    0.0000 O   0  0  0  0  0  0  0  0  0  0  0  0
    3.3359   -2.2542    0.0000 C   0  0  0  0  0  0  0  0  0  0  0  0
    3.4221   -3.0747    0.0000 C   0  0  0  0  0  0  0  0  0  0  0  0
    2.5289   -2.0827    0.0000 C   0  0  0  0  0  0  0  0  0  0  0  0
    2.6685   -3.4102    0.0000 N   0  0  0  0  0  0  0  0  0  0  0  0
    2.1164   -2.7972    0.0000 C   0  0  0  0  0  0  0  0  0  0  0  0
    2.1164   -1.3682    0.0000 C   0  0  0  0  0  0  0  0  0  0  0  0
    1.2914   -2.7972    0.0000 C   0  0  0  0  0  0  0  0  0  0  0  0
    1.2914   -1.3682    0.0000 C   0  0  0  0  0  0  0  0  0  0  0  0
    0.8789   -2.0827    0.0000 C   0  0  0  0  0  0  0  0  0  0  0  0
    0.5870   -0.1480    0.0000 H   0  0  0  0  0  0  0  0  0  0  0  0
   -2.9371   -0.1185    0.0000 H   0  0  0  0  0  0  0  0  0  0  0  0
   -3.8656    1.4897    0.0000 H   0  0  0  0  0  0  0  0  0  0  0  0
   -1.0801    3.0978    0.0000 H   0  0  0  0  0  0  0  0  0  0  0  0
   -0.1516    1.4897    0.0000 H   0  0  0  0  0  0  0  0  0  0  0  0
    0.1336    0.9133    0.0000 H   0  0  0  0  0  0  0  0  0  0  0  0
   -0.4811   -1.5804    0.0000 H   0  0  0  0  0  0  0  0  0  0  0  0
    0.5889   -1.5803    0.0000 H   0  0  0  0  0  0  0  0  0  0  0  0
    0.7564    0.9874    0.0000 H   0  0  0  0  0  0  0  0  0  0  0  0
    1.8264    0.9873    0.0000 H   0  0  0  0  0  0  0  0  0  0  0  0
    2.6514   -0.8659    0.0000 H   0  0  0  0  0  0  0  0  0  0  0  0
    2.6514    0.9873    0.0000 H   0  0  0  0  0  0  0  0  0  0  0  0
    3.1864    0.0607    0.0000 H   0  0  0  0  0  0  0  0  0  0  0  0
   -2.7361    4.5164    0.0000 H   0  0  0  0  0  0  0  0  0  0  0  0
   -4.2661    3.6331    0.0000 H   0  0  0  0  0  0  0  0  0  0  0  0
    4.1028   -1.5637    0.0000 H   0  0  0  0  0  0  0  0  0  0  0  0
    4.3158   -3.5907    0.0000 H   0  0  0  0  0  0  0  0  0  0  0  0
    2.4639   -4.3732    0.0000 H   0  0  0  0  0  0  0  0  0  0  0  0
    2.6324   -0.4745    0.0000 H   0  0  0  0  0  0  0  0  0  0  0  0
    0.7754   -3.6909    0.0000 H   0  0  0  0  0  0  0  0  0  0  0  0
   -0.1531   -2.0827    0.0000 H   0  0  0  0  0  0  0  0  0  0  0  0
  1  2  2  0  0  0  0
  1  6  1  0  0  0  0
  1 28  1  0  0  0  0
  2  3  1  0  0  0  0
  2 29  1  0  0  0  0
  3  4  2  0  0  0  0
  3 14  1  0  0  0  0
  4  5  1  0  0  0  0
  4 30  1  0  0  0  0
  5  6  2  0  0  0  0
  5 31  1  0  0  0  0
  6  7  1  0  0  0  0
  7  8  2  0  0  0  0
  7  9  1  0  0  0  0
  9 10  1  0  0  0  0
  9 32  1  0  0  0  0
 10 11  1  0  0  0  0
 10 33  1  0  0  0  0
 10 34  1  0  0  0  0
 11 12  1  0  0  0  0
 11 25  1  0  0  0  0
 11 27  1  6  0  0  0
 12 13  1  0  0  0  0
 12 35  1  0  0  0  0
 12 36  1  0  0  0  0
 13 37  1  0  0  0  0
 13 38  1  0  0  0  0
 13 39  1  0  0  0  0
 14 15  1  0  0  0  0
 14 16  2  0  0  0  0
 14 17  2  0  0  0  0
 15 40  1  0  0  0  0
 15 41  1  0  0  0  0
 18 19  2  0  0  0  0
 18 20  1  0  0  0  0
 18 42  1  0  0  0  0
 19 21  1  0  0  0  0
 19 43  1  0  0  0  0
 20 22  2  0  0  0  0
 20 23  1  0  0  0  0
 21 22  1  0  0  0  0
 21 44  1  0  0  0  0
 22 24  1  0  0  0  0
 23 25  2  0  0  0  0
 23 45  1  0  0  0  0
 24 26  2  0  0  0  0
 24 46  1  0  0  0  0
 25 26  1  0  0  0  0
 26 47  1  0  0  0  0
M  END
>  <DRUGBANK_ID>
DB03596

>  <SECONDARY_ACCESSION_NUMBERS>
EXPT02851

>  <COMMON_NAME>
N-[2-(1h-Indol-5-Yl)-Butyl]-4-Sulfamoyl-Benzamide

$$$$
