
 OpenBabel10282417072D

 17 17  0  0  0  0  0  0  0  0999 V2000
   -0.3573   -0.1510    0.0000 C   0  0  0  0  0  0  0  0  0  0  0  0
   -0.3573    0.6741    0.0000 O   0  0  0  0  0  0  0  0  0  0  0  0
    0.3571   -0.5635    0.0000 C   0  0  0  0  0  0  0  0  0  0  0  0
   -1.0717   -0.5635    0.0000 C   0  0  0  0  0  0  0  0  0  0  0  0
    0.3571    1.0866    0.0000 S   0  0  0  0  0  0  0  0  0  0  0  0
    0.3571   -1.3886    0.0000 C   0  0  0  0  0  0  0  0  0  0  0  0
   -1.0717   -1.3886    0.0000 C   0  0  0  0  0  0  0  0  0  0  0  0
    0.7697    0.3720    0.0000 O   0  0  0  0  0  0  0  0  0  0  0  0
   -0.0553    1.8011    0.0000 O   0  0  0  0  0  0  0  0  0  0  0  0
    1.0717    1.4991    0.0000 O   0  0  0  0  0  0  0  0  0  0  0  0
   -0.3573   -1.8011    0.0000 C   0  0  0  0  0  0  0  0  0  0  0  0
    1.2508   -0.0475    0.0000 H   0  0  0  0  0  0  0  0  0  0  0  0
   -1.9654   -0.0475    0.0000 H   0  0  0  0  0  0  0  0  0  0  0  0
    1.2508   -1.9046    0.0000 H   0  0  0  0  0  0  0  0  0  0  0  0
   -1.9654   -1.9046    0.0000 H   0  0  0  0  0  0  0  0  0  0  0  0
    1.9117    1.0140    0.0000 H   0  0  0  0  0  0  0  0  0  0  0  0
   -0.3573   -2.8331    0.0000 H   0  0  0  0  0  0  0  0  0  0  0  0
  1  2  1  0  0  0  0
  1  3  2  0  0  0  0
  1  4  1  0  0  0  0
  2  5  1  0  0  0  0
  3  6  1  0  0  0  0
  3 12  1  0  0  0  0
  4  7  2  0  0  0  0
  4 13  1  0  0  0  0
  5  8  2  0  0  0  0
  5  9  2  0  0  0  0
  5 10  1  0  0  0  0
  6 11  2  0  0  0  0
  6 14  1  0  0  0  0
  7 11  1  0  0  0  0
  7 15  1  0  0  0  0
 10 16  1  0  0  0  0
 11 17  1  0  0  0  0
M  END
>  <DRUGBANK_ID>
DB14667

>  <SECONDARY_ACCESSION_NUMBERS>
DBSALT002236

>  <COMMON_NAME>
Phenyl hydrogen sulfate

>  <CAS_NUMBER>
937-34-8

>  <UNII>
2L4RKM5351

>  <SYNONYMS>
Phenol sulfate; Phenylsulfate

$$$$
