
 OpenBabel10282417072D

 39 42  0  0  0  0  0  0  0  0999 V2000
   -0.1343   -0.6297    0.0000 N   0  0  0  0  0  0  0  0  0  0  0  0
   -1.4814   -1.5635    0.0000 N   0  0  0  0  0  0  0  0  0  0  0  0
    1.1753   -0.8565    0.0000 N   0  0  0  0  0  0  0  0  0  0  0  0
   -0.8480   -0.2860    0.0000 C   0  0  2  0  0  0  0  0  0  0  0  0
   -1.5368   -0.7404    0.0000 C   0  0  0  0  0  0  0  0  0  0  0  0
   -0.0600   -1.4514    0.0000 C   0  0  0  0  0  0  0  0  0  0  0  0
   -0.7381   -1.9214    0.0000 C   0  0  0  0  0  0  0  0  0  0  0  0
   -1.0242    0.4860    0.0000 C   0  0  0  0  0  0  0  0  0  0  0  0
    0.5792   -0.2860    0.0000 C   0  0  0  0  0  0  0  0  0  0  0  0
   -0.5304    1.1053    0.0000 C   0  0  0  0  0  0  0  0  0  0  0  0
    0.2616    1.1053    0.0000 C   0  0  0  0  0  0  0  0  0  0  0  0
    0.7555    0.4860    0.0000 C   0  0  0  0  0  0  0  0  0  0  0  0
   -2.1375   -2.0071    0.0000 C   0  0  0  0  0  0  0  0  0  0  0  0
   -1.8418    0.5964    0.0000 C   0  0  0  0  0  0  0  0  0  0  0  0
   -0.8199    1.8779    0.0000 C   0  0  0  0  0  0  0  0  0  0  0  0
    1.5400    0.7413    0.0000 C   0  0  0  0  0  0  0  0  0  0  0  0
   -2.1492    1.3621    0.0000 C   0  0  0  0  0  0  0  0  0  0  0  0
   -1.6348    2.0071    0.0000 C   0  0  0  0  0  0  0  0  0  0  0  0
    2.1492    0.1848    0.0000 C   0  0  0  0  0  0  0  0  0  0  0  0
    1.9656   -0.6195    0.0000 C   0  0  0  0  0  0  0  0  0  0  0  0
   -1.4360   -0.0500    0.0000 H   0  0  0  0  0  0  0  0  0  0  0  0
   -2.4955   -0.2652    0.0000 H   0  0  0  0  0  0  0  0  0  0  0  0
   -1.6025    0.3276    0.0000 H   0  0  0  0  0  0  0  0  0  0  0  0
    0.9093   -1.9045    0.0000 H   0  0  0  0  0  0  0  0  0  0  0  0
    0.0302   -2.5176    0.0000 H   0  0  0  0  0  0  0  0  0  0  0  0
   -0.6540   -2.9881    0.0000 H   0  0  0  0  0  0  0  0  0  0  0  0
    0.2286   -2.3801    0.0000 H   0  0  0  0  0  0  0  0  0  0  0  0
    0.7258    2.0693    0.0000 H   0  0  0  0  0  0  0  0  0  0  0  0
    1.3249    1.2251    0.0000 H   0  0  0  0  0  0  0  0  0  0  0  0
   -3.0997   -1.5391    0.0000 H   0  0  0  0  0  0  0  0  0  0  0  0
   -2.0617   -3.0744    0.0000 H   0  0  0  0  0  0  0  0  0  0  0  0
   -3.0239   -2.6064    0.0000 H   0  0  0  0  0  0  0  0  0  0  0  0
   -2.4759   -0.2178    0.0000 H   0  0  0  0  0  0  0  0  0  0  0  0
   -0.1672    2.6773    0.0000 H   0  0  0  0  0  0  0  0  0  0  0  0
    1.7580    1.7500    0.0000 H   0  0  0  0  0  0  0  0  0  0  0  0
   -3.1703    1.5120    0.0000 H   0  0  0  0  0  0  0  0  0  0  0  0
   -2.0081    2.9692    0.0000 H   0  0  0  0  0  0  0  0  0  0  0  0
    3.1342    0.4928    0.0000 H   0  0  0  0  0  0  0  0  0  0  0  0
    2.7193   -1.3244    0.0000 H   0  0  0  0  0  0  0  0  0  0  0  0
  1  4  1  0  0  0  0
  1  6  1  0  0  0  0
  1  9  1  0  0  0  0
  2  5  1  0  0  0  0
  2  7  1  0  0  0  0
  2 13  1  0  0  0  0
  3  9  1  0  0  0  0
  3 20  2  0  0  0  0
  4  5  1  0  0  0  0
  4  8  1  0  0  0  0
  4 21  1  1  0  0  0
  5 22  1  0  0  0  0
  5 23  1  0  0  0  0
  6  7  1  0  0  0  0
  6 24  1  0  0  0  0
  6 25  1  0  0  0  0
  7 26  1  0  0  0  0
  7 27  1  0  0  0  0
  8 10  1  0  0  0  0
  8 14  2  0  0  0  0
  9 12  2  0  0  0  0
 10 11  1  0  0  0  0
 10 15  2  0  0  0  0
 11 12  1  0  0  0  0
 11 28  1  0  0  0  0
 11 29  1  0  0  0  0
 12 16  1  0  0  0  0
 13 30  1  0  0  0  0
 13 31  1  0  0  0  0
 13 32  1  0  0  0  0
 14 17  1  0  0  0  0
 14 33  1  0  0  0  0
 15 18  1  0  0  0  0
 15 34  1  0  0  0  0
 16 19  2  0  0  0  0
 16 35  1  0  0  0  0
 17 18  2  0  0  0  0
 17 36  1  0  0  0  0
 18 37  1  0  0  0  0
 19 20  1  0  0  0  0
 19 38  1  0  0  0  0
 20 39  1  0  0  0  0
M  END
>  <DRUGBANK_ID>
DB06678

>  <COMMON_NAME>
Esmirtazapine

>  <CAS_NUMBER>
61337-87-9

>  <UNII>
4685R51V7M

>  <SYNONYMS>
(S)-1,2,3,4,10,14b-hexahydro-2-methylpyrazino(2,1-a)pyrido(2,3-c)(2)benzazepine; Esmirtazapine

$$$$
