
 OpenBabel10282417072D

208208  0  0  1  0  0  0  0  0999 V2000
   10.7188  -22.6169    0.0000 C   0  0  0  0  0  0  0  0  0  0  0  0
   11.4528  -22.2402    0.0000 C   0  0  0  0  0  0  0  0  0  0  0  0
   12.1460  -22.6875    0.0000 C   0  0  0  0  0  0  0  0  0  0  0  0
   12.8800  -22.3108    0.0000 C   0  0  0  0  0  0  0  0  0  0  0  0
   13.5732  -22.7581    0.0000 C   0  0  0  0  0  0  0  0  0  0  0  0
   14.3072  -22.3814    0.0000 C   0  0  0  0  0  0  0  0  0  0  0  0
   15.0004  -22.8288    0.0000 C   0  0  0  0  0  0  0  0  0  0  0  0
   15.7344  -22.4521    0.0000 C   0  0  0  0  0  0  0  0  0  0  0  0
   16.4276  -22.8994    0.0000 C   0  0  0  0  0  0  0  0  0  0  0  0
   17.1616  -22.5227    0.0000 C   0  0  0  0  0  0  0  0  0  0  0  0
   17.8548  -22.9700    0.0000 C   0  0  0  0  0  0  0  0  0  0  0  0
   18.5888  -22.5933    0.0000 C   0  0  0  0  0  0  0  0  0  0  0  0
   19.2820  -23.0406    0.0000 C   0  0  0  0  0  0  0  0  0  0  0  0
   20.0160  -22.6640    0.0000 C   0  0  0  0  0  0  0  0  0  0  0  0
   20.7092  -23.1113    0.0000 C   0  0  0  0  0  0  0  0  0  0  0  0
   21.4432  -22.7346    0.0000 C   0  0  0  0  0  0  0  0  0  0  0  0
   21.4839  -21.9106    0.0000 O   0  0  0  0  0  0  0  0  0  0  0  0
   22.1364  -23.1819    0.0000 O   0  0  0  0  0  0  0  0  0  0  0  0
   22.8704  -22.8052    0.0000 C   0  0  0  0  0  0  0  0  0  0  0  0
   23.5636  -23.2525    0.0000 C   0  0  2  0  0  0  0  0  0  0  0  0
   24.2976  -22.8758    0.0000 C   0  0  0  0  0  0  0  0  0  0  0  0
   24.9908  -23.3232    0.0000 O   0  0  0  0  0  0  0  0  0  0  0  0
   25.7248  -22.9465    0.0000 C   0  0  0  0  0  0  0  0  0  0  0  0
   25.7655  -22.1225    0.0000 O   0  0  0  0  0  0  0  0  0  0  0  0
   26.4180  -23.3938    0.0000 C   0  0  2  0  0  0  0  0  0  0  0  0
   26.3772  -24.2178    0.0000 C   0  0  0  0  0  0  0  0  0  0  0  0
   27.1519  -23.0171    0.0000 N   0  0  0  0  0  0  0  0  0  0  0  0
   27.8452  -23.4644    0.0000 C   0  0  0  0  0  0  0  0  0  0  0  0
   27.8044  -24.2884    0.0000 O   0  0  0  0  0  0  0  0  0  0  0  0
   28.5791  -23.0877    0.0000 C   0  0  0  0  0  0  0  0  0  0  0  0
   29.2724  -23.5350    0.0000 C   0  0  0  0  0  0  0  0  0  0  0  0
   30.0063  -23.1584    0.0000 C   0  0  1  0  0  0  0  0  0  0  0  0
   30.6995  -23.6057    0.0000 N   0  0  0  0  0  0  0  0  0  0  0  0
   31.4335  -23.2290    0.0000 C   0  0  0  0  0  0  0  0  0  0  0  0
   31.4743  -22.4050    0.0000 O   0  0  0  0  0  0  0  0  0  0  0  0
   32.1267  -23.6763    0.0000 C   0  0  2  0  0  0  0  0  0  0  0  0
   32.0860  -24.5003    0.0000 C   0  0  0  0  0  0  0  0  0  0  0  0
   32.8607  -23.2996    0.0000 N   0  0  0  0  0  0  0  0  0  0  0  0
   33.5539  -23.7469    0.0000 C   0  0  0  0  0  0  0  0  0  0  0  0
   33.5132  -24.5709    0.0000 O   0  0  0  0  0  0  0  0  0  0  0  0
   34.2879  -23.3702    0.0000 C   0  0  1  0  0  0  0  0  0  0  0  0
   34.3287  -22.5462    0.0000 C   0  0  0  0  0  0  0  0  0  0  0  0
   34.9811  -23.8175    0.0000 O   0  0  0  0  0  0  0  0  0  0  0  0
   35.7151  -23.4409    0.0000 C   0  0  2  0  0  0  0  0  0  0  0  0
   35.7559  -22.6169    0.0000 C   0  0  1  0  0  0  0  0  0  0  0  0
   36.4899  -22.2402    0.0000 N   0  0  0  0  0  0  0  0  0  0  0  0
   36.5307  -21.4162    0.0000 C   0  0  0  0  0  0  0  0  0  0  0  0
   37.2646  -21.0395    0.0000 C   0  0  0  0  0  0  0  0  0  0  0  0
   35.8374  -20.9689    0.0000 O   0  0  0  0  0  0  0  0  0  0  0  0
   35.0627  -22.1696    0.0000 C   0  0  0  0  0  0  0  0  0  0  0  0
   35.1035  -21.3456    0.0000 O   0  0  0  0  0  0  0  0  0  0  0  0
   36.4083  -23.8882    0.0000 C   0  0  2  0  0  0  0  0  0  0  0  0
   36.3676  -24.7122    0.0000 O   0  0  0  0  0  0  0  0  0  0  0  0
   37.0608  -25.1595    0.0000 C   0  0  2  0  0  0  0  0  0  0  0  0
   37.7947  -24.7828    0.0000 O   0  0  0  0  0  0  0  0  0  0  0  0
   38.4880  -25.2301    0.0000 C   0  0  2  0  0  0  0  0  0  0  0  0
   39.2219  -24.8534    0.0000 C   0  0  0  0  0  0  0  0  0  0  0  0
   39.2627  -24.0294    0.0000 O   0  0  0  0  0  0  0  0  0  0  0  0
   38.4472  -26.0541    0.0000 C   0  0  1  0  0  0  0  0  0  0  0  0
   39.1404  -26.5014    0.0000 O   0  0  0  0  0  0  0  0  0  0  0  0
   37.7132  -26.4308    0.0000 C   0  0  2  0  0  0  0  0  0  0  0  0
   37.6724  -27.2548    0.0000 O   0  0  0  0  0  0  0  0  0  0  0  0
   37.0200  -25.9835    0.0000 C   0  0  1  0  0  0  0  0  0  0  0  0
   36.2860  -26.3601    0.0000 N   0  0  0  0  0  0  0  0  0  0  0  0
   36.2452  -27.1841    0.0000 C   0  0  0  0  0  0  0  0  0  0  0  0
   35.5112  -27.5608    0.0000 C   0  0  0  0  0  0  0  0  0  0  0  0
   36.9384  -27.6314    0.0000 O   0  0  0  0  0  0  0  0  0  0  0  0
   37.1423  -23.5115    0.0000 C   0  0  2  0  0  0  0  0  0  0  0  0
   37.8355  -23.9588    0.0000 O   0  0  0  0  0  0  0  0  0  0  0  0
   37.1831  -22.6875    0.0000 C   0  0  0  0  0  0  0  0  0  0  0  0
   37.9171  -22.3108    0.0000 O   0  0  0  0  0  0  0  0  0  0  0  0
   30.0471  -22.3344    0.0000 C   0  0  0  0  0  0  0  0  0  0  0  0
   30.7811  -21.9577    0.0000 N   0  0  0  0  0  0  0  0  0  0  0  0
   29.3539  -21.8871    0.0000 O   0  0  0  0  0  0  0  0  0  0  0  0
   23.5228  -24.0765    0.0000 O   0  0  0  0  0  0  0  0  0  0  0  0
   24.2160  -24.5238    0.0000 C   0  0  0  0  0  0  0  0  0  0  0  0
   24.9500  -24.1471    0.0000 O   0  0  0  0  0  0  0  0  0  0  0  0
   24.1752  -25.3478    0.0000 C   0  0  0  0  0  0  0  0  0  0  0  0
   24.8684  -25.7951    0.0000 C   0  0  0  0  0  0  0  0  0  0  0  0
   24.8277  -26.6191    0.0000 C   0  0  0  0  0  0  0  0  0  0  0  0
   25.5209  -27.0664    0.0000 C   0  0  0  0  0  0  0  0  0  0  0  0
   25.4801  -27.8904    0.0000 C   0  0  0  0  0  0  0  0  0  0  0  0
   26.1733  -28.3377    0.0000 C   0  0  0  0  0  0  0  0  0  0  0  0
   26.1325  -29.1617    0.0000 C   0  0  0  0  0  0  0  0  0  0  0  0
   26.8257  -29.6090    0.0000 C   0  0  0  0  0  0  0  0  0  0  0  0
   26.7850  -30.4330    0.0000 C   0  0  0  0  0  0  0  0  0  0  0  0
   27.4782  -30.8803    0.0000 C   0  0  0  0  0  0  0  0  0  0  0  0
   27.4374  -31.7043    0.0000 C   0  0  0  0  0  0  0  0  0  0  0  0
   28.1306  -32.1516    0.0000 C   0  0  0  0  0  0  0  0  0  0  0  0
   28.0898  -32.9756    0.0000 C   0  0  0  0  0  0  0  0  0  0  0  0
   28.7830  -33.4229    0.0000 C   0  0  0  0  0  0  0  0  0  0  0  0
   28.7422  -34.2469    0.0000 C   0  0  0  0  0  0  0  0  0  0  0  0
    9.8197  -22.0368    0.0000 H   0  0  0  0  0  0  0  0  0  0  0  0
   10.6659  -23.6856    0.0000 H   0  0  0  0  0  0  0  0  0  0  0  0
    9.7668  -23.1055    0.0000 H   0  0  0  0  0  0  0  0  0  0  0  0
   11.5057  -21.1715    0.0000 H   0  0  0  0  0  0  0  0  0  0  0  0
   12.4048  -21.7516    0.0000 H   0  0  0  0  0  0  0  0  0  0  0  0
   12.0931  -23.7562    0.0000 H   0  0  0  0  0  0  0  0  0  0  0  0
   13.0451  -23.2676    0.0000 H   0  0  0  0  0  0  0  0  0  0  0  0
   12.9329  -21.2421    0.0000 H   0  0  0  0  0  0  0  0  0  0  0  0
   13.8320  -21.8222    0.0000 H   0  0  0  0  0  0  0  0  0  0  0  0
   13.5203  -23.8268    0.0000 H   0  0  0  0  0  0  0  0  0  0  0  0
   14.4723  -23.3382    0.0000 H   0  0  0  0  0  0  0  0  0  0  0  0
   14.3601  -21.3127    0.0000 H   0  0  0  0  0  0  0  0  0  0  0  0
   15.2592  -21.8929    0.0000 H   0  0  0  0  0  0  0  0  0  0  0  0
   14.9475  -23.8975    0.0000 H   0  0  0  0  0  0  0  0  0  0  0  0
   15.8995  -23.4090    0.0000 H   0  0  0  0  0  0  0  0  0  0  0  0
   15.7873  -21.3834    0.0000 H   0  0  0  0  0  0  0  0  0  0  0  0
   16.6864  -21.9635    0.0000 H   0  0  0  0  0  0  0  0  0  0  0  0
   16.3747  -23.9681    0.0000 H   0  0  0  0  0  0  0  0  0  0  0  0
   17.3267  -23.4795    0.0000 H   0  0  0  0  0  0  0  0  0  0  0  0
   17.2145  -21.4540    0.0000 H   0  0  0  0  0  0  0  0  0  0  0  0
   18.1136  -22.0341    0.0000 H   0  0  0  0  0  0  0  0  0  0  0  0
   17.8019  -24.0387    0.0000 H   0  0  0  0  0  0  0  0  0  0  0  0
   18.7539  -23.5501    0.0000 H   0  0  0  0  0  0  0  0  0  0  0  0
   18.6417  -21.5246    0.0000 H   0  0  0  0  0  0  0  0  0  0  0  0
   19.5408  -22.1047    0.0000 H   0  0  0  0  0  0  0  0  0  0  0  0
   19.2291  -24.1093    0.0000 H   0  0  0  0  0  0  0  0  0  0  0  0
   20.1810  -23.6208    0.0000 H   0  0  0  0  0  0  0  0  0  0  0  0
   20.0689  -21.5953    0.0000 H   0  0  0  0  0  0  0  0  0  0  0  0
   20.9680  -22.1755    0.0000 H   0  0  0  0  0  0  0  0  0  0  0  0
   20.6563  -24.1800    0.0000 H   0  0  0  0  0  0  0  0  0  0  0  0
   21.6083  -23.6914    0.0000 H   0  0  0  0  0  0  0  0  0  0  0  0
   22.9233  -21.7365    0.0000 H   0  0  0  0  0  0  0  0  0  0  0  0
   23.8224  -22.3166    0.0000 H   0  0  0  0  0  0  0  0  0  0  0  0
   22.6116  -23.7410    0.0000 H   0  0  0  0  0  0  0  0  0  0  0  0
   24.3505  -21.8071    0.0000 H   0  0  0  0  0  0  0  0  0  0  0  0
   25.2496  -22.3873    0.0000 H   0  0  0  0  0  0  0  0  0  0  0  0
   25.4660  -23.8823    0.0000 H   0  0  0  0  0  0  0  0  0  0  0  0
   25.4252  -24.7063    0.0000 H   0  0  0  0  0  0  0  0  0  0  0  0
   27.2763  -24.7980    0.0000 H   0  0  0  0  0  0  0  0  0  0  0  0
   26.3243  -25.2865    0.0000 H   0  0  0  0  0  0  0  0  0  0  0  0
   27.2005  -22.0338    0.0000 H   0  0  0  0  0  0  0  0  0  0  0  0
   28.6319  -22.0190    0.0000 H   0  0  0  0  0  0  0  0  0  0  0  0
   29.5310  -22.5991    0.0000 H   0  0  0  0  0  0  0  0  0  0  0  0
   29.2195  -24.6037    0.0000 H   0  0  0  0  0  0  0  0  0  0  0  0
   30.1715  -24.1152    0.0000 H   0  0  0  0  0  0  0  0  0  0  0  0
   29.9534  -24.2271    0.0000 H   0  0  0  0  0  0  0  0  0  0  0  0
   30.6508  -24.5890    0.0000 H   0  0  0  0  0  0  0  0  0  0  0  0
   31.1748  -24.1649    0.0000 H   0  0  0  0  0  0  0  0  0  0  0  0
   31.1341  -24.9889    0.0000 H   0  0  0  0  0  0  0  0  0  0  0  0
   32.9851  -25.0804    0.0000 H   0  0  0  0  0  0  0  0  0  0  0  0
   32.0332  -25.5690    0.0000 H   0  0  0  0  0  0  0  0  0  0  0  0
   32.9094  -22.3163    0.0000 H   0  0  0  0  0  0  0  0  0  0  0  0
   33.3888  -22.7900    0.0000 H   0  0  0  0  0  0  0  0  0  0  0  0
   35.2807  -22.0577    0.0000 H   0  0  0  0  0  0  0  0  0  0  0  0
   33.4296  -21.9660    0.0000 H   0  0  0  0  0  0  0  0  0  0  0  0
   34.3816  -21.4775    0.0000 H   0  0  0  0  0  0  0  0  0  0  0  0
   34.8161  -22.8607    0.0000 H   0  0  0  0  0  0  0  0  0  0  0  0
   36.6550  -23.1971    0.0000 H   0  0  0  0  0  0  0  0  0  0  0  0
   37.3171  -22.7740    0.0000 H   0  0  0  0  0  0  0  0  0  0  0  0
   38.1637  -21.6196    0.0000 H   0  0  0  0  0  0  0  0  0  0  0  0
   37.3174  -19.9708    0.0000 H   0  0  0  0  0  0  0  0  0  0  0  0
   38.2165  -20.5509    0.0000 H   0  0  0  0  0  0  0  0  0  0  0  0
   34.1445  -22.6408    0.0000 H   0  0  0  0  0  0  0  0  0  0  0  0
   35.4564  -24.3768    0.0000 H   0  0  0  0  0  0  0  0  0  0  0  0
   37.1136  -24.0908    0.0000 H   0  0  0  0  0  0  0  0  0  0  0  0
   38.5408  -24.1614    0.0000 H   0  0  0  0  0  0  0  0  0  0  0  0
   40.1210  -25.4335    0.0000 H   0  0  0  0  0  0  0  0  0  0  0  0
   40.1739  -24.3649    0.0000 H   0  0  0  0  0  0  0  0  0  0  0  0
   40.1257  -23.5865    0.0000 H   0  0  0  0  0  0  0  0  0  0  0  0
   39.3992  -25.5656    0.0000 H   0  0  0  0  0  0  0  0  0  0  0  0
   39.0925  -27.4702    0.0000 H   0  0  0  0  0  0  0  0  0  0  0  0
   38.6123  -27.0110    0.0000 H   0  0  0  0  0  0  0  0  0  0  0  0
   36.8094  -27.6977    0.0000 H   0  0  0  0  0  0  0  0  0  0  0  0
   36.9671  -27.0522    0.0000 H   0  0  0  0  0  0  0  0  0  0  0  0
   35.4588  -25.8263    0.0000 H   0  0  0  0  0  0  0  0  0  0  0  0
   34.6121  -26.9807    0.0000 H   0  0  0  0  0  0  0  0  0  0  0  0
   35.4583  -28.6295    0.0000 H   0  0  0  0  0  0  0  0  0  0  0  0
   34.5592  -28.0494    0.0000 H   0  0  0  0  0  0  0  0  0  0  0  0
   37.0894  -24.5802    0.0000 H   0  0  0  0  0  0  0  0  0  0  0  0
   37.7876  -24.9276    0.0000 H   0  0  0  0  0  0  0  0  0  0  0  0
   36.2840  -22.1073    0.0000 H   0  0  0  0  0  0  0  0  0  0  0  0
   37.2360  -21.6188    0.0000 H   0  0  0  0  0  0  0  0  0  0  0  0
   38.7322  -22.8367    0.0000 H   0  0  0  0  0  0  0  0  0  0  0  0
   31.6083  -22.4915    0.0000 H   0  0  0  0  0  0  0  0  0  0  0  0
   30.8297  -20.9744    0.0000 H   0  0  0  0  0  0  0  0  0  0  0  0
   23.2232  -25.8363    0.0000 H   0  0  0  0  0  0  0  0  0  0  0  0
   24.1223  -26.4165    0.0000 H   0  0  0  0  0  0  0  0  0  0  0  0
   25.8203  -25.3065    0.0000 H   0  0  0  0  0  0  0  0  0  0  0  0
   25.7675  -26.3752    0.0000 H   0  0  0  0  0  0  0  0  0  0  0  0
   23.8758  -27.1077    0.0000 H   0  0  0  0  0  0  0  0  0  0  0  0
   24.7748  -27.6878    0.0000 H   0  0  0  0  0  0  0  0  0  0  0  0
   26.4729  -26.5779    0.0000 H   0  0  0  0  0  0  0  0  0  0  0  0
   26.4200  -27.6466    0.0000 H   0  0  0  0  0  0  0  0  0  0  0  0
   24.5281  -28.3789    0.0000 H   0  0  0  0  0  0  0  0  0  0  0  0
   25.4272  -28.9591    0.0000 H   0  0  0  0  0  0  0  0  0  0  0  0
   27.1253  -27.8492    0.0000 H   0  0  0  0  0  0  0  0  0  0  0  0
   27.0724  -28.9179    0.0000 H   0  0  0  0  0  0  0  0  0  0  0  0
   25.1805  -29.6502    0.0000 H   0  0  0  0  0  0  0  0  0  0  0  0
   26.0796  -30.2304    0.0000 H   0  0  0  0  0  0  0  0  0  0  0  0
   27.7776  -29.1204    0.0000 H   0  0  0  0  0  0  0  0  0  0  0  0
   27.7248  -30.1891    0.0000 H   0  0  0  0  0  0  0  0  0  0  0  0
   25.8331  -30.9216    0.0000 H   0  0  0  0  0  0  0  0  0  0  0  0
   26.7321  -31.5017    0.0000 H   0  0  0  0  0  0  0  0  0  0  0  0
   28.4302  -30.3918    0.0000 H   0  0  0  0  0  0  0  0  0  0  0  0
   28.3773  -31.4605    0.0000 H   0  0  0  0  0  0  0  0  0  0  0  0
   26.4854  -32.1928    0.0000 H   0  0  0  0  0  0  0  0  0  0  0  0
   27.3845  -32.7730    0.0000 H   0  0  0  0  0  0  0  0  0  0  0  0
   29.0826  -31.6631    0.0000 H   0  0  0  0  0  0  0  0  0  0  0  0
   29.0297  -32.7318    0.0000 H   0  0  0  0  0  0  0  0  0  0  0  0
   27.1378  -33.4641    0.0000 H   0  0  0  0  0  0  0  0  0  0  0  0
   28.0369  -34.0443    0.0000 H   0  0  0  0  0  0  0  0  0  0  0  0
   29.7350  -32.9344    0.0000 H   0  0  0  0  0  0  0  0  0  0  0  0
   29.6821  -34.0031    0.0000 H   0  0  0  0  0  0  0  0  0  0  0  0
   27.7902  -34.7354    0.0000 H   0  0  0  0  0  0  0  0  0  0  0  0
   29.6413  -34.8271    0.0000 H   0  0  0  0  0  0  0  0  0  0  0  0
   28.6893  -35.3156    0.0000 H   0  0  0  0  0  0  0  0  0  0  0  0
  1  2  1  0  0  0  0
  1 93  1  0  0  0  0
  1 94  1  0  0  0  0
  1 95  1  0  0  0  0
  2  3  1  0  0  0  0
  2 96  1  0  0  0  0
  2 97  1  0  0  0  0
  3  4  1  0  0  0  0
  3 98  1  0  0  0  0
  3 99  1  0  0  0  0
  4  5  1  0  0  0  0
  4100  1  0  0  0  0
  4101  1  0  0  0  0
  5  6  1  0  0  0  0
  5102  1  0  0  0  0
  5103  1  0  0  0  0
  6  7  1  0  0  0  0
  6104  1  0  0  0  0
  6105  1  0  0  0  0
  7  8  1  0  0  0  0
  7106  1  0  0  0  0
  7107  1  0  0  0  0
  8  9  1  0  0  0  0
  8108  1  0  0  0  0
  8109  1  0  0  0  0
  9 10  1  0  0  0  0
  9110  1  0  0  0  0
  9111  1  0  0  0  0
 10 11  1  0  0  0  0
 10112  1  0  0  0  0
 10113  1  0  0  0  0
 11 12  1  0  0  0  0
 11114  1  0  0  0  0
 11115  1  0  0  0  0
 12 13  1  0  0  0  0
 12116  1  0  0  0  0
 12117  1  0  0  0  0
 13 14  1  0  0  0  0
 13118  1  0  0  0  0
 13119  1  0  0  0  0
 14 15  1  0  0  0  0
 14120  1  0  0  0  0
 14121  1  0  0  0  0
 15 16  1  0  0  0  0
 15122  1  0  0  0  0
 15123  1  0  0  0  0
 16 17  2  0  0  0  0
 16 18  1  0  0  0  0
 18 19  1  0  0  0  0
 19124  1  0  0  0  0
 19125  1  0  0  0  0
 20 19  1  0  0  0  0
 20 21  1  0  0  0  0
 20 75  1  0  0  0  0
 20126  1  1  0  0  0
 21 22  1  0  0  0  0
 21127  1  0  0  0  0
 21128  1  0  0  0  0
 22 23  1  0  0  0  0
 23 24  2  0  0  0  0
 25 23  1  0  0  0  0
 25 26  1  0  0  0  0
 25 27  1  0  0  0  0
 25129  1  6  0  0  0
 26130  1  0  0  0  0
 26131  1  0  0  0  0
 26132  1  0  0  0  0
 27 28  1  0  0  0  0
 27133  1  0  0  0  0
 28 29  2  0  0  0  0
 28 30  1  0  0  0  0
 30 31  1  0  0  0  0
 30134  1  0  0  0  0
 30135  1  0  0  0  0
 31136  1  0  0  0  0
 31137  1  0  0  0  0
 32 31  1  0  0  0  0
 32 33  1  0  0  0  0
 32 72  1  0  0  0  0
 32138  1  1  0  0  0
 33 34  1  0  0  0  0
 33139  1  0  0  0  0
 34 35  2  0  0  0  0
 36 34  1  0  0  0  0
 36 37  1  0  0  0  0
 36 38  1  0  0  0  0
 36140  1  6  0  0  0
 37141  1  0  0  0  0
 37142  1  0  0  0  0
 37143  1  0  0  0  0
 38 39  1  0  0  0  0
 38144  1  0  0  0  0
 39 40  2  0  0  0  0
 41 39  1  0  0  0  0
 41 42  1  0  0  0  0
 41 43  1  0  0  0  0
 41145  1  6  0  0  0
 42146  1  0  0  0  0
 42147  1  0  0  0  0
 42148  1  0  0  0  0
 44 43  1  0  0  0  0
 44 45  1  0  0  0  0
 44 52  1  0  0  0  0
 44149  1  1  0  0  0
 45 46  1  0  0  0  0
 45 50  1  0  0  0  0
 45150  1  1  0  0  0
 46 47  1  0  0  0  0
 46151  1  0  0  0  0
 47 48  1  0  0  0  0
 47 49  2  0  0  0  0
 48152  1  0  0  0  0
 48153  1  0  0  0  0
 48154  1  0  0  0  0
 50 51  2  0  0  0  0
 50155  1  0  0  0  0
 52 53  1  0  0  0  0
 52 68  1  0  0  0  0
 52156  1  6  0  0  0
 54 53  1  0  0  0  0
 54 55  1  0  0  0  0
 54157  1  1  0  0  0
 56 55  1  0  0  0  0
 56 57  1  0  0  0  0
 56158  1  1  0  0  0
 57 58  1  0  0  0  0
 57159  1  0  0  0  0
 57160  1  0  0  0  0
 58161  1  0  0  0  0
 59 56  1  0  0  0  0
 59 60  1  0  0  0  0
 59 61  1  0  0  0  0
 59162  1  6  0  0  0
 60163  1  0  0  0  0
 61 62  1  0  0  0  0
 61 63  1  0  0  0  0
 61164  1  1  0  0  0
 62165  1  0  0  0  0
 63 54  1  0  0  0  0
 63 64  1  0  0  0  0
 63166  1  6  0  0  0
 64 65  1  0  0  0  0
 64167  1  0  0  0  0
 65 66  1  0  0  0  0
 65 67  2  0  0  0  0
 66168  1  0  0  0  0
 66169  1  0  0  0  0
 66170  1  0  0  0  0
 68 69  1  0  0  0  0
 68 70  1  0  0  0  0
 68171  1  6  0  0  0
 69172  1  0  0  0  0
 70 71  1  0  0  0  0
 70173  1  0  0  0  0
 70174  1  0  0  0  0
 71175  1  0  0  0  0
 72 73  1  0  0  0  0
 72 74  2  0  0  0  0
 73176  1  0  0  0  0
 73177  1  0  0  0  0
 75 76  1  0  0  0  0
 76 77  2  0  0  0  0
 76 78  1  0  0  0  0
 78 79  1  0  0  0  0
 78178  1  0  0  0  0
 78179  1  0  0  0  0
 79 80  1  0  0  0  0
 79180  1  0  0  0  0
 79181  1  0  0  0  0
 80 81  1  0  0  0  0
 80182  1  0  0  0  0
 80183  1  0  0  0  0
 81 82  1  0  0  0  0
 81184  1  0  0  0  0
 81185  1  0  0  0  0
 82 83  1  0  0  0  0
 82186  1  0  0  0  0
 82187  1  0  0  0  0
 83 84  1  0  0  0  0
 83188  1  0  0  0  0
 83189  1  0  0  0  0
 84 85  1  0  0  0  0
 84190  1  0  0  0  0
 84191  1  0  0  0  0
 85 86  1  0  0  0  0
 85192  1  0  0  0  0
 85193  1  0  0  0  0
 86 87  1  0  0  0  0
 86194  1  0  0  0  0
 86195  1  0  0  0  0
 87 88  1  0  0  0  0
 87196  1  0  0  0  0
 87197  1  0  0  0  0
 88 89  1  0  0  0  0
 88198  1  0  0  0  0
 88199  1  0  0  0  0
 89 90  1  0  0  0  0
 89200  1  0  0  0  0
 89201  1  0  0  0  0
 90 91  1  0  0  0  0
 90202  1  0  0  0  0
 90203  1  0  0  0  0
 91 92  1  0  0  0  0
 91204  1  0  0  0  0
 91205  1  0  0  0  0
 92206  1  0  0  0  0
 92207  1  0  0  0  0
 92208  1  0  0  0  0
M  END
>  <DRUGBANK_ID>
DB15423

>  <COMMON_NAME>
Disaccharide tripeptide glycerol dipalmitoyl

>  <CAS_NUMBER>
130114-83-9

>  <UNII>
6PHSP9EORV

$$$$
