
 OpenBabel10282417072D

 27 27  0  0  0  0  0  0  0  0999 V2000
    0.7001    0.3510    0.0000 C   0  0  0  0  0  0  0  0  0  0  0  0
   -0.1165    0.3294    0.0000 C   0  0  0  0  0  0  0  0  0  0  0  0
   -1.7661    0.2832    0.0000 C   0  0  0  0  0  0  0  0  0  0  0  0
   -0.5085   -0.3970    0.0000 C   0  0  0  0  0  0  0  0  0  0  0  0
   -0.5457    1.0281    0.0000 C   0  0  0  0  0  0  0  0  0  0  0  0
   -1.3744    1.0045    0.0000 C   0  0  0  0  0  0  0  0  0  0  0  0
   -1.3328   -0.4205    0.0000 C   0  0  0  0  0  0  0  0  0  0  0  0
   -2.5857    0.2622    0.0000 O   0  0  0  0  0  0  0  0  0  0  0  0
    1.1526   -0.3361    0.0000 C   0  0  3  0  0  0  0  0  0  0  0  0
    1.6078   -1.0281    0.0000 C   0  0  0  0  0  0  0  0  0  0  0  0
    1.8443    0.1239    0.0000 C   0  0  0  0  0  0  0  0  0  0  0  0
    0.4578   -0.7883    0.0000 N   0  0  0  0  0  0  0  0  0  0  0  0
    1.7960    0.9389    0.0000 O   0  0  0  0  0  0  0  0  0  0  0  0
    2.5857   -0.2481    0.0000 O   0  0  0  0  0  0  0  0  0  0  0  0
    1.1951    1.2996    0.0000 H   0  0  0  0  0  0  0  0  0  0  0  0
    0.1334    1.2586    0.0000 H   0  0  0  0  0  0  0  0  0  0  0  0
    0.0329   -1.2756    0.0000 H   0  0  0  0  0  0  0  0  0  0  0  0
   -0.0548    1.9359    0.0000 H   0  0  0  0  0  0  0  0  0  0  0  0
   -1.9146    1.8838    0.0000 H   0  0  0  0  0  0  0  0  0  0  0  0
   -1.8232   -1.3285    0.0000 H   0  0  0  0  0  0  0  0  0  0  0  0
   -3.0748    1.0614    0.0000 H   0  0  0  0  0  0  0  0  0  0  0  0
    1.1276   -1.9843    0.0000 H   0  0  0  0  0  0  0  0  0  0  0  0
    2.6760   -0.9658    0.0000 H   0  0  0  0  0  0  0  0  0  0  0  0
    2.1958   -1.9220    0.0000 H   0  0  0  0  0  0  0  0  0  0  0  0
   -0.4515   -0.3261    0.0000 H   0  0  0  0  0  0  0  0  0  0  0  0
    0.5122   -1.8068    0.0000 H   0  0  0  0  0  0  0  0  0  0  0  0
    2.6405   -1.1835    0.0000 H   0  0  0  0  0  0  0  0  0  0  0  0
  1  9  1  0  0  0  0
  1 15  1  0  0  0  0
  1 16  1  0  0  0  0
  2  1  1  0  0  0  0
  3  6  1  0  0  0  0
  4  2  2  0  0  0  0
  4 17  1  0  0  0  0
  5  2  1  0  0  0  0
  5 18  1  0  0  0  0
  6  5  2  0  0  0  0
  6 19  1  0  0  0  0
  7  4  1  0  0  0  0
  7  3  2  0  0  0  0
  7 20  1  0  0  0  0
  8  3  1  0  0  0  0
  8 21  1  0  0  0  0
  9 10  1  0  0  0  0
  9 11  1  0  0  0  0
  9 12  1  0  0  0  0
 10 22  1  0  0  0  0
 10 23  1  0  0  0  0
 10 24  1  0  0  0  0
 11 13  2  0  0  0  0
 11 14  1  0  0  0  0
 12 25  1  0  0  0  0
 12 26  1  0  0  0  0
 14 27  1  0  0  0  0
M  END
>  <DRUGBANK_ID>
DB16306

>  <COMMON_NAME>
Racemetyrosine

>  <CAS_NUMBER>
658-48-0

>  <UNII>
X88TTO174Z

>  <SYNONYMS>
AMPT; D,L-metyrosine; DL-metyrosine; Racemetirosina; Racemetirosine; Racemetirosinum; Racemetyrosine; Sm-88 component racemetyrosine

$$$$
