
 OpenBabel10282417072D

 71 76  0  0  1  0  0  0  0  0999 V2000
    4.7812    1.9354    0.0000 O   0  0  0  0  0  0  0  0  0  0  0  0
    4.0668    2.3479    0.0000 C   0  0  0  0  0  0  0  0  0  0  0  0
    4.0668    3.1729    0.0000 O   0  0  0  0  0  0  0  0  0  0  0  0
    3.3523    1.9354    0.0000 C   0  0  0  0  0  0  0  0  0  0  0  0
    3.3523    1.1104    0.0000 C   0  0  0  0  0  0  0  0  0  0  0  0
    2.6378    0.6979    0.0000 C   0  0  0  0  0  0  0  0  0  0  0  0
    1.9233    1.1104    0.0000 C   0  0  0  0  0  0  0  0  0  0  0  0
    1.1387    0.8555    0.0000 N   0  0  0  0  0  0  0  0  0  0  0  0
    0.6538    1.5229    0.0000 C   0  0  0  0  0  0  0  0  0  0  0  0
   -0.1712    1.5229    0.0000 C   0  0  0  0  0  0  0  0  0  0  0  0
   -0.5837    2.2374    0.0000 N   0  0  0  0  0  0  0  0  0  0  0  0
   -1.4087    2.2374    0.0000 C   0  0  0  0  0  0  0  0  0  0  0  0
   -1.8212    2.9519    0.0000 C   0  0  0  0  0  0  0  0  0  0  0  0
   -1.4087    3.6664    0.0000 C   0  0  3  0  0  0  0  0  0  0  0  0
   -0.5837    3.6664    0.0000 C   0  0  0  0  0  0  0  0  0  0  0  0
   -0.1712    2.9519    0.0000 C   0  0  0  0  0  0  0  0  0  0  0  0
   -1.8212    4.3808    0.0000 C   0  0  0  0  0  0  0  0  0  0  0  0
   -2.6462    4.3808    0.0000 N   0  0  0  0  0  0  0  0  0  0  0  0
   -3.0587    5.0953    0.0000 C   0  0  0  0  0  0  0  0  0  0  0  0
   -3.8837    5.0953    0.0000 O   0  0  0  0  0  0  0  0  0  0  0  0
   -4.2962    4.3808    0.0000 C   0  0  0  0  0  0  0  0  0  0  0  0
   -5.1212    4.3808    0.0000 C   0  0  0  0  0  0  0  0  0  0  0  0
   -5.5337    3.6664    0.0000 C   0  0  0  0  0  0  0  0  0  0  0  0
   -6.3587    3.6664    0.0000 C   0  0  0  0  0  0  0  0  0  0  0  0
   -6.7712    4.3808    0.0000 C   0  0  0  0  0  0  0  0  0  0  0  0
   -6.3587    5.0953    0.0000 C   0  0  0  0  0  0  0  0  0  0  0  0
   -5.5337    5.0953    0.0000 C   0  0  0  0  0  0  0  0  0  0  0  0
   -5.1212    5.8098    0.0000 F   0  0  0  0  0  0  0  0  0  0  0  0
   -7.5962    4.3808    0.0000 C   0  0  0  0  0  0  0  0  0  0  0  0
   -8.4212    4.3808    0.0000 N   0  0  0  0  0  0  0  0  0  0  0  0
   -2.6462    5.8098    0.0000 C   0  0  0  0  0  0  0  0  0  0  0  0
   -1.8212    5.8098    0.0000 C   0  0  0  0  0  0  0  0  0  0  0  0
   -1.4087    5.0953    0.0000 C   0  0  0  0  0  0  0  0  0  0  0  0
    1.1387    2.1904    0.0000 N   0  0  0  0  0  0  0  0  0  0  0  0
    0.8838    2.9750    0.0000 C   0  0  0  0  0  0  0  0  0  0  0  0
    1.4358    3.5881    0.0000 C   0  0  2  0  0  0  0  0  0  0  0  0
    1.3926    4.4120    0.0000 C   0  0  0  0  0  0  0  0  0  0  0  0
    2.2165    4.4551    0.0000 C   0  0  0  0  0  0  0  0  0  0  0  0
    2.2597    3.6313    0.0000 O   0  0  0  0  0  0  0  0  0  0  0  0
    1.9233    1.9354    0.0000 C   0  0  0  0  0  0  0  0  0  0  0  0
    2.6378    2.3479    0.0000 C   0  0  0  0  0  0  0  0  0  0  0  0
    4.7812    0.9984    0.0000 H   0  0  0  0  0  0  0  0  0  0  0  0
    4.2460    0.5944    0.0000 H   0  0  0  0  0  0  0  0  0  0  0  0
    2.6378   -0.3341    0.0000 H   0  0  0  0  0  0  0  0  0  0  0  0
   -0.7062    0.5963    0.0000 H   0  0  0  0  0  0  0  0  0  0  0  0
   -1.2412    1.5229    0.0000 H   0  0  0  0  0  0  0  0  0  0  0  0
   -1.9437    1.3108    0.0000 H   0  0  0  0  0  0  0  0  0  0  0  0
   -2.4787    2.2374    0.0000 H   0  0  0  0  0  0  0  0  0  0  0  0
   -2.8912    2.9519    0.0000 H   0  0  0  0  0  0  0  0  0  0  0  0
   -2.3562    3.8785    0.0000 H   0  0  0  0  0  0  0  0  0  0  0  0
   -0.8737    2.7398    0.0000 H   0  0  0  0  0  0  0  0  0  0  0  0
   -0.0487    4.5930    0.0000 H   0  0  0  0  0  0  0  0  0  0  0  0
    0.4863    3.6664    0.0000 H   0  0  0  0  0  0  0  0  0  0  0  0
    0.8988    2.9519    0.0000 H   0  0  0  0  0  0  0  0  0  0  0  0
    0.3638    2.0253    0.0000 H   0  0  0  0  0  0  0  0  0  0  0  0
   -3.7612    3.4542    0.0000 H   0  0  0  0  0  0  0  0  0  0  0  0
   -4.8312    3.4542    0.0000 H   0  0  0  0  0  0  0  0  0  0  0  0
   -5.0177    2.7727    0.0000 H   0  0  0  0  0  0  0  0  0  0  0  0
   -6.8747    2.7727    0.0000 H   0  0  0  0  0  0  0  0  0  0  0  0
   -6.8747    5.9890    0.0000 H   0  0  0  0  0  0  0  0  0  0  0  0
   -3.1622    6.7035    0.0000 H   0  0  0  0  0  0  0  0  0  0  0  0
   -1.3052    6.7035    0.0000 H   0  0  0  0  0  0  0  0  0  0  0  0
   -0.3767    5.0953    0.0000 H   0  0  0  0  0  0  0  0  0  0  0  0
   -0.1628    3.1975    0.0000 H   0  0  0  0  0  0  0  0  0  0  0  0
    0.5531    3.9926    0.0000 H   0  0  0  0  0  0  0  0  0  0  0  0
    0.4272    3.9452    0.0000 H   0  0  0  0  0  0  0  0  0  0  0  0
    0.5975    5.1280    0.0000 H   0  0  0  0  0  0  0  0  0  0  0  0
    1.7498    5.4206    0.0000 H   0  0  0  0  0  0  0  0  0  0  0  0
    2.9325    5.2502    0.0000 H   0  0  0  0  0  0  0  0  0  0  0  0
    3.2251    4.0979    0.0000 H   0  0  0  0  0  0  0  0  0  0  0  0
    2.6378    3.3799    0.0000 H   0  0  0  0  0  0  0  0  0  0  0  0
  1  2  1  0  0  0  0
  1 42  1  0  0  0  0
  2  3  2  0  0  0  0
  2  4  1  0  0  0  0
  4  5  2  0  0  0  0
  4 41  1  0  0  0  0
  5  6  1  0  0  0  0
  5 43  1  0  0  0  0
  6  7  2  0  0  0  0
  6 44  1  0  0  0  0
  7  8  1  0  0  0  0
  7 40  1  0  0  0  0
  8  9  2  0  0  0  0
  9 10  1  0  0  0  0
  9 34  1  0  0  0  0
 10 11  1  0  0  0  0
 10 45  1  0  0  0  0
 10 46  1  0  0  0  0
 11 12  1  0  0  0  0
 11 16  1  0  0  0  0
 12 13  1  0  0  0  0
 12 47  1  0  0  0  0
 12 48  1  0  0  0  0
 13 14  1  0  0  0  0
 13 49  1  0  0  0  0
 13 50  1  0  0  0  0
 14 15  1  0  0  0  0
 14 17  1  0  0  0  0
 14 51  1  0  0  0  0
 15 16  1  0  0  0  0
 15 52  1  0  0  0  0
 15 53  1  0  0  0  0
 16 54  1  0  0  0  0
 16 55  1  0  0  0  0
 17 18  2  0  0  0  0
 17 33  1  0  0  0  0
 18 19  1  0  0  0  0
 19 20  1  0  0  0  0
 19 31  2  0  0  0  0
 20 21  1  0  0  0  0
 21 22  1  0  0  0  0
 21 56  1  0  0  0  0
 21 57  1  0  0  0  0
 22 23  2  0  0  0  0
 22 27  1  0  0  0  0
 23 24  1  0  0  0  0
 23 58  1  0  0  0  0
 24 25  2  0  0  0  0
 24 59  1  0  0  0  0
 25 26  1  0  0  0  0
 25 29  1  0  0  0  0
 26 27  2  0  0  0  0
 26 60  1  0  0  0  0
 27 28  1  0  0  0  0
 29 30  3  0  0  0  0
 31 32  1  0  0  0  0
 31 61  1  0  0  0  0
 32 33  2  0  0  0  0
 32 62  1  0  0  0  0
 33 63  1  0  0  0  0
 34 35  1  0  0  0  0
 34 40  1  0  0  0  0
 35 64  1  0  0  0  0
 35 65  1  0  0  0  0
 36 35  1  0  0  0  0
 36 37  1  0  0  0  0
 36 39  1  0  0  0  0
 36 66  1  1  0  0  0
 37 38  1  0  0  0  0
 37 67  1  0  0  0  0
 37 68  1  0  0  0  0
 38 39  1  0  0  0  0
 38 69  1  0  0  0  0
 38 70  1  0  0  0  0
 40 41  2  0  0  0  0
 41 71  1  0  0  0  0
M  END
>  <DRUGBANK_ID>
DB16043

>  <COMMON_NAME>
PF-06882961

>  <CAS_NUMBER>
2230198-02-2

>  <UNII>
DN9IUI24GP

$$$$
