548
 OpenBabel10282417072D

 29 28  0  0  0  0  0  0  0  0999 V2000
    2.0930    0.6188    0.0000 O   0  0  0  0  0  0  0  0  0  0  0  0
    9.2379    0.6188    0.0000 O   0  0  0  0  0  0  0  0  0  0  0  0
    2.8075   -0.6188    0.0000 O   0  0  0  0  0  0  0  0  0  0  0  0
    8.5234   -0.6188    0.0000 O   0  0  0  0  0  0  0  0  0  0  0  0
    5.6655    0.2063    0.0000 C   0  0  0  0  0  0  0  0  0  0  0  0
    4.9509    0.6188    0.0000 C   0  0  0  0  0  0  0  0  0  0  0  0
    6.3799    0.6188    0.0000 C   0  0  0  0  0  0  0  0  0  0  0  0
    4.2365    0.2063    0.0000 C   0  0  0  0  0  0  0  0  0  0  0  0
    7.0944    0.2063    0.0000 C   0  0  0  0  0  0  0  0  0  0  0  0
    3.5220    0.6188    0.0000 C   0  0  0  0  0  0  0  0  0  0  0  0
    7.8089    0.6188    0.0000 C   0  0  0  0  0  0  0  0  0  0  0  0
    2.8075    0.2063    0.0000 C   0  0  0  0  0  0  0  0  0  0  0  0
    8.5234    0.2063    0.0000 C   0  0  0  0  0  0  0  0  0  0  0  0
    2.0930    1.5558    0.0000 H   0  0  0  0  0  0  0  0  0  0  0  0
   10.0494    0.1503    0.0000 H   0  0  0  0  0  0  0  0  0  0  0  0
    5.6656   -0.8637    0.0000 H   0  0  0  0  0  0  0  0  0  0  0  0
    6.5922   -0.3287    0.0000 H   0  0  0  0  0  0  0  0  0  0  0  0
    4.9508    1.6888    0.0000 H   0  0  0  0  0  0  0  0  0  0  0  0
    4.0242    1.1538    0.0000 H   0  0  0  0  0  0  0  0  0  0  0  0
    6.3799    1.6888    0.0000 H   0  0  0  0  0  0  0  0  0  0  0  0
    7.3065    1.1538    0.0000 H   0  0  0  0  0  0  0  0  0  0  0  0
    4.2365   -0.8637    0.0000 H   0  0  0  0  0  0  0  0  0  0  0  0
    3.3099   -0.3287    0.0000 H   0  0  0  0  0  0  0  0  0  0  0  0
    7.0944   -0.8637    0.0000 H   0  0  0  0  0  0  0  0  0  0  0  0
    8.0210   -0.3287    0.0000 H   0  0  0  0  0  0  0  0  0  0  0  0
    3.5220    1.6888    0.0000 H   0  0  0  0  0  0  0  0  0  0  0  0
    2.5954    1.1538    0.0000 H   0  0  0  0  0  0  0  0  0  0  0  0
    7.8089    1.6888    0.0000 H   0  0  0  0  0  0  0  0  0  0  0  0
    8.7355    1.1538    0.0000 H   0  0  0  0  0  0  0  0  0  0  0  0
  1 12  1  0  0  0  0
  1 14  1  0  0  0  0
  2 13  1  0  0  0  0
  2 15  1  0  0  0  0
  3 12  2  0  0  0  0
  4 13  2  0  0  0  0
  5  6  1  0  0  0  0
  5  7  1  0  0  0  0
  5 16  1  0  0  0  0
  5 17  1  0  0  0  0
  6  8  1  0  0  0  0
  6 18  1  0  0  0  0
  6 19  1  0  0  0  0
  7  9  1  0  0  0  0
  7 20  1  0  0  0  0
  7 21  1  0  0  0  0
  8 10  1  0  0  0  0
  8 22  1  0  0  0  0
  8 23  1  0  0  0  0
  9 11  1  0  0  0  0
  9 24  1  0  0  0  0
  9 25  1  0  0  0  0
 10 12  1  0  0  0  0
 10 26  1  0  0  0  0
 10 27  1  0  0  0  0
 11 13  1  0  0  0  0
 11 28  1  0  0  0  0
 11 29  1  0  0  0  0
M  END
>  <DRUGBANK_ID>
DB00548

>  <SECONDARY_ACCESSION_NUMBERS>
APRD00812; EXPT00598

>  <COMMON_NAME>
Azelaic acid

>  <CAS_NUMBER>
123-99-9

>  <UNII>
F2VW3D43YT

>  <SYNONYMS>
1,7-dicarboxyheptane; 1,7-Heptanedicarboxylic acid; 1,9-nonanedioic acid; Acide azélaïque; Ácido azelaico; Acidum acelaicum; Acidum azelaicum; Anchoic acid; Azelaic acid; Azelainsäure; Lepargylic acid; n-nonanedioic acid; Nonandisäure; Nonanedioic acid

$$$$
