
 OpenBabel10282417072D

 48 51  0  0  1  0  0  0  0  0999 V2000
   14.3963   -9.9000    0.0000 C   0  0  1  0  0  0  0  0  0  0  0  0
   14.3963  -10.7250    0.0000 C   0  0  1  0  0  0  0  0  0  0  0  0
   15.8252  -10.7250    0.0000 C   0  0  0  0  0  0  0  0  0  0  0  0
   15.8252   -9.9000    0.0000 C   0  0  0  0  0  0  0  0  0  0  0  0
   15.1107   -9.4875    0.0000 C   0  0  0  0  0  0  0  0  0  0  0  0
   13.6818   -9.4875    0.0000 C   0  0  0  0  0  0  0  0  0  0  0  0
   12.9673   -9.9000    0.0000 C   0  0  0  0  0  0  0  0  0  0  0  0
   12.9673  -10.7250    0.0000 C   0  0  1  0  0  0  0  0  0  0  0  0
   13.6818  -11.1375    0.0000 C   0  0  1  0  0  0  0  0  0  0  0  0
   12.2528  -11.1375    0.0000 C   0  0  2  0  0  0  0  0  0  0  0  0
   12.2528  -11.9625    0.0000 C   0  0  0  0  0  0  0  0  0  0  0  0
   12.9673  -12.3750    0.0000 C   0  0  0  0  0  0  0  0  0  0  0  0
   13.6818  -11.9625    0.0000 C   0  0  0  0  0  0  0  0  0  0  0  0
   11.5384  -10.7250    0.0000 C   0  0  0  0  0  0  0  0  0  0  0  0
   10.8239  -11.1375    0.0000 C   0  0  0  0  0  0  0  0  0  0  0  0
   10.8239  -11.9625    0.0000 C   0  0  0  0  0  0  0  0  0  0  0  0
   11.5384  -12.3750    0.0000 C   0  0  0  0  0  0  0  0  0  0  0  0
   10.0972  -12.3822    0.0000 O   0  0  0  0  0  0  0  0  0  0  0  0
   15.1107   -8.6626    0.0000 O   0  0  0  0  0  0  0  0  0  0  0  0
   11.5384  -13.1999    0.0000 O   0  0  0  0  0  0  0  0  0  0  0  0
   12.2528  -10.3125    0.0000 C   0  0  0  0  0  0  0  0  0  0  0  0
   13.6818  -10.3125    0.0000 H   0  0  0  0  0  0  0  0  0  0  0  0
   14.3963   -9.0750    0.0000 C   0  0  0  0  0  0  0  0  0  0  0  0
   12.9673  -11.5500    0.0000 H   0  0  0  0  0  0  0  0  0  0  0  0
   14.3963  -11.5500    0.0000 H   0  0  0  0  0  0  0  0  0  0  0  0
   16.5818  -11.4816    0.0000 H   0  0  0  0  0  0  0  0  0  0  0  0
   16.8138  -10.3155    0.0000 H   0  0  0  0  0  0  0  0  0  0  0  0
   16.7518   -9.3650    0.0000 H   0  0  0  0  0  0  0  0  0  0  0  0
   15.8252   -8.8300    0.0000 H   0  0  0  0  0  0  0  0  0  0  0  0
   13.6818   -8.4175    0.0000 H   0  0  0  0  0  0  0  0  0  0  0  0
   12.7552   -8.9525    0.0000 H   0  0  0  0  0  0  0  0  0  0  0  0
   12.0407   -9.3650    0.0000 H   0  0  0  0  0  0  0  0  0  0  0  0
   12.0407  -10.4350    0.0000 H   0  0  0  0  0  0  0  0  0  0  0  0
   12.9673  -13.4450    0.0000 H   0  0  0  0  0  0  0  0  0  0  0  0
   13.8939  -12.9100    0.0000 H   0  0  0  0  0  0  0  0  0  0  0  0
   14.6084  -12.4975    0.0000 H   0  0  0  0  0  0  0  0  0  0  0  0
   14.6084  -11.4275    0.0000 H   0  0  0  0  0  0  0  0  0  0  0  0
   11.5384   -9.6550    0.0000 H   0  0  0  0  0  0  0  0  0  0  0  0
   10.6118  -10.1900    0.0000 H   0  0  0  0  0  0  0  0  0  0  0  0
    9.8973  -10.6025    0.0000 H   0  0  0  0  0  0  0  0  0  0  0  0
    9.8973  -11.6725    0.0000 H   0  0  0  0  0  0  0  0  0  0  0  0
   10.7269  -13.6684    0.0000 H   0  0  0  0  0  0  0  0  0  0  0  0
   13.1794   -9.7775    0.0000 H   0  0  0  0  0  0  0  0  0  0  0  0
   11.3262   -9.7775    0.0000 H   0  0  0  0  0  0  0  0  0  0  0  0
   12.2528   -9.2425    0.0000 H   0  0  0  0  0  0  0  0  0  0  0  0
   15.3229   -8.5400    0.0000 H   0  0  0  0  0  0  0  0  0  0  0  0
   13.4697   -8.5400    0.0000 H   0  0  0  0  0  0  0  0  0  0  0  0
   14.3963   -8.0050    0.0000 H   0  0  0  0  0  0  0  0  0  0  0  0
  1  2  1  0  0  0  0
  1  5  1  0  0  0  0
  1  6  1  0  0  0  0
  1 23  1  1  0  0  0
  2  3  1  0  0  0  0
  2 25  1  6  0  0  0
  3  4  1  0  0  0  0
  3 26  1  0  0  0  0
  3 27  1  0  0  0  0
  4  5  1  0  0  0  0
  4 28  1  0  0  0  0
  4 29  1  0  0  0  0
  5 19  2  0  0  0  0
  6  7  1  0  0  0  0
  6 30  1  0  0  0  0
  6 31  1  0  0  0  0
  7  8  1  0  0  0  0
  7 32  1  0  0  0  0
  7 33  1  0  0  0  0
  8  9  1  0  0  0  0
  8 10  1  0  0  0  0
  8 24  1  6  0  0  0
  9  2  1  0  0  0  0
  9 22  1  1  0  0  0
 10 11  1  0  0  0  0
 10 14  1  0  0  0  0
 10 21  1  1  0  0  0
 11 12  1  0  0  0  0
 12 13  1  0  0  0  0
 12 34  1  0  0  0  0
 12 35  1  0  0  0  0
 13  9  1  0  0  0  0
 13 36  1  0  0  0  0
 13 37  1  0  0  0  0
 14 15  1  0  0  0  0
 14 38  1  0  0  0  0
 14 39  1  0  0  0  0
 15 16  1  0  0  0  0
 15 40  1  0  0  0  0
 15 41  1  0  0  0  0
 16 17  1  0  0  0  0
 16 18  2  0  0  0  0
 17 11  2  0  0  0  0
 17 20  1  0  0  0  0
 20 42  1  0  0  0  0
 21 43  1  0  0  0  0
 21 44  1  0  0  0  0
 21 45  1  0  0  0  0
 23 46  1  0  0  0  0
 23 47  1  0  0  0  0
 23 48  1  0  0  0  0
M  END
>  <DRUGBANK_ID>
DB08905

>  <COMMON_NAME>
Formestane

>  <CAS_NUMBER>
566-48-3

>  <UNII>
PUB9T8T355

>  <SYNONYMS>
4-hydroxy-4-androstene-3,17-dione; 4-Hydroxy-delta(4)-androstenedione; 4-hydroxy-Î”4-androstenedione; 4-hydroxyandrostenedione; 4-OH-A; 4-OHAD; Formestane; Formestano; Formestanum

$$$$
