1498
 OpenBabel10282417072D

 52 53  0  0  1  0  0  0  0  0999 V2000
    5.8950    0.7144    0.0000 O   0  0  0  0  0  0  0  0  0  0  0  0
    2.4253    0.2482    0.0000 N   0  0  0  0  0  0  0  0  0  0  0  0
    4.6575    0.0000    0.0000 C   0  0  0  0  0  0  0  0  0  0  0  0
    3.8325    0.0000    0.0000 C   0  0  0  0  0  0  0  0  0  0  0  0
    5.4825    0.0000    0.0000 C   0  0  1  0  0  0  0  0  0  0  0  0
    3.0572   -0.2822    0.0000 C   0  0  1  0  0  0  0  0  0  0  0  0
    4.6575    0.8250    0.0000 C   0  0  0  0  0  0  0  0  0  0  0  0
    4.6575   -0.8250    0.0000 C   0  0  0  0  0  0  0  0  0  0  0  0
    5.8950   -0.7144    0.0000 C   0  0  0  0  0  0  0  0  0  0  0  0
    2.9141   -1.0947    0.0000 C   0  0  0  0  0  0  0  0  0  0  0  0
    3.9430    1.2375    0.0000 C   0  0  0  0  0  0  0  0  0  0  0  0
    5.3720   -1.2375    0.0000 C   0  0  0  0  0  0  0  0  0  0  0  0
    5.3720    1.2375    0.0000 C   0  0  0  0  0  0  0  0  0  0  0  0
    3.9430   -1.2375    0.0000 C   0  0  0  0  0  0  0  0  0  0  0  0
    6.7200   -0.7144    0.0000 C   0  0  0  0  0  0  0  0  0  0  0  0
    1.6500   -0.0340    0.0000 C   0  0  0  0  0  0  0  0  0  0  0  0
    2.5686    1.0607    0.0000 C   0  0  0  0  0  0  0  0  0  0  0  0
    3.9430    2.0625    0.0000 C   0  0  0  0  0  0  0  0  0  0  0  0
    5.3720   -2.0625    0.0000 C   0  0  0  0  0  0  0  0  0  0  0  0
    5.3720    2.0625    0.0000 C   0  0  0  0  0  0  0  0  0  0  0  0
    3.9430   -2.0625    0.0000 C   0  0  0  0  0  0  0  0  0  0  0  0
    4.6575    2.4750    0.0000 C   0  0  0  0  0  0  0  0  0  0  0  0
    4.6575   -2.4750    0.0000 C   0  0  0  0  0  0  0  0  0  0  0  0
    6.8650    0.7144    0.0000 H   0  0  0  0  0  0  0  0  0  0  0  0
    3.6467    1.0537    0.0000 H   0  0  0  0  0  0  0  0  0  0  0  0
    2.9058    0.5350    0.0000 H   0  0  0  0  0  0  0  0  0  0  0  0
    4.9475    0.9267    0.0000 H   0  0  0  0  0  0  0  0  0  0  0  0
    3.2431    0.7715    0.0000 H   0  0  0  0  0  0  0  0  0  0  0  0
    5.3600   -1.6411    0.0000 H   0  0  0  0  0  0  0  0  0  0  0  0
    6.4300   -1.6410    0.0000 H   0  0  0  0  0  0  0  0  0  0  0  0
    1.9087   -1.4609    0.0000 H   0  0  0  0  0  0  0  0  0  0  0  0
    3.7339   -1.7823    0.0000 H   0  0  0  0  0  0  0  0  0  0  0  0
    2.7285   -2.1485    0.0000 H   0  0  0  0  0  0  0  0  0  0  0  0
    3.0493    0.7215    0.0000 H   0  0  0  0  0  0  0  0  0  0  0  0
    6.2657   -0.7215    0.0000 H   0  0  0  0  0  0  0  0  0  0  0  0
    6.2657    0.7215    0.0000 H   0  0  0  0  0  0  0  0  0  0  0  0
    3.0493   -0.7215    0.0000 H   0  0  0  0  0  0  0  0  0  0  0  0
    7.2550   -1.6410    0.0000 H   0  0  0  0  0  0  0  0  0  0  0  0
    7.2550    0.2122    0.0000 H   0  0  0  0  0  0  0  0  0  0  0  0
    7.7900   -0.7144    0.0000 H   0  0  0  0  0  0  0  0  0  0  0  0
    0.8303    0.6538    0.0000 H   0  0  0  0  0  0  0  0  0  0  0  0
    1.4642   -1.0877    0.0000 H   0  0  0  0  0  0  0  0  0  0  0  0
    0.6445   -0.4000    0.0000 H   0  0  0  0  0  0  0  0  0  0  0  0
    3.5741    1.4266    0.0000 H   0  0  0  0  0  0  0  0  0  0  0  0
    1.7490    1.7485    0.0000 H   0  0  0  0  0  0  0  0  0  0  0  0
    2.7544    2.1144    0.0000 H   0  0  0  0  0  0  0  0  0  0  0  0
    3.0493    2.5785    0.0000 H   0  0  0  0  0  0  0  0  0  0  0  0
    6.2657   -2.5785    0.0000 H   0  0  0  0  0  0  0  0  0  0  0  0
    6.2657    2.5785    0.0000 H   0  0  0  0  0  0  0  0  0  0  0  0
    3.0493   -2.5785    0.0000 H   0  0  0  0  0  0  0  0  0  0  0  0
    4.6575    3.5070    0.0000 H   0  0  0  0  0  0  0  0  0  0  0  0
    4.6575   -3.5070    0.0000 H   0  0  0  0  0  0  0  0  0  0  0  0
  1 24  1  0  0  0  0
  2 16  1  0  0  0  0
  2 17  1  0  0  0  0
  3  4  1  0  0  0  0
  3  5  1  0  0  0  0
  3  7  1  0  0  0  0
  3  8  1  0  0  0  0
  4  6  1  0  0  0  0
  4 25  1  0  0  0  0
  4 26  1  0  0  0  0
  5  1  1  0  0  0  0
  5  9  1  0  0  0  0
  5 27  1  1  0  0  0
  6  2  1  0  0  0  0
  6 10  1  0  0  0  0
  6 28  1  6  0  0  0
  7 11  2  0  0  0  0
  7 13  1  0  0  0  0
  8 12  2  0  0  0  0
  8 14  1  0  0  0  0
  9 15  1  0  0  0  0
  9 29  1  0  0  0  0
  9 30  1  0  0  0  0
 10 31  1  0  0  0  0
 10 32  1  0  0  0  0
 10 33  1  0  0  0  0
 11 18  1  0  0  0  0
 11 34  1  0  0  0  0
 12 19  1  0  0  0  0
 12 35  1  0  0  0  0
 13 20  2  0  0  0  0
 13 36  1  0  0  0  0
 14 21  2  0  0  0  0
 14 37  1  0  0  0  0
 15 38  1  0  0  0  0
 15 39  1  0  0  0  0
 15 40  1  0  0  0  0
 16 41  1  0  0  0  0
 16 42  1  0  0  0  0
 16 43  1  0  0  0  0
 17 44  1  0  0  0  0
 17 45  1  0  0  0  0
 17 46  1  0  0  0  0
 18 22  2  0  0  0  0
 18 47  1  0  0  0  0
 19 23  2  0  0  0  0
 19 48  1  0  0  0  0
 20 22  1  0  0  0  0
 20 49  1  0  0  0  0
 21 23  1  0  0  0  0
 21 50  1  0  0  0  0
 22 51  1  0  0  0  0
 23 52  1  0  0  0  0
M  END
>  <DRUGBANK_ID>
DB01498

>  <COMMON_NAME>
Alphamethadol

>  <CAS_NUMBER>
17199-54-1

>  <UNII>
XBD99QNI42

>  <SYNONYMS>
Alphamethadol

$$$$
