
 OpenBabel10282417072D

 41 42  0  0  1  0  0  0  0  0999 V2000
    0.6078    2.0009    0.0000 C   0  0  0  0  0  0  0  0  0  0  0  0
    1.3222    2.4134    0.0000 C   0  0  2  0  0  0  0  0  0  0  0  0
    1.3222    3.2384    0.0000 C   0  0  2  0  0  0  0  0  0  0  0  0
    2.0367    3.6509    0.0000 C   0  0  1  0  0  0  0  0  0  0  0  0
    2.7512    3.2384    0.0000 C   0  0  2  0  0  0  0  0  0  0  0  0
    2.7512    2.4134    0.0000 C   0  0  2  0  0  0  0  0  0  0  0  0
    2.0367    2.0009    0.0000 O   0  0  0  0  0  0  0  0  0  0  0  0
    3.4656    2.0009    0.0000 O   0  0  0  0  0  0  0  0  0  0  0  0
    3.4656    1.1759    0.0000 C   0  0  0  0  0  0  0  0  0  0  0  0
    4.1331    0.6910    0.0000 C   0  0  0  0  0  0  0  0  0  0  0  0
    3.8781   -0.0937    0.0000 C   0  0  2  0  0  0  0  0  0  0  0  0
    3.0531   -0.0937    0.0000 O   0  0  0  0  0  0  0  0  0  0  0  0
    2.7982    0.6910    0.0000 C   0  0  0  0  0  0  0  0  0  0  0  0
    2.0136    0.9459    0.0000 O   0  0  0  0  0  0  0  0  0  0  0  0
    4.3631   -0.7611    0.0000 C   0  0  2  0  0  0  0  0  0  0  0  0
    4.0275   -1.5148    0.0000 C   0  0  0  0  0  0  0  0  0  0  0  0
    4.5124   -2.1822    0.0000 O   0  0  0  0  0  0  0  0  0  0  0  0
    5.1836   -0.6749    0.0000 O   0  0  0  0  0  0  0  0  0  0  0  0
    4.9177    0.9459    0.0000 O   0  0  0  0  0  0  0  0  0  0  0  0
    3.4656    3.6509    0.0000 O   0  0  0  0  0  0  0  0  0  0  0  0
    2.0367    4.4759    0.0000 O   0  0  0  0  0  0  0  0  0  0  0  0
    0.6078    3.6509    0.0000 O   0  0  0  0  0  0  0  0  0  0  0  0
    0.6078    1.1759    0.0000 O   0  0  0  0  0  0  0  0  0  0  0  0
   -0.3189    2.5359    0.0000 H   0  0  0  0  0  0  0  0  0  0  0  0
   -0.3188    1.4659    0.0000 H   0  0  0  0  0  0  0  0  0  0  0  0
    0.3955    2.9484    0.0000 H   0  0  0  0  0  0  0  0  0  0  0  0
    0.3955    2.7034    0.0000 H   0  0  0  0  0  0  0  0  0  0  0  0
    1.1101    4.1859    0.0000 H   0  0  0  0  0  0  0  0  0  0  0  0
    2.7512    4.3084    0.0000 H   0  0  0  0  0  0  0  0  0  0  0  0
    3.6779    2.9484    0.0000 H   0  0  0  0  0  0  0  0  0  0  0  0
    4.9349    0.0737    0.0000 H   0  0  0  0  0  0  0  0  0  0  0  0
    4.9920   -1.6268    0.0000 H   0  0  0  0  0  0  0  0  0  0  0  0
    2.9634   -1.6266    0.0000 H   0  0  0  0  0  0  0  0  0  0  0  0
    3.5923   -2.4923    0.0000 H   0  0  0  0  0  0  0  0  0  0  0  0
    4.1179   -3.0683    0.0000 H   0  0  0  0  0  0  0  0  0  0  0  0
    5.7537   -1.4597    0.0000 H   0  0  0  0  0  0  0  0  0  0  0  0
    5.6140    0.3189    0.0000 H   0  0  0  0  0  0  0  0  0  0  0  0
    4.3057    3.1659    0.0000 H   0  0  0  0  0  0  0  0  0  0  0  0
    2.8767    4.9609    0.0000 H   0  0  0  0  0  0  0  0  0  0  0  0
    0.6078    4.6209    0.0000 H   0  0  0  0  0  0  0  0  0  0  0  0
   -0.2322    0.6909    0.0000 H   0  0  0  0  0  0  0  0  0  0  0  0
  1 23  1  0  0  0  0
  1 24  1  0  0  0  0
  1 25  1  0  0  0  0
  2  1  1  0  0  0  0
  2  3  1  0  0  0  0
  2  7  1  0  0  0  0
  2 26  1  1  0  0  0
  3  4  1  0  0  0  0
  3 22  1  0  0  0  0
  3 27  1  6  0  0  0
  4  5  1  0  0  0  0
  4 21  1  0  0  0  0
  4 28  1  1  0  0  0
  5  6  1  0  0  0  0
  5 20  1  0  0  0  0
  5 29  1  6  0  0  0
  6  7  1  0  0  0  0
  6  8  1  0  0  0  0
  6 30  1  6  0  0  0
  8  9  1  0  0  0  0
  9 10  2  0  0  0  0
  9 13  1  0  0  0  0
 10 11  1  0  0  0  0
 10 19  1  0  0  0  0
 11 12  1  0  0  0  0
 11 15  1  0  0  0  0
 11 31  1  6  0  0  0
 12 13  1  0  0  0  0
 13 14  2  0  0  0  0
 15 16  1  0  0  0  0
 15 18  1  0  0  0  0
 15 32  1  6  0  0  0
 16 17  1  0  0  0  0
 16 33  1  0  0  0  0
 16 34  1  0  0  0  0
 17 35  1  0  0  0  0
 18 36  1  0  0  0  0
 19 37  1  0  0  0  0
 20 38  1  0  0  0  0
 21 39  1  0  0  0  0
 22 40  1  0  0  0  0
 23 41  1  0  0  0  0
M  END
>  <DRUGBANK_ID>
DB11335

>  <COMMON_NAME>
Ascorbyl glucoside

>  <CAS_NUMBER>
129499-78-1

>  <UNII>
2V52R0NHXW

>  <SYNONYMS>
AA-2G; AA2G; Ascorbic acid 2-O-glucoside

$$$$
