41A
 OpenBabel10282417072D

 36 38  0  0  0  0  0  0  0  0999 V2000
    2.3257   -1.2418    0.0000 C   0  0  0  0  0  0  0  0  0  0  0  0
    2.0435   -0.4665    0.0000 C   0  0  0  0  0  0  0  0  0  0  0  0
    2.8560   -0.3232    0.0000 C   0  0  0  0  0  0  0  0  0  0  0  0
    1.3290   -0.8790    0.0000 C   0  0  0  0  0  0  0  0  0  0  0  0
    0.6146   -0.4665    0.0000 C   0  0  0  0  0  0  0  0  0  0  0  0
    0.6146    0.3585    0.0000 C   0  0  0  0  0  0  0  0  0  0  0  0
    1.3290    0.7710    0.0000 C   0  0  0  0  0  0  0  0  0  0  0  0
    2.0435    0.3585    0.0000 C   0  0  0  0  0  0  0  0  0  0  0  0
    1.3290    1.5960    0.0000 O   0  0  0  0  0  0  0  0  0  0  0  0
   -0.1701    0.6134    0.0000 S   0  0  0  0  0  0  0  0  0  0  0  0
   -0.6550   -0.0540    0.0000 C   0  0  0  0  0  0  0  0  0  0  0  0
   -1.4800   -0.0540    0.0000 N   0  0  0  0  0  0  0  0  0  0  0  0
   -1.8925   -0.7685    0.0000 C   0  0  0  0  0  0  0  0  0  0  0  0
   -2.7175   -0.7685    0.0000 C   0  0  0  0  0  0  0  0  0  0  0  0
   -3.1300   -0.0540    0.0000 O   0  0  0  0  0  0  0  0  0  0  0  0
   -2.7175    0.6605    0.0000 C   0  0  0  0  0  0  0  0  0  0  0  0
   -1.8925    0.6605    0.0000 C   0  0  0  0  0  0  0  0  0  0  0  0
   -0.1701   -0.7214    0.0000 N   0  0  0  0  0  0  0  0  0  0  0  0
    1.6379   -2.0615    0.0000 H   0  0  0  0  0  0  0  0  0  0  0  0
    3.3794   -1.4276    0.0000 H   0  0  0  0  0  0  0  0  0  0  0  0
    2.6917   -2.2473    0.0000 H   0  0  0  0  0  0  0  0  0  0  0  0
    3.5438   -1.1428    0.0000 H   0  0  0  0  0  0  0  0  0  0  0  0
    3.2219    0.6823    0.0000 H   0  0  0  0  0  0  0  0  0  0  0  0
    3.9097   -0.1374    0.0000 H   0  0  0  0  0  0  0  0  0  0  0  0
    1.3290   -1.9490    0.0000 H   0  0  0  0  0  0  0  0  0  0  0  0
    0.4023   -1.4140    0.0000 H   0  0  0  0  0  0  0  0  0  0  0  0
    2.9701    0.8935    0.0000 H   0  0  0  0  0  0  0  0  0  0  0  0
    2.0435    1.4285    0.0000 H   0  0  0  0  0  0  0  0  0  0  0  0
   -1.3575   -1.6951    0.0000 H   0  0  0  0  0  0  0  0  0  0  0  0
   -2.4275   -1.6951    0.0000 H   0  0  0  0  0  0  0  0  0  0  0  0
   -3.2525   -1.6951    0.0000 H   0  0  0  0  0  0  0  0  0  0  0  0
   -3.7875   -0.7685    0.0000 H   0  0  0  0  0  0  0  0  0  0  0  0
   -3.2525    1.5871    0.0000 H   0  0  0  0  0  0  0  0  0  0  0  0
   -2.1825    1.5871    0.0000 H   0  0  0  0  0  0  0  0  0  0  0  0
   -1.3575    1.5871    0.0000 H   0  0  0  0  0  0  0  0  0  0  0  0
   -2.4275    1.5871    0.0000 H   0  0  0  0  0  0  0  0  0  0  0  0
  1  2  1  0  0  0  0
  1 19  1  0  0  0  0
  1 20  1  0  0  0  0
  1 21  1  0  0  0  0
  2  3  1  0  0  0  0
  2  4  1  0  0  0  0
  2  8  1  0  0  0  0
  3 22  1  0  0  0  0
  3 23  1  0  0  0  0
  3 24  1  0  0  0  0
  4  5  1  0  0  0  0
  4 25  1  0  0  0  0
  4 26  1  0  0  0  0
  5  6  2  0  0  0  0
  5 18  1  0  0  0  0
  6  7  1  0  0  0  0
  6 10  1  0  0  0  0
  7  8  1  0  0  0  0
  7  9  2  0  0  0  0
  8 27  1  0  0  0  0
  8 28  1  0  0  0  0
 10 11  1  0  0  0  0
 11 12  1  0  0  0  0
 11 18  2  0  0  0  0
 12 13  1  0  0  0  0
 12 17  1  0  0  0  0
 13 14  1  0  0  0  0
 13 29  1  0  0  0  0
 13 30  1  0  0  0  0
 14 15  1  0  0  0  0
 14 31  1  0  0  0  0
 14 32  1  0  0  0  0
 15 16  1  0  0  0  0
 16 17  1  0  0  0  0
 16 33  1  0  0  0  0
 16 34  1  0  0  0  0
 17 35  1  0  0  0  0
 17 36  1  0  0  0  0
M  END
>  <DRUGBANK_ID>
DB07073

>  <COMMON_NAME>
5,5-dimethyl-2-morpholin-4-yl-5,6-dihydro-1,3-benzothiazol-7(4H)-one

>  <UNII>
QDN0FW2IO9

$$$$
