C8E
 OpenBabel10282417072D

 55 54  0  0  0  0  0  0  0  0999 V2000
   -6.6883    0.2205    0.0000 C   0  0  0  0  0  0  0  0  0  0  0  0
   -5.9738   -0.1920    0.0000 C   0  0  0  0  0  0  0  0  0  0  0  0
   -5.2593    0.2205    0.0000 C   0  0  0  0  0  0  0  0  0  0  0  0
   -4.5447   -0.1920    0.0000 C   0  0  0  0  0  0  0  0  0  0  0  0
   -3.8303    0.2205    0.0000 C   0  0  0  0  0  0  0  0  0  0  0  0
   -3.1157   -0.1920    0.0000 C   0  0  0  0  0  0  0  0  0  0  0  0
   -2.4012    0.2205    0.0000 C   0  0  0  0  0  0  0  0  0  0  0  0
   -1.6866   -0.1920    0.0000 C   0  0  0  0  0  0  0  0  0  0  0  0
   -0.9722    0.2205    0.0000 O   0  0  0  0  0  0  0  0  0  0  0  0
   -0.2576   -0.1920    0.0000 C   0  0  0  0  0  0  0  0  0  0  0  0
    0.4569    0.2205    0.0000 C   0  0  0  0  0  0  0  0  0  0  0  0
    1.1714   -0.1920    0.0000 O   0  0  0  0  0  0  0  0  0  0  0  0
    1.8859    0.2205    0.0000 C   0  0  0  0  0  0  0  0  0  0  0  0
    2.6005   -0.1920    0.0000 C   0  0  0  0  0  0  0  0  0  0  0  0
    3.3149    0.2205    0.0000 O   0  0  0  0  0  0  0  0  0  0  0  0
    4.0295   -0.1920    0.0000 C   0  0  0  0  0  0  0  0  0  0  0  0
    4.7441    0.2205    0.0000 C   0  0  0  0  0  0  0  0  0  0  0  0
    5.4586   -0.1920    0.0000 O   0  0  0  0  0  0  0  0  0  0  0  0
    6.1731    0.2205    0.0000 C   0  0  0  0  0  0  0  0  0  0  0  0
    6.8876   -0.1920    0.0000 C   0  0  0  0  0  0  0  0  0  0  0  0
    7.6022    0.2205    0.0000 O   0  0  0  0  0  0  0  0  0  0  0  0
   -6.6883    1.2905    0.0000 H   0  0  0  0  0  0  0  0  0  0  0  0
   -7.6149   -0.3145    0.0000 H   0  0  0  0  0  0  0  0  0  0  0  0
   -7.6150    0.7555    0.0000 H   0  0  0  0  0  0  0  0  0  0  0  0
   -5.9738   -1.2620    0.0000 H   0  0  0  0  0  0  0  0  0  0  0  0
   -5.0472   -0.7270    0.0000 H   0  0  0  0  0  0  0  0  0  0  0  0
   -5.2593    1.2905    0.0000 H   0  0  0  0  0  0  0  0  0  0  0  0
   -4.3327    0.7556    0.0000 H   0  0  0  0  0  0  0  0  0  0  0  0
   -4.5446   -1.2620    0.0000 H   0  0  0  0  0  0  0  0  0  0  0  0
   -3.6180   -0.7270    0.0000 H   0  0  0  0  0  0  0  0  0  0  0  0
   -3.8304    1.2905    0.0000 H   0  0  0  0  0  0  0  0  0  0  0  0
   -2.9037    0.7556    0.0000 H   0  0  0  0  0  0  0  0  0  0  0  0
   -3.1157   -1.2620    0.0000 H   0  0  0  0  0  0  0  0  0  0  0  0
   -2.1890   -0.7270    0.0000 H   0  0  0  0  0  0  0  0  0  0  0  0
   -2.4012    1.2905    0.0000 H   0  0  0  0  0  0  0  0  0  0  0  0
   -1.4746    0.7556    0.0000 H   0  0  0  0  0  0  0  0  0  0  0  0
   -1.6865   -1.2620    0.0000 H   0  0  0  0  0  0  0  0  0  0  0  0
   -0.7599   -0.7270    0.0000 H   0  0  0  0  0  0  0  0  0  0  0  0
   -0.2576   -1.2620    0.0000 H   0  0  0  0  0  0  0  0  0  0  0  0
    0.6691   -0.7270    0.0000 H   0  0  0  0  0  0  0  0  0  0  0  0
    0.4569    1.2905    0.0000 H   0  0  0  0  0  0  0  0  0  0  0  0
    1.3835    0.7555    0.0000 H   0  0  0  0  0  0  0  0  0  0  0  0
    1.8859    1.2905    0.0000 H   0  0  0  0  0  0  0  0  0  0  0  0
    2.8125    0.7556    0.0000 H   0  0  0  0  0  0  0  0  0  0  0  0
    2.6006   -1.2620    0.0000 H   0  0  0  0  0  0  0  0  0  0  0  0
    3.5272   -0.7270    0.0000 H   0  0  0  0  0  0  0  0  0  0  0  0
    4.0295   -1.2620    0.0000 H   0  0  0  0  0  0  0  0  0  0  0  0
    4.9561   -0.7270    0.0000 H   0  0  0  0  0  0  0  0  0  0  0  0
    4.7441    1.2905    0.0000 H   0  0  0  0  0  0  0  0  0  0  0  0
    5.6708    0.7555    0.0000 H   0  0  0  0  0  0  0  0  0  0  0  0
    6.1731    1.2905    0.0000 H   0  0  0  0  0  0  0  0  0  0  0  0
    7.0997    0.7555    0.0000 H   0  0  0  0  0  0  0  0  0  0  0  0
    6.8876   -1.2620    0.0000 H   0  0  0  0  0  0  0  0  0  0  0  0
    7.8142   -0.7271    0.0000 H   0  0  0  0  0  0  0  0  0  0  0  0
    8.4422   -0.2646    0.0000 H   0  0  0  0  0  0  0  0  0  0  0  0
  1  2  1  0  0  0  0
  1 22  1  0  0  0  0
  1 23  1  0  0  0  0
  1 24  1  0  0  0  0
  2  3  1  0  0  0  0
  2 25  1  0  0  0  0
  2 26  1  0  0  0  0
  3  4  1  0  0  0  0
  3 27  1  0  0  0  0
  3 28  1  0  0  0  0
  4  5  1  0  0  0  0
  4 29  1  0  0  0  0
  4 30  1  0  0  0  0
  5  6  1  0  0  0  0
  5 31  1  0  0  0  0
  5 32  1  0  0  0  0
  6  7  1  0  0  0  0
  6 33  1  0  0  0  0
  6 34  1  0  0  0  0
  7  8  1  0  0  0  0
  7 35  1  0  0  0  0
  7 36  1  0  0  0  0
  8  9  1  0  0  0  0
  8 37  1  0  0  0  0
  8 38  1  0  0  0  0
  9 10  1  0  0  0  0
 10 11  1  0  0  0  0
 10 39  1  0  0  0  0
 10 40  1  0  0  0  0
 11 12  1  0  0  0  0
 11 41  1  0  0  0  0
 11 42  1  0  0  0  0
 12 13  1  0  0  0  0
 13 14  1  0  0  0  0
 13 43  1  0  0  0  0
 13 44  1  0  0  0  0
 14 15  1  0  0  0  0
 14 45  1  0  0  0  0
 14 46  1  0  0  0  0
 15 16  1  0  0  0  0
 16 17  1  0  0  0  0
 16 47  1  0  0  0  0
 16 48  1  0  0  0  0
 17 18  1  0  0  0  0
 17 49  1  0  0  0  0
 17 50  1  0  0  0  0
 18 19  1  0  0  0  0
 19 20  1  0  0  0  0
 19 51  1  0  0  0  0
 19 52  1  0  0  0  0
 20 21  1  0  0  0  0
 20 53  1  0  0  0  0
 20 54  1  0  0  0  0
 21 55  1  0  0  0  0
M  END
>  <DRUGBANK_ID>
DB04233

>  <SECONDARY_ACCESSION_NUMBERS>
EXPT00817

>  <COMMON_NAME>
(Hydroxyethyloxy)Tri(Ethyloxy)Octane

$$$$
