
 OpenBabel10282417072D

126129  0  0  1  0  0  0  0  0999 V2000
   -4.6344    6.4774    0.0000 H   0  0  0  0  0  0  0  0  0  0  0  0
   -4.3536    5.7017    0.0000 C   0  0  1  0  0  0  0  0  0  0  0  0
   -3.7899    6.3040    0.0000 C   0  0  0  0  0  0  0  0  0  0  0  0
   -3.0428    5.9539    0.0000 C   0  0  0  0  0  0  0  0  0  0  0  0
   -3.1449    5.1353    0.0000 C   0  0  1  0  0  0  0  0  0  0  0  0
   -3.4149    4.3557    0.0000 H   0  0  0  0  0  0  0  0  0  0  0  0
   -2.6048    4.5116    0.0000 C   0  0  2  0  0  0  0  0  0  0  0  0
   -2.3347    5.2912    0.0000 H   0  0  0  0  0  0  0  0  0  0  0  0
   -1.7946    4.6675    0.0000 C   0  0  1  0  0  0  0  0  0  0  0  0
   -1.5246    5.4471    0.0000 O   0  0  0  0  0  0  0  0  0  0  0  0
   -1.2546    4.0439    0.0000 C   0  0  0  0  0  0  0  0  0  0  0  0
   -1.5246    3.2643    0.0000 C   0  0  0  0  0  0  0  0  0  0  0  0
   -0.9845    2.6407    0.0000 C   0  0  0  0  0  0  0  0  0  0  0  0
   -1.2546    1.8611    0.0000 C   0  0  2  0  0  0  0  0  0  0  0  0
   -2.0647    1.7052    0.0000 C   0  0  0  0  0  0  0  0  0  0  0  0
   -2.6048    2.3289    0.0000 C   0  0  0  0  0  0  0  0  0  0  0  0
   -2.3347    3.1084    0.0000 C   0  0  1  0  0  0  0  0  0  0  0  0
   -3.1449    2.9525    0.0000 C   0  0  0  0  0  0  0  0  0  0  0  0
   -2.8748    3.7321    0.0000 C   0  0  1  0  0  0  0  0  0  0  0  0
   -2.0647    3.8880    0.0000 H   0  0  0  0  0  0  0  0  0  0  0  0
   -3.6850    3.5762    0.0000 C   0  0  0  0  0  0  0  0  0  0  0  0
   -4.2251    4.1998    0.0000 C   0  0  0  0  0  0  0  0  0  0  0  0
   -3.9550    4.9793    0.0000 C   0  0  2  0  0  0  0  0  0  0  0  0
   -4.7770    4.9090    0.0000 C   0  0  0  0  0  0  0  0  0  0  0  0
   -0.7145    1.2375    0.0000 O   0  0  0  0  0  0  0  0  0  0  0  0
    0.0957    1.3934    0.0000 C   0  0  0  0  0  0  0  0  0  0  0  0
    0.6358    0.7698    0.0000 O   0  0  0  0  0  0  0  0  0  0  0  0
    0.3657    2.1730    0.0000 C   0  0  0  0  0  0  0  0  0  0  0  0
    1.1758    2.3289    0.0000 C   0  0  0  0  0  0  0  0  0  0  0  0
    1.4459    3.1084    0.0000 C   0  0  0  0  0  0  0  0  0  0  0  0
    2.2560    3.2643    0.0000 C   0  0  0  0  0  0  0  0  0  0  0  0
    2.7961    2.6407    0.0000 C   0  0  0  0  0  0  0  0  0  0  0  0
    2.5261    1.8611    0.0000 C   0  0  0  0  0  0  0  0  0  0  0  0
    3.0662    1.2375    0.0000 C   0  0  0  0  0  0  0  0  0  0  0  0
    2.7961    0.4579    0.0000 C   0  0  0  0  0  0  0  0  0  0  0  0
    3.3362   -0.1657    0.0000 C   0  0  0  0  0  0  0  0  0  0  0  0
    4.1463   -0.0098    0.0000 C   0  0  0  0  0  0  0  0  0  0  0  0
    4.6864   -0.6334    0.0000 C   0  0  0  0  0  0  0  0  0  0  0  0
    5.4966   -0.4775    0.0000 C   0  0  0  0  0  0  0  0  0  0  0  0
    6.0366   -1.1012    0.0000 C   0  0  0  0  0  0  0  0  0  0  0  0
    6.8468   -0.9452    0.0000 C   0  0  0  0  0  0  0  0  0  0  0  0
    7.3869   -1.5689    0.0000 C   0  0  0  0  0  0  0  0  0  0  0  0
    8.1970   -1.4130    0.0000 C   0  0  0  0  0  0  0  0  0  0  0  0
    8.7371   -2.0366    0.0000 C   0  0  0  0  0  0  0  0  0  0  0  0
   -5.1723    5.8037    0.0000 C   0  0  2  0  0  0  0  0  0  0  0  0
   -5.4932    6.5637    0.0000 C   0  0  0  0  0  0  0  0  0  0  0  0
   -5.6700    5.1458    0.0000 C   0  0  0  0  0  0  0  0  0  0  0  0
   -6.4887    5.2478    0.0000 C   0  0  0  0  0  0  0  0  0  0  0  0
   -6.9864    4.5899    0.0000 C   0  0  0  0  0  0  0  0  0  0  0  0
   -7.8051    4.6920    0.0000 C   0  0  0  0  0  0  0  0  0  0  0  0
   -8.3028    4.0340    0.0000 C   0  0  0  0  0  0  0  0  0  0  0  0
   -8.1260    5.4520    0.0000 C   0  0  0  0  0  0  0  0  0  0  0  0
   -3.9921    7.3547    0.0000 H   0  0  0  0  0  0  0  0  0  0  0  0
   -2.9455    6.9612    0.0000 H   0  0  0  0  0  0  0  0  0  0  0  0
   -2.1060    6.4709    0.0000 H   0  0  0  0  0  0  0  0  0  0  0  0
   -2.1569    5.3539    0.0000 H   0  0  0  0  0  0  0  0  0  0  0  0
   -2.4951    5.4763    0.0000 H   0  0  0  0  0  0  0  0  0  0  0  0
   -0.5721    5.6305    0.0000 H   0  0  0  0  0  0  0  0  0  0  0  0
   -0.2412    4.2389    0.0000 H   0  0  0  0  0  0  0  0  0  0  0  0
    0.0662    2.8429    0.0000 H   0  0  0  0  0  0  0  0  0  0  0  0
   -0.2840    1.8318    0.0000 H   0  0  0  0  0  0  0  0  0  0  0  0
   -0.2039    2.0633    0.0000 H   0  0  0  0  0  0  0  0  0  0  0  0
   -2.4150    0.6942    0.0000 H   0  0  0  0  0  0  0  0  0  0  0  0
   -3.1154    1.5030    0.0000 H   0  0  0  0  0  0  0  0  0  0  0  0
   -3.6555    2.1268    0.0000 H   0  0  0  0  0  0  0  0  0  0  0  0
   -3.3052    3.1378    0.0000 H   0  0  0  0  0  0  0  0  0  0  0  0
   -3.8454    3.7614    0.0000 H   0  0  0  0  0  0  0  0  0  0  0  0
   -3.4952    1.9415    0.0000 H   0  0  0  0  0  0  0  0  0  0  0  0
   -4.1956    2.7503    0.0000 H   0  0  0  0  0  0  0  0  0  0  0  0
   -4.0352    2.5651    0.0000 H   0  0  0  0  0  0  0  0  0  0  0  0
   -4.7357    3.3740    0.0000 H   0  0  0  0  0  0  0  0  0  0  0  0
   -5.2758    3.9976    0.0000 H   0  0  0  0  0  0  0  0  0  0  0  0
   -4.9255    5.0087    0.0000 H   0  0  0  0  0  0  0  0  0  0  0  0
   -5.3890    5.7867    0.0000 H   0  0  0  0  0  0  0  0  0  0  0  0
   -5.2311    3.9401    0.0000 H   0  0  0  0  0  0  0  0  0  0  0  0
   -5.8431    4.8178    0.0000 H   0  0  0  0  0  0  0  0  0  0  0  0
   -0.3348    2.9818    0.0000 H   0  0  0  0  0  0  0  0  0  0  0  0
    0.7159    3.1841    0.0000 H   0  0  0  0  0  0  0  0  0  0  0  0
    1.8762    1.5200    0.0000 H   0  0  0  0  0  0  0  0  0  0  0  0
    2.2265    2.5310    0.0000 H   0  0  0  0  0  0  0  0  0  0  0  0
    0.7455    3.9173    0.0000 H   0  0  0  0  0  0  0  0  0  0  0  0
    1.7962    4.1194    0.0000 H   0  0  0  0  0  0  0  0  0  0  0  0
    2.6062    4.2754    0.0000 H   0  0  0  0  0  0  0  0  0  0  0  0
    3.3067    3.4665    0.0000 H   0  0  0  0  0  0  0  0  0  0  0  0
    3.8468    2.8430    0.0000 H   0  0  0  0  0  0  0  0  0  0  0  0
    3.4966    1.8319    0.0000 H   0  0  0  0  0  0  0  0  0  0  0  0
    1.4754    1.6588    0.0000 H   0  0  0  0  0  0  0  0  0  0  0  0
    2.1759    0.8500    0.0000 H   0  0  0  0  0  0  0  0  0  0  0  0
    4.1169    1.4397    0.0000 H   0  0  0  0  0  0  0  0  0  0  0  0
    3.7667    0.4286    0.0000 H   0  0  0  0  0  0  0  0  0  0  0  0
    1.7827    0.2629    0.0000 H   0  0  0  0  0  0  0  0  0  0  0  0
    2.9984   -1.1409    0.0000 H   0  0  0  0  0  0  0  0  0  0  0  0
    4.4965    1.0013    0.0000 H   0  0  0  0  0  0  0  0  0  0  0  0
    5.1970    0.1924    0.0000 H   0  0  0  0  0  0  0  0  0  0  0  0
    4.3362   -1.6445    0.0000 H   0  0  0  0  0  0  0  0  0  0  0  0
    5.3869   -1.4423    0.0000 H   0  0  0  0  0  0  0  0  0  0  0  0
    5.8469    0.5335    0.0000 H   0  0  0  0  0  0  0  0  0  0  0  0
    6.5473   -0.2754    0.0000 H   0  0  0  0  0  0  0  0  0  0  0  0
    5.6863   -2.1122    0.0000 H   0  0  0  0  0  0  0  0  0  0  0  0
    6.7371   -1.9100    0.0000 H   0  0  0  0  0  0  0  0  0  0  0  0
    7.1970    0.0659    0.0000 H   0  0  0  0  0  0  0  0  0  0  0  0
    7.8975   -0.7430    0.0000 H   0  0  0  0  0  0  0  0  0  0  0  0
    7.0366   -2.5799    0.0000 H   0  0  0  0  0  0  0  0  0  0  0  0
    8.0874   -2.3778    0.0000 H   0  0  0  0  0  0  0  0  0  0  0  0
    8.5472   -0.4019    0.0000 H   0  0  0  0  0  0  0  0  0  0  0  0
    9.2477   -1.2108    0.0000 H   0  0  0  0  0  0  0  0  0  0  0  0
    8.3869   -3.0477    0.0000 H   0  0  0  0  0  0  0  0  0  0  0  0
    9.7878   -1.8343    0.0000 H   0  0  0  0  0  0  0  0  0  0  0  0
    9.4376   -2.8454    0.0000 H   0  0  0  0  0  0  0  0  0  0  0  0
   -6.2341    5.9361    0.0000 H   0  0  0  0  0  0  0  0  0  0  0  0
   -4.8476    7.4170    0.0000 H   0  0  0  0  0  0  0  0  0  0  0  0
   -6.5550    6.6961    0.0000 H   0  0  0  0  0  0  0  0  0  0  0  0
   -5.9094    7.5494    0.0000 H   0  0  0  0  0  0  0  0  0  0  0  0
   -5.2537    4.1601    0.0000 H   0  0  0  0  0  0  0  0  0  0  0  0
   -6.3155    4.2924    0.0000 H   0  0  0  0  0  0  0  0  0  0  0  0
   -6.9050    6.2335    0.0000 H   0  0  0  0  0  0  0  0  0  0  0  0
   -7.5505    5.3802    0.0000 H   0  0  0  0  0  0  0  0  0  0  0  0
   -6.5702    3.6042    0.0000 H   0  0  0  0  0  0  0  0  0  0  0  0
   -7.6320    3.7366    0.0000 H   0  0  0  0  0  0  0  0  0  0  0  0
   -8.8669    4.8244    0.0000 H   0  0  0  0  0  0  0  0  0  0  0  0
   -9.3646    4.1663    0.0000 H   0  0  0  0  0  0  0  0  0  0  0  0
   -7.8865    3.0483    0.0000 H   0  0  0  0  0  0  0  0  0  0  0  0
   -8.9483    3.1806    0.0000 H   0  0  0  0  0  0  0  0  0  0  0  0
   -7.4804    6.3053    0.0000 H   0  0  0  0  0  0  0  0  0  0  0  0
   -9.1878    5.5844    0.0000 H   0  0  0  0  0  0  0  0  0  0  0  0
   -8.5422    6.4377    0.0000 H   0  0  0  0  0  0  0  0  0  0  0  0
  2  1  1  6  0  0  0
  2  3  1  0  0  0  0
  2 45  1  0  0  0  0
  3  4  1  0  0  0  0
  3 53  1  0  0  0  0
  3 54  1  0  0  0  0
  4 55  1  0  0  0  0
  4 56  1  0  0  0  0
  5  4  1  0  0  0  0
  5  6  1  6  0  0  0
  5 23  1  0  0  0  0
  7  5  1  0  0  0  0
  7  8  1  1  0  0  0
  7  9  1  0  0  0  0
  7 19  1  0  0  0  0
  9 10  1  0  0  0  0
  9 11  1  0  0  0  0
  9 57  1  6  0  0  0
 10 58  1  0  0  0  0
 11 12  2  0  0  0  0
 11 59  1  0  0  0  0
 12 13  1  0  0  0  0
 13 60  1  0  0  0  0
 13 61  1  0  0  0  0
 14 13  1  0  0  0  0
 14 15  1  0  0  0  0
 14 25  1  0  0  0  0
 14 62  1  6  0  0  0
 15 16  1  0  0  0  0
 15 63  1  0  0  0  0
 15 64  1  0  0  0  0
 16 65  1  0  0  0  0
 16 66  1  0  0  0  0
 17 16  1  0  0  0  0
 17 12  1  0  0  0  0
 17 18  1  1  0  0  0
 18 67  1  0  0  0  0
 18 68  1  0  0  0  0
 18 69  1  0  0  0  0
 19 17  1  0  0  0  0
 19 20  1  6  0  0  0
 19 21  1  0  0  0  0
 21 22  1  0  0  0  0
 21 70  1  0  0  0  0
 21 71  1  0  0  0  0
 22 72  1  0  0  0  0
 22 73  1  0  0  0  0
 23 22  1  0  0  0  0
 23  2  1  0  0  0  0
 23 24  1  1  0  0  0
 24 74  1  0  0  0  0
 24 75  1  0  0  0  0
 24 76  1  0  0  0  0
 25 26  1  0  0  0  0
 26 27  2  0  0  0  0
 26 28  1  0  0  0  0
 28 29  1  0  0  0  0
 28 77  1  0  0  0  0
 28 78  1  0  0  0  0
 29 30  1  0  0  0  0
 29 79  1  0  0  0  0
 29 80  1  0  0  0  0
 30 31  1  0  0  0  0
 30 81  1  0  0  0  0
 30 82  1  0  0  0  0
 31 32  1  0  0  0  0
 31 83  1  0  0  0  0
 31 84  1  0  0  0  0
 32 33  1  0  0  0  0
 32 85  1  0  0  0  0
 32 86  1  0  0  0  0
 33 34  1  0  0  0  0
 33 87  1  0  0  0  0
 33 88  1  0  0  0  0
 34 35  1  0  0  0  0
 34 89  1  0  0  0  0
 34 90  1  0  0  0  0
 35 36  2  0  0  0  0
 35 91  1  0  0  0  0
 36 37  1  0  0  0  0
 36 92  1  0  0  0  0
 37 38  1  0  0  0  0
 37 93  1  0  0  0  0
 37 94  1  0  0  0  0
 38 39  1  0  0  0  0
 38 95  1  0  0  0  0
 38 96  1  0  0  0  0
 39 40  1  0  0  0  0
 39 97  1  0  0  0  0
 39 98  1  0  0  0  0
 40 41  1  0  0  0  0
 40 99  1  0  0  0  0
 40100  1  0  0  0  0
 41 42  1  0  0  0  0
 41101  1  0  0  0  0
 41102  1  0  0  0  0
 42 43  1  0  0  0  0
 42103  1  0  0  0  0
 42104  1  0  0  0  0
 43 44  1  0  0  0  0
 43105  1  0  0  0  0
 43106  1  0  0  0  0
 44107  1  0  0  0  0
 44108  1  0  0  0  0
 44109  1  0  0  0  0
 45 46  1  0  0  0  0
 45 47  1  0  0  0  0
 45110  1  6  0  0  0
 46111  1  0  0  0  0
 46112  1  0  0  0  0
 46113  1  0  0  0  0
 47 48  1  0  0  0  0
 47114  1  0  0  0  0
 47115  1  0  0  0  0
 48 49  1  0  0  0  0
 48116  1  0  0  0  0
 48117  1  0  0  0  0
 49 50  1  0  0  0  0
 49118  1  0  0  0  0
 49119  1  0  0  0  0
 50 51  1  0  0  0  0
 50 52  1  0  0  0  0
 50120  1  0  0  0  0
 51121  1  0  0  0  0
 51122  1  0  0  0  0
 51123  1  0  0  0  0
 52124  1  0  0  0  0
 52125  1  0  0  0  0
 52126  1  0  0  0  0
M  END
>  <DRUGBANK_ID>
DB18113

>  <COMMON_NAME>
7.beta.-hydroxycholesteryl-3-oleate

>  <CAS_NUMBER>
141099-60-7

>  <UNII>
A59FMD985O

>  <SYNONYMS>
7.beta.-hydroxycholesterol 3-oleate; 7.beta.-hydroxycholesteryl 3-oleate; Cholest-5-ene-3,7-diol, 3-(9z)-9-octadecenoate, (3.beta.,7.beta.)-

$$$$
