
 OpenBabel10282417072D

 33 34  0  0  0  0  0  0  0  0999 V2000
   -0.7722   -0.3023    0.0000 N   0  0  0  0  0  0  0  0  0  0  0  0
   -1.1847    0.9671    0.0000 C   0  0  0  0  0  0  0  0  0  0  0  0
   -1.4396    0.1825    0.0000 C   0  0  0  0  0  0  0  0  0  0  0  0
   -0.3597    0.9671    0.0000 N   0  0  0  0  0  0  0  0  0  0  0  0
   -0.1047    0.1825    0.0000 C   0  0  0  0  0  0  0  0  0  0  0  0
    2.0856   -1.1273    0.0000 P   0  0  0  0  0  0  0  0  0  0  0  0
   -1.7367    1.5802    0.0000 C   0  0  0  0  0  0  0  0  0  0  0  0
   -2.2466    0.0110    0.0000 N   0  0  0  0  0  0  0  0  0  0  0  0
   -2.5437    1.4087    0.0000 N   0  0  0  0  0  0  0  0  0  0  0  0
   -0.7722   -1.1273    0.0000 C   0  0  0  0  0  0  0  0  0  0  0  0
   -2.7987    0.6240    0.0000 C   0  0  0  0  0  0  0  0  0  0  0  0
    1.3711   -1.5398    0.0000 C   0  0  0  0  0  0  0  0  0  0  0  0
    0.6566   -1.1273    0.0000 O   0  0  0  0  0  0  0  0  0  0  0  0
   -1.4818    2.3649    0.0000 N   0  0  0  0  0  0  0  0  0  0  0  0
   -0.0577   -1.5398    0.0000 C   0  0  2  0  0  0  0  0  0  0  0  0
   -0.0577   -2.3649    0.0000 C   0  0  0  0  0  0  0  0  0  0  0  0
    2.7987   -1.5332    0.0000 O   0  0  0  0  0  0  0  0  0  0  0  0
    2.0830   -0.3006    0.0000 O   0  0  0  0  0  0  0  0  0  0  0  0
    2.3017   -1.9208    0.0000 O   0  0  0  0  0  0  0  0  0  0  0  0
    0.8768   -0.1364    0.0000 H   0  0  0  0  0  0  0  0  0  0  0  0
   -1.6988   -1.6623    0.0000 H   0  0  0  0  0  0  0  0  0  0  0  0
   -0.7722   -2.1973    0.0000 H   0  0  0  0  0  0  0  0  0  0  0  0
   -3.8081    0.4094    0.0000 H   0  0  0  0  0  0  0  0  0  0  0  0
    1.3711   -2.6098    0.0000 H   0  0  0  0  0  0  0  0  0  0  0  0
    0.4445   -2.0748    0.0000 H   0  0  0  0  0  0  0  0  0  0  0  0
   -0.5188    2.5697    0.0000 H   0  0  0  0  0  0  0  0  0  0  0  0
   -2.1406    3.0965    0.0000 H   0  0  0  0  0  0  0  0  0  0  0  0
   -0.9843   -2.0748    0.0000 H   0  0  0  0  0  0  0  0  0  0  0  0
   -0.9843   -2.8999    0.0000 H   0  0  0  0  0  0  0  0  0  0  0  0
    0.8689   -2.8999    0.0000 H   0  0  0  0  0  0  0  0  0  0  0  0
   -0.0577   -3.4349    0.0000 H   0  0  0  0  0  0  0  0  0  0  0  0
    2.8046   -2.5032    0.0000 H   0  0  0  0  0  0  0  0  0  0  0  0
    1.6186   -2.6095    0.0000 H   0  0  0  0  0  0  0  0  0  0  0  0
  3  1  1  0  0  0  0
  3  2  2  0  0  0  0
  4  2  1  0  0  0  0
  5  1  1  0  0  0  0
  5  4  2  0  0  0  0
  5 20  1  0  0  0  0
  6 17  1  0  0  0  0
  6 18  2  0  0  0  0
  6 19  1  0  0  0  0
  7  2  1  0  0  0  0
  8  3  1  0  0  0  0
  9  7  2  0  0  0  0
 10  1  1  0  0  0  0
 10 21  1  0  0  0  0
 10 22  1  0  0  0  0
 11  8  2  0  0  0  0
 11  9  1  0  0  0  0
 11 23  1  0  0  0  0
 12  6  1  0  0  0  0
 12 24  1  0  0  0  0
 12 25  1  0  0  0  0
 13 12  1  0  0  0  0
 14  7  1  0  0  0  0
 14 26  1  0  0  0  0
 14 27  1  0  0  0  0
 15 10  1  0  0  0  0
 15 13  1  0  0  0  0
 15 16  1  0  0  0  0
 15 28  1  1  0  0  0
 16 29  1  0  0  0  0
 16 30  1  0  0  0  0
 16 31  1  0  0  0  0
 17 32  1  0  0  0  0
 19 33  1  0  0  0  0
M  END
>  <DRUGBANK_ID>
DB14126

>  <COMMON_NAME>
Tenofovir

>  <CAS_NUMBER>
147127-20-6

>  <UNII>
W4HFE001U5

>  <SYNONYMS>
(R)-PMPA; Anhydrous tenofovir; Tenofovir; Tenofovir (anh.); Tenofovir (anhydrous); Tenofovir anhydrous

$$$$
