UI2
 OpenBabel10282417072D

 33 35  0  0  0  0  0  0  0  0999 V2000
   -1.1368   -1.3757    0.0000 C   0  0  0  0  0  0  0  0  0  0  0  0
   -0.4223   -1.7882    0.0000 C   0  0  0  0  0  0  0  0  0  0  0  0
    0.2921   -1.3757    0.0000 C   0  0  0  0  0  0  0  0  0  0  0  0
    0.2921   -0.5507    0.0000 C   0  0  0  0  0  0  0  0  0  0  0  0
   -0.4223   -0.1382    0.0000 C   0  0  0  0  0  0  0  0  0  0  0  0
   -1.1368   -0.5507    0.0000 C   0  0  0  0  0  0  0  0  0  0  0  0
    1.0066   -1.7882    0.0000 C   0  0  0  0  0  0  0  0  0  0  0  0
    1.7211   -1.3757    0.0000 C   0  0  0  0  0  0  0  0  0  0  0  0
    1.7211   -0.5507    0.0000 C   0  0  0  0  0  0  0  0  0  0  0  0
    1.0066   -0.1382    0.0000 C   0  0  0  0  0  0  0  0  0  0  0  0
   -0.4223    0.6868    0.0000 N   0  0  0  0  0  0  0  0  0  0  0  0
   -1.1368    1.0993    0.0000 C   0  0  0  0  0  0  0  0  0  0  0  0
   -1.8513    0.6868    0.0000 N   0  0  0  0  0  0  0  0  0  0  0  0
   -2.5658    1.0993    0.0000 C   0  0  0  0  0  0  0  0  0  0  0  0
   -2.5658    1.9243    0.0000 C   0  0  0  0  0  0  0  0  0  0  0  0
   -1.8513    2.3368    0.0000 C   0  0  0  0  0  0  0  0  0  0  0  0
   -1.1368    1.9243    0.0000 N   0  0  0  0  0  0  0  0  0  0  0  0
    2.4355   -0.1382    0.0000 C   0  0  0  0  0  0  0  0  0  0  0  0
    2.4355    0.6868    0.0000 N   0  0  0  0  0  0  0  0  0  0  0  0
    3.1500   -0.5507    0.0000 N   0  0  0  0  0  0  0  0  0  0  0  0
   -2.0305   -1.8917    0.0000 H   0  0  0  0  0  0  0  0  0  0  0  0
   -0.4223   -2.8202    0.0000 H   0  0  0  0  0  0  0  0  0  0  0  0
   -2.0305   -0.0347    0.0000 H   0  0  0  0  0  0  0  0  0  0  0  0
    1.0066   -2.8202    0.0000 H   0  0  0  0  0  0  0  0  0  0  0  0
    2.6148   -1.8917    0.0000 H   0  0  0  0  0  0  0  0  0  0  0  0
    1.0066    0.8938    0.0000 H   0  0  0  0  0  0  0  0  0  0  0  0
    0.4303    1.1791    0.0000 H   0  0  0  0  0  0  0  0  0  0  0  0
   -3.4595    0.5833    0.0000 H   0  0  0  0  0  0  0  0  0  0  0  0
   -3.4595    2.4403    0.0000 H   0  0  0  0  0  0  0  0  0  0  0  0
   -1.8513    3.3688    0.0000 H   0  0  0  0  0  0  0  0  0  0  0  0
    3.2881    1.1791    0.0000 H   0  0  0  0  0  0  0  0  0  0  0  0
    3.1500   -1.5352    0.0000 H   0  0  0  0  0  0  0  0  0  0  0  0
    4.0026   -0.0584    0.0000 H   0  0  0  0  0  0  0  0  0  0  0  0
  1  2  2  0  0  0  0
  1  6  1  0  0  0  0
  1 21  1  0  0  0  0
  2  3  1  0  0  0  0
  2 22  1  0  0  0  0
  3  4  2  0  0  0  0
  3  7  1  0  0  0  0
  4  5  1  0  0  0  0
  4 10  1  0  0  0  0
  5  6  2  0  0  0  0
  5 11  1  0  0  0  0
  6 23  1  0  0  0  0
  7  8  2  0  0  0  0
  7 24  1  0  0  0  0
  8  9  1  0  0  0  0
  8 25  1  0  0  0  0
  9 10  2  0  0  0  0
  9 18  1  0  0  0  0
 10 26  1  0  0  0  0
 11 12  1  0  0  0  0
 11 27  1  0  0  0  0
 12 13  1  0  0  0  0
 12 17  2  0  0  0  0
 13 14  2  0  0  0  0
 14 15  1  0  0  0  0
 14 28  1  0  0  0  0
 15 16  2  0  0  0  0
 15 29  1  0  0  0  0
 16 17  1  0  0  0  0
 16 30  1  0  0  0  0
 18 19  2  0  0  0  0
 18 20  1  0  0  0  0
 19 31  1  0  0  0  0
 20 32  1  0  0  0  0
 20 33  1  0  0  0  0
M  END
>  <DRUGBANK_ID>
DB04059

>  <SECONDARY_ACCESSION_NUMBERS>
EXPT03179

>  <COMMON_NAME>
8-(Pyrimidin-2-Ylamino)Naphthalene-2-Carboximidamide

$$$$
