IFB
 OpenBabel10282417072D

 36 37  0  0  0  0  0  0  0  0999 V2000
   -5.2039    0.2088    0.0000 O   0  0  0  0  0  0  0  0  0  0  0  0
   -4.4894    0.6213    0.0000 C   0  0  0  0  0  0  0  0  0  0  0  0
   -4.4894    1.4463    0.0000 O   0  0  0  0  0  0  0  0  0  0  0  0
   -3.7750    0.2088    0.0000 C   0  0  0  0  0  0  0  0  0  0  0  0
   -3.0605    0.6213    0.0000 C   0  0  0  0  0  0  0  0  0  0  0  0
   -2.3460    0.2088    0.0000 N   0  0  0  0  0  0  0  0  0  0  0  0
   -1.6316    0.6213    0.0000 C   0  0  0  0  0  0  0  0  0  0  0  0
   -1.6316    1.4463    0.0000 O   0  0  0  0  0  0  0  0  0  0  0  0
   -0.9171    0.2088    0.0000 C   0  0  0  0  0  0  0  0  0  0  0  0
   -0.2026    0.6213    0.0000 C   0  0  0  0  0  0  0  0  0  0  0  0
   -0.9171   -0.6162    0.0000 C   0  0  0  0  0  0  0  0  0  0  0  0
   -1.6316   -1.0287    0.0000 O   0  0  0  0  0  0  0  0  0  0  0  0
   -0.2026   -1.0287    0.0000 C   0  0  0  0  0  0  0  0  0  0  0  0
   -0.2026   -1.8537    0.0000 I   0  0  0  0  0  0  0  0  0  0  0  0
    0.5119   -0.6162    0.0000 C   0  0  0  0  0  0  0  0  0  0  0  0
    0.5119    0.2088    0.0000 C   0  0  0  0  0  0  0  0  0  0  0  0
    1.2263    0.6213    0.0000 C   0  0  0  0  0  0  0  0  0  0  0  0
    1.2263    1.4463    0.0000 C   0  0  0  0  0  0  0  0  0  0  0  0
    0.5119    1.8588    0.0000 F   0  0  0  0  0  0  0  0  0  0  0  0
    1.9408    0.2088    0.0000 C   0  0  0  0  0  0  0  0  0  0  0  0
    2.6553    0.6213    0.0000 C   0  0  0  0  0  0  0  0  0  0  0  0
    2.6553    1.4463    0.0000 C   0  0  0  0  0  0  0  0  0  0  0  0
    3.3697    1.8588    0.0000 F   0  0  0  0  0  0  0  0  0  0  0  0
    1.9408    1.8588    0.0000 C   0  0  0  0  0  0  0  0  0  0  0  0
   -3.6779    1.9148    0.0000 H   0  0  0  0  0  0  0  0  0  0  0  0
   -3.7750   -0.8612    0.0000 H   0  0  0  0  0  0  0  0  0  0  0  0
   -2.8484   -0.3262    0.0000 H   0  0  0  0  0  0  0  0  0  0  0  0
   -3.0605    1.6913    0.0000 H   0  0  0  0  0  0  0  0  0  0  0  0
   -2.1339    1.1563    0.0000 H   0  0  0  0  0  0  0  0  0  0  0  0
   -2.3460   -0.7757    0.0000 H   0  0  0  0  0  0  0  0  0  0  0  0
   -0.2026    1.6533    0.0000 H   0  0  0  0  0  0  0  0  0  0  0  0
   -2.4431   -0.5602    0.0000 H   0  0  0  0  0  0  0  0  0  0  0  0
    1.4056   -1.1322    0.0000 H   0  0  0  0  0  0  0  0  0  0  0  0
    1.9408   -0.8232    0.0000 H   0  0  0  0  0  0  0  0  0  0  0  0
    3.5490    0.1053    0.0000 H   0  0  0  0  0  0  0  0  0  0  0  0
    1.9408    2.8908    0.0000 H   0  0  0  0  0  0  0  0  0  0  0  0
  1  2  2  0  0  0  0
  2  4  1  0  0  0  0
  2  3  1  0  0  0  0
  3 25  1  0  0  0  0
  4  5  1  0  0  0  0
  4 26  1  0  0  0  0
  4 27  1  0  0  0  0
  5  6  1  0  0  0  0
  5 28  1  0  0  0  0
  5 29  1  0  0  0  0
  6  7  1  0  0  0  0
  6 30  1  0  0  0  0
  7  9  1  0  0  0  0
  7  8  2  0  0  0  0
  9 10  1  0  0  0  0
  9 11  2  0  0  0  0
 10 16  2  0  0  0  0
 10 31  1  0  0  0  0
 11 13  1  0  0  0  0
 11 12  1  0  0  0  0
 12 32  1  0  0  0  0
 13 15  2  0  0  0  0
 13 14  1  0  0  0  0
 15 16  1  0  0  0  0
 15 33  1  0  0  0  0
 16 17  1  0  0  0  0
 17 18  2  0  0  0  0
 17 20  1  0  0  0  0
 18 24  1  0  0  0  0
 18 19  1  0  0  0  0
 20 21  2  0  0  0  0
 20 34  1  0  0  0  0
 21 22  1  0  0  0  0
 21 35  1  0  0  0  0
 22 23  1  0  0  0  0
 22 24  2  0  0  0  0
 24 36  1  0  0  0  0
M  END
>  <DRUGBANK_ID>
DB07963

>  <COMMON_NAME>
N-[(2',4'-DIFLUORO-4-HYDROXY-5-IODOBIPHENYL-3-YL)CARBONYL]-BETA-ALANINE

$$$$
