
 OpenBabel10282417072D

 49 51  0  0  0  0  0  0  0  0999 V2000
    2.8882   -4.0491    0.0000 C   0  0  0  0  0  0  0  0  0  0  0  0
    2.8882   -4.8741    0.0000 C   0  0  0  0  0  0  0  0  0  0  0  0
    2.0632   -4.8741    0.0000 C   0  0  0  0  0  0  0  0  0  0  0  0
    3.7132   -4.8741    0.0000 C   0  0  0  0  0  0  0  0  0  0  0  0
    2.8882   -5.6991    0.0000 C   0  0  0  0  0  0  0  0  0  0  0  0
    3.5557   -6.1840    0.0000 C   0  0  0  0  0  0  0  0  0  0  0  0
    3.3007   -6.9686    0.0000 N   0  0  0  0  0  0  0  0  0  0  0  0
    2.4757   -6.9686    0.0000 C   0  0  0  0  0  0  0  0  0  0  0  0
    2.2208   -6.1840    0.0000 O   0  0  0  0  0  0  0  0  0  0  0  0
    1.9908   -7.6361    0.0000 C   0  0  0  0  0  0  0  0  0  0  0  0
    1.1703   -7.5498    0.0000 S   0  0  0  0  0  0  0  0  0  0  0  0
    0.6854   -8.2173    0.0000 C   0  0  0  0  0  0  0  0  0  0  0  0
    0.9403   -9.0019    0.0000 C   0  0  0  0  0  0  0  0  0  0  0  0
    0.2729   -9.4868    0.0000 N   0  0  0  0  0  0  0  0  0  0  0  0
   -0.3945   -9.0019    0.0000 C   0  0  0  0  0  0  0  0  0  0  0  0
   -0.1396   -8.2173    0.0000 S   0  0  0  0  0  0  0  0  0  0  0  0
   -1.1792   -9.2568    0.0000 N   0  0  0  0  0  0  0  0  0  0  0  0
   -1.3507  -10.0638    0.0000 C   0  0  0  0  0  0  0  0  0  0  0  0
   -0.7376  -10.6158    0.0000 O   0  0  0  0  0  0  0  0  0  0  0  0
   -2.1353  -10.3187    0.0000 C   0  0  0  0  0  0  0  0  0  0  0  0
   -2.3068  -11.1257    0.0000 C   0  0  0  0  0  0  0  0  0  0  0  0
   -3.0915  -11.3806    0.0000 C   0  0  0  0  0  0  0  0  0  0  0  0
   -3.7045  -10.8286    0.0000 N   0  0  0  0  0  0  0  0  0  0  0  0
   -3.5330  -10.0216    0.0000 C   0  0  0  0  0  0  0  0  0  0  0  0
   -2.7484   -9.7667    0.0000 C   0  0  0  0  0  0  0  0  0  0  0  0
    3.8148   -3.5141    0.0000 H   0  0  0  0  0  0  0  0  0  0  0  0
    1.9616   -3.5141    0.0000 H   0  0  0  0  0  0  0  0  0  0  0  0
    2.8882   -2.9791    0.0000 H   0  0  0  0  0  0  0  0  0  0  0  0
    1.5282   -3.9475    0.0000 H   0  0  0  0  0  0  0  0  0  0  0  0
    1.5282   -5.8007    0.0000 H   0  0  0  0  0  0  0  0  0  0  0  0
    0.9932   -4.8741    0.0000 H   0  0  0  0  0  0  0  0  0  0  0  0
    4.2482   -5.8007    0.0000 H   0  0  0  0  0  0  0  0  0  0  0  0
    4.2482   -3.9475    0.0000 H   0  0  0  0  0  0  0  0  0  0  0  0
    4.7832   -4.8741    0.0000 H   0  0  0  0  0  0  0  0  0  0  0  0
    4.5372   -5.8651    0.0000 H   0  0  0  0  0  0  0  0  0  0  0  0
    2.4260   -8.6136    0.0000 H   0  0  0  0  0  0  0  0  0  0  0  0
    1.3618   -8.5017    0.0000 H   0  0  0  0  0  0  0  0  0  0  0  0
    1.9218   -9.3208    0.0000 H   0  0  0  0  0  0  0  0  0  0  0  0
   -1.9108   -8.5980    0.0000 H   0  0  0  0  0  0  0  0  0  0  0  0
   -3.1529  -10.6494    0.0000 H   0  0  0  0  0  0  0  0  0  0  0  0
   -1.5116  -11.8417    0.0000 H   0  0  0  0  0  0  0  0  0  0  0  0
   -2.5293  -12.1723    0.0000 H   0  0  0  0  0  0  0  0  0  0  0  0
   -3.3140  -12.4272    0.0000 H   0  0  0  0  0  0  0  0  0  0  0  0
   -4.1091  -11.7112    0.0000 H   0  0  0  0  0  0  0  0  0  0  0  0
   -4.6746  -11.1438    0.0000 H   0  0  0  0  0  0  0  0  0  0  0  0
   -4.3282   -9.3056    0.0000 H   0  0  0  0  0  0  0  0  0  0  0  0
   -3.3105   -8.9750    0.0000 H   0  0  0  0  0  0  0  0  0  0  0  0
   -2.5259   -8.7201    0.0000 H   0  0  0  0  0  0  0  0  0  0  0  0
   -1.7308   -9.4360    0.0000 H   0  0  0  0  0  0  0  0  0  0  0  0
  1  2  1  0  0  0  0
  1 26  1  0  0  0  0
  1 27  1  0  0  0  0
  1 28  1  0  0  0  0
  2  3  1  0  0  0  0
  2  4  1  0  0  0  0
  2  5  1  0  0  0  0
  3 29  1  0  0  0  0
  3 30  1  0  0  0  0
  3 31  1  0  0  0  0
  4 32  1  0  0  0  0
  4 33  1  0  0  0  0
  4 34  1  0  0  0  0
  5  6  2  0  0  0  0
  5  9  1  0  0  0  0
  6  7  1  0  0  0  0
  6 35  1  0  0  0  0
  7  8  2  0  0  0  0
  8  9  1  0  0  0  0
  8 10  1  0  0  0  0
 10 11  1  0  0  0  0
 10 36  1  0  0  0  0
 10 37  1  0  0  0  0
 11 12  1  0  0  0  0
 12 13  2  0  0  0  0
 12 16  1  0  0  0  0
 13 14  1  0  0  0  0
 13 38  1  0  0  0  0
 14 15  2  0  0  0  0
 15 16  1  0  0  0  0
 15 17  1  0  0  0  0
 17 18  1  0  0  0  0
 17 39  1  0  0  0  0
 18 19  2  0  0  0  0
 18 20  1  0  0  0  0
 20 21  1  0  0  0  0
 20 25  1  0  0  0  0
 20 40  1  0  0  0  0
 21 22  1  0  0  0  0
 21 41  1  0  0  0  0
 21 42  1  0  0  0  0
 22 23  1  0  0  0  0
 22 43  1  0  0  0  0
 22 44  1  0  0  0  0
 23 24  1  0  0  0  0
 23 45  1  0  0  0  0
 24 25  1  0  0  0  0
 24 46  1  0  0  0  0
 24 47  1  0  0  0  0
 25 48  1  0  0  0  0
 25 49  1  0  0  0  0
M  END
>  <DRUGBANK_ID>
DB05969

>  <COMMON_NAME>
SNS-032

>  <CAS_NUMBER>
345627-80-7

>  <UNII>
9979I93686

$$$$
