
 OpenBabel10282417072D

 46 48  0  0  1  0  0  0  0  0999 V2000
    2.7796    2.8445    0.0000 C   0  0  0  0  0  0  0  0  0  0  0  0
    2.1665    2.2925    0.0000 C   0  0  0  0  0  0  0  0  0  0  0  0
    1.3819    2.5474    0.0000 C   0  0  1  0  0  0  0  0  0  0  0  0
    0.7145    2.0625    0.0000 C   0  0  1  0  0  0  0  0  0  0  0  0
    0.7145    1.2375    0.0000 C   0  0  0  0  0  0  0  0  0  0  0  0
    1.4289    0.8250    0.0000 O   0  0  0  0  0  0  0  0  0  0  0  0
    1.4289    0.0000    0.0000 C   0  0  0  0  0  0  0  0  0  0  0  0
    2.1434   -0.4125    0.0000 C   0  0  0  0  0  0  0  0  0  0  0  0
    2.8579    0.0000    0.0000 C   0  0  0  0  0  0  0  0  0  0  0  0
    3.5724   -0.4125    0.0000 C   0  0  0  0  0  0  0  0  0  0  0  0
    4.2868   -0.0000    0.0000 O   0  0  0  0  0  0  0  0  0  0  0  0
    5.0013   -0.4125    0.0000 C   0  0  0  0  0  0  0  0  0  0  0  0
    3.5724   -1.2375    0.0000 C   0  0  0  0  0  0  0  0  0  0  0  0
    2.8579   -1.6500    0.0000 C   0  0  0  0  0  0  0  0  0  0  0  0
    2.1434   -1.2375    0.0000 C   0  0  0  0  0  0  0  0  0  0  0  0
    1.4289   -1.6500    0.0000 C   0  0  0  0  0  0  0  0  0  0  0  0
    0.7145   -1.2375    0.0000 C   0  0  0  0  0  0  0  0  0  0  0  0
    0.7145   -0.4125    0.0000 N   0  0  0  0  0  0  0  0  0  0  0  0
    4.2868   -1.6500    0.0000 C   0  0  0  0  0  0  0  0  0  0  0  0
    5.0013   -1.2375    0.0000 N   0  0  0  0  0  0  0  0  0  0  0  0
    4.2868   -2.4750    0.0000 O   0  0  0  0  0  0  0  0  0  0  0  0
    0.0470    2.5474    0.0000 N   0  0  0  0  0  0  0  0  0  0  0  0
    0.3020    3.3320    0.0000 C   0  0  0  0  0  0  0  0  0  0  0  0
   -0.1830    3.9995    0.0000 O   0  0  0  0  0  0  0  0  0  0  0  0
    1.1270    3.3320    0.0000 C   0  0  1  0  0  0  0  0  0  0  0  0
    1.6119    3.9995    0.0000 F   0  0  0  0  0  0  0  0  0  0  0  0
    3.7972    2.5138    0.0000 H   0  0  0  0  0  0  0  0  0  0  0  0
    2.5572    3.8911    0.0000 H   0  0  0  0  0  0  0  0  0  0  0  0
    3.5748    3.5604    0.0000 H   0  0  0  0  0  0  0  0  0  0  0  0
    2.3890    1.2459    0.0000 H   0  0  0  0  0  0  0  0  0  0  0  0
    1.3713    1.5765    0.0000 H   0  0  0  0  0  0  0  0  0  0  0  0
    1.5493    1.4906    0.0000 H   0  0  0  0  0  0  0  0  0  0  0  0
    1.6679    1.5767    0.0000 H   0  0  0  0  0  0  0  0  0  0  0  0
   -0.2122    0.7025    0.0000 H   0  0  0  0  0  0  0  0  0  0  0  0
    0.7145    0.1675    0.0000 H   0  0  0  0  0  0  0  0  0  0  0  0
    2.8579    1.0320    0.0000 H   0  0  0  0  0  0  0  0  0  0  0  0
    5.0013   -1.4825    0.0000 H   0  0  0  0  0  0  0  0  0  0  0  0
    5.9279    0.1225    0.0000 H   0  0  0  0  0  0  0  0  0  0  0  0
    5.9280   -0.9475    0.0000 H   0  0  0  0  0  0  0  0  0  0  0  0
    2.8579   -2.6820    0.0000 H   0  0  0  0  0  0  0  0  0  0  0  0
    1.4289   -2.6820    0.0000 H   0  0  0  0  0  0  0  0  0  0  0  0
   -0.1792   -1.7535    0.0000 H   0  0  0  0  0  0  0  0  0  0  0  0
    5.8539   -1.7298    0.0000 H   0  0  0  0  0  0  0  0  0  0  0  0
    5.0013   -0.2530    0.0000 H   0  0  0  0  0  0  0  0  0  0  0  0
   -0.8893    2.2432    0.0000 H   0  0  0  0  0  0  0  0  0  0  0  0
    0.6412    4.2854    0.0000 H   0  0  0  0  0  0  0  0  0  0  0  0
  1  2  1  0  0  0  0
  1 27  1  0  0  0  0
  1 28  1  0  0  0  0
  1 29  1  0  0  0  0
  2 30  1  0  0  0  0
  2 31  1  0  0  0  0
  3  2  1  0  0  0  0
  3  4  1  0  0  0  0
  3 25  1  0  0  0  0
  3 32  1  6  0  0  0
  4  5  1  0  0  0  0
  4 22  1  0  0  0  0
  4 33  1  6  0  0  0
  5  6  1  0  0  0  0
  5 34  1  0  0  0  0
  5 35  1  0  0  0  0
  6  7  1  0  0  0  0
  7  8  2  0  0  0  0
  7 18  1  0  0  0  0
  8  9  1  0  0  0  0
  8 15  1  0  0  0  0
  9 10  2  0  0  0  0
  9 36  1  0  0  0  0
 10 11  1  0  0  0  0
 10 13  1  0  0  0  0
 11 12  1  0  0  0  0
 12 37  1  0  0  0  0
 12 38  1  0  0  0  0
 12 39  1  0  0  0  0
 13 14  2  0  0  0  0
 13 19  1  0  0  0  0
 14 15  1  0  0  0  0
 14 40  1  0  0  0  0
 15 16  2  0  0  0  0
 16 17  1  0  0  0  0
 16 41  1  0  0  0  0
 17 18  2  0  0  0  0
 17 42  1  0  0  0  0
 19 20  1  0  0  0  0
 19 21  2  0  0  0  0
 20 43  1  0  0  0  0
 20 44  1  0  0  0  0
 22 23  1  0  0  0  0
 22 45  1  0  0  0  0
 23 24  2  0  0  0  0
 25 23  1  0  0  0  0
 25 26  1  0  0  0  0
 25 46  1  6  0  0  0
M  END
>  <DRUGBANK_ID>
DB15143

>  <COMMON_NAME>
PF-06650833

>  <CAS_NUMBER>
1817626-54-2

>  <UNII>
S3F315JJXI

$$$$
