
 OpenBabel10282417072D

 71 74  0  0  0  0  0  0  0  0999 V2000
   -0.3910    0.0655    0.0000 C   0  0  2  0  0  0  0  0  0  0  0  0
   -2.5385   -1.1587    0.0000 C   0  0  2  0  0  0  0  0  0  0  0  0
    0.3959    0.3133    0.0000 C   0  0  1  0  0  0  0  0  0  0  0  0
   -1.1101   -1.1587    0.0000 C   0  0  1  0  0  0  0  0  0  0  0  0
   -0.3959   -0.7506    0.0000 C   0  0  2  0  0  0  0  0  0  0  0  0
   -1.8243   -0.7457    0.0000 C   0  0  2  0  0  0  0  0  0  0  0  0
   -2.5385   -1.9846    0.0000 C   0  0  0  0  0  0  0  0  0  0  0  0
   -1.1052    0.4882    0.0000 C   0  0  0  0  0  0  0  0  0  0  0  0
   -1.8194    0.0801    0.0000 C   0  0  2  0  0  0  0  0  0  0  0  0
   -3.2527   -0.7457    0.0000 C   0  0  0  0  0  0  0  0  0  0  0  0
    0.3959    1.1441    0.0000 C   0  0  0  0  0  0  0  0  0  0  0  0
   -3.2527   -2.3976    0.0000 C   0  0  0  0  0  0  0  0  0  0  0  0
    0.8769   -0.3570    0.0000 C   0  0  0  0  0  0  0  0  0  0  0  0
    0.3814   -1.0226    0.0000 C   0  0  0  0  0  0  0  0  0  0  0  0
   -1.1198   -1.9895    0.0000 C   0  0  0  0  0  0  0  0  0  0  0  0
   -3.9619   -1.1587    0.0000 C   0  0  0  0  0  0  0  0  0  0  0  0
   -3.9619   -1.9846    0.0000 C   0  0  0  0  0  0  0  0  0  0  0  0
    2.5385    1.5717    0.0000 C   0  0  0  0  0  0  0  0  0  0  0  0
   -1.8340   -2.3976    0.0000 C   0  0  0  0  0  0  0  0  0  0  0  0
    1.1052    1.5668    0.0000 C   0  0  0  0  0  0  0  0  0  0  0  0
   -0.3231    1.5522    0.0000 O   0  0  0  0  0  0  0  0  0  0  0  0
    1.8243    1.1587    0.0000 O   0  0  0  0  0  0  0  0  0  0  0  0
    2.5239    2.3976    0.0000 O   0  0  0  0  0  0  0  0  0  0  0  0
   -4.6810   -2.3927    0.0000 O   0  0  0  0  0  0  0  0  0  0  0  0
    1.1101    0.7360    0.0000 O   0  0  0  0  0  0  0  0  0  0  0  0
    3.2527    1.1636    0.0000 C   0  0  0  0  0  0  0  0  0  0  0  0
    3.9668    1.5814    0.0000 C   0  0  0  0  0  0  0  0  0  0  0  0
   -0.3910    0.8963    0.0000 C   0  0  0  0  0  0  0  0  0  0  0  0
   -2.5336    0.5028    0.0000 O   0  0  0  0  0  0  0  0  0  0  0  0
   -2.5481   -0.3279    0.0000 C   0  0  0  0  0  0  0  0  0  0  0  0
    3.5538    2.2955    0.0000 C   0  0  0  0  0  0  0  0  0  0  0  0
    4.3749    2.2955    0.0000 C   0  0  0  0  0  0  0  0  0  0  0  0
    4.6810    1.1732    0.0000 C   0  0  0  0  0  0  0  0  0  0  0  0
   -0.4056   -1.5814    0.0000 H   0  0  0  0  0  0  0  0  0  0  0  0
   -1.1198   -0.3376    0.0000 H   0  0  0  0  0  0  0  0  0  0  0  0
   -1.8340   -1.5668    0.0000 H   0  0  0  0  0  0  0  0  0  0  0  0
   -1.0970    1.5582    0.0000 H   0  0  0  0  0  0  0  0  0  0  0  0
   -2.0286    1.0288    0.0000 H   0  0  0  0  0  0  0  0  0  0  0  0
   -2.7505   -0.4471    0.0000 H   0  0  0  0  0  0  0  0  0  0  0  0
   -3.2543    0.2863    0.0000 H   0  0  0  0  0  0  0  0  0  0  0  0
   -3.2543   -3.4296    0.0000 H   0  0  0  0  0  0  0  0  0  0  0  0
    1.9469   -0.3664    0.0000 H   0  0  0  0  0  0  0  0  0  0  0  0
    1.3529   -1.3153    0.0000 H   0  0  0  0  0  0  0  0  0  0  0  0
    0.6947   -2.0457    0.0000 H   0  0  0  0  0  0  0  0  0  0  0  0
    1.4357   -1.2051    0.0000 H   0  0  0  0  0  0  0  0  0  0  0  0
   -0.1975   -2.5320    0.0000 H   0  0  0  0  0  0  0  0  0  0  0  0
   -1.1265   -3.0595    0.0000 H   0  0  0  0  0  0  0  0  0  0  0  0
   -4.8566   -0.6444    0.0000 H   0  0  0  0  0  0  0  0  0  0  0  0
   -1.8399   -3.4676    0.0000 H   0  0  0  0  0  0  0  0  0  0  0  0
   -2.7639   -2.9269    0.0000 H   0  0  0  0  0  0  0  0  0  0  0  0
    1.0938    2.6367    0.0000 H   0  0  0  0  0  0  0  0  0  0  0  0
    2.0270    2.1101    0.0000 H   0  0  0  0  0  0  0  0  0  0  0  0
    1.9553    0.2601    0.0000 H   0  0  0  0  0  0  0  0  0  0  0  0
    3.2582    0.0936    0.0000 H   0  0  0  0  0  0  0  0  0  0  0  0
    4.1822    0.6337    0.0000 H   0  0  0  0  0  0  0  0  0  0  0  0
    0.5356    1.4313    0.0000 H   0  0  0  0  0  0  0  0  0  0  0  0
   -1.3176    1.4313    0.0000 H   0  0  0  0  0  0  0  0  0  0  0  0
   -0.3910    1.9663    0.0000 H   0  0  0  0  0  0  0  0  0  0  0  0
   -2.5231    1.4727    0.0000 H   0  0  0  0  0  0  0  0  0  0  0  0
   -1.6277    0.2178    0.0000 H   0  0  0  0  0  0  0  0  0  0  0  0
   -3.4809    0.1964    0.0000 H   0  0  0  0  0  0  0  0  0  0  0  0
   -2.5605    0.7420    0.0000 H   0  0  0  0  0  0  0  0  0  0  0  0
    4.0881    3.2225    0.0000 H   0  0  0  0  0  0  0  0  0  0  0  0
    2.4838    2.2947    0.0000 H   0  0  0  0  0  0  0  0  0  0  0  0
    3.0181    3.2217    0.0000 H   0  0  0  0  0  0  0  0  0  0  0  0
    5.4449    2.3002    0.0000 H   0  0  0  0  0  0  0  0  0  0  0  0
    3.8358    3.2198    0.0000 H   0  0  0  0  0  0  0  0  0  0  0  0
    4.9058    3.2245    0.0000 H   0  0  0  0  0  0  0  0  0  0  0  0
    4.6857    0.1032    0.0000 H   0  0  0  0  0  0  0  0  0  0  0  0
    5.6053    1.7122    0.0000 H   0  0  0  0  0  0  0  0  0  0  0  0
    5.6100    0.6422    0.0000 H   0  0  0  0  0  0  0  0  0  0  0  0
  1 28  1  1  0  0  0
  2  6  1  0  0  0  0
  2 30  1  1  0  0  0
  3  1  1  0  0  0  0
  3 11  1  1  0  0  0
  3 25  1  0  0  0  0
  4  5  1  0  0  0  0
  4 35  1  1  0  0  0
  5  1  1  0  0  0  0
  5 34  1  6  0  0  0
  6  9  1  0  0  0  0
  6 36  1  6  0  0  0
  6  4  1  0  0  0  0
  7  2  1  0  0  0  0
  8  1  1  0  0  0  0
  8 37  1  0  0  0  0
  8 38  1  0  0  0  0
  9  8  1  0  0  0  0
  9 29  1  0  0  0  0
  9 39  1  6  0  0  0
 10  2  1  0  0  0  0
 10 40  1  0  0  0  0
 12  7  2  0  0  0  0
 12 41  1  0  0  0  0
 13  3  1  0  0  0  0
 13 14  1  0  0  0  0
 13 42  1  0  0  0  0
 13 43  1  0  0  0  0
 14  5  1  0  0  0  0
 14 44  1  0  0  0  0
 14 45  1  0  0  0  0
 15  4  1  0  0  0  0
 15 46  1  0  0  0  0
 15 47  1  0  0  0  0
 16 10  2  0  0  0  0
 16 48  1  0  0  0  0
 17 16  1  0  0  0  0
 17 12  1  0  0  0  0
 18 22  1  0  0  0  0
 19 15  1  0  0  0  0
 19  7  1  0  0  0  0
 19 49  1  0  0  0  0
 19 50  1  0  0  0  0
 20 11  1  0  0  0  0
 20 51  1  0  0  0  0
 20 52  1  0  0  0  0
 21 11  2  0  0  0  0
 22 20  1  0  0  0  0
 23 18  2  0  0  0  0
 24 17  2  0  0  0  0
 25 53  1  0  0  0  0
 26 18  1  0  0  0  0
 26 54  1  0  0  0  0
 26 55  1  0  0  0  0
 27 26  1  0  0  0  0
 28 56  1  0  0  0  0
 28 57  1  0  0  0  0
 28 58  1  0  0  0  0
 29 59  1  0  0  0  0
 30 60  1  0  0  0  0
 30 61  1  0  0  0  0
 30 62  1  0  0  0  0
 31 27  1  0  0  0  0
 31 63  1  0  0  0  0
 31 64  1  0  0  0  0
 31 65  1  0  0  0  0
 32 27  1  0  0  0  0
 32 66  1  0  0  0  0
 32 67  1  0  0  0  0
 32 68  1  0  0  0  0
 33 27  1  0  0  0  0
 33 69  1  0  0  0  0
 33 70  1  0  0  0  0
 33 71  1  0  0  0  0
M  END
>  <DRUGBANK_ID>
DB14632

>  <SECONDARY_ACCESSION_NUMBERS>
DBSALT000786; DBSALT001635

>  <COMMON_NAME>
Prednisolone tebutate

>  <CAS_NUMBER>
7681-14-3

>  <UNII>
1V7A1U282K

>  <SYNONYMS>
Anhydrous prednisolone tebutate; Prednisolone 21-tert-butylacetate; Prednisolone butylacetate; Prednisolone tebutate; Prednisolone tertiary butylacetate

$$$$
