K10
 OpenBabel10282417072D

 46 48  0  0  0  0  0  0  0  0999 V2000
    0.9702    1.0976    0.0000 N   0  0  0  0  0  0  0  0  0  0  0  0
    0.9702    0.2726    0.0000 C   0  0  0  0  0  0  0  0  0  0  0  0
    1.6847   -0.1399    0.0000 N   0  0  0  0  0  0  0  0  0  0  0  0
    1.6847   -0.9649    0.0000 C   0  0  0  0  0  0  0  0  0  0  0  0
    0.9702   -1.3774    0.0000 N   0  0  0  0  0  0  0  0  0  0  0  0
    0.2557   -0.9649    0.0000 C   0  0  0  0  0  0  0  0  0  0  0  0
    0.2557   -0.1399    0.0000 C   0  0  0  0  0  0  0  0  0  0  0  0
   -0.5289    0.1150    0.0000 C   0  0  0  0  0  0  0  0  0  0  0  0
   -1.0138   -0.5524    0.0000 N   0  0  0  0  0  0  0  0  0  0  0  0
   -0.5289   -1.2199    0.0000 N   0  0  0  0  0  0  0  0  0  0  0  0
   -0.7838   -2.0045    0.0000 C   0  0  0  0  0  0  0  0  0  0  0  0
   -1.0388   -2.7891    0.0000 C   0  0  0  0  0  0  0  0  0  0  0  0
   -1.5685   -1.7495    0.0000 C   0  0  0  0  0  0  0  0  0  0  0  0
    0.0008   -2.2594    0.0000 C   0  0  0  0  0  0  0  0  0  0  0  0
   -0.7838    0.8996    0.0000 C   0  0  0  0  0  0  0  0  0  0  0  0
   -0.2318    1.5127    0.0000 C   0  0  0  0  0  0  0  0  0  0  0  0
    0.5752    1.3412    0.0000 C   0  0  0  0  0  0  0  0  0  0  0  0
    1.1272    1.9543    0.0000 C   0  0  0  0  0  0  0  0  0  0  0  0
    0.8723    2.7389    0.0000 C   0  0  0  0  0  0  0  0  0  0  0  0
    0.0653    2.9105    0.0000 C   0  0  0  0  0  0  0  0  0  0  0  0
   -0.4867    2.2974    0.0000 C   0  0  0  0  0  0  0  0  0  0  0  0
   -1.2937    2.4689    0.0000 C   0  0  0  0  0  0  0  0  0  0  0  0
    1.9342    1.7828    0.0000 C   0  0  0  0  0  0  0  0  0  0  0  0
    1.8228    1.5899    0.0000 H   0  0  0  0  0  0  0  0  0  0  0  0
    0.1176    1.5898    0.0000 H   0  0  0  0  0  0  0  0  0  0  0  0
    2.5784   -1.4809    0.0000 H   0  0  0  0  0  0  0  0  0  0  0  0
   -2.0854   -3.0115    0.0000 H   0  0  0  0  0  0  0  0  0  0  0  0
   -0.3229   -3.5843    0.0000 H   0  0  0  0  0  0  0  0  0  0  0  0
   -1.3695   -3.8067    0.0000 H   0  0  0  0  0  0  0  0  0  0  0  0
   -1.7909   -0.7029    0.0000 H   0  0  0  0  0  0  0  0  0  0  0  0
   -2.3637   -2.4654    0.0000 H   0  0  0  0  0  0  0  0  0  0  0  0
   -2.5861   -1.4188    0.0000 H   0  0  0  0  0  0  0  0  0  0  0  0
    0.2233   -3.3060    0.0000 H   0  0  0  0  0  0  0  0  0  0  0  0
    0.7959   -1.5434    0.0000 H   0  0  0  0  0  0  0  0  0  0  0  0
    1.0184   -2.5900    0.0000 H   0  0  0  0  0  0  0  0  0  0  0  0
   -1.8304    1.1221    0.0000 H   0  0  0  0  0  0  0  0  0  0  0  0
   -1.1145    1.9172    0.0000 H   0  0  0  0  0  0  0  0  0  0  0  0
    0.8941    0.3597    0.0000 H   0  0  0  0  0  0  0  0  0  0  0  0
    1.5629    3.5058    0.0000 H   0  0  0  0  0  0  0  0  0  0  0  0
   -0.2536    3.8920    0.0000 H   0  0  0  0  0  0  0  0  0  0  0  0
   -1.6244    3.4865    0.0000 H   0  0  0  0  0  0  0  0  0  0  0  0
   -2.0096    1.6737    0.0000 H   0  0  0  0  0  0  0  0  0  0  0  0
   -2.3403    2.6913    0.0000 H   0  0  0  0  0  0  0  0  0  0  0  0
    2.2649    0.7652    0.0000 H   0  0  0  0  0  0  0  0  0  0  0  0
    2.6501    2.5780    0.0000 H   0  0  0  0  0  0  0  0  0  0  0  0
    2.9808    1.5604    0.0000 H   0  0  0  0  0  0  0  0  0  0  0  0
  1  2  1  0  0  0  0
  1 24  1  0  0  0  0
  1 25  1  0  0  0  0
  2  3  2  0  0  0  0
  2  7  1  0  0  0  0
  3  4  1  0  0  0  0
  4  5  2  0  0  0  0
  4 26  1  0  0  0  0
  5  6  1  0  0  0  0
  6  7  2  0  0  0  0
  6 10  1  0  0  0  0
  7  8  1  0  0  0  0
  8  9  2  0  0  0  0
  8 15  1  0  0  0  0
  9 10  1  0  0  0  0
 10 11  1  0  0  0  0
 11 12  1  0  0  0  0
 11 13  1  0  0  0  0
 11 14  1  0  0  0  0
 12 27  1  0  0  0  0
 12 28  1  0  0  0  0
 12 29  1  0  0  0  0
 13 30  1  0  0  0  0
 13 31  1  0  0  0  0
 13 32  1  0  0  0  0
 14 33  1  0  0  0  0
 14 34  1  0  0  0  0
 14 35  1  0  0  0  0
 15 16  1  0  0  0  0
 15 36  1  0  0  0  0
 15 37  1  0  0  0  0
 16 17  2  0  0  0  0
 16 21  1  0  0  0  0
 17 18  1  0  0  0  0
 17 38  1  0  0  0  0
 18 19  2  0  0  0  0
 18 23  1  0  0  0  0
 19 20  1  0  0  0  0
 19 39  1  0  0  0  0
 20 21  2  0  0  0  0
 20 40  1  0  0  0  0
 21 22  1  0  0  0  0
 22 41  1  0  0  0  0
 22 42  1  0  0  0  0
 22 43  1  0  0  0  0
 23 44  1  0  0  0  0
 23 45  1  0  0  0  0
 23 46  1  0  0  0  0
M  END
>  <DRUGBANK_ID>
DB08035

>  <COMMON_NAME>
1-TERT-BUTYL-3-(2,5-DIMETHYLBENZYL)-1H-PYRAZOLO[3,4-D]PYRIMIDIN-4-AMINE

$$$$
