
 OpenBabel10282417072D

 21 20  0  0  0  0  0  0  0  0999 V2000
   -0.7251   -0.1875    0.0000 N   0  3  0  0  0  0  0  0  0  0  0  0
    1.4394   -0.4867    0.0000 O   0  0  0  0  0  0  0  0  0  0  0  0
    0.0102   -0.5615    0.0000 C   0  0  0  0  0  0  0  0  0  0  0  0
    0.7081   -0.1128    0.0000 C   0  0  0  0  0  0  0  0  0  0  0  0
   -1.4165   -0.6375    0.0000 C   0  0  0  0  0  0  0  0  0  0  0  0
   -1.4394    0.2249    0.0000 C   0  0  0  0  0  0  0  0  0  0  0  0
   -0.7251    0.6375    0.0000 C   0  0  0  0  0  0  0  0  0  0  0  0
    1.4888   -1.4554    0.0000 H   0  0  0  0  0  0  0  0  0  0  0  0
    0.0641   -1.6301    0.0000 H   0  0  0  0  0  0  0  0  0  0  0  0
    0.9620   -1.0504    0.0000 H   0  0  0  0  0  0  0  0  0  0  0  0
    0.6553    0.9559    0.0000 H   0  0  0  0  0  0  0  0  0  0  0  0
   -0.2434    0.3766    0.0000 H   0  0  0  0  0  0  0  0  0  0  0  0
   -2.3704   -0.1527    0.0000 H   0  0  0  0  0  0  0  0  0  0  0  0
   -1.3594   -1.7060    0.0000 H   0  0  0  0  0  0  0  0  0  0  0  0
   -2.3133   -1.2212    0.0000 H   0  0  0  0  0  0  0  0  0  0  0  0
   -1.4394    1.2949    0.0000 H   0  0  0  0  0  0  0  0  0  0  0  0
   -2.3660   -0.3101    0.0000 H   0  0  0  0  0  0  0  0  0  0  0  0
   -2.3660    0.7599    0.0000 H   0  0  0  0  0  0  0  0  0  0  0  0
    0.2015    1.1725    0.0000 H   0  0  0  0  0  0  0  0  0  0  0  0
   -1.6517    1.1725    0.0000 H   0  0  0  0  0  0  0  0  0  0  0  0
   -0.7251    1.7075    0.0000 H   0  0  0  0  0  0  0  0  0  0  0  0
  1  5  1  0  0  0  0
  1  6  1  0  0  0  0
  1  7  1  0  0  0  0
  2  4  1  0  0  0  0
  2  8  1  0  0  0  0
  3  1  1  0  0  0  0
  3  9  1  0  0  0  0
  3 10  1  0  0  0  0
  4  3  1  0  0  0  0
  4 11  1  0  0  0  0
  4 12  1  0  0  0  0
  5 13  1  0  0  0  0
  5 14  1  0  0  0  0
  5 15  1  0  0  0  0
  6 16  1  0  0  0  0
  6 17  1  0  0  0  0
  6 18  1  0  0  0  0
  7 19  1  0  0  0  0
  7 20  1  0  0  0  0
  7 21  1  0  0  0  0
M  ISO  1   7  11
M  CHG  1   1   1
M  END
>  <DRUGBANK_ID>
DB09563

>  <COMMON_NAME>
Choline C-11

>  <CAS_NUMBER>
94793-58-5

>  <UNII>
M4AS4XGD4Q

>  <SYNONYMS>
(11)C-choline; Choline C11

$$$$
