
 OpenBabel10282417072D

 60 63  0  0  0  0  0  0  0  0999 V2000
   -1.0131   -1.8986    0.0000 F   0  0  0  0  0  0  0  0  0  0  0  0
    1.8405    0.5374    0.0000 O   0  0  0  0  0  0  0  0  0  0  0  0
   -1.7246    0.1585    0.0000 O   0  0  0  0  0  0  0  0  0  0  0  0
    0.3248    1.2953    0.0000 O   0  0  0  0  0  0  0  0  0  0  0  0
    2.4669    1.3339    0.0000 O   0  0  0  0  0  0  0  0  0  0  0  0
   -3.8668   -2.7338    0.0000 O   0  0  0  0  0  0  0  0  0  0  0  0
    2.8382    2.7338    0.0000 O   0  0  0  0  0  0  0  0  0  0  0  0
    0.4099   -1.0943    0.0000 C   0  0  1  0  0  0  0  0  0  0  0  0
   -0.3016   -1.5197    0.0000 C   0  0  1  0  0  0  0  0  0  0  0  0
    0.4099   -0.2590    0.0000 C   0  0  1  0  0  0  0  0  0  0  0  0
   -1.0131   -1.0943    0.0000 C   0  0  2  0  0  0  0  0  0  0  0  0
    1.1213    0.1585    0.0000 C   0  0  1  0  0  0  0  0  0  0  0  0
   -1.7246   -1.5197    0.0000 C   0  0  2  0  0  0  0  0  0  0  0  0
   -1.0131   -0.2590    0.0000 C   0  0  2  0  0  0  0  0  0  0  0  0
   -0.3016    0.1585    0.0000 C   0  0  0  0  0  0  0  0  0  0  0  0
    1.8405   -1.0943    0.0000 C   0  0  0  0  0  0  0  0  0  0  0  0
    1.8405   -0.2590    0.0000 C   0  0  0  0  0  0  0  0  0  0  0  0
   -0.3016   -2.3162    0.0000 C   0  0  0  0  0  0  0  0  0  0  0  0
   -1.7246   -2.3162    0.0000 C   0  0  0  0  0  0  0  0  0  0  0  0
    1.1213    0.9551    0.0000 C   0  0  0  0  0  0  0  0  0  0  0  0
    0.4099    0.5374    0.0000 C   0  0  0  0  0  0  0  0  0  0  0  0
   -1.0131   -2.7338    0.0000 C   0  0  0  0  0  0  0  0  0  0  0  0
   -2.4437   -1.0943    0.0000 C   0  0  0  0  0  0  0  0  0  0  0  0
   -1.7246   -0.6766    0.0000 C   0  0  0  0  0  0  0  0  0  0  0  0
   -2.4437   -2.7338    0.0000 C   0  0  0  0  0  0  0  0  0  0  0  0
    2.6371   -0.0502    0.0000 C   0  0  0  0  0  0  0  0  0  0  0  0
    1.6704    1.5429    0.0000 C   0  0  0  0  0  0  0  0  0  0  0  0
   -3.1552   -1.5197    0.0000 C   0  0  0  0  0  0  0  0  0  0  0  0
   -3.1552   -2.3162    0.0000 C   0  0  0  0  0  0  0  0  0  0  0  0
    3.0547    1.9295    0.0000 C   0  0  0  0  0  0  0  0  0  0  0  0
    3.8668    1.7206    0.0000 C   0  0  0  0  0  0  0  0  0  0  0  0
    0.4099   -1.8986    0.0000 H   0  0  0  0  0  0  0  0  0  0  0  0
   -0.3016   -0.6766    0.0000 H   0  0  0  0  0  0  0  0  0  0  0  0
    2.6611    0.0202    0.0000 H   0  0  0  0  0  0  0  0  0  0  0  0
   -1.7178    1.1285    0.0000 H   0  0  0  0  0  0  0  0  0  0  0  0
   -1.9416   -0.7907    0.0000 H   0  0  0  0  0  0  0  0  0  0  0  0
   -0.3016    1.2285    0.0000 H   0  0  0  0  0  0  0  0  0  0  0  0
   -1.2301    0.6902    0.0000 H   0  0  0  0  0  0  0  0  0  0  0  0
    2.5971   -1.8509    0.0000 H   0  0  0  0  0  0  0  0  0  0  0  0
    2.8291   -0.6848    0.0000 H   0  0  0  0  0  0  0  0  0  0  0  0
    0.6270   -2.8479    0.0000 H   0  0  0  0  0  0  0  0  0  0  0  0
   -0.2959   -3.3862    0.0000 H   0  0  0  0  0  0  0  0  0  0  0  0
    1.3365    1.0724    0.0000 H   0  0  0  0  0  0  0  0  0  0  0  0
   -0.5167    1.0724    0.0000 H   0  0  0  0  0  0  0  0  0  0  0  0
    0.4099    1.6074    0.0000 H   0  0  0  0  0  0  0  0  0  0  0  0
   -1.0131   -3.8038    0.0000 H   0  0  0  0  0  0  0  0  0  0  0  0
   -1.9417   -3.2655    0.0000 H   0  0  0  0  0  0  0  0  0  0  0  0
   -2.4461   -0.0623    0.0000 H   0  0  0  0  0  0  0  0  0  0  0  0
   -0.7980   -0.1416    0.0000 H   0  0  0  0  0  0  0  0  0  0  0  0
   -2.6512   -0.1416    0.0000 H   0  0  0  0  0  0  0  0  0  0  0  0
   -1.7246    0.3934    0.0000 H   0  0  0  0  0  0  0  0  0  0  0  0
   -2.4461   -3.7658    0.0000 H   0  0  0  0  0  0  0  0  0  0  0  0
    3.3628   -0.7839    0.0000 H   0  0  0  0  0  0  0  0  0  0  0  0
    2.9096    0.9452    0.0000 H   0  0  0  0  0  0  0  0  0  0  0  0
    1.3733    2.5708    0.0000 H   0  0  0  0  0  0  0  0  0  0  0  0
    0.6298    1.7920    0.0000 H   0  0  0  0  0  0  0  0  0  0  0  0
   -4.0529   -1.0105    0.0000 H   0  0  0  0  0  0  0  0  0  0  0  0
    4.1541    0.6899    0.0000 H   0  0  0  0  0  0  0  0  0  0  0  0
    4.6158    2.4848    0.0000 H   0  0  0  0  0  0  0  0  0  0  0  0
    4.9031    1.4540    0.0000 H   0  0  0  0  0  0  0  0  0  0  0  0
  2 34  1  0  0  0  0
  3 35  1  0  0  0  0
  4 20  2  0  0  0  0
  5 27  1  0  0  0  0
  5 30  1  0  0  0  0
  6 29  2  0  0  0  0
  7 30  2  0  0  0  0
  8  9  1  0  0  0  0
  8 10  1  0  0  0  0
  8 16  1  0  0  0  0
  8 32  1  6  0  0  0
  9 11  1  0  0  0  0
  9 18  1  0  0  0  0
  9 33  1  1  0  0  0
 10 12  1  0  0  0  0
 10 15  1  0  0  0  0
 10 21  1  1  0  0  0
 11  1  1  6  0  0  0
 11 13  1  0  0  0  0
 11 14  1  0  0  0  0
 12  2  1  6  0  0  0
 12 17  1  0  0  0  0
 12 20  1  0  0  0  0
 13 19  1  0  0  0  0
 13 23  1  0  0  0  0
 13 24  1  1  0  0  0
 14  3  1  0  0  0  0
 14 15  1  0  0  0  0
 14 36  1  6  0  0  0
 15 37  1  0  0  0  0
 15 38  1  0  0  0  0
 16 17  1  0  0  0  0
 16 39  1  0  0  0  0
 16 40  1  0  0  0  0
 17 26  2  0  0  0  0
 18 22  1  0  0  0  0
 18 41  1  0  0  0  0
 18 42  1  0  0  0  0
 19 22  1  0  0  0  0
 19 25  2  0  0  0  0
 20 27  1  0  0  0  0
 21 43  1  0  0  0  0
 21 44  1  0  0  0  0
 21 45  1  0  0  0  0
 22 46  1  0  0  0  0
 22 47  1  0  0  0  0
 23 28  2  0  0  0  0
 23 48  1  0  0  0  0
 24 49  1  0  0  0  0
 24 50  1  0  0  0  0
 24 51  1  0  0  0  0
 25 29  1  0  0  0  0
 25 52  1  0  0  0  0
 26 53  1  0  0  0  0
 26 54  1  0  0  0  0
 27 55  1  0  0  0  0
 27 56  1  0  0  0  0
 28 29  1  0  0  0  0
 28 57  1  0  0  0  0
 30 31  1  0  0  0  0
 31 58  1  0  0  0  0
 31 59  1  0  0  0  0
 31 60  1  0  0  0  0
M  END
>  <DRUGBANK_ID>
DB14634

>  <SECONDARY_ACCESSION_NUMBERS>
DBSALT001871

>  <COMMON_NAME>
Fluprednidene acetate

>  <CAS_NUMBER>
1255-35-2

>  <UNII>
GE65DV564S

$$$$
