
 OpenBabel10282417072D

 50 52  0  0  1  0  0  0  0  0999 V2000
   -3.5724    7.1401    0.0000 C   0  0  0  0  0  0  0  0  0  0  0  0
   -2.8579    6.7276    0.0000 C   0  0  2  0  0  0  0  0  0  0  0  0
   -2.1434    7.1401    0.0000 C   0  0  1  0  0  0  0  0  0  0  0  0
   -1.4289    6.7276    0.0000 C   0  0  0  0  0  0  0  0  0  0  0  0
   -2.1434    7.9651    0.0000 O   0  0  0  0  0  0  0  0  0  0  0  0
   -1.4289    8.3776    0.0000 C   0  0  0  0  0  0  0  0  0  0  0  0
   -1.4289    9.2026    0.0000 C   0  0  0  0  0  0  0  0  0  0  0  0
   -0.7145    9.6151    0.0000 C   0  0  0  0  0  0  0  0  0  0  0  0
   -0.0000    9.2026    0.0000 N   0  0  0  0  0  0  0  0  0  0  0  0
   -0.0000    8.3776    0.0000 C   0  0  0  0  0  0  0  0  0  0  0  0
   -0.7145    7.9651    0.0000 N   0  0  0  0  0  0  0  0  0  0  0  0
    0.7145    7.9651    0.0000 N   0  0  0  0  0  0  0  0  0  0  0  0
    0.7145    7.1401    0.0000 C   0  0  0  0  0  0  0  0  0  0  0  0
    1.4289    6.7276    0.0000 C   0  0  0  0  0  0  0  0  0  0  0  0
    1.4289    5.9026    0.0000 C   0  0  0  0  0  0  0  0  0  0  0  0
    0.7145    5.4901    0.0000 C   0  0  0  0  0  0  0  0  0  0  0  0
    0.0000    5.9026    0.0000 C   0  0  0  0  0  0  0  0  0  0  0  0
   -0.0000    6.7276    0.0000 C   0  0  0  0  0  0  0  0  0  0  0  0
    0.7145    4.6651    0.0000 S   0  0  2  0  0  0  0  0  0  0  0  0
   -0.1105    4.6651    0.0000 N   0  0  0  0  0  0  0  0  0  0  0  0
    1.5395    4.6651    0.0000 O   0  0  0  0  0  0  0  0  0  0  0  0
    0.7145    3.8401    0.0000 C   0  0  0  0  0  0  0  0  0  0  0  0
    1.1270    3.1257    0.0000 C   0  0  0  0  0  0  0  0  0  0  0  0
    0.3020    3.1257    0.0000 C   0  0  0  0  0  0  0  0  0  0  0  0
   -2.1434    9.6151    0.0000 C   0  0  0  0  0  0  0  0  0  0  0  0
   -2.8579   10.0276    0.0000 F   0  0  0  0  0  0  0  0  0  0  0  0
   -1.7309   10.3296    0.0000 F   0  0  0  0  0  0  0  0  0  0  0  0
   -2.5559    8.9007    0.0000 F   0  0  0  0  0  0  0  0  0  0  0  0
   -2.8579    5.9026    0.0000 O   0  0  0  0  0  0  0  0  0  0  0  0
   -3.5724    8.2101    0.0000 H   0  0  0  0  0  0  0  0  0  0  0  0
   -4.4990    6.6051    0.0000 H   0  0  0  0  0  0  0  0  0  0  0  0
   -4.4991    7.6751    0.0000 H   0  0  0  0  0  0  0  0  0  0  0  0
   -3.7845    6.1926    0.0000 H   0  0  0  0  0  0  0  0  0  0  0  0
   -2.1434    6.0701    0.0000 H   0  0  0  0  0  0  0  0  0  0  0  0
   -1.4289    5.6576    0.0000 H   0  0  0  0  0  0  0  0  0  0  0  0
   -0.5023    7.2626    0.0000 H   0  0  0  0  0  0  0  0  0  0  0  0
   -0.5022    6.1926    0.0000 H   0  0  0  0  0  0  0  0  0  0  0  0
   -0.7145   10.6471    0.0000 H   0  0  0  0  0  0  0  0  0  0  0  0
    1.5671    8.4574    0.0000 H   0  0  0  0  0  0  0  0  0  0  0  0
    2.3226    7.2436    0.0000 H   0  0  0  0  0  0  0  0  0  0  0  0
    2.3226    5.3866    0.0000 H   0  0  0  0  0  0  0  0  0  0  0  0
   -0.8937    5.3866    0.0000 H   0  0  0  0  0  0  0  0  0  0  0  0
   -0.8937    7.2436    0.0000 H   0  0  0  0  0  0  0  0  0  0  0  0
   -0.6028    5.5177    0.0000 H   0  0  0  0  0  0  0  0  0  0  0  0
    0.7145    2.7701    0.0000 H   0  0  0  0  0  0  0  0  0  0  0  0
    2.0537    2.5907    0.0000 H   0  0  0  0  0  0  0  0  0  0  0  0
    0.8501    2.0922    0.0000 H   0  0  0  0  0  0  0  0  0  0  0  0
   -0.6247    2.5907    0.0000 H   0  0  0  0  0  0  0  0  0  0  0  0
   -0.4546    3.8823    0.0000 H   0  0  0  0  0  0  0  0  0  0  0  0
   -3.6979    5.4176    0.0000 H   0  0  0  0  0  0  0  0  0  0  0  0
  1  2  1  0  0  0  0
  1 30  1  0  0  0  0
  1 31  1  0  0  0  0
  1 32  1  0  0  0  0
  2  3  1  0  0  0  0
  2 29  1  0  0  0  0
  2 33  1  1  0  0  0
  3  4  1  0  0  0  0
  3  5  1  0  0  0  0
  3 34  1  1  0  0  0
  4 35  1  0  0  0  0
  4 36  1  0  0  0  0
  4 37  1  0  0  0  0
  5  6  1  0  0  0  0
  6  7  2  0  0  0  0
  6 11  1  0  0  0  0
  7  8  1  0  0  0  0
  7 25  1  0  0  0  0
  8  9  2  0  0  0  0
  8 38  1  0  0  0  0
  9 10  1  0  0  0  0
 10 11  2  0  0  0  0
 10 12  1  0  0  0  0
 12 13  1  0  0  0  0
 12 39  1  0  0  0  0
 13 14  2  0  0  0  0
 13 18  1  0  0  0  0
 14 15  1  0  0  0  0
 14 40  1  0  0  0  0
 15 16  2  0  0  0  0
 15 41  1  0  0  0  0
 16 17  1  0  0  0  0
 17 18  2  0  0  0  0
 17 42  1  0  0  0  0
 18 43  1  0  0  0  0
 19 16  1  0  0  0  0
 19 20  2  0  0  0  0
 19 21  2  1  0  0  0
 19 22  1  0  0  0  0
 20 44  1  0  0  0  0
 22 23  1  0  0  0  0
 22 24  1  0  0  0  0
 22 45  1  0  0  0  0
 23 24  1  0  0  0  0
 23 46  1  0  0  0  0
 23 47  1  0  0  0  0
 24 48  1  0  0  0  0
 24 49  1  0  0  0  0
 25 26  1  0  0  0  0
 25 27  1  0  0  0  0
 25 28  1  0  0  0  0
 29 50  1  0  0  0  0
M  END
>  <DRUGBANK_ID>
DB12974

>  <COMMON_NAME>
Roniciclib

>  <CAS_NUMBER>
1223498-69-8

>  <UNII>
0W9Q8U337A

>  <SYNONYMS>
Roniciclib

$$$$
