
 OpenBabel10282417072D

 66 70  0  0  0  0  0  0  0  0999 V2000
    4.3415    0.3031    0.0000 C   0  0  0  0  0  0  0  0  0  0  0  0
    5.0560   -0.1093    0.0000 C   0  0  0  0  0  0  0  0  0  0  0  0
    5.7705    0.3031    0.0000 C   0  0  0  0  0  0  0  0  0  0  0  0
    5.0560   -0.9343    0.0000 N   0  0  0  0  0  0  0  0  0  0  0  0
    5.7234   -1.4192    0.0000 C   0  0  0  0  0  0  0  0  0  0  0  0
    5.4685   -2.2038    0.0000 N   0  0  0  0  0  0  0  0  0  0  0  0
    4.6435   -2.2038    0.0000 C   0  0  0  0  0  0  0  0  0  0  0  0
    4.3885   -1.4192    0.0000 C   0  0  0  0  0  0  0  0  0  0  0  0
    3.6039   -1.1643    0.0000 C   0  0  0  0  0  0  0  0  0  0  0  0
    2.9365   -1.6492    0.0000 N   0  0  0  0  0  0  0  0  0  0  0  0
    2.2690   -1.1643    0.0000 C   0  0  0  0  0  0  0  0  0  0  0  0
    2.5240   -0.3797    0.0000 C   0  0  0  0  0  0  0  0  0  0  0  0
    3.3490   -0.3797    0.0000 N   0  0  0  0  0  0  0  0  0  0  0  0
    2.0390    0.2877    0.0000 C   0  0  0  0  0  0  0  0  0  0  0  0
    2.3746    1.0414    0.0000 O   0  0  0  0  0  0  0  0  0  0  0  0
    1.2185    0.2015    0.0000 N   0  0  0  0  0  0  0  0  0  0  0  0
    0.7336    0.8689    0.0000 C   0  0  0  0  0  0  0  0  0  0  0  0
   -0.0867    0.7827    0.0000 C   0  0  0  0  0  0  0  0  0  0  0  0
   -0.5717    1.4501    0.0000 C   0  0  0  0  0  0  0  0  0  0  0  0
   -0.2361    2.2038    0.0000 C   0  0  0  0  0  0  0  0  0  0  0  0
    0.5843    2.2900    0.0000 C   0  0  0  0  0  0  0  0  0  0  0  0
    1.0692    1.6226    0.0000 C   0  0  0  0  0  0  0  0  0  0  0  0
   -0.7210    2.8712    0.0000 N   0  0  0  0  0  0  0  0  0  0  0  0
   -1.5415    2.7850    0.0000 C   0  0  0  0  0  0  0  0  0  0  0  0
   -2.0265    3.4524    0.0000 C   0  0  0  0  0  0  0  0  0  0  0  0
   -1.6909    4.2061    0.0000 N   0  0  0  0  0  0  0  0  0  0  0  0
   -2.1758    4.8736    0.0000 C   0  0  0  0  0  0  0  0  0  0  0  0
   -0.8704    4.2923    0.0000 C   0  0  0  0  0  0  0  0  0  0  0  0
   -0.3855    3.6249    0.0000 C   0  0  0  0  0  0  0  0  0  0  0  0
    4.1585   -2.8713    0.0000 C   0  0  0  0  0  0  0  0  0  0  0  0
    4.4941   -3.6249    0.0000 C   0  0  0  0  0  0  0  0  0  0  0  0
    4.0092   -4.2924    0.0000 C   0  0  0  0  0  0  0  0  0  0  0  0
    3.1887   -4.2062    0.0000 C   0  0  0  0  0  0  0  0  0  0  0  0
    2.7038   -4.8736    0.0000 F   0  0  0  0  0  0  0  0  0  0  0  0
    2.8531   -3.4525    0.0000 C   0  0  0  0  0  0  0  0  0  0  0  0
    3.3380   -2.7850    0.0000 C   0  0  0  0  0  0  0  0  0  0  0  0
    4.3414    1.3731    0.0000 H   0  0  0  0  0  0  0  0  0  0  0  0
    3.4149   -0.2320    0.0000 H   0  0  0  0  0  0  0  0  0  0  0  0
    3.4148    0.8380    0.0000 H   0  0  0  0  0  0  0  0  0  0  0  0
    5.9826   -0.6444    0.0000 H   0  0  0  0  0  0  0  0  0  0  0  0
    6.6971   -0.2320    0.0000 H   0  0  0  0  0  0  0  0  0  0  0  0
    5.7706    1.3731    0.0000 H   0  0  0  0  0  0  0  0  0  0  0  0
    6.6972    0.8380    0.0000 H   0  0  0  0  0  0  0  0  0  0  0  0
    6.7049   -1.1003    0.0000 H   0  0  0  0  0  0  0  0  0  0  0  0
    1.2875   -1.4832    0.0000 H   0  0  0  0  0  0  0  0  0  0  0  0
    3.9277    0.4168    0.0000 H   0  0  0  0  0  0  0  0  0  0  0  0
    0.8180   -0.6979    0.0000 H   0  0  0  0  0  0  0  0  0  0  0  0
   -0.5064   -0.1601    0.0000 H   0  0  0  0  0  0  0  0  0  0  0  0
   -1.5980    1.3422    0.0000 H   0  0  0  0  0  0  0  0  0  0  0  0
    1.0041    3.2328    0.0000 H   0  0  0  0  0  0  0  0  0  0  0  0
    2.0955    1.7305    0.0000 H   0  0  0  0  0  0  0  0  0  0  0  0
   -1.9767    1.8075    0.0000 H   0  0  0  0  0  0  0  0  0  0  0  0
   -2.6056    2.6731    0.0000 H   0  0  0  0  0  0  0  0  0  0  0  0
   -3.0906    3.3405    0.0000 H   0  0  0  0  0  0  0  0  0  0  0  0
   -2.6554    4.3180    0.0000 H   0  0  0  0  0  0  0  0  0  0  0  0
   -1.7405    5.8511    0.0000 H   0  0  0  0  0  0  0  0  0  0  0  0
   -3.2399    4.7618    0.0000 H   0  0  0  0  0  0  0  0  0  0  0  0
   -2.8047    5.7393    0.0000 H   0  0  0  0  0  0  0  0  0  0  0  0
   -0.4352    5.2698    0.0000 H   0  0  0  0  0  0  0  0  0  0  0  0
    0.1937    4.4041    0.0000 H   0  0  0  0  0  0  0  0  0  0  0  0
    0.6786    3.7368    0.0000 H   0  0  0  0  0  0  0  0  0  0  0  0
    0.2435    2.7593    0.0000 H   0  0  0  0  0  0  0  0  0  0  0  0
    5.5205   -3.7327    0.0000 H   0  0  0  0  0  0  0  0  0  0  0  0
    4.4290   -5.2352    0.0000 H   0  0  0  0  0  0  0  0  0  0  0  0
    1.8267   -3.3447    0.0000 H   0  0  0  0  0  0  0  0  0  0  0  0
    2.9183   -1.8422    0.0000 H   0  0  0  0  0  0  0  0  0  0  0  0
  1  2  1  0  0  0  0
  1 37  1  0  0  0  0
  1 38  1  0  0  0  0
  1 39  1  0  0  0  0
  2  3  1  0  0  0  0
  2  4  1  0  0  0  0
  2 40  1  0  0  0  0
  3 41  1  0  0  0  0
  3 42  1  0  0  0  0
  3 43  1  0  0  0  0
  4  5  1  0  0  0  0
  4  8  1  0  0  0  0
  5  6  2  0  0  0  0
  5 44  1  0  0  0  0
  6  7  1  0  0  0  0
  7  8  2  0  0  0  0
  7 30  1  0  0  0  0
  8  9  1  0  0  0  0
  9 10  2  0  0  0  0
  9 13  1  0  0  0  0
 10 11  1  0  0  0  0
 11 12  2  0  0  0  0
 11 45  1  0  0  0  0
 12 13  1  0  0  0  0
 12 14  1  0  0  0  0
 13 46  1  0  0  0  0
 14 15  2  0  0  0  0
 14 16  1  0  0  0  0
 16 17  1  0  0  0  0
 16 47  1  0  0  0  0
 17 18  2  0  0  0  0
 17 22  1  0  0  0  0
 18 19  1  0  0  0  0
 18 48  1  0  0  0  0
 19 20  2  0  0  0  0
 19 49  1  0  0  0  0
 20 21  1  0  0  0  0
 20 23  1  0  0  0  0
 21 22  2  0  0  0  0
 21 50  1  0  0  0  0
 22 51  1  0  0  0  0
 23 24  1  0  0  0  0
 23 29  1  0  0  0  0
 24 25  1  0  0  0  0
 24 52  1  0  0  0  0
 24 53  1  0  0  0  0
 25 26  1  0  0  0  0
 25 54  1  0  0  0  0
 25 55  1  0  0  0  0
 26 27  1  0  0  0  0
 26 28  1  0  0  0  0
 27 56  1  0  0  0  0
 27 57  1  0  0  0  0
 27 58  1  0  0  0  0
 28 29  1  0  0  0  0
 28 59  1  0  0  0  0
 28 60  1  0  0  0  0
 29 61  1  0  0  0  0
 29 62  1  0  0  0  0
 30 31  2  0  0  0  0
 30 36  1  0  0  0  0
 31 32  1  0  0  0  0
 31 63  1  0  0  0  0
 32 33  2  0  0  0  0
 32 64  1  0  0  0  0
 33 34  1  0  0  0  0
 33 35  1  0  0  0  0
 35 36  2  0  0  0  0
 35 65  1  0  0  0  0
 36 66  1  0  0  0  0
M  END
>  <DRUGBANK_ID>
DB18083

>  <COMMON_NAME>
INS018_055

>  <SYNONYMS>
5’-(4-fluorophenyl)-3’-isopropyl-N-(4-(4-methylpiperazin-1-yl)phenyl)-1H,3’H-[2,4’-biimidazole]-4-carboxamide

$$$$
