
 OpenBabel10282417072D

 12 12  0  0  0  0  0  0  0  0999 V2000
   -1.0717   -0.8250    0.0000 C   0  0  0  0  0  0  0  0  0  0  0  0
   -1.0717    0.0000    0.0000 C   0  0  0  0  0  0  0  0  0  0  0  0
    0.3573    0.0000    0.0000 C   0  0  0  0  0  0  0  0  0  0  0  0
   -0.3571    0.4125    0.0000 C   0  0  0  0  0  0  0  0  0  0  0  0
    0.3573   -0.8250    0.0000 C   0  0  0  0  0  0  0  0  0  0  0  0
   -0.3571   -1.2375    0.0000 C   0  0  0  0  0  0  0  0  0  0  0  0
    1.0718    0.4125    0.0000 Cl  0  0  0  0  0  0  0  0  0  0  0  0
   -0.3571    1.2375    0.0000 Cl  0  0  0  0  0  0  0  0  0  0  0  0
   -1.9654   -1.3410    0.0000 H   0  0  0  0  0  0  0  0  0  0  0  0
   -1.9654    0.5160    0.0000 H   0  0  0  0  0  0  0  0  0  0  0  0
    1.2510   -1.3410    0.0000 H   0  0  0  0  0  0  0  0  0  0  0  0
   -0.3570   -2.2695    0.0000 H   0  0  0  0  0  0  0  0  0  0  0  0
  1  2  2  0  0  0  0
  1  9  1  0  0  0  0
  2  4  1  0  0  0  0
  2 10  1  0  0  0  0
  3  5  1  0  0  0  0
  4  3  2  0  0  0  0
  5 11  1  0  0  0  0
  6  5  2  0  0  0  0
  6  1  1  0  0  0  0
  6 12  1  0  0  0  0
  7  3  1  0  0  0  0
  8  4  1  0  0  0  0
M  END
>  <DRUGBANK_ID>
DB13963

>  <COMMON_NAME>
1,2-dichlorobenzene

>  <CAS_NUMBER>
95-50-1

>  <UNII>
6PJ93I88XL

>  <SYNONYMS>
2-Dichlorobenzene; o-dichlorbenzene; o-Dichlorbenzol; o-Dichlorobenzene; ODB; ODCB; ortho-Dichlorobenzene; Orthodichlorobenzene; orthodichlorobenzol

$$$$
