
 OpenBabel10282417072D

 47 50  0  0  0  0  0  0  0  0999 V2000
    0.4188   -1.4932    0.0000 C   0  0  0  0  0  0  0  0  0  0  0  0
    0.4188   -2.3182    0.0000 C   0  0  0  0  0  0  0  0  0  0  0  0
   -0.2956   -1.0807    0.0000 C   0  0  0  0  0  0  0  0  0  0  0  0
   -0.2956   -2.7307    0.0000 C   0  0  0  0  0  0  0  0  0  0  0  0
   -1.0101   -1.4932    0.0000 C   0  0  0  0  0  0  0  0  0  0  0  0
   -1.0101   -2.3182    0.0000 C   0  0  0  0  0  0  0  0  0  0  0  0
    1.1332   -1.0807    0.0000 C   0  0  0  0  0  0  0  0  0  0  0  0
    1.2195   -0.2602    0.0000 N   0  0  0  0  0  0  0  0  0  0  0  0
    1.8870   -1.4163    0.0000 N   0  0  0  0  0  0  0  0  0  0  0  0
    2.0264   -0.0887    0.0000 C   0  0  0  0  0  0  0  0  0  0  0  0
    2.4390   -0.8031    0.0000 N   0  0  0  0  0  0  0  0  0  0  0  0
    0.6064    0.2917    0.0000 C   0  0  0  0  0  0  0  0  0  0  0  0
   -0.1781    0.0368    0.0000 C   0  0  0  0  0  0  0  0  0  0  0  0
    0.7779    1.0988    0.0000 C   0  0  0  0  0  0  0  0  0  0  0  0
   -0.7913    0.5889    0.0000 C   0  0  0  0  0  0  0  0  0  0  0  0
    0.1648    1.6507    0.0000 C   0  0  0  0  0  0  0  0  0  0  0  0
   -0.6197    1.3958    0.0000 C   0  0  0  0  0  0  0  0  0  0  0  0
    0.1648    2.4757    0.0000 C   0  0  0  0  0  0  0  0  0  0  0  0
   -0.6197    2.7307    0.0000 C   0  0  0  0  0  0  0  0  0  0  0  0
   -1.1047    2.0633    0.0000 N   0  0  0  0  0  0  0  0  0  0  0  0
   -1.7245   -1.0807    0.0000 C   0  0  0  0  0  0  0  0  0  0  0  0
   -1.7245   -0.2557    0.0000 C   0  0  0  0  0  0  0  0  0  0  0  0
   -2.4390   -1.4932    0.0000 C   0  0  0  0  0  0  0  0  0  0  0  0
   -1.7245   -2.7307    0.0000 O   0  0  0  0  0  0  0  0  0  0  0  0
    1.1332   -2.7307    0.0000 O   0  0  0  0  0  0  0  0  0  0  0  0
    2.3620    0.6649    0.0000 O   0  0  0  0  0  0  0  0  0  0  0  0
   -1.9297    2.0633    0.0000 C   0  0  0  0  0  0  0  0  0  0  0  0
   -0.2956   -0.0487    0.0000 H   0  0  0  0  0  0  0  0  0  0  0  0
   -0.2956   -3.7627    0.0000 H   0  0  0  0  0  0  0  0  0  0  0  0
    3.4181   -0.9059    0.0000 H   0  0  0  0  0  0  0  0  0  0  0  0
   -0.3927   -0.9727    0.0000 H   0  0  0  0  0  0  0  0  0  0  0  0
    1.7594    1.4178    0.0000 H   0  0  0  0  0  0  0  0  0  0  0  0
   -1.7728    0.2700    0.0000 H   0  0  0  0  0  0  0  0  0  0  0  0
    0.9997    3.0822    0.0000 H   0  0  0  0  0  0  0  0  0  0  0  0
   -0.9385    3.7122    0.0000 H   0  0  0  0  0  0  0  0  0  0  0  0
   -2.6511   -0.5457    0.0000 H   0  0  0  0  0  0  0  0  0  0  0  0
   -0.7979    0.2793    0.0000 H   0  0  0  0  0  0  0  0  0  0  0  0
   -2.6511    0.2793    0.0000 H   0  0  0  0  0  0  0  0  0  0  0  0
   -1.7245    0.8143    0.0000 H   0  0  0  0  0  0  0  0  0  0  0  0
   -3.3656   -0.9582    0.0000 H   0  0  0  0  0  0  0  0  0  0  0  0
   -2.4390   -2.5632    0.0000 H   0  0  0  0  0  0  0  0  0  0  0  0
   -3.3657   -2.0282    0.0000 H   0  0  0  0  0  0  0  0  0  0  0  0
   -2.5360   -2.2622    0.0000 H   0  0  0  0  0  0  0  0  0  0  0  0
    1.1332   -3.6677    0.0000 H   0  0  0  0  0  0  0  0  0  0  0  0
   -2.4647    2.9899    0.0000 H   0  0  0  0  0  0  0  0  0  0  0  0
   -2.4647    1.1367    0.0000 H   0  0  0  0  0  0  0  0  0  0  0  0
   -2.9997    2.0633    0.0000 H   0  0  0  0  0  0  0  0  0  0  0  0
  1  7  1  0  0  0  0
  2  1  1  0  0  0  0
  2 25  1  0  0  0  0
  3  1  2  0  0  0  0
  3 28  1  0  0  0  0
  4  2  2  0  0  0  0
  4 29  1  0  0  0  0
  5  3  1  0  0  0  0
  5 21  1  0  0  0  0
  6  4  1  0  0  0  0
  6  5  2  0  0  0  0
  6 24  1  0  0  0  0
  8  7  1  0  0  0  0
  8 12  1  0  0  0  0
  9  7  2  0  0  0  0
 10  8  1  0  0  0  0
 10 26  2  0  0  0  0
 11  9  1  0  0  0  0
 11 10  1  0  0  0  0
 11 30  1  0  0  0  0
 13 12  1  0  0  0  0
 13 31  1  0  0  0  0
 14 12  2  0  0  0  0
 14 32  1  0  0  0  0
 15 13  2  0  0  0  0
 15 33  1  0  0  0  0
 16 14  1  0  0  0  0
 17 15  1  0  0  0  0
 17 16  2  0  0  0  0
 18 16  1  0  0  0  0
 18 34  1  0  0  0  0
 19 18  2  0  0  0  0
 19 35  1  0  0  0  0
 20 17  1  0  0  0  0
 20 19  1  0  0  0  0
 20 27  1  0  0  0  0
 21 22  1  0  0  0  0
 21 23  1  0  0  0  0
 21 36  1  0  0  0  0
 22 37  1  0  0  0  0
 22 38  1  0  0  0  0
 22 39  1  0  0  0  0
 23 40  1  0  0  0  0
 23 41  1  0  0  0  0
 23 42  1  0  0  0  0
 24 43  1  0  0  0  0
 25 44  1  0  0  0  0
 27 45  1  0  0  0  0
 27 46  1  0  0  0  0
 27 47  1  0  0  0  0
M  END
>  <DRUGBANK_ID>
DB12047

>  <COMMON_NAME>
Ganetespib

>  <CAS_NUMBER>
888216-25-9

>  <UNII>
2E8412Y946

>  <SYNONYMS>
Ganetespib

$$$$
