
 OpenBabel10282417072D

 14 15  0  0  0  0  0  0  0  0999 V2000
   -1.7053   -1.2364    0.0000 Br  0  0  0  0  0  0  0  0  0  0  0  0
   -0.9925   -0.8236    0.0000 C   0  0  0  0  0  0  0  0  0  0  0  0
   -0.2763   -1.2364    0.0000 N   0  0  0  0  0  0  0  0  0  0  0  0
    0.4366   -0.8236    0.0000 C   0  0  0  0  0  0  0  0  0  0  0  0
    1.2210   -1.0795    0.0000 N   0  0  0  0  0  0  0  0  0  0  0  0
    1.7053   -0.4110    0.0000 C   0  0  0  0  0  0  0  0  0  0  0  0
    1.2210    0.2541    0.0000 N   0  0  0  0  0  0  0  0  0  0  0  0
    0.4366    0.0017    0.0000 C   0  0  0  0  0  0  0  0  0  0  0  0
   -0.2763    0.4110    0.0000 C   0  0  0  0  0  0  0  0  0  0  0  0
   -0.2763    1.2364    0.0000 O   0  0  0  0  0  0  0  0  0  0  0  0
   -0.9925    0.0017    0.0000 N   0  0  0  0  0  0  0  0  0  0  0  0
    2.7373   -0.4097    0.0000 H   0  0  0  0  0  0  0  0  0  0  0  0
    1.5261    1.1901    0.0000 H   0  0  0  0  0  0  0  0  0  0  0  0
   -1.8440    0.4958    0.0000 H   0  0  0  0  0  0  0  0  0  0  0  0
  1  2  1  0  0  0  0
  2  3  2  0  0  0  0
  2 11  1  0  0  0  0
  3  4  1  0  0  0  0
  4  5  1  0  0  0  0
  4  8  2  0  0  0  0
  5  6  2  0  0  0  0
  6  7  1  0  0  0  0
  6 12  1  0  0  0  0
  7  8  1  0  0  0  0
  7 13  1  0  0  0  0
  8  9  1  0  0  0  0
  9 10  2  0  0  0  0
  9 11  1  0  0  0  0
 11 14  1  0  0  0  0
M  END
>  <DRUGBANK_ID>
DB04283

>  <SECONDARY_ACCESSION_NUMBERS>
EXPT00735

>  <COMMON_NAME>
2-Bromohypoxanthine

>  <CAS_NUMBER>
87781-93-9

>  <UNII>
6XXT2WA2NQ

$$$$
