
 OpenBabel10282417072D

 19 19  0  0  0  0  0  0  0  0999 V2000
    2.1434    2.0625    0.0000 C   0  0  0  0  0  0  0  0  0  0  0  0
    2.1434    1.2375    0.0000 O   0  0  0  0  0  0  0  0  0  0  0  0
    1.4289    0.8250    0.0000 C   0  0  0  0  0  0  0  0  0  0  0  0
    1.4289    0.0000    0.0000 C   0  0  0  0  0  0  0  0  0  0  0  0
    0.7145   -0.4125    0.0000 C   0  0  0  0  0  0  0  0  0  0  0  0
    0.7145   -1.2375    0.0000 O   0  0  0  0  0  0  0  0  0  0  0  0
    1.4289   -1.6500    0.0000 O   0  0  0  0  0  0  0  0  0  0  0  0
    0.0000    0.0000    0.0000 C   0  0  0  0  0  0  0  0  0  0  0  0
    0.0000    0.8250    0.0000 C   0  0  0  0  0  0  0  0  0  0  0  0
    0.7145    1.2375    0.0000 C   0  0  0  0  0  0  0  0  0  0  0  0
    0.7145    2.0625    0.0000 O   0  0  0  0  0  0  0  0  0  0  0  0
    3.0700    2.5975    0.0000 H   0  0  0  0  0  0  0  0  0  0  0  0
    1.2168    2.5975    0.0000 H   0  0  0  0  0  0  0  0  0  0  0  0
    2.1434    3.1325    0.0000 H   0  0  0  0  0  0  0  0  0  0  0  0
    2.3226   -0.5160    0.0000 H   0  0  0  0  0  0  0  0  0  0  0  0
    1.4289   -2.6200    0.0000 H   0  0  0  0  0  0  0  0  0  0  0  0
   -0.8937   -0.5160    0.0000 H   0  0  0  0  0  0  0  0  0  0  0  0
   -0.8937    1.3410    0.0000 H   0  0  0  0  0  0  0  0  0  0  0  0
    1.5260    2.5310    0.0000 H   0  0  0  0  0  0  0  0  0  0  0  0
  1  2  1  0  0  0  0
  1 12  1  0  0  0  0
  1 13  1  0  0  0  0
  1 14  1  0  0  0  0
  2  3  1  0  0  0  0
  3  4  2  0  0  0  0
  3 10  1  0  0  0  0
  4  5  1  0  0  0  0
  4 15  1  0  0  0  0
  5  6  1  0  0  0  0
  5  8  2  0  0  0  0
  6  7  1  0  0  0  0
  7 16  1  0  0  0  0
  8  9  1  0  0  0  0
  8 17  1  0  0  0  0
  9 10  2  0  0  0  0
  9 18  1  0  0  0  0
 10 11  1  0  0  0  0
 11 19  1  0  0  0  0
M  END
>  <DRUGBANK_ID>
DB03764

>  <SECONDARY_ACCESSION_NUMBERS>
EXPT00216

>  <COMMON_NAME>
4-Hydroperoxy-2-Methoxy-Phenol

$$$$
