
 OpenBabel10282417072D

 30 32  0  0  0  0  0  0  0  0999 V2000
   -1.5618    1.7589    0.0000 N   0  0  0  0  0  0  0  0  0  0  0  0
   -1.5618    0.9401    0.0000 C   0  0  0  0  0  0  0  0  0  0  0  0
   -0.8339    0.5156    0.0000 N   0  0  0  0  0  0  0  0  0  0  0  0
   -0.1061    0.9401    0.0000 C   0  0  0  0  0  0  0  0  0  0  0  0
   -0.1061    1.7589    0.0000 C   0  0  0  0  0  0  0  0  0  0  0  0
   -0.8339    2.1836    0.0000 C   0  0  0  0  0  0  0  0  0  0  0  0
    0.6824    2.0319    0.0000 N   0  0  0  0  0  0  0  0  0  0  0  0
    1.1675    1.3344    0.0000 C   0  0  0  0  0  0  0  0  0  0  0  0
    0.6824    0.6672    0.0000 N   0  0  0  0  0  0  0  0  0  0  0  0
    1.0767   -1.6074    0.0000 C   0  0  1  0  0  0  0  0  0  0  0  0
    1.3495   -0.8188    0.0000 C   0  0  0  0  0  0  0  0  0  0  0  0
    0.6824   -0.3336    0.0000 C   0  0  1  0  0  0  0  0  0  0  0  0
    0.0152   -0.8188    0.0000 O   0  0  0  0  0  0  0  0  0  0  0  0
    0.2578   -1.6074    0.0000 C   0  0  2  0  0  0  0  0  0  0  0  0
   -0.3184   -2.1532    0.0000 C   0  0  0  0  0  0  0  0  0  0  0  0
   -0.0454   -3.0327    0.0000 O   0  0  0  0  0  0  0  0  0  0  0  0
    1.5618   -2.3049    0.0000 O   0  0  0  0  0  0  0  0  0  0  0  0
   -0.8339    3.0327    0.0000 O   0  0  0  0  0  0  0  0  0  0  0  0
   -2.4155    2.2492    0.0000 H   0  0  0  0  0  0  0  0  0  0  0  0
   -2.4567    0.4261    0.0000 H   0  0  0  0  0  0  0  0  0  0  0  0
    2.1994    1.3236    0.0000 H   0  0  0  0  0  0  0  0  0  0  0  0
    2.1366   -1.4609    0.0000 H   0  0  0  0  0  0  0  0  0  0  0  0
    2.3703   -0.4980    0.0000 H   0  0  0  0  0  0  0  0  0  0  0  0
    1.5223    0.2372    0.0000 H   0  0  0  0  0  0  0  0  0  0  0  0
    1.6359    0.1519    0.0000 H   0  0  0  0  0  0  0  0  0  0  0  0
    0.6538   -2.6014    0.0000 H   0  0  0  0  0  0  0  0  0  0  0  0
   -1.3536   -1.8825    0.0000 H   0  0  0  0  0  0  0  0  0  0  0  0
   -1.0577   -2.9267    0.0000 H   0  0  0  0  0  0  0  0  0  0  0  0
   -0.7039   -3.7449    0.0000 H   0  0  0  0  0  0  0  0  0  0  0  0
    1.1491   -3.1827    0.0000 H   0  0  0  0  0  0  0  0  0  0  0  0
  1 19  1  0  0  0  0
  2  1  1  0  0  0  0
  2 20  1  0  0  0  0
  3  2  2  0  0  0  0
  4  3  1  0  0  0  0
  4  5  2  0  0  0  0
  5  6  1  0  0  0  0
  6  1  1  0  0  0  0
  7  5  1  0  0  0  0
  7  8  2  0  0  0  0
  8  9  1  0  0  0  0
  8 21  1  0  0  0  0
  9  4  1  0  0  0  0
 10 17  1  0  0  0  0
 10 22  1  1  0  0  0
 11 10  1  0  0  0  0
 11 23  1  0  0  0  0
 11 24  1  0  0  0  0
 12  9  1  0  0  0  0
 12 11  1  0  0  0  0
 12 25  1  6  0  0  0
 13 12  1  0  0  0  0
 14 10  1  0  0  0  0
 14 13  1  0  0  0  0
 14 15  1  0  0  0  0
 14 26  1  6  0  0  0
 15 27  1  0  0  0  0
 15 28  1  0  0  0  0
 16 15  1  0  0  0  0
 16 29  1  0  0  0  0
 17 30  1  0  0  0  0
 18  6  2  0  0  0  0
M  END
>  <DRUGBANK_ID>
DB02380

>  <SECONDARY_ACCESSION_NUMBERS>
EXPT00134

>  <COMMON_NAME>
Deoxyinosine

>  <CAS_NUMBER>
890-38-0

>  <UNII>
HN0RQ6SBWQ

>  <SYNONYMS>
2'-deoxyinosine; 9-(2-deoxy-Î²-D-erythro-pentofuranosyl)-9H-purin-6-ol; Deoxyinosine

$$$$
