4SP
 OpenBabel10282417072D

 50 53  0  0  0  0  0  0  0  0999 V2000
    1.0102    0.7536    0.0000 C   0  0  0  0  0  0  0  0  0  0  0  0
   -1.6883    0.3411    0.0000 C   0  0  0  0  0  0  0  0  0  0  0  0
   -0.4187   -1.7214    0.0000 C   0  0  0  0  0  0  0  0  0  0  0  0
   -0.4187   -2.5464    0.0000 C   0  0  0  0  0  0  0  0  0  0  0  0
    0.2958   -2.9589    0.0000 C   0  0  0  0  0  0  0  0  0  0  0  0
    0.2958   -3.7839    0.0000 C   0  0  0  0  0  0  0  0  0  0  0  0
   -0.4187   -4.1964    0.0000 C   0  0  0  0  0  0  0  0  0  0  0  0
   -1.1332   -3.7839    0.0000 C   0  0  0  0  0  0  0  0  0  0  0  0
   -1.1332   -2.9589    0.0000 C   0  0  0  0  0  0  0  0  0  0  0  0
    1.0102    3.2286    0.0000 C   0  0  0  0  0  0  0  0  0  0  0  0
    1.7247    3.6411    0.0000 C   0  0  0  0  0  0  0  0  0  0  0  0
    2.4392    3.2286    0.0000 C   0  0  0  0  0  0  0  0  0  0  0  0
    2.4392    2.4036    0.0000 C   0  0  0  0  0  0  0  0  0  0  0  0
    1.7247    5.2911    0.0000 N   0  0  0  0  0  0  0  0  0  0  0  0
    1.0102   -0.0714    0.0000 N   0  0  0  0  0  0  0  0  0  0  0  0
    0.2958   -0.4839    0.0000 C   0  0  0  0  0  0  0  0  0  0  0  0
    0.2958   -1.3089    0.0000 O   0  0  0  0  0  0  0  0  0  0  0  0
   -0.4187   -0.0714    0.0000 C   0  0  0  0  0  0  0  0  0  0  0  0
   -1.2033   -0.3264    0.0000 N   0  0  0  0  0  0  0  0  0  0  0  0
   -1.2033    1.0085    0.0000 N   0  0  0  0  0  0  0  0  0  0  0  0
   -0.4187    0.7536    0.0000 C   0  0  0  0  0  0  0  0  0  0  0  0
    0.2958    1.1661    0.0000 N   0  0  0  0  0  0  0  0  0  0  0  0
    1.7247    1.1661    0.0000 N   0  0  0  0  0  0  0  0  0  0  0  0
    1.7247    1.9911    0.0000 C   0  0  0  0  0  0  0  0  0  0  0  0
    1.0102    2.4036    0.0000 C   0  0  0  0  0  0  0  0  0  0  0  0
    1.7247    4.4661    0.0000 S   0  0  0  0  0  0  0  0  0  0  0  0
    2.5497    4.4661    0.0000 O   0  0  0  0  0  0  0  0  0  0  0  0
    0.8997    4.4661    0.0000 O   0  0  0  0  0  0  0  0  0  0  0  0
   -2.7203    0.3411    0.0000 H   0  0  0  0  0  0  0  0  0  0  0  0
   -1.3453   -1.1864    0.0000 H   0  0  0  0  0  0  0  0  0  0  0  0
   -0.4187   -0.6514    0.0000 H   0  0  0  0  0  0  0  0  0  0  0  0
   -0.4187   -3.6164    0.0000 H   0  0  0  0  0  0  0  0  0  0  0  0
    1.2224   -2.4239    0.0000 H   0  0  0  0  0  0  0  0  0  0  0  0
    1.2224   -3.4939    0.0000 H   0  0  0  0  0  0  0  0  0  0  0  0
    1.2224   -4.3189    0.0000 H   0  0  0  0  0  0  0  0  0  0  0  0
    0.2958   -4.8539    0.0000 H   0  0  0  0  0  0  0  0  0  0  0  0
   -0.4187   -5.2664    0.0000 H   0  0  0  0  0  0  0  0  0  0  0  0
   -1.3453   -4.7314    0.0000 H   0  0  0  0  0  0  0  0  0  0  0  0
   -2.0598   -4.3189    0.0000 H   0  0  0  0  0  0  0  0  0  0  0  0
   -2.0598   -3.2489    0.0000 H   0  0  0  0  0  0  0  0  0  0  0  0
   -2.0598   -2.4239    0.0000 H   0  0  0  0  0  0  0  0  0  0  0  0
   -2.0598   -3.4939    0.0000 H   0  0  0  0  0  0  0  0  0  0  0  0
    0.1165    3.7446    0.0000 H   0  0  0  0  0  0  0  0  0  0  0  0
    3.3329    3.7446    0.0000 H   0  0  0  0  0  0  0  0  0  0  0  0
    3.3329    1.8876    0.0000 H   0  0  0  0  0  0  0  0  0  0  0  0
    2.6080    5.8011    0.0000 H   0  0  0  0  0  0  0  0  0  0  0  0
    0.8414    5.8011    0.0000 H   0  0  0  0  0  0  0  0  0  0  0  0
   -1.5075    1.9448    0.0000 H   0  0  0  0  0  0  0  0  0  0  0  0
    2.5773    0.6738    0.0000 H   0  0  0  0  0  0  0  0  0  0  0  0
    0.1165    1.8876    0.0000 H   0  0  0  0  0  0  0  0  0  0  0  0
  1 15  2  0  0  0  0
  1 22  1  0  0  0  0
  1 23  1  0  0  0  0
  2 19  2  0  0  0  0
  2 20  1  0  0  0  0
  2 29  1  0  0  0  0
  3  4  1  0  0  0  0
  3 17  1  0  0  0  0
  3 30  1  0  0  0  0
  3 31  1  0  0  0  0
  4  5  1  0  0  0  0
  4  9  1  0  0  0  0
  4 32  1  0  0  0  0
  5  6  1  0  0  0  0
  5 33  1  0  0  0  0
  5 34  1  0  0  0  0
  6  7  1  0  0  0  0
  6 35  1  0  0  0  0
  6 36  1  0  0  0  0
  7  8  1  0  0  0  0
  7 37  1  0  0  0  0
  7 38  1  0  0  0  0
  8  9  1  0  0  0  0
  8 39  1  0  0  0  0
  8 40  1  0  0  0  0
  9 41  1  0  0  0  0
  9 42  1  0  0  0  0
 10 11  2  0  0  0  0
 10 25  1  0  0  0  0
 10 43  1  0  0  0  0
 11 12  1  0  0  0  0
 11 26  1  0  0  0  0
 12 13  2  0  0  0  0
 12 44  1  0  0  0  0
 13 24  1  0  0  0  0
 13 45  1  0  0  0  0
 14 26  1  0  0  0  0
 14 46  1  0  0  0  0
 14 47  1  0  0  0  0
 15 16  1  0  0  0  0
 16 17  1  0  0  0  0
 16 18  2  0  0  0  0
 18 19  1  0  0  0  0
 18 21  1  0  0  0  0
 20 21  1  0  0  0  0
 20 48  1  0  0  0  0
 21 22  2  0  0  0  0
 23 24  1  0  0  0  0
 23 49  1  0  0  0  0
 24 25  2  0  0  0  0
 25 50  1  0  0  0  0
 26 27  2  0  0  0  0
 26 28  2  0  0  0  0
M  END
>  <DRUGBANK_ID>
DB07126

>  <COMMON_NAME>
O6-CYCLOHEXYLMETHOXY-2-(4'-SULPHAMOYLANILINO) PURINE

>  <UNII>
X5J53DR704

$$$$
