
 OpenBabel10282417072D

 24 23  0  0  0  0  0  0  0  0999 V2000
   -0.0015   -0.2065    0.0000 C   0  0  0  0  0  0  0  0  0  0  0  0
    0.7128    0.2059    0.0000 C   0  0  0  0  0  0  0  0  0  0  0  0
   -0.7160    0.2059    0.0000 O   0  0  0  0  0  0  0  0  0  0  0  0
   -1.4305   -0.2065    0.0000 N   0  0  0  0  0  0  0  0  0  0  0  0
   -2.1449    0.2059    0.0000 C   0  0  0  0  0  0  0  0  0  0  0  0
   -2.8594   -0.2065    0.0000 N   0  0  0  0  0  0  0  0  0  0  0  0
   -2.1449    1.0309    0.0000 N   0  0  0  0  0  0  0  0  0  0  0  0
    1.4273   -0.2065    0.0000 C   0  0  1  0  0  0  0  0  0  0  0  0
    2.1418    0.2059    0.0000 C   0  0  0  0  0  0  0  0  0  0  0  0
    1.4273   -1.0315    0.0000 N   0  0  0  0  0  0  0  0  0  0  0  0
    2.8595   -0.2059    0.0000 O   0  0  0  0  0  0  0  0  0  0  0  0
    2.1451    1.0315    0.0000 O   0  0  0  0  0  0  0  0  0  0  0  0
   -0.0014   -1.2765    0.0000 H   0  0  0  0  0  0  0  0  0  0  0  0
   -0.9281   -0.7416    0.0000 H   0  0  0  0  0  0  0  0  0  0  0  0
    0.7127    1.2759    0.0000 H   0  0  0  0  0  0  0  0  0  0  0  0
    1.6394    0.7410    0.0000 H   0  0  0  0  0  0  0  0  0  0  0  0
   -1.4305   -1.1910    0.0000 H   0  0  0  0  0  0  0  0  0  0  0  0
   -3.7119    0.2859    0.0000 H   0  0  0  0  0  0  0  0  0  0  0  0
   -2.8595   -1.1910    0.0000 H   0  0  0  0  0  0  0  0  0  0  0  0
   -1.2923    1.5232    0.0000 H   0  0  0  0  0  0  0  0  0  0  0  0
    0.5007   -0.7416    0.0000 H   0  0  0  0  0  0  0  0  0  0  0  0
    0.5440   -1.5415    0.0000 H   0  0  0  0  0  0  0  0  0  0  0  0
    2.3106   -1.5415    0.0000 H   0  0  0  0  0  0  0  0  0  0  0  0
    2.8620   -1.1429    0.0000 H   0  0  0  0  0  0  0  0  0  0  0  0
  1  2  1  0  0  0  0
  1  3  1  0  0  0  0
  1 13  1  0  0  0  0
  1 14  1  0  0  0  0
  2  8  1  0  0  0  0
  2 15  1  0  0  0  0
  2 16  1  0  0  0  0
  3  4  1  0  0  0  0
  4  5  1  0  0  0  0
  4 17  1  0  0  0  0
  5  7  2  0  0  0  0
  5  6  1  0  0  0  0
  6 18  1  0  0  0  0
  6 19  1  0  0  0  0
  7 20  1  0  0  0  0
  8  9  1  0  0  0  0
  8 10  1  0  0  0  0
  8 21  1  6  0  0  0
  9 11  1  0  0  0  0
  9 12  2  0  0  0  0
 10 22  1  0  0  0  0
 10 23  1  0  0  0  0
 11 24  1  0  0  0  0
M  END
>  <DRUGBANK_ID>
DB01833

>  <SECONDARY_ACCESSION_NUMBERS>
EXPT01587

>  <COMMON_NAME>
Canavanine

>  <CAS_NUMBER>
543-38-4

>  <UNII>
3HZV514J4B

>  <SYNONYMS>
(L)-Canavanine; 2-Amino-4-(guanidinooxy)butyric acid; Canavanin; L-Canavanine; O-((Aminoiminomethyl)amino)-L-homoserine

$$$$
