
 OpenBabel10282417072D

 72 71  0  0  1  0  0  0  0  0999 V2000
   -2.8579   -1.1962    0.0000 N   0  0  0  0  0  0  0  0  0  0  0  0
   -2.8579   -0.3712    0.0000 C   0  0  1  0  0  0  0  0  0  0  0  0
   -2.1434    0.0413    0.0000 C   0  0  0  0  0  0  0  0  0  0  0  0
   -1.4289   -0.3712    0.0000 C   0  0  0  0  0  0  0  0  0  0  0  0
   -0.7145    0.0413    0.0000 C   0  0  0  0  0  0  0  0  0  0  0  0
   -0.7145    0.8663    0.0000 O   0  0  0  0  0  0  0  0  0  0  0  0
    0.0000   -0.3712    0.0000 N   0  0  0  0  0  0  0  0  0  0  0  0
    0.7145    0.0413    0.0000 C   0  0  1  0  0  0  0  0  0  0  0  0
    0.7145    0.8663    0.0000 C   0  0  0  0  0  0  0  0  0  0  0  0
    1.4289   -0.3713    0.0000 C   0  0  0  0  0  0  0  0  0  0  0  0
    1.4289   -1.1963    0.0000 O   0  0  0  0  0  0  0  0  0  0  0  0
    2.1434    0.0412    0.0000 N   0  0  0  0  0  0  0  0  0  0  0  0
    2.8579   -0.3713    0.0000 C   0  0  0  0  0  0  0  0  0  0  0  0
    3.5724    0.0412    0.0000 C   0  0  0  0  0  0  0  0  0  0  0  0
    3.5724    0.8662    0.0000 O   0  0  0  0  0  0  0  0  0  0  0  0
    4.2868   -0.3713    0.0000 O   0  0  0  0  0  0  0  0  0  0  0  0
   -3.5724    0.0412    0.0000 C   0  0  0  0  0  0  0  0  0  0  0  0
   -3.5724    0.8663    0.0000 O   0  0  0  0  0  0  0  0  0  0  0  0
   -4.2868   -0.3713    0.0000 O   0  0  0  0  0  0  0  0  0  0  0  0
    5.7157    4.5788    0.0000 N   0  0  0  0  0  0  0  0  0  0  0  0
    5.7157    3.7538    0.0000 C   0  0  1  0  0  0  0  0  0  0  0  0
    5.0012    3.3413    0.0000 C   0  0  0  0  0  0  0  0  0  0  0  0
    4.2867    3.7538    0.0000 C   0  0  0  0  0  0  0  0  0  0  0  0
    3.5723    3.3413    0.0000 C   0  0  0  0  0  0  0  0  0  0  0  0
    3.5723    2.5163    0.0000 O   0  0  0  0  0  0  0  0  0  0  0  0
    2.8578    3.7538    0.0000 N   0  0  0  0  0  0  0  0  0  0  0  0
    2.1433    3.3413    0.0000 C   0  0  1  0  0  0  0  0  0  0  0  0
    2.1433    2.5163    0.0000 C   0  0  0  0  0  0  0  0  0  0  0  0
    1.4289    2.1038    0.0000 S   0  0  0  0  0  0  0  0  0  0  0  0
    1.4289    3.7539    0.0000 C   0  0  0  0  0  0  0  0  0  0  0  0
    1.4289    4.5789    0.0000 O   0  0  0  0  0  0  0  0  0  0  0  0
    0.7144    3.3414    0.0000 N   0  0  0  0  0  0  0  0  0  0  0  0
   -0.0001    3.7539    0.0000 C   0  0  0  0  0  0  0  0  0  0  0  0
   -0.7146    3.3414    0.0000 C   0  0  0  0  0  0  0  0  0  0  0  0
   -0.7146    2.5164    0.0000 O   0  0  0  0  0  0  0  0  0  0  0  0
   -1.4290    3.7539    0.0000 O   0  0  0  0  0  0  0  0  0  0  0  0
    6.4302    3.3414    0.0000 C   0  0  0  0  0  0  0  0  0  0  0  0
    6.4302    2.5163    0.0000 O   0  0  0  0  0  0  0  0  0  0  0  0
    7.1446    3.7539    0.0000 O   0  0  0  0  0  0  0  0  0  0  0  0
    1.4289    1.2788    0.0000 S   0  0  0  0  0  0  0  0  0  0  0  0
   -3.7412   -1.7062    0.0000 H   0  0  0  0  0  0  0  0  0  0  0  0
   -1.9746   -1.7062    0.0000 H   0  0  0  0  0  0  0  0  0  0  0  0
   -1.9313   -0.9062    0.0000 H   0  0  0  0  0  0  0  0  0  0  0  0
   -2.1434    1.1113    0.0000 H   0  0  0  0  0  0  0  0  0  0  0  0
   -1.2168    0.5763    0.0000 H   0  0  0  0  0  0  0  0  0  0  0  0
   -1.4289   -1.4412    0.0000 H   0  0  0  0  0  0  0  0  0  0  0  0
   -0.5022   -0.9062    0.0000 H   0  0  0  0  0  0  0  0  0  0  0  0
    0.0000   -1.3557    0.0000 H   0  0  0  0  0  0  0  0  0  0  0  0
   -0.2121    0.5763    0.0000 H   0  0  0  0  0  0  0  0  0  0  0  0
   -0.2122    1.4013    0.0000 H   0  0  0  0  0  0  0  0  0  0  0  0
    0.7145    1.9363    0.0000 H   0  0  0  0  0  0  0  0  0  0  0  0
    2.1434    1.0257    0.0000 H   0  0  0  0  0  0  0  0  0  0  0  0
    2.8579   -1.4413    0.0000 H   0  0  0  0  0  0  0  0  0  0  0  0
    3.7845   -0.9063    0.0000 H   0  0  0  0  0  0  0  0  0  0  0  0
    4.2868   -1.3083    0.0000 H   0  0  0  0  0  0  0  0  0  0  0  0
   -5.0983    0.0972    0.0000 H   0  0  0  0  0  0  0  0  0  0  0  0
    6.5990    5.0888    0.0000 H   0  0  0  0  0  0  0  0  0  0  0  0
    4.8324    5.0888    0.0000 H   0  0  0  0  0  0  0  0  0  0  0  0
    4.7891    4.2888    0.0000 H   0  0  0  0  0  0  0  0  0  0  0  0
    5.0012    2.2713    0.0000 H   0  0  0  0  0  0  0  0  0  0  0  0
    4.0746    2.8063    0.0000 H   0  0  0  0  0  0  0  0  0  0  0  0
    4.2867    4.8238    0.0000 H   0  0  0  0  0  0  0  0  0  0  0  0
    3.3600    4.2888    0.0000 H   0  0  0  0  0  0  0  0  0  0  0  0
    2.8578    4.7383    0.0000 H   0  0  0  0  0  0  0  0  0  0  0  0
    3.0699    2.8063    0.0000 H   0  0  0  0  0  0  0  0  0  0  0  0
    3.0700    1.9813    0.0000 H   0  0  0  0  0  0  0  0  0  0  0  0
    2.1433    1.4463    0.0000 H   0  0  0  0  0  0  0  0  0  0  0  0
    0.7144    2.3569    0.0000 H   0  0  0  0  0  0  0  0  0  0  0  0
   -0.0001    4.8239    0.0000 H   0  0  0  0  0  0  0  0  0  0  0  0
   -0.9267    4.2889    0.0000 H   0  0  0  0  0  0  0  0  0  0  0  0
   -1.4290    4.6909    0.0000 H   0  0  0  0  0  0  0  0  0  0  0  0
    7.9561    3.2854    0.0000 H   0  0  0  0  0  0  0  0  0  0  0  0
  1 41  1  0  0  0  0
  1 42  1  0  0  0  0
  2  1  1  0  0  0  0
  2  3  1  0  0  0  0
  2 17  1  0  0  0  0
  2 43  1  1  0  0  0
  3  4  1  0  0  0  0
  3 44  1  0  0  0  0
  3 45  1  0  0  0  0
  4  5  1  0  0  0  0
  4 46  1  0  0  0  0
  4 47  1  0  0  0  0
  5  6  2  0  0  0  0
  5  7  1  0  0  0  0
  7  8  1  0  0  0  0
  7 48  1  0  0  0  0
  8  9  1  0  0  0  0
  8 10  1  0  0  0  0
  8 49  1  6  0  0  0
  9 40  1  0  0  0  0
  9 50  1  0  0  0  0
  9 51  1  0  0  0  0
 10 11  2  0  0  0  0
 10 12  1  0  0  0  0
 12 13  1  0  0  0  0
 12 52  1  0  0  0  0
 13 14  1  0  0  0  0
 13 53  1  0  0  0  0
 13 54  1  0  0  0  0
 14 15  2  0  0  0  0
 14 16  1  0  0  0  0
 16 55  1  0  0  0  0
 17 18  2  0  0  0  0
 17 19  1  0  0  0  0
 19 56  1  0  0  0  0
 20 57  1  0  0  0  0
 20 58  1  0  0  0  0
 21 20  1  0  0  0  0
 21 22  1  0  0  0  0
 21 37  1  0  0  0  0
 21 59  1  1  0  0  0
 22 23  1  0  0  0  0
 22 60  1  0  0  0  0
 22 61  1  0  0  0  0
 23 24  1  0  0  0  0
 23 62  1  0  0  0  0
 23 63  1  0  0  0  0
 24 25  2  0  0  0  0
 24 26  1  0  0  0  0
 26 27  1  0  0  0  0
 26 64  1  0  0  0  0
 27 28  1  0  0  0  0
 27 30  1  0  0  0  0
 27 65  1  6  0  0  0
 28 29  1  0  0  0  0
 28 66  1  0  0  0  0
 28 67  1  0  0  0  0
 30 31  2  0  0  0  0
 30 32  1  0  0  0  0
 32 33  1  0  0  0  0
 32 68  1  0  0  0  0
 33 34  1  0  0  0  0
 33 69  1  0  0  0  0
 33 70  1  0  0  0  0
 34 35  2  0  0  0  0
 34 36  1  0  0  0  0
 36 71  1  0  0  0  0
 37 38  2  0  0  0  0
 37 39  1  0  0  0  0
 39 72  1  0  0  0  0
 40 29  1  0  0  0  0
M  END
>  <DRUGBANK_ID>
DB03310

>  <SECONDARY_ACCESSION_NUMBERS>
EXPT01575; DB09544

>  <COMMON_NAME>
Glutathione disulfide

>  <CAS_NUMBER>
27025-41-8

>  <UNII>
ULW86O013H

>  <SYNONYMS>
Glutathione disulphide; GSSG; Oxidized glutathione; Oxiglutatione

$$$$
