
 OpenBabel10282417072D

 55 54  0  0  1  0  0  0  0  0999 V2000
    6.7618    3.0789    0.0000 C   0  0  0  0  0  0  0  0  0  0  0  0
    6.7618    3.9039    0.0000 C   0  0  0  0  0  0  0  0  0  0  0  0
    6.0474    4.3164    0.0000 C   0  0  2  0  0  0  0  0  0  0  0  0
    6.0474    5.1414    0.0000 C   0  0  0  0  0  0  0  0  0  0  0  0
    5.3329    5.5539    0.0000 C   0  0  0  0  0  0  0  0  0  0  0  0
    5.3329    6.3789    0.0000 C   0  0  0  0  0  0  0  0  0  0  0  0
    4.6184    6.7914    0.0000 C   0  0  0  0  0  0  0  0  0  0  0  0
    3.9039    6.3789    0.0000 C   0  0  0  0  0  0  0  0  0  0  0  0
    3.9039    5.5539    0.0000 C   0  0  2  0  0  0  0  0  0  0  0  0
    3.1895    5.1414    0.0000 C   0  0  0  0  0  0  0  0  0  0  0  0
    3.1895    4.3164    0.0000 C   0  0  0  0  0  0  0  0  0  0  0  0
    2.4750    3.9039    0.0000 C   0  0  0  0  0  0  0  0  0  0  0  0
    2.4750    3.0789    0.0000 C   0  0  0  0  0  0  0  0  0  0  0  0
    1.7605    2.6664    0.0000 C   0  0  0  0  0  0  0  0  0  0  0  0
    1.7605    1.8414    0.0000 C   0  0  0  0  0  0  0  0  0  0  0  0
    2.4750    1.4289    0.0000 C   0  0  2  0  0  0  0  0  0  0  0  0
    3.1895    1.8414    0.0000 C   0  0  0  0  0  0  0  0  0  0  0  0
    3.9039    1.4289    0.0000 C   0  0  0  0  0  0  0  0  0  0  0  0
    4.6184    1.8414    0.0000 C   0  0  0  0  0  0  0  0  0  0  0  0
    5.3329    1.4289    0.0000 C   0  0  0  0  0  0  0  0  0  0  0  0
    6.0474    1.8414    0.0000 O   0  0  0  0  0  0  0  0  0  0  0  0
    5.3329    0.6039    0.0000 O   0  0  0  0  0  0  0  0  0  0  0  0
    2.4750    0.6039    0.0000 O   0  0  0  0  0  0  0  0  0  0  0  0
    4.6184    5.1414    0.0000 O   0  0  0  0  0  0  0  0  0  0  0  0
    5.3329    3.9039    0.0000 O   0  0  0  0  0  0  0  0  0  0  0  0
    5.8352    2.5439    0.0000 H   0  0  0  0  0  0  0  0  0  0  0  0
    7.6884    2.5439    0.0000 H   0  0  0  0  0  0  0  0  0  0  0  0
    6.7618    2.0089    0.0000 H   0  0  0  0  0  0  0  0  0  0  0  0
    7.6885    4.4389    0.0000 H   0  0  0  0  0  0  0  0  0  0  0  0
    6.7618    4.9739    0.0000 H   0  0  0  0  0  0  0  0  0  0  0  0
    6.0474    3.2464    0.0000 H   0  0  0  0  0  0  0  0  0  0  0  0
    6.9411    5.6574    0.0000 H   0  0  0  0  0  0  0  0  0  0  0  0
    4.4392    5.0379    0.0000 H   0  0  0  0  0  0  0  0  0  0  0  0
    6.2266    6.8949    0.0000 H   0  0  0  0  0  0  0  0  0  0  0  0
    4.6184    7.8234    0.0000 H   0  0  0  0  0  0  0  0  0  0  0  0
    2.9773    6.9139    0.0000 H   0  0  0  0  0  0  0  0  0  0  0  0
    2.9773    5.8439    0.0000 H   0  0  0  0  0  0  0  0  0  0  0  0
    4.8305    6.0889    0.0000 H   0  0  0  0  0  0  0  0  0  0  0  0
    2.2958    5.6574    0.0000 H   0  0  0  0  0  0  0  0  0  0  0  0
    4.0832    3.8004    0.0000 H   0  0  0  0  0  0  0  0  0  0  0  0
    1.5813    4.4199    0.0000 H   0  0  0  0  0  0  0  0  0  0  0  0
    3.3687    2.5629    0.0000 H   0  0  0  0  0  0  0  0  0  0  0  0
    0.8668    3.1824    0.0000 H   0  0  0  0  0  0  0  0  0  0  0  0
    0.8668    1.3254    0.0000 H   0  0  0  0  0  0  0  0  0  0  0  0
    1.5484    0.8939    0.0000 H   0  0  0  0  0  0  0  0  0  0  0  0
    3.1895    2.9114    0.0000 H   0  0  0  0  0  0  0  0  0  0  0  0
    4.1162    2.3764    0.0000 H   0  0  0  0  0  0  0  0  0  0  0  0
    3.9039    0.3589    0.0000 H   0  0  0  0  0  0  0  0  0  0  0  0
    4.8305    0.8939    0.0000 H   0  0  0  0  0  0  0  0  0  0  0  0
    4.6184    2.9114    0.0000 H   0  0  0  0  0  0  0  0  0  0  0  0
    5.5450    2.3764    0.0000 H   0  0  0  0  0  0  0  0  0  0  0  0
    4.5214    0.1354    0.0000 H   0  0  0  0  0  0  0  0  0  0  0  0
    1.6350    0.1189    0.0000 H   0  0  0  0  0  0  0  0  0  0  0  0
    4.6184    4.1714    0.0000 H   0  0  0  0  0  0  0  0  0  0  0  0
    4.4929    4.3889    0.0000 H   0  0  0  0  0  0  0  0  0  0  0  0
  1  2  1  0  0  0  0
  1 26  1  0  0  0  0
  1 27  1  0  0  0  0
  1 28  1  0  0  0  0
  2  3  1  0  0  0  0
  2 29  1  0  0  0  0
  2 30  1  0  0  0  0
  3  4  1  0  0  0  0
  3 25  1  0  0  0  0
  3 31  1  6  0  0  0
  4  5  2  0  0  0  0
  4 32  1  0  0  0  0
  5  6  1  0  0  0  0
  5 33  1  0  0  0  0
  6  7  2  0  0  0  0
  6 34  1  0  0  0  0
  7  8  1  0  0  0  0
  7 35  1  0  0  0  0
  8  9  1  0  0  0  0
  8 36  1  0  0  0  0
  8 37  1  0  0  0  0
  9 10  1  0  0  0  0
  9 24  1  0  0  0  0
  9 38  1  6  0  0  0
 10 11  2  0  0  0  0
 10 39  1  0  0  0  0
 11 12  1  0  0  0  0
 11 40  1  0  0  0  0
 12 13  2  0  0  0  0
 12 41  1  0  0  0  0
 13 14  1  0  0  0  0
 13 42  1  0  0  0  0
 14 15  2  0  0  0  0
 14 43  1  0  0  0  0
 15 16  1  0  0  0  0
 15 44  1  0  0  0  0
 16 17  1  0  0  0  0
 16 23  1  0  0  0  0
 16 45  1  1  0  0  0
 17 18  1  0  0  0  0
 17 46  1  0  0  0  0
 17 47  1  0  0  0  0
 18 19  1  0  0  0  0
 18 48  1  0  0  0  0
 18 49  1  0  0  0  0
 19 20  1  0  0  0  0
 19 50  1  0  0  0  0
 19 51  1  0  0  0  0
 20 21  2  0  0  0  0
 20 22  1  0  0  0  0
 22 52  1  0  0  0  0
 23 53  1  0  0  0  0
 24 54  1  0  0  0  0
 25 55  1  0  0  0  0
M  END
>  <DRUGBANK_ID>
DB13105

>  <COMMON_NAME>
Resolvin E1

>  <CAS_NUMBER>
552830-51-0

>  <UNII>
GND3JH08JA

>  <SYNONYMS>
(5S,6Z,8E,10E,12R,14Z,16E,18R)-5,12,18-TRIHYDROXY-6,8,10,14,16-EICOSAPENTAENOIC ACID; 5S,12R,18R-TRIHYDROXY-6Z,8E,10E,14Z,16E-EICOSAPENTAENOIC ACID; 6,8,10,14,16-EICOSAPENTAENOIC ACID, 5,12,18-TRIHYDROXY-, (5S,6Z,8E,10E,12R,14Z,16E,18R)-; RVE1

$$$$
