
 OpenBabel10282417072D

123129  0  0  1  0  0  0  0  0999 V2000
   -1.0005   -0.1579    0.0000 C   0  0  0  0  0  0  0  0  0  0  0  0
   -0.2905    0.2621    0.0000 C   0  0  0  0  0  0  0  0  0  0  0  0
    0.4580   -0.2059    0.0000 C   0  0  0  0  0  0  0  0  0  0  0  0
    1.0196   -0.8801    0.0000 C   0  0  2  0  0  0  0  0  0  0  0  0
    1.8310   -1.0295    0.0000 C   0  0  2  0  0  0  0  0  0  0  0  0
    2.5371   -0.5373    0.0000 C   0  0  2  0  0  0  0  0  0  0  0  0
    3.2006   -1.0276    0.0000 C   0  0  0  0  0  0  0  0  0  0  0  0
    3.9570   -0.6982    0.0000 C   0  0  0  0  0  0  0  0  0  0  0  0
    4.0498    0.1216    0.0000 C   0  0  2  0  0  0  0  0  0  0  0  0
    3.3864    0.6119    0.0000 C   0  0  2  0  0  0  0  0  0  0  0  0
    2.6300    0.2825    0.0000 C   0  0  1  0  0  0  0  0  0  0  0  0
    2.0708    0.9469    0.0000 C   0  0  1  0  0  0  0  0  0  0  0  0
    1.2057    1.0937    0.0000 C   0  0  1  0  0  0  0  0  0  0  0  0
    0.8765    0.4182    0.0000 C   0  0  0  0  0  0  0  0  0  0  0  0
    1.6935    0.3034    0.0000 C   0  0  0  0  0  0  0  0  0  0  0  0
    1.3864   -0.2305    0.0000 C   0  0  0  0  0  0  0  0  0  0  0  0
    0.4250    1.5055    0.0000 C   0  0  0  0  0  0  0  0  0  0  0  0
   -0.3386    1.1173    0.0000 C   0  0  2  0  0  0  0  0  0  0  0  0
   -1.0537    1.5288    0.0000 O   0  0  0  0  0  0  0  0  0  0  0  0
   -1.7675    1.1152    0.0000 C   0  0  0  0  0  0  0  0  0  0  0  0
   -1.7663    0.2902    0.0000 O   0  0  0  0  0  0  0  0  0  0  0  0
   -2.4826    1.5267    0.0000 C   0  0  1  0  0  0  0  0  0  0  0  0
   -3.1965    1.1131    0.0000 C   0  0  2  0  0  0  0  0  0  0  0  0
   -3.1953    0.2881    0.0000 C   0  0  0  0  0  0  0  0  0  0  0  0
   -3.9091   -0.1254    0.0000 C   0  0  0  0  0  0  0  0  0  0  0  0
   -3.9079   -0.9504    0.0000 C   0  0  0  0  0  0  0  0  0  0  0  0
   -3.1928   -1.3619    0.0000 C   0  0  0  0  0  0  0  0  0  0  0  0
   -2.4790   -0.9483    0.0000 C   0  0  0  0  0  0  0  0  0  0  0  0
   -2.4802   -0.1233    0.0000 N   0  0  0  0  0  0  0  0  0  0  0  0
   -4.6242    0.2860    0.0000 F   0  0  0  0  0  0  0  0  0  0  0  0
   -3.9115    1.5246    0.0000 N   0  0  0  0  0  0  0  0  0  0  0  0
   -3.9128    2.3496    0.0000 C   0  0  0  0  0  0  0  0  0  0  0  0
   -3.1989    2.7631    0.0000 O   0  0  0  0  0  0  0  0  0  0  0  0
   -4.6278    2.7610    0.0000 O   0  0  0  0  0  0  0  0  0  0  0  0
   -4.6291    3.5860    0.0000 C   0  0  0  0  0  0  0  0  0  0  0  0
   -4.6303    4.4110    0.0000 C   0  0  0  0  0  0  0  0  0  0  0  0
   -5.4541    3.5848    0.0000 C   0  0  0  0  0  0  0  0  0  0  0  0
   -3.8041    3.5872    0.0000 C   0  0  0  0  0  0  0  0  0  0  0  0
   -2.4838    2.3517    0.0000 O   0  0  0  0  0  0  0  0  0  0  0  0
    1.4705    1.8750    0.0000 O   0  0  0  0  0  0  0  0  0  0  0  0
    2.4805    1.6630    0.0000 O   0  0  0  0  0  0  0  0  0  0  0  0
    2.0652    2.3758    0.0000 C   0  0  0  0  0  0  0  0  0  0  0  0
    1.2402    2.3726    0.0000 O   0  0  0  0  0  0  0  0  0  0  0  0
    2.4749    3.0919    0.0000 C   0  0  0  0  0  0  0  0  0  0  0  0
    2.0595    3.8048    0.0000 C   0  0  0  0  0  0  0  0  0  0  0  0
    2.4692    4.5208    0.0000 C   0  0  0  0  0  0  0  0  0  0  0  0
    3.2942    4.5241    0.0000 C   0  0  0  0  0  0  0  0  0  0  0  0
    3.7095    3.8113    0.0000 C   0  0  0  0  0  0  0  0  0  0  0  0
    3.2999    3.0952    0.0000 C   0  0  0  0  0  0  0  0  0  0  0  0
    3.8767    1.2754    0.0000 C   0  0  0  0  0  0  0  0  0  0  0  0
    4.5402    0.7851    0.0000 O   0  0  0  0  0  0  0  0  0  0  0  0
    2.8724    1.2572    0.0000 O   0  0  0  0  0  0  0  0  0  0  0  0
    3.1743    2.0250    0.0000 C   0  0  0  0  0  0  0  0  0  0  0  0
    2.6603    2.6703    0.0000 O   0  0  0  0  0  0  0  0  0  0  0  0
    3.9901    2.1475    0.0000 C   0  0  0  0  0  0  0  0  0  0  0  0
    2.5257   -1.3622    0.0000 C   0  0  0  0  0  0  0  0  0  0  0  0
    1.9396   -1.8474    0.0000 O   0  0  0  0  0  0  0  0  0  0  0  0
    1.1953   -2.2033    0.0000 C   0  0  1  0  0  0  0  0  0  0  0  0
    0.6268   -1.6055    0.0000 O   0  0  0  0  0  0  0  0  0  0  0  0
    1.0458   -3.0147    0.0000 C   0  0  0  0  0  0  0  0  0  0  0  0
    1.6737   -3.5498    0.0000 N   0  0  0  0  0  0  0  0  0  0  0  0
    2.4511   -3.2736    0.0000 C   0  0  0  0  0  0  0  0  0  0  0  0
    1.5243   -4.3611    0.0000 C   0  0  0  0  0  0  0  0  0  0  0  0
   -1.9328    0.3673    0.0000 H   0  0  0  0  0  0  0  0  0  0  0  0
   -0.9892   -1.2278    0.0000 H   0  0  0  0  0  0  0  0  0  0  0  0
   -1.9214   -0.7027    0.0000 H   0  0  0  0  0  0  0  0  0  0  0  0
   -0.0451   -0.9860    0.0000 H   0  0  0  0  0  0  0  0  0  0  0  0
    1.0557   -1.7669    0.0000 H   0  0  0  0  0  0  0  0  0  0  0  0
    3.0801   -2.0908    0.0000 H   0  0  0  0  0  0  0  0  0  0  0  0
    4.0611   -1.6636    0.0000 H   0  0  0  0  0  0  0  0  0  0  0  0
    4.8175   -1.3341    0.0000 H   0  0  0  0  0  0  0  0  0  0  0  0
    4.9380   -0.2709    0.0000 H   0  0  0  0  0  0  0  0  0  0  0  0
    5.0456   -0.2699    0.0000 H   0  0  0  0  0  0  0  0  0  0  0  0
    3.4905   -0.3535    0.0000 H   0  0  0  0  0  0  0  0  0  0  0  0
    3.1365    1.0430    0.0000 H   0  0  0  0  0  0  0  0  0  0  0  0
    2.0944   -0.6887    0.0000 H   0  0  0  0  0  0  0  0  0  0  0  0
    2.3522    1.1466    0.0000 H   0  0  0  0  0  0  0  0  0  0  0  0
    2.7531    0.1545    0.0000 H   0  0  0  0  0  0  0  0  0  0  0  0
    0.9885   -1.2238    0.0000 H   0  0  0  0  0  0  0  0  0  0  0  0
    2.4455   -0.0785    0.0000 H   0  0  0  0  0  0  0  0  0  0  0  0
    2.0476   -1.0717    0.0000 H   0  0  0  0  0  0  0  0  0  0  0  0
    0.4331    2.5755    0.0000 H   0  0  0  0  0  0  0  0  0  0  0  0
   -0.4850    2.0684    0.0000 H   0  0  0  0  0  0  0  0  0  0  0  0
   -0.3109    2.1869    0.0000 H   0  0  0  0  0  0  0  0  0  0  0  0
   -1.5567    2.0630    0.0000 H   0  0  0  0  0  0  0  0  0  0  0  0
   -3.1980    2.1831    0.0000 H   0  0  0  0  0  0  0  0  0  0  0  0
   -4.8009   -1.4677    0.0000 H   0  0  0  0  0  0  0  0  0  0  0  0
   -3.1913   -2.3939    0.0000 H   0  0  0  0  0  0  0  0  0  0  0  0
   -1.5845   -1.4630    0.0000 H   0  0  0  0  0  0  0  0  0  0  0  0
   -4.7634    1.0311    0.0000 H   0  0  0  0  0  0  0  0  0  0  0  0
   -3.7044    4.9473    0.0000 H   0  0  0  0  0  0  0  0  0  0  0  0
   -5.5577    4.9447    0.0000 H   0  0  0  0  0  0  0  0  0  0  0  0
   -4.6319    5.4810    0.0000 H   0  0  0  0  0  0  0  0  0  0  0  0
   -5.9904    4.5107    0.0000 H   0  0  0  0  0  0  0  0  0  0  0  0
   -5.9878    2.6574    0.0000 H   0  0  0  0  0  0  0  0  0  0  0  0
   -6.5241    3.5832    0.0000 H   0  0  0  0  0  0  0  0  0  0  0  0
   -3.2678    2.6613    0.0000 H   0  0  0  0  0  0  0  0  0  0  0  0
   -3.2704    4.5146    0.0000 H   0  0  0  0  0  0  0  0  0  0  0  0
   -2.7341    3.5888    0.0000 H   0  0  0  0  0  0  0  0  0  0  0  0
   -1.6445    2.8379    0.0000 H   0  0  0  0  0  0  0  0  0  0  0  0
    2.4218    2.0647    0.0000 H   0  0  0  0  0  0  0  0  0  0  0  0
    1.0275    3.8007    0.0000 H   0  0  0  0  0  0  0  0  0  0  0  0
    1.9497    5.4125    0.0000 H   0  0  0  0  0  0  0  0  0  0  0  0
    3.8066    5.4199    0.0000 H   0  0  0  0  0  0  0  0  0  0  0  0
    4.7415    3.8154    0.0000 H   0  0  0  0  0  0  0  0  0  0  0  0
    3.8195    2.2035    0.0000 H   0  0  0  0  0  0  0  0  0  0  0  0
    3.7179    2.3335    0.0000 H   0  0  0  0  0  0  0  0  0  0  0  0
    4.7935    1.8271    0.0000 H   0  0  0  0  0  0  0  0  0  0  0  0
    4.6568    1.3106    0.0000 H   0  0  0  0  0  0  0  0  0  0  0  0
    4.3816    3.1433    0.0000 H   0  0  0  0  0  0  0  0  0  0  0  0
    5.0482    2.3064    0.0000 H   0  0  0  0  0  0  0  0  0  0  0  0
    1.5917   -1.8843    0.0000 H   0  0  0  0  0  0  0  0  0  0  0  0
    3.4449   -1.9100    0.0000 H   0  0  0  0  0  0  0  0  0  0  0  0
    2.5109   -2.4321    0.0000 H   0  0  0  0  0  0  0  0  0  0  0  0
    2.0448   -2.8538    0.0000 H   0  0  0  0  0  0  0  0  0  0  0  0
    0.0376   -3.3730    0.0000 H   0  0  0  0  0  0  0  0  0  0  0  0
    0.8519   -4.0670    0.0000 H   0  0  0  0  0  0  0  0  0  0  0  0
    3.2655   -3.9677    0.0000 H   0  0  0  0  0  0  0  0  0  0  0  0
    2.6450   -2.2213    0.0000 H   0  0  0  0  0  0  0  0  0  0  0  0
    3.4594   -2.9154    0.0000 H   0  0  0  0  0  0  0  0  0  0  0  0
    0.5161   -4.7194    0.0000 H   0  0  0  0  0  0  0  0  0  0  0  0
    2.3387   -5.0551    0.0000 H   0  0  0  0  0  0  0  0  0  0  0  0
    1.3305   -5.4134    0.0000 H   0  0  0  0  0  0  0  0  0  0  0  0
  1  2  1  0  0  0  0
  1 64  1  0  0  0  0
  1 65  1  0  0  0  0
  1 66  1  0  0  0  0
  2  3  2  0  0  0  0
  2 18  1  0  0  0  0
  3  4  1  0  0  0  0
  3 14  1  0  0  0  0
  4  5  1  0  0  0  0
  4 59  1  0  0  0  0
  4 67  1  1  0  0  0
  5  6  1  0  0  0  0
  5 57  1  0  0  0  0
  5 68  1  1  0  0  0
  6  7  1  0  0  0  0
  6 11  1  0  0  0  0
  6 56  1  6  0  0  0
  7  8  1  0  0  0  0
  7 69  1  0  0  0  0
  7 70  1  0  0  0  0
  8  9  1  0  0  0  0
  8 71  1  0  0  0  0
  8 72  1  0  0  0  0
  9 10  1  0  0  0  0
  9 51  1  0  0  0  0
  9 73  1  1  0  0  0
 10 50  1  0  0  0  0
 10 52  1  1  0  0  0
 11 10  1  0  0  0  0
 11 12  1  0  0  0  0
 11 74  1  1  0  0  0
 12 13  1  0  0  0  0
 12 41  1  0  0  0  0
 12 75  1  6  0  0  0
 13 14  1  0  0  0  0
 13 17  1  0  0  0  0
 13 40  1  6  0  0  0
 14 15  1  0  0  0  0
 14 16  1  0  0  0  0
 15 76  1  0  0  0  0
 15 77  1  0  0  0  0
 15 78  1  0  0  0  0
 16 79  1  0  0  0  0
 16 80  1  0  0  0  0
 16 81  1  0  0  0  0
 17 18  1  0  0  0  0
 17 82  1  0  0  0  0
 17 83  1  0  0  0  0
 18 19  1  0  0  0  0
 18 84  1  6  0  0  0
 19 20  1  0  0  0  0
 20 21  2  0  0  0  0
 20 22  1  0  0  0  0
 22 23  1  0  0  0  0
 22 39  1  0  0  0  0
 22 85  1  6  0  0  0
 23 24  1  0  0  0  0
 23 31  1  0  0  0  0
 23 86  1  1  0  0  0
 24 25  2  0  0  0  0
 24 29  1  0  0  0  0
 25 26  1  0  0  0  0
 25 30  1  0  0  0  0
 26 27  2  0  0  0  0
 26 87  1  0  0  0  0
 27 28  1  0  0  0  0
 27 88  1  0  0  0  0
 28 29  2  0  0  0  0
 28 89  1  0  0  0  0
 31 32  1  0  0  0  0
 31 90  1  0  0  0  0
 32 33  2  0  0  0  0
 32 34  1  0  0  0  0
 34 35  1  0  0  0  0
 35 36  1  0  0  0  0
 35 37  1  0  0  0  0
 35 38  1  0  0  0  0
 36 91  1  0  0  0  0
 36 92  1  0  0  0  0
 36 93  1  0  0  0  0
 37 94  1  0  0  0  0
 37 95  1  0  0  0  0
 37 96  1  0  0  0  0
 38 97  1  0  0  0  0
 38 98  1  0  0  0  0
 38 99  1  0  0  0  0
 39100  1  0  0  0  0
 40101  1  0  0  0  0
 41 42  1  0  0  0  0
 42 43  2  0  0  0  0
 42 44  1  0  0  0  0
 44 45  2  0  0  0  0
 44 49  1  0  0  0  0
 45 46  1  0  0  0  0
 45102  1  0  0  0  0
 46 47  2  0  0  0  0
 46103  1  0  0  0  0
 47 48  1  0  0  0  0
 47104  1  0  0  0  0
 48 49  2  0  0  0  0
 48105  1  0  0  0  0
 49106  1  0  0  0  0
 50 51  1  0  0  0  0
 50107  1  0  0  0  0
 50108  1  0  0  0  0
 52 53  1  0  0  0  0
 53 54  2  0  0  0  0
 53 55  1  0  0  0  0
 55109  1  0  0  0  0
 55110  1  0  0  0  0
 55111  1  0  0  0  0
 56112  1  0  0  0  0
 56113  1  0  0  0  0
 56114  1  0  0  0  0
 57 58  1  0  0  0  0
 58 59  1  0  0  0  0
 58 60  1  0  0  0  0
 58115  1  1  0  0  0
 60 61  1  0  0  0  0
 60116  1  0  0  0  0
 60117  1  0  0  0  0
 61 62  1  0  0  0  0
 61 63  1  0  0  0  0
 62118  1  0  0  0  0
 62119  1  0  0  0  0
 62120  1  0  0  0  0
 63121  1  0  0  0  0
 63122  1  0  0  0  0
 63123  1  0  0  0  0
M  END
>  <DRUGBANK_ID>
DB12019

>  <COMMON_NAME>
Tesetaxel

>  <CAS_NUMBER>
333754-36-2

>  <UNII>
UG97LO5M8Y

>  <SYNONYMS>
Tesetaxel

$$$$
