
 OpenBabel10282417072D

 49 52  0  0  0  0  0  0  0  0999 V2000
    6.1743   -2.7127    0.0000 F   0  0  0  0  0  0  0  0  0  0  0  0
    6.8063   -3.2430    0.0000 C   0  0  0  0  0  0  0  0  0  0  0  0
    6.2760   -3.8750    0.0000 F   0  0  0  0  0  0  0  0  0  0  0  0
    7.3366   -2.6111    0.0000 F   0  0  0  0  0  0  0  0  0  0  0  0
    7.4383   -3.7733    0.0000 C   0  0  0  0  0  0  0  0  0  0  0  0
    7.8508   -4.4878    0.0000 C   0  0  0  0  0  0  0  0  0  0  0  0
    7.0258   -4.4878    0.0000 C   0  0  0  0  0  0  0  0  0  0  0  0
    8.0703   -3.2430    0.0000 C   0  0  0  0  0  0  0  0  0  0  0  0
    7.9270   -2.4306    0.0000 C   0  0  0  0  0  0  0  0  0  0  0  0
    8.5590   -1.9003    0.0000 C   0  0  0  0  0  0  0  0  0  0  0  0
    9.3343   -2.1824    0.0000 C   0  0  0  0  0  0  0  0  0  0  0  0
    9.9662   -1.6521    0.0000 C   0  0  0  0  0  0  0  0  0  0  0  0
   10.7415   -1.9343    0.0000 C   0  0  0  0  0  0  0  0  0  0  0  0
   10.8848   -2.7468    0.0000 O   0  0  0  0  0  0  0  0  0  0  0  0
   11.3735   -1.4040    0.0000 N   0  0  0  0  0  0  0  0  0  0  0  0
   12.1487   -1.6862    0.0000 C   0  0  0  0  0  0  0  0  0  0  0  0
   12.8327   -1.2248    0.0000 N   0  0  0  0  0  0  0  0  0  0  0  0
   13.4828   -1.7328    0.0000 N   0  0  0  0  0  0  0  0  0  0  0  0
   14.2758   -1.5054    0.0000 C   0  0  0  0  0  0  0  0  0  0  0  0
   14.8693   -2.0785    0.0000 C   0  0  0  0  0  0  0  0  0  0  0  0
   15.6623   -1.8511    0.0000 N   0  0  0  0  0  0  0  0  0  0  0  0
   16.2558   -2.4242    0.0000 C   0  0  0  0  0  0  0  0  0  0  0  0
   16.0562   -3.2246    0.0000 C   0  0  0  0  0  0  0  0  0  0  0  0
   15.2632   -3.4520    0.0000 C   0  0  0  0  0  0  0  0  0  0  0  0
   14.6697   -2.8790    0.0000 C   0  0  0  0  0  0  0  0  0  0  0  0
   16.6497   -3.7977    0.0000 C   0  0  0  0  0  0  0  0  0  0  0  0
   17.2431   -4.3708    0.0000 N   0  0  0  0  0  0  0  0  0  0  0  0
   13.2006   -2.5080    0.0000 C   0  0  0  0  0  0  0  0  0  0  0  0
   12.3761   -2.4792    0.0000 C   0  0  0  0  0  0  0  0  0  0  0  0
    9.4775   -2.9949    0.0000 C   0  0  0  0  0  0  0  0  0  0  0  0
    8.8455   -3.5252    0.0000 C   0  0  0  0  0  0  0  0  0  0  0  0
    8.7774   -5.0228    0.0000 H   0  0  0  0  0  0  0  0  0  0  0  0
    7.5739   -5.5213    0.0000 H   0  0  0  0  0  0  0  0  0  0  0  0
    6.0992   -5.0228    0.0000 H   0  0  0  0  0  0  0  0  0  0  0  0
    6.2692   -3.7312    0.0000 H   0  0  0  0  0  0  0  0  0  0  0  0
    6.9572   -2.0777    0.0000 H   0  0  0  0  0  0  0  0  0  0  0  0
    8.3798   -0.8840    0.0000 H   0  0  0  0  0  0  0  0  0  0  0  0
    9.7804   -0.5984    0.0000 H   0  0  0  0  0  0  0  0  0  0  0  0
   10.7859   -0.9643    0.0000 H   0  0  0  0  0  0  0  0  0  0  0  0
   11.2026   -0.4345    0.0000 H   0  0  0  0  0  0  0  0  0  0  0  0
   14.5346   -0.4672    0.0000 H   0  0  0  0  0  0  0  0  0  0  0  0
   15.3043   -1.2104    0.0000 H   0  0  0  0  0  0  0  0  0  0  0  0
   17.2478   -2.1397    0.0000 H   0  0  0  0  0  0  0  0  0  0  0  0
   15.0136   -4.4534    0.0000 H   0  0  0  0  0  0  0  0  0  0  0  0
   13.6777   -3.1635    0.0000 H   0  0  0  0  0  0  0  0  0  0  0  0
   13.7777   -3.3636    0.0000 H   0  0  0  0  0  0  0  0  0  0  0  0
   11.7407   -3.2924    0.0000 H   0  0  0  0  0  0  0  0  0  0  0  0
   10.4472   -3.3479    0.0000 H   0  0  0  0  0  0  0  0  0  0  0  0
    9.0247   -4.5415    0.0000 H   0  0  0  0  0  0  0  0  0  0  0  0
  1  2  1  0  0  0  0
  2  3  1  0  0  0  0
  2  4  1  0  0  0  0
  2  5  1  0  0  0  0
  5  6  1  0  0  0  0
  5  7  1  0  0  0  0
  5  8  1  0  0  0  0
  6  7  1  0  0  0  0
  6 32  1  0  0  0  0
  6 33  1  0  0  0  0
  7 34  1  0  0  0  0
  7 35  1  0  0  0  0
  8  9  2  0  0  0  0
  8 31  1  0  0  0  0
  9 10  1  0  0  0  0
  9 36  1  0  0  0  0
 10 11  2  0  0  0  0
 10 37  1  0  0  0  0
 11 12  1  0  0  0  0
 11 30  1  0  0  0  0
 12 13  1  0  0  0  0
 12 38  1  0  0  0  0
 12 39  1  0  0  0  0
 13 14  2  0  0  0  0
 13 15  1  0  0  0  0
 15 16  1  0  0  0  0
 15 40  1  0  0  0  0
 16 17  2  0  0  0  0
 16 29  1  0  0  0  0
 17 18  1  0  0  0  0
 18 19  1  0  0  0  0
 18 28  1  0  0  0  0
 19 20  1  0  0  0  0
 19 41  1  0  0  0  0
 19 42  1  0  0  0  0
 20 21  2  0  0  0  0
 20 25  1  0  0  0  0
 21 22  1  0  0  0  0
 22 23  2  0  0  0  0
 22 43  1  0  0  0  0
 23 24  1  0  0  0  0
 23 26  1  0  0  0  0
 24 25  2  0  0  0  0
 24 44  1  0  0  0  0
 25 45  1  0  0  0  0
 26 27  3  0  0  0  0
 28 29  2  0  0  0  0
 28 46  1  0  0  0  0
 29 47  1  0  0  0  0
 30 31  2  0  0  0  0
 30 48  1  0  0  0  0
 31 49  1  0  0  0  0
M  END
>  <DRUGBANK_ID>
DB16241

>  <COMMON_NAME>
Apinocaltamide

>  <CAS_NUMBER>
1838651-58-3

>  <UNII>
3Z7U1U8Z9E

>  <SYNONYMS>
Benzeneacetamide, N-[1-[(5-cyano-2-pyridinyl)methyl]-1H-pyrazol-3-yl]-4-[1-(trifluoromethyl)cyclopropyl]-; N-(1-((5-CYANOPYRIDIN-2-YL)METHYL)-1H-PYRAZOL-3-YL)-2-(4-(1-(TRIFLUOROMETHYL)CYCLOPROPYL)-PHENYL)ACETAMIDE; N-[1-(5-Cyano-pyridin-2-ylmethyl)-1H-pyrazol-3-yl]-2-[4-(1-trifluoromethyl-cyclopropyl-phenyl]-acetamide; N-[1-[(5-Cyano-2-pyridinyl)methyl]-1H-pyrazol-3-yl]-4-[1-(trifluoromethyl)cyclopropyl]benzeneacetamide; N-{1-[(5-cyanopyridin-2-yl)methyl]-1H-pyrazol-3-yl}-2- {4-[1-(trifluoromethyl)cyclopropyl]phenyl}acetamide

$$$$
