
 OpenBabel10282417072D

 75 78  0  0  0  0  0  0  0  0999 V2000
   -2.3102   -0.8102    0.0000 C   0  0  1  0  0  0  0  0  0  0  0  0
   -2.9337   -1.2440    0.0000 C   0  0  1  0  0  0  0  0  0  0  0  0
   -2.2737   -0.0919    0.0000 C   0  0  2  0  0  0  0  0  0  0  0  0
   -1.4241   -1.0837    0.0000 C   0  0  0  0  0  0  0  0  0  0  0  0
   -3.6302   -0.8868    0.0000 C   0  0  1  0  0  0  0  0  0  0  0  0
   -2.9337   -2.0792    0.0000 C   0  0  0  0  0  0  0  0  0  0  0  0
   -2.9556    0.2764    0.0000 C   0  0  0  0  0  0  0  0  0  0  0  0
   -1.4533    0.2764    0.0000 C   0  0  2  0  0  0  0  0  0  0  0  0
   -2.4853    0.9109    0.0000 C   0  0  0  0  0  0  0  0  0  0  0  0
   -0.9464   -0.3616    0.0000 C   0  0  0  0  0  0  0  0  0  0  0  0
   -4.3449   -1.2987    0.0000 C   0  0  2  0  0  0  0  0  0  0  0  0
   -3.6302   -0.1063    0.0000 C   0  0  0  0  0  0  0  0  0  0  0  0
   -3.6083   -2.4839    0.0000 C   0  0  0  0  0  0  0  0  0  0  0  0
   -1.4906    1.1947    0.0000 O   0  0  0  0  0  0  0  0  0  0  0  0
   -4.3304   -2.0938    0.0000 C   0  0  0  0  0  0  0  0  0  0  0  0
   -5.0451   -0.9160    0.0000 C   0  0  0  0  0  0  0  0  0  0  0  0
   -5.0195   -2.5022    0.0000 C   0  0  0  0  0  0  0  0  0  0  0  0
   -5.7379   -1.3280    0.0000 C   0  0  0  0  0  0  0  0  0  0  0  0
   -5.7379   -2.1156    0.0000 C   0  0  0  0  0  0  0  0  0  0  0  0
   -6.4381   -2.5276    0.0000 O   0  0  0  0  0  0  0  0  0  0  0  0
   -1.7924   -1.7583    0.0000 H   0  0  0  0  0  0  0  0  0  0  0  0
   -2.9337   -0.2814    0.0000 H   0  0  0  0  0  0  0  0  0  0  0  0
   -3.6302   -1.9224    0.0000 H   0  0  0  0  0  0  0  0  0  0  0  0
   -4.3449   -0.2121    0.0000 H   0  0  0  0  0  0  0  0  0  0  0  0
   -0.6999    1.6553    0.0000 C   0  0  0  0  0  0  0  0  0  0  0  0
    0.0931    1.2014    0.0000 C   0  0  0  0  0  0  0  0  0  0  0  0
    0.8863    1.6597    0.0000 C   0  0  0  0  0  0  0  0  0  0  0  0
    1.6794    1.2058    0.0000 C   0  0  0  0  0  0  0  0  0  0  0  0
    2.4725    1.6641    0.0000 C   0  0  0  0  0  0  0  0  0  0  0  0
    3.2656    1.2103    0.0000 C   0  0  0  0  0  0  0  0  0  0  0  0
    4.0587    1.6685    0.0000 C   0  0  0  0  0  0  0  0  0  0  0  0
    4.8518    1.2146    0.0000 C   0  0  0  0  0  0  0  0  0  0  0  0
    5.6449    1.6729    0.0000 C   0  0  0  0  0  0  0  0  0  0  0  0
    6.4381    1.2190    0.0000 C   0  0  0  0  0  0  0  0  0  0  0  0
   -0.7033    2.5276    0.0000 O   0  0  0  0  0  0  0  0  0  0  0  0
   -1.0638   -2.0912    0.0000 H   0  0  0  0  0  0  0  0  0  0  0  0
   -0.3619   -1.2123    0.0000 H   0  0  0  0  0  0  0  0  0  0  0  0
   -2.0026   -2.6064    0.0000 H   0  0  0  0  0  0  0  0  0  0  0  0
   -2.0093   -1.5403    0.0000 H   0  0  0  0  0  0  0  0  0  0  0  0
   -2.9667    1.3463    0.0000 H   0  0  0  0  0  0  0  0  0  0  0  0
   -2.0395    0.8293    0.0000 H   0  0  0  0  0  0  0  0  0  0  0  0
   -0.4504    0.6493    0.0000 H   0  0  0  0  0  0  0  0  0  0  0  0
   -1.6891    1.6257    0.0000 H   0  0  0  0  0  0  0  0  0  0  0  0
   -3.5024    1.2431    0.0000 H   0  0  0  0  0  0  0  0  0  0  0  0
   -2.7062    1.9578    0.0000 H   0  0  0  0  0  0  0  0  0  0  0  0
    0.1226   -0.3151    0.0000 H   0  0  0  0  0  0  0  0  0  0  0  0
   -0.4195   -1.2929    0.0000 H   0  0  0  0  0  0  0  0  0  0  0  0
   -4.5548    0.4322    0.0000 H   0  0  0  0  0  0  0  0  0  0  0  0
   -3.6241    0.9637    0.0000 H   0  0  0  0  0  0  0  0  0  0  0  0
   -3.5842   -3.5536    0.0000 H   0  0  0  0  0  0  0  0  0  0  0  0
   -4.5211   -3.0423    0.0000 H   0  0  0  0  0  0  0  0  0  0  0  0
   -5.0645    0.1538    0.0000 H   0  0  0  0  0  0  0  0  0  0  0  0
   -5.9799   -0.3955    0.0000 H   0  0  0  0  0  0  0  0  0  0  0  0
   -4.9982   -3.5340    0.0000 H   0  0  0  0  0  0  0  0  0  0  0  0
   -6.6680   -0.7990    0.0000 H   0  0  0  0  0  0  0  0  0  0  0  0
   -6.6628   -1.8660    0.0000 H   0  0  0  0  0  0  0  0  0  0  0  0
    0.0953    0.1314    0.0000 H   0  0  0  0  0  0  0  0  0  0  0  0
    1.0204    0.6675    0.0000 H   0  0  0  0  0  0  0  0  0  0  0  0
    0.8841    2.7297    0.0000 H   0  0  0  0  0  0  0  0  0  0  0  0
    1.8114    2.1974    0.0000 H   0  0  0  0  0  0  0  0  0  0  0  0
    1.6816    0.1358    0.0000 H   0  0  0  0  0  0  0  0  0  0  0  0
    2.6067    0.6719    0.0000 H   0  0  0  0  0  0  0  0  0  0  0  0
    2.4702    2.7341    0.0000 H   0  0  0  0  0  0  0  0  0  0  0  0
    3.3975    2.2019    0.0000 H   0  0  0  0  0  0  0  0  0  0  0  0
    3.2678    0.1403    0.0000 H   0  0  0  0  0  0  0  0  0  0  0  0
    4.1929    0.6764    0.0000 H   0  0  0  0  0  0  0  0  0  0  0  0
    4.0565    2.7385    0.0000 H   0  0  0  0  0  0  0  0  0  0  0  0
    4.9838    2.2062    0.0000 H   0  0  0  0  0  0  0  0  0  0  0  0
    4.8540    0.1446    0.0000 H   0  0  0  0  0  0  0  0  0  0  0  0
    5.7791    0.6807    0.0000 H   0  0  0  0  0  0  0  0  0  0  0  0
    5.6426    2.7429    0.0000 H   0  0  0  0  0  0  0  0  0  0  0  0
    6.5700    2.2107    0.0000 H   0  0  0  0  0  0  0  0  0  0  0  0
    6.4422    0.1490    0.0000 H   0  0  0  0  0  0  0  0  0  0  0  0
    7.3627    1.7576    0.0000 H   0  0  0  0  0  0  0  0  0  0  0  0
    7.3668    0.6876    0.0000 H   0  0  0  0  0  0  0  0  0  0  0  0
  1 21  1  6  0  0  0
  1  2  1  0  0  0  0
  1  3  1  0  0  0  0
  1  4  1  0  0  0  0
  2 22  1  1  0  0  0
  2  5  1  0  0  0  0
  2  6  1  0  0  0  0
  3  7  1  0  0  0  0
  3  8  1  0  0  0  0
  3  9  1  1  0  0  0
  4 10  1  0  0  0  0
  4 36  1  0  0  0  0
  4 37  1  0  0  0  0
  5 12  1  0  0  0  0
  5 23  1  6  0  0  0
  5 11  1  0  0  0  0
  6 13  1  0  0  0  0
  6 38  1  0  0  0  0
  6 39  1  0  0  0  0
  7 12  1  0  0  0  0
  7 40  1  0  0  0  0
  7 41  1  0  0  0  0
  8 14  1  0  0  0  0
  8 10  1  0  0  0  0
  8 42  1  6  0  0  0
  9 43  1  0  0  0  0
  9 44  1  0  0  0  0
  9 45  1  0  0  0  0
 10 46  1  0  0  0  0
 10 47  1  0  0  0  0
 11 15  1  0  0  0  0
 11 16  1  0  0  0  0
 11 24  1  1  0  0  0
 12 48  1  0  0  0  0
 12 49  1  0  0  0  0
 13 15  1  0  0  0  0
 13 50  1  0  0  0  0
 13 51  1  0  0  0  0
 14 25  1  0  0  0  0
 15 17  2  0  0  0  0
 16 18  1  0  0  0  0
 16 52  1  0  0  0  0
 16 53  1  0  0  0  0
 17 19  1  0  0  0  0
 17 54  1  0  0  0  0
 18 19  1  0  0  0  0
 18 55  1  0  0  0  0
 18 56  1  0  0  0  0
 19 20  2  0  0  0  0
 25 26  1  0  0  0  0
 25 35  2  0  0  0  0
 26 27  1  0  0  0  0
 26 57  1  0  0  0  0
 26 58  1  0  0  0  0
 27 28  1  0  0  0  0
 27 59  1  0  0  0  0
 27 60  1  0  0  0  0
 28 29  1  0  0  0  0
 28 61  1  0  0  0  0
 28 62  1  0  0  0  0
 29 30  1  0  0  0  0
 29 63  1  0  0  0  0
 29 64  1  0  0  0  0
 30 31  1  0  0  0  0
 30 65  1  0  0  0  0
 30 66  1  0  0  0  0
 31 32  1  0  0  0  0
 31 67  1  0  0  0  0
 31 68  1  0  0  0  0
 32 33  1  0  0  0  0
 32 69  1  0  0  0  0
 32 70  1  0  0  0  0
 33 34  1  0  0  0  0
 33 71  1  0  0  0  0
 33 72  1  0  0  0  0
 34 73  1  0  0  0  0
 34 74  1  0  0  0  0
 34 75  1  0  0  0  0
M  END
>  <DRUGBANK_ID>
DB08804

>  <COMMON_NAME>
Nandrolone decanoate

>  <CAS_NUMBER>
360-70-3

>  <UNII>
H45187T098

>  <SYNONYMS>
19-nortestosterone decanoate; Nandrolone 17Î²-decanoate; Nandrolone decanoate

$$$$
