
 OpenBabel10282417072D

229242  0  0  0  0  0  0  0  0999 V2000
    3.1986   -4.5023    0.0000 C   0  0  0  0  0  0  0  0  0  0  0  0
    3.1974   -5.3296    0.0000 C   0  0  0  0  0  0  0  0  0  0  0  0
    3.9122   -5.7425    0.0000 C   0  0  0  0  0  0  0  0  0  0  0  0
    4.6285   -5.3292    0.0000 C   0  0  0  0  0  0  0  0  0  0  0  0
    4.6257   -4.4986    0.0000 C   0  0  0  0  0  0  0  0  0  0  0  0
    3.9104   -4.0895    0.0000 C   0  0  0  0  0  0  0  0  0  0  0  0
    1.7756   -2.0270    0.0000 C   0  0  0  0  0  0  0  0  0  0  0  0
    1.7744   -2.8543    0.0000 C   0  0  0  0  0  0  0  0  0  0  0  0
    2.4892   -3.2672    0.0000 C   0  0  0  0  0  0  0  0  0  0  0  0
    3.2056   -2.8539    0.0000 C   0  0  0  0  0  0  0  0  0  0  0  0
    3.2029   -2.0233    0.0000 C   0  0  0  0  0  0  0  0  0  0  0  0
    2.4874   -1.6142    0.0000 C   0  0  0  0  0  0  0  0  0  0  0  0
   -3.2146   -5.7603    0.0000 C   0  0  1  0  0  0  0  0  0  0  0  0
   -3.2146   -6.5853    0.0000 C   0  0  2  0  0  0  0  0  0  0  0  0
   -2.5026   -6.9937    0.0000 C   0  0  1  0  0  0  0  0  0  0  0  0
   -1.7906   -6.5853    0.0000 C   0  0  2  0  0  0  0  0  0  0  0  0
   -1.7906   -5.7603    0.0000 O   0  0  0  0  0  0  0  0  0  0  0  0
   -2.5026   -5.3437    0.0000 C   0  0  3  0  0  0  0  0  0  0  0  0
   -2.4994   -2.0395    0.0000 C   0  0  0  0  0  0  0  0  0  0  0  0
   -1.7857   -3.2797    0.0000 C   0  0  0  0  0  0  0  0  0  0  0  0
   -1.0693   -2.8664    0.0000 C   0  0  0  0  0  0  0  0  0  0  0  0
   -1.0720   -2.0358    0.0000 C   0  0  0  0  0  0  0  0  0  0  0  0
   -1.7875   -1.6267    0.0000 C   0  0  0  0  0  0  0  0  0  0  0  0
   -4.6389   -3.2814    0.0000 C   0  0  0  0  0  0  0  0  0  0  0  0
   -4.6401   -4.1088    0.0000 C   0  0  0  0  0  0  0  0  0  0  0  0
   -3.9253   -4.5217    0.0000 C   0  0  0  0  0  0  0  0  0  0  0  0
   -3.2089   -4.1083    0.0000 C   0  0  0  0  0  0  0  0  0  0  0  0
   -3.2117   -3.2778    0.0000 C   0  0  0  0  0  0  0  0  0  0  0  0
   -3.9271   -2.8687    0.0000 C   0  0  0  0  0  0  0  0  0  0  0  0
   -5.3438   -0.3978    0.0000 O   0  0  0  0  0  0  0  0  0  0  0  0
   -4.6313   -0.8062    0.0000 C   0  0  0  0  0  0  0  0  0  0  0  0
   -3.9188   -0.3937    0.0000 C   0  0  1  0  0  0  0  0  0  0  0  0
   -3.2063   -0.8020    0.0000 N   0  0  0  0  0  0  0  0  0  0  0  0
   -2.4938   -0.3895    0.0000 C   0  0  0  0  0  0  0  0  0  0  0  0
   -1.7813   -0.7978    0.0000 C   0  0  2  0  0  0  0  0  0  0  0  0
   -1.0688   -0.3853    0.0000 N   0  0  0  0  0  0  0  0  0  0  0  0
   -0.3562   -0.7937    0.0000 C   0  0  0  0  0  0  0  0  0  0  0  0
    0.3561   -0.3812    0.0000 C   0  0  2  0  0  0  0  0  0  0  0  0
    1.0686   -0.7895    0.0000 N   0  0  0  0  0  0  0  0  0  0  0  0
    1.7811   -0.3770    0.0000 C   0  0  0  0  0  0  0  0  0  0  0  0
    2.4936   -0.7853    0.0000 C   0  0  1  0  0  0  0  0  0  0  0  0
    3.2062   -0.3728    0.0000 N   0  0  0  0  0  0  0  0  0  0  0  0
    3.9187   -0.7812    0.0000 C   0  0  0  0  0  0  0  0  0  0  0  0
    4.6311   -0.3687    0.0000 C   0  0  2  0  0  0  0  0  0  0  0  0
    6.0561   -1.2812    0.0000 N   0  0  0  0  0  0  0  0  0  0  0  0
   -3.9021    1.3437    0.0000 C   0  0  2  0  0  0  0  0  0  0  0  0
   -2.4979    0.4354    0.0000 O   0  0  0  0  0  0  0  0  0  0  0  0
   -0.3604   -1.6187    0.0000 O   0  0  0  0  0  0  0  0  0  0  0  0
    0.3895    1.3479    0.0000 C   0  0  0  0  0  0  0  0  0  0  0  0
    1.7771    0.4479    0.0000 O   0  0  0  0  0  0  0  0  0  0  0  0
    3.9145   -1.6062    0.0000 O   0  0  0  0  0  0  0  0  0  0  0  0
   -6.0146    7.7937    0.0000 C   0  0  0  0  0  0  0  0  0  0  0  0
   -5.3021    7.3854    0.0000 C   0  0  0  0  0  0  0  0  0  0  0  0
   -4.5896    7.7979    0.0000 C   0  0  0  0  0  0  0  0  0  0  0  0
   -3.8771    7.3896    0.0000 C   0  0  0  0  0  0  0  0  0  0  0  0
   -3.1646    7.8021    0.0000 C   0  0  0  0  0  0  0  0  0  0  0  0
   -2.4521    7.3937    0.0000 C   0  0  0  0  0  0  0  0  0  0  0  0
   -1.7395    7.8062    0.0000 C   0  0  0  0  0  0  0  0  0  0  0  0
   -1.0271    7.3979    0.0000 C   0  0  0  0  0  0  0  0  0  0  0  0
   -0.3146    7.8104    0.0000 C   0  0  0  0  0  0  0  0  0  0  0  0
    0.3978    7.4021    0.0000 C   0  0  0  0  0  0  0  0  0  0  0  0
    1.1186    6.1646    0.0000 C   0  0  1  0  0  0  0  0  0  0  0  0
    1.1186    5.3396    0.0000 C   0  0  1  0  0  0  0  0  0  0  0  0
    1.8307    4.9312    0.0000 O   0  0  0  0  0  0  0  0  0  0  0  0
    2.5428    5.3396    0.0000 C   0  0  1  0  0  0  0  0  0  0  0  0
    2.5428    6.1646    0.0000 C   0  0  2  0  0  0  0  0  0  0  0  0
    1.8307    6.5812    0.0000 C   0  0  2  0  0  0  0  0  0  0  0  0
    0.4021    4.9312    0.0000 O   0  0  0  0  0  0  0  0  0  0  0  0
    1.8229    7.4062    0.0000 O   0  0  0  0  0  0  0  0  0  0  0  0
    3.2521    6.5812    0.0000 O   0  0  0  0  0  0  0  0  0  0  0  0
    3.2521    4.9271    0.0000 C   0  0  0  0  0  0  0  0  0  0  0  0
    3.9646    5.3437    0.0000 O   0  0  0  0  0  0  0  0  0  0  0  0
    2.5342    2.5927    0.0000 C   0  0  0  0  0  0  0  0  0  0  0  0
    2.5330    1.7653    0.0000 C   0  0  0  0  0  0  0  0  0  0  0  0
    3.2479    1.3525    0.0000 C   0  0  0  0  0  0  0  0  0  0  0  0
    3.9644    1.7658    0.0000 C   0  0  0  0  0  0  0  0  0  0  0  0
    3.9615    2.5963    0.0000 C   0  0  0  0  0  0  0  0  0  0  0  0
    3.2460    3.0055    0.0000 C   0  0  0  0  0  0  0  0  0  0  0  0
   -5.3333    3.8149    0.0000 C   0  0  2  0  0  0  0  0  0  0  0  0
   -5.3333    2.9899    0.0000 C   0  0  2  0  0  0  0  0  0  0  0  0
   -4.6213    2.5815    0.0000 C   0  0  1  0  0  0  0  0  0  0  0  0
   -3.9093    2.9899    0.0000 O   0  0  0  0  0  0  0  0  0  0  0  0
   -3.9093    3.8149    0.0000 C   0  0  1  0  0  0  0  0  0  0  0  0
   -4.6213    4.2315    0.0000 C   0  0  1  0  0  0  0  0  0  0  0  0
    1.1070    2.5891    0.0000 C   0  0  0  0  0  0  0  0  0  0  0  0
    1.1058    1.7617    0.0000 C   0  0  0  0  0  0  0  0  0  0  0  0
    1.8188    3.0018    0.0000 O   0  0  0  0  0  0  0  0  0  0  0  0
   -0.3201    2.5854    0.0000 C   0  0  0  0  0  0  0  0  0  0  0  0
   -0.3214    1.7581    0.0000 C   0  0  0  0  0  0  0  0  0  0  0  0
    0.3917    2.9982    0.0000 C   0  0  0  0  0  0  0  0  0  0  0  0
   -6.0452    2.5771    0.0000 N   0  0  0  0  0  0  0  0  0  0  0  0
   -6.0464    1.7497    0.0000 C   0  0  0  0  0  0  0  0  0  0  0  0
   -5.3315    1.3369    0.0000 O   0  0  0  0  0  0  0  0  0  0  0  0
   -4.6193    1.6835    0.0000 O   0  0  0  0  0  0  0  0  0  0  0  0
   -3.1818    1.7544    0.0000 C   0  0  0  0  0  0  0  0  0  0  0  0
   -3.1846    2.5849    0.0000 C   0  0  0  0  0  0  0  0  0  0  0  0
   -2.4649    1.3452    0.0000 C   0  0  0  0  0  0  0  0  0  0  0  0
   -1.7484    1.7585    0.0000 C   0  0  0  0  0  0  0  0  0  0  0  0
   -1.7513    2.5891    0.0000 C   0  0  0  0  0  0  0  0  0  0  0  0
   -2.4667    2.9982    0.0000 C   0  0  0  0  0  0  0  0  0  0  0  0
   -1.0357    1.3452    0.0000 Cl  0  0  0  0  0  0  0  0  0  0  0  0
   -1.0375    2.9982    0.0000 O   0  0  0  0  0  0  0  0  0  0  0  0
   -6.7646    1.3437    0.0000 C   0  0  0  0  0  0  0  0  0  0  0  0
   -6.0521    4.2312    0.0000 O   0  0  0  0  0  0  0  0  0  0  0  0
   -4.6271    5.0604    0.0000 O   0  0  0  0  0  0  0  0  0  0  0  0
   -3.1979    4.2354    0.0000 C   0  0  0  0  0  0  0  0  0  0  0  0
   -2.4854    3.8229    0.0000 O   0  0  0  0  0  0  0  0  0  0  0  0
    3.2396    3.8312    0.0000 Cl  0  0  0  0  0  0  0  0  0  0  0  0
    0.4021    6.5771    0.0000 N   0  0  0  0  0  0  0  0  0  0  0  0
    1.1103    7.8187    0.0000 O   0  0  0  0  0  0  0  0  0  0  0  0
   -4.6354   -1.6312    0.0000 N   0  0  0  0  0  0  0  0  0  0  0  0
   -3.9229   -2.0437    0.0000 C   0  0  2  0  0  0  0  0  0  0  0  0
   -5.6521   -2.9978    0.0000 C   0  0  0  0  0  0  0  0  0  0  0  0
   -6.4313   -2.4978    0.0000 O   0  0  0  0  0  0  0  0  0  0  0  0
   -5.6563   -3.8228    0.0000 O   0  0  0  0  0  0  0  0  0  0  0  0
   -5.3604   -4.5145    0.0000 O   0  0  0  0  0  0  0  0  0  0  0  0
   -2.4979   -4.5187    0.0000 O   0  0  0  0  0  0  0  0  0  0  0  0
   -2.5021   -2.8603    0.0000 C   0  0  0  0  0  0  0  0  0  0  0  0
   -1.7938   -4.1020    0.0000 O   0  0  0  0  0  0  0  0  0  0  0  0
   -3.9313   -5.3478    0.0000 O   0  0  0  0  0  0  0  0  0  0  0  0
   -3.9313   -6.9937    0.0000 O   0  0  0  0  0  0  0  0  0  0  0  0
   -2.5104   -7.8187    0.0000 O   0  0  0  0  0  0  0  0  0  0  0  0
   -1.0813   -6.9978    0.0000 C   0  0  0  0  0  0  0  0  0  0  0  0
   -0.3688   -6.5812    0.0000 O   0  0  0  0  0  0  0  0  0  0  0  0
    3.9145   -3.2645    0.0000 O   0  0  0  0  0  0  0  0  0  0  0  0
    1.0562   -3.2603    0.0000 O   0  0  0  0  0  0  0  0  0  0  0  0
    2.4812   -4.0895    0.0000 O   0  0  0  0  0  0  0  0  0  0  0  0
    5.3396   -5.7395    0.0000 C   0  0  2  0  0  0  0  0  0  0  0  0
    6.0521   -5.3228    0.0000 C   0  0  0  0  0  0  0  0  0  0  0  0
    6.7646   -5.7353    0.0000 O   0  0  0  0  0  0  0  0  0  0  0  0
    5.3353   -6.5645    0.0000 N   0  0  0  0  0  0  0  0  0  0  0  0
    4.6729    1.3562    0.0000 C   0  0  0  0  0  0  0  0  0  0  0  0
    2.3032   -5.8449    0.0000 H   0  0  0  0  0  0  0  0  0  0  0  0
    3.9119   -6.7745    0.0000 H   0  0  0  0  0  0  0  0  0  0  0  0
    5.5175   -3.9793    0.0000 H   0  0  0  0  0  0  0  0  0  0  0  0
    0.8817   -1.5112    0.0000 H   0  0  0  0  0  0  0  0  0  0  0  0
    2.4889   -4.2992    0.0000 H   0  0  0  0  0  0  0  0  0  0  0  0
    4.0947   -1.5040    0.0000 H   0  0  0  0  0  0  0  0  0  0  0  0
   -4.1409   -6.2959    0.0000 H   0  0  0  0  0  0  0  0  0  0  0  0
   -3.2161   -7.6553    0.0000 H   0  0  0  0  0  0  0  0  0  0  0  0
   -3.4310   -7.5256    0.0000 H   0  0  0  0  0  0  0  0  0  0  0  0
   -1.7938   -7.6553    0.0000 H   0  0  0  0  0  0  0  0  0  0  0  0
   -1.5729   -4.8140    0.0000 H   0  0  0  0  0  0  0  0  0  0  0  0
   -3.3928   -1.5229    0.0000 H   0  0  0  0  0  0  0  0  0  0  0  0
   -0.1748   -3.3811    0.0000 H   0  0  0  0  0  0  0  0  0  0  0  0
   -0.1802   -1.5165    0.0000 H   0  0  0  0  0  0  0  0  0  0  0  0
   -5.5327   -2.7656    0.0000 H   0  0  0  0  0  0  0  0  0  0  0  0
   -3.9255   -5.5537    0.0000 H   0  0  0  0  0  0  0  0  0  0  0  0
   -2.9905    0.1383    0.0000 H   0  0  0  0  0  0  0  0  0  0  0  0
   -3.2041   -1.7865    0.0000 H   0  0  0  0  0  0  0  0  0  0  0  0
   -1.7837    0.2722    0.0000 H   0  0  0  0  0  0  0  0  0  0  0  0
   -1.0710    0.5992    0.0000 H   0  0  0  0  0  0  0  0  0  0  0  0
    0.3585   -1.4512    0.0000 H   0  0  0  0  0  0  0  0  0  0  0  0
    1.0708   -1.7740    0.0000 H   0  0  0  0  0  0  0  0  0  0  0  0
    2.4913    0.2847    0.0000 H   0  0  0  0  0  0  0  0  0  0  0  0
    3.2041    0.6117    0.0000 H   0  0  0  0  0  0  0  0  0  0  0  0
    4.6072   -1.4384    0.0000 H   0  0  0  0  0  0  0  0  0  0  0  0
    6.9200   -0.8091    0.0000 H   0  0  0  0  0  0  0  0  0  0  0  0
   -4.8090    0.7759    0.0000 H   0  0  0  0  0  0  0  0  0  0  0  0
   -6.0181    8.8637    0.0000 H   0  0  0  0  0  0  0  0  0  0  0  0
   -6.9395    7.2557    0.0000 H   0  0  0  0  0  0  0  0  0  0  0  0
   -6.9430    8.3257    0.0000 H   0  0  0  0  0  0  0  0  0  0  0  0
   -5.2997    6.3154    0.0000 H   0  0  0  0  0  0  0  0  0  0  0  0
   -4.3745    6.8520    0.0000 H   0  0  0  0  0  0  0  0  0  0  0  0
   -4.5920    8.8679    0.0000 H   0  0  0  0  0  0  0  0  0  0  0  0
   -3.6644    8.3354    0.0000 H   0  0  0  0  0  0  0  0  0  0  0  0
   -3.8747    6.3196    0.0000 H   0  0  0  0  0  0  0  0  0  0  0  0
   -2.9495    6.8562    0.0000 H   0  0  0  0  0  0  0  0  0  0  0  0
   -3.1669    8.8721    0.0000 H   0  0  0  0  0  0  0  0  0  0  0  0
   -2.2394    8.3395    0.0000 H   0  0  0  0  0  0  0  0  0  0  0  0
   -2.4498    6.3237    0.0000 H   0  0  0  0  0  0  0  0  0  0  0  0
   -1.5246    6.8602    0.0000 H   0  0  0  0  0  0  0  0  0  0  0  0
   -1.7418    8.8762    0.0000 H   0  0  0  0  0  0  0  0  0  0  0  0
   -0.8143    8.3437    0.0000 H   0  0  0  0  0  0  0  0  0  0  0  0
   -1.0248    6.3279    0.0000 H   0  0  0  0  0  0  0  0  0  0  0  0
   -0.0996    6.8645    0.0000 H   0  0  0  0  0  0  0  0  0  0  0  0
   -0.3169    8.8804    0.0000 H   0  0  0  0  0  0  0  0  0  0  0  0
    0.6106    8.3479    0.0000 H   0  0  0  0  0  0  0  0  0  0  0  0
    0.1923    5.6290    0.0000 H   0  0  0  0  0  0  0  0  0  0  0  0
    0.1934    5.8772    0.0000 H   0  0  0  0  0  0  0  0  0  0  0  0
    3.4703    5.8731    0.0000 H   0  0  0  0  0  0  0  0  0  0  0  0
    3.4714    5.6331    0.0000 H   0  0  0  0  0  0  0  0  0  0  0  0
    2.7564    7.1179    0.0000 H   0  0  0  0  0  0  0  0  0  0  0  0
    2.6583    7.8991    0.0000 H   0  0  0  0  0  0  0  0  0  0  0  0
    4.0957    6.1025    0.0000 H   0  0  0  0  0  0  0  0  0  0  0  0
    3.2534    3.8571    0.0000 H   0  0  0  0  0  0  0  0  0  0  0  0
    4.1805    4.3952    0.0000 H   0  0  0  0  0  0  0  0  0  0  0  0
    4.8073    4.8633    0.0000 H   0  0  0  0  0  0  0  0  0  0  0  0
    1.6389    1.2500    0.0000 H   0  0  0  0  0  0  0  0  0  0  0  0
    3.2477    0.3205    0.0000 H   0  0  0  0  0  0  0  0  0  0  0  0
    4.8533    3.1157    0.0000 H   0  0  0  0  0  0  0  0  0  0  0  0
   -6.2603    3.2805    0.0000 H   0  0  0  0  0  0  0  0  0  0  0  0
   -6.2604    3.5240    0.0000 H   0  0  0  0  0  0  0  0  0  0  0  0
   -5.5466    2.0442    0.0000 H   0  0  0  0  0  0  0  0  0  0  0  0
   -2.9799    3.2847    0.0000 H   0  0  0  0  0  0  0  0  0  0  0  0
   -5.5514    4.7606    0.0000 H   0  0  0  0  0  0  0  0  0  0  0  0
    1.9992    1.2452    0.0000 H   0  0  0  0  0  0  0  0  0  0  0  0
   -1.2155    1.2427    0.0000 H   0  0  0  0  0  0  0  0  0  0  0  0
   -6.8979    3.0692    0.0000 H   0  0  0  0  0  0  0  0  0  0  0  0
   -4.0789    3.0999    0.0000 H   0  0  0  0  0  0  0  0  0  0  0  0
   -2.4626    0.3132    0.0000 H   0  0  0  0  0  0  0  0  0  0  0  0
   -2.4682    4.0302    0.0000 H   0  0  0  0  0  0  0  0  0  0  0  0
   -7.6863    1.8871    0.0000 H   0  0  0  0  0  0  0  0  0  0  0  0
   -6.7743    0.2737    0.0000 H   0  0  0  0  0  0  0  0  0  0  0  0
   -7.6961    0.8171    0.0000 H   0  0  0  0  0  0  0  0  0  0  0  0
   -6.0508    5.2012    0.0000 H   0  0  0  0  0  0  0  0  0  0  0  0
   -3.7905    5.5513    0.0000 H   0  0  0  0  0  0  0  0  0  0  0  0
   -3.2027    5.3054    0.0000 H   0  0  0  0  0  0  0  0  0  0  0  0
   -2.2721    4.7719    0.0000 H   0  0  0  0  0  0  0  0  0  0  0  0
   -2.4866    2.8529    0.0000 H   0  0  0  0  0  0  0  0  0  0  0  0
   -0.4489    6.0821    0.0000 H   0  0  0  0  0  0  0  0  0  0  0  0
   -5.4895   -2.1208    0.0000 H   0  0  0  0  0  0  0  0  0  0  0  0
   -4.9928   -2.0327    0.0000 H   0  0  0  0  0  0  0  0  0  0  0  0
   -6.3874   -1.5618    0.0000 H   0  0  0  0  0  0  0  0  0  0  0  0
   -6.1668   -4.0374    0.0000 H   0  0  0  0  0  0  0  0  0  0  0  0
   -2.6098   -4.5625    0.0000 H   0  0  0  0  0  0  0  0  0  0  0  0
   -3.9326   -4.3778    0.0000 H   0  0  0  0  0  0  0  0  0  0  0  0
   -4.7686   -6.5040    0.0000 H   0  0  0  0  0  0  0  0  0  0  0  0
   -3.3550   -8.2957    0.0000 H   0  0  0  0  0  0  0  0  0  0  0  0
   -1.0800   -8.0678    0.0000 H   0  0  0  0  0  0  0  0  0  0  0  0
   -0.1529   -7.5297    0.0000 H   0  0  0  0  0  0  0  0  0  0  0  0
    0.4739   -7.0616    0.0000 H   0  0  0  0  0  0  0  0  0  0  0  0
    0.2490   -2.7844    0.0000 H   0  0  0  0  0  0  0  0  0  0  0  0
    2.4798   -3.1525    0.0000 H   0  0  0  0  0  0  0  0  0  0  0  0
    4.4116   -6.2722    0.0000 H   0  0  0  0  0  0  0  0  0  0  0  0
    4.4493   -7.0699    0.0000 H   0  0  0  0  0  0  0  0  0  0  0  0
    6.2160   -7.0791    0.0000 H   0  0  0  0  0  0  0  0  0  0  0  0
    5.6061    1.8797    0.0000 H   0  0  0  0  0  0  0  0  0  0  0  0
    5.5896    0.8043    0.0000 H   0  0  0  0  0  0  0  0  0  0  0  0
  1  2  2  0  0  0  0
  1127  1  0  0  0  0
  2  3  1  0  0  0  0
  2133  1  0  0  0  0
  3  4  2  0  0  0  0
  3134  1  0  0  0  0
  4  5  1  0  0  0  0
  4128  1  0  0  0  0
  5  6  2  0  0  0  0
  5135  1  0  0  0  0
  6  1  1  0  0  0  0
  7  8  2  0  0  0  0
  7136  1  0  0  0  0
  8  9  1  0  0  0  0
  8126  1  0  0  0  0
  9 10  2  0  0  0  0
  9137  1  0  0  0  0
 10 11  1  0  0  0  0
 10125  1  0  0  0  0
 11 12  2  0  0  0  0
 11138  1  0  0  0  0
 12  7  1  0  0  0  0
 13 14  1  0  0  0  0
 13120  1  0  0  0  0
 13 18  1  0  0  0  0
 13139  1  1  0  0  0
 14 15  1  0  0  0  0
 14121  1  0  0  0  0
 14140  1  1  0  0  0
 15 16  1  0  0  0  0
 15122  1  0  0  0  0
 15141  1  6  0  0  0
 16 17  1  0  0  0  0
 16123  1  0  0  0  0
 16142  1  1  0  0  0
 17 18  1  0  0  0  0
 18143  1  0  0  0  0
 19118  2  0  0  0  0
 19144  1  0  0  0  0
 20 21  2  0  0  0  0
 20119  1  0  0  0  0
 21 22  1  0  0  0  0
 21145  1  0  0  0  0
 22 23  2  0  0  0  0
 22146  1  0  0  0  0
 23 19  1  0  0  0  0
 24 25  2  0  0  0  0
 24147  1  0  0  0  0
 25 26  1  0  0  0  0
 25116  1  0  0  0  0
 26 27  2  0  0  0  0
 26148  1  0  0  0  0
 27 28  1  0  0  0  0
 27117  1  0  0  0  0
 28 29  2  0  0  0  0
 28118  1  0  0  0  0
 29 24  1  0  0  0  0
 30 31  2  0  0  0  0
 31111  1  0  0  0  0
 31 32  1  0  0  0  0
 32 46  1  0  0  0  0
 32 33  1  0  0  0  0
 32149  1  1  0  0  0
 33 34  1  0  0  0  0
 33150  1  0  0  0  0
 34 35  1  0  0  0  0
 34 47  2  0  0  0  0
 35 36  1  0  0  0  0
 35 23  1  0  0  0  0
 35151  1  1  0  0  0
 36 37  1  0  0  0  0
 36152  1  0  0  0  0
 37 38  1  0  0  0  0
 37 48  2  0  0  0  0
 38 39  1  0  0  0  0
 38 49  1  0  0  0  0
 38153  1  6  0  0  0
 39 40  1  0  0  0  0
 39154  1  0  0  0  0
 40 41  1  0  0  0  0
 40 50  2  0  0  0  0
 41 42  1  0  0  0  0
 41 12  1  0  0  0  0
 41155  1  6  0  0  0
 42 43  1  0  0  0  0
 42156  1  0  0  0  0
 43 44  1  0  0  0  0
 43 51  2  0  0  0  0
 44 45  1  0  0  0  0
 44132  1  0  0  0  0
 44157  1  6  0  0  0
 45158  1  0  0  0  0
 46 94  1  0  0  0  0
 46 95  1  0  0  0  0
 46159  1  1  0  0  0
 49 86  1  0  0  0  0
 52 53  1  0  0  0  0
 52160  1  0  0  0  0
 52161  1  0  0  0  0
 52162  1  0  0  0  0
 53 54  1  0  0  0  0
 53163  1  0  0  0  0
 53164  1  0  0  0  0
 54 55  1  0  0  0  0
 54165  1  0  0  0  0
 54166  1  0  0  0  0
 55 56  1  0  0  0  0
 55167  1  0  0  0  0
 55168  1  0  0  0  0
 56 57  1  0  0  0  0
 56169  1  0  0  0  0
 56170  1  0  0  0  0
 57 58  1  0  0  0  0
 57171  1  0  0  0  0
 57172  1  0  0  0  0
 58 59  1  0  0  0  0
 58173  1  0  0  0  0
 58174  1  0  0  0  0
 59 60  1  0  0  0  0
 59175  1  0  0  0  0
 59176  1  0  0  0  0
 60 61  1  0  0  0  0
 60177  1  0  0  0  0
 60178  1  0  0  0  0
 61110  2  0  0  0  0
 62109  1  0  0  0  0
 62 63  1  0  0  0  0
 62 67  1  0  0  0  0
 62179  1  1  0  0  0
 63 68  1  0  0  0  0
 63 64  1  0  0  0  0
 63180  1  6  0  0  0
 64 65  1  0  0  0  0
 65 66  1  0  0  0  0
 65 71  1  0  0  0  0
 65181  1  6  0  0  0
 66 67  1  0  0  0  0
 66 70  1  0  0  0  0
 66182  1  1  0  0  0
 67 69  1  0  0  0  0
 67183  1  6  0  0  0
 69184  1  0  0  0  0
 70185  1  0  0  0  0
 71 72  1  0  0  0  0
 71186  1  0  0  0  0
 71187  1  0  0  0  0
 72188  1  0  0  0  0
 73 74  2  0  0  0  0
 73 87  1  0  0  0  0
 74 75  1  0  0  0  0
 74189  1  0  0  0  0
 75 76  2  0  0  0  0
 75190  1  0  0  0  0
 76 77  1  0  0  0  0
 76132  1  0  0  0  0
 77 78  2  0  0  0  0
 77191  1  0  0  0  0
 78 73  1  0  0  0  0
 78108  1  0  0  0  0
 79 80  1  0  0  0  0
 79 84  1  0  0  0  0
 79104  1  0  0  0  0
 79192  1  6  0  0  0
 80 81  1  0  0  0  0
 80 91  1  0  0  0  0
 80193  1  1  0  0  0
 81 82  1  0  0  0  0
 81 94  1  0  0  0  0
 81194  1  6  0  0  0
 82 83  1  0  0  0  0
 83 84  1  0  0  0  0
 83106  1  0  0  0  0
 83195  1  6  0  0  0
 84105  1  0  0  0  0
 84196  1  1  0  0  0
 85 86  2  0  0  0  0
 85 90  1  0  0  0  0
 86197  1  0  0  0  0
 87 85  1  0  0  0  0
 88 89  1  0  0  0  0
 88102  1  0  0  0  0
 89 49  2  0  0  0  0
 89198  1  0  0  0  0
 90 88  2  0  0  0  0
 90 68  1  0  0  0  0
 91 92  1  0  0  0  0
 91199  1  0  0  0  0
 92 93  2  0  0  0  0
 92103  1  0  0  0  0
 95 96  1  0  0  0  0
 95 97  2  0  0  0  0
 96200  1  0  0  0  0
 97 98  1  0  0  0  0
 97201  1  0  0  0  0
 98 99  2  0  0  0  0
 98101  1  0  0  0  0
 99100  1  0  0  0  0
100 96  2  0  0  0  0
100202  1  0  0  0  0
102 99  1  0  0  0  0
103203  1  0  0  0  0
103204  1  0  0  0  0
103205  1  0  0  0  0
104206  1  0  0  0  0
105207  1  0  0  0  0
106107  1  0  0  0  0
106208  1  0  0  0  0
106209  1  0  0  0  0
107210  1  0  0  0  0
109 61  1  0  0  0  0
109211  1  0  0  0  0
111112  1  0  0  0  0
111212  1  0  0  0  0
112 29  1  0  0  0  0
112113  1  0  0  0  0
112213  1  6  0  0  0
113114  1  0  0  0  0
113115  2  0  0  0  0
114214  1  0  0  0  0
116215  1  0  0  0  0
117 18  1  0  0  0  0
118 20  1  0  0  0  0
119216  1  0  0  0  0
120217  1  0  0  0  0
121218  1  0  0  0  0
122219  1  0  0  0  0
123124  1  0  0  0  0
123220  1  0  0  0  0
123221  1  0  0  0  0
124222  1  0  0  0  0
125  6  1  0  0  0  0
126223  1  0  0  0  0
127224  1  0  0  0  0
128129  1  0  0  0  0
128131  1  0  0  0  0
128225  1  1  0  0  0
129130  2  0  0  0  0
129 45  1  0  0  0  0
131226  1  0  0  0  0
131227  1  0  0  0  0
132228  1  0  0  0  0
132229  1  0  0  0  0
M  END
>  <DRUGBANK_ID>
DB06149

>  <COMMON_NAME>
Teicoplanin

>  <CAS_NUMBER>
61036-62-2

>  <UNII>
4U3D3YY81M

>  <SYNONYMS>
Teichomycin A2; Teicoplanin; teicoplanina; t√©icoplanine; teicoplaninum

$$$$
