
 OpenBabel10282417072D

 67 66  0  0  0  0  0  0  0  0999 V2000
   -1.9624   -4.5377    0.0000 C   0  0  0  0  0  0  0  0  0  0  0  0
   -0.5334   -4.5377    0.0000 C   0  0  0  0  0  0  0  0  0  0  0  0
   -1.9624   -5.3627    0.0000 C   0  0  0  0  0  0  0  0  0  0  0  0
   -0.5334   -5.3627    0.0000 C   0  0  0  0  0  0  0  0  0  0  0  0
   -1.2479   -5.7751    0.0000 C   0  0  0  0  0  0  0  0  0  0  0  0
   -1.2479   -3.3000    0.0000 C   0  0  0  0  0  0  0  0  0  0  0  0
    0.1810   -2.4750    0.0000 C   0  0  0  0  0  0  0  0  0  0  0  0
    0.1810   -1.6500    0.0000 C   0  0  0  0  0  0  0  0  0  0  0  0
    0.8954   -1.2376    0.0000 C   0  0  0  0  0  0  0  0  0  0  0  0
    0.8954   -0.4126    0.0000 C   0  0  0  0  0  0  0  0  0  0  0  0
    1.6100    0.0000    0.0000 C   0  0  0  0  0  0  0  0  0  0  0  0
    1.6100    0.8250    0.0000 C   0  0  0  0  0  0  0  0  0  0  0  0
    2.3245    1.2376    0.0000 C   0  0  0  0  0  0  0  0  0  0  0  0
    2.3245    2.0626    0.0000 C   0  0  0  0  0  0  0  0  0  0  0  0
    3.0389    2.4750    0.0000 C   0  0  0  0  0  0  0  0  0  0  0  0
    3.0389    3.3000    0.0000 C   0  0  0  0  0  0  0  0  0  0  0  0
    3.7534    3.7126    0.0000 C   0  0  0  0  0  0  0  0  0  0  0  0
    3.7534    4.5376    0.0000 C   0  0  0  0  0  0  0  0  0  0  0  0
    4.4679    4.9500    0.0000 C   0  0  0  0  0  0  0  0  0  0  0  0
   -0.9459   -2.1731    0.0000 C   0  0  0  0  0  0  0  0  0  0  0  0
   -0.1209   -3.6020    0.0000 C   0  0  0  0  0  0  0  0  0  0  0  0
    4.4679    5.7751    0.0000 C   0  0  0  0  0  0  0  0  0  0  0  0
   -1.2479   -4.1251    0.0000 C   0  0  0  0  0  0  0  0  0  0  0  0
   -0.5334   -2.8876    0.0000 N   0  3  0  0  0  0  0  0  0  0  0  0
   -4.4679   -0.2062    0.0000 Cl  0  5  0  0  0  0  0  0  0  0  0  0
   -2.8562   -4.0217    0.0000 H   0  0  0  0  0  0  0  0  0  0  0  0
    0.3604   -4.0217    0.0000 H   0  0  0  0  0  0  0  0  0  0  0  0
   -2.8561   -5.8788    0.0000 H   0  0  0  0  0  0  0  0  0  0  0  0
    0.3603   -5.8788    0.0000 H   0  0  0  0  0  0  0  0  0  0  0  0
   -1.2479   -6.8071    0.0000 H   0  0  0  0  0  0  0  0  0  0  0  0
   -2.1745   -2.7649    0.0000 H   0  0  0  0  0  0  0  0  0  0  0  0
   -1.2478   -2.2300    0.0000 H   0  0  0  0  0  0  0  0  0  0  0  0
    1.1077   -3.0099    0.0000 H   0  0  0  0  0  0  0  0  0  0  0  0
    1.1076   -1.9400    0.0000 H   0  0  0  0  0  0  0  0  0  0  0  0
   -0.7456   -1.1150    0.0000 H   0  0  0  0  0  0  0  0  0  0  0  0
    0.1810   -0.5800    0.0000 H   0  0  0  0  0  0  0  0  0  0  0  0
    1.8220   -1.7726    0.0000 H   0  0  0  0  0  0  0  0  0  0  0  0
    1.8221   -0.7026    0.0000 H   0  0  0  0  0  0  0  0  0  0  0  0
   -0.0313    0.1224    0.0000 H   0  0  0  0  0  0  0  0  0  0  0  0
    0.8954    0.6574    0.0000 H   0  0  0  0  0  0  0  0  0  0  0  0
    2.5367   -0.5350    0.0000 H   0  0  0  0  0  0  0  0  0  0  0  0
    2.5366    0.5350    0.0000 H   0  0  0  0  0  0  0  0  0  0  0  0
    0.6833    1.3600    0.0000 H   0  0  0  0  0  0  0  0  0  0  0  0
    1.6099    1.8950    0.0000 H   0  0  0  0  0  0  0  0  0  0  0  0
    3.2512    0.7026    0.0000 H   0  0  0  0  0  0  0  0  0  0  0  0
    3.2511    1.7726    0.0000 H   0  0  0  0  0  0  0  0  0  0  0  0
    1.3979    2.5976    0.0000 H   0  0  0  0  0  0  0  0  0  0  0  0
    2.3245    3.1326    0.0000 H   0  0  0  0  0  0  0  0  0  0  0  0
    3.9655    1.9400    0.0000 H   0  0  0  0  0  0  0  0  0  0  0  0
    3.9656    3.0100    0.0000 H   0  0  0  0  0  0  0  0  0  0  0  0
    2.1122    3.8350    0.0000 H   0  0  0  0  0  0  0  0  0  0  0  0
    3.0388    4.3700    0.0000 H   0  0  0  0  0  0  0  0  0  0  0  0
    4.6801    3.1776    0.0000 H   0  0  0  0  0  0  0  0  0  0  0  0
    4.6800    4.2476    0.0000 H   0  0  0  0  0  0  0  0  0  0  0  0
    2.8268    5.0727    0.0000 H   0  0  0  0  0  0  0  0  0  0  0  0
    3.7535    5.6076    0.0000 H   0  0  0  0  0  0  0  0  0  0  0  0
    5.3945    4.4149    0.0000 H   0  0  0  0  0  0  0  0  0  0  0  0
    5.3946    5.4850    0.0000 H   0  0  0  0  0  0  0  0  0  0  0  0
   -0.4109   -1.2465    0.0000 H   0  0  0  0  0  0  0  0  0  0  0  0
   -2.0159   -2.1731    0.0000 H   0  0  0  0  0  0  0  0  0  0  0  0
   -1.4809   -1.2464    0.0000 H   0  0  0  0  0  0  0  0  0  0  0  0
   -0.6559   -4.5287    0.0000 H   0  0  0  0  0  0  0  0  0  0  0  0
    0.9491   -3.6020    0.0000 H   0  0  0  0  0  0  0  0  0  0  0  0
    0.4141   -4.5286    0.0000 H   0  0  0  0  0  0  0  0  0  0  0  0
    5.3945    6.3101    0.0000 H   0  0  0  0  0  0  0  0  0  0  0  0
    3.5413    6.3101    0.0000 H   0  0  0  0  0  0  0  0  0  0  0  0
    4.4679    6.8451    0.0000 H   0  0  0  0  0  0  0  0  0  0  0  0
  1 23  1  0  0  0  0
  1  3  2  0  0  0  0
  1 26  1  0  0  0  0
  2 23  2  0  0  0  0
  2  4  1  0  0  0  0
  2 27  1  0  0  0  0
  3  5  1  0  0  0  0
  3 28  1  0  0  0  0
  4  5  2  0  0  0  0
  4 29  1  0  0  0  0
  5 30  1  0  0  0  0
  6 23  1  0  0  0  0
  6 24  1  0  0  0  0
  6 31  1  0  0  0  0
  6 32  1  0  0  0  0
  7 24  1  0  0  0  0
  7  8  1  0  0  0  0
  7 33  1  0  0  0  0
  7 34  1  0  0  0  0
  8  9  1  0  0  0  0
  8 35  1  0  0  0  0
  8 36  1  0  0  0  0
  9 10  1  0  0  0  0
  9 37  1  0  0  0  0
  9 38  1  0  0  0  0
 10 11  1  0  0  0  0
 10 39  1  0  0  0  0
 10 40  1  0  0  0  0
 11 12  1  0  0  0  0
 11 41  1  0  0  0  0
 11 42  1  0  0  0  0
 12 13  1  0  0  0  0
 12 43  1  0  0  0  0
 12 44  1  0  0  0  0
 13 14  1  0  0  0  0
 13 45  1  0  0  0  0
 13 46  1  0  0  0  0
 14 15  1  0  0  0  0
 14 47  1  0  0  0  0
 14 48  1  0  0  0  0
 15 16  1  0  0  0  0
 15 49  1  0  0  0  0
 15 50  1  0  0  0  0
 16 17  1  0  0  0  0
 16 51  1  0  0  0  0
 16 52  1  0  0  0  0
 17 18  1  0  0  0  0
 17 53  1  0  0  0  0
 17 54  1  0  0  0  0
 18 19  1  0  0  0  0
 18 55  1  0  0  0  0
 18 56  1  0  0  0  0
 19 22  1  0  0  0  0
 19 57  1  0  0  0  0
 19 58  1  0  0  0  0
 20 24  1  0  0  0  0
 20 59  1  0  0  0  0
 20 60  1  0  0  0  0
 20 61  1  0  0  0  0
 21 24  1  0  0  0  0
 21 62  1  0  0  0  0
 21 63  1  0  0  0  0
 21 64  1  0  0  0  0
 22 65  1  0  0  0  0
 22 66  1  0  0  0  0
 22 67  1  0  0  0  0
M  CHG  2  24   1  25  -1
M  END
>  <DRUGBANK_ID>
DB16590

>  <COMMON_NAME>
N-Alkyl dimethyl benzyl ammonium chloride (C12-C18)

>  <CAS_NUMBER>
68391-01-5

>  <UNII>
9U1Q4T4ZYS

>  <SYNONYMS>
(C12-C18) Alkyldimethylbenzyl ammonium chloride; (C12-C18)Alkylbenzyldimethylammonium chloride; (C12-C18)Alkyldimethylbenzylammonium chloride; Alkyl(C12-C18)benzyldimethylammonium chloride; C12-18-Alkyldimethylbenzyl ammonium chlorides

$$$$
