
 OpenBabel10282417072D

 39 43  0  0  0  0  0  0  0  0999 V2000
   -2.1434    1.2375    0.0000 O   0  0  0  0  0  0  0  0  0  0  0  0
   -1.4289    0.8250    0.0000 C   0  0  0  0  0  0  0  0  0  0  0  0
   -1.4289   -0.0000    0.0000 N   0  0  0  0  0  0  0  0  0  0  0  0
   -0.7145   -0.4125    0.0000 N   0  0  0  0  0  0  0  0  0  0  0  0
   -0.0000   -0.0000    0.0000 C   0  0  0  0  0  0  0  0  0  0  0  0
    0.7145   -0.4125    0.0000 N   0  0  0  0  0  0  0  0  0  0  0  0
    1.4289   -0.0000    0.0000 C   0  0  0  0  0  0  0  0  0  0  0  0
    2.1434   -0.4125    0.0000 C   0  0  0  0  0  0  0  0  0  0  0  0
    2.1434   -1.2375    0.0000 N   0  0  0  0  0  0  0  0  0  0  0  0
    1.4760   -1.7224    0.0000 C   0  0  0  0  0  0  0  0  0  0  0  0
    1.7309   -2.5070    0.0000 C   0  0  0  0  0  0  0  0  0  0  0  0
    2.5559   -2.5070    0.0000 C   0  0  0  0  0  0  0  0  0  0  0  0
    2.8109   -1.7224    0.0000 C   0  0  0  0  0  0  0  0  0  0  0  0
    2.9684   -3.2215    0.0000 C   0  0  0  0  0  0  0  0  0  0  0  0
    2.5559   -3.9360    0.0000 C   0  0  0  0  0  0  0  0  0  0  0  0
    1.7309   -3.9360    0.0000 C   0  0  0  0  0  0  0  0  0  0  0  0
    1.3184   -3.2215    0.0000 C   0  0  0  0  0  0  0  0  0  0  0  0
    1.4289    0.8250    0.0000 N   0  0  0  0  0  0  0  0  0  0  0  0
    0.7145    1.2375    0.0000 C   0  0  0  0  0  0  0  0  0  0  0  0
    0.0000    0.8250    0.0000 C   0  0  0  0  0  0  0  0  0  0  0  0
   -0.7145    1.2375    0.0000 C   0  0  0  0  0  0  0  0  0  0  0  0
   -0.7145    2.0625    0.0000 C   0  0  0  0  0  0  0  0  0  0  0  0
    0.0000    2.4750    0.0000 C   0  0  0  0  0  0  0  0  0  0  0  0
    0.7145    2.0625    0.0000 C   0  0  0  0  0  0  0  0  0  0  0  0
   -2.2815   -0.4922    0.0000 H   0  0  0  0  0  0  0  0  0  0  0  0
    0.7145   -1.3970    0.0000 H   0  0  0  0  0  0  0  0  0  0  0  0
    3.0700    0.1225    0.0000 H   0  0  0  0  0  0  0  0  0  0  0  0
    3.0700   -0.9475    0.0000 H   0  0  0  0  0  0  0  0  0  0  0  0
    0.4584   -1.3917    0.0000 H   0  0  0  0  0  0  0  0  0  0  0  0
    0.7194   -2.4790    0.0000 H   0  0  0  0  0  0  0  0  0  0  0  0
    3.8285   -1.3918    0.0000 H   0  0  0  0  0  0  0  0  0  0  0  0
    2.9783   -0.6656    0.0000 H   0  0  0  0  0  0  0  0  0  0  0  0
    4.0004   -3.2215    0.0000 H   0  0  0  0  0  0  0  0  0  0  0  0
    3.0719   -4.8297    0.0000 H   0  0  0  0  0  0  0  0  0  0  0  0
    1.2149   -4.8297    0.0000 H   0  0  0  0  0  0  0  0  0  0  0  0
    0.2864   -3.2215    0.0000 H   0  0  0  0  0  0  0  0  0  0  0  0
   -1.6082    2.5785    0.0000 H   0  0  0  0  0  0  0  0  0  0  0  0
    0.0000    3.5070    0.0000 H   0  0  0  0  0  0  0  0  0  0  0  0
    1.6082    2.5785    0.0000 H   0  0  0  0  0  0  0  0  0  0  0  0
  1  2  2  0  0  0  0
  2  3  1  0  0  0  0
  2 21  1  0  0  0  0
  3  4  1  0  0  0  0
  3 25  1  0  0  0  0
  4  5  2  0  0  0  0
  5  6  1  0  0  0  0
  5 20  1  0  0  0  0
  6  7  1  0  0  0  0
  6 26  1  0  0  0  0
  7  8  1  0  0  0  0
  7 18  2  0  0  0  0
  8  9  1  0  0  0  0
  8 27  1  0  0  0  0
  8 28  1  0  0  0  0
  9 10  1  0  0  0  0
  9 13  1  0  0  0  0
 10 11  1  0  0  0  0
 10 29  1  0  0  0  0
 10 30  1  0  0  0  0
 11 12  2  0  0  0  0
 11 17  1  0  0  0  0
 12 13  1  0  0  0  0
 12 14  1  0  0  0  0
 13 31  1  0  0  0  0
 13 32  1  0  0  0  0
 14 15  2  0  0  0  0
 14 33  1  0  0  0  0
 15 16  1  0  0  0  0
 15 34  1  0  0  0  0
 16 17  2  0  0  0  0
 16 35  1  0  0  0  0
 17 36  1  0  0  0  0
 18 19  1  0  0  0  0
 19 20  2  0  0  0  0
 19 24  1  0  0  0  0
 20 21  1  0  0  0  0
 21 22  2  0  0  0  0
 22 23  1  0  0  0  0
 22 37  1  0  0  0  0
 23 24  2  0  0  0  0
 23 38  1  0  0  0  0
 24 39  1  0  0  0  0
M  END
>  <DRUGBANK_ID>
DB16063

>  <COMMON_NAME>
2X-121

>  <CAS_NUMBER>
1140964-99-3

>  <UNII>
9X5A2QIA7C

$$$$
