224
 OpenBabel10282417072D

 92 96  0  0  1  0  0  0  0  0999 V2000
    6.2816   -0.1701    0.0000 O   0  0  0  0  0  0  0  0  0  0  0  0
    5.1662   -1.3445    0.0000 O   0  0  0  0  0  0  0  0  0  0  0  0
    8.4087    1.7386    0.0000 O   0  0  0  0  0  0  0  0  0  0  0  0
    5.4743   -0.3402    0.0000 O   0  0  0  0  0  0  0  0  0  0  0  0
    7.8961    0.1701    0.0000 N   0  0  0  0  0  0  0  0  0  0  0  0
    8.9981   -1.0580    0.0000 N   0  0  0  0  0  0  0  0  0  0  0  0
    4.1160    0.1036    0.0000 N   0  0  0  0  0  0  0  0  0  0  0  0
    9.7671    1.2946    0.0000 N   0  0  0  0  0  0  0  0  0  0  0  0
    9.5875   -3.8545    0.0000 N   0  0  0  0  0  0  0  0  0  0  0  0
    8.7034    0.3402    0.0000 C   0  0  1  0  0  0  0  0  0  0  0  0
    9.2544   -0.2738    0.0000 C   0  0  0  0  0  0  0  0  0  0  0  0
    7.6398   -0.6141    0.0000 C   0  0  0  0  0  0  0  0  0  0  0  0
    7.3452    0.7842    0.0000 C   0  0  0  0  0  0  0  0  0  0  0  0
    8.1908   -1.2281    0.0000 C   0  0  0  0  0  0  0  0  0  0  0  0
    6.5379    0.6141    0.0000 C   0  0  2  0  0  0  0  0  0  0  0  0
    5.9869    1.2281    0.0000 C   0  0  0  0  0  0  0  0  0  0  0  0
    5.1796    1.0580    0.0000 C   0  0  2  0  0  0  0  0  0  0  0  0
    3.8597   -0.6806    0.0000 C   0  0  2  0  0  0  0  0  0  0  0  0
    8.9598    1.1245    0.0000 C   0  0  0  0  0  0  0  0  0  0  0  0
    4.3412   -1.3445    0.0000 C   0  0  1  0  0  0  0  0  0  0  0  0
    9.5491   -1.6721    0.0000 C   0  0  0  0  0  0  0  0  0  0  0  0
    3.8597   -2.0084    0.0000 C   0  0  0  0  0  0  0  0  0  0  0  0
    3.0791   -0.9319    0.0000 C   0  0  0  0  0  0  0  0  0  0  0  0
    4.9233    0.2738    0.0000 C   0  0  0  0  0  0  0  0  0  0  0  0
    4.6286    1.6721    0.0000 C   0  0  0  0  0  0  0  0  0  0  0  0
    3.0791   -1.7570    0.0000 C   0  0  0  0  0  0  0  0  0  0  0  0
   10.3180    0.6806    0.0000 C   0  0  0  0  0  0  0  0  0  0  0  0
    9.2928   -2.4563    0.0000 C   0  0  0  0  0  0  0  0  0  0  0  0
    2.3645   -0.5194    0.0000 C   0  0  0  0  0  0  0  0  0  0  0  0
    4.8849    2.4563    0.0000 C   0  0  0  0  0  0  0  0  0  0  0  0
    2.3645   -2.1695    0.0000 C   0  0  0  0  0  0  0  0  0  0  0  0
    9.7039    0.1295    0.0000 C   0  0  0  0  0  0  0  0  0  0  0  0
   10.9321    1.2315    0.0000 C   0  0  0  0  0  0  0  0  0  0  0  0
   10.8690    0.0665    0.0000 C   0  0  0  0  0  0  0  0  0  0  0  0
    1.6501   -0.9319    0.0000 C   0  0  0  0  0  0  0  0  0  0  0  0
    1.6501   -1.7570    0.0000 C   0  0  0  0  0  0  0  0  0  0  0  0
    8.4855   -2.6264    0.0000 C   0  0  0  0  0  0  0  0  0  0  0  0
    9.8438   -3.0703    0.0000 C   0  0  0  0  0  0  0  0  0  0  0  0
    4.3339    3.0703    0.0000 C   0  0  0  0  0  0  0  0  0  0  0  0
    5.6922    2.6264    0.0000 C   0  0  0  0  0  0  0  0  0  0  0  0
    8.2292   -3.4106    0.0000 C   0  0  0  0  0  0  0  0  0  0  0  0
    4.5902    3.8545    0.0000 C   0  0  0  0  0  0  0  0  0  0  0  0
    5.9485    3.4106    0.0000 C   0  0  0  0  0  0  0  0  0  0  0  0
    5.3975    4.0246    0.0000 C   0  0  0  0  0  0  0  0  0  0  0  0
    8.7802   -4.0246    0.0000 C   0  0  0  0  0  0  0  0  0  0  0  0
    5.3324   -0.3701    0.0000 H   0  0  0  0  0  0  0  0  0  0  0  0
    5.6512   -2.1845    0.0000 H   0  0  0  0  0  0  0  0  0  0  0  0
    3.4585    0.8363    0.0000 H   0  0  0  0  0  0  0  0  0  0  0  0
   10.0730    2.2304    0.0000 H   0  0  0  0  0  0  0  0  0  0  0  0
    7.9889    1.1366    0.0000 H   0  0  0  0  0  0  0  0  0  0  0  0
   10.3014   -0.0531    0.0000 H   0  0  0  0  0  0  0  0  0  0  0  0
    9.5868    0.7433    0.0000 H   0  0  0  0  0  0  0  0  0  0  0  0
    6.5928   -0.8348    0.0000 H   0  0  0  0  0  0  0  0  0  0  0  0
    7.3074   -1.6312    0.0000 H   0  0  0  0  0  0  0  0  0  0  0  0
    7.6777    1.8012    0.0000 H   0  0  0  0  0  0  0  0  0  0  0  0
    6.6307    1.5806    0.0000 H   0  0  0  0  0  0  0  0  0  0  0  0
    7.8584   -2.2452    0.0000 H   0  0  0  0  0  0  0  0  0  0  0  0
    7.1438   -1.4488    0.0000 H   0  0  0  0  0  0  0  0  0  0  0  0
    7.2525   -0.1823    0.0000 H   0  0  0  0  0  0  0  0  0  0  0  0
    6.3193    2.2452    0.0000 H   0  0  0  0  0  0  0  0  0  0  0  0
    5.2723    2.0245    0.0000 H   0  0  0  0  0  0  0  0  0  0  0  0
    5.8942    0.2616    0.0000 H   0  0  0  0  0  0  0  0  0  0  0  0
    4.9167   -0.5146    0.0000 H   0  0  0  0  0  0  0  0  0  0  0  0
    4.8274   -0.3913    0.0000 H   0  0  0  0  0  0  0  0  0  0  0  0
   10.5961   -1.4515    0.0000 H   0  0  0  0  0  0  0  0  0  0  0  0
   10.2637   -2.4685    0.0000 H   0  0  0  0  0  0  0  0  0  0  0  0
    4.1921   -3.0255    0.0000 H   0  0  0  0  0  0  0  0  0  0  0  0
    3.1047   -2.7666    0.0000 H   0  0  0  0  0  0  0  0  0  0  0  0
    3.5816    1.4515    0.0000 H   0  0  0  0  0  0  0  0  0  0  0  0
    3.9140    2.4685    0.0000 H   0  0  0  0  0  0  0  0  0  0  0  0
    2.3644    0.5126    0.0000 H   0  0  0  0  0  0  0  0  0  0  0  0
    2.3644   -3.2015    0.0000 H   0  0  0  0  0  0  0  0  0  0  0  0
    8.6868    0.4618    0.0000 H   0  0  0  0  0  0  0  0  0  0  0  0
    9.9246   -0.9175    0.0000 H   0  0  0  0  0  0  0  0  0  0  0  0
    8.9076   -0.5852    0.0000 H   0  0  0  0  0  0  0  0  0  0  0  0
   11.9491    0.8990    0.0000 H   0  0  0  0  0  0  0  0  0  0  0  0
   10.7116    2.2785    0.0000 H   0  0  0  0  0  0  0  0  0  0  0  0
   11.7286    1.9460    0.0000 H   0  0  0  0  0  0  0  0  0  0  0  0
   10.5366   -0.9506    0.0000 H   0  0  0  0  0  0  0  0  0  0  0  0
   11.9160    0.2871    0.0000 H   0  0  0  0  0  0  0  0  0  0  0  0
   11.5836   -0.7299    0.0000 H   0  0  0  0  0  0  0  0  0  0  0  0
    0.7564   -0.4159    0.0000 H   0  0  0  0  0  0  0  0  0  0  0  0
    0.7564   -2.2730    0.0000 H   0  0  0  0  0  0  0  0  0  0  0  0
    7.7963   -1.8583    0.0000 H   0  0  0  0  0  0  0  0  0  0  0  0
   10.8536   -2.8574    0.0000 H   0  0  0  0  0  0  0  0  0  0  0  0
    3.3241    2.8574    0.0000 H   0  0  0  0  0  0  0  0  0  0  0  0
    6.3814    1.8583    0.0000 H   0  0  0  0  0  0  0  0  0  0  0  0
    7.2194   -3.6235    0.0000 H   0  0  0  0  0  0  0  0  0  0  0  0
    3.9010    4.6226    0.0000 H   0  0  0  0  0  0  0  0  0  0  0  0
    6.9583    3.6235    0.0000 H   0  0  0  0  0  0  0  0  0  0  0  0
    5.7181    5.0055    0.0000 H   0  0  0  0  0  0  0  0  0  0  0  0
    8.4596   -5.0055    0.0000 H   0  0  0  0  0  0  0  0  0  0  0  0
  1 46  1  0  0  0  0
  2 47  1  0  0  0  0
  3 19  2  0  0  0  0
  4 24  2  0  0  0  0
  5 10  1  0  0  0  0
  5 12  1  0  0  0  0
  5 13  1  0  0  0  0
  6 11  1  0  0  0  0
  6 14  1  0  0  0  0
  6 21  1  0  0  0  0
  7 24  1  0  0  0  0
  7 48  1  0  0  0  0
  8 19  1  0  0  0  0
  8 27  1  0  0  0  0
  8 49  1  0  0  0  0
  9 38  1  0  0  0  0
  9 45  2  0  0  0  0
 10 11  1  0  0  0  0
 10 19  1  0  0  0  0
 10 50  1  1  0  0  0
 11 51  1  0  0  0  0
 11 52  1  0  0  0  0
 12 14  1  0  0  0  0
 12 53  1  0  0  0  0
 12 54  1  0  0  0  0
 13 15  1  0  0  0  0
 13 55  1  0  0  0  0
 13 56  1  0  0  0  0
 14 57  1  0  0  0  0
 14 58  1  0  0  0  0
 15  1  1  0  0  0  0
 15 16  1  0  0  0  0
 15 59  1  6  0  0  0
 16 60  1  0  0  0  0
 16 61  1  0  0  0  0
 17 16  1  0  0  0  0
 17 24  1  0  0  0  0
 17 25  1  0  0  0  0
 17 62  1  1  0  0  0
 18  7  1  0  0  0  0
 18 20  1  0  0  0  0
 18 23  1  0  0  0  0
 18 63  1  1  0  0  0
 20  2  1  0  0  0  0
 20 22  1  0  0  0  0
 20 64  1  1  0  0  0
 21 28  1  0  0  0  0
 21 65  1  0  0  0  0
 21 66  1  0  0  0  0
 22 26  1  0  0  0  0
 22 67  1  0  0  0  0
 22 68  1  0  0  0  0
 23 26  1  0  0  0  0
 23 29  2  0  0  0  0
 25 30  1  0  0  0  0
 25 69  1  0  0  0  0
 25 70  1  0  0  0  0
 26 31  2  0  0  0  0
 27 32  1  0  0  0  0
 27 33  1  0  0  0  0
 27 34  1  0  0  0  0
 28 37  1  0  0  0  0
 28 38  2  0  0  0  0
 29 35  1  0  0  0  0
 29 71  1  0  0  0  0
 30 39  2  0  0  0  0
 30 40  1  0  0  0  0
 31 36  1  0  0  0  0
 31 72  1  0  0  0  0
 32 73  1  0  0  0  0
 32 74  1  0  0  0  0
 32 75  1  0  0  0  0
 33 76  1  0  0  0  0
 33 77  1  0  0  0  0
 33 78  1  0  0  0  0
 34 79  1  0  0  0  0
 34 80  1  0  0  0  0
 34 81  1  0  0  0  0
 35 36  2  0  0  0  0
 35 82  1  0  0  0  0
 36 83  1  0  0  0  0
 37 41  2  0  0  0  0
 37 84  1  0  0  0  0
 38 85  1  0  0  0  0
 39 42  1  0  0  0  0
 39 86  1  0  0  0  0
 40 43  2  0  0  0  0
 40 87  1  0  0  0  0
 41 45  1  0  0  0  0
 41 88  1  0  0  0  0
 42 44  2  0  0  0  0
 42 89  1  0  0  0  0
 43 44  1  0  0  0  0
 43 90  1  0  0  0  0
 44 91  1  0  0  0  0
 45 92  1  0  0  0  0
M  END
>  <DRUGBANK_ID>
DB00224

>  <SECONDARY_ACCESSION_NUMBERS>
APRD00069

>  <COMMON_NAME>
Indinavir

>  <CAS_NUMBER>
150378-17-9

>  <UNII>
9MG78X43ZT

>  <SYNONYMS>
(1(1S,2R),5(S))-2,3,5-Trideoxy-N-(2,3-dihydro-2-hydroxy-1H-inden-1-yl)-5-(2-(((1,1-dimethylethyl)amino)carbonyl)-4-(3-pyridinylmethyl)-1-piperazinyl)-2-(phenylmethyl)-D-erythro-pentonamide; Indinavir; Indinavir anhydrous

$$$$
