
 OpenBabel10282417072D

 86 89  0  0  1  0  0  0  0  0999 V2000
    0.5904   -3.2294    0.0000 C   0  0  0  0  0  0  0  0  0  0  0  0
    0.1779   -2.5149    0.0000 C   0  0  0  0  0  0  0  0  0  0  0  0
    0.5904   -1.8004    0.0000 C   0  0  0  0  0  0  0  0  0  0  0  0
   -0.6471   -2.5149    0.0000 C   0  0  0  0  0  0  0  0  0  0  0  0
   -1.0596   -1.8004    0.0000 C   0  0  1  0  0  0  0  0  0  0  0  0
   -0.6471   -1.0860    0.0000 C   0  0  0  0  0  0  0  0  0  0  0  0
    0.1779   -1.0860    0.0000 O   0  0  0  0  0  0  0  0  0  0  0  0
   -1.0596   -0.3715    0.0000 N   0  0  0  0  0  0  0  0  0  0  0  0
   -0.8047    0.4131    0.0000 C   0  0  1  0  0  0  0  0  0  0  0  0
   -1.3567    1.0262    0.0000 C   0  0  0  0  0  0  0  0  0  0  0  0
   -1.1018    1.8108    0.0000 O   0  0  0  0  0  0  0  0  0  0  0  0
   -2.1637    0.8547    0.0000 N   0  0  0  0  0  0  0  0  0  0  0  0
   -2.8311    1.3396    0.0000 C   0  0  1  0  0  0  0  0  0  0  0  0
   -3.5848    1.0041    0.0000 C   0  0  0  0  0  0  0  0  0  0  0  0
   -4.2522    1.4890    0.0000 O   0  0  0  0  0  0  0  0  0  0  0  0
   -3.6710    0.1836    0.0000 N   0  0  0  0  0  0  0  0  0  0  0  0
   -3.9260    0.9682    0.0000 C   0  0  0  0  0  0  0  0  0  0  0  0
   -4.7510    0.9682    0.0000 C   0  0  0  0  0  0  0  0  0  0  0  0
   -5.0059    0.1836    0.0000 C   0  0  0  0  0  0  0  0  0  0  0  0
   -4.3385   -0.3014    0.0000 C   0  0  1  0  0  0  0  0  0  0  0  0
   -4.2522   -1.1218    0.0000 C   0  0  0  0  0  0  0  0  0  0  0  0
   -4.9197   -1.6068    0.0000 O   0  0  0  0  0  0  0  0  0  0  0  0
   -3.4986   -1.4574    0.0000 N   0  0  0  0  0  0  0  0  0  0  0  0
   -3.2436   -2.2420    0.0000 C   0  0  1  0  0  0  0  0  0  0  0  0
   -2.4366   -2.4135    0.0000 C   0  0  0  0  0  0  0  0  0  0  0  0
   -2.1817   -3.1982    0.0000 O   0  0  0  0  0  0  0  0  0  0  0  0
   -1.8846   -1.8004    0.0000 N   0  0  0  0  0  0  0  0  0  0  0  0
   -3.7956   -2.8551    0.0000 C   0  0  0  0  0  0  0  0  0  0  0  0
   -3.5407   -3.6397    0.0000 C   0  0  0  0  0  0  0  0  0  0  0  0
   -4.6026   -2.6836    0.0000 C   0  0  0  0  0  0  0  0  0  0  0  0
   -2.7449    2.1601    0.0000 C   0  0  0  0  0  0  0  0  0  0  0  0
   -3.4123    2.6450    0.0000 C   0  0  0  0  0  0  0  0  0  0  0  0
   -3.3261    3.4655    0.0000 O   0  0  0  0  0  0  0  0  0  0  0  0
   -4.1660    2.3095    0.0000 O   0  0  0  0  0  0  0  0  0  0  0  0
    0.0023    0.5846    0.0000 C   0  0  0  0  0  0  0  0  0  0  0  0
    0.2572    1.3693    0.0000 C   0  0  0  0  0  0  0  0  0  0  0  0
   -0.2277    2.0367    0.0000 C   0  0  0  0  0  0  0  0  0  0  0  0
    0.2572    2.7041    0.0000 N   0  0  0  0  0  0  0  0  0  0  0  0
    1.0419    2.4492    0.0000 C   0  0  0  0  0  0  0  0  0  0  0  0
    1.0419    1.6242    0.0000 C   0  0  0  0  0  0  0  0  0  0  0  0
    1.7563    1.2117    0.0000 C   0  0  0  0  0  0  0  0  0  0  0  0
    2.4708    1.6242    0.0000 C   0  0  0  0  0  0  0  0  0  0  0  0
    2.4708    2.4492    0.0000 C   0  0  0  0  0  0  0  0  0  0  0  0
    1.7563    2.8617    0.0000 C   0  0  0  0  0  0  0  0  0  0  0  0
    0.0554   -4.1560    0.0000 H   0  0  0  0  0  0  0  0  0  0  0  0
    1.6604   -3.2294    0.0000 H   0  0  0  0  0  0  0  0  0  0  0  0
    1.1254   -4.1561    0.0000 H   0  0  0  0  0  0  0  0  0  0  0  0
   -0.3571   -1.5883    0.0000 H   0  0  0  0  0  0  0  0  0  0  0  0
    1.6604   -1.8004    0.0000 H   0  0  0  0  0  0  0  0  0  0  0  0
    0.0554   -0.8738    0.0000 H   0  0  0  0  0  0  0  0  0  0  0  0
    1.1254   -0.8737    0.0000 H   0  0  0  0  0  0  0  0  0  0  0  0
   -1.1821   -3.4415    0.0000 H   0  0  0  0  0  0  0  0  0  0  0  0
   -1.7171   -2.5149    0.0000 H   0  0  0  0  0  0  0  0  0  0  0  0
    0.0104   -1.8004    0.0000 H   0  0  0  0  0  0  0  0  0  0  0  0
   -2.0387   -0.4744    0.0000 H   0  0  0  0  0  0  0  0  0  0  0  0
   -0.0887   -0.3821    0.0000 H   0  0  0  0  0  0  0  0  0  0  0  0
   -2.3684   -0.1083    0.0000 H   0  0  0  0  0  0  0  0  0  0  0  0
   -1.8536    1.7748    0.0000 H   0  0  0  0  0  0  0  0  0  0  0  0
   -3.2971    1.8339    0.0000 H   0  0  0  0  0  0  0  0  0  0  0  0
   -4.4118    1.9216    0.0000 H   0  0  0  0  0  0  0  0  0  0  0  0
   -5.3799    1.8338    0.0000 H   0  0  0  0  0  0  0  0  0  0  0  0
   -5.8078    0.8008    0.0000 H   0  0  0  0  0  0  0  0  0  0  0  0
   -6.0235   -0.1470    0.0000 H   0  0  0  0  0  0  0  0  0  0  0  0
   -5.1734   -0.8732    0.0000 H   0  0  0  0  0  0  0  0  0  0  0  0
   -4.3385    0.7686    0.0000 H   0  0  0  0  0  0  0  0  0  0  0  0
   -2.7670   -0.7986    0.0000 H   0  0  0  0  0  0  0  0  0  0  0  0
   -4.2902   -2.0196    0.0000 H   0  0  0  0  0  0  0  0  0  0  0  0
   -2.2850   -0.9010    0.0000 H   0  0  0  0  0  0  0  0  0  0  0  0
   -4.5116   -3.6503    0.0000 H   0  0  0  0  0  0  0  0  0  0  0  0
   -4.2567   -4.4348    0.0000 H   0  0  0  0  0  0  0  0  0  0  0  0
   -2.4941   -3.8622    0.0000 H   0  0  0  0  0  0  0  0  0  0  0  0
   -3.2101   -4.6573    0.0000 H   0  0  0  0  0  0  0  0  0  0  0  0
   -4.9333   -1.6660    0.0000 H   0  0  0  0  0  0  0  0  0  0  0  0
   -5.3185   -3.4788    0.0000 H   0  0  0  0  0  0  0  0  0  0  0  0
   -5.6492   -2.4612    0.0000 H   0  0  0  0  0  0  0  0  0  0  0  0
   -1.7674    2.5953    0.0000 H   0  0  0  0  0  0  0  0  0  0  0  0
   -2.6331    3.2242    0.0000 H   0  0  0  0  0  0  0  0  0  0  0  0
   -4.9240    2.8603    0.0000 H   0  0  0  0  0  0  0  0  0  0  0  0
    0.7183   -0.2106    0.0000 H   0  0  0  0  0  0  0  0  0  0  0  0
    1.0489    0.8071    0.0000 H   0  0  0  0  0  0  0  0  0  0  0  0
   -1.2597    2.0367    0.0000 H   0  0  0  0  0  0  0  0  0  0  0  0
   -0.0471    3.6404    0.0000 H   0  0  0  0  0  0  0  0  0  0  0  0
    1.7563    0.1797    0.0000 H   0  0  0  0  0  0  0  0  0  0  0  0
    3.3645    1.1082    0.0000 H   0  0  0  0  0  0  0  0  0  0  0  0
    3.3645    2.9652    0.0000 H   0  0  0  0  0  0  0  0  0  0  0  0
    1.7563    3.8937    0.0000 H   0  0  0  0  0  0  0  0  0  0  0  0
  1  2  1  0  0  0  0
  1 45  1  0  0  0  0
  1 46  1  0  0  0  0
  1 47  1  0  0  0  0
  2  3  1  0  0  0  0
  2  4  1  0  0  0  0
  2 48  1  0  0  0  0
  3 49  1  0  0  0  0
  3 50  1  0  0  0  0
  3 51  1  0  0  0  0
  4 52  1  0  0  0  0
  4 53  1  0  0  0  0
  5  4  1  0  0  0  0
  5  6  1  0  0  0  0
  5 27  1  0  0  0  0
  5 54  1  1  0  0  0
  6  7  2  0  0  0  0
  6  8  1  0  0  0  0
  8  9  1  0  0  0  0
  8 55  1  0  0  0  0
  9 10  1  0  0  0  0
  9 35  1  0  0  0  0
  9 56  1  6  0  0  0
 10 11  2  0  0  0  0
 10 12  1  0  0  0  0
 12 13  1  0  0  0  0
 12 57  1  0  0  0  0
 13 14  1  0  0  0  0
 13 31  1  0  0  0  0
 13 58  1  6  0  0  0
 14 15  2  0  0  0  0
 14 16  1  0  0  0  0
 16 17  1  0  0  0  0
 17 18  1  0  0  0  0
 17 59  1  0  0  0  0
 17 60  1  0  0  0  0
 18 19  1  0  0  0  0
 18 61  1  0  0  0  0
 18 62  1  0  0  0  0
 19 20  1  0  0  0  0
 19 63  1  0  0  0  0
 19 64  1  0  0  0  0
 20 16  1  0  0  0  0
 20 21  1  0  0  0  0
 20 65  1  1  0  0  0
 21 22  2  0  0  0  0
 21 23  1  0  0  0  0
 23 24  1  0  0  0  0
 23 66  1  0  0  0  0
 24 25  1  0  0  0  0
 24 28  1  0  0  0  0
 24 67  1  6  0  0  0
 25 26  2  0  0  0  0
 25 27  1  0  0  0  0
 27 68  1  0  0  0  0
 28 29  1  0  0  0  0
 28 30  1  0  0  0  0
 28 69  1  0  0  0  0
 29 70  1  0  0  0  0
 29 71  1  0  0  0  0
 29 72  1  0  0  0  0
 30 73  1  0  0  0  0
 30 74  1  0  0  0  0
 30 75  1  0  0  0  0
 31 32  1  0  0  0  0
 31 76  1  0  0  0  0
 31 77  1  0  0  0  0
 32 33  2  0  0  0  0
 32 34  1  0  0  0  0
 34 78  1  0  0  0  0
 35 36  1  0  0  0  0
 35 79  1  0  0  0  0
 35 80  1  0  0  0  0
 36 37  2  0  0  0  0
 36 40  1  0  0  0  0
 37 38  1  0  0  0  0
 37 81  1  0  0  0  0
 38 39  1  0  0  0  0
 38 82  1  0  0  0  0
 39 40  1  0  0  0  0
 39 44  2  0  0  0  0
 40 41  2  0  0  0  0
 41 42  1  0  0  0  0
 41 83  1  0  0  0  0
 42 43  2  0  0  0  0
 42 84  1  0  0  0  0
 43 44  1  0  0  0  0
 43 85  1  0  0  0  0
 44 86  1  0  0  0  0
M  END
>  <DRUGBANK_ID>
DB12054

>  <COMMON_NAME>
BQ-123

>  <CAS_NUMBER>
136553-81-6

>  <UNII>
S2A8YZM151

$$$$
