
 OpenBabel10282417072D

105112  0  0  0  0  0  0  0  0999 V2000
   -0.2161   -2.6740    0.0000 Cl  0  0  0  0  0  0  0  0  0  0  0  0
    3.4409   -1.7159    0.0000 O   0  0  0  0  0  0  0  0  0  0  0  0
    2.0820   -2.1575    0.0000 O   0  0  0  0  0  0  0  0  0  0  0  0
    4.2057   -4.0697    0.0000 O   0  0  0  0  0  0  0  0  0  0  0  0
    2.5918   -3.7267    0.0000 O   0  0  0  0  0  0  0  0  0  0  0  0
    1.1141   -2.7121    0.0000 O   0  0  0  0  0  0  0  0  0  0  0  0
   -2.2420    0.1885    0.0000 O   0  0  0  0  0  0  0  0  0  0  0  0
   -2.7728   -1.2954    0.0000 O   0  0  0  0  0  0  0  0  0  0  0  0
    0.4482   -4.7502    0.0000 O   0  0  0  0  0  0  0  0  0  0  0  0
   -3.7933   -2.1088    0.0000 O   0  0  0  0  0  0  0  0  0  0  0  0
   -1.5787    1.4540    0.0000 O   0  0  0  0  0  0  0  0  0  0  0  0
   -3.8190    3.4609    0.0000 O   0  0  0  0  0  0  0  0  0  0  0  0
   -5.1310    0.8960    0.0000 O   0  0  0  0  0  0  0  0  0  0  0  0
   -1.6367    3.9658    0.0000 O   0  0  0  0  0  0  0  0  0  0  0  0
    5.3097   -2.8436    0.0000 N   0  0  0  0  0  0  0  0  0  0  0  0
   -3.0354   -4.1031    0.0000 N   0  3  0  0  0  0  0  0  0  0  0  0
   -2.3070    2.6684    0.0000 N   0  0  0  0  0  0  0  0  0  0  0  0
    4.5027   -2.6721    0.0000 C   0  0  2  0  0  0  0  0  0  0  0  0
    4.2478   -1.8874    0.0000 C   0  0  0  0  0  0  0  0  0  0  0  0
    1.8271   -1.3729    0.0000 C   0  0  1  0  0  0  0  0  0  0  0  0
    3.9507   -3.2851    0.0000 C   0  0  2  0  0  0  0  0  0  0  0  0
    2.8889   -2.3290    0.0000 C   0  0  1  0  0  0  0  0  0  0  0  0
    3.1439   -3.1136    0.0000 C   0  0  2  0  0  0  0  0  0  0  0  0
    1.1597   -1.8578    0.0000 C   0  0  1  0  0  0  0  0  0  0  0  0
    1.5722   -0.5883    0.0000 C   0  0  0  0  0  0  0  0  0  0  0  0
    0.4922   -1.3729    0.0000 C   0  0  0  0  0  0  0  0  0  0  0  0
    0.7472   -0.5883    0.0000 C   0  0  0  0  0  0  0  0  0  0  0  0
    5.0324   -1.6325    0.0000 C   0  0  0  0  0  0  0  0  0  0  0  0
    4.4193   -1.0806    0.0000 C   0  0  0  0  0  0  0  0  0  0  0  0
    2.6472   -1.3708    0.0000 C   0  0  0  0  0  0  0  0  0  0  0  0
    2.2368   -0.1080    0.0000 C   0  0  0  0  0  0  0  0  0  0  0  0
    2.8998   -0.5906    0.0000 C   0  0  0  0  0  0  0  0  0  0  0  0
    0.1821    0.0589    0.0000 C   0  0  0  0  0  0  0  0  0  0  0  0
   -0.3454   -1.5645    0.0000 C   0  0  0  0  0  0  0  0  0  0  0  0
    5.8617   -2.2305    0.0000 C   0  0  0  0  0  0  0  0  0  0  0  0
    5.5646   -3.6282    0.0000 C   0  0  0  0  0  0  0  0  0  0  0  0
   -0.6597   -0.1131    0.0000 C   0  0  0  0  0  0  0  0  0  0  0  0
   -0.9252   -0.9304    0.0000 C   0  0  0  0  0  0  0  0  0  0  0  0
   -1.5113   -0.1945    0.0000 C   0  0  2  0  0  0  0  0  0  0  0  0
    0.7281   -3.4756    0.0000 C   0  0  0  0  0  0  0  0  0  0  0  0
   -2.2579   -0.6121    0.0000 C   0  0  0  0  0  0  0  0  0  0  0  0
    0.0671   -4.0186    0.0000 C   0  0  0  0  0  0  0  0  0  0  0  0
   -0.0966   -3.4903    0.0000 C   0  0  0  0  0  0  0  0  0  0  0  0
   -1.6036   -4.1280    0.0000 C   0  0  0  0  0  0  0  0  0  0  0  0
   -0.7567   -4.2491    0.0000 C   0  0  0  0  0  0  0  0  0  0  0  0
   -0.8909   -3.7126    0.0000 C   0  0  0  0  0  0  0  0  0  0  0  0
   -2.3297   -3.6758    0.0000 C   0  0  2  0  0  0  0  0  0  0  0  0
   -2.8120   -2.9692    0.0000 C   0  0  0  0  0  0  0  0  0  0  0  0
   -2.9686   -2.1281    0.0000 C   0  0  0  0  0  0  0  0  0  0  0  0
   -2.2757    1.0127    0.0000 C   0  0  0  0  0  0  0  0  0  0  0  0
   -3.0063    1.3957    0.0000 C   0  0  0  0  0  0  0  0  0  0  0  0
   -3.0400    2.2199    0.0000 C   0  0  0  0  0  0  0  0  0  0  0  0
   -3.7033    0.9543    0.0000 C   0  0  0  0  0  0  0  0  0  0  0  0
   -3.7707    2.6029    0.0000 C   0  0  0  0  0  0  0  0  0  0  0  0
   -4.4340    1.3374    0.0000 C   0  0  0  0  0  0  0  0  0  0  0  0
   -4.4677    2.1616    0.0000 C   0  0  0  0  0  0  0  0  0  0  0  0
   -2.3354    3.5272    0.0000 C   0  0  0  0  0  0  0  0  0  0  0  0
   -3.0965    3.9261    0.0000 C   0  0  0  0  0  0  0  0  0  0  0  0
   -5.8617    1.2790    0.0000 C   0  0  0  0  0  0  0  0  0  0  0  0
   -3.1334    4.7502    0.0000 C   0  0  0  0  0  0  0  0  0  0  0  0
    1.6936   -2.2457    0.0000 H   0  0  0  0  0  0  0  0  0  0  0  0
   -3.3004   -3.6656    0.0000 H   0  0  0  0  0  0  0  0  0  0  0  0
   -2.7704   -4.5406    0.0000 H   0  0  0  0  0  0  0  0  0  0  0  0
   -3.4729   -4.3681    0.0000 H   0  0  0  0  0  0  0  0  0  0  0  0
   -1.8568    2.4257    0.0000 H   0  0  0  0  0  0  0  0  0  0  0  0
    3.5567   -4.7906    0.0000 H   0  0  0  0  0  0  0  0  0  0  0  0
    1.6430   -3.5250    0.0000 H   0  0  0  0  0  0  0  0  0  0  0  0
   -0.0550   -5.5406    0.0000 H   0  0  0  0  0  0  0  0  0  0  0  0
    5.2187   -1.8769    0.0000 H   0  0  0  0  0  0  0  0  0  0  0  0
    4.9973   -3.5075    0.0000 H   0  0  0  0  0  0  0  0  0  0  0  0
    2.5582   -1.3114    0.0000 H   0  0  0  0  0  0  0  0  0  0  0  0
    3.4745   -4.1312    0.0000 H   0  0  0  0  0  0  0  0  0  0  0  0
    5.8275   -2.3485    0.0000 H   0  0  0  0  0  0  0  0  0  0  0  0
    5.2549   -0.5859    0.0000 H   0  0  0  0  0  0  0  0  0  0  0  0
    6.0500   -1.3019    0.0000 H   0  0  0  0  0  0  0  0  0  0  0  0
    5.4369   -0.7500    0.0000 H   0  0  0  0  0  0  0  0  0  0  0  0
    3.6241   -0.3646    0.0000 H   0  0  0  0  0  0  0  0  0  0  0  0
    4.6418   -0.0340    0.0000 H   0  0  0  0  0  0  0  0  0  0  0  0
    3.2553   -2.2046    0.0000 H   0  0  0  0  0  0  0  0  0  0  0  0
    2.2386    0.9240    0.0000 H   0  0  0  0  0  0  0  0  0  0  0  0
    3.8813   -0.2716    0.0000 H   0  0  0  0  0  0  0  0  0  0  0  0
    0.5123    1.0366    0.0000 H   0  0  0  0  0  0  0  0  0  0  0  0
   -0.6529   -2.5496    0.0000 H   0  0  0  0  0  0  0  0  0  0  0  0
    6.9083   -2.4529    0.0000 H   0  0  0  0  0  0  0  0  0  0  0  0
    5.5310   -1.2129    0.0000 H   0  0  0  0  0  0  0  0  0  0  0  0
    6.5776   -1.4353    0.0000 H   0  0  0  0  0  0  0  0  0  0  0  0
    4.8486   -4.4233    0.0000 H   0  0  0  0  0  0  0  0  0  0  0  0
    6.6112   -3.8507    0.0000 H   0  0  0  0  0  0  0  0  0  0  0  0
    5.8952   -4.6458    0.0000 H   0  0  0  0  0  0  0  0  0  0  0  0
   -1.9338   -1.1489    0.0000 H   0  0  0  0  0  0  0  0  0  0  0  0
   -1.3053    0.8555    0.0000 H   0  0  0  0  0  0  0  0  0  0  0  0
   -2.9614    0.1941    0.0000 H   0  0  0  0  0  0  0  0  0  0  0  0
   -2.0751    0.4422    0.0000 H   0  0  0  0  0  0  0  0  0  0  0  0
   -0.6893   -5.2789    0.0000 H   0  0  0  0  0  0  0  0  0  0  0  0
   -1.2931   -2.7622    0.0000 H   0  0  0  0  0  0  0  0  0  0  0  0
   -2.3364   -4.7458    0.0000 H   0  0  0  0  0  0  0  0  0  0  0  0
   -3.8010   -3.3775    0.0000 H   0  0  0  0  0  0  0  0  0  0  0  0
   -3.7522   -2.4585    0.0000 H   0  0  0  0  0  0  0  0  0  0  0  0
   -3.6612   -0.0768    0.0000 H   0  0  0  0  0  0  0  0  0  0  0  0
   -5.3818    2.6407    0.0000 H   0  0  0  0  0  0  0  0  0  0  0  0
   -5.9054    2.3481    0.0000 H   0  0  0  0  0  0  0  0  0  0  0  0
   -6.7657    0.7066    0.0000 H   0  0  0  0  0  0  0  0  0  0  0  0
   -6.8094    1.7757    0.0000 H   0  0  0  0  0  0  0  0  0  0  0  0
   -2.2636    5.3057    0.0000 H   0  0  0  0  0  0  0  0  0  0  0  0
   -4.0493    5.2257    0.0000 H   0  0  0  0  0  0  0  0  0  0  0  0
  1 43  1  0  0  0  0
  2 19  1  0  0  0  0
  2 22  1  0  0  0  0
  4 66  1  0  0  0  0
  5 67  1  0  0  0  0
  6 24  1  0  0  0  0
  6 40  1  0  0  0  0
  7 50  1  0  0  0  0
  8 41  1  0  0  0  0
  8 49  1  0  0  0  0
  9 42  1  0  0  0  0
  9 68  1  0  0  0  0
 10 49  2  0  0  0  0
 11 50  2  0  0  0  0
 12 54  1  0  0  0  0
 12 58  1  0  0  0  0
 13 55  1  0  0  0  0
 13 59  1  0  0  0  0
 14 57  2  0  0  0  0
 15 35  1  0  0  0  0
 15 36  1  0  0  0  0
 16 62  1  0  0  0  0
 16 63  1  0  0  0  0
 16 64  1  0  0  0  0
 17 52  1  0  0  0  0
 17 57  1  0  0  0  0
 17 65  1  0  0  0  0
 18 15  1  0  0  0  0
 18 19  1  0  0  0  0
 18 21  1  0  0  0  0
 18 69  1  6  0  0  0
 19 28  1  0  0  0  0
 19 29  1  0  0  0  0
 20  3  1  1  0  0  0
 20 24  1  0  0  0  0
 20 25  1  0  0  0  0
 20 30  1  0  0  0  0
 21  4  1  0  0  0  0
 21 23  1  0  0  0  0
 21 70  1  6  0  0  0
 22  3  1  0  0  0  0
 22 23  1  0  0  0  0
 22 71  1  1  0  0  0
 23  5  1  0  0  0  0
 23 72  1  6  0  0  0
 24 26  1  0  0  0  0
 24 61  1  1  0  0  0
 25 27  1  0  0  0  0
 25 31  2  0  0  0  0
 26 27  2  0  0  0  0
 26 34  1  0  0  0  0
 27 33  1  0  0  0  0
 28 73  1  0  0  0  0
 28 74  1  0  0  0  0
 28 75  1  0  0  0  0
 29 76  1  0  0  0  0
 29 77  1  0  0  0  0
 29 78  1  0  0  0  0
 30 32  2  0  0  0  0
 30 79  1  0  0  0  0
 31 32  1  0  0  0  0
 31 80  1  0  0  0  0
 32 81  1  0  0  0  0
 33 37  2  0  0  0  0
 33 82  1  0  0  0  0
 34 38  2  0  0  0  0
 34 83  1  0  0  0  0
 35 84  1  0  0  0  0
 35 85  1  0  0  0  0
 35 86  1  0  0  0  0
 36 87  1  0  0  0  0
 36 88  1  0  0  0  0
 36 89  1  0  0  0  0
 37 38  1  0  0  0  0
 37 39  1  0  0  0  0
 38 90  1  0  0  0  0
 39  7  1  0  0  0  0
 39 41  1  0  0  0  0
 39 91  1  1  0  0  0
 40 42  2  0  0  0  0
 40 43  1  0  0  0  0
 41 92  1  0  0  0  0
 41 93  1  0  0  0  0
 42 45  1  0  0  0  0
 43 46  2  0  0  0  0
 44 45  2  0  0  0  0
 44 46  1  0  0  0  0
 44 47  1  0  0  0  0
 45 94  1  0  0  0  0
 46 95  1  0  0  0  0
 47 16  1  0  0  0  0
 47 48  1  0  0  0  0
 47 96  1  6  0  0  0
 48 49  1  0  0  0  0
 48 97  1  0  0  0  0
 48 98  1  0  0  0  0
 50 51  1  0  0  0  0
 51 52  2  0  0  0  0
 51 53  1  0  0  0  0
 52 54  1  0  0  0  0
 53 55  2  0  0  0  0
 53 99  1  0  0  0  0
 54 56  2  0  0  0  0
 55 56  1  0  0  0  0
 56100  1  0  0  0  0
 57 58  1  0  0  0  0
 58 60  2  0  0  0  0
 59101  1  0  0  0  0
 59102  1  0  0  0  0
 59103  1  0  0  0  0
 60104  1  0  0  0  0
 60105  1  0  0  0  0
M  CHG  1  16   1
M  END
>  <DRUGBANK_ID>
DB03933

>  <SECONDARY_ACCESSION_NUMBERS>
EXPT02805

>  <COMMON_NAME>
C-1027 Aromatized chromophore

$$$$
