
 OpenBabel10282417072D

 57 61  0  0  0  0  0  0  0  0999 V2000
    3.3680   -1.3827    0.0000 S   0  0  0  0  0  0  0  0  0  0  0  0
    0.8929    0.0462    0.0000 O   0  0  0  0  0  0  0  0  0  0  0  0
    2.1305   -3.5262    0.0000 O   0  0  0  0  0  0  0  0  0  0  0  0
   -3.1461    0.5396    0.0000 O   0  0  0  0  0  0  0  0  0  0  0  0
   -1.1695    2.1896    0.0000 N   0  0  0  0  0  0  0  0  0  0  0  0
    2.1305    0.7607    0.0000 N   0  0  0  0  0  0  0  0  0  0  0  0
   -1.6510    2.8535    0.0000 N   0  0  0  0  0  0  0  0  0  0  0  0
   -1.6510    1.5257    0.0000 N   0  0  0  0  0  0  0  0  0  0  0  0
   -3.1461    3.0146    0.0000 N   0  0  0  0  0  0  0  0  0  0  0  0
   -3.8605    1.7771    0.0000 N   0  0  0  0  0  0  0  0  0  0  0  0
   -4.5751    3.0146    0.0000 N   0  0  0  0  0  0  0  0  0  0  0  0
    3.3680    0.0462    0.0000 C   0  0  0  0  0  0  0  0  0  0  0  0
    2.5430    0.0462    0.0000 C   0  0  0  0  0  0  0  0  0  0  0  0
   -0.3445    2.1896    0.0000 C   0  0  0  0  0  0  0  0  0  0  0  0
    0.8929    1.4752    0.0000 C   0  0  0  0  0  0  0  0  0  0  0  0
    0.0679    1.4752    0.0000 C   0  0  0  0  0  0  0  0  0  0  0  0
    3.7805   -0.6682    0.0000 C   0  0  0  0  0  0  0  0  0  0  0  0
    1.3055    0.7607    0.0000 C   0  0  0  0  0  0  0  0  0  0  0  0
    0.0679    2.9041    0.0000 C   0  0  0  0  0  0  0  0  0  0  0  0
   -2.4316    2.6021    0.0000 C   0  0  0  0  0  0  0  0  0  0  0  0
   -2.4316    1.7771    0.0000 C   0  0  0  0  0  0  0  0  0  0  0  0
    1.3055    2.1896    0.0000 C   0  0  0  0  0  0  0  0  0  0  0  0
    3.7805    0.7607    0.0000 C   0  0  0  0  0  0  0  0  0  0  0  0
    0.8929    2.9041    0.0000 C   0  0  0  0  0  0  0  0  0  0  0  0
    3.7805   -2.0972    0.0000 C   0  0  0  0  0  0  0  0  0  0  0  0
    4.6055   -0.6682    0.0000 C   0  0  0  0  0  0  0  0  0  0  0  0
    3.3680   -2.8117    0.0000 C   0  0  0  0  0  0  0  0  0  0  0  0
    4.6055    0.7607    0.0000 C   0  0  0  0  0  0  0  0  0  0  0  0
    5.0180    0.0462    0.0000 C   0  0  0  0  0  0  0  0  0  0  0  0
   -3.1461    1.3646    0.0000 C   0  0  0  0  0  0  0  0  0  0  0  0
    4.6055   -2.0972    0.0000 C   0  0  0  0  0  0  0  0  0  0  0  0
    3.7805   -3.5262    0.0000 C   0  0  0  0  0  0  0  0  0  0  0  0
    2.5430   -2.8117    0.0000 C   0  0  0  0  0  0  0  0  0  0  0  0
    5.0180   -2.8117    0.0000 C   0  0  0  0  0  0  0  0  0  0  0  0
    4.6055   -3.5262    0.0000 C   0  0  0  0  0  0  0  0  0  0  0  0
   -3.8605    2.6021    0.0000 C   0  0  0  0  0  0  0  0  0  0  0  0
    2.3862    1.2037    0.0000 H   0  0  0  0  0  0  0  0  0  0  0  0
   -1.4921    3.3398    0.0000 H   0  0  0  0  0  0  0  0  0  0  0  0
   -4.5751    3.5262    0.0000 H   0  0  0  0  0  0  0  0  0  0  0  0
   -5.0180    2.7589    0.0000 H   0  0  0  0  0  0  0  0  0  0  0  0
    1.1605   -3.5262    0.0000 H   0  0  0  0  0  0  0  0  0  0  0  0
    2.0080   -0.8804    0.0000 H   0  0  0  0  0  0  0  0  0  0  0  0
    3.0780   -0.8804    0.0000 H   0  0  0  0  0  0  0  0  0  0  0  0
   -0.4481    0.5815    0.0000 H   0  0  0  0  0  0  0  0  0  0  0  0
   -0.4482    3.7978    0.0000 H   0  0  0  0  0  0  0  0  0  0  0  0
    2.3375    2.1896    0.0000 H   0  0  0  0  0  0  0  0  0  0  0  0
    3.2645    1.6544    0.0000 H   0  0  0  0  0  0  0  0  0  0  0  0
    1.4089    3.7979    0.0000 H   0  0  0  0  0  0  0  0  0  0  0  0
    5.1215   -1.5619    0.0000 H   0  0  0  0  0  0  0  0  0  0  0  0
    5.1215    1.6544    0.0000 H   0  0  0  0  0  0  0  0  0  0  0  0
    6.0500    0.0462    0.0000 H   0  0  0  0  0  0  0  0  0  0  0  0
    5.1215   -1.2035    0.0000 H   0  0  0  0  0  0  0  0  0  0  0  0
    3.2645   -4.4199    0.0000 H   0  0  0  0  0  0  0  0  0  0  0  0
    2.0080   -1.8851    0.0000 H   0  0  0  0  0  0  0  0  0  0  0  0
    3.0780   -1.8851    0.0000 H   0  0  0  0  0  0  0  0  0  0  0  0
    6.0500   -2.8117    0.0000 H   0  0  0  0  0  0  0  0  0  0  0  0
    5.1215   -4.4199    0.0000 H   0  0  0  0  0  0  0  0  0  0  0  0
  1 17  1  0  0  0  0
  1 25  1  0  0  0  0
  2 18  2  0  0  0  0
  3 33  1  0  0  0  0
  3 41  1  0  0  0  0
  4 30  2  0  0  0  0
  5  7  1  0  0  0  0
  5  8  1  0  0  0  0
  5 14  1  0  0  0  0
  6 13  1  0  0  0  0
  6 18  1  0  0  0  0
  6 37  1  0  0  0  0
  7 20  1  0  0  0  0
  7 38  1  0  0  0  0
  8 21  2  0  0  0  0
  9 20  2  0  0  0  0
  9 36  1  0  0  0  0
 10 30  1  0  0  0  0
 10 36  2  0  0  0  0
 11 36  1  0  0  0  0
 11 39  1  0  0  0  0
 11 40  1  0  0  0  0
 12 13  1  0  0  0  0
 12 17  1  0  0  0  0
 12 23  2  0  0  0  0
 13 42  1  0  0  0  0
 13 43  1  0  0  0  0
 14 16  1  0  0  0  0
 14 19  2  0  0  0  0
 15 16  2  0  0  0  0
 15 18  1  0  0  0  0
 15 22  1  0  0  0  0
 16 44  1  0  0  0  0
 17 26  2  0  0  0  0
 19 24  1  0  0  0  0
 19 45  1  0  0  0  0
 20 21  1  0  0  0  0
 21 30  1  0  0  0  0
 22 24  2  0  0  0  0
 22 46  1  0  0  0  0
 23 28  1  0  0  0  0
 23 47  1  0  0  0  0
 24 48  1  0  0  0  0
 25 27  1  0  0  0  0
 25 31  2  0  0  0  0
 26 29  1  0  0  0  0
 26 49  1  0  0  0  0
 27 32  2  0  0  0  0
 27 33  1  0  0  0  0
 28 29  2  0  0  0  0
 28 50  1  0  0  0  0
 29 51  1  0  0  0  0
 31 34  1  0  0  0  0
 31 52  1  0  0  0  0
 32 35  1  0  0  0  0
 32 53  1  0  0  0  0
 33 54  1  0  0  0  0
 33 55  1  0  0  0  0
 34 35  2  0  0  0  0
 34 56  1  0  0  0  0
 35 57  1  0  0  0  0
M  END
>  <DRUGBANK_ID>
DB03231

>  <SECONDARY_ACCESSION_NUMBERS>
EXPT02670

>  <COMMON_NAME>
3-(5-Amino-7-oxo-3,7-dihydro-2H-[1,2,3]triazolo[4,5-d]pyrimidin-2-yl)-N-(2-{[2-(hydroxymethyl)phenyl]sulfanyl}benzyl)benzamide

$$$$
