
 OpenBabel10282417072D

121123  0  0  0  0  0  0  0  0999 V2000
    6.6042  -11.5667    0.0000 C   0  0  2  0  0  0  0  0  0  0  0  0
    4.6667  -11.7500    0.0000 C   0  0  2  0  0  0  0  0  0  0  0  0
    3.2292  -11.7542    0.0000 C   0  0  0  0  0  0  0  0  0  0  0  0
    2.5042   -9.6917    0.0000 C   0  0  1  0  0  0  0  0  0  0  0  0
    3.9542  -12.1625    0.0000 C   0  0  2  0  0  0  0  0  0  0  0  0
    7.3167  -11.1417    0.0000 C   0  0  1  0  0  0  0  0  0  0  0  0
    5.3750  -10.5167    0.0000 C   0  0  1  0  0  0  0  0  0  0  0  0
    4.6625  -10.9250    0.0000 C   0  0  1  0  0  0  0  0  0  0  0  0
    3.2292   -8.4542    0.0000 C   0  0  2  0  0  0  0  0  0  0  0  0
    3.2292  -10.9292    0.0000 O   0  0  0  0  0  0  0  0  0  0  0  0
    3.2292   -9.2792    0.0000 C   0  0  1  0  0  0  0  0  0  0  0  0
    3.9417   -8.0417    0.0000 C   0  0  0  0  0  0  0  0  0  0  0  0
    6.0875  -10.9292    0.0000 O   0  0  0  0  0  0  0  0  0  0  0  0
    4.5000  -14.8375    0.0000 C   0  0  2  0  0  0  0  0  0  0  0  0
    8.0417  -11.5500    0.0000 C   0  0  2  0  0  0  0  0  0  0  0  0
    5.3750   -9.6917    0.0000 C   0  0  1  0  0  0  0  0  0  0  0  0
    4.5125  -13.3042    0.0000 C   0  0  1  0  0  0  0  0  0  0  0  0
    4.9292  -14.1292    0.0000 C   0  0  0  0  0  0  0  0  0  0  0  0
    6.6167  -12.3917    0.0000 O   0  0  0  0  0  0  0  0  0  0  0  0
    3.7042  -13.3792    0.0000 O   0  0  0  0  0  0  0  0  0  0  0  0
    2.5167  -10.5167    0.0000 C   0  0  2  0  0  0  0  0  0  0  0  0
    3.6750  -14.8125    0.0000 C   0  0  2  0  0  0  0  0  0  0  0  0
    5.0917  -12.5750    0.0000 O   0  0  0  0  0  0  0  0  0  0  0  0
    3.2750  -14.0792    0.0000 C   0  0  2  0  0  0  0  0  0  0  0  0
    4.6625   -8.4542    0.0000 C   0  0  1  0  0  0  0  0  0  0  0  0
    4.6625   -9.2792    0.0000 C   0  0  0  0  0  0  0  0  0  0  0  0
    8.0542  -12.3792    0.0000 C   0  0  0  0  0  0  0  0  0  0  0  0
    8.7542  -11.1292    0.0000 N   0  0  0  0  0  0  0  0  0  0  0  0
    2.5167  -12.1667    0.0000 O   0  0  0  0  0  0  0  0  0  0  0  0
    7.3417  -12.7917    0.0000 C   0  0  1  0  0  0  0  0  0  0  0  0
    3.9417   -7.2167    0.0000 O   0  0  0  0  0  0  0  0  0  0  0  0
    2.0042   -9.0417    0.0000 O   0  0  0  0  0  0  0  0  0  0  0  0
    7.3125  -10.3167    0.0000 O   0  0  0  0  0  0  0  0  0  0  0  0
    3.9417   -9.6917    0.0000 O   0  0  0  0  0  0  0  0  0  0  0  0
    4.0542  -15.5375    0.0000 O   0  0  0  0  0  0  0  0  0  0  0  0
    5.3667   -8.8625    0.0000 O   0  0  0  0  0  0  0  0  0  0  0  0
    3.2292  -15.5042    0.0000 O   0  0  0  0  0  0  0  0  0  0  0  0
    1.8417   -9.9375    0.0000 C   0  0  0  0  0  0  0  0  0  0  0  0
    3.8875  -12.8500    0.0000 C   0  0  0  0  0  0  0  0  0  0  0  0
    3.9417  -10.5125    0.0000 C   0  0  0  0  0  0  0  0  0  0  0  0
    2.5167   -8.0417    0.0000 C   0  0  0  0  0  0  0  0  0  0  0  0
    5.3167  -14.8625    0.0000 C   0  0  0  0  0  0  0  0  0  0  0  0
    6.0875  -10.1042    0.0000 C   0  0  0  0  0  0  0  0  0  0  0  0
    1.8042  -10.9292    0.0000 C   0  0  0  0  0  0  0  0  0  0  0  0
    2.4417  -14.0667    0.0000 C   0  0  0  0  0  0  0  0  0  0  0  0
    5.3750   -8.0417    0.0000 C   0  0  0  0  0  0  0  0  0  0  0  0
    8.7417  -10.3042    0.0000 C   0  0  0  0  0  0  0  0  0  0  0  0
    9.4750  -11.5375    0.0000 C   0  0  0  0  0  0  0  0  0  0  0  0
    7.3542  -13.5500    0.0000 C   0  0  0  0  0  0  0  0  0  0  0  0
    4.4500  -16.2667    0.0000 C   0  0  0  0  0  0  0  0  0  0  0  0
    6.0792   -8.4417    0.0000 C   0  0  0  0  0  0  0  0  0  0  0  0
    1.0875  -10.5167    0.0000 C   0  0  0  0  0  0  0  0  0  0  0  0
    5.4292  -13.3417    0.0000 H   0  0  0  0  0  0  0  0  0  0  0  0
    5.8917  -11.9667    0.0000 H   0  0  0  0  0  0  0  0  0  0  0  0
    5.7059  -11.4952    0.0000 H   0  0  0  0  0  0  0  0  0  0  0  0
    3.0054  -12.6572    0.0000 H   0  0  0  0  0  0  0  0  0  0  0  0
    6.3849  -10.6157    0.0000 H   0  0  0  0  0  0  0  0  0  0  0  0
    5.3726  -11.5867    0.0000 H   0  0  0  0  0  0  0  0  0  0  0  0
    3.7382  -11.4641    0.0000 H   0  0  0  0  0  0  0  0  0  0  0  0
    3.2292   -7.3842    0.0000 H   0  0  0  0  0  0  0  0  0  0  0  0
    3.2252  -10.3492    0.0000 H   0  0  0  0  0  0  0  0  0  0  0  0
    8.0307  -10.4801    0.0000 H   0  0  0  0  0  0  0  0  0  0  0  0
    5.9984  -14.1704    0.0000 H   0  0  0  0  0  0  0  0  0  0  0  0
    5.5073  -13.2288    0.0000 H   0  0  0  0  0  0  0  0  0  0  0  0
    2.5167  -11.5867    0.0000 H   0  0  0  0  0  0  0  0  0  0  0  0
    2.6057  -14.7734    0.0000 H   0  0  0  0  0  0  0  0  0  0  0  0
    2.7219  -14.9952    0.0000 H   0  0  0  0  0  0  0  0  0  0  0  0
    4.6598   -7.3842    0.0000 H   0  0  0  0  0  0  0  0  0  0  0  0
    3.7355   -9.8136    0.0000 H   0  0  0  0  0  0  0  0  0  0  0  0
    4.6615  -10.3492    0.0000 H   0  0  0  0  0  0  0  0  0  0  0  0
    8.9852  -12.9066    0.0000 H   0  0  0  0  0  0  0  0  0  0  0  0
    8.9746  -11.8335    0.0000 H   0  0  0  0  0  0  0  0  0  0  0  0
    8.2730  -13.3185    0.0000 H   0  0  0  0  0  0  0  0  0  0  0  0
    2.3743   -8.1451    0.0000 H   0  0  0  0  0  0  0  0  0  0  0  0
    8.1501   -9.8274    0.0000 H   0  0  0  0  0  0  0  0  0  0  0  0
    3.9405  -10.6617    0.0000 H   0  0  0  0  0  0  0  0  0  0  0  0
    2.2604  -15.4568    0.0000 H   0  0  0  0  0  0  0  0  0  0  0  0
    1.0178   -9.2548    0.0000 H   0  0  0  0  0  0  0  0  0  0  0  0
    1.6624  -10.9924    0.0000 H   0  0  0  0  0  0  0  0  0  0  0  0
    0.8385  -10.3097    0.0000 H   0  0  0  0  0  0  0  0  0  0  0  0
    2.9135  -13.2930    0.0000 H   0  0  0  0  0  0  0  0  0  0  0  0
    4.7582  -13.4720    0.0000 H   0  0  0  0  0  0  0  0  0  0  0  0
    3.7842  -13.9150    0.0000 H   0  0  0  0  0  0  0  0  0  0  0  0
    3.9376   -9.4425    0.0000 H   0  0  0  0  0  0  0  0  0  0  0  0
    3.0171  -11.0510    0.0000 H   0  0  0  0  0  0  0  0  0  0  0  0
    3.0130   -9.9810    0.0000 H   0  0  0  0  0  0  0  0  0  0  0  0
    2.5180   -6.9717    0.0000 H   0  0  0  0  0  0  0  0  0  0  0  0
    1.5894   -8.5756    0.0000 H   0  0  0  0  0  0  0  0  0  0  0  0
    1.5907   -7.5056    0.0000 H   0  0  0  0  0  0  0  0  0  0  0  0
    5.8231  -15.8051    0.0000 H   0  0  0  0  0  0  0  0  0  0  0  0
    5.8798  -13.9527    0.0000 H   0  0  0  0  0  0  0  0  0  0  0  0
    6.3862  -14.8952    0.0000 H   0  0  0  0  0  0  0  0  0  0  0  0
    6.0862  -11.1742    0.0000 H   0  0  0  0  0  0  0  0  0  0  0  0
    7.0148   -9.5703    0.0000 H   0  0  0  0  0  0  0  0  0  0  0  0
    7.0135  -10.6403    0.0000 H   0  0  0  0  0  0  0  0  0  0  0  0
    1.8056  -11.9992    0.0000 H   0  0  0  0  0  0  0  0  0  0  0  0
    0.8783  -11.4654    0.0000 H   0  0  0  0  0  0  0  0  0  0  0  0
    1.9207  -13.1321    0.0000 H   0  0  0  0  0  0  0  0  0  0  0  0
    1.8929  -14.9852    0.0000 H   0  0  0  0  0  0  0  0  0  0  0  0
    1.3718  -14.0507    0.0000 H   0  0  0  0  0  0  0  0  0  0  0  0
    6.3023   -8.5756    0.0000 H   0  0  0  0  0  0  0  0  0  0  0  0
    5.3737   -6.9717    0.0000 H   0  0  0  0  0  0  0  0  0  0  0  0
    6.3010   -7.5056    0.0000 H   0  0  0  0  0  0  0  0  0  0  0  0
    9.6601   -9.7552    0.0000 H   0  0  0  0  0  0  0  0  0  0  0  0
    7.8071   -9.7833    0.0000 H   0  0  0  0  0  0  0  0  0  0  0  0
    8.7255   -9.2343    0.0000 H   0  0  0  0  0  0  0  0  0  0  0  0
    9.4838  -12.6075    0.0000 H   0  0  0  0  0  0  0  0  0  0  0  0
   10.3972  -10.9949    0.0000 H   0  0  0  0  0  0  0  0  0  0  0  0
   10.4060  -12.0649    0.0000 H   0  0  0  0  0  0  0  0  0  0  0  0
    6.4365  -14.1002    0.0000 H   0  0  0  0  0  0  0  0  0  0  0  0
    8.2895  -14.0697    0.0000 H   0  0  0  0  0  0  0  0  0  0  0  0
    7.3718  -14.6199    0.0000 H   0  0  0  0  0  0  0  0  0  0  0  0
    3.8908  -17.1790    0.0000 H   0  0  0  0  0  0  0  0  0  0  0  0
    5.5196  -16.2948    0.0000 H   0  0  0  0  0  0  0  0  0  0  0  0
    4.9604  -17.2071    0.0000 H   0  0  0  0  0  0  0  0  0  0  0  0
    7.0111   -8.9675    0.0000 H   0  0  0  0  0  0  0  0  0  0  0  0
    6.0686   -7.3718    0.0000 H   0  0  0  0  0  0  0  0  0  0  0  0
    7.0005   -7.8976    0.0000 H   0  0  0  0  0  0  0  0  0  0  0  0
    1.0861   -9.4467    0.0000 H   0  0  0  0  0  0  0  0  0  0  0  0
    0.1616  -11.0529    0.0000 H   0  0  0  0  0  0  0  0  0  0  0  0
    0.1601   -9.9829    0.0000 H   0  0  0  0  0  0  0  0  0  0  0  0
  1 54  1  6  0  0  0
  2  8  1  0  0  0  0
  2 23  1  0  0  0  0
  2 55  1  1  0  0  0
  3  5  1  0  0  0  0
  4 11  1  0  0  0  0
  4 32  1  1  0  0  0
  5  2  1  0  0  0  0
  5 39  1  0  0  0  0
  5 56  1  6  0  0  0
  6  1  1  0  0  0  0
  6 33  1  0  0  0  0
  6 57  1  1  0  0  0
  7 13  1  0  0  0  0
  7 58  1  1  0  0  0
  8  7  1  0  0  0  0
  8 40  1  0  0  0  0
  8 59  1  1  0  0  0
  9 12  1  0  0  0  0
  9 41  1  0  0  0  0
  9 60  1  6  0  0  0
 10  3  1  0  0  0  0
 11  9  1  0  0  0  0
 11 34  1  0  0  0  0
 11 61  1  6  0  0  0
 12 25  1  0  0  0  0
 13  1  1  0  0  0  0
 14 18  1  0  0  0  0
 14 35  1  1  0  0  0
 14 22  1  0  0  0  0
 15  6  1  0  0  0  0
 15 28  1  0  0  0  0
 15 27  1  0  0  0  0
 15 62  1  6  0  0  0
 16  7  1  0  0  0  0
 16 36  1  1  0  0  0
 17 23  1  0  0  0  0
 17 53  1  6  0  0  0
 18 17  1  0  0  0  0
 18 63  1  0  0  0  0
 18 64  1  0  0  0  0
 19  1  1  0  0  0  0
 20 17  1  0  0  0  0
 21 10  1  0  0  0  0
 21 44  1  0  0  0  0
 21  4  1  0  0  0  0
 21 65  1  1  0  0  0
 22 24  1  0  0  0  0
 22 37  1  0  0  0  0
 22 66  1  6  0  0  0
 24 20  1  0  0  0  0
 24 45  1  0  0  0  0
 24 67  1  1  0  0  0
 25 26  1  0  0  0  0
 25 46  1  0  0  0  0
 25 68  1  1  0  0  0
 26 16  1  0  0  0  0
 26 69  1  0  0  0  0
 26 70  1  0  0  0  0
 27 30  1  0  0  0  0
 27 71  1  0  0  0  0
 27 72  1  0  0  0  0
 29  3  2  0  0  0  0
 30 19  1  0  0  0  0
 30 49  1  0  0  0  0
 30 73  1  6  0  0  0
 31 12  2  0  0  0  0
 32 74  1  0  0  0  0
 33 75  1  0  0  0  0
 34 76  1  0  0  0  0
 37 77  1  0  0  0  0
 38  4  1  0  0  0  0
 38 78  1  0  0  0  0
 38 79  1  0  0  0  0
 38 80  1  0  0  0  0
 39 81  1  0  0  0  0
 39 82  1  0  0  0  0
 39 83  1  0  0  0  0
 40 84  1  0  0  0  0
 40 85  1  0  0  0  0
 40 86  1  0  0  0  0
 41 87  1  0  0  0  0
 41 88  1  0  0  0  0
 41 89  1  0  0  0  0
 42 14  1  0  0  0  0
 42 90  1  0  0  0  0
 42 91  1  0  0  0  0
 42 92  1  0  0  0  0
 43 16  1  0  0  0  0
 43 93  1  0  0  0  0
 43 94  1  0  0  0  0
 43 95  1  0  0  0  0
 44 96  1  0  0  0  0
 44 97  1  0  0  0  0
 45 98  1  0  0  0  0
 45 99  1  0  0  0  0
 45100  1  0  0  0  0
 46101  1  0  0  0  0
 46102  1  0  0  0  0
 46103  1  0  0  0  0
 47 28  1  0  0  0  0
 47104  1  0  0  0  0
 47105  1  0  0  0  0
 47106  1  0  0  0  0
 48 28  1  0  0  0  0
 48107  1  0  0  0  0
 48108  1  0  0  0  0
 48109  1  0  0  0  0
 49110  1  0  0  0  0
 49111  1  0  0  0  0
 49112  1  0  0  0  0
 50 35  1  0  0  0  0
 50113  1  0  0  0  0
 50114  1  0  0  0  0
 50115  1  0  0  0  0
 51 36  1  0  0  0  0
 51116  1  0  0  0  0
 51117  1  0  0  0  0
 51118  1  0  0  0  0
 52 44  1  0  0  0  0
 52119  1  0  0  0  0
 52120  1  0  0  0  0
 52121  1  0  0  0  0
M  END
>  <DRUGBANK_ID>
DB01211

>  <SECONDARY_ACCESSION_NUMBERS>
APRD00181

>  <COMMON_NAME>
Clarithromycin

>  <CAS_NUMBER>
81103-11-9

>  <UNII>
H1250JIK0A

>  <SYNONYMS>
6-O-methyl erythromycin; 6-O-methylerythromycin; 6-O-methylerythromycin A; CLA; Clarithromycin; Clarithromycina; Clarithromycine; Clarithromycinum; Claritromicina

$$$$
