
 OpenBabel10282417072D

 48 51  0  0  0  0  0  0  0  0999 V2000
   -5.5495   -0.1977    0.0000 C   0  0  0  0  0  0  0  0  0  0  0  0
   -5.5495   -1.0227    0.0000 C   0  0  0  0  0  0  0  0  0  0  0  0
   -4.8350   -1.4352    0.0000 C   0  0  0  0  0  0  0  0  0  0  0  0
   -4.8350   -2.2602    0.0000 C   0  0  0  0  0  0  0  0  0  0  0  0
   -5.5495   -2.6727    0.0000 C   0  0  0  0  0  0  0  0  0  0  0  0
   -6.2640   -2.2602    0.0000 C   0  0  0  0  0  0  0  0  0  0  0  0
   -6.2640   -1.4352    0.0000 C   0  0  0  0  0  0  0  0  0  0  0  0
   -6.9784   -1.0227    0.0000 N   0  0  0  0  0  0  0  0  0  0  0  0
   -7.7321   -1.3583    0.0000 N   0  0  0  0  0  0  0  0  0  0  0  0
   -8.2841   -0.7452    0.0000 C   0  0  0  0  0  0  0  0  0  0  0  0
   -7.8716   -0.0307    0.0000 C   0  0  0  0  0  0  0  0  0  0  0  0
   -8.2072    0.7230    0.0000 C   0  0  0  0  0  0  0  0  0  0  0  0
   -7.7223    1.3904    0.0000 O   0  0  0  0  0  0  0  0  0  0  0  0
   -9.0277    0.8092    0.0000 C   0  0  0  0  0  0  0  0  0  0  0  0
   -9.5126    0.1418    0.0000 C   0  0  0  0  0  0  0  0  0  0  0  0
  -10.3331    0.2280    0.0000 C   0  0  0  0  0  0  0  0  0  0  0  0
  -10.6686    0.9817    0.0000 C   0  0  0  0  0  0  0  0  0  0  0  0
  -10.1837    1.6491    0.0000 C   0  0  0  0  0  0  0  0  0  0  0  0
   -9.3632    1.5629    0.0000 C   0  0  0  0  0  0  0  0  0  0  0  0
  -10.5193    2.4028    0.0000 C   0  0  0  0  0  0  0  0  0  0  0  0
  -10.8548    3.1565    0.0000 N   0  0  0  0  0  0  0  0  0  0  0  0
   -7.0647   -0.2022    0.0000 C   0  0  0  0  0  0  0  0  0  0  0  0
   -6.4516    0.3498    0.0000 N   0  0  0  0  0  0  0  0  0  0  0  0
   -5.5495   -3.4977    0.0000 C   0  0  0  0  0  0  0  0  0  0  0  0
   -6.2640   -3.9102    0.0000 O   0  0  0  0  0  0  0  0  0  0  0  0
   -4.8350   -3.9102    0.0000 N   0  0  0  0  0  0  0  0  0  0  0  0
   -4.8350   -4.7352    0.0000 C   0  0  0  0  0  0  0  0  0  0  0  0
   -4.4225   -5.4497    0.0000 C   0  0  0  0  0  0  0  0  0  0  0  0
   -5.2475   -5.4497    0.0000 C   0  0  0  0  0  0  0  0  0  0  0  0
   -4.6229    0.3373    0.0000 H   0  0  0  0  0  0  0  0  0  0  0  0
   -6.4761    0.3373    0.0000 H   0  0  0  0  0  0  0  0  0  0  0  0
   -5.5495    0.8723    0.0000 H   0  0  0  0  0  0  0  0  0  0  0  0
   -3.9413   -0.9192    0.0000 H   0  0  0  0  0  0  0  0  0  0  0  0
   -3.9413   -2.7762    0.0000 H   0  0  0  0  0  0  0  0  0  0  0  0
   -7.1577   -2.7762    0.0000 H   0  0  0  0  0  0  0  0  0  0  0  0
   -9.3104   -0.8531    0.0000 H   0  0  0  0  0  0  0  0  0  0  0  0
   -9.0928   -0.8010    0.0000 H   0  0  0  0  0  0  0  0  0  0  0  0
  -10.9397   -0.6069    0.0000 H   0  0  0  0  0  0  0  0  0  0  0  0
  -11.6949    1.0896    0.0000 H   0  0  0  0  0  0  0  0  0  0  0  0
   -8.7566    2.3978    0.0000 H   0  0  0  0  0  0  0  0  0  0  0  0
   -5.5153    0.0455    0.0000 H   0  0  0  0  0  0  0  0  0  0  0  0
   -6.6563    1.3128    0.0000 H   0  0  0  0  0  0  0  0  0  0  0  0
   -3.9824   -3.4179    0.0000 H   0  0  0  0  0  0  0  0  0  0  0  0
   -4.8350   -5.8052    0.0000 H   0  0  0  0  0  0  0  0  0  0  0  0
   -3.4959   -5.9847    0.0000 H   0  0  0  0  0  0  0  0  0  0  0  0
   -4.6994   -6.4832    0.0000 H   0  0  0  0  0  0  0  0  0  0  0  0
   -6.1741   -5.9847    0.0000 H   0  0  0  0  0  0  0  0  0  0  0  0
   -6.0041   -4.6931    0.0000 H   0  0  0  0  0  0  0  0  0  0  0  0
  1  2  1  0  0  0  0
  1 30  1  0  0  0  0
  1 31  1  0  0  0  0
  1 32  1  0  0  0  0
  2  3  2  0  0  0  0
  2  7  1  0  0  0  0
  3  4  1  0  0  0  0
  3 33  1  0  0  0  0
  4  5  2  0  0  0  0
  4 34  1  0  0  0  0
  5  6  1  0  0  0  0
  5 24  1  0  0  0  0
  6  7  2  0  0  0  0
  6 35  1  0  0  0  0
  7  8  1  0  0  0  0
  8  9  1  0  0  0  0
  8 22  1  0  0  0  0
  9 10  2  0  0  0  0
 10 11  1  0  0  0  0
 10 36  1  0  0  0  0
 11 12  1  0  0  0  0
 11 22  2  0  0  0  0
 12 13  2  0  0  0  0
 12 14  1  0  0  0  0
 14 15  2  0  0  0  0
 14 19  1  0  0  0  0
 15 16  1  0  0  0  0
 15 37  1  0  0  0  0
 16 17  2  0  0  0  0
 16 38  1  0  0  0  0
 17 18  1  0  0  0  0
 17 39  1  0  0  0  0
 18 19  2  0  0  0  0
 18 20  1  0  0  0  0
 19 40  1  0  0  0  0
 20 21  3  0  0  0  0
 22 23  1  0  0  0  0
 23 41  1  0  0  0  0
 23 42  1  0  0  0  0
 24 25  2  0  0  0  0
 24 26  1  0  0  0  0
 26 27  1  0  0  0  0
 26 43  1  0  0  0  0
 27 28  1  0  0  0  0
 27 29  1  0  0  0  0
 27 44  1  0  0  0  0
 28 29  1  0  0  0  0
 28 45  1  0  0  0  0
 28 46  1  0  0  0  0
 29 47  1  0  0  0  0
 29 48  1  0  0  0  0
M  END
>  <DRUGBANK_ID>
DB15448

>  <COMMON_NAME>
Acumapimod

>  <CAS_NUMBER>
836683-15-9

>  <UNII>
2F16KW647L

>  <SYNONYMS>
Acumapimod

$$$$
