SPB
 OpenBabel10282417072D

 42 43  0  0  0  0  0  0  0  0999 V2000
   -2.7012   -2.3096    0.0000 C   0  0  0  0  0  0  0  0  0  0  0  0
   -3.4157   -2.7221    0.0000 C   0  0  0  0  0  0  0  0  0  0  0  0
   -4.1302   -2.3096    0.0000 C   0  0  0  0  0  0  0  0  0  0  0  0
   -4.1302   -1.4846    0.0000 C   0  0  0  0  0  0  0  0  0  0  0  0
   -3.4157   -1.0721    0.0000 C   0  0  0  0  0  0  0  0  0  0  0  0
   -2.7012   -1.4846    0.0000 C   0  0  0  0  0  0  0  0  0  0  0  0
   -1.9868   -1.0721    0.0000 C   0  0  0  0  0  0  0  0  0  0  0  0
   -1.9868   -0.2471    0.0000 C   0  0  0  0  0  0  0  0  0  0  0  0
   -1.2723    0.1654    0.0000 C   0  0  0  0  0  0  0  0  0  0  0  0
   -1.2723    0.9904    0.0000 C   0  0  0  0  0  0  0  0  0  0  0  0
   -0.5578    1.4029    0.0000 C   0  0  0  0  0  0  0  0  0  0  0  0
    0.1567    0.9904    0.0000 C   0  0  0  0  0  0  0  0  0  0  0  0
    0.1567    0.1654    0.0000 C   0  0  0  0  0  0  0  0  0  0  0  0
   -0.5578   -0.2471    0.0000 C   0  0  0  0  0  0  0  0  0  0  0  0
    0.8711    1.4029    0.0000 N   0  0  0  0  0  0  0  0  0  0  0  0
    1.5856    0.9904    0.0000 C   0  0  0  0  0  0  0  0  0  0  0  0
    2.3001    1.4029    0.0000 C   0  0  0  0  0  0  0  0  0  0  0  0
    3.0145    0.9904    0.0000 C   0  0  0  0  0  0  0  0  0  0  0  0
    3.7290    1.4029    0.0000 C   0  0  0  0  0  0  0  0  0  0  0  0
    4.4435    0.9904    0.0000 C   0  0  0  0  0  0  0  0  0  0  0  0
    5.1580    1.4029    0.0000 O   0  0  0  0  0  0  0  0  0  0  0  0
    1.5856    0.1654    0.0000 O   0  0  0  0  0  0  0  0  0  0  0  0
    4.4435    0.1654    0.0000 O   0  0  0  0  0  0  0  0  0  0  0  0
   -1.8075   -2.8256    0.0000 H   0  0  0  0  0  0  0  0  0  0  0  0
   -3.4157   -3.7541    0.0000 H   0  0  0  0  0  0  0  0  0  0  0  0
   -5.0239   -2.8256    0.0000 H   0  0  0  0  0  0  0  0  0  0  0  0
   -5.0239   -0.9686    0.0000 H   0  0  0  0  0  0  0  0  0  0  0  0
   -3.4157   -0.0401    0.0000 H   0  0  0  0  0  0  0  0  0  0  0  0
   -1.0931   -1.5881    0.0000 H   0  0  0  0  0  0  0  0  0  0  0  0
   -2.8805    0.2689    0.0000 H   0  0  0  0  0  0  0  0  0  0  0  0
   -2.1660    1.5064    0.0000 H   0  0  0  0  0  0  0  0  0  0  0  0
   -0.5578    2.4349    0.0000 H   0  0  0  0  0  0  0  0  0  0  0  0
    1.0504   -0.3506    0.0000 H   0  0  0  0  0  0  0  0  0  0  0  0
   -0.5578   -1.2791    0.0000 H   0  0  0  0  0  0  0  0  0  0  0  0
    0.8711    2.3874    0.0000 H   0  0  0  0  0  0  0  0  0  0  0  0
    2.3001    2.4729    0.0000 H   0  0  0  0  0  0  0  0  0  0  0  0
    3.2268    1.9379    0.0000 H   0  0  0  0  0  0  0  0  0  0  0  0
    3.0145   -0.0796    0.0000 H   0  0  0  0  0  0  0  0  0  0  0  0
    3.9411    0.4554    0.0000 H   0  0  0  0  0  0  0  0  0  0  0  0
    3.7290    2.4729    0.0000 H   0  0  0  0  0  0  0  0  0  0  0  0
    4.6556    1.9379    0.0000 H   0  0  0  0  0  0  0  0  0  0  0  0
    3.6320   -0.3031    0.0000 H   0  0  0  0  0  0  0  0  0  0  0  0
  1  2  2  0  0  0  0
  1  6  1  0  0  0  0
  1 24  1  0  0  0  0
  2  3  1  0  0  0  0
  2 25  1  0  0  0  0
  3  4  2  0  0  0  0
  3 26  1  0  0  0  0
  4  5  1  0  0  0  0
  4 27  1  0  0  0  0
  5  6  2  0  0  0  0
  5 28  1  0  0  0  0
  6  7  1  0  0  0  0
  7  8  2  0  0  0  0
  7 29  1  0  0  0  0
  8  9  1  0  0  0  0
  8 30  1  0  0  0  0
  9 10  2  0  0  0  0
  9 14  1  0  0  0  0
 10 11  1  0  0  0  0
 10 31  1  0  0  0  0
 11 12  2  0  0  0  0
 11 32  1  0  0  0  0
 12 13  1  0  0  0  0
 12 15  1  0  0  0  0
 13 14  2  0  0  0  0
 13 33  1  0  0  0  0
 14 34  1  0  0  0  0
 15 16  1  0  0  0  0
 15 35  1  0  0  0  0
 16 17  1  0  0  0  0
 16 22  2  0  0  0  0
 17 18  1  0  0  0  0
 17 36  1  0  0  0  0
 17 37  1  0  0  0  0
 18 19  1  0  0  0  0
 18 38  1  0  0  0  0
 18 39  1  0  0  0  0
 19 20  1  0  0  0  0
 19 40  1  0  0  0  0
 19 41  1  0  0  0  0
 20 21  2  0  0  0  0
 20 23  1  0  0  0  0
 23 42  1  0  0  0  0
M  END
>  <DRUGBANK_ID>
DB08562

>  <COMMON_NAME>
4-(4-STYRYL-PHENYLCARBAMOYL)-BUTYRIC ACID

$$$$
