
 OpenBabel10282417072D

 44 45  0  0  0  0  0  0  0  0999 V2000
   -0.1231    1.0866    0.0000 O   0  0  0  0  0  0  0  0  0  0  0  0
    0.7896   -0.8766    0.0000 O   0  0  0  0  0  0  0  0  0  0  0  0
   -1.0432   -0.8766    0.0000 O   0  0  0  0  0  0  0  0  0  0  0  0
   -2.2096    0.3331    0.0000 O   0  0  0  0  0  0  0  0  0  0  0  0
    2.1661   -0.3332    0.0000 O   0  0  0  0  0  0  0  0  0  0  0  0
    0.1666   -2.0429    0.0000 O   0  0  0  0  0  0  0  0  0  0  0  0
    3.6222    2.1226    0.0000 O   0  0  0  0  0  0  0  0  0  0  0  0
   -0.3188   -2.1081    0.0000 O   0  0  0  0  0  0  0  0  0  0  0  0
   -2.9123    1.4995    0.0000 O   0  0  0  0  0  0  0  0  0  0  0  0
    1.4561    0.8765    0.0000 N   0  0  0  0  0  0  0  0  0  0  0  0
    2.8759    0.8765    0.0000 N   0  0  0  0  0  0  0  0  0  0  0  0
    0.5432    0.6230    0.0000 C   0  0  1  0  0  0  0  0  0  0  0  0
    0.2897   -0.2101    0.0000 C   0  0  1  0  0  0  0  0  0  0  0  0
   -0.5432   -0.2101    0.0000 C   0  0  1  0  0  0  0  0  0  0  0  0
   -0.7896    0.5867    0.0000 C   0  0  1  0  0  0  0  0  0  0  0  0
    2.1661    0.4998    0.0000 C   0  0  0  0  0  0  0  0  0  0  0  0
    1.4561    1.7096    0.0000 C   0  0  0  0  0  0  0  0  0  0  0  0
   -1.5792    0.8331    0.0000 C   0  0  0  0  0  0  0  0  0  0  0  0
    0.7896   -1.7096    0.0000 C   0  0  0  0  0  0  0  0  0  0  0  0
    2.8759    1.7096    0.0000 C   0  0  0  0  0  0  0  0  0  0  0  0
    2.1661    2.1226    0.0000 C   0  0  0  0  0  0  0  0  0  0  0  0
   -1.0432   -1.6879    0.0000 C   0  0  0  0  0  0  0  0  0  0  0  0
   -2.9123    0.7534    0.0000 C   0  0  0  0  0  0  0  0  0  0  0  0
    1.4995   -2.1226    0.0000 C   0  0  0  0  0  0  0  0  0  0  0  0
   -1.7459   -2.1008    0.0000 C   0  0  0  0  0  0  0  0  0  0  0  0
   -3.6222    0.3331    0.0000 C   0  0  0  0  0  0  0  0  0  0  0  0
    3.7196    0.3691    0.0000 H   0  0  0  0  0  0  0  0  0  0  0  0
    0.7227    1.6778    0.0000 H   0  0  0  0  0  0  0  0  0  0  0  0
    1.3435   -0.0248    0.0000 H   0  0  0  0  0  0  0  0  0  0  0  0
   -0.0647   -1.1672    0.0000 H   0  0  0  0  0  0  0  0  0  0  0  0
   -0.9712    1.6412    0.0000 H   0  0  0  0  0  0  0  0  0  0  0  0
    0.5615    2.2241    0.0000 H   0  0  0  0  0  0  0  0  0  0  0  0
   -1.7750    1.8850    0.0000 H   0  0  0  0  0  0  0  0  0  0  0  0
   -0.7791    1.5436    0.0000 H   0  0  0  0  0  0  0  0  0  0  0  0
    2.1662    3.1546    0.0000 H   0  0  0  0  0  0  0  0  0  0  0  0
    1.4960   -3.1926    0.0000 H   0  0  0  0  0  0  0  0  0  0  0  0
    2.4279   -1.5907    0.0000 H   0  0  0  0  0  0  0  0  0  0  0  0
    2.4244   -2.6607    0.0000 H   0  0  0  0  0  0  0  0  0  0  0  0
   -2.6766   -1.5729    0.0000 H   0  0  0  0  0  0  0  0  0  0  0  0
   -1.7377   -3.1708    0.0000 H   0  0  0  0  0  0  0  0  0  0  0  0
   -2.6684   -2.6429    0.0000 H   0  0  0  0  0  0  0  0  0  0  0  0
   -4.5547    0.8579    0.0000 H   0  0  0  0  0  0  0  0  0  0  0  0
   -3.6105   -0.7368    0.0000 H   0  0  0  0  0  0  0  0  0  0  0  0
   -4.5429   -0.2120    0.0000 H   0  0  0  0  0  0  0  0  0  0  0  0
  1 12  1  0  0  0  0
  1 15  1  0  0  0  0
  2 19  1  0  0  0  0
  3 22  1  0  0  0  0
  4 18  1  0  0  0  0
  4 23  1  0  0  0  0
  5 16  2  0  0  0  0
  6 19  2  0  0  0  0
  7 20  2  0  0  0  0
  8 22  2  0  0  0  0
  9 23  2  0  0  0  0
 10 16  1  0  0  0  0
 10 17  1  0  0  0  0
 11 16  1  0  0  0  0
 11 20  1  0  0  0  0
 11 27  1  0  0  0  0
 12 10  1  0  0  0  0
 12 13  1  0  0  0  0
 12 28  1  6  0  0  0
 13  2  1  0  0  0  0
 13 14  1  0  0  0  0
 13 29  1  1  0  0  0
 14  3  1  0  0  0  0
 14 15  1  0  0  0  0
 14 30  1  1  0  0  0
 15 18  1  0  0  0  0
 15 31  1  6  0  0  0
 17 21  2  0  0  0  0
 17 32  1  0  0  0  0
 18 33  1  0  0  0  0
 18 34  1  0  0  0  0
 19 24  1  0  0  0  0
 20 21  1  0  0  0  0
 21 35  1  0  0  0  0
 22 25  1  0  0  0  0
 23 26  1  0  0  0  0
 24 36  1  0  0  0  0
 24 37  1  0  0  0  0
 24 38  1  0  0  0  0
 25 39  1  0  0  0  0
 25 40  1  0  0  0  0
 25 41  1  0  0  0  0
 26 42  1  0  0  0  0
 26 43  1  0  0  0  0
 26 44  1  0  0  0  0
M  END
>  <DRUGBANK_ID>
DB09144

>  <SECONDARY_ACCESSION_NUMBERS>
DB05425

>  <COMMON_NAME>
Uridine triacetate

>  <CAS_NUMBER>
4105-38-8

>  <UNII>
2WP61F175M

>  <SYNONYMS>
2',3',5'-tri-O-acetyluridine; 2',3',5'-Triacetyluridine; Tri-O-acetyluridine; Triacetyl uridine; Triacetyluridine; Uridine 2',3',5'-triacetate; Uridine triacetate; Vistonuridine

$$$$
