
 OpenBabel10282417072D

 25 27  0  0  0  0  0  0  0  0999 V2000
   -1.6500    1.4289    0.0000 C   0  0  0  0  0  0  0  0  0  0  0  0
   -0.8250    1.4289    0.0000 C   0  0  0  0  0  0  0  0  0  0  0  0
   -0.4125    0.7144    0.0000 C   0  0  0  0  0  0  0  0  0  0  0  0
    0.4125    0.7144    0.0000 C   0  0  0  0  0  0  0  0  0  0  0  0
    0.8250    1.4289    0.0000 C   0  0  0  0  0  0  0  0  0  0  0  0
    1.6500    1.4289    0.0000 C   0  0  0  0  0  0  0  0  0  0  0  0
    2.0625    0.7144    0.0000 C   0  0  0  0  0  0  0  0  0  0  0  0
    1.6500    0.0000    0.0000 C   0  0  0  0  0  0  0  0  0  0  0  0
    0.8250    0.0000    0.0000 C   0  0  0  0  0  0  0  0  0  0  0  0
    0.4125   -0.7144    0.0000 O   0  0  0  0  0  0  0  0  0  0  0  0
   -0.4125   -0.7144    0.0000 C   0  0  0  0  0  0  0  0  0  0  0  0
   -0.8250   -1.4289    0.0000 O   0  0  0  0  0  0  0  0  0  0  0  0
   -0.8250    0.0000    0.0000 C   0  0  0  0  0  0  0  0  0  0  0  0
   -1.6500    0.0000    0.0000 C   0  0  0  0  0  0  0  0  0  0  0  0
   -2.0625    0.7144    0.0000 C   0  0  0  0  0  0  0  0  0  0  0  0
   -2.8875    0.7144    0.0000 O   0  0  0  0  0  0  0  0  0  0  0  0
    2.8875    0.7144    0.0000 O   0  0  0  0  0  0  0  0  0  0  0  0
   -2.1660    2.3226    0.0000 H   0  0  0  0  0  0  0  0  0  0  0  0
   -0.3090    2.3226    0.0000 H   0  0  0  0  0  0  0  0  0  0  0  0
    0.3090    2.3226    0.0000 H   0  0  0  0  0  0  0  0  0  0  0  0
    2.1660    2.3226    0.0000 H   0  0  0  0  0  0  0  0  0  0  0  0
    2.1660   -0.8937    0.0000 H   0  0  0  0  0  0  0  0  0  0  0  0
   -2.1660   -0.8937    0.0000 H   0  0  0  0  0  0  0  0  0  0  0  0
   -3.3560    1.5259    0.0000 H   0  0  0  0  0  0  0  0  0  0  0  0
    3.3560   -0.0971    0.0000 H   0  0  0  0  0  0  0  0  0  0  0  0
  1  2  2  0  0  0  0
  1 15  1  0  0  0  0
  1 18  1  0  0  0  0
  2  3  1  0  0  0  0
  2 19  1  0  0  0  0
  3  4  1  0  0  0  0
  3 13  2  0  0  0  0
  4  5  1  0  0  0  0
  4  9  2  0  0  0  0
  5  6  2  0  0  0  0
  5 20  1  0  0  0  0
  6  7  1  0  0  0  0
  6 21  1  0  0  0  0
  7  8  2  0  0  0  0
  7 17  1  0  0  0  0
  8  9  1  0  0  0  0
  8 22  1  0  0  0  0
  9 10  1  0  0  0  0
 10 11  1  0  0  0  0
 11 12  2  0  0  0  0
 11 13  1  0  0  0  0
 13 14  1  0  0  0  0
 14 15  2  0  0  0  0
 14 23  1  0  0  0  0
 15 16  1  0  0  0  0
 16 24  1  0  0  0  0
 17 25  1  0  0  0  0
M  END
>  <DRUGBANK_ID>
DB15464

>  <COMMON_NAME>
Urolithin A

>  <CAS_NUMBER>
1143-70-0

>  <UNII>
ILJ8NEF6DT

>  <SYNONYMS>
3,8-Dihydroxyurolithin; 3,8-Hydroxydibenzo-alpha-pyrone

$$$$
