1444
 OpenBabel10282417072D

 34 35  0  0  1  0  0  0  0  0999 V2000
    5.2616   -0.1133    0.0000 S   0  0  0  0  0  0  0  0  0  0  0  0
    3.1261   -1.5002    0.0000 S   0  0  0  0  0  0  0  0  0  0  0  0
    2.3645    1.4598    0.0000 N   0  0  0  0  0  0  0  0  0  0  0  0
    3.0791    1.0473    0.0000 C   0  0  3  0  0  0  0  0  0  0  0  0
    3.0791    0.2223    0.0000 C   0  0  0  0  0  0  0  0  0  0  0  0
    3.7935   -0.1902    0.0000 C   0  0  0  0  0  0  0  0  0  0  0  0
    3.7935    1.4598    0.0000 C   0  0  0  0  0  0  0  0  0  0  0  0
    2.3645    2.2848    0.0000 C   0  0  0  0  0  0  0  0  0  0  0  0
    1.6500    1.0473    0.0000 C   0  0  0  0  0  0  0  0  0  0  0  0
    4.5080    0.2223    0.0000 C   0  0  0  0  0  0  0  0  0  0  0  0
    3.7935   -1.0153    0.0000 C   0  0  0  0  0  0  0  0  0  0  0  0
    4.5942    1.0427    0.0000 C   0  0  0  0  0  0  0  0  0  0  0  0
    4.4610   -1.5002    0.0000 C   0  0  0  0  0  0  0  0  0  0  0  0
    5.4012    1.2143    0.0000 C   0  0  0  0  0  0  0  0  0  0  0  0
    4.2060   -2.2848    0.0000 C   0  0  0  0  0  0  0  0  0  0  0  0
    5.8137    0.4998    0.0000 C   0  0  0  0  0  0  0  0  0  0  0  0
    3.3810   -2.2848    0.0000 C   0  0  0  0  0  0  0  0  0  0  0  0
    2.1525    0.5123    0.0000 H   0  0  0  0  0  0  0  0  0  0  0  0
    2.1854   -0.2937    0.0000 H   0  0  0  0  0  0  0  0  0  0  0  0
    4.7202    0.9248    0.0000 H   0  0  0  0  0  0  0  0  0  0  0  0
    3.7935    2.5298    0.0000 H   0  0  0  0  0  0  0  0  0  0  0  0
    4.7201    1.9948    0.0000 H   0  0  0  0  0  0  0  0  0  0  0  0
    3.2911    2.8198    0.0000 H   0  0  0  0  0  0  0  0  0  0  0  0
    1.4379    2.8198    0.0000 H   0  0  0  0  0  0  0  0  0  0  0  0
    2.3645    3.3548    0.0000 H   0  0  0  0  0  0  0  0  0  0  0  0
    0.7234    1.5823    0.0000 H   0  0  0  0  0  0  0  0  0  0  0  0
    1.6500   -0.0227    0.0000 H   0  0  0  0  0  0  0  0  0  0  0  0
    0.7233    0.5123    0.0000 H   0  0  0  0  0  0  0  0  0  0  0  0
    3.8272    1.7332    0.0000 H   0  0  0  0  0  0  0  0  0  0  0  0
    5.4425   -1.1813    0.0000 H   0  0  0  0  0  0  0  0  0  0  0  0
    5.8209    2.1571    0.0000 H   0  0  0  0  0  0  0  0  0  0  0  0
    4.8126   -3.1197    0.0000 H   0  0  0  0  0  0  0  0  0  0  0  0
    6.8400    0.3919    0.0000 H   0  0  0  0  0  0  0  0  0  0  0  0
    2.7744   -3.1197    0.0000 H   0  0  0  0  0  0  0  0  0  0  0  0
  1 10  1  0  0  0  0
  1 16  1  0  0  0  0
  2 11  1  0  0  0  0
  2 17  1  0  0  0  0
  3  4  1  0  0  0  0
  3  8  1  0  0  0  0
  3  9  1  0  0  0  0
  4  5  1  0  0  0  0
  4  7  1  0  0  0  0
  4 18  1  0  0  0  0
  5  6  2  0  0  0  0
  5 19  1  0  0  0  0
  6 10  1  0  0  0  0
  6 11  1  0  0  0  0
  7 20  1  0  0  0  0
  7 21  1  0  0  0  0
  7 22  1  0  0  0  0
  8 23  1  0  0  0  0
  8 24  1  0  0  0  0
  8 25  1  0  0  0  0
  9 26  1  0  0  0  0
  9 27  1  0  0  0  0
  9 28  1  0  0  0  0
 10 12  2  0  0  0  0
 11 13  2  0  0  0  0
 12 14  1  0  0  0  0
 12 29  1  0  0  0  0
 13 15  1  0  0  0  0
 13 30  1  0  0  0  0
 14 16  2  0  0  0  0
 14 31  1  0  0  0  0
 15 17  2  0  0  0  0
 15 32  1  0  0  0  0
 16 33  1  0  0  0  0
 17 34  1  0  0  0  0
M  END
>  <DRUGBANK_ID>
DB01444

>  <COMMON_NAME>
Dimethylthiambutene

>  <CAS_NUMBER>
524-84-5

>  <UNII>
915D88LM9O

>  <SYNONYMS>
3-dimethylamino-1,1-bis(2-thienyl)-1-butene; 3-dimethylamino-1,1-di-(2'-thienyl)-1-butene; Dimethibutin; Dimethylthiambutene; Dimethylthiambutenum; Dimetiltiambutene; Dimetiltiambuteno; N,N-dimethyl-4,4-di(2-thienyl)-3-buten-2-amine; N,N,1-trimethyl-3,3-di-2-thienylallylamine; N,N,1-trimethyl-3,3-di(2-thienyl)-2-propenylamine; Ohton

$$$$
