230
 OpenBabel10282417072D

 56 59  0  0  0  0  0  0  0  0999 V2000
   -0.3472    1.4850    0.0000 N   0  0  0  0  0  0  0  0  0  0  0  0
    2.7912    2.5047    0.0000 N   0  0  0  0  0  0  0  0  0  0  0  0
    0.4374    1.7399    0.0000 C   0  0  0  0  0  0  0  0  0  0  0  0
    1.0505    1.1879    0.0000 C   0  0  0  0  0  0  0  0  0  0  0  0
    1.8351    1.4428    0.0000 C   0  0  0  0  0  0  0  0  0  0  0  0
   -0.5188    0.6780    0.0000 C   0  0  0  0  0  0  0  0  0  0  0  0
    0.0458   -3.7850    0.0000 C   0  0  0  0  0  0  0  0  0  0  0  0
   -1.2596   -3.2038    0.0000 C   0  0  0  0  0  0  0  0  0  0  0  0
    0.3814   -3.0313    0.0000 C   0  0  0  0  0  0  0  0  0  0  0  0
    2.9628    3.3117    0.0000 C   0  0  0  0  0  0  0  0  0  0  0  0
    4.3605    3.0146    0.0000 C   0  0  0  0  0  0  0  0  0  0  0  0
   -1.9708    0.9080    0.0000 C   0  0  0  0  0  0  0  0  0  0  0  0
   -1.3034    0.4231    0.0000 C   0  0  1  0  0  0  0  0  0  0  0  0
   -2.3833   -0.3616    0.0000 C   0  0  0  0  0  0  0  0  0  0  0  0
   -4.0360    0.1260    0.0000 C   0  0  0  0  0  0  0  0  0  0  0  0
    2.0066    2.2498    0.0000 C   0  0  0  0  0  0  0  0  0  0  0  0
    1.3935    2.8018    0.0000 C   0  0  0  0  0  0  0  0  0  0  0  0
    0.6089    2.5469    0.0000 C   0  0  0  0  0  0  0  0  0  0  0  0
    0.8789    0.3809    0.0000 F   0  0  0  0  0  0  0  0  0  0  0  0
    0.0943    0.1260    0.0000 O   0  0  0  0  0  0  0  0  0  0  0  0
   -0.7747   -3.8712    0.0000 C   0  0  0  0  0  0  0  0  0  0  0  0
   -0.9240   -2.4501    0.0000 C   0  0  0  0  0  0  0  0  0  0  0  0
   -0.1036   -2.3639    0.0000 C   0  0  0  0  0  0  0  0  0  0  0  0
    0.5307   -4.4524    0.0000 Cl  0  0  0  0  0  0  0  0  0  0  0  0
   -1.4090   -1.7827    0.0000 N   0  0  0  0  0  0  0  0  0  0  0  0
    3.4043    1.9527    0.0000 C   0  0  0  0  0  0  0  0  0  0  0  0
    3.7474    3.5666    0.0000 C   0  0  0  0  0  0  0  0  0  0  0  0
    4.1890    2.2076    0.0000 C   0  0  0  0  0  0  0  0  0  0  0  0
    2.3497    3.8637    0.0000 O   0  0  0  0  0  0  0  0  0  0  0  0
   -2.6383    0.4231    0.0000 C   0  0  2  0  0  0  0  0  0  0  0  0
   -1.5583   -0.3616    0.0000 N   0  0  0  0  0  0  0  0  0  0  0  0
   -3.4229    0.6780    0.0000 O   0  0  0  0  0  0  0  0  0  0  0  0
   -1.0734   -1.0290    0.0000 C   0  0  0  0  0  0  0  0  0  0  0  0
   -0.2529   -0.9428    0.0000 O   0  0  0  0  0  0  0  0  0  0  0  0
   -1.2120    0.9998    0.0000 H   0  0  0  0  0  0  0  0  0  0  0  0
   -2.7296    0.9998    0.0000 H   0  0  0  0  0  0  0  0  0  0  0  0
   -1.0788    2.1438    0.0000 H   0  0  0  0  0  0  0  0  0  0  0  0
    2.6020    0.7523    0.0000 H   0  0  0  0  0  0  0  0  0  0  0  0
   -2.2859   -3.3117    0.0000 H   0  0  0  0  0  0  0  0  0  0  0  0
    1.4077   -2.9234    0.0000 H   0  0  0  0  0  0  0  0  0  0  0  0
    5.3420    3.3335    0.0000 H   0  0  0  0  0  0  0  0  0  0  0  0
   -1.9708    1.9780    0.0000 H   0  0  0  0  0  0  0  0  0  0  0  0
   -2.9242    1.3938    0.0000 H   0  0  0  0  0  0  0  0  0  0  0  0
   -3.0122   -1.2273    0.0000 H   0  0  0  0  0  0  0  0  0  0  0  0
   -3.4401   -0.1942    0.0000 H   0  0  0  0  0  0  0  0  0  0  0  0
   -5.0536    0.4567    0.0000 H   0  0  0  0  0  0  0  0  0  0  0  0
   -3.8136   -0.9206    0.0000 H   0  0  0  0  0  0  0  0  0  0  0  0
   -4.8312   -0.5899    0.0000 H   0  0  0  0  0  0  0  0  0  0  0  0
    1.6081    3.8112    0.0000 H   0  0  0  0  0  0  0  0  0  0  0  0
   -0.1580    3.2374    0.0000 H   0  0  0  0  0  0  0  0  0  0  0  0
   -1.1945   -4.8140    0.0000 H   0  0  0  0  0  0  0  0  0  0  0  0
    0.3161   -1.4211    0.0000 H   0  0  0  0  0  0  0  0  0  0  0  0
   -2.3881   -1.8856    0.0000 H   0  0  0  0  0  0  0  0  0  0  0  0
    3.1897    0.9433    0.0000 H   0  0  0  0  0  0  0  0  0  0  0  0
    3.9620    4.5760    0.0000 H   0  0  0  0  0  0  0  0  0  0  0  0
    4.9559    1.5170    0.0000 H   0  0  0  0  0  0  0  0  0  0  0  0
  1  3  1  0  0  0  0
  1  6  1  0  0  0  0
  1 37  1  0  0  0  0
  2 10  1  0  0  0  0
  2 26  1  0  0  0  0
  2 16  1  0  0  0  0
  3 18  2  0  0  0  0
  3  4  1  0  0  0  0
  4  5  2  0  0  0  0
  4 19  1  0  0  0  0
  5 16  1  0  0  0  0
  5 38  1  0  0  0  0
  6 20  2  0  0  0  0
  7 21  1  0  0  0  0
  7 24  1  0  0  0  0
  7  9  2  0  0  0  0
  8 21  2  0  0  0  0
  8 22  1  0  0  0  0
  8 39  1  0  0  0  0
  9 23  1  0  0  0  0
  9 40  1  0  0  0  0
 10 27  1  0  0  0  0
 10 29  2  0  0  0  0
 11 27  2  0  0  0  0
 11 28  1  0  0  0  0
 11 41  1  0  0  0  0
 12 13  1  0  0  0  0
 12 30  1  0  0  0  0
 12 42  1  0  0  0  0
 12 43  1  0  0  0  0
 13  6  1  0  0  0  0
 13 31  1  0  0  0  0
 13 35  1  1  0  0  0
 14 31  1  0  0  0  0
 14 30  1  0  0  0  0
 14 44  1  0  0  0  0
 14 45  1  0  0  0  0
 15 32  1  0  0  0  0
 15 46  1  0  0  0  0
 15 47  1  0  0  0  0
 15 48  1  0  0  0  0
 16 17  2  0  0  0  0
 17 18  1  0  0  0  0
 17 49  1  0  0  0  0
 18 50  1  0  0  0  0
 21 51  1  0  0  0  0
 22 25  1  0  0  0  0
 22 23  2  0  0  0  0
 23 52  1  0  0  0  0
 25 33  1  0  0  0  0
 25 53  1  0  0  0  0
 26 28  2  0  0  0  0
 26 54  1  0  0  0  0
 27 55  1  0  0  0  0
 28 56  1  0  0  0  0
 30 32  1  0  0  0  0
 30 36  1  1  0  0  0
 31 33  1  0  0  0  0
 33 34  2  0  0  0  0
M  END
>  <DRUGBANK_ID>
DB06920

>  <COMMON_NAME>
Eribaxaban

>  <CAS_NUMBER>
536748-46-6

>  <UNII>
5FCH6YDY7Z

>  <SYNONYMS>
eribaxab√°n; Eribaxaban

$$$$
