XCF
 OpenBabel10282417072D

 48 51  0  0  0  0  0  0  0  0999 V2000
   -3.2019    2.8071    0.0000 N   0  0  0  0  0  0  0  0  0  0  0  0
   -2.4874    2.3946    0.0000 C   0  0  0  0  0  0  0  0  0  0  0  0
   -1.7729    2.8071    0.0000 N   0  0  0  0  0  0  0  0  0  0  0  0
   -2.4874    1.5696    0.0000 N   0  0  0  0  0  0  0  0  0  0  0  0
   -1.7729    1.1571    0.0000 C   0  0  0  0  0  0  0  0  0  0  0  0
   -1.0584    1.5696    0.0000 C   0  0  0  0  0  0  0  0  0  0  0  0
   -1.0584    2.3946    0.0000 C   0  0  0  0  0  0  0  0  0  0  0  0
   -0.3440    2.8071    0.0000 N   0  0  0  0  0  0  0  0  0  0  0  0
   -0.3440    1.1571    0.0000 C   0  0  0  0  0  0  0  0  0  0  0  0
   -0.3440    0.3321    0.0000 C   0  0  0  0  0  0  0  0  0  0  0  0
    0.3705   -0.0804    0.0000 C   0  0  0  0  0  0  0  0  0  0  0  0
    1.0850    0.3321    0.0000 C   0  0  0  0  0  0  0  0  0  0  0  0
    1.7994   -0.0804    0.0000 C   0  0  0  0  0  0  0  0  0  0  0  0
    1.7994   -0.9054    0.0000 C   0  0  1  0  0  0  0  0  0  0  0  0
    2.5139   -1.3179    0.0000 C   0  0  0  0  0  0  0  0  0  0  0  0
    3.3389   -1.3179    0.0000 C   0  0  0  0  0  0  0  0  0  0  0  0
    2.9264   -2.0323    0.0000 C   0  0  0  0  0  0  0  0  0  0  0  0
    1.0850   -1.3179    0.0000 O   0  0  0  0  0  0  0  0  0  0  0  0
    0.3705   -0.9054    0.0000 C   0  0  0  0  0  0  0  0  0  0  0  0
   -0.3440   -1.3179    0.0000 C   0  0  0  0  0  0  0  0  0  0  0  0
   -0.3440   -2.1429    0.0000 O   0  0  0  0  0  0  0  0  0  0  0  0
   -1.0584   -2.5554    0.0000 C   0  0  0  0  0  0  0  0  0  0  0  0
   -1.0584   -0.9054    0.0000 C   0  0  0  0  0  0  0  0  0  0  0  0
   -1.0584   -0.0804    0.0000 C   0  0  0  0  0  0  0  0  0  0  0  0
   -1.7729   -1.3179    0.0000 O   0  0  0  0  0  0  0  0  0  0  0  0
   -2.4874   -0.9054    0.0000 C   0  0  0  0  0  0  0  0  0  0  0  0
    2.3051   -0.6134    0.0000 H   0  0  0  0  0  0  0  0  0  0  0  0
   -3.2019    3.7916    0.0000 H   0  0  0  0  0  0  0  0  0  0  0  0
   -4.0545    2.3148    0.0000 H   0  0  0  0  0  0  0  0  0  0  0  0
   -1.7729    0.1251    0.0000 H   0  0  0  0  0  0  0  0  0  0  0  0
    0.5086    2.3149    0.0000 H   0  0  0  0  0  0  0  0  0  0  0  0
   -0.3440    3.7916    0.0000 H   0  0  0  0  0  0  0  0  0  0  0  0
    0.5827    1.6921    0.0000 H   0  0  0  0  0  0  0  0  0  0  0  0
    0.5826    0.6221    0.0000 H   0  0  0  0  0  0  0  0  0  0  0  0
    1.0850    1.3641    0.0000 H   0  0  0  0  0  0  0  0  0  0  0  0
    2.6931    0.4356    0.0000 H   0  0  0  0  0  0  0  0  0  0  0  0
    3.4406   -1.8529    0.0000 H   0  0  0  0  0  0  0  0  0  0  0  0
    4.2656   -0.7829    0.0000 H   0  0  0  0  0  0  0  0  0  0  0  0
    4.0955   -2.0745    0.0000 H   0  0  0  0  0  0  0  0  0  0  0  0
    2.9264   -3.1023    0.0000 H   0  0  0  0  0  0  0  0  0  0  0  0
    3.9599   -2.3093    0.0000 H   0  0  0  0  0  0  0  0  0  0  0  0
   -1.9851   -2.0204    0.0000 H   0  0  0  0  0  0  0  0  0  0  0  0
   -1.0584   -3.6254    0.0000 H   0  0  0  0  0  0  0  0  0  0  0  0
   -1.9850   -3.0904    0.0000 H   0  0  0  0  0  0  0  0  0  0  0  0
   -1.9521    0.4356    0.0000 H   0  0  0  0  0  0  0  0  0  0  0  0
   -2.4874    0.1646    0.0000 H   0  0  0  0  0  0  0  0  0  0  0  0
   -3.4140   -1.4404    0.0000 H   0  0  0  0  0  0  0  0  0  0  0  0
   -3.4141   -0.3704    0.0000 H   0  0  0  0  0  0  0  0  0  0  0  0
  1  2  1  0  0  0  0
  1 28  1  0  0  0  0
  1 29  1  0  0  0  0
  2  3  2  0  0  0  0
  2  4  1  0  0  0  0
  3  7  1  0  0  0  0
  4  5  2  0  0  0  0
  5  6  1  0  0  0  0
  5 30  1  0  0  0  0
  6  7  2  0  0  0  0
  6  9  1  0  0  0  0
  7  8  1  0  0  0  0
  8 31  1  0  0  0  0
  8 32  1  0  0  0  0
  9 10  1  0  0  0  0
  9 33  1  0  0  0  0
  9 34  1  0  0  0  0
 10 11  2  0  0  0  0
 10 24  1  0  0  0  0
 11 12  1  0  0  0  0
 11 19  1  0  0  0  0
 12 13  2  0  0  0  0
 12 35  1  0  0  0  0
 13 14  1  0  0  0  0
 13 36  1  0  0  0  0
 14 15  1  0  0  0  0
 14 18  1  0  0  0  0
 14 27  1  6  0  0  0
 15 16  1  0  0  0  0
 15 17  1  0  0  0  0
 15 37  1  0  0  0  0
 16 17  1  0  0  0  0
 16 38  1  0  0  0  0
 16 39  1  0  0  0  0
 17 40  1  0  0  0  0
 17 41  1  0  0  0  0
 18 19  1  0  0  0  0
 19 20  2  0  0  0  0
 20 21  1  0  0  0  0
 20 23  1  0  0  0  0
 21 22  1  0  0  0  0
 22 42  1  0  0  0  0
 22 43  1  0  0  0  0
 22 44  1  0  0  0  0
 23 24  2  0  0  0  0
 23 25  1  0  0  0  0
 24 45  1  0  0  0  0
 25 26  1  0  0  0  0
 26 46  1  0  0  0  0
 26 47  1  0  0  0  0
 26 48  1  0  0  0  0
M  END
>  <DRUGBANK_ID>
DB08741

>  <COMMON_NAME>
5-[[(2R)-2-cyclopropyl-7,8-dimethoxy-2H-chromen-5-yl]methyl]pyrimidine-2,4-diamine

>  <UNII>
RG4NWL6NKS

$$$$
