409
 OpenBabel10282417072D

 45 46  0  0  1  0  0  0  0  0999 V2000
    2.3645   -2.5585    0.0000 Br  0  0  0  0  0  0  0  0  0  0  0  0
    3.0791    0.3290    0.0000 O   0  0  0  0  0  0  0  0  0  0  0  0
    2.3645   -0.9085    0.0000 O   0  0  0  0  0  0  0  0  0  0  0  0
    5.2224   -0.9085    0.0000 O   0  0  0  0  0  0  0  0  0  0  0  0
    5.9762    1.2309    0.0000 N   0  0  0  0  0  0  0  0  0  0  0  0
    4.5080    0.3290    0.0000 N   0  0  0  0  0  0  0  0  0  0  0  0
    5.2224    1.5665    0.0000 C   0  0  1  0  0  0  0  0  0  0  0  0
    5.3087    2.3870    0.0000 C   0  0  0  0  0  0  0  0  0  0  0  0
    6.1157    2.5585    0.0000 C   0  0  0  0  0  0  0  0  0  0  0  0
    6.5282    1.8441    0.0000 C   0  0  0  0  0  0  0  0  0  0  0  0
    4.5080    1.1540    0.0000 C   0  0  0  0  0  0  0  0  0  0  0  0
    6.1477    0.4240    0.0000 C   0  0  0  0  0  0  0  0  0  0  0  0
    6.9323    0.1690    0.0000 C   0  0  0  0  0  0  0  0  0  0  0  0
    3.7935   -0.0835    0.0000 C   0  0  0  0  0  0  0  0  0  0  0  0
    3.7935   -0.9085    0.0000 C   0  0  0  0  0  0  0  0  0  0  0  0
    3.0791   -1.3210    0.0000 C   0  0  0  0  0  0  0  0  0  0  0  0
    4.5080   -1.3210    0.0000 C   0  0  0  0  0  0  0  0  0  0  0  0
    3.0791   -2.1460    0.0000 C   0  0  0  0  0  0  0  0  0  0  0  0
    4.5080   -2.1460    0.0000 C   0  0  0  0  0  0  0  0  0  0  0  0
    3.7935   -2.5585    0.0000 C   0  0  0  0  0  0  0  0  0  0  0  0
    1.6500   -1.3210    0.0000 C   0  0  0  0  0  0  0  0  0  0  0  0
    5.9370   -1.3210    0.0000 C   0  0  0  0  0  0  0  0  0  0  0  0
    5.3606   -0.1633    0.0000 H   0  0  0  0  0  0  0  0  0  0  0  0
    5.2784    0.4980    0.0000 H   0  0  0  0  0  0  0  0  0  0  0  0
    4.5136    3.1030    0.0000 H   0  0  0  0  0  0  0  0  0  0  0  0
    5.5857    3.4205    0.0000 H   0  0  0  0  0  0  0  0  0  0  0  0
    6.5509    3.5360    0.0000 H   0  0  0  0  0  0  0  0  0  0  0  0
    7.1842    2.6145    0.0000 H   0  0  0  0  0  0  0  0  0  0  0  0
    7.5923    1.7323    0.0000 H   0  0  0  0  0  0  0  0  0  0  0  0
    7.1109    2.7415    0.0000 H   0  0  0  0  0  0  0  0  0  0  0  0
    3.5813    1.6890    0.0000 H   0  0  0  0  0  0  0  0  0  0  0  0
    4.5080    2.2240    0.0000 H   0  0  0  0  0  0  0  0  0  0  0  0
    5.3525   -0.2919    0.0000 H   0  0  0  0  0  0  0  0  0  0  0  0
    6.3701   -0.6226    0.0000 H   0  0  0  0  0  0  0  0  0  0  0  0
    7.1547   -0.8776    0.0000 H   0  0  0  0  0  0  0  0  0  0  0  0
    7.7275    0.8849    0.0000 H   0  0  0  0  0  0  0  0  0  0  0  0
    7.9499   -0.1617    0.0000 H   0  0  0  0  0  0  0  0  0  0  0  0
    5.4017   -2.6620    0.0000 H   0  0  0  0  0  0  0  0  0  0  0  0
    3.7935   -3.5905    0.0000 H   0  0  0  0  0  0  0  0  0  0  0  0
    0.7234   -0.7860    0.0000 H   0  0  0  0  0  0  0  0  0  0  0  0
    1.6500   -2.3910    0.0000 H   0  0  0  0  0  0  0  0  0  0  0  0
    0.7233   -1.8560    0.0000 H   0  0  0  0  0  0  0  0  0  0  0  0
    5.9371   -2.3910    0.0000 H   0  0  0  0  0  0  0  0  0  0  0  0
    6.8636   -0.7859    0.0000 H   0  0  0  0  0  0  0  0  0  0  0  0
    6.8637   -1.8559    0.0000 H   0  0  0  0  0  0  0  0  0  0  0  0
  1 18  1  0  0  0  0
  2 14  2  0  0  0  0
  3 16  1  0  0  0  0
  3 21  1  0  0  0  0
  4 17  1  0  0  0  0
  4 22  1  0  0  0  0
  5  7  1  0  0  0  0
  5 10  1  0  0  0  0
  5 12  1  0  0  0  0
  6 11  1  0  0  0  0
  6 14  1  0  0  0  0
  6 23  1  0  0  0  0
  7  8  1  0  0  0  0
  7 11  1  0  0  0  0
  7 24  1  1  0  0  0
  8  9  1  0  0  0  0
  8 25  1  0  0  0  0
  8 26  1  0  0  0  0
  9 10  1  0  0  0  0
  9 27  1  0  0  0  0
  9 28  1  0  0  0  0
 10 29  1  0  0  0  0
 10 30  1  0  0  0  0
 11 31  1  0  0  0  0
 11 32  1  0  0  0  0
 12 13  1  0  0  0  0
 12 33  1  0  0  0  0
 12 34  1  0  0  0  0
 13 35  1  0  0  0  0
 13 36  1  0  0  0  0
 13 37  1  0  0  0  0
 14 15  1  0  0  0  0
 15 16  1  0  0  0  0
 15 17  2  0  0  0  0
 16 18  2  0  0  0  0
 17 19  1  0  0  0  0
 18 20  1  0  0  0  0
 19 20  2  0  0  0  0
 19 38  1  0  0  0  0
 20 39  1  0  0  0  0
 21 40  1  0  0  0  0
 21 41  1  0  0  0  0
 21 42  1  0  0  0  0
 22 43  1  0  0  0  0
 22 44  1  0  0  0  0
 22 45  1  0  0  0  0
M  END
>  <DRUGBANK_ID>
DB00409

>  <SECONDARY_ACCESSION_NUMBERS>
APRD00316

>  <COMMON_NAME>
Remoxipride

>  <CAS_NUMBER>
80125-14-0

>  <UNII>
0223RD59PE

>  <SYNONYMS>
Remoxiprida; Remoxipride; Remoxipridum

$$$$
