
 OpenBabel10282417072D

 55 57  0  0  0  0  0  0  0  0999 V2000
    0.5998    0.1750    0.0000 C   0  0  0  0  0  0  0  0  0  0  0  0
    0.7713   -0.6319    0.0000 C   0  0  0  0  0  0  0  0  0  0  0  0
    0.1582   -1.1839    0.0000 C   0  0  0  0  0  0  0  0  0  0  0  0
   -0.6263   -0.9290    0.0000 C   0  0  0  0  0  0  0  0  0  0  0  0
    1.7274   -1.6938    0.0000 C   0  0  0  0  0  0  0  0  0  0  0  0
   -0.5203    1.1836    0.0000 C   0  0  0  0  0  0  0  0  0  0  0  0
   -1.3408    1.0973    0.0000 C   0  0  0  0  0  0  0  0  0  0  0  0
   -2.2660   -0.0451    0.0000 C   0  0  0  0  0  0  0  0  0  0  0  0
   -0.7979   -0.1220    0.0000 C   0  0  0  0  0  0  0  0  0  0  0  0
   -0.1848    0.4299    0.0000 C   0  0  0  0  0  0  0  0  0  0  0  0
   -2.3522   -0.8656    0.0000 C   0  0  0  0  0  0  0  0  0  0  0  0
   -1.6848   -1.3505    0.0000 C   0  0  0  0  0  0  0  0  0  0  0  0
   -1.7710   -2.1710    0.0000 C   0  0  0  0  0  0  0  0  0  0  0  0
   -2.5247   -2.5065    0.0000 C   0  0  0  0  0  0  0  0  0  0  0  0
   -3.1922   -2.0216    0.0000 C   0  0  0  0  0  0  0  0  0  0  0  0
   -3.1059   -1.2011    0.0000 C   0  0  0  0  0  0  0  0  0  0  0  0
   -1.8928    1.7104    0.0000 C   0  0  0  0  0  0  0  0  0  0  0  0
   -0.1078    1.8981    0.0000 C   0  0  0  0  0  0  0  0  0  0  0  0
    0.7171    1.8981    0.0000 C   0  0  0  0  0  0  0  0  0  0  0  0
   -1.5123    0.2904    0.0000 N   0  0  0  0  0  0  0  0  0  0  0  0
    1.5559   -0.8868    0.0000 O   0  0  0  0  0  0  0  0  0  0  0  0
   -2.9334    0.4397    0.0000 O   0  0  0  0  0  0  0  0  0  0  0  0
    1.1297    1.1836    0.0000 O   0  0  0  0  0  0  0  0  0  0  0  0
    3.1921    3.3270    0.0000 O   0  0  0  0  0  0  0  0  0  0  0  0
   -2.6109   -3.3270    0.0000 Cl  0  0  0  0  0  0  0  0  0  0  0  0
    1.1297    2.6125    0.0000 N   0  0  0  0  0  0  0  0  0  0  0  0
    1.9546    2.6125    0.0000 C   0  0  1  0  0  0  0  0  0  0  0  0
    2.3672    3.3270    0.0000 C   0  0  0  0  0  0  0  0  0  0  0  0
    2.3672    1.8981    0.0000 C   0  0  0  0  0  0  0  0  0  0  0  0
    1.9546    1.1836    0.0000 C   0  0  0  0  0  0  0  0  0  0  0  0
    1.3667    0.8656    0.0000 H   0  0  0  0  0  0  0  0  0  0  0  0
    0.3727   -2.1934    0.0000 H   0  0  0  0  0  0  0  0  0  0  0  0
   -1.3932   -1.6196    0.0000 H   0  0  0  0  0  0  0  0  0  0  0  0
    0.9322   -2.4097    0.0000 H   0  0  0  0  0  0  0  0  0  0  0  0
    2.7450   -2.0245    0.0000 H   0  0  0  0  0  0  0  0  0  0  0  0
    1.9498   -2.7404    0.0000 H   0  0  0  0  0  0  0  0  0  0  0  0
   -0.7420   -0.9307    0.0000 H   0  0  0  0  0  0  0  0  0  0  0  0
   -0.9361   -2.7776    0.0000 H   0  0  0  0  0  0  0  0  0  0  0  0
   -4.1350   -2.4413    0.0000 H   0  0  0  0  0  0  0  0  0  0  0  0
   -3.9408   -0.5944    0.0000 H   0  0  0  0  0  0  0  0  0  0  0  0
   -1.5621    2.7280    0.0000 H   0  0  0  0  0  0  0  0  0  0  0  0
   -2.9394    1.4880    0.0000 H   0  0  0  0  0  0  0  0  0  0  0  0
   -2.6087    2.5056    0.0000 H   0  0  0  0  0  0  0  0  0  0  0  0
   -0.6428    2.8247    0.0000 H   0  0  0  0  0  0  0  0  0  0  0  0
    0.4272    2.8247    0.0000 H   0  0  0  0  0  0  0  0  0  0  0  0
    3.6771    2.4870    0.0000 H   0  0  0  0  0  0  0  0  0  0  0  0
    0.6375    3.4651    0.0000 H   0  0  0  0  0  0  0  0  0  0  0  0
    1.4196    3.5392    0.0000 H   0  0  0  0  0  0  0  0  0  0  0  0
    1.8322    4.2537    0.0000 H   0  0  0  0  0  0  0  0  0  0  0  0
    1.2972    3.3271    0.0000 H   0  0  0  0  0  0  0  0  0  0  0  0
    3.4372    1.8981    0.0000 H   0  0  0  0  0  0  0  0  0  0  0  0
    2.9022    0.9714    0.0000 H   0  0  0  0  0  0  0  0  0  0  0  0
    0.8846    1.1837    0.0000 H   0  0  0  0  0  0  0  0  0  0  0  0
    2.4895    0.2569    0.0000 H   0  0  0  0  0  0  0  0  0  0  0  0
    1.4195    0.2570    0.0000 H   0  0  0  0  0  0  0  0  0  0  0  0
  1  2  1  0  0  0  0
  1 31  1  0  0  0  0
  2  3  2  0  0  0  0
  2 21  1  0  0  0  0
  3  4  1  0  0  0  0
  3 32  1  0  0  0  0
  4 33  1  0  0  0  0
  5 21  1  0  0  0  0
  5 34  1  0  0  0  0
  5 35  1  0  0  0  0
  5 36  1  0  0  0  0
  6  7  2  0  0  0  0
  7 20  1  0  0  0  0
  8 20  1  0  0  0  0
  8 22  2  0  0  0  0
  9  4  2  0  0  0  0
  9 10  1  0  0  0  0
  9 20  1  0  0  0  0
 10  1  2  0  0  0  0
 10  6  1  0  0  0  0
 11  8  1  0  0  0  0
 11 12  1  0  0  0  0
 11 16  2  0  0  0  0
 12 13  2  0  0  0  0
 12 37  1  0  0  0  0
 13 14  1  0  0  0  0
 13 38  1  0  0  0  0
 14 15  2  0  0  0  0
 14 25  1  0  0  0  0
 15 16  1  0  0  0  0
 15 39  1  0  0  0  0
 16 40  1  0  0  0  0
 17  7  1  0  0  0  0
 17 41  1  0  0  0  0
 17 42  1  0  0  0  0
 17 43  1  0  0  0  0
 18  6  1  0  0  0  0
 18 19  1  0  0  0  0
 18 44  1  0  0  0  0
 18 45  1  0  0  0  0
 19 23  2  0  0  0  0
 19 26  1  0  0  0  0
 24 46  1  0  0  0  0
 26 47  1  0  0  0  0
 27 26  1  0  0  0  0
 27 28  1  0  0  0  0
 27 29  1  0  0  0  0
 27 48  1  6  0  0  0
 28 24  1  0  0  0  0
 28 49  1  0  0  0  0
 28 50  1  0  0  0  0
 29 30  1  0  0  0  0
 29 51  1  0  0  0  0
 29 52  1  0  0  0  0
 30 53  1  0  0  0  0
 30 54  1  0  0  0  0
 30 55  1  0  0  0  0
M  END
>  <DRUGBANK_ID>
DB07981

>  <COMMON_NAME>
2-[1-(4-chlorobenzoyl)-5-methoxy-2-methyl-1H-indol-3-yl]-n-[(1R)-1-(hydroxymethyl)propyl]acetamide

$$$$
