
 OpenBabel10282417072D

 92 94  0  0  0  0  0  0  0  0999 V2000
    6.5586    2.3935    0.0000 S   0  0  0  0  0  0  0  0  0  0  0  0
   -6.7185    2.7248    0.0000 P   0  0  0  0  0  0  0  0  0  0  0  0
   -4.1441    1.7020    0.0000 P   0  0  1  0  0  0  0  0  0  0  0  0
   -2.7228    1.8489    0.0000 P   0  0  2  0  0  0  0  0  0  0  0  0
    8.3962    1.4504    0.0000 F   0  0  0  0  0  0  0  0  0  0  0  0
    9.0700    2.9566    0.0000 F   0  0  0  0  0  0  0  0  0  0  0  0
    9.4863    1.8666    0.0000 F   0  0  0  0  0  0  0  0  0  0  0  0
   -6.2353    0.2463    0.0000 O   0  0  0  0  0  0  0  0  0  0  0  0
   -7.2716    2.1127    0.0000 O   0  0  0  0  0  0  0  0  0  0  0  0
   -8.3292    0.6624    0.0000 O   0  0  0  0  0  0  0  0  0  0  0  0
   -4.8125    1.2182    0.0000 O   0  0  0  0  0  0  0  0  0  0  0  0
   -7.3307    3.2780    0.0000 O   0  0  0  0  0  0  0  0  0  0  0  0
   -6.1654    3.3370    0.0000 O   0  0  0  0  0  0  0  0  0  0  0  0
   -3.4759    2.1857    0.0000 O   0  0  0  0  0  0  0  0  0  0  0  0
   -1.9696    1.5120    0.0000 O   0  0  0  0  0  0  0  0  0  0  0  0
   -6.1063    2.1717    0.0000 O   0  0  0  0  0  0  0  0  0  0  0  0
   -3.6604    1.0337    0.0000 O   0  0  0  0  0  0  0  0  0  0  0  0
    0.2896    0.5015    0.0000 O   0  0  0  0  0  0  0  0  0  0  0  0
   -4.6279    2.3703    0.0000 O   0  0  0  0  0  0  0  0  0  0  0  0
   -2.3859    2.6020    0.0000 O   0  0  0  0  0  0  0  0  0  0  0  0
   -3.0596    1.0958    0.0000 O   0  0  0  0  0  0  0  0  0  0  0  0
    0.7882    2.6265    0.0000 O   0  0  0  0  0  0  0  0  0  0  0  0
    3.6310    2.9203    0.0000 O   0  0  0  0  0  0  0  0  0  0  0  0
    7.8952    3.3611    0.0000 O   0  0  0  0  0  0  0  0  0  0  0  0
   -7.2766   -0.7914    0.0000 N   0  0  0  0  0  0  0  0  0  0  0  0
   -7.2766   -2.1192    0.0000 N   0  0  0  0  0  0  0  0  0  0  0  0
   -8.7718   -0.6303    0.0000 N   0  0  0  0  0  0  0  0  0  0  0  0
   -9.4863   -1.8678    0.0000 N   0  0  0  0  0  0  0  0  0  0  0  0
   -8.7718   -3.1053    0.0000 N   0  0  0  0  0  0  0  0  0  0  0  0
    1.6262    1.4690    0.0000 N   0  0  0  0  0  0  0  0  0  0  0  0
    4.4689    1.7628    0.0000 N   0  0  0  0  0  0  0  0  0  0  0  0
   -7.0181    1.3276    0.0000 C   0  0  1  0  0  0  0  0  0  0  0  0
   -7.5042    0.6610    0.0000 C   0  0  2  0  0  0  0  0  0  0  0  0
   -6.2338    1.0713    0.0000 C   0  0  1  0  0  0  0  0  0  0  0  0
   -7.0204   -0.0072    0.0000 C   0  0  1  0  0  0  0  0  0  0  0  0
   -5.5655    1.5551    0.0000 C   0  0  0  0  0  0  0  0  0  0  0  0
   -8.0572   -1.0428    0.0000 C   0  0  0  0  0  0  0  0  0  0  0  0
   -6.7951   -1.4553    0.0000 C   0  0  0  0  0  0  0  0  0  0  0  0
   -8.0572   -1.8678    0.0000 C   0  0  0  0  0  0  0  0  0  0  0  0
   -0.5483    1.6590    0.0000 C   0  0  0  0  0  0  0  0  0  0  0  0
    0.2048    1.3221    0.0000 C   0  0  2  0  0  0  0  0  0  0  0  0
   -1.3014    1.9958    0.0000 C   0  0  0  0  0  0  0  0  0  0  0  0
   -8.7718   -2.2803    0.0000 C   0  0  0  0  0  0  0  0  0  0  0  0
   -0.8851    0.9058    0.0000 C   0  0  0  0  0  0  0  0  0  0  0  0
   -0.2114    2.4120    0.0000 C   0  0  0  0  0  0  0  0  0  0  0  0
   -9.4863   -1.0428    0.0000 C   0  0  0  0  0  0  0  0  0  0  0  0
    0.8730    1.8058    0.0000 C   0  0  0  0  0  0  0  0  0  0  0  0
    2.2944    1.9528    0.0000 C   0  0  0  0  0  0  0  0  0  0  0  0
    3.0475    1.6159    0.0000 C   0  0  0  0  0  0  0  0  0  0  0  0
    3.7159    2.0997    0.0000 C   0  0  0  0  0  0  0  0  0  0  0  0
    5.1372    2.2465    0.0000 C   0  0  0  0  0  0  0  0  0  0  0  0
    5.8903    1.9097    0.0000 C   0  0  0  0  0  0  0  0  0  0  0  0
    7.3118    2.0566    0.0000 C   0  0  0  0  0  0  0  0  0  0  0  0
    7.9800    2.5404    0.0000 C   0  0  0  0  0  0  0  0  0  0  0  0
    8.7331    2.2036    0.0000 C   0  0  0  0  0  0  0  0  0  0  0  0
   -9.2147   -3.3611    0.0000 H   0  0  0  0  0  0  0  0  0  0  0  0
   -8.3288   -3.3611    0.0000 H   0  0  0  0  0  0  0  0  0  0  0  0
    1.6787    0.9602    0.0000 H   0  0  0  0  0  0  0  0  0  0  0  0
    4.5215    1.2540    0.0000 H   0  0  0  0  0  0  0  0  0  0  0  0
   -8.8128    1.5033    0.0000 H   0  0  0  0  0  0  0  0  0  0  0  0
   -7.1273    4.2264    0.0000 H   0  0  0  0  0  0  0  0  0  0  0  0
   -5.2169    3.1337    0.0000 H   0  0  0  0  0  0  0  0  0  0  0  0
   -4.0565    0.1483    0.0000 H   0  0  0  0  0  0  0  0  0  0  0  0
   -0.4961   -0.0673    0.0000 H   0  0  0  0  0  0  0  0  0  0  0  0
   -1.4210    2.7017    0.0000 H   0  0  0  0  0  0  0  0  0  0  0  0
   -8.0746    1.4969    0.0000 H   0  0  0  0  0  0  0  0  0  0  0  0
   -7.9883    1.6152    0.0000 H   0  0  0  0  0  0  0  0  0  0  0  0
   -5.2813    0.5838    0.0000 H   0  0  0  0  0  0  0  0  0  0  0  0
   -6.2651   -0.7651    0.0000 H   0  0  0  0  0  0  0  0  0  0  0  0
   -5.6755    2.6194    0.0000 H   0  0  0  0  0  0  0  0  0  0  0  0
   -6.5422    1.9920    0.0000 H   0  0  0  0  0  0  0  0  0  0  0  0
   -5.7631   -1.4553    0.0000 H   0  0  0  0  0  0  0  0  0  0  0  0
   -0.6620    0.6947    0.0000 H   0  0  0  0  0  0  0  0  0  0  0  0
   -1.4115    3.0601    0.0000 H   0  0  0  0  0  0  0  0  0  0  0  0
   -0.4347    2.6233    0.0000 H   0  0  0  0  0  0  0  0  0  0  0  0
   -1.9494    0.7957    0.0000 H   0  0  0  0  0  0  0  0  0  0  0  0
   -0.2576    0.0391    0.0000 H   0  0  0  0  0  0  0  0  0  0  0  0
   -1.3219   -0.0710    0.0000 H   0  0  0  0  0  0  0  0  0  0  0  0
    0.8529    2.5219    0.0000 H   0  0  0  0  0  0  0  0  0  0  0  0
   -0.8388    3.2788    0.0000 H   0  0  0  0  0  0  0  0  0  0  0  0
    0.2256    3.3887    0.0000 H   0  0  0  0  0  0  0  0  0  0  0  0
  -10.3800   -0.5268    0.0000 H   0  0  0  0  0  0  0  0  0  0  0  0
    2.1844    3.0171    0.0000 H   0  0  0  0  0  0  0  0  0  0  0  0
    3.1611    2.5802    0.0000 H   0  0  0  0  0  0  0  0  0  0  0  0
    3.1575    0.5516    0.0000 H   0  0  0  0  0  0  0  0  0  0  0  0
    4.0242    1.1790    0.0000 H   0  0  0  0  0  0  0  0  0  0  0  0
    5.0272    3.3108    0.0000 H   0  0  0  0  0  0  0  0  0  0  0  0
    6.0039    2.8740    0.0000 H   0  0  0  0  0  0  0  0  0  0  0  0
    6.0004    0.8454    0.0000 H   0  0  0  0  0  0  0  0  0  0  0  0
    5.0236    1.2822    0.0000 H   0  0  0  0  0  0  0  0  0  0  0  0
    7.4219    0.9923    0.0000 H   0  0  0  0  0  0  0  0  0  0  0  0
    8.2886    1.6198    0.0000 H   0  0  0  0  0  0  0  0  0  0  0  0
  1 52  1  0  0  0  0
  1 53  1  0  0  0  0
  2  9  1  0  0  0  0
  2 12  1  0  0  0  0
  2 13  1  0  0  0  0
  2 16  2  0  0  0  0
  3 11  1  0  0  0  0
  3 14  1  0  0  0  0
  3 17  1  0  0  0  0
  3 19  2  6  0  0  0
  4 14  1  0  0  0  0
  4 15  1  0  0  0  0
  4 20  1  0  0  0  0
  4 21  2  6  0  0  0
  5 55  1  0  0  0  0
  6 55  1  0  0  0  0
  7 55  1  0  0  0  0
  8 34  1  0  0  0  0
  8 35  1  0  0  0  0
 10 60  1  0  0  0  0
 11 36  1  0  0  0  0
 12 61  1  0  0  0  0
 13 62  1  0  0  0  0
 15 42  1  0  0  0  0
 17 63  1  0  0  0  0
 18 64  1  0  0  0  0
 20 65  1  0  0  0  0
 22 47  2  0  0  0  0
 23 50  2  0  0  0  0
 24 54  2  0  0  0  0
 25 37  1  0  0  0  0
 25 38  1  0  0  0  0
 26 38  2  0  0  0  0
 26 39  1  0  0  0  0
 27 37  2  0  0  0  0
 27 46  1  0  0  0  0
 28 43  1  0  0  0  0
 28 46  2  0  0  0  0
 29 43  1  0  0  0  0
 29 56  1  0  0  0  0
 29 57  1  0  0  0  0
 30 47  1  0  0  0  0
 30 48  1  0  0  0  0
 30 58  1  0  0  0  0
 31 50  1  0  0  0  0
 31 51  1  0  0  0  0
 31 59  1  0  0  0  0
 32  9  1  0  0  0  0
 32 33  1  0  0  0  0
 32 34  1  0  0  0  0
 32 66  1  1  0  0  0
 33 10  1  0  0  0  0
 33 35  1  0  0  0  0
 33 67  1  1  0  0  0
 34 36  1  0  0  0  0
 34 68  1  6  0  0  0
 35 25  1  0  0  0  0
 35 69  1  6  0  0  0
 36 70  1  0  0  0  0
 36 71  1  0  0  0  0
 37 39  1  0  0  0  0
 38 72  1  0  0  0  0
 39 43  2  0  0  0  0
 40 41  1  0  0  0  0
 40 42  1  0  0  0  0
 40 44  1  0  0  0  0
 40 45  1  0  0  0  0
 41 18  1  0  0  0  0
 41 47  1  0  0  0  0
 41 73  1  1  0  0  0
 42 74  1  0  0  0  0
 42 75  1  0  0  0  0
 44 76  1  0  0  0  0
 44 77  1  0  0  0  0
 44 78  1  0  0  0  0
 45 79  1  0  0  0  0
 45 80  1  0  0  0  0
 45 81  1  0  0  0  0
 46 82  1  0  0  0  0
 48 49  1  0  0  0  0
 48 83  1  0  0  0  0
 48 84  1  0  0  0  0
 49 50  1  0  0  0  0
 49 85  1  0  0  0  0
 49 86  1  0  0  0  0
 51 52  1  0  0  0  0
 51 87  1  0  0  0  0
 51 88  1  0  0  0  0
 52 89  1  0  0  0  0
 52 90  1  0  0  0  0
 53 54  1  0  0  0  0
 53 91  1  0  0  0  0
 53 92  1  0  0  0  0
 54 55  1  0  0  0  0
M  END
>  <DRUGBANK_ID>
DB01969

>  <SECONDARY_ACCESSION_NUMBERS>
EXPT00982

>  <COMMON_NAME>
Trifluoroacetonyl coenzyme A

$$$$
