
 OpenBabel10282417072D

 30 29  0  0  0  0  0  0  0  0999 V2000
   -3.2151   -0.2062    0.0000 C   0  0  0  0  0  0  0  0  0  0  0  0
   -1.7861   -0.2062    0.0000 N   0  0  0  0  0  0  0  0  0  0  0  0
   -2.5006    0.2062    0.0000 C   0  0  0  0  0  0  0  0  0  0  0  0
   -3.2151   -1.0312    0.0000 O   0  0  0  0  0  0  0  0  0  0  0  0
   -3.9296    0.2062    0.0000 O   0  0  0  0  0  0  0  0  0  0  0  0
   -1.0717    0.2062    0.0000 C   0  0  0  0  0  0  0  0  0  0  0  0
    0.3572    0.2062    0.0000 N   0  0  0  0  0  0  0  0  0  0  0  0
   -0.3571   -0.2062    0.0000 C   0  0  0  0  0  0  0  0  0  0  0  0
   -1.0717    1.0312    0.0000 O   0  0  0  0  0  0  0  0  0  0  0  0
    1.0717   -0.2062    0.0000 C   0  0  0  0  0  0  0  0  0  0  0  0
    2.5007   -0.2062    0.0000 N   0  0  0  0  0  0  0  0  0  0  0  0
    1.7861    0.2062    0.0000 C   0  0  0  0  0  0  0  0  0  0  0  0
    1.0717   -1.0312    0.0000 O   0  0  0  0  0  0  0  0  0  0  0  0
    3.2151    0.2062    0.0000 C   0  0  0  0  0  0  0  0  0  0  0  0
    3.2151    1.0312    0.0000 O   0  0  0  0  0  0  0  0  0  0  0  0
    3.9296   -0.2062    0.0000 C   0  0  0  0  0  0  0  0  0  0  0  0
    3.9296   -1.0312    0.0000 S   0  0  0  0  0  0  0  0  0  0  0  0
   -1.7861   -1.1907    0.0000 H   0  0  0  0  0  0  0  0  0  0  0  0
   -2.5006    1.2762    0.0000 H   0  0  0  0  0  0  0  0  0  0  0  0
   -3.4272    0.7413    0.0000 H   0  0  0  0  0  0  0  0  0  0  0  0
   -3.9297    1.1432    0.0000 H   0  0  0  0  0  0  0  0  0  0  0  0
    0.3571    1.1907    0.0000 H   0  0  0  0  0  0  0  0  0  0  0  0
   -0.3570   -1.2762    0.0000 H   0  0  0  0  0  0  0  0  0  0  0  0
   -1.2837   -0.7413    0.0000 H   0  0  0  0  0  0  0  0  0  0  0  0
    2.5008   -1.1907    0.0000 H   0  0  0  0  0  0  0  0  0  0  0  0
    1.7860    1.2762    0.0000 H   0  0  0  0  0  0  0  0  0  0  0  0
    0.8595    0.7412    0.0000 H   0  0  0  0  0  0  0  0  0  0  0  0
    4.8562    0.3289    0.0000 H   0  0  0  0  0  0  0  0  0  0  0  0
    4.8563   -0.7412    0.0000 H   0  0  0  0  0  0  0  0  0  0  0  0
    2.7518   -1.7112    0.0000 H   0  0  0  0  0  0  0  0  0  0  0  0
  1  3  1  0  0  0  0
  1  4  2  0  0  0  0
  1  5  1  0  0  0  0
  2  3  1  0  0  0  0
  2  6  1  0  0  0  0
  2 18  1  0  0  0  0
  3 19  1  0  0  0  0
  3 20  1  0  0  0  0
  5 21  1  0  0  0  0
  6  8  1  0  0  0  0
  6  9  2  0  0  0  0
  7  8  1  0  0  0  0
  7 10  1  0  0  0  0
  7 22  1  0  0  0  0
  8 23  1  0  0  0  0
  8 24  1  0  0  0  0
 10 12  1  0  0  0  0
 10 13  2  0  0  0  0
 11 12  1  0  0  0  0
 11 14  1  0  0  0  0
 11 25  1  0  0  0  0
 12 26  1  0  0  0  0
 12 27  1  0  0  0  0
 14 15  2  0  0  0  0
 14 16  1  0  0  0  0
 16 17  1  0  0  0  0
 16 28  1  0  0  0  0
 16 29  1  0  0  0  0
 17 30  1  0  0  0  0
M  END
>  <DRUGBANK_ID>
DB15780

>  <COMMON_NAME>
Mertiatide

>  <CAS_NUMBER>
66516-09-4

>  <UNII>
8NVY8268MY

>  <SYNONYMS>
Mertiatide

$$$$
