
 OpenBabel10282417072D

 28 28  0  0  0  0  0  0  0  0999 V2000
   -1.4256    0.4190    0.0000 C   0  0  0  0  0  0  0  0  0  0  0  0
   -1.4256   -0.4085    0.0000 C   0  0  0  0  0  0  0  0  0  0  0  0
   -0.7119    0.8326    0.0000 C   0  0  0  0  0  0  0  0  0  0  0  0
   -2.1396    0.8258    0.0000 N   0  0  0  0  0  0  0  0  0  0  0  0
   -0.7119   -0.8223    0.0000 C   0  0  0  0  0  0  0  0  0  0  0  0
    0.0050    0.4190    0.0000 C   0  0  0  0  0  0  0  0  0  0  0  0
   -2.8532    0.4119    0.0000 C   0  0  0  0  0  0  0  0  0  0  0  0
    0.0016   -0.4119    0.0000 C   0  0  0  0  0  0  0  0  0  0  0  0
   -3.5635    0.8224    0.0000 C   0  0  0  0  0  0  0  0  0  0  0  0
   -2.8499   -0.4119    0.0000 O   0  0  0  0  0  0  0  0  0  0  0  0
    0.7153   -0.8258    0.0000 C   0  0  0  0  0  0  0  0  0  0  0  0
    1.4256   -0.4154    0.0000 N   0  0  0  0  0  0  0  0  0  0  0  0
    2.1395   -0.8291    0.0000 N   0  0  0  0  0  0  0  0  0  0  0  0
    2.8531   -0.4189    0.0000 C   0  0  0  0  0  0  0  0  0  0  0  0
    3.5635   -0.8326    0.0000 N   0  0  0  0  0  0  0  0  0  0  0  0
    2.8531    0.4051    0.0000 S   0  0  0  0  0  0  0  0  0  0  0  0
   -2.3198   -0.9237    0.0000 H   0  0  0  0  0  0  0  0  0  0  0  0
   -0.7129    1.8646    0.0000 H   0  0  0  0  0  0  0  0  0  0  0  0
   -2.1434    1.8103    0.0000 H   0  0  0  0  0  0  0  0  0  0  0  0
   -0.7137   -1.8543    0.0000 H   0  0  0  0  0  0  0  0  0  0  0  0
    0.8997    0.9333    0.0000 H   0  0  0  0  0  0  0  0  0  0  0  0
   -3.5630    1.8924    0.0000 H   0  0  0  0  0  0  0  0  0  0  0  0
   -4.4904    0.2878    0.0000 H   0  0  0  0  0  0  0  0  0  0  0  0
   -4.4899    1.3578    0.0000 H   0  0  0  0  0  0  0  0  0  0  0  0
    0.7145   -1.8578    0.0000 H   0  0  0  0  0  0  0  0  0  0  0  0
    2.1378   -1.8136    0.0000 H   0  0  0  0  0  0  0  0  0  0  0  0
    3.5598   -1.8171    0.0000 H   0  0  0  0  0  0  0  0  0  0  0  0
    4.4179   -0.3435    0.0000 H   0  0  0  0  0  0  0  0  0  0  0  0
  1  2  2  0  0  0  0
  1  3  1  0  0  0  0
  1  4  1  0  0  0  0
  2  5  1  0  0  0  0
  2 17  1  0  0  0  0
  3  6  2  0  0  0  0
  3 18  1  0  0  0  0
  4  7  1  0  0  0  0
  4 19  1  0  0  0  0
  5  8  2  0  0  0  0
  5 20  1  0  0  0  0
  6  8  1  0  0  0  0
  6 21  1  0  0  0  0
  7  9  1  0  0  0  0
  7 10  2  0  0  0  0
  8 11  1  0  0  0  0
  9 22  1  0  0  0  0
  9 23  1  0  0  0  0
  9 24  1  0  0  0  0
 11 12  2  0  0  0  0
 11 25  1  0  0  0  0
 12 13  1  0  0  0  0
 13 14  1  0  0  0  0
 13 26  1  0  0  0  0
 14 15  1  0  0  0  0
 14 16  2  0  0  0  0
 15 27  1  0  0  0  0
 15 28  1  0  0  0  0
M  END
>  <DRUGBANK_ID>
DB12829

>  <COMMON_NAME>
Amithiozone

>  <CAS_NUMBER>
104-06-3

>  <UNII>
MMG78X7SSR

>  <SYNONYMS>
Amithiozone; Thioacetazone; Thioac√©tazone; Thioacetazonum; Tioacetazona

$$$$
