
 OpenBabel10282417072D

 25 26  0  0  1  0  0  0  0  0999 V2000
    2.4183    1.6060    0.0000 C   0  0  0  0  0  0  0  0  0  0  0  0
    0.1363    0.7073    0.0000 C   0  0  0  0  0  0  0  0  0  0  0  0
    0.1363   -0.3533    0.0000 C   0  0  0  0  0  0  0  0  0  0  0  0
    2.4183    0.1770    0.0000 C   0  0  0  0  0  0  0  0  0  0  0  0
    1.3594    0.1770    0.0000 C   0  0  0  0  0  0  0  0  0  0  0  0
    2.0058    0.8915    0.0000 C   0  0  0  0  0  0  0  0  0  0  0  0
    1.1808    0.8915    0.0000 C   0  0  1  0  0  0  0  0  0  0  0  0
    1.1808   -0.5375    0.0000 C   0  0  2  0  0  0  0  0  0  0  0  0
    2.0058   -0.5375    0.0000 C   0  0  0  0  0  0  0  0  0  0  0  0
    0.7683    0.1770    0.0000 C   0  0  0  0  0  0  0  0  0  0  0  0
    2.4183   -1.2519    0.0000 O   0  0  0  0  0  0  0  0  0  0  0  0
    0.7683    1.6060    0.0000 H   0  0  0  0  0  0  0  0  0  0  0  0
    0.7683   -1.2519    0.0000 H   0  0  0  0  0  0  0  0  0  0  0  0
    3.4883    1.6060    0.0000 H   0  0  0  0  0  0  0  0  0  0  0  0
    1.8833    2.5326    0.0000 H   0  0  0  0  0  0  0  0  0  0  0  0
    2.9533    2.5327    0.0000 H   0  0  0  0  0  0  0  0  0  0  0  0
    0.3221    1.7610    0.0000 H   0  0  0  0  0  0  0  0  0  0  0  0
   -0.8692    0.3413    0.0000 H   0  0  0  0  0  0  0  0  0  0  0  0
   -0.6834    1.3951    0.0000 H   0  0  0  0  0  0  0  0  0  0  0  0
   -0.8692    0.0127    0.0000 H   0  0  0  0  0  0  0  0  0  0  0  0
    0.3221   -1.4070    0.0000 H   0  0  0  0  0  0  0  0  0  0  0  0
   -0.6834   -1.0411    0.0000 H   0  0  0  0  0  0  0  0  0  0  0  0
    3.4503    0.1770    0.0000 H   0  0  0  0  0  0  0  0  0  0  0  0
    2.4294    0.1770    0.0000 H   0  0  0  0  0  0  0  0  0  0  0  0
    2.0179   -0.6664    0.0000 H   0  0  0  0  0  0  0  0  0  0  0  0
  1 14  1  0  0  0  0
  1 15  1  0  0  0  0
  1 16  1  0  0  0  0
  2 17  1  0  0  0  0
  2 18  1  0  0  0  0
  2 19  1  0  0  0  0
  3 20  1  0  0  0  0
  3 21  1  0  0  0  0
  3 22  1  0  0  0  0
  4 23  1  0  0  0  0
  5 24  1  0  0  0  0
  5 25  1  0  0  0  0
  6  1  1  0  0  0  0
  6  4  2  0  0  0  0
  7  5  1  0  0  0  0
  7  6  1  0  0  0  0
  7 12  1  1  0  0  0
  8  5  1  0  0  0  0
  8 13  1  1  0  0  0
  9  4  1  0  0  0  0
  9  8  1  0  0  0  0
 10  2  1  0  0  0  0
 10  3  1  0  0  0  0
 10  7  1  0  0  0  0
 10  8  1  0  0  0  0
 11  9  2  0  0  0  0
M  END
>  <DRUGBANK_ID>
DB13391

>  <COMMON_NAME>
Levoverbenone

>  <CAS_NUMBER>
1196-01-6

>  <UNII>
2XP0J7754U

$$$$
