
 OpenBabel10282417072D

 49 52  0  0  0  0  0  0  0  0999 V2000
   -0.2052    2.2158    0.0000 O   0  0  0  0  0  0  0  0  0  0  0  0
    1.7570   -1.6865    0.0000 O   0  0  0  0  0  0  0  0  0  0  0  0
   -1.8957    0.1746    0.0000 O   0  0  0  0  0  0  0  0  0  0  0  0
    1.3012   -3.0408    0.0000 O   0  0  0  0  0  0  0  0  0  0  0  0
   -3.3183    0.3091    0.0000 O   0  0  0  0  0  0  0  0  0  0  0  0
    1.1048    2.8832    0.0000 N   0  0  0  0  0  0  0  0  0  0  0  0
    1.1048    1.5483    0.0000 C   0  0  0  0  0  0  0  0  0  0  0  0
    1.8893    1.8033    0.0000 C   0  0  0  0  0  0  0  0  0  0  0  0
    0.6198    2.2158    0.0000 C   0  0  0  0  0  0  0  0  0  0  0  0
    1.2677    0.7396    0.0000 C   0  0  0  0  0  0  0  0  0  0  0  0
    0.3546    1.2049    0.0000 C   0  0  0  0  0  0  0  0  0  0  0  0
    1.8893    2.6283    0.0000 C   0  0  0  0  0  0  0  0  0  0  0  0
    2.6038    1.3908    0.0000 C   0  0  0  0  0  0  0  0  0  0  0  0
    2.0497    0.4765    0.0000 C   0  0  0  0  0  0  0  0  0  0  0  0
    0.2769    0.3836    0.0000 C   0  0  0  0  0  0  0  0  0  0  0  0
    0.6490    0.1940    0.0000 C   0  0  0  0  0  0  0  0  0  0  0  0
   -0.3178    1.6828    0.0000 C   0  0  0  0  0  0  0  0  0  0  0  0
    2.6038    3.0408    0.0000 C   0  0  0  0  0  0  0  0  0  0  0  0
    3.3183    1.8033    0.0000 C   0  0  0  0  0  0  0  0  0  0  0  0
    3.3183    2.6283    0.0000 C   0  0  0  0  0  0  0  0  0  0  0  0
    2.2128   -0.3322    0.0000 C   0  0  0  0  0  0  0  0  0  0  0  0
   -0.4731    0.0401    0.0000 C   0  0  0  0  0  0  0  0  0  0  0  0
    0.8119   -0.6146    0.0000 C   0  0  0  0  0  0  0  0  0  0  0  0
   -1.0680    1.3394    0.0000 C   0  0  0  0  0  0  0  0  0  0  0  0
    1.5940   -0.8777    0.0000 C   0  0  0  0  0  0  0  0  0  0  0  0
   -1.1456    0.5180    0.0000 C   0  0  0  0  0  0  0  0  0  0  0  0
    1.1381   -2.2320    0.0000 C   0  0  0  0  0  0  0  0  0  0  0  0
   -2.5681    0.6525    0.0000 C   0  0  0  0  0  0  0  0  0  0  0  0
    0.3562   -1.9689    0.0000 C   0  0  0  0  0  0  0  0  0  0  0  0
   -2.4906    1.4738    0.0000 C   0  0  0  0  0  0  0  0  0  0  0  0
    0.8006    3.8195    0.0000 H   0  0  0  0  0  0  0  0  0  0  0  0
    2.6038    0.3588    0.0000 H   0  0  0  0  0  0  0  0  0  0  0  0
    2.8238    1.1590    0.0000 H   0  0  0  0  0  0  0  0  0  0  0  0
    1.1181   -0.2142    0.0000 H   0  0  0  0  0  0  0  0  0  0  0  0
   -0.3291    0.5232    0.0000 H   0  0  0  0  0  0  0  0  0  0  0  0
   -0.2206    2.7102    0.0000 H   0  0  0  0  0  0  0  0  0  0  0  0
    2.6038    4.0728    0.0000 H   0  0  0  0  0  0  0  0  0  0  0  0
    4.2120    1.2873    0.0000 H   0  0  0  0  0  0  0  0  0  0  0  0
    4.2120    3.1443    0.0000 H   0  0  0  0  0  0  0  0  0  0  0  0
    3.1909   -0.6614    0.0000 H   0  0  0  0  0  0  0  0  0  0  0  0
   -0.5701   -0.9873    0.0000 H   0  0  0  0  0  0  0  0  0  0  0  0
    0.0378   -1.2971    0.0000 H   0  0  0  0  0  0  0  0  0  0  0  0
   -1.9092    1.9372    0.0000 H   0  0  0  0  0  0  0  0  0  0  0  0
    0.1447   -0.9200    0.0000 H   0  0  0  0  0  0  0  0  0  0  0  0
   -0.4464   -2.6765    0.0000 H   0  0  0  0  0  0  0  0  0  0  0  0
   -0.6579   -1.6277    0.0000 H   0  0  0  0  0  0  0  0  0  0  0  0
   -1.5178    1.9194    0.0000 H   0  0  0  0  0  0  0  0  0  0  0  0
   -3.3629    2.0935    0.0000 H   0  0  0  0  0  0  0  0  0  0  0  0
   -2.3901    2.5391    0.0000 H   0  0  0  0  0  0  0  0  0  0  0  0
  1  9  2  0  0  0  0
  2 25  1  0  0  0  0
  2 27  1  0  0  0  0
  3 26  1  0  0  0  0
  3 28  1  0  0  0  0
  4 27  2  0  0  0  0
  5 28  2  0  0  0  0
  6  9  1  0  0  0  0
  6 12  1  0  0  0  0
  6 31  1  0  0  0  0
  7  8  1  0  0  0  0
  7  9  1  0  0  0  0
  7 10  1  0  0  0  0
  7 11  1  0  0  0  0
  8 12  1  0  0  0  0
  8 13  2  0  0  0  0
 10 14  2  0  0  0  0
 10 16  1  0  0  0  0
 11 15  2  0  0  0  0
 11 17  1  0  0  0  0
 12 18  2  0  0  0  0
 13 19  1  0  0  0  0
 13 32  1  0  0  0  0
 14 21  1  0  0  0  0
 14 33  1  0  0  0  0
 15 22  1  0  0  0  0
 15 34  1  0  0  0  0
 16 23  2  0  0  0  0
 16 35  1  0  0  0  0
 17 24  2  0  0  0  0
 17 36  1  0  0  0  0
 18 20  1  0  0  0  0
 18 37  1  0  0  0  0
 19 20  2  0  0  0  0
 19 38  1  0  0  0  0
 20 39  1  0  0  0  0
 21 25  2  0  0  0  0
 21 40  1  0  0  0  0
 22 26  2  0  0  0  0
 22 41  1  0  0  0  0
 23 25  1  0  0  0  0
 23 42  1  0  0  0  0
 24 26  1  0  0  0  0
 24 43  1  0  0  0  0
 27 29  1  0  0  0  0
 28 30  1  0  0  0  0
 29 44  1  0  0  0  0
 29 45  1  0  0  0  0
 29 46  1  0  0  0  0
 30 47  1  0  0  0  0
 30 48  1  0  0  0  0
 30 49  1  0  0  0  0
M  END
>  <DRUGBANK_ID>
DB14627

>  <SECONDARY_ACCESSION_NUMBERS>
DBSALT002242

>  <COMMON_NAME>
Oxyphenisatin acetate

>  <CAS_NUMBER>
115-33-3

>  <UNII>
U0Y1YAL65X

>  <SYNONYMS>
Oxyphenisatin acetate; Oxyphenisatin diacetate; Oxyphenisatine acetate

$$$$
