
 OpenBabel10282417072D

258262  0  0  1  0  0  0  0  0999 V2000
   -1.2813   -0.7271    0.0000 C   0  0  0  0  0  0  0  0  0  0  0  0
   -0.5669   -0.3146    0.0000 C   0  0  0  0  0  0  0  0  0  0  0  0
    0.1476   -0.7271    0.0000 C   0  0  0  0  0  0  0  0  0  0  0  0
    0.8621   -0.3146    0.0000 C   0  0  0  0  0  0  0  0  0  0  0  0
    1.5765   -0.7271    0.0000 C   0  0  0  0  0  0  0  0  0  0  0  0
    2.2910   -0.3146    0.0000 C   0  0  0  0  0  0  0  0  0  0  0  0
    3.0055   -0.7271    0.0000 C   0  0  0  0  0  0  0  0  0  0  0  0
    3.0055   -1.5521    0.0000 O   0  0  0  0  0  0  0  0  0  0  0  0
    3.7200   -0.3146    0.0000 N   0  0  0  0  0  0  0  0  0  0  0  0
    3.7200    0.5104    0.0000 C   0  0  0  0  0  0  0  0  0  0  0  0
    3.0055    0.0979    0.0000 C   0  0  0  0  0  0  0  0  0  0  0  0
    2.2910    0.5104    0.0000 S   0  0  0  0  0  0  0  0  0  0  0  0
    2.2910    1.3354    0.0000 S   0  0  0  0  0  0  0  0  0  0  0  0
    3.0055    1.7479    0.0000 C   0  0  0  0  0  0  0  0  0  0  0  0
    3.0055    2.5729    0.0000 C   0  0  2  0  0  0  0  0  0  0  0  0
    3.7200    2.9854    0.0000 N   0  0  0  0  0  0  0  0  0  0  0  0
    3.7200    3.8104    0.0000 C   0  0  0  0  0  0  0  0  0  0  0  0
    3.0055    4.2229    0.0000 O   0  0  0  0  0  0  0  0  0  0  0  0
    4.4344    4.2229    0.0000 C   0  0  0  0  0  0  0  0  0  0  0  0
    3.7200    4.6354    0.0000 C   0  0  0  0  0  0  0  0  0  0  0  0
    3.7200    5.4604    0.0000 O   0  0  0  0  0  0  0  0  0  0  0  0
    4.4344    5.0479    0.0000 N   0  0  0  0  0  0  0  0  0  0  0  0
    5.1489    5.4604    0.0000 C   0  0  0  0  0  0  0  0  0  0  0  0
    5.8634    5.0479    0.0000 O   0  0  0  0  0  0  0  0  0  0  0  0
    5.1489    6.2854    0.0000 C   0  0  1  0  0  0  0  0  0  0  0  0
    5.8634    6.6979    0.0000 N   0  0  0  0  0  0  0  0  0  0  0  0
    5.8634    7.5229    0.0000 C   0  0  0  0  0  0  0  0  0  0  0  0
    5.1489    7.9354    0.0000 O   0  0  0  0  0  0  0  0  0  0  0  0
    6.5778    7.9354    0.0000 C   0  0  0  0  0  0  0  0  0  0  0  0
    5.8634    8.3479    0.0000 C   0  0  0  0  0  0  0  0  0  0  0  0
    5.8634    9.1729    0.0000 C   0  0  0  0  0  0  0  0  0  0  0  0
    5.1489    9.5854    0.0000 C   0  0  0  0  0  0  0  0  0  0  0  0
    5.1489   10.4104    0.0000 N   0  0  0  0  0  0  0  0  0  0  0  0
    4.4344   10.8229    0.0000 C   0  0  0  0  0  0  0  0  0  0  0  0
    3.7200   10.4104    0.0000 N   0  0  0  0  0  0  0  0  0  0  0  0
    4.4344   11.6479    0.0000 N   0  0  0  0  0  0  0  0  0  0  0  0
    6.5778    8.7604    0.0000 N   0  0  0  0  0  0  0  0  0  0  0  0
    7.2923    9.1729    0.0000 C   0  0  0  0  0  0  0  0  0  0  0  0
    8.0068    8.7604    0.0000 O   0  0  0  0  0  0  0  0  0  0  0  0
    7.2923    9.9979    0.0000 C   0  0  2  0  0  0  0  0  0  0  0  0
    6.5778   10.4104    0.0000 C   0  0  0  0  0  0  0  0  0  0  0  0
    6.5778   11.2354    0.0000 C   0  0  0  0  0  0  0  0  0  0  0  0
    5.8634   11.6479    0.0000 O   0  0  0  0  0  0  0  0  0  0  0  0
    7.2923   11.6479    0.0000 O   0  0  0  0  0  0  0  0  0  0  0  0
    8.0068   10.4104    0.0000 N   0  0  0  0  0  0  0  0  0  0  0  0
    8.7212    9.9979    0.0000 C   0  0  0  0  0  0  0  0  0  0  0  0
    8.7212    9.1729    0.0000 O   0  0  0  0  0  0  0  0  0  0  0  0
    9.4357   10.4104    0.0000 C   0  0  1  0  0  0  0  0  0  0  0  0
    9.4357   11.2354    0.0000 C   0  0  0  0  0  0  0  0  0  0  0  0
   10.1502   11.6479    0.0000 C   0  0  0  0  0  0  0  0  0  0  0  0
   10.1502   12.4729    0.0000 C   0  0  0  0  0  0  0  0  0  0  0  0
   10.8647   12.8854    0.0000 C   0  0  0  0  0  0  0  0  0  0  0  0
   10.1502    9.9979    0.0000 N   0  0  0  0  0  0  0  0  0  0  0  0
   10.1502    9.1729    0.0000 C   0  0  0  0  0  0  0  0  0  0  0  0
   10.8647    8.7604    0.0000 O   0  0  0  0  0  0  0  0  0  0  0  0
    9.4357    8.7604    0.0000 C   0  0  0  0  0  0  0  0  0  0  0  0
   10.1502    8.3479    0.0000 C   0  0  0  0  0  0  0  0  0  0  0  0
   10.1502    7.5229    0.0000 C   0  0  0  0  0  0  0  0  0  0  0  0
   10.8647    7.1104    0.0000 C   0  0  0  0  0  0  0  0  0  0  0  0
   10.8647    6.2854    0.0000 N   0  0  0  0  0  0  0  0  0  0  0  0
   11.5791    5.8729    0.0000 C   0  0  0  0  0  0  0  0  0  0  0  0
   11.5791    5.0479    0.0000 N   0  0  0  0  0  0  0  0  0  0  0  0
   12.2936    6.2854    0.0000 N   0  0  0  0  0  0  0  0  0  0  0  0
    9.4357    7.9354    0.0000 N   0  0  0  0  0  0  0  0  0  0  0  0
    8.7212    7.5229    0.0000 C   0  0  0  0  0  0  0  0  0  0  0  0
    8.0068    7.9354    0.0000 O   0  0  0  0  0  0  0  0  0  0  0  0
    8.7212    6.6979    0.0000 C   0  0  0  0  0  0  0  0  0  0  0  0
    8.0068    6.2854    0.0000 N   0  0  0  0  0  0  0  0  0  0  0  0
    8.0068    5.4604    0.0000 C   0  0  0  0  0  0  0  0  0  0  0  0
    8.7212    5.0479    0.0000 O   0  0  0  0  0  0  0  0  0  0  0  0
    7.2923    5.0479    0.0000 C   0  0  1  0  0  0  0  0  0  0  0  0
    6.5778    5.4604    0.0000 C   0  0  0  0  0  0  0  0  0  0  0  0
    7.2923    4.2229    0.0000 N   0  0  0  0  0  0  0  0  0  0  0  0
    6.5778    3.8104    0.0000 C   0  0  0  0  0  0  0  0  0  0  0  0
    5.8634    4.2229    0.0000 O   0  0  0  0  0  0  0  0  0  0  0  0
    6.5778    2.9854    0.0000 C   0  0  2  0  0  0  0  0  0  0  0  0
    7.2923    2.5729    0.0000 C   0  0  0  0  0  0  0  0  0  0  0  0
    8.0068    2.9854    0.0000 C   0  0  0  0  0  0  0  0  0  0  0  0
    8.0068    3.8104    0.0000 C   0  0  0  0  0  0  0  0  0  0  0  0
    8.7212    4.2229    0.0000 C   0  0  0  0  0  0  0  0  0  0  0  0
    9.4357    3.8104    0.0000 C   0  0  0  0  0  0  0  0  0  0  0  0
    9.4357    2.9854    0.0000 C   0  0  0  0  0  0  0  0  0  0  0  0
    8.7212    2.5729    0.0000 C   0  0  0  0  0  0  0  0  0  0  0  0
    5.8634    2.5729    0.0000 N   0  0  0  0  0  0  0  0  0  0  0  0
    5.8634    1.7479    0.0000 C   0  0  0  0  0  0  0  0  0  0  0  0
    6.5778    1.3354    0.0000 O   0  0  0  0  0  0  0  0  0  0  0  0
    5.1489    1.3354    0.0000 C   0  0  0  0  0  0  0  0  0  0  0  0
    5.8634    0.9229    0.0000 C   0  0  0  0  0  0  0  0  0  0  0  0
    5.8634    0.0979    0.0000 C   0  0  0  0  0  0  0  0  0  0  0  0
    5.1959   -0.3870    0.0000 C   0  0  0  0  0  0  0  0  0  0  0  0
    5.4509   -1.1716    0.0000 N   0  0  0  0  0  0  0  0  0  0  0  0
    6.2759   -1.1716    0.0000 C   0  0  0  0  0  0  0  0  0  0  0  0
    6.5308   -0.3870    0.0000 N   0  0  0  0  0  0  0  0  0  0  0  0
    5.1489    0.5104    0.0000 N   0  0  0  0  0  0  0  0  0  0  0  0
    4.4344    0.0979    0.0000 C   0  0  0  0  0  0  0  0  0  0  0  0
    4.4344   -0.7271    0.0000 O   0  0  0  0  0  0  0  0  0  0  0  0
    4.4344    6.6979    0.0000 C   0  0  1  0  0  0  0  0  0  0  0  0
    3.7200    6.2854    0.0000 C   0  0  0  0  0  0  0  0  0  0  0  0
    4.4344    7.5229    0.0000 C   0  0  0  0  0  0  0  0  0  0  0  0
    3.7200    7.9354    0.0000 C   0  0  0  0  0  0  0  0  0  0  0  0
    2.2910    2.9854    0.0000 C   0  0  0  0  0  0  0  0  0  0  0  0
    1.9146    2.6635    0.0000 O   0  0  0  0  0  0  0  0  0  0  0  0
    2.2910    3.8104    0.0000 N   0  0  0  0  0  0  0  0  0  0  0  0
    1.5765    4.2229    0.0000 C   0  0  1  0  0  0  0  0  0  0  0  0
    1.4613    3.7413    0.0000 C   0  0  0  0  0  0  0  0  0  0  0  0
    0.6408    3.6550    0.0000 C   0  0  0  0  0  0  0  0  0  0  0  0
    0.0849    2.6293    0.0000 C   0  0  0  0  0  0  0  0  0  0  0  0
   -0.7355    2.5431    0.0000 C   0  0  0  0  0  0  0  0  0  0  0  0
   -0.9484    2.9903    0.0000 C   0  0  0  0  0  0  0  0  0  0  0  0
   -1.7367    2.7467    0.0000 O   0  0  0  0  0  0  0  0  0  0  0  0
   -0.6646    4.2362    0.0000 C   0  0  0  0  0  0  0  0  0  0  0  0
    0.1558    4.3225    0.0000 C   0  0  0  0  0  0  0  0  0  0  0  0
    1.5765    5.0479    0.0000 C   0  0  0  0  0  0  0  0  0  0  0  0
    2.3970    4.9617    0.0000 O   0  0  0  0  0  0  0  0  0  0  0  0
    1.2410    5.8016    0.0000 N   0  0  0  0  0  0  0  0  0  0  0  0
    1.7259    6.4690    0.0000 C   0  0  0  0  0  0  0  0  0  0  0  0
    1.3903    7.2227    0.0000 C   0  0  1  0  0  0  0  0  0  0  0  0
    0.5699    7.3089    0.0000 N   0  0  0  0  0  0  0  0  0  0  0  0
    0.0849    6.6415    0.0000 C   0  0  0  0  0  0  0  0  0  0  0  0
   -0.7355    6.7277    0.0000 O   0  0  0  0  0  0  0  0  0  0  0  0
    0.4205    5.8878    0.0000 C   0  0  2  0  0  0  0  0  0  0  0  0
   -0.3641    5.6329    0.0000 C   0  0  0  0  0  0  0  0  0  0  0  0
   -0.5356    4.8259    0.0000 C   0  0  0  0  0  0  0  0  0  0  0  0
   -1.3203    4.5710    0.0000 C   0  0  0  0  0  0  0  0  0  0  0  0
   -1.4918    3.7640    0.0000 N   0  0  0  0  0  0  0  0  0  0  0  0
   -2.2764    3.5091    0.0000 C   0  0  0  0  0  0  0  0  0  0  0  0
   -2.8895    2.9570    0.0000 N   0  0  0  0  0  0  0  0  0  0  0  0
   -2.8895    4.0611    0.0000 N   0  0  0  0  0  0  0  0  0  0  0  0
    1.8753    7.8901    0.0000 C   0  0  0  0  0  0  0  0  0  0  0  0
    2.6957    7.8039    0.0000 N   0  0  0  0  0  0  0  0  0  0  0  0
    1.5397    8.6438    0.0000 O   0  0  0  0  0  0  0  0  0  0  0  0
   -2.2080   -0.1921    0.0000 H   0  0  0  0  0  0  0  0  0  0  0  0
   -1.2813   -1.7971    0.0000 H   0  0  0  0  0  0  0  0  0  0  0  0
   -2.2079   -1.2621    0.0000 H   0  0  0  0  0  0  0  0  0  0  0  0
   -0.5669    0.7554    0.0000 H   0  0  0  0  0  0  0  0  0  0  0  0
    0.3597    0.2204    0.0000 H   0  0  0  0  0  0  0  0  0  0  0  0
    0.1476   -1.7971    0.0000 H   0  0  0  0  0  0  0  0  0  0  0  0
    1.0742   -1.2621    0.0000 H   0  0  0  0  0  0  0  0  0  0  0  0
    0.8621    0.7554    0.0000 H   0  0  0  0  0  0  0  0  0  0  0  0
    1.7888    0.2204    0.0000 H   0  0  0  0  0  0  0  0  0  0  0  0
    1.5765   -1.7971    0.0000 H   0  0  0  0  0  0  0  0  0  0  0  0
    2.5031   -1.2621    0.0000 H   0  0  0  0  0  0  0  0  0  0  0  0
    2.2910    0.7554    0.0000 H   0  0  0  0  0  0  0  0  0  0  0  0
    3.2176    0.2204    0.0000 H   0  0  0  0  0  0  0  0  0  0  0  0
    4.5726   -0.8069    0.0000 H   0  0  0  0  0  0  0  0  0  0  0  0
    3.7200   -0.5596    0.0000 H   0  0  0  0  0  0  0  0  0  0  0  0
    3.0055   -0.9721    0.0000 H   0  0  0  0  0  0  0  0  0  0  0  0
    2.0789   -0.4371    0.0000 H   0  0  0  0  0  0  0  0  0  0  0  0
    3.9321    1.2129    0.0000 H   0  0  0  0  0  0  0  0  0  0  0  0
    3.9321    2.2829    0.0000 H   0  0  0  0  0  0  0  0  0  0  0  0
    2.0789    2.0379    0.0000 H   0  0  0  0  0  0  0  0  0  0  0  0
    4.5726    2.4931    0.0000 H   0  0  0  0  0  0  0  0  0  0  0  0
    3.8994    5.1496    0.0000 H   0  0  0  0  0  0  0  0  0  0  0  0
    2.7933    4.1004    0.0000 H   0  0  0  0  0  0  0  0  0  0  0  0
    2.7934    5.1704    0.0000 H   0  0  0  0  0  0  0  0  0  0  0  0
    4.5600    5.9454    0.0000 H   0  0  0  0  0  0  0  0  0  0  0  0
    3.5818    5.5402    0.0000 H   0  0  0  0  0  0  0  0  0  0  0  0
    4.2223    5.7504    0.0000 H   0  0  0  0  0  0  0  0  0  0  0  0
    6.7160    6.2056    0.0000 H   0  0  0  0  0  0  0  0  0  0  0  0
    6.0428    8.8621    0.0000 H   0  0  0  0  0  0  0  0  0  0  0  0
    4.9367    7.8129    0.0000 H   0  0  0  0  0  0  0  0  0  0  0  0
    4.9368    8.8829    0.0000 H   0  0  0  0  0  0  0  0  0  0  0  0
    6.7900    9.7079    0.0000 H   0  0  0  0  0  0  0  0  0  0  0  0
    5.8634   10.2429    0.0000 H   0  0  0  0  0  0  0  0  0  0  0  0
    4.2223    9.0504    0.0000 H   0  0  0  0  0  0  0  0  0  0  0  0
    4.2223   10.1204    0.0000 H   0  0  0  0  0  0  0  0  0  0  0  0
    6.0015   10.9027    0.0000 H   0  0  0  0  0  0  0  0  0  0  0  0
    2.8674   10.9026    0.0000 H   0  0  0  0  0  0  0  0  0  0  0  0
    3.7200    9.4259    0.0000 H   0  0  0  0  0  0  0  0  0  0  0  0
    5.2870   12.1402    0.0000 H   0  0  0  0  0  0  0  0  0  0  0  0
    5.7252    9.2527    0.0000 H   0  0  0  0  0  0  0  0  0  0  0  0
    6.3657    9.4629    0.0000 H   0  0  0  0  0  0  0  0  0  0  0  0
    5.6512    9.8754    0.0000 H   0  0  0  0  0  0  0  0  0  0  0  0
    5.6512   10.9454    0.0000 H   0  0  0  0  0  0  0  0  0  0  0  0
    5.8634   12.5849    0.0000 H   0  0  0  0  0  0  0  0  0  0  0  0
    8.0068   11.3949    0.0000 H   0  0  0  0  0  0  0  0  0  0  0  0
    8.5091   10.9454    0.0000 H   0  0  0  0  0  0  0  0  0  0  0  0
    8.5091   11.7704    0.0000 H   0  0  0  0  0  0  0  0  0  0  0  0
    9.4357   12.3054    0.0000 H   0  0  0  0  0  0  0  0  0  0  0  0
   11.0768   11.1129    0.0000 H   0  0  0  0  0  0  0  0  0  0  0  0
   11.0768   12.1829    0.0000 H   0  0  0  0  0  0  0  0  0  0  0  0
    9.2236   13.0079    0.0000 H   0  0  0  0  0  0  0  0  0  0  0  0
   10.1502   13.5429    0.0000 H   0  0  0  0  0  0  0  0  0  0  0  0
   11.7913   12.3504    0.0000 H   0  0  0  0  0  0  0  0  0  0  0  0
   10.8647   13.9554    0.0000 H   0  0  0  0  0  0  0  0  0  0  0  0
   11.7914   13.4204    0.0000 H   0  0  0  0  0  0  0  0  0  0  0  0
   11.0028   10.4902    0.0000 H   0  0  0  0  0  0  0  0  0  0  0  0
    9.9707    7.8338    0.0000 H   0  0  0  0  0  0  0  0  0  0  0  0
   11.0768    8.8829    0.0000 H   0  0  0  0  0  0  0  0  0  0  0  0
   11.0768    7.8129    0.0000 H   0  0  0  0  0  0  0  0  0  0  0  0
    9.2236    6.9879    0.0000 H   0  0  0  0  0  0  0  0  0  0  0  0
   10.1502    6.4529    0.0000 H   0  0  0  0  0  0  0  0  0  0  0  0
   11.7913    7.6454    0.0000 H   0  0  0  0  0  0  0  0  0  0  0  0
   11.7913    6.5754    0.0000 H   0  0  0  0  0  0  0  0  0  0  0  0
   10.0121    5.7932    0.0000 H   0  0  0  0  0  0  0  0  0  0  0  0
   10.7265    4.5556    0.0000 H   0  0  0  0  0  0  0  0  0  0  0  0
   12.4317    4.5556    0.0000 H   0  0  0  0  0  0  0  0  0  0  0  0
   13.1462    5.7931    0.0000 H   0  0  0  0  0  0  0  0  0  0  0  0
   10.2883    7.4431    0.0000 H   0  0  0  0  0  0  0  0  0  0  0  0
    9.6479    6.1629    0.0000 H   0  0  0  0  0  0  0  0  0  0  0  0
    8.7212    5.6279    0.0000 H   0  0  0  0  0  0  0  0  0  0  0  0
    7.1542    6.7776    0.0000 H   0  0  0  0  0  0  0  0  0  0  0  0
    7.2923    6.1179    0.0000 H   0  0  0  0  0  0  0  0  0  0  0  0
    6.5778    6.5304    0.0000 H   0  0  0  0  0  0  0  0  0  0  0  0
    5.6512    4.9254    0.0000 H   0  0  0  0  0  0  0  0  0  0  0  0
    5.6511    5.9954    0.0000 H   0  0  0  0  0  0  0  0  0  0  0  0
    8.1449    3.7306    0.0000 H   0  0  0  0  0  0  0  0  0  0  0  0
    7.5044    3.5204    0.0000 H   0  0  0  0  0  0  0  0  0  0  0  0
    7.2923    1.5029    0.0000 H   0  0  0  0  0  0  0  0  0  0  0  0
    8.2189    2.0379    0.0000 H   0  0  0  0  0  0  0  0  0  0  0  0
    7.1131    4.3264    0.0000 H   0  0  0  0  0  0  0  0  0  0  0  0
    8.7212    5.2549    0.0000 H   0  0  0  0  0  0  0  0  0  0  0  0
   10.3294    4.3264    0.0000 H   0  0  0  0  0  0  0  0  0  0  0  0
   10.3294    2.4694    0.0000 H   0  0  0  0  0  0  0  0  0  0  0  0
    8.7212    1.5409    0.0000 H   0  0  0  0  0  0  0  0  0  0  0  0
    5.0108    3.0651    0.0000 H   0  0  0  0  0  0  0  0  0  0  0  0
    5.6839    0.4088    0.0000 H   0  0  0  0  0  0  0  0  0  0  0  0
    6.7900    1.4579    0.0000 H   0  0  0  0  0  0  0  0  0  0  0  0
    6.7900    0.3879    0.0000 H   0  0  0  0  0  0  0  0  0  0  0  0
    4.2144   -0.0681    0.0000 H   0  0  0  0  0  0  0  0  0  0  0  0
    4.8723   -1.9681    0.0000 H   0  0  0  0  0  0  0  0  0  0  0  0
    6.8825   -2.0065    0.0000 H   0  0  0  0  0  0  0  0  0  0  0  0
    6.0015    0.0181    0.0000 H   0  0  0  0  0  0  0  0  0  0  0  0
    3.5077    7.2329    0.0000 H   0  0  0  0  0  0  0  0  0  0  0  0
    2.7933    6.8204    0.0000 H   0  0  0  0  0  0  0  0  0  0  0  0
    3.7200    5.2154    0.0000 H   0  0  0  0  0  0  0  0  0  0  0  0
    2.7934    5.7504    0.0000 H   0  0  0  0  0  0  0  0  0  0  0  0
    5.3611    8.0579    0.0000 H   0  0  0  0  0  0  0  0  0  0  0  0
    4.4344    8.5929    0.0000 H   0  0  0  0  0  0  0  0  0  0  0  0
    3.7200    9.0054    0.0000 H   0  0  0  0  0  0  0  0  0  0  0  0
    2.7933    7.4004    0.0000 H   0  0  0  0  0  0  0  0  0  0  0  0
    2.7934    8.4704    0.0000 H   0  0  0  0  0  0  0  0  0  0  0  0
    3.1436    4.3027    0.0000 H   0  0  0  0  0  0  0  0  0  0  0  0
    1.9993    3.2400    0.0000 H   0  0  0  0  0  0  0  0  0  0  0  0
    2.1672    2.9372    0.0000 H   0  0  0  0  0  0  0  0  0  0  0  0
    1.0716    2.7448    0.0000 H   0  0  0  0  0  0  0  0  0  0  0  0
    0.6586    1.7714    0.0000 H   0  0  0  0  0  0  0  0  0  0  0  0
   -1.2401    1.6429    0.0000 H   0  0  0  0  0  0  0  0  0  0  0  0
   -2.4239    3.3837    0.0000 H   0  0  0  0  0  0  0  0  0  0  0  0
   -1.3496    5.0081    0.0000 H   0  0  0  0  0  0  0  0  0  0  0  0
    0.5755    5.2653    0.0000 H   0  0  0  0  0  0  0  0  0  0  0  0
    2.7900    6.3572    0.0000 H   0  0  0  0  0  0  0  0  0  0  0  0
    2.3548    7.3347    0.0000 H   0  0  0  0  0  0  0  0  0  0  0  0
    2.4544    7.1108    0.0000 H   0  0  0  0  0  0  0  0  0  0  0  0
    0.1695    8.2083    0.0000 H   0  0  0  0  0  0  0  0  0  0  0  0
   -0.5570    6.3230    0.0000 H   0  0  0  0  0  0  0  0  0  0  0  0
   -1.1593    6.3489    0.0000 H   0  0  0  0  0  0  0  0  0  0  0  0
   -1.3817    5.3022    0.0000 H   0  0  0  0  0  0  0  0  0  0  0  0
    0.2596    4.1099    0.0000 H   0  0  0  0  0  0  0  0  0  0  0  0
   -0.7581    3.7793    0.0000 H   0  0  0  0  0  0  0  0  0  0  0  0
   -2.1155    5.2870    0.0000 H   0  0  0  0  0  0  0  0  0  0  0  0
   -2.3379    4.2403    0.0000 H   0  0  0  0  0  0  0  0  0  0  0  0
   -0.7602    3.1052    0.0000 H   0  0  0  0  0  0  0  0  0  0  0  0
   -3.8258    3.2612    0.0000 H   0  0  0  0  0  0  0  0  0  0  0  0
   -2.6848    1.9940    0.0000 H   0  0  0  0  0  0  0  0  0  0  0  0
   -2.6848    5.0241    0.0000 H   0  0  0  0  0  0  0  0  0  0  0  0
    3.0962    6.9045    0.0000 H   0  0  0  0  0  0  0  0  0  0  0  0
    3.2743    8.6004    0.0000 H   0  0  0  0  0  0  0  0  0  0  0  0
  1  2  1  0  0  0  0
  1132  1  0  0  0  0
  1133  1  0  0  0  0
  1134  1  0  0  0  0
  2  3  1  0  0  0  0
  2135  1  0  0  0  0
  2136  1  0  0  0  0
  3  4  1  0  0  0  0
  3137  1  0  0  0  0
  3138  1  0  0  0  0
  4  5  1  0  0  0  0
  4139  1  0  0  0  0
  4140  1  0  0  0  0
  5  6  1  0  0  0  0
  5141  1  0  0  0  0
  5142  1  0  0  0  0
  6  7  1  0  0  0  0
  6143  1  0  0  0  0
  6144  1  0  0  0  0
  7  8  2  0  0  0  0
  7  9  1  0  0  0  0
  9145  1  0  0  0  0
 10  9  1  0  0  0  0
 10 11  1  0  0  0  0
 10 95  1  0  0  0  0
 10146  1  0  0  0  0
 11 12  1  0  0  0  0
 11147  1  0  0  0  0
 11148  1  0  0  0  0
 12 13  1  0  0  0  0
 13 14  1  0  0  0  0
 14149  1  0  0  0  0
 14150  1  0  0  0  0
 15 14  1  0  0  0  0
 15 16  1  0  0  0  0
 15101  1  0  0  0  0
 15151  1  6  0  0  0
 16 17  1  0  0  0  0
 16152  1  0  0  0  0
 17 18  2  0  0  0  0
 19 17  1  0  0  0  0
 19 20  1  0  0  0  0
 19 22  1  0  0  0  0
 19153  1  0  0  0  0
 20 21  1  0  0  0  0
 20154  1  0  0  0  0
 20155  1  0  0  0  0
 21156  1  0  0  0  0
 22 23  1  0  0  0  0
 22157  1  0  0  0  0
 23 24  2  0  0  0  0
 25 23  1  0  0  0  0
 25 26  1  0  0  0  0
 25 97  1  0  0  0  0
 25158  1  1  0  0  0
 26 27  1  0  0  0  0
 26159  1  0  0  0  0
 27 28  2  0  0  0  0
 29 27  1  0  0  0  0
 29 30  1  0  0  0  0
 29 37  1  0  0  0  0
 29160  1  0  0  0  0
 30 31  1  0  0  0  0
 30161  1  0  0  0  0
 30162  1  0  0  0  0
 31 32  1  0  0  0  0
 31163  1  0  0  0  0
 31164  1  0  0  0  0
 32 33  1  0  0  0  0
 32165  1  0  0  0  0
 32166  1  0  0  0  0
 33 34  1  0  0  0  0
 33167  1  0  0  0  0
 34 35  1  0  0  0  0
 34 36  2  0  0  0  0
 35168  1  0  0  0  0
 35169  1  0  0  0  0
 36170  1  0  0  0  0
 37 38  1  0  0  0  0
 37171  1  0  0  0  0
 38 39  2  0  0  0  0
 40 38  1  0  0  0  0
 40 41  1  0  0  0  0
 40 45  1  0  0  0  0
 40172  1  1  0  0  0
 41 42  1  0  0  0  0
 41173  1  0  0  0  0
 41174  1  0  0  0  0
 42 43  1  0  0  0  0
 42 44  2  0  0  0  0
 43175  1  0  0  0  0
 45 46  1  0  0  0  0
 45176  1  0  0  0  0
 46 47  2  0  0  0  0
 48 46  1  0  0  0  0
 48 49  1  0  0  0  0
 48 53  1  0  0  0  0
 48177  1  6  0  0  0
 49 50  1  0  0  0  0
 49178  1  0  0  0  0
 49179  1  0  0  0  0
 50 51  1  0  0  0  0
 50180  1  0  0  0  0
 50181  1  0  0  0  0
 51 52  1  0  0  0  0
 51182  1  0  0  0  0
 51183  1  0  0  0  0
 52184  1  0  0  0  0
 52185  1  0  0  0  0
 52186  1  0  0  0  0
 53 54  1  0  0  0  0
 53187  1  0  0  0  0
 54 55  2  0  0  0  0
 56 54  1  0  0  0  0
 56 57  1  0  0  0  0
 56 64  1  0  0  0  0
 56188  1  0  0  0  0
 57 58  1  0  0  0  0
 57189  1  0  0  0  0
 57190  1  0  0  0  0
 58 59  1  0  0  0  0
 58191  1  0  0  0  0
 58192  1  0  0  0  0
 59 60  1  0  0  0  0
 59193  1  0  0  0  0
 59194  1  0  0  0  0
 60 61  1  0  0  0  0
 60195  1  0  0  0  0
 61 62  1  0  0  0  0
 61 63  2  0  0  0  0
 62196  1  0  0  0  0
 62197  1  0  0  0  0
 63198  1  0  0  0  0
 64 65  1  0  0  0  0
 64199  1  0  0  0  0
 65 66  2  0  0  0  0
 65 67  1  0  0  0  0
 67 68  1  0  0  0  0
 67200  1  0  0  0  0
 67201  1  0  0  0  0
 68 69  1  0  0  0  0
 68202  1  0  0  0  0
 69 70  2  0  0  0  0
 71 69  1  0  0  0  0
 71 72  1  0  0  0  0
 71 73  1  0  0  0  0
 71203  1  1  0  0  0
 72204  1  0  0  0  0
 72205  1  0  0  0  0
 72206  1  0  0  0  0
 73 74  1  0  0  0  0
 73207  1  0  0  0  0
 74 75  2  0  0  0  0
 76 74  1  0  0  0  0
 76 77  1  0  0  0  0
 76 84  1  0  0  0  0
 76208  1  1  0  0  0
 77 78  1  0  0  0  0
 77209  1  0  0  0  0
 77210  1  0  0  0  0
 78 79  2  0  0  0  0
 78 83  1  0  0  0  0
 79 80  1  0  0  0  0
 79211  1  0  0  0  0
 80 81  2  0  0  0  0
 80212  1  0  0  0  0
 81 82  1  0  0  0  0
 81213  1  0  0  0  0
 82 83  2  0  0  0  0
 82214  1  0  0  0  0
 83215  1  0  0  0  0
 84 85  1  0  0  0  0
 84216  1  0  0  0  0
 85 86  2  0  0  0  0
 87 85  1  0  0  0  0
 87 88  1  0  0  0  0
 87 94  1  0  0  0  0
 87217  1  0  0  0  0
 88 89  1  0  0  0  0
 88218  1  0  0  0  0
 88219  1  0  0  0  0
 89 90  2  0  0  0  0
 89 93  1  0  0  0  0
 90 91  1  0  0  0  0
 90220  1  0  0  0  0
 91 92  1  0  0  0  0
 91221  1  0  0  0  0
 92 93  2  0  0  0  0
 92222  1  0  0  0  0
 94 95  1  0  0  0  0
 94223  1  0  0  0  0
 95 96  2  0  0  0  0
 97 98  1  0  0  0  0
 97 99  1  0  0  0  0
 97224  1  6  0  0  0
 98225  1  0  0  0  0
 98226  1  0  0  0  0
 98227  1  0  0  0  0
 99100  1  0  0  0  0
 99228  1  0  0  0  0
 99229  1  0  0  0  0
100230  1  0  0  0  0
100231  1  0  0  0  0
100232  1  0  0  0  0
101102  2  0  0  0  0
101103  1  0  0  0  0
103233  1  0  0  0  0
104103  1  0  0  0  0
104105  1  0  0  0  0
104113  1  0  0  0  0
104234  1  6  0  0  0
105106  1  0  0  0  0
105235  1  0  0  0  0
105236  1  0  0  0  0
106107  2  0  0  0  0
106112  1  0  0  0  0
107108  1  0  0  0  0
107237  1  0  0  0  0
108109  2  0  0  0  0
108238  1  0  0  0  0
109110  1  0  0  0  0
109111  1  0  0  0  0
110239  1  0  0  0  0
111112  2  0  0  0  0
111240  1  0  0  0  0
112241  1  0  0  0  0
113114  2  0  0  0  0
113115  1  0  0  0  0
115116  1  0  0  0  0
116242  1  0  0  0  0
116243  1  0  0  0  0
117116  1  0  0  0  0
117118  1  0  0  0  0
117129  1  0  0  0  0
117244  1  6  0  0  0
118119  1  0  0  0  0
118245  1  0  0  0  0
119120  2  0  0  0  0
121119  1  0  0  0  0
121115  1  0  0  0  0
121122  1  0  0  0  0
121246  1  6  0  0  0
122123  1  0  0  0  0
122247  1  0  0  0  0
122248  1  0  0  0  0
123124  1  0  0  0  0
123249  1  0  0  0  0
123250  1  0  0  0  0
124125  1  0  0  0  0
124251  1  0  0  0  0
124252  1  0  0  0  0
125126  1  0  0  0  0
125253  1  0  0  0  0
126127  1  0  0  0  0
126128  2  0  0  0  0
127254  1  0  0  0  0
127255  1  0  0  0  0
128256  1  0  0  0  0
129130  1  0  0  0  0
129131  2  0  0  0  0
130257  1  0  0  0  0
130258  1  0  0  0  0
M  END
>  <DRUGBANK_ID>
DB15355

>  <COMMON_NAME>
PL-3994

>  <CAS_NUMBER>
952295-80-6

>  <UNII>
YI2S0GUQ2C

$$$$
