
 OpenBabel10282417072D

186193  0  0  1  0  0  0  0  0999 V2000
    7.8339   -4.8884    0.0000 C   0  0  0  0  0  0  0  0  0  0  0  0
    7.8248   -4.0635    0.0000 C   0  0  3  0  0  0  0  0  0  0  0  0
    8.5347   -3.6431    0.0000 O   0  0  0  0  0  0  0  0  0  0  0  0
    7.1058   -3.6589    0.0000 C   0  0  0  0  0  0  0  0  0  0  0  0
    7.0967   -2.8339    0.0000 O   0  0  0  0  0  0  0  0  0  0  0  0
    6.3777   -2.4293    0.0000 C   0  0  0  0  0  0  0  0  0  0  0  0
    6.3686   -1.6044    0.0000 C   0  0  1  0  0  0  0  0  0  0  0  0
    7.0812   -1.1949    0.0000 O   0  0  0  0  0  0  0  0  0  0  0  0
    7.1052   -0.3506    0.0000 C   0  0  2  0  0  0  0  0  0  0  0  0
    7.9615   -0.2250    0.0000 O   0  0  0  0  0  0  0  0  0  0  0  0
    8.7858   -0.4617    0.0000 C   0  0  2  0  0  0  0  0  0  0  0  0
    8.9316   -1.2927    0.0000 C   0  0  1  0  0  0  0  0  0  0  0  0
    8.2923   -1.8141    0.0000 C   0  0  0  0  0  0  0  0  0  0  0  0
    8.4242   -2.6285    0.0000 O   0  0  0  0  0  0  0  0  0  0  0  0
    9.6960   -1.5944    0.0000 O   0  0  0  0  0  0  0  0  0  0  0  0
   10.3711   -1.0868    0.0000 C   0  0  2  0  0  0  0  0  0  0  0  0
   11.0032   -1.6780    0.0000 O   0  0  0  0  0  0  0  0  0  0  0  0
   11.3321   -2.4700    0.0000 C   0  0  2  0  0  0  0  0  0  0  0  0
   10.7733   -3.1021    0.0000 C   0  0  1  0  0  0  0  0  0  0  0  0
    9.9670   -2.9274    0.0000 C   0  0  0  0  0  0  0  0  0  0  0  0
    9.4125   -3.5383    0.0000 O   0  0  0  0  0  0  0  0  0  0  0  0
   11.0139   -3.8879    0.0000 O   0  0  0  0  0  0  0  0  0  0  0  0
   11.8317   -4.0992    0.0000 C   0  0  2  0  0  0  0  0  0  0  0  0
   11.7636   -4.9620    0.0000 O   0  0  0  0  0  0  0  0  0  0  0  0
   11.3494   -5.7129    0.0000 C   0  0  2  0  0  0  0  0  0  0  0  0
   11.6999   -6.4848    0.0000 C   0  0  1  0  0  0  0  0  0  0  0  0
   12.5221   -6.5529    0.0000 C   0  0  0  0  0  0  0  0  0  0  0  0
   12.8743   -7.2989    0.0000 O   0  0  0  0  0  0  0  0  0  0  0  0
   11.2336   -7.1794    0.0000 O   0  0  0  0  0  0  0  0  0  0  0  0
   10.3872   -7.1194    0.0000 C   0  0  2  0  0  0  0  0  0  0  0  0
    9.6702   -7.6041    0.0000 O   0  0  0  0  0  0  0  0  0  0  0  0
    8.8249   -7.7484    0.0000 C   0  0  2  0  0  0  0  0  0  0  0  0
    8.4399   -8.5037    0.0000 C   0  0  1  0  0  0  0  0  0  0  0  0
    8.8993   -9.1889    0.0000 C   0  0  0  0  0  0  0  0  0  0  0  0
    8.5356   -9.9294    0.0000 O   0  0  0  0  0  0  0  0  0  0  0  0
    8.9951  -10.6147    0.0000 C   0  0  0  0  0  0  0  0  0  0  0  0
    8.6314  -11.3552    0.0000 C   0  0  3  0  0  0  0  0  0  0  0  0
    9.0908  -12.0404    0.0000 C   0  0  0  0  0  0  0  0  0  0  0  0
    7.8082  -11.4105    0.0000 O   0  0  0  0  0  0  0  0  0  0  0  0
    7.6061   -8.5722    0.0000 O   0  0  0  0  0  0  0  0  0  0  0  0
    7.1254   -7.8731    0.0000 C   0  0  2  0  0  0  0  0  0  0  0  0
    6.2993   -7.6147    0.0000 O   0  0  0  0  0  0  0  0  0  0  0  0
    5.6594   -7.0438    0.0000 C   0  0  2  0  0  0  0  0  0  0  0  0
    4.8289   -7.2137    0.0000 C   0  0  1  0  0  0  0  0  0  0  0  0
    4.5796   -8.0001    0.0000 C   0  0  0  0  0  0  0  0  0  0  0  0
    3.7739   -8.1775    0.0000 O   0  0  0  0  0  0  0  0  0  0  0  0
    4.2555   -6.6045    0.0000 O   0  0  0  0  0  0  0  0  0  0  0  0
    4.5024   -5.7927    0.0000 C   0  0  2  0  0  0  0  0  0  0  0  0
    4.1893   -4.9858    0.0000 O   0  0  0  0  0  0  0  0  0  0  0  0
    4.2367   -4.1296    0.0000 C   0  0  2  0  0  0  0  0  0  0  0  0
    3.5860   -3.5862    0.0000 C   0  0  1  0  0  0  0  0  0  0  0  0
    2.8157   -3.8816    0.0000 C   0  0  0  0  0  0  0  0  0  0  0  0
    2.6865   -4.6964    0.0000 O   0  0  0  0  0  0  0  0  0  0  0  0
    1.9162   -4.9919    0.0000 C   0  0  0  0  0  0  0  0  0  0  0  0
    1.7869   -5.8067    0.0000 C   0  0  3  0  0  0  0  0  0  0  0  0
    2.4279   -6.3260    0.0000 C   0  0  0  0  0  0  0  0  0  0  0  0
    1.0166   -6.1021    0.0000 O   0  0  0  0  0  0  0  0  0  0  0  0
    3.7048   -2.7581    0.0000 O   0  0  0  0  0  0  0  0  0  0  0  0
    4.4934   -2.4449    0.0000 C   0  0  2  0  0  0  0  0  0  0  0  0
    4.9291   -1.6971    0.0000 O   0  0  0  0  0  0  0  0  0  0  0  0
    5.6281   -1.2003    0.0000 C   0  0  1  0  0  0  0  0  0  0  0  0
    5.6472   -0.3527    0.0000 C   0  0  0  0  0  0  0  0  0  0  0  0
    6.3688    0.0707    0.0000 C   0  0  1  0  0  0  0  0  0  0  0  0
    6.3642    0.8957    0.0000 O   0  0  0  0  0  0  0  0  0  0  0  0
    5.1385   -2.9902    0.0000 C   0  0  2  0  0  0  0  0  0  0  0  0
    5.9110   -2.7005    0.0000 O   0  0  0  0  0  0  0  0  0  0  0  0
    5.0144   -3.8025    0.0000 C   0  0  1  0  0  0  0  0  0  0  0  0
    5.6650   -4.3098    0.0000 O   0  0  0  0  0  0  0  0  0  0  0  0
    5.3309   -5.6283    0.0000 C   0  0  2  0  0  0  0  0  0  0  0  0
    5.5860   -4.8438    0.0000 O   0  0  0  0  0  0  0  0  0  0  0  0
    5.8886   -6.2319    0.0000 C   0  0  1  0  0  0  0  0  0  0  0  0
    6.6908   -6.0394    0.0000 O   0  0  0  0  0  0  0  0  0  0  0  0
    7.5134   -7.1228    0.0000 C   0  0  2  0  0  0  0  0  0  0  0  0
    7.0591   -6.4341    0.0000 O   0  0  0  0  0  0  0  0  0  0  0  0
    8.3330   -7.0630    0.0000 C   0  0  1  0  0  0  0  0  0  0  0  0
    8.6827   -6.3158    0.0000 O   0  0  0  0  0  0  0  0  0  0  0  0
   10.0426   -6.3482    0.0000 C   0  0  2  0  0  0  0  0  0  0  0  0
    9.2209   -6.2740    0.0000 O   0  0  0  0  0  0  0  0  0  0  0  0
   10.5069   -5.6702    0.0000 C   0  0  1  0  0  0  0  0  0  0  0  0
   10.1408   -4.9308    0.0000 O   0  0  0  0  0  0  0  0  0  0  0  0
   12.4063   -3.4749    0.0000 C   0  0  2  0  0  0  0  0  0  0  0  0
   13.2116   -3.6541    0.0000 O   0  0  0  0  0  0  0  0  0  0  0  0
   12.1541   -2.6773    0.0000 C   0  0  1  0  0  0  0  0  0  0  0  0
   12.7199   -2.0769    0.0000 O   0  0  0  0  0  0  0  0  0  0  0  0
   10.2413   -0.2484    0.0000 C   0  0  2  0  0  0  0  0  0  0  0  0
   10.8834    0.2696    0.0000 O   0  0  0  0  0  0  0  0  0  0  0  0
   10.7559    1.0847    0.0000 C   0  0  0  0  0  0  0  0  0  0  0  0
   11.3981    1.6026    0.0000 C   0  0  3  0  0  0  0  0  0  0  0  0
   12.1677    1.3055    0.0000 C   0  0  0  0  0  0  0  0  0  0  0  0
   11.2706    2.4177    0.0000 O   0  0  0  0  0  0  0  0  0  0  0  0
    9.4604    0.0517    0.0000 C   0  0  1  0  0  0  0  0  0  0  0  0
    9.3437    0.8684    0.0000 O   0  0  0  0  0  0  0  0  0  0  0  0
    6.9132   -5.4336    0.0000 H   0  0  0  0  0  0  0  0  0  0  0  0
    8.7664   -5.4131    0.0000 H   0  0  0  0  0  0  0  0  0  0  0  0
    7.8457   -5.9583    0.0000 H   0  0  0  0  0  0  0  0  0  0  0  0
    8.7573   -4.5882    0.0000 H   0  0  0  0  0  0  0  0  0  0  0  0
    9.3801   -4.1188    0.0000 H   0  0  0  0  0  0  0  0  0  0  0  0
    6.1851   -4.2041    0.0000 H   0  0  0  0  0  0  0  0  0  0  0  0
    6.1733   -3.1342    0.0000 H   0  0  0  0  0  0  0  0  0  0  0  0
    5.4570   -2.9745    0.0000 H   0  0  0  0  0  0  0  0  0  0  0  0
    5.4452   -1.9046    0.0000 H   0  0  0  0  0  0  0  0  0  0  0  0
    7.2976   -2.1352    0.0000 H   0  0  0  0  0  0  0  0  0  0  0  0
    7.9048   -1.0616    0.0000 H   0  0  0  0  0  0  0  0  0  0  0  0
    7.9902   -1.1772    0.0000 H   0  0  0  0  0  0  0  0  0  0  0  0
    7.9289   -0.9193    0.0000 H   0  0  0  0  0  0  0  0  0  0  0  0
    7.2920   -1.4341    0.0000 H   0  0  0  0  0  0  0  0  0  0  0  0
    7.4631   -2.4904    0.0000 H   0  0  0  0  0  0  0  0  0  0  0  0
    7.6725   -3.2416    0.0000 H   0  0  0  0  0  0  0  0  0  0  0  0
   10.3137   -2.1553    0.0000 H   0  0  0  0  0  0  0  0  0  0  0  0
   10.2767   -2.2941    0.0000 H   0  0  0  0  0  0  0  0  0  0  0  0
   10.4400   -2.0853    0.0000 H   0  0  0  0  0  0  0  0  0  0  0  0
    9.6404   -1.9085    0.0000 H   0  0  0  0  0  0  0  0  0  0  0  0
    8.9213   -2.7008    0.0000 H   0  0  0  0  0  0  0  0  0  0  0  0
    8.4645   -3.3328    0.0000 H   0  0  0  0  0  0  0  0  0  0  0  0
   10.9606   -4.7206    0.0000 H   0  0  0  0  0  0  0  0  0  0  0  0
   12.4186   -5.7545    0.0000 H   0  0  0  0  0  0  0  0  0  0  0  0
   12.3160   -5.6100    0.0000 H   0  0  0  0  0  0  0  0  0  0  0  0
   13.1317   -5.6735    0.0000 H   0  0  0  0  0  0  0  0  0  0  0  0
   13.5885   -6.6411    0.0000 H   0  0  0  0  0  0  0  0  0  0  0  0
   12.3217   -8.0961    0.0000 H   0  0  0  0  0  0  0  0  0  0  0  0
   10.6642   -8.1529    0.0000 H   0  0  0  0  0  0  0  0  0  0  0  0
    9.4589   -8.6103    0.0000 H   0  0  0  0  0  0  0  0  0  0  0  0
    9.5080   -8.4400    0.0000 H   0  0  0  0  0  0  0  0  0  0  0  0
    9.9669   -9.1172    0.0000 H   0  0  0  0  0  0  0  0  0  0  0  0
    9.4952  -10.0776    0.0000 H   0  0  0  0  0  0  0  0  0  0  0  0
   10.0627  -10.5430    0.0000 H   0  0  0  0  0  0  0  0  0  0  0  0
    9.5910  -11.5034    0.0000 H   0  0  0  0  0  0  0  0  0  0  0  0
    9.6990  -11.2835    0.0000 H   0  0  0  0  0  0  0  0  0  0  0  0
    8.6191  -13.0008    0.0000 H   0  0  0  0  0  0  0  0  0  0  0  0
   10.1584  -11.9687    0.0000 H   0  0  0  0  0  0  0  0  0  0  0  0
    9.6867  -12.9291    0.0000 H   0  0  0  0  0  0  0  0  0  0  0  0
    7.2680  -10.6049    0.0000 H   0  0  0  0  0  0  0  0  0  0  0  0
    6.4900   -8.7340    0.0000 H   0  0  0  0  0  0  0  0  0  0  0  0
    5.3809   -8.0769    0.0000 H   0  0  0  0  0  0  0  0  0  0  0  0
    5.5447   -8.0090    0.0000 H   0  0  0  0  0  0  0  0  0  0  0  0
    5.3013   -8.7901    0.0000 H   0  0  0  0  0  0  0  0  0  0  0  0
    4.2563   -9.0201    0.0000 H   0  0  0  0  0  0  0  0  0  0  0  0
    3.1196   -7.4614    0.0000 H   0  0  0  0  0  0  0  0  0  0  0  0
    3.4332   -5.8328    0.0000 H   0  0  0  0  0  0  0  0  0  0  0  0
    3.2553   -4.5560    0.0000 H   0  0  0  0  0  0  0  0  0  0  0  0
    3.4105   -4.6417    0.0000 H   0  0  0  0  0  0  0  0  0  0  0  0
    1.9843   -3.2080    0.0000 H   0  0  0  0  0  0  0  0  0  0  0  0
    1.8167   -4.2648    0.0000 H   0  0  0  0  0  0  0  0  0  0  0  0
    1.0848   -4.3183    0.0000 H   0  0  0  0  0  0  0  0  0  0  0  0
    0.9172   -5.3751    0.0000 H   0  0  0  0  0  0  0  0  0  0  0  0
    2.7859   -5.4235    0.0000 H   0  0  0  0  0  0  0  0  0  0  0  0
    2.2603   -7.3828    0.0000 H   0  0  0  0  0  0  0  0  0  0  0  0
    3.4269   -5.9428    0.0000 H   0  0  0  0  0  0  0  0  0  0  0  0
    3.2593   -6.9996    0.0000 H   0  0  0  0  0  0  0  0  0  0  0  0
    0.2630   -5.4914    0.0000 H   0  0  0  0  0  0  0  0  0  0  0  0
    3.7954   -1.6339    0.0000 H   0  0  0  0  0  0  0  0  0  0  0  0
    5.6914   -2.2684    0.0000 H   0  0  0  0  0  0  0  0  0  0  0  0
    4.7247    0.1895    0.0000 H   0  0  0  0  0  0  0  0  0  0  0  0
    5.6476    0.7173    0.0000 H   0  0  0  0  0  0  0  0  0  0  0  0
    5.4388    0.5999    0.0000 H   0  0  0  0  0  0  0  0  0  0  0  0
    7.2015    1.3854    0.0000 H   0  0  0  0  0  0  0  0  0  0  0  0
    5.3211   -1.9359    0.0000 H   0  0  0  0  0  0  0  0  0  0  0  0
    6.6601   -3.3168    0.0000 H   0  0  0  0  0  0  0  0  0  0  0  0
    6.0087   -3.4071    0.0000 H   0  0  0  0  0  0  0  0  0  0  0  0
    5.5309   -5.2705    0.0000 H   0  0  0  0  0  0  0  0  0  0  0  0
    4.6204   -4.8282    0.0000 H   0  0  0  0  0  0  0  0  0  0  0  0
    6.5348   -4.6423    0.0000 H   0  0  0  0  0  0  0  0  0  0  0  0
    6.1994   -5.2080    0.0000 H   0  0  0  0  0  0  0  0  0  0  0  0
    7.3584   -6.7431    0.0000 H   0  0  0  0  0  0  0  0  0  0  0  0
    6.4449   -7.1794    0.0000 H   0  0  0  0  0  0  0  0  0  0  0  0
    7.4933   -5.5667    0.0000 H   0  0  0  0  0  0  0  0  0  0  0  0
    7.7262   -6.1817    0.0000 H   0  0  0  0  0  0  0  0  0  0  0  0
    9.6491   -6.2326    0.0000 H   0  0  0  0  0  0  0  0  0  0  0  0
    9.4206   -7.2189    0.0000 H   0  0  0  0  0  0  0  0  0  0  0  0
    8.8134   -5.3937    0.0000 H   0  0  0  0  0  0  0  0  0  0  0  0
    9.4395   -5.5950    0.0000 H   0  0  0  0  0  0  0  0  0  0  0  0
   10.6784   -4.1234    0.0000 H   0  0  0  0  0  0  0  0  0  0  0  0
   12.7265   -4.4959    0.0000 H   0  0  0  0  0  0  0  0  0  0  0  0
   13.5026   -4.5794    0.0000 H   0  0  0  0  0  0  0  0  0  0  0  0
   13.1972   -2.9158    0.0000 H   0  0  0  0  0  0  0  0  0  0  0  0
   13.6639   -2.3001    0.0000 H   0  0  0  0  0  0  0  0  0  0  0  0
   11.2392   -0.6345    0.0000 H   0  0  0  0  0  0  0  0  0  0  0  0
    9.7577    1.4701    0.0000 H   0  0  0  0  0  0  0  0  0  0  0  0
   10.5906    2.1419    0.0000 H   0  0  0  0  0  0  0  0  0  0  0  0
   11.5634    0.5454    0.0000 H   0  0  0  0  0  0  0  0  0  0  0  0
   12.3331    0.2484    0.0000 H   0  0  0  0  0  0  0  0  0  0  0  0
   13.0005    1.9773    0.0000 H   0  0  0  0  0  0  0  0  0  0  0  0
   13.1659    0.9201    0.0000 H   0  0  0  0  0  0  0  0  0  0  0  0
   12.0256    3.0267    0.0000 H   0  0  0  0  0  0  0  0  0  0  0  0
   10.2971    0.7186    0.0000 H   0  0  0  0  0  0  0  0  0  0  0  0
   10.1067    1.4674    0.0000 H   0  0  0  0  0  0  0  0  0  0  0  0
  1  2  1  0  0  0  0
  1 93  1  0  0  0  0
  1 94  1  0  0  0  0
  1 95  1  0  0  0  0
  2  3  1  0  0  0  0
  2  4  1  0  0  0  0
  2 96  1  0  0  0  0
  3 97  1  0  0  0  0
  4  5  1  0  0  0  0
  4 98  1  0  0  0  0
  4 99  1  0  0  0  0
  5  6  1  0  0  0  0
  6100  1  0  0  0  0
  6101  1  0  0  0  0
  7  6  1  0  0  0  0
  7  8  1  0  0  0  0
  7 61  1  0  0  0  0
  7102  1  1  0  0  0
  9  8  1  0  0  0  0
  9 10  1  0  0  0  0
  9 63  1  0  0  0  0
  9103  1  6  0  0  0
 11 10  1  0  0  0  0
 11 12  1  0  0  0  0
 11 91  1  0  0  0  0
 11104  1  6  0  0  0
 12 13  1  0  0  0  0
 12 15  1  0  0  0  0
 12105  1  1  0  0  0
 13 14  1  0  0  0  0
 13106  1  0  0  0  0
 13107  1  0  0  0  0
 14108  1  0  0  0  0
 16 15  1  0  0  0  0
 16 17  1  0  0  0  0
 16109  1  6  0  0  0
 18 17  1  0  0  0  0
 18 19  1  0  0  0  0
 18 83  1  0  0  0  0
 18110  1  6  0  0  0
 19 20  1  0  0  0  0
 19 22  1  0  0  0  0
 19111  1  1  0  0  0
 20 21  1  0  0  0  0
 20112  1  0  0  0  0
 20113  1  0  0  0  0
 21114  1  0  0  0  0
 23 22  1  0  0  0  0
 23 24  1  0  0  0  0
 23115  1  6  0  0  0
 25 24  1  0  0  0  0
 25 26  1  0  0  0  0
 25 79  1  0  0  0  0
 25116  1  1  0  0  0
 26 27  1  0  0  0  0
 26 29  1  0  0  0  0
 26117  1  6  0  0  0
 27 28  1  0  0  0  0
 27118  1  0  0  0  0
 27119  1  0  0  0  0
 28120  1  0  0  0  0
 30 29  1  0  0  0  0
 30 31  1  0  0  0  0
 30121  1  1  0  0  0
 32 31  1  0  0  0  0
 32 33  1  0  0  0  0
 32 75  1  0  0  0  0
 32122  1  1  0  0  0
 33 34  1  0  0  0  0
 33 40  1  0  0  0  0
 33123  1  6  0  0  0
 34 35  1  0  0  0  0
 34124  1  0  0  0  0
 34125  1  0  0  0  0
 35 36  1  0  0  0  0
 36 37  1  0  0  0  0
 36126  1  0  0  0  0
 36127  1  0  0  0  0
 37 38  1  0  0  0  0
 37 39  1  0  0  0  0
 37128  1  0  0  0  0
 38129  1  0  0  0  0
 38130  1  0  0  0  0
 38131  1  0  0  0  0
 39132  1  0  0  0  0
 41 40  1  0  0  0  0
 41 42  1  0  0  0  0
 41133  1  1  0  0  0
 43 42  1  0  0  0  0
 43 44  1  0  0  0  0
 43 71  1  0  0  0  0
 43134  1  1  0  0  0
 44 45  1  0  0  0  0
 44 47  1  0  0  0  0
 44135  1  6  0  0  0
 45 46  1  0  0  0  0
 45136  1  0  0  0  0
 45137  1  0  0  0  0
 46138  1  0  0  0  0
 48 47  1  0  0  0  0
 48 49  1  0  0  0  0
 48139  1  1  0  0  0
 50 49  1  0  0  0  0
 50 51  1  0  0  0  0
 50 67  1  0  0  0  0
 50140  1  1  0  0  0
 51 52  1  0  0  0  0
 51 58  1  0  0  0  0
 51141  1  6  0  0  0
 52 53  1  0  0  0  0
 52142  1  0  0  0  0
 52143  1  0  0  0  0
 53 54  1  0  0  0  0
 54 55  1  0  0  0  0
 54144  1  0  0  0  0
 54145  1  0  0  0  0
 55 56  1  0  0  0  0
 55 57  1  0  0  0  0
 55146  1  0  0  0  0
 56147  1  0  0  0  0
 56148  1  0  0  0  0
 56149  1  0  0  0  0
 57150  1  0  0  0  0
 59 58  1  0  0  0  0
 59 60  1  0  0  0  0
 59151  1  1  0  0  0
 61 60  1  0  0  0  0
 61 62  1  0  0  0  0
 61152  1  6  0  0  0
 62153  1  0  0  0  0
 62154  1  0  0  0  0
 63 62  1  0  0  0  0
 63 64  1  0  0  0  0
 63155  1  6  0  0  0
 64156  1  0  0  0  0
 65 59  1  0  0  0  0
 65 66  1  0  0  0  0
 65157  1  1  0  0  0
 66158  1  0  0  0  0
 67 65  1  0  0  0  0
 67 68  1  0  0  0  0
 67159  1  6  0  0  0
 68160  1  0  0  0  0
 69 48  1  0  0  0  0
 69 70  1  0  0  0  0
 69161  1  1  0  0  0
 70162  1  0  0  0  0
 71 69  1  0  0  0  0
 71 72  1  0  0  0  0
 71163  1  6  0  0  0
 72164  1  0  0  0  0
 73 41  1  0  0  0  0
 73 74  1  0  0  0  0
 73165  1  1  0  0  0
 74166  1  0  0  0  0
 75 73  1  0  0  0  0
 75 76  1  0  0  0  0
 75167  1  6  0  0  0
 76168  1  0  0  0  0
 77 30  1  0  0  0  0
 77 78  1  0  0  0  0
 77169  1  1  0  0  0
 78170  1  0  0  0  0
 79 77  1  0  0  0  0
 79 80  1  0  0  0  0
 79171  1  6  0  0  0
 80172  1  0  0  0  0
 81 23  1  0  0  0  0
 81 82  1  0  0  0  0
 81173  1  6  0  0  0
 82174  1  0  0  0  0
 83 81  1  0  0  0  0
 83 84  1  0  0  0  0
 83175  1  1  0  0  0
 84176  1  0  0  0  0
 85 16  1  0  0  0  0
 85 86  1  0  0  0  0
 85177  1  6  0  0  0
 86 87  1  0  0  0  0
 87 88  1  0  0  0  0
 87178  1  0  0  0  0
 87179  1  0  0  0  0
 88 89  1  0  0  0  0
 88 90  1  0  0  0  0
 88180  1  0  0  0  0
 89181  1  0  0  0  0
 89182  1  0  0  0  0
 89183  1  0  0  0  0
 90184  1  0  0  0  0
 91 85  1  0  0  0  0
 91 92  1  0  0  0  0
 91185  1  1  0  0  0
 92186  1  0  0  0  0
M  END
>  <DRUGBANK_ID>
DB15146

>  <COMMON_NAME>
Adrabetadex

>  <CAS_NUMBER>
128446-35-5

>  <UNII>
8W6Q67R6NX

>  <SYNONYMS>
Adrabetadex

$$$$
