
 OpenBabel10282417072D

 26 27  0  0  1  0  0  0  0  0999 V2000
    2.5600   -1.0718    0.0000 C   0  0  0  0  0  0  0  0  0  0  0  0
    2.5600    0.0323    0.0000 C   0  0  0  0  0  0  0  0  0  0  0  0
   -0.1477   -0.1073    0.0000 C   0  0  0  0  0  0  0  0  0  0  0  0
   -0.1477   -0.9323    0.0000 C   0  0  0  0  0  0  0  0  0  0  0  0
    0.6773   -0.1073    0.0000 C   0  0  2  0  0  0  0  0  0  0  0  0
    1.4620   -1.1872    0.0000 C   0  0  1  0  0  0  0  0  0  0  0  0
    1.7169   -1.9718    0.0000 C   0  0  0  0  0  0  0  0  0  0  0  0
    1.9469   -0.5198    0.0000 C   0  0  0  0  0  0  0  0  0  0  0  0
    0.6773   -0.9323    0.0000 N   0  0  0  0  0  0  0  0  0  0  0  0
   -0.7310   -1.5156    0.0000 O   0  0  0  0  0  0  0  0  0  0  0  0
    1.1649   -2.5849    0.0000 O   0  0  0  0  0  0  0  0  0  0  0  0
    2.5239   -2.1434    0.0000 O   0  0  0  0  0  0  0  0  0  0  0  0
    1.2989    0.9564    0.0000 O   0  0  0  0  0  0  0  0  0  0  0  0
    2.0692    0.7061    0.0000 O   0  0  0  0  0  0  0  0  0  0  0  0
    1.4620    0.1477    0.0000 S   0  0  0  0  0  0  0  0  0  0  0  0
    0.5483    0.7076    0.0000 H   0  0  0  0  0  0  0  0  0  0  0  0
    2.2768   -1.3163    0.0000 H   0  0  0  0  0  0  0  0  0  0  0  0
    2.3376   -2.1184    0.0000 H   0  0  0  0  0  0  0  0  0  0  0  0
    3.5776   -0.7411    0.0000 H   0  0  0  0  0  0  0  0  0  0  0  0
    3.3552   -1.7877    0.0000 H   0  0  0  0  0  0  0  0  0  0  0  0
    3.5776   -0.2983    0.0000 H   0  0  0  0  0  0  0  0  0  0  0  0
    2.3375    1.0789    0.0000 H   0  0  0  0  0  0  0  0  0  0  0  0
    3.3551    0.7483    0.0000 H   0  0  0  0  0  0  0  0  0  0  0  0
   -0.9043    0.6493    0.0000 H   0  0  0  0  0  0  0  0  0  0  0  0
    0.2618    0.8813    0.0000 H   0  0  0  0  0  0  0  0  0  0  0  0
    2.8134   -3.0346    0.0000 H   0  0  0  0  0  0  0  0  0  0  0  0
  1 18  1  0  0  0  0
  1 19  1  0  0  0  0
  1 20  1  0  0  0  0
  2 21  1  0  0  0  0
  2 22  1  0  0  0  0
  2 23  1  0  0  0  0
  3 24  1  0  0  0  0
  3 25  1  0  0  0  0
  4  3  1  0  0  0  0
  5  3  1  0  0  0  0
  5 16  1  6  0  0  0
  6  7  1  0  0  0  0
  6 17  1  1  0  0  0
  8  1  1  0  0  0  0
  8  2  1  0  0  0  0
  8  6  1  0  0  0  0
  9  4  1  0  0  0  0
  9  5  1  0  0  0  0
  9  6  1  0  0  0  0
 10  4  2  0  0  0  0
 11  7  2  0  0  0  0
 12  7  1  0  0  0  0
 12 26  1  0  0  0  0
 15  5  1  0  0  0  0
 15  8  1  0  0  0  0
 15 13  2  0  0  0  0
 15 14  2  0  0  0  0
M  END
>  <DRUGBANK_ID>
DB09324

>  <COMMON_NAME>
Sulbactam

>  <CAS_NUMBER>
68373-14-8

>  <UNII>
S4TF6I2330

>  <SYNONYMS>
(2S,5R)-3,3-dimethyl-7-oxo-4-thia-1-azabicyclo(3.2.0)heptane-2-carboxylic acid 4,4-dioxide; (2S,5R)-3,3-dimethyl-7-oxo-4-thia-1-azabicyclo[3.2.0]heptane-2-carboxylic acid 4,4-dioxide; Penicillanic acid 1,1-dioxide; Penicillanic acid sulfone; Sulbactam; Sulbactamum

$$$$
