
 OpenBabel10282417072D

 28 29  0  0  0  0  0  0  0  0999 V2000
   -2.1585    0.1311    0.0000 S   0  0  0  0  0  0  0  0  0  0  0  0
    3.5967    0.2080    0.0000 O   0  0  0  0  0  0  0  0  0  0  0  0
   -2.2980   -1.1964    0.0000 N   0  0  0  0  0  0  0  0  0  0  0  0
    0.0242   -0.2044    0.0000 N   0  0  0  0  0  0  0  0  0  0  0  0
    0.7387    1.0330    0.0000 N   0  0  0  0  0  0  0  0  0  0  0  0
    1.4532   -0.2044    0.0000 N   0  0  0  0  0  0  0  0  0  0  0  0
    2.8822   -0.2044    0.0000 N   0  0  0  0  0  0  0  0  0  0  0  0
   -1.4047   -0.2044    0.0000 C   0  0  0  0  0  0  0  0  0  0  0  0
   -1.4909   -1.0249    0.0000 C   0  0  0  0  0  0  0  0  0  0  0  0
   -0.6902    0.2080    0.0000 C   0  0  0  0  0  0  0  0  0  0  0  0
   -2.7105   -0.4820    0.0000 C   0  0  0  0  0  0  0  0  0  0  0  0
   -0.8778   -1.5769    0.0000 C   0  0  0  0  0  0  0  0  0  0  0  0
   -0.6902    1.0330    0.0000 C   0  0  0  0  0  0  0  0  0  0  0  0
   -3.5310   -0.3957    0.0000 C   0  0  0  0  0  0  0  0  0  0  0  0
    0.0242    1.4456    0.0000 C   0  0  0  0  0  0  0  0  0  0  0  0
    0.7387    0.2080    0.0000 C   0  0  0  0  0  0  0  0  0  0  0  0
    2.1677    0.2080    0.0000 C   0  0  0  0  0  0  0  0  0  0  0  0
    4.4367   -0.2771    0.0000 H   0  0  0  0  0  0  0  0  0  0  0  0
    2.8822   -1.1889    0.0000 H   0  0  0  0  0  0  0  0  0  0  0  0
   -1.1002   -2.6235    0.0000 H   0  0  0  0  0  0  0  0  0  0  0  0
    0.1398   -1.2462    0.0000 H   0  0  0  0  0  0  0  0  0  0  0  0
   -0.0826   -2.2928    0.0000 H   0  0  0  0  0  0  0  0  0  0  0  0
   -1.5840    1.5489    0.0000 H   0  0  0  0  0  0  0  0  0  0  0  0
   -3.9661    0.5818    0.0000 H   0  0  0  0  0  0  0  0  0  0  0  0
   -4.1600   -1.2613    0.0000 H   0  0  0  0  0  0  0  0  0  0  0  0
   -4.5951   -0.2838    0.0000 H   0  0  0  0  0  0  0  0  0  0  0  0
    0.0242    2.4776    0.0000 H   0  0  0  0  0  0  0  0  0  0  0  0
    2.1677    1.2400    0.0000 H   0  0  0  0  0  0  0  0  0  0  0  0
  1  8  1  0  0  0  0
  1 11  1  0  0  0  0
  2  7  1  0  0  0  0
  2 18  1  0  0  0  0
  3  9  1  0  0  0  0
  3 11  2  0  0  0  0
  4 10  2  0  0  0  0
  4 16  1  0  0  0  0
  5 15  1  0  0  0  0
  5 16  2  0  0  0  0
  6 16  1  0  0  0  0
  6 17  2  0  0  0  0
  7 17  1  0  0  0  0
  7 19  1  0  0  0  0
  8  9  2  0  0  0  0
  8 10  1  0  0  0  0
  9 12  1  0  0  0  0
 10 13  1  0  0  0  0
 11 14  1  0  0  0  0
 12 20  1  0  0  0  0
 12 21  1  0  0  0  0
 12 22  1  0  0  0  0
 13 15  2  0  0  0  0
 13 23  1  0  0  0  0
 14 24  1  0  0  0  0
 14 25  1  0  0  0  0
 14 26  1  0  0  0  0
 15 27  1  0  0  0  0
 17 28  1  0  0  0  0
M  END
>  <DRUGBANK_ID>
DB04101

>  <SECONDARY_ACCESSION_NUMBERS>
EXPT00926

>  <COMMON_NAME>
N'-[4-(2,4-Dimethyl-1,3-thiazol-5-yl)-2-pyrimidinyl]-N-hydroxyimidoformamide

$$$$
