295
 OpenBabel10282417072D

 23 23  0  0  0  0  0  0  0  0999 V2000
    0.8928   -0.6732    0.0000 C   0  0  0  0  0  0  0  0  0  0  0  0
    0.8928   -1.4982    0.0000 C   0  0  0  0  0  0  0  0  0  0  0  0
    0.1784   -1.9107    0.0000 C   0  0  0  0  0  0  0  0  0  0  0  0
   -0.5361   -1.4982    0.0000 C   0  0  0  0  0  0  0  0  0  0  0  0
   -0.5361   -0.6732    0.0000 C   0  0  0  0  0  0  0  0  0  0  0  0
    0.1784   -0.2607    0.0000 C   0  0  0  0  0  0  0  0  0  0  0  0
    0.1784    0.5643    0.0000 C   0  0  2  0  0  0  0  0  0  0  0  0
    0.8928    0.9768    0.0000 O   0  0  0  0  0  0  0  0  0  0  0  0
   -0.5361    0.9768    0.0000 C   0  0  1  0  0  0  0  0  0  0  0  0
   -0.5361    1.8018    0.0000 C   0  0  0  0  0  0  0  0  0  0  0  0
   -1.2506    2.2143    0.0000 O   0  0  0  0  0  0  0  0  0  0  0  0
    0.1784    2.2143    0.0000 O   0  0  0  0  0  0  0  0  0  0  0  0
   -1.2506    0.5643    0.0000 O   0  0  0  0  0  0  0  0  0  0  0  0
    0.1784   -2.7357    0.0000 F   0  0  0  0  0  0  0  0  0  0  0  0
    0.6841    0.2724    0.0000 H   0  0  0  0  0  0  0  0  0  0  0  0
   -0.0304    1.2688    0.0000 H   0  0  0  0  0  0  0  0  0  0  0  0
    1.7865   -0.1572    0.0000 H   0  0  0  0  0  0  0  0  0  0  0  0
    1.7865   -2.0142    0.0000 H   0  0  0  0  0  0  0  0  0  0  0  0
   -1.4298   -2.0142    0.0000 H   0  0  0  0  0  0  0  0  0  0  0  0
   -1.4298   -0.1572    0.0000 H   0  0  0  0  0  0  0  0  0  0  0  0
    1.7329    0.4918    0.0000 H   0  0  0  0  0  0  0  0  0  0  0  0
    0.9899    1.7458    0.0000 H   0  0  0  0  0  0  0  0  0  0  0  0
   -2.0906    1.0493    0.0000 H   0  0  0  0  0  0  0  0  0  0  0  0
  1  2  2  0  0  0  0
  1  6  1  0  0  0  0
  1 17  1  0  0  0  0
  2  3  1  0  0  0  0
  2 18  1  0  0  0  0
  3 14  1  0  0  0  0
  3  4  2  0  0  0  0
  4 19  1  0  0  0  0
  5  4  1  0  0  0  0
  5 20  1  0  0  0  0
  6  5  2  0  0  0  0
  7  6  1  0  0  0  0
  7  8  1  0  0  0  0
  7 15  1  6  0  0  0
  8 21  1  0  0  0  0
  9  7  1  0  0  0  0
  9 16  1  1  0  0  0
  9 13  1  0  0  0  0
 10  9  1  0  0  0  0
 10 12  1  0  0  0  0
 11 10  2  0  0  0  0
 12 22  1  0  0  0  0
 13 23  1  0  0  0  0
M  END
>  <DRUGBANK_ID>
DB06946

>  <COMMON_NAME>
(2S,3S)-3-(4-fluorophenyl)-2,3-dihydroxypropanoic acid

$$$$
