
 OpenBabel10282417072D

 22 20  0  0  0  0  0  0  0  0999 V2000
   -2.4782    0.4009    0.0000 C   0  0  0  0  0  0  0  0  0  0  0  0
   -1.7689   -0.0114    0.0000 N   0  0  0  0  0  0  0  0  0  0  0  0
   -1.0365    0.4148    0.0000 C   0  0  0  0  0  0  0  0  0  0  0  0
   -0.3273    0.0115    0.0000 C   0  0  3  0  0  0  0  0  0  0  0  0
   -0.3273   -0.8135    0.0000 C   0  0  0  0  0  0  0  0  0  0  0  0
    0.3911   -1.2259    0.0000 Hg  0  3  0  0  0  0  0  0  0  0  0  0
    0.3864    0.4427    0.0000 O   0  0  0  0  0  0  0  0  0  0  0  0
    1.1234    0.0255    0.0000 C   0  0  0  0  0  0  0  0  0  0  0  0
   -2.4782    1.2259    0.0000 O   0  0  0  0  0  0  0  0  0  0  0  0
   -3.1780   -0.0114    0.0000 N   0  0  0  0  0  0  0  0  0  0  0  0
    3.1780   -1.0603    0.0000 Cl  0  5  0  0  0  0  0  0  0  0  0  0
   -1.7687   -0.9959    0.0000 H   0  0  0  0  0  0  0  0  0  0  0  0
   -1.0418    1.4848    0.0000 H   0  0  0  0  0  0  0  0  0  0  0  0
   -0.1129    0.9551    0.0000 H   0  0  0  0  0  0  0  0  0  0  0  0
   -1.2522   -0.5265    0.0000 H   0  0  0  0  0  0  0  0  0  0  0  0
   -1.2533   -1.3496    0.0000 H   0  0  0  0  0  0  0  0  0  0  0  0
   -0.3253   -1.8835    0.0000 H   0  0  0  0  0  0  0  0  0  0  0  0
    1.1325   -1.0445    0.0000 H   0  0  0  0  0  0  0  0  0  0  0  0
    2.0455    0.5684    0.0000 H   0  0  0  0  0  0  0  0  0  0  0  0
    2.0546   -0.5016    0.0000 H   0  0  0  0  0  0  0  0  0  0  0  0
   -4.0349    0.4733    0.0000 H   0  0  0  0  0  0  0  0  0  0  0  0
   -3.1693   -0.9959    0.0000 H   0  0  0  0  0  0  0  0  0  0  0  0
  2  1  1  0  0  0  0
  2 12  1  0  0  0  0
  3  2  1  0  0  0  0
  3 13  1  0  0  0  0
  3 14  1  0  0  0  0
  4  3  1  0  0  0  0
  4  5  1  0  0  0  0
  4 15  1  0  0  0  0
  5 16  1  0  0  0  0
  5 17  1  0  0  0  0
  6  5  1  0  0  0  0
  7  4  1  0  0  0  0
  8  7  1  0  0  0  0
  8 18  1  0  0  0  0
  8 19  1  0  0  0  0
  8 20  1  0  0  0  0
  9  1  2  0  0  0  0
 10  1  1  0  0  0  0
 10 21  1  0  0  0  0
 10 22  1  0  0  0  0
M  ISO  1   6 197
M  CHG  2   6   1  11  -1
M  END
>  <DRUGBANK_ID>
DB09406

>  <COMMON_NAME>
Chlormerodrin Hg-197

>  <CAS_NUMBER>
64461-80-9

>  <UNII>
1D6EFC579A

>  <SYNONYMS>
Chlormerodrin (197Hg); Chlormerodrin Hg 197; Chlormerodrin Hg-197; Chlormerodrin, Hg-197

$$$$
