
 OpenBabel10282417072D

 33 36  0  0  0  0  0  0  0  0999 V2000
   -0.7221    0.1899    0.0000 C   0  0  0  0  0  0  0  0  0  0  0  0
    0.0000    0.6079    0.0000 O   0  0  0  0  0  0  0  0  0  0  0  0
    0.7031    0.1899    0.0000 C   0  0  0  0  0  0  0  0  0  0  0  0
   -0.7221   -0.6270    0.0000 C   0  0  0  0  0  0  0  0  0  0  0  0
    0.7031   -0.6270    0.0000 C   0  0  0  0  0  0  0  0  0  0  0  0
    0.0000   -1.0260    0.0000 C   0  0  0  0  0  0  0  0  0  0  0  0
   -1.4251    0.6079    0.0000 C   0  0  0  0  0  0  0  0  0  0  0  0
   -1.4251   -1.0260    0.0000 C   0  0  0  0  0  0  0  0  0  0  0  0
    1.4062    0.6079    0.0000 C   0  0  0  0  0  0  0  0  0  0  0  0
    0.0000   -1.8432    0.0000 O   0  0  0  0  0  0  0  0  0  0  0  0
   -2.1472    0.1899    0.0000 C   0  0  0  0  0  0  0  0  0  0  0  0
   -2.1472   -0.6270    0.0000 C   0  0  0  0  0  0  0  0  0  0  0  0
   -1.4251    1.4441    0.0000 C   0  0  0  0  0  0  0  0  0  0  0  0
    1.4062    1.4441    0.0000 C   0  0  0  0  0  0  0  0  0  0  0  0
    2.1283    0.1899    0.0000 C   0  0  0  0  0  0  0  0  0  0  0  0
   -2.8503    0.6079    0.0000 C   0  0  0  0  0  0  0  0  0  0  0  0
   -2.1472    1.8432    0.0000 C   0  0  0  0  0  0  0  0  0  0  0  0
    2.1283    1.8432    0.0000 C   0  0  0  0  0  0  0  0  0  0  0  0
    2.8503    0.6079    0.0000 C   0  0  0  0  0  0  0  0  0  0  0  0
   -2.8503    1.4441    0.0000 C   0  0  0  0  0  0  0  0  0  0  0  0
    2.8503    1.4441    0.0000 C   0  0  0  0  0  0  0  0  0  0  0  0
    1.5949   -1.1463    0.0000 H   0  0  0  0  0  0  0  0  0  0  0  0
   -1.4192   -2.0580    0.0000 H   0  0  0  0  0  0  0  0  0  0  0  0
   -3.0360   -1.1514    0.0000 H   0  0  0  0  0  0  0  0  0  0  0  0
   -0.5362    1.9684    0.0000 H   0  0  0  0  0  0  0  0  0  0  0  0
    0.5173    1.9684    0.0000 H   0  0  0  0  0  0  0  0  0  0  0  0
    2.1283   -0.8421    0.0000 H   0  0  0  0  0  0  0  0  0  0  0  0
   -3.7473    0.0976    0.0000 H   0  0  0  0  0  0  0  0  0  0  0  0
   -2.1531    2.8752    0.0000 H   0  0  0  0  0  0  0  0  0  0  0  0
    2.1283    2.8752    0.0000 H   0  0  0  0  0  0  0  0  0  0  0  0
    3.7443    0.0924    0.0000 H   0  0  0  0  0  0  0  0  0  0  0  0
   -3.7421    1.9634    0.0000 H   0  0  0  0  0  0  0  0  0  0  0  0
    3.7392    1.9684    0.0000 H   0  0  0  0  0  0  0  0  0  0  0  0
  2  1  1  0  0  0  0
  3  2  1  0  0  0  0
  4  1  2  0  0  0  0
  5  3  2  0  0  0  0
  5 22  1  0  0  0  0
  6  4  1  0  0  0  0
  6  5  1  0  0  0  0
  7  1  1  0  0  0  0
  8  4  1  0  0  0  0
  8 23  1  0  0  0  0
  9  3  1  0  0  0  0
 10  6  2  0  0  0  0
 11  7  2  0  0  0  0
 12  8  2  0  0  0  0
 12 11  1  0  0  0  0
 12 24  1  0  0  0  0
 13  7  1  0  0  0  0
 13 25  1  0  0  0  0
 14  9  1  0  0  0  0
 14 26  1  0  0  0  0
 15  9  2  0  0  0  0
 15 27  1  0  0  0  0
 16 11  1  0  0  0  0
 16 28  1  0  0  0  0
 17 13  2  0  0  0  0
 17 29  1  0  0  0  0
 18 14  2  0  0  0  0
 18 30  1  0  0  0  0
 19 15  1  0  0  0  0
 19 31  1  0  0  0  0
 20 16  2  0  0  0  0
 20 17  1  0  0  0  0
 20 32  1  0  0  0  0
 21 18  1  0  0  0  0
 21 19  2  0  0  0  0
 21 33  1  0  0  0  0
M  END
>  <DRUGBANK_ID>
DB07453

>  <COMMON_NAME>
alpha-Naphthoflavone

>  <CAS_NUMBER>
604-59-1

>  <UNII>
FML65D8PY5

>  <SYNONYMS>
2-phenyl-4H-naphtho(1,2-b)pyran-4-one; 7,8-benzoflavone; Î±-naphthylflavone

$$$$
