THZ
 OpenBabel10282417072D

 37 38  0  0  0  0  0  0  0  0999 V2000
   -0.6753   -0.7264    0.0000 N   0  0  0  0  0  0  0  0  0  0  0  0
   -0.6753    0.0985    0.0000 C   0  0  1  0  0  0  0  0  0  0  0  0
   -1.3898    0.5110    0.0000 C   0  0  0  0  0  0  0  0  0  0  0  0
   -2.1043    0.0985    0.0000 C   0  0  0  0  0  0  0  0  0  0  0  0
   -2.8187    0.5110    0.0000 C   0  0  0  0  0  0  0  0  0  0  0  0
   -3.5332    0.0985    0.0000 N   0  0  0  0  0  0  0  0  0  0  0  0
   -4.2477    0.5110    0.0000 C   0  0  0  0  0  0  0  0  0  0  0  0
   -4.9622    0.0985    0.0000 N   0  0  0  0  0  0  0  0  0  0  0  0
   -4.2477    1.3360    0.0000 N   0  0  0  0  0  0  0  0  0  0  0  0
    0.0390    0.5110    0.0000 C   0  0  0  0  0  0  0  0  0  0  0  0
    0.0390    1.3360    0.0000 O   0  0  0  0  0  0  0  0  0  0  0  0
    0.7535    0.0985    0.0000 C   0  0  0  0  0  0  0  0  0  0  0  0
    1.5072    0.4340    0.0000 S   0  0  0  0  0  0  0  0  0  0  0  0
    2.0592   -0.1790    0.0000 C   0  0  0  0  0  0  0  0  0  0  0  0
    2.8842   -0.1790    0.0000 C   0  0  0  0  0  0  0  0  0  0  0  0
    3.2967   -0.8934    0.0000 C   0  0  0  0  0  0  0  0  0  0  0  0
    2.8842   -1.6079    0.0000 C   0  0  0  0  0  0  0  0  0  0  0  0
    2.0592   -1.6079    0.0000 C   0  0  0  0  0  0  0  0  0  0  0  0
    1.6467   -0.8934    0.0000 C   0  0  0  0  0  0  0  0  0  0  0  0
    0.8398   -0.7219    0.0000 N   0  0  0  0  0  0  0  0  0  0  0  0
   -1.5586   -1.2364    0.0000 H   0  0  0  0  0  0  0  0  0  0  0  0
    0.2080   -1.2364    0.0000 H   0  0  0  0  0  0  0  0  0  0  0  0
   -1.6019   -0.4365    0.0000 H   0  0  0  0  0  0  0  0  0  0  0  0
   -1.3898    1.5810    0.0000 H   0  0  0  0  0  0  0  0  0  0  0  0
   -2.3164    1.0460    0.0000 H   0  0  0  0  0  0  0  0  0  0  0  0
   -2.1043   -0.9715    0.0000 H   0  0  0  0  0  0  0  0  0  0  0  0
   -3.0310   -0.4365    0.0000 H   0  0  0  0  0  0  0  0  0  0  0  0
   -2.8187    1.5810    0.0000 H   0  0  0  0  0  0  0  0  0  0  0  0
   -3.7453    1.0460    0.0000 H   0  0  0  0  0  0  0  0  0  0  0  0
   -3.5332   -0.8860    0.0000 H   0  0  0  0  0  0  0  0  0  0  0  0
   -5.8148    0.5908    0.0000 H   0  0  0  0  0  0  0  0  0  0  0  0
   -4.9622   -0.8860    0.0000 H   0  0  0  0  0  0  0  0  0  0  0  0
   -3.3951    1.8283    0.0000 H   0  0  0  0  0  0  0  0  0  0  0  0
    3.4002    0.7147    0.0000 H   0  0  0  0  0  0  0  0  0  0  0  0
    4.3287   -0.8934    0.0000 H   0  0  0  0  0  0  0  0  0  0  0  0
    3.4002   -2.5016    0.0000 H   0  0  0  0  0  0  0  0  0  0  0  0
    1.5432   -2.5016    0.0000 H   0  0  0  0  0  0  0  0  0  0  0  0
  1 21  1  0  0  0  0
  1 22  1  0  0  0  0
  2  1  1  0  0  0  0
  2  3  1  0  0  0  0
  2 10  1  0  0  0  0
  2 23  1  6  0  0  0
  3  4  1  0  0  0  0
  3 24  1  0  0  0  0
  3 25  1  0  0  0  0
  4  5  1  0  0  0  0
  4 26  1  0  0  0  0
  4 27  1  0  0  0  0
  5  6  1  0  0  0  0
  5 28  1  0  0  0  0
  5 29  1  0  0  0  0
  6  7  1  0  0  0  0
  6 30  1  0  0  0  0
  7  8  1  0  0  0  0
  7  9  2  0  0  0  0
  8 31  1  0  0  0  0
  8 32  1  0  0  0  0
  9 33  1  0  0  0  0
 10 11  2  0  0  0  0
 10 12  1  0  0  0  0
 12 13  1  0  0  0  0
 12 20  2  0  0  0  0
 13 14  1  0  0  0  0
 14 15  2  0  0  0  0
 14 19  1  0  0  0  0
 15 16  1  0  0  0  0
 15 34  1  0  0  0  0
 16 17  2  0  0  0  0
 16 35  1  0  0  0  0
 17 18  1  0  0  0  0
 17 36  1  0  0  0  0
 18 19  2  0  0  0  0
 18 37  1  0  0  0  0
 19 20  1  0  0  0  0
M  END
>  <DRUGBANK_ID>
DB08624

>  <COMMON_NAME>
1-[(4S)-4-amino-5-(1,3-benzothiazol-2-yl)-5-oxopentyl]guanidine

$$$$
