
 OpenBabel10282417072D

 37 38  0  0  0  0  0  0  0  0999 V2000
    0.8470   -0.1695    0.0000 C   0  0  2  0  0  0  0  0  0  0  0  0
    0.8470    0.6552    0.0000 N   0  0  0  0  0  0  0  0  0  0  0  0
    0.1796   -0.6542    0.0000 O   0  0  0  0  0  0  0  0  0  0  0  0
    1.5145   -0.6542    0.0000 C   0  0  1  0  0  0  0  0  0  0  0  0
    1.5614    1.0678    0.0000 C   0  0  0  0  0  0  0  0  0  0  0  0
    0.1325    1.0678    0.0000 C   0  0  0  0  0  0  0  0  0  0  0  0
    0.4345   -1.4389    0.0000 C   0  0  1  0  0  0  0  0  0  0  0  0
    1.2596   -1.4389    0.0000 C   0  0  1  0  0  0  0  0  0  0  0  0
    1.5614    1.8928    0.0000 N   0  0  0  0  0  0  0  0  0  0  0  0
    2.2760    0.6552    0.0000 O   0  0  0  0  0  0  0  0  0  0  0  0
    1.7444   -2.1063    0.0000 O   0  0  0  0  0  0  0  0  0  0  0  0
    0.8470    2.3052    0.0000 C   0  0  0  0  0  0  0  0  0  0  0  0
   -2.2760   -1.8928    0.0000 O   0  0  0  0  0  0  0  0  0  0  0  0
   -1.5615   -3.1302    0.0000 O   0  0  0  0  0  0  0  0  0  0  0  0
   -1.5615   -1.4802    0.0000 O   0  0  0  0  0  0  0  0  0  0  0  0
   -1.5615   -2.3052    0.0000 P   0  0  0  0  0  0  0  0  0  0  0  0
   -0.8471   -1.8928    0.0000 O   0  0  0  0  0  0  0  0  0  0  0  0
   -0.0502   -2.1063    0.0000 C   0  0  0  0  0  0  0  0  0  0  0  0
    0.8470    3.1302    0.0000 O   0  0  0  0  0  0  0  0  0  0  0  0
    0.1325    1.8928    0.0000 C   0  0  0  0  0  0  0  0  0  0  0  0
   -0.5818    2.3052    0.0000 C   0  0  0  0  0  0  0  0  0  0  0  0
    2.2290   -0.2418    0.0000 O   0  0  0  0  0  0  0  0  0  0  0  0
   -0.1063    0.3164    0.0000 H   0  0  0  0  0  0  0  0  0  0  0  0
    1.5704    0.4143    0.0000 H   0  0  0  0  0  0  0  0  0  0  0  0
   -0.7613    0.5518    0.0000 H   0  0  0  0  0  0  0  0  0  0  0  0
   -0.6223   -1.2716    0.0000 H   0  0  0  0  0  0  0  0  0  0  0  0
    2.3164   -1.2715    0.0000 H   0  0  0  0  0  0  0  0  0  0  0  0
    2.4140    2.3851    0.0000 H   0  0  0  0  0  0  0  0  0  0  0  0
    1.3498   -2.9924    0.0000 H   0  0  0  0  0  0  0  0  0  0  0  0
   -2.2761   -0.9228    0.0000 H   0  0  0  0  0  0  0  0  0  0  0  0
   -0.7215   -0.9952    0.0000 H   0  0  0  0  0  0  0  0  0  0  0  0
    0.3071   -3.1149    0.0000 H   0  0  0  0  0  0  0  0  0  0  0  0
   -0.7765   -2.8921    0.0000 H   0  0  0  0  0  0  0  0  0  0  0  0
   -0.5818    3.3752    0.0000 H   0  0  0  0  0  0  0  0  0  0  0  0
   -1.5084    1.7702    0.0000 H   0  0  0  0  0  0  0  0  0  0  0  0
   -1.5084    2.8402    0.0000 H   0  0  0  0  0  0  0  0  0  0  0  0
    3.0690   -0.7269    0.0000 H   0  0  0  0  0  0  0  0  0  0  0  0
  1  2  1  0  0  0  0
  1  3  1  0  0  0  0
  1  4  1  0  0  0  0
  1 23  1  6  0  0  0
  2  5  1  0  0  0  0
  2  6  1  0  0  0  0
  3  7  1  0  0  0  0
  4  8  1  0  0  0  0
  4 22  1  0  0  0  0
  4 24  1  1  0  0  0
  5  9  1  0  0  0  0
  5 10  2  0  0  0  0
  6 20  2  0  0  0  0
  6 25  1  0  0  0  0
  7 18  1  0  0  0  0
  7  8  1  0  0  0  0
  7 26  1  6  0  0  0
  8 11  1  0  0  0  0
  8 27  1  1  0  0  0
  9 12  1  0  0  0  0
  9 28  1  0  0  0  0
 11 29  1  0  0  0  0
 12 19  2  0  0  0  0
 13 16  1  0  0  0  0
 13 30  1  0  0  0  0
 15 31  1  0  0  0  0
 16 17  1  0  0  0  0
 16 14  2  0  0  0  0
 16 15  1  0  0  0  0
 18 17  1  0  0  0  0
 18 32  1  0  0  0  0
 18 33  1  0  0  0  0
 20 12  1  0  0  0  0
 20 21  1  0  0  0  0
 21 34  1  0  0  0  0
 21 35  1  0  0  0  0
 21 36  1  0  0  0  0
 22 37  1  0  0  0  0
M  END
>  <DRUGBANK_ID>
DB04243

>  <SECONDARY_ACCESSION_NUMBERS>
EXPT00254

>  <COMMON_NAME>
TMP

>  <SYNONYMS>
5-methyl-5'-uridylic acid; 5-methyluridine 5'-monophosphate; 5-methyluridine 5'-phosphate; ribo-TMP; ribosylthymidine 5'-monophosphate; ribosylthymidine 5'-phosphate; ribosylthymine 5'-monophosphate; ribosylthymine 5'-phosphate; ribothymidine 5'-phosphate; rTMP

$$$$
