
 OpenBabel10282417072D

 46 49  0  0  0  0  0  0  0  0999 V2000
   -0.7302   -2.4931    0.0000 C   0  0  0  0  0  0  0  0  0  0  0  0
    0.0768   -2.3215    0.0000 C   0  0  0  0  0  0  0  0  0  0  0  0
    0.2483   -3.1285    0.0000 C   0  0  0  0  0  0  0  0  0  0  0  0
   -0.0947   -1.5146    0.0000 O   0  0  0  0  0  0  0  0  0  0  0  0
    0.8838   -2.1500    0.0000 C   0  0  0  0  0  0  0  0  0  0  0  0
    1.1387   -1.3654    0.0000 N   0  0  0  0  0  0  0  0  0  0  0  0
    0.6538   -0.6979    0.0000 N   0  0  0  0  0  0  0  0  0  0  0  0
    1.1387   -0.0305    0.0000 C   0  0  0  0  0  0  0  0  0  0  0  0
    0.8838    0.7541    0.0000 C   0  0  0  0  0  0  0  0  0  0  0  0
    0.0768    0.9256    0.0000 C   0  0  0  0  0  0  0  0  0  0  0  0
   -0.1781    1.7103    0.0000 C   0  0  0  0  0  0  0  0  0  0  0  0
    0.3739    2.3234    0.0000 C   0  0  0  0  0  0  0  0  0  0  0  0
    1.1809    2.1518    0.0000 C   0  0  0  0  0  0  0  0  0  0  0  0
    1.4358    1.3672    0.0000 C   0  0  0  0  0  0  0  0  0  0  0  0
    1.9233   -0.2854    0.0000 C   0  0  0  0  0  0  0  0  0  0  0  0
    2.6378    0.1271    0.0000 C   0  0  0  0  0  0  0  0  0  0  0  0
    2.6378    0.9521    0.0000 Cl  0  0  0  0  0  0  0  0  0  0  0  0
    3.3523   -0.2854    0.0000 C   0  0  0  0  0  0  0  0  0  0  0  0
    3.3523   -1.1104    0.0000 N   0  0  0  0  0  0  0  0  0  0  0  0
    2.6378   -1.5229    0.0000 N   0  0  0  0  0  0  0  0  0  0  0  0
    1.9233   -1.1104    0.0000 C   0  0  0  0  0  0  0  0  0  0  0  0
    4.0668    0.1271    0.0000 C   0  0  0  0  0  0  0  0  0  0  0  0
    4.0668    0.9521    0.0000 C   0  0  0  0  0  0  0  0  0  0  0  0
    4.7812    1.3646    0.0000 C   0  0  0  0  0  0  0  0  0  0  0  0
    5.4957    0.9521    0.0000 C   0  0  0  0  0  0  0  0  0  0  0  0
    5.4957    0.1271    0.0000 C   0  0  0  0  0  0  0  0  0  0  0  0
    4.7812   -0.2854    0.0000 C   0  0  0  0  0  0  0  0  0  0  0  0
   -1.4462   -1.6980    0.0000 H   0  0  0  0  0  0  0  0  0  0  0  0
   -1.0608   -3.5108    0.0000 H   0  0  0  0  0  0  0  0  0  0  0  0
   -1.7768   -2.7156    0.0000 H   0  0  0  0  0  0  0  0  0  0  0  0
   -0.5469   -3.8444    0.0000 H   0  0  0  0  0  0  0  0  0  0  0  0
    1.2659   -3.4592    0.0000 H   0  0  0  0  0  0  0  0  0  0  0  0
    0.4707   -4.1751    0.0000 H   0  0  0  0  0  0  0  0  0  0  0  0
    0.6262   -0.8656    0.0000 H   0  0  0  0  0  0  0  0  0  0  0  0
    1.5998   -2.9452    0.0000 H   0  0  0  0  0  0  0  0  0  0  0  0
    1.9304   -1.9275    0.0000 H   0  0  0  0  0  0  0  0  0  0  0  0
   -0.6138    0.1587    0.0000 H   0  0  0  0  0  0  0  0  0  0  0  0
   -1.1875    1.9249    0.0000 H   0  0  0  0  0  0  0  0  0  0  0  0
    0.0550    3.3049    0.0000 H   0  0  0  0  0  0  0  0  0  0  0  0
    1.8715    2.9187    0.0000 H   0  0  0  0  0  0  0  0  0  0  0  0
    2.4452    1.1526    0.0000 H   0  0  0  0  0  0  0  0  0  0  0  0
    3.1731    1.4681    0.0000 H   0  0  0  0  0  0  0  0  0  0  0  0
    4.7812    2.3966    0.0000 H   0  0  0  0  0  0  0  0  0  0  0  0
    6.3894    1.4681    0.0000 H   0  0  0  0  0  0  0  0  0  0  0  0
    6.3894   -0.3889    0.0000 H   0  0  0  0  0  0  0  0  0  0  0  0
    4.7812   -1.3174    0.0000 H   0  0  0  0  0  0  0  0  0  0  0  0
  1  2  1  0  0  0  0
  1 28  1  0  0  0  0
  1 29  1  0  0  0  0
  1 30  1  0  0  0  0
  2  3  1  0  0  0  0
  2  4  1  0  0  0  0
  2  5  1  0  0  0  0
  3 31  1  0  0  0  0
  3 32  1  0  0  0  0
  3 33  1  0  0  0  0
  4 34  1  0  0  0  0
  5  6  1  0  0  0  0
  5 35  1  0  0  0  0
  5 36  1  0  0  0  0
  6  7  1  0  0  0  0
  6 21  1  0  0  0  0
  7  8  2  0  0  0  0
  8  9  1  0  0  0  0
  8 15  1  0  0  0  0
  9 10  2  0  0  0  0
  9 14  1  0  0  0  0
 10 11  1  0  0  0  0
 10 37  1  0  0  0  0
 11 12  2  0  0  0  0
 11 38  1  0  0  0  0
 12 13  1  0  0  0  0
 12 39  1  0  0  0  0
 13 14  2  0  0  0  0
 13 40  1  0  0  0  0
 14 41  1  0  0  0  0
 15 16  2  0  0  0  0
 15 21  1  0  0  0  0
 16 17  1  0  0  0  0
 16 18  1  0  0  0  0
 18 19  2  0  0  0  0
 18 22  1  0  0  0  0
 19 20  1  0  0  0  0
 20 21  2  0  0  0  0
 22 23  2  0  0  0  0
 22 27  1  0  0  0  0
 23 24  1  0  0  0  0
 23 42  1  0  0  0  0
 24 25  2  0  0  0  0
 24 43  1  0  0  0  0
 25 26  1  0  0  0  0
 25 44  1  0  0  0  0
 26 27  2  0  0  0  0
 26 45  1  0  0  0  0
 27 46  1  0  0  0  0
M  END
>  <DRUGBANK_ID>
DB17801

>  <COMMON_NAME>
BF-844

>  <CAS_NUMBER>
1404506-35-9

>  <UNII>
AW4QOD73S3

>  <SYNONYMS>
1-(4-chloro-3,5-diphenyl-pyrazolo(3,4-c)pyridazin-1-yl)-2-methyl-propan-2-ol; 1-(4-chloro-3,5-diphenyl-pyrazolo[3,4-C]pyridazin-1-yl)-2-methyl-propan-2-ol; BF-844; BF844

$$$$
