
 OpenBabel10282417072D

 19 19  0  0  0  0  0  0  0  0999 V2000
   -0.0013    0.1803    0.0000 N   0  0  0  0  0  0  0  0  0  0  0  0
    0.7055   -0.2264    0.0000 C   0  0  0  0  0  0  0  0  0  0  0  0
   -0.7138   -0.2264    0.0000 C   0  0  0  0  0  0  0  0  0  0  0  0
   -0.0013    1.0676    0.0000 C   0  0  0  0  0  0  0  0  0  0  0  0
    0.7055   -1.0658    0.0000 C   0  0  0  0  0  0  0  0  0  0  0  0
   -0.7138   -1.0658    0.0000 C   0  0  0  0  0  0  0  0  0  0  0  0
   -0.7138    1.4818    0.0000 O   0  0  0  0  0  0  0  0  0  0  0  0
   -0.0013   -1.4818    0.0000 C   0  0  0  0  0  0  0  0  0  0  0  0
    0.7138    1.4790    0.0000 H   0  0  0  0  0  0  0  0  0  0  0  0
    1.6318    0.3093    0.0000 H   0  0  0  0  0  0  0  0  0  0  0  0
    1.6323   -0.7611    0.0000 H   0  0  0  0  0  0  0  0  0  0  0  0
   -1.6391    0.3109    0.0000 H   0  0  0  0  0  0  0  0  0  0  0  0
   -1.6411   -0.7603    0.0000 H   0  0  0  0  0  0  0  0  0  0  0  0
    1.6344   -1.5969    0.0000 H   0  0  0  0  0  0  0  0  0  0  0  0
    0.7122   -2.1358    0.0000 H   0  0  0  0  0  0  0  0  0  0  0  0
   -1.6417   -1.5985    0.0000 H   0  0  0  0  0  0  0  0  0  0  0  0
   -0.7177   -2.1358    0.0000 H   0  0  0  0  0  0  0  0  0  0  0  0
    0.0006   -2.5518    0.0000 H   0  0  0  0  0  0  0  0  0  0  0  0
   -0.9288   -2.0154    0.0000 H   0  0  0  0  0  0  0  0  0  0  0  0
  1  2  1  0  0  0  0
  1  3  1  0  0  0  0
  1  4  1  0  0  0  0
  2  5  1  0  0  0  0
  2 10  1  0  0  0  0
  2 11  1  0  0  0  0
  3  6  1  0  0  0  0
  3 12  1  0  0  0  0
  3 13  1  0  0  0  0
  4  7  2  0  0  0  0
  4  9  1  0  0  0  0
  5  8  1  0  0  0  0
  5 14  1  0  0  0  0
  5 15  1  0  0  0  0
  6  8  1  0  0  0  0
  6 16  1  0  0  0  0
  6 17  1  0  0  0  0
  8 18  1  0  0  0  0
  8 19  1  0  0  0  0
M  END
>  <DRUGBANK_ID>
DB04113

>  <SECONDARY_ACCESSION_NUMBERS>
EXPT01477

>  <COMMON_NAME>
N-Formylpiperidine

>  <CAS_NUMBER>
2591-86-8

>  <UNII>
ZIQ29H6CZG

>  <SYNONYMS>
1-Formylpiperidine; 1-Piperidinecarboxaldehyde; Formylpiperidine; Piperidinoformamide

$$$$
