
 OpenBabel10282417072D

 31 30  0  0  0  0  0  0  0  0999 V2000
    0.8574   -1.0725    0.0000 C   0  0  0  0  0  0  0  0  0  0  0  0
    0.1429   -1.4850    0.0000 C   0  0  0  0  0  0  0  0  0  0  0  0
   -0.5716   -1.0725    0.0000 C   0  0  0  0  0  0  0  0  0  0  0  0
   -0.5716   -0.2475    0.0000 C   0  0  0  0  0  0  0  0  0  0  0  0
    0.1429    0.1650    0.0000 C   0  0  0  0  0  0  0  0  0  0  0  0
    0.8574   -0.2475    0.0000 C   0  0  0  0  0  0  0  0  0  0  0  0
    0.1429    0.9900    0.0000 C   0  0  0  0  0  0  0  0  0  0  0  0
   -0.5716    1.4025    0.0000 O   0  0  0  0  0  0  0  0  0  0  0  0
    0.8574    1.4025    0.0000 O   0  5  0  0  0  0  0  0  0  0  0  0
   -1.2860    0.1650    0.0000 O   0  0  0  0  0  0  0  0  0  0  0  0
    5.1222   -1.0725    0.0000 C   0  0  0  0  0  0  0  0  0  0  0  0
    4.4077   -1.4850    0.0000 C   0  0  0  0  0  0  0  0  0  0  0  0
    3.6933   -1.0725    0.0000 C   0  0  0  0  0  0  0  0  0  0  0  0
    3.6933   -0.2475    0.0000 C   0  0  0  0  0  0  0  0  0  0  0  0
    4.4077    0.1650    0.0000 C   0  0  0  0  0  0  0  0  0  0  0  0
    5.1222   -0.2475    0.0000 C   0  0  0  0  0  0  0  0  0  0  0  0
    4.4077    0.9900    0.0000 C   0  0  0  0  0  0  0  0  0  0  0  0
    3.6933    1.4025    0.0000 O   0  0  0  0  0  0  0  0  0  0  0  0
    5.1222    1.4025    0.0000 O   0  5  0  0  0  0  0  0  0  0  0  0
    2.9788    0.1650    0.0000 O   0  0  0  0  0  0  0  0  0  0  0  0
    0.0000   -3.1350    0.0000 Mg  0  2  0  0  0  0  0  0  0  0  0  0
    1.7511   -1.5885    0.0000 H   0  0  0  0  0  0  0  0  0  0  0  0
    0.1429   -2.5170    0.0000 H   0  0  0  0  0  0  0  0  0  0  0  0
   -1.4653   -1.5885    0.0000 H   0  0  0  0  0  0  0  0  0  0  0  0
    1.7511    0.2685    0.0000 H   0  0  0  0  0  0  0  0  0  0  0  0
   -1.2860    1.1020    0.0000 H   0  0  0  0  0  0  0  0  0  0  0  0
    6.0159   -1.5885    0.0000 H   0  0  0  0  0  0  0  0  0  0  0  0
    4.4077   -2.5170    0.0000 H   0  0  0  0  0  0  0  0  0  0  0  0
    2.7996   -1.5885    0.0000 H   0  0  0  0  0  0  0  0  0  0  0  0
    6.0159    0.2685    0.0000 H   0  0  0  0  0  0  0  0  0  0  0  0
    2.9788    1.1020    0.0000 H   0  0  0  0  0  0  0  0  0  0  0  0
  1  2  2  0  0  0  0
  1  6  1  0  0  0  0
  1 22  1  0  0  0  0
  2  3  1  0  0  0  0
  2 23  1  0  0  0  0
  3  4  2  0  0  0  0
  3 24  1  0  0  0  0
  4  5  1  0  0  0  0
  4 10  1  0  0  0  0
  5  6  2  0  0  0  0
  5  7  1  0  0  0  0
  6 25  1  0  0  0  0
  7  8  2  0  0  0  0
  7  9  1  0  0  0  0
 10 26  1  0  0  0  0
 11 12  2  0  0  0  0
 11 16  1  0  0  0  0
 11 27  1  0  0  0  0
 12 13  1  0  0  0  0
 12 28  1  0  0  0  0
 13 14  2  0  0  0  0
 13 29  1  0  0  0  0
 14 15  1  0  0  0  0
 14 20  1  0  0  0  0
 15 16  2  0  0  0  0
 15 17  1  0  0  0  0
 16 30  1  0  0  0  0
 17 18  2  0  0  0  0
 17 19  1  0  0  0  0
 20 31  1  0  0  0  0
M  CHG  3   9  -1  19  -1  21   2
M  END
>  <DRUGBANK_ID>
DB01397

>  <COMMON_NAME>
Magnesium salicylate

>  <CAS_NUMBER>
18917-89-0

>  <UNII>
JQ69D454N1

>  <SYNONYMS>
Magnesium salicylate; Magnesium salicylate anhydrous

$$$$
