448
 OpenBabel10282417072D

 39 41  0  0  1  0  0  0  0  0999 V2000
    5.1662    1.2111    0.0000 S   0  0  3  0  0  0  0  0  0  0  0  0
    8.5768   -2.0593    0.0000 F   0  0  0  0  0  0  0  0  0  0  0  0
   10.0057   -1.2343    0.0000 F   0  0  0  0  0  0  0  0  0  0  0  0
    9.7038   -2.3613    0.0000 F   0  0  0  0  0  0  0  0  0  0  0  0
    8.0537   -0.9323    0.0000 O   0  0  0  0  0  0  0  0  0  0  0  0
    5.5787    1.9257    0.0000 O   0  0  0  0  0  0  0  0  0  0  0  0
    3.8597    1.8751    0.0000 N   0  0  0  0  0  0  0  0  0  0  0  0
    3.8597    0.5472    0.0000 N   0  0  0  0  0  0  0  0  0  0  0  0
    6.8162    1.2111    0.0000 N   0  0  0  0  0  0  0  0  0  0  0  0
    5.5787    0.4967    0.0000 C   0  0  0  0  0  0  0  0  0  0  0  0
    6.4037    0.4967    0.0000 C   0  0  0  0  0  0  0  0  0  0  0  0
    6.8162   -0.2178    0.0000 C   0  0  0  0  0  0  0  0  0  0  0  0
    4.3412    1.2111    0.0000 C   0  0  0  0  0  0  0  0  0  0  0  0
    3.0791    1.6236    0.0000 C   0  0  0  0  0  0  0  0  0  0  0  0
    3.0791    0.7986    0.0000 C   0  0  0  0  0  0  0  0  0  0  0  0
    7.6412   -0.2178    0.0000 C   0  0  0  0  0  0  0  0  0  0  0  0
    6.4037   -0.9323    0.0000 C   0  0  0  0  0  0  0  0  0  0  0  0
    2.3645    2.0361    0.0000 C   0  0  0  0  0  0  0  0  0  0  0  0
    8.0537    0.4967    0.0000 C   0  0  0  0  0  0  0  0  0  0  0  0
    2.3645    0.3861    0.0000 C   0  0  0  0  0  0  0  0  0  0  0  0
    7.6412    1.2111    0.0000 C   0  0  0  0  0  0  0  0  0  0  0  0
    1.6500    1.6236    0.0000 C   0  0  0  0  0  0  0  0  0  0  0  0
    1.6500    0.7986    0.0000 C   0  0  0  0  0  0  0  0  0  0  0  0
    8.8788   -0.9323    0.0000 C   0  0  0  0  0  0  0  0  0  0  0  0
    9.2913   -1.6468    0.0000 C   0  0  0  0  0  0  0  0  0  0  0  0
    4.1655    2.8109    0.0000 H   0  0  0  0  0  0  0  0  0  0  0  0
    5.0437   -0.4300    0.0000 H   0  0  0  0  0  0  0  0  0  0  0  0
    6.1137   -0.4299    0.0000 H   0  0  0  0  0  0  0  0  0  0  0  0
    5.3337   -0.9323    0.0000 H   0  0  0  0  0  0  0  0  0  0  0  0
    6.9387   -1.8589    0.0000 H   0  0  0  0  0  0  0  0  0  0  0  0
    5.8687   -1.8590    0.0000 H   0  0  0  0  0  0  0  0  0  0  0  0
    2.3645    3.0681    0.0000 H   0  0  0  0  0  0  0  0  0  0  0  0
    9.0857    0.4967    0.0000 H   0  0  0  0  0  0  0  0  0  0  0  0
    2.3645   -0.6459    0.0000 H   0  0  0  0  0  0  0  0  0  0  0  0
    8.1572    2.1048    0.0000 H   0  0  0  0  0  0  0  0  0  0  0  0
    0.7563    2.1396    0.0000 H   0  0  0  0  0  0  0  0  0  0  0  0
    0.7563    0.2826    0.0000 H   0  0  0  0  0  0  0  0  0  0  0  0
    9.4138   -0.0057    0.0000 H   0  0  0  0  0  0  0  0  0  0  0  0
    9.9488   -0.9323    0.0000 H   0  0  0  0  0  0  0  0  0  0  0  0
  1  6  2  0  0  0  0
  1 10  1  0  0  0  0
  1 13  1  0  0  0  0
  2 25  1  0  0  0  0
  3 25  1  0  0  0  0
  4 25  1  0  0  0  0
  5 16  1  0  0  0  0
  5 24  1  0  0  0  0
  7 13  1  0  0  0  0
  7 14  1  0  0  0  0
  7 26  1  0  0  0  0
  8 13  2  0  0  0  0
  8 15  1  0  0  0  0
  9 11  2  0  0  0  0
  9 21  1  0  0  0  0
 10 11  1  0  0  0  0
 10 27  1  0  0  0  0
 10 28  1  0  0  0  0
 11 12  1  0  0  0  0
 12 16  2  0  0  0  0
 12 17  1  0  0  0  0
 14 15  1  0  0  0  0
 14 18  2  0  0  0  0
 15 20  2  0  0  0  0
 16 19  1  0  0  0  0
 17 29  1  0  0  0  0
 17 30  1  0  0  0  0
 17 31  1  0  0  0  0
 18 22  1  0  0  0  0
 18 32  1  0  0  0  0
 19 21  2  0  0  0  0
 19 33  1  0  0  0  0
 20 23  1  0  0  0  0
 20 34  1  0  0  0  0
 21 35  1  0  0  0  0
 22 23  2  0  0  0  0
 22 36  1  0  0  0  0
 23 37  1  0  0  0  0
 24 25  1  0  0  0  0
 24 38  1  0  0  0  0
 24 39  1  0  0  0  0
M  END
>  <DRUGBANK_ID>
DB00448

>  <SECONDARY_ACCESSION_NUMBERS>
APRD00077

>  <COMMON_NAME>
Lansoprazole

>  <CAS_NUMBER>
103577-45-3

>  <UNII>
0K5C5T2QPG

>  <SYNONYMS>
Lansoprazol; Lansoprazole; Lansoprazolum

$$$$
