1213
 OpenBabel10282417072D

 12 12  0  0  0  0  0  0  0  0999 V2000
    2.3176   -0.7128    0.0000 N   0  0  0  0  0  0  0  0  0  0  0  0
    1.6501   -0.2278    0.0000 N   0  0  0  0  0  0  0  0  0  0  0  0
    2.7301    0.5568    0.0000 C   0  0  0  0  0  0  0  0  0  0  0  0
    2.9850   -0.2278    0.0000 C   0  0  0  0  0  0  0  0  0  0  0  0
    3.2150    1.2243    0.0000 C   0  0  0  0  0  0  0  0  0  0  0  0
    1.9050    0.5568    0.0000 C   0  0  0  0  0  0  0  0  0  0  0  0
    2.3176   -1.6973    0.0000 H   0  0  0  0  0  0  0  0  0  0  0  0
    3.9665   -0.5467    0.0000 H   0  0  0  0  0  0  0  0  0  0  0  0
    4.2791    1.1125    0.0000 H   0  0  0  0  0  0  0  0  0  0  0  0
    2.7797    2.2018    0.0000 H   0  0  0  0  0  0  0  0  0  0  0  0
    3.8439    2.0900    0.0000 H   0  0  0  0  0  0  0  0  0  0  0  0
    1.2984    1.3917    0.0000 H   0  0  0  0  0  0  0  0  0  0  0  0
  1  2  1  0  0  0  0
  1  4  1  0  0  0  0
  1  7  1  0  0  0  0
  2  6  2  0  0  0  0
  3  4  2  0  0  0  0
  3  5  1  0  0  0  0
  3  6  1  0  0  0  0
  4  8  1  0  0  0  0
  5  9  1  0  0  0  0
  5 10  1  0  0  0  0
  5 11  1  0  0  0  0
  6 12  1  0  0  0  0
M  END
>  <DRUGBANK_ID>
DB01213

>  <SECONDARY_ACCESSION_NUMBERS>
APRD00985

>  <COMMON_NAME>
Fomepizole

>  <CAS_NUMBER>
7554-65-6

>  <UNII>
83LCM6L2BY

>  <SYNONYMS>
4-methylpyrazol; 4-methylpyrazole; Fomepizol; Fomepizole; Fomepizolum

$$$$
