
 OpenBabel10282417072D

 94 97  0  0  0  0  0  0  0  0999 V2000
   -3.6461   -0.0509    0.0000 S   0  0  0  0  0  0  0  0  0  0  0  0
   -3.6461    0.7841    0.0000 O   0  0  0  0  0  0  0  0  0  0  0  0
   -3.6461   -0.8759    0.0000 O   0  0  0  0  0  0  0  0  0  0  0  0
    3.5646    0.6517    0.0000 O   0  0  0  0  0  0  0  0  0  0  0  0
    2.8110   -1.1712    0.0000 O   0  0  0  0  0  0  0  0  0  0  0  0
   -1.4869   -1.2934    0.0000 O   0  0  0  0  0  0  0  0  0  0  0  0
    0.6619    0.8249    0.0000 O   0  0  0  0  0  0  0  0  0  0  0  0
   -0.7842   -0.0509    0.0000 N   0  0  0  0  0  0  0  0  0  0  0  0
    1.3647   -0.4583    0.0000 N   0  0  0  0  0  0  0  0  0  0  0  0
    0.5702   -2.5870    0.0000 N   0  0  0  0  0  0  0  0  0  0  0  0
    1.8638   -2.1795    0.0000 N   0  0  0  0  0  0  0  0  0  0  0  0
   -4.3896   -0.4583    0.0000 C   0  0  0  0  0  0  0  0  0  0  0  0
   -2.2407   -0.0509    0.0000 C   0  0  2  0  0  0  0  0  0  0  0  0
   -2.9434   -0.4583    0.0000 C   0  0  0  0  0  0  0  0  0  0  0  0
    4.2673   -0.4583    0.0000 C   0  0  0  0  0  0  0  0  0  0  0  0
    3.5239   -0.0509    0.0000 C   0  0  1  0  0  0  0  0  0  0  0  0
    2.8110   -0.4583    0.0000 C   0  0  1  0  0  0  0  0  0  0  0  0
    2.1082   -0.0509    0.0000 C   0  0  2  0  0  0  0  0  0  0  0  0
   -1.4869   -0.4583    0.0000 C   0  0  0  0  0  0  0  0  0  0  0  0
   -0.0407   -0.4583    0.0000 C   0  0  2  0  0  0  0  0  0  0  0  0
    0.6619   -0.0509    0.0000 C   0  0  0  0  0  0  0  0  0  0  0  0
    5.0923   -0.4583    0.0000 C   0  0  0  0  0  0  0  0  0  0  0  0
    4.6748   -1.1712    0.0000 C   0  0  0  0  0  0  0  0  0  0  0  0
   -2.2407    0.8249    0.0000 C   0  0  0  0  0  0  0  0  0  0  0  0
    2.1082    1.1101    0.0000 C   0  0  0  0  0  0  0  0  0  0  0  0
   -0.0407   -1.2527    0.0000 C   0  0  0  0  0  0  0  0  0  0  0  0
   -1.4869    1.2323    0.0000 C   0  0  0  0  0  0  0  0  0  0  0  0
   -5.0923   -0.0509    0.0000 C   0  0  0  0  0  0  0  0  0  0  0  0
   -4.3896   -1.2934    0.0000 C   0  0  0  0  0  0  0  0  0  0  0  0
   -4.3896    0.3666    0.0000 C   0  0  0  0  0  0  0  0  0  0  0  0
    0.5804   -1.7517    0.0000 C   0  0  0  0  0  0  0  0  0  0  0  0
    2.6480    1.6091    0.0000 C   0  0  0  0  0  0  0  0  0  0  0  0
   -0.7842    0.8249    0.0000 C   0  0  0  0  0  0  0  0  0  0  0  0
   -1.4869    2.0675    0.0000 C   0  0  0  0  0  0  0  0  0  0  0  0
    1.3749   -1.4971    0.0000 C   0  0  0  0  0  0  0  0  0  0  0  0
    3.3507    1.1915    0.0000 C   0  0  0  0  0  0  0  0  0  0  0  0
    2.6480    2.4341    0.0000 C   0  0  0  0  0  0  0  0  0  0  0  0
    1.3647   -2.8517    0.0000 C   0  0  0  0  0  0  0  0  0  0  0  0
   -0.0407    1.2323    0.0000 C   0  0  0  0  0  0  0  0  0  0  0  0
   -0.7842    2.4748    0.0000 C   0  0  0  0  0  0  0  0  0  0  0  0
    4.0942    1.6091    0.0000 C   0  0  0  0  0  0  0  0  0  0  0  0
    3.3915    2.8517    0.0000 C   0  0  0  0  0  0  0  0  0  0  0  0
   -0.0407    2.0675    0.0000 C   0  0  0  0  0  0  0  0  0  0  0  0
    4.0942    2.4341    0.0000 C   0  0  0  0  0  0  0  0  0  0  0  0
    4.4313    1.0873    0.0000 H   0  0  0  0  0  0  0  0  0  0  0  0
    1.9710   -1.6562    0.0000 H   0  0  0  0  0  0  0  0  0  0  0  0
   -0.7961    0.9335    0.0000 H   0  0  0  0  0  0  0  0  0  0  0  0
    1.3528   -1.4427    0.0000 H   0  0  0  0  0  0  0  0  0  0  0  0
   -0.2319   -3.1578    0.0000 H   0  0  0  0  0  0  0  0  0  0  0  0
   -3.1678    0.4833    0.0000 H   0  0  0  0  0  0  0  0  0  0  0  0
   -2.9434   -1.5283    0.0000 H   0  0  0  0  0  0  0  0  0  0  0  0
   -2.0163   -0.9925    0.0000 H   0  0  0  0  0  0  0  0  0  0  0  0
    5.1928   -0.9953    0.0000 H   0  0  0  0  0  0  0  0  0  0  0  0
    4.4599    0.4675    0.0000 H   0  0  0  0  0  0  0  0  0  0  0  0
    3.7365   -0.9953    0.0000 H   0  0  0  0  0  0  0  0  0  0  0  0
    1.1876    0.4944    0.0000 H   0  0  0  0  0  0  0  0  0  0  0  0
   -0.9613   -1.0036    0.0000 H   0  0  0  0  0  0  0  0  0  0  0  0
    6.0206    0.0738    0.0000 H   0  0  0  0  0  0  0  0  0  0  0  0
    5.8454   -1.2184    0.0000 H   0  0  0  0  0  0  0  0  0  0  0  0
    4.6692   -2.2412    0.0000 H   0  0  0  0  0  0  0  0  0  0  0  0
    5.7067   -1.4540    0.0000 H   0  0  0  0  0  0  0  0  0  0  0  0
   -3.1597    1.3729    0.0000 H   0  0  0  0  0  0  0  0  0  0  0  0
   -2.2181    1.8947    0.0000 H   0  0  0  0  0  0  0  0  0  0  0  0
    1.1279    1.5389    0.0000 H   0  0  0  0  0  0  0  0  0  0  0  0
    1.9304    2.1652    0.0000 H   0  0  0  0  0  0  0  0  0  0  0  0
   -1.0056   -1.7152    0.0000 H   0  0  0  0  0  0  0  0  0  0  0  0
   -0.1634   -2.3156    0.0000 H   0  0  0  0  0  0  0  0  0  0  0  0
   -5.0904    1.0191    0.0000 H   0  0  0  0  0  0  0  0  0  0  0  0
   -6.0199   -0.5842    0.0000 H   0  0  0  0  0  0  0  0  0  0  0  0
   -6.0180    0.4858    0.0000 H   0  0  0  0  0  0  0  0  0  0  0  0
   -5.3162   -1.8284    0.0000 H   0  0  0  0  0  0  0  0  0  0  0  0
   -3.4630   -1.8284    0.0000 H   0  0  0  0  0  0  0  0  0  0  0  0
   -4.3896   -2.3634    0.0000 H   0  0  0  0  0  0  0  0  0  0  0  0
   -3.4630    0.9016    0.0000 H   0  0  0  0  0  0  0  0  0  0  0  0
   -5.3162    0.9016    0.0000 H   0  0  0  0  0  0  0  0  0  0  0  0
   -4.3896    1.4366    0.0000 H   0  0  0  0  0  0  0  0  0  0  0  0
    3.5780    2.1382    0.0000 H   0  0  0  0  0  0  0  0  0  0  0  0
   -0.7967   -0.2070    0.0000 H   0  0  0  0  0  0  0  0  0  0  0  0
   -2.3811    2.5827    0.0000 H   0  0  0  0  0  0  0  0  0  0  0  0
    1.6990   -0.5173    0.0000 H   0  0  0  0  0  0  0  0  0  0  0  0
    3.3376    0.1216    0.0000 H   0  0  0  0  0  0  0  0  0  0  0  0
    4.2708    0.6454    0.0000 H   0  0  0  0  0  0  0  0  0  0  0  0
    1.7245    2.9746    0.0000 H   0  0  0  0  0  0  0  0  0  0  0  0
    2.6575    3.5041    0.0000 H   0  0  0  0  0  0  0  0  0  0  0  0
    1.6749   -3.8360    0.0000 H   0  0  0  0  0  0  0  0  0  0  0  0
    0.8472    0.7064    0.0000 H   0  0  0  0  0  0  0  0  0  0  0  0
   -0.7967    3.5067    0.0000 H   0  0  0  0  0  0  0  0  0  0  0  0
    5.0177    1.0686    0.0000 H   0  0  0  0  0  0  0  0  0  0  0  0
    5.0224    2.1414    0.0000 H   0  0  0  0  0  0  0  0  0  0  0  0
    3.4046    3.9216    0.0000 H   0  0  0  0  0  0  0  0  0  0  0  0
    4.3247    3.3752    0.0000 H   0  0  0  0  0  0  0  0  0  0  0  0
    0.8472    2.5935    0.0000 H   0  0  0  0  0  0  0  0  0  0  0  0
    5.0242    2.9632    0.0000 H   0  0  0  0  0  0  0  0  0  0  0  0
    4.1043    3.5041    0.0000 H   0  0  0  0  0  0  0  0  0  0  0  0
  1  2  2  0  0  0  0
  1  3  2  0  0  0  0
  1 12  1  0  0  0  0
  1 14  1  0  0  0  0
  4 45  1  0  0  0  0
  5 46  1  0  0  0  0
  6 19  2  0  0  0  0
  7 21  2  0  0  0  0
  8 19  1  0  0  0  0
  8 20  1  0  0  0  0
  8 47  1  0  0  0  0
  9 18  1  0  0  0  0
  9 21  1  0  0  0  0
  9 48  1  0  0  0  0
 10 31  1  0  0  0  0
 10 38  1  0  0  0  0
 10 49  1  0  0  0  0
 11 35  1  0  0  0  0
 11 38  2  0  0  0  0
 12 28  1  0  0  0  0
 12 29  1  0  0  0  0
 12 30  1  0  0  0  0
 13 14  1  0  0  0  0
 13 19  1  0  0  0  0
 13 24  1  0  0  0  0
 13 50  1  6  0  0  0
 14 51  1  0  0  0  0
 14 52  1  0  0  0  0
 15 16  1  0  0  0  0
 15 22  1  0  0  0  0
 15 23  1  0  0  0  0
 15 53  1  0  0  0  0
 16  4  1  0  0  0  0
 16 17  1  0  0  0  0
 16 54  1  6  0  0  0
 17  5  1  0  0  0  0
 17 18  1  0  0  0  0
 17 55  1  1  0  0  0
 18 25  1  0  0  0  0
 18 56  1  6  0  0  0
 20 21  1  0  0  0  0
 20 26  1  0  0  0  0
 20 57  1  1  0  0  0
 22 23  1  0  0  0  0
 22 58  1  0  0  0  0
 22 59  1  0  0  0  0
 23 60  1  0  0  0  0
 23 61  1  0  0  0  0
 24 27  1  0  0  0  0
 24 62  1  0  0  0  0
 24 63  1  0  0  0  0
 25 32  1  0  0  0  0
 25 64  1  0  0  0  0
 25 65  1  0  0  0  0
 26 31  1  0  0  0  0
 26 66  1  0  0  0  0
 26 67  1  0  0  0  0
 27 33  2  0  0  0  0
 27 34  1  0  0  0  0
 28 68  1  0  0  0  0
 28 69  1  0  0  0  0
 28 70  1  0  0  0  0
 29 71  1  0  0  0  0
 29 72  1  0  0  0  0
 29 73  1  0  0  0  0
 30 74  1  0  0  0  0
 30 75  1  0  0  0  0
 30 76  1  0  0  0  0
 31 35  2  0  0  0  0
 32 36  1  0  0  0  0
 32 37  1  0  0  0  0
 32 77  1  0  0  0  0
 33 39  1  0  0  0  0
 33 78  1  0  0  0  0
 34 40  2  0  0  0  0
 34 79  1  0  0  0  0
 35 80  1  0  0  0  0
 36 41  1  0  0  0  0
 36 81  1  0  0  0  0
 36 82  1  0  0  0  0
 37 42  1  0  0  0  0
 37 83  1  0  0  0  0
 37 84  1  0  0  0  0
 38 85  1  0  0  0  0
 39 43  2  0  0  0  0
 39 86  1  0  0  0  0
 40 43  1  0  0  0  0
 40 87  1  0  0  0  0
 41 44  1  0  0  0  0
 41 88  1  0  0  0  0
 41 89  1  0  0  0  0
 42 44  1  0  0  0  0
 42 90  1  0  0  0  0
 42 91  1  0  0  0  0
 43 92  1  0  0  0  0
 44 93  1  0  0  0  0
 44 94  1  0  0  0  0
M  END
>  <DRUGBANK_ID>
DB00212

>  <SECONDARY_ACCESSION_NUMBERS>
APRD00163

>  <COMMON_NAME>
Remikiren

>  <CAS_NUMBER>
126222-34-2

>  <UNII>
LC7FBL96A4

>  <SYNONYMS>
Remikiren

$$$$
