
 OpenBabel10282417072D

 56 57  0  0  0  0  0  0  0  0999 V2000
    2.8840   -0.1316    0.0000 C   0  0  3  0  0  0  0  0  0  0  0  0
    3.1662    0.6436    0.0000 C   0  0  0  0  0  0  0  0  0  0  0  0
    2.1695    0.2808    0.0000 C   0  0  0  0  0  0  0  0  0  0  0  0
    2.8840   -0.9566    0.0000 C   0  0  0  0  0  0  0  0  0  0  0  0
    3.6965   -0.2748    0.0000 C   0  0  0  0  0  0  0  0  0  0  0  0
    3.9787    0.7869    0.0000 C   0  0  0  0  0  0  0  0  0  0  0  0
    2.6359    1.2756    0.0000 C   0  0  0  0  0  0  0  0  0  0  0  0
    1.4550   -0.1316    0.0000 N   0  0  0  0  0  0  0  0  0  0  0  0
    2.1695    1.1059    0.0000 O   0  0  0  0  0  0  0  0  0  0  0  0
    2.1695   -1.3691    0.0000 N   0  0  0  0  0  0  0  0  0  0  0  0
    3.5985   -1.3691    0.0000 O   0  0  0  0  0  0  0  0  0  0  0  0
    3.9787   -1.0501    0.0000 C   0  0  0  0  0  0  0  0  0  0  0  0
    4.2609    1.5621    0.0000 C   0  0  0  0  0  0  0  0  0  0  0  0
    2.9180    2.0509    0.0000 C   0  0  0  0  0  0  0  0  0  0  0  0
    0.7405    0.2808    0.0000 C   0  0  0  0  0  0  0  0  0  0  0  0
    1.4550   -0.9566    0.0000 C   0  0  0  0  0  0  0  0  0  0  0  0
    3.7305    2.1941    0.0000 C   0  0  0  0  0  0  0  0  0  0  0  0
    0.0260   -0.1316    0.0000 C   0  0  3  0  0  0  0  0  0  0  0  0
    0.7405   -1.3691    0.0000 O   0  0  0  0  0  0  0  0  0  0  0  0
   -0.6884    0.2808    0.0000 C   0  0  0  0  0  0  0  0  0  0  0  0
    0.0260   -0.9566    0.0000 O   0  0  0  0  0  0  0  0  0  0  0  0
   -1.4029   -0.1316    0.0000 O   0  0  0  0  0  0  0  0  0  0  0  0
   -0.6884   -1.3691    0.0000 C   0  0  0  0  0  0  0  0  0  0  0  0
   -2.1173    0.2808    0.0000 C   0  0  0  0  0  0  0  0  0  0  0  0
   -0.6884   -2.1941    0.0000 N   0  0  0  0  0  0  0  0  0  0  0  0
   -1.4029   -0.9566    0.0000 O   0  0  0  0  0  0  0  0  0  0  0  0
   -2.8319   -0.1316    0.0000 C   0  0  0  0  0  0  0  0  0  0  0  0
   -3.5463    0.2808    0.0000 C   0  0  0  0  0  0  0  0  0  0  0  0
   -4.2609   -0.1316    0.0000 C   0  0  0  0  0  0  0  0  0  0  0  0
    4.3842    0.5449    0.0000 H   0  0  0  0  0  0  0  0  0  0  0  0
    4.7503   -0.4606    0.0000 H   0  0  0  0  0  0  0  0  0  0  0  0
    4.6421   -0.0037    0.0000 H   0  0  0  0  0  0  0  0  0  0  0  0
    1.6196    1.0964    0.0000 H   0  0  0  0  0  0  0  0  0  0  0  0
    2.1695   -2.3536    0.0000 H   0  0  0  0  0  0  0  0  0  0  0  0
    3.2909   -1.8698    0.0000 H   0  0  0  0  0  0  0  0  0  0  0  0
    5.0324   -1.2359    0.0000 H   0  0  0  0  0  0  0  0  0  0  0  0
    4.3447   -2.0556    0.0000 H   0  0  0  0  0  0  0  0  0  0  0  0
    5.2772    1.7413    0.0000 H   0  0  0  0  0  0  0  0  0  0  0  0
    2.2546    2.8415    0.0000 H   0  0  0  0  0  0  0  0  0  0  0  0
    0.7405    1.3508    0.0000 H   0  0  0  0  0  0  0  0  0  0  0  0
   -0.1861    0.8159    0.0000 H   0  0  0  0  0  0  0  0  0  0  0  0
    4.0835    3.1639    0.0000 H   0  0  0  0  0  0  0  0  0  0  0  0
    0.0260    0.9384    0.0000 H   0  0  0  0  0  0  0  0  0  0  0  0
   -0.6884    1.3508    0.0000 H   0  0  0  0  0  0  0  0  0  0  0  0
   -1.6150    0.8159    0.0000 H   0  0  0  0  0  0  0  0  0  0  0  0
   -2.1172    1.3508    0.0000 H   0  0  0  0  0  0  0  0  0  0  0  0
   -3.0439    0.8159    0.0000 H   0  0  0  0  0  0  0  0  0  0  0  0
   -1.5410   -2.6864    0.0000 H   0  0  0  0  0  0  0  0  0  0  0  0
    0.1642   -2.6864    0.0000 H   0  0  0  0  0  0  0  0  0  0  0  0
   -2.8320   -1.2016    0.0000 H   0  0  0  0  0  0  0  0  0  0  0  0
   -3.7585   -0.6666    0.0000 H   0  0  0  0  0  0  0  0  0  0  0  0
   -3.5462    1.3508    0.0000 H   0  0  0  0  0  0  0  0  0  0  0  0
   -4.4729    0.8159    0.0000 H   0  0  0  0  0  0  0  0  0  0  0  0
   -5.1874    0.4036    0.0000 H   0  0  0  0  0  0  0  0  0  0  0  0
   -4.2611   -1.2016    0.0000 H   0  0  0  0  0  0  0  0  0  0  0  0
   -5.1876   -0.6664    0.0000 H   0  0  0  0  0  0  0  0  0  0  0  0
  1  2  1  0  0  0  0
  1  3  1  0  0  0  0
  1  4  1  0  0  0  0
  1  5  1  0  0  0  0
  2  6  1  0  0  0  0
  2  7  2  0  0  0  0
  3  8  1  0  0  0  0
  3  9  2  0  0  0  0
  4 10  1  0  0  0  0
  4 11  2  0  0  0  0
  5 12  1  0  0  0  0
  5 30  1  0  0  0  0
  5 31  1  0  0  0  0
  6 13  2  0  0  0  0
  6 32  1  0  0  0  0
  7 14  1  0  0  0  0
  7 33  1  0  0  0  0
  8 15  1  0  0  0  0
  8 16  1  0  0  0  0
 10 16  1  0  0  0  0
 10 34  1  0  0  0  0
 12 35  1  0  0  0  0
 12 36  1  0  0  0  0
 12 37  1  0  0  0  0
 13 17  1  0  0  0  0
 13 38  1  0  0  0  0
 14 17  2  0  0  0  0
 14 39  1  0  0  0  0
 15 18  1  0  0  0  0
 15 40  1  0  0  0  0
 15 41  1  0  0  0  0
 16 19  2  0  0  0  0
 17 42  1  0  0  0  0
 18 20  1  0  0  0  0
 18 21  1  0  0  0  0
 18 43  1  0  0  0  0
 20 22  1  0  0  0  0
 20 44  1  0  0  0  0
 20 45  1  0  0  0  0
 21 23  1  0  0  0  0
 22 24  1  0  0  0  0
 23 25  1  0  0  0  0
 23 26  2  0  0  0  0
 24 27  1  0  0  0  0
 24 46  1  0  0  0  0
 24 47  1  0  0  0  0
 25 48  1  0  0  0  0
 25 49  1  0  0  0  0
 27 28  1  0  0  0  0
 27 50  1  0  0  0  0
 27 51  1  0  0  0  0
 28 29  1  0  0  0  0
 28 52  1  0  0  0  0
 28 53  1  0  0  0  0
 29 54  1  0  0  0  0
 29 55  1  0  0  0  0
 29 56  1  0  0  0  0
M  END
>  <DRUGBANK_ID>
DB13303

>  <COMMON_NAME>
Febarbamate

>  <CAS_NUMBER>
13246-02-1

>  <UNII>
5Z48ONN38P

>  <SYNONYMS>
Febarbamate; Febarbamato; Febarbamatum; Phebarbamate; Phenobamate

$$$$
