
 OpenBabel10282417072D

 62 66  0  0  0  0  0  0  0  0999 V2000
   -4.2962   -2.1269    0.0000 C   0  0  0  0  0  0  0  0  0  0  0  0
   -3.8837   -1.4124    0.0000 C   0  0  0  0  0  0  0  0  0  0  0  0
   -4.2962   -0.6979    0.0000 C   0  0  0  0  0  0  0  0  0  0  0  0
   -3.0587   -1.4124    0.0000 C   0  0  0  0  0  0  0  0  0  0  0  0
   -2.6462   -2.1269    0.0000 O   0  0  0  0  0  0  0  0  0  0  0  0
   -2.6462   -0.6979    0.0000 N   0  0  0  0  0  0  0  0  0  0  0  0
   -1.8212   -0.6979    0.0000 C   0  0  0  0  0  0  0  0  0  0  0  0
   -1.4087    0.0165    0.0000 C   0  0  0  0  0  0  0  0  0  0  0  0
   -0.5837    0.0165    0.0000 C   0  0  0  0  0  0  0  0  0  0  0  0
   -0.1712   -0.6979    0.0000 C   0  0  0  0  0  0  0  0  0  0  0  0
   -0.5837   -1.4124    0.0000 C   0  0  0  0  0  0  0  0  0  0  0  0
   -1.4087   -1.4124    0.0000 C   0  0  0  0  0  0  0  0  0  0  0  0
    0.6538   -0.6979    0.0000 C   0  0  0  0  0  0  0  0  0  0  0  0
    1.1387   -0.0305    0.0000 C   0  0  0  0  0  0  0  0  0  0  0  0
    0.8838    0.7541    0.0000 C   0  0  0  0  0  0  0  0  0  0  0  0
    0.0768    0.9256    0.0000 C   0  0  0  0  0  0  0  0  0  0  0  0
   -0.1781    1.7103    0.0000 C   0  0  0  0  0  0  0  0  0  0  0  0
    0.3739    2.3234    0.0000 C   0  0  0  0  0  0  0  0  0  0  0  0
    0.1190    3.1080    0.0000 O   0  0  0  0  0  0  0  0  0  0  0  0
    0.6710    3.7211    0.0000 C   0  0  0  0  0  0  0  0  0  0  0  0
    0.4161    4.5057    0.0000 N   0  0  0  0  0  0  0  0  0  0  0  0
    0.9681    5.1188    0.0000 C   0  0  0  0  0  0  0  0  0  0  0  0
    1.7751    4.9473    0.0000 C   0  0  0  0  0  0  0  0  0  0  0  0
    2.0300    4.1626    0.0000 C   0  0  0  0  0  0  0  0  0  0  0  0
    2.8370    3.9911    0.0000 C   0  0  0  0  0  0  0  0  0  0  0  0
    1.4780    3.5496    0.0000 N   0  0  0  0  0  0  0  0  0  0  0  0
    1.1809    2.1518    0.0000 C   0  0  0  0  0  0  0  0  0  0  0  0
    1.7329    2.7649    0.0000 F   0  0  0  0  0  0  0  0  0  0  0  0
    1.4358    1.3672    0.0000 C   0  0  0  0  0  0  0  0  0  0  0  0
    1.9233   -0.2854    0.0000 C   0  0  0  0  0  0  0  0  0  0  0  0
    2.6378    0.1271    0.0000 C   0  0  0  0  0  0  0  0  0  0  0  0
    2.6378    0.9521    0.0000 N   0  0  0  0  0  0  0  0  0  0  0  0
    3.3523   -0.2854    0.0000 N   0  0  0  0  0  0  0  0  0  0  0  0
    3.3523   -1.1104    0.0000 C   0  0  0  0  0  0  0  0  0  0  0  0
    2.6378   -1.5229    0.0000 N   0  0  0  0  0  0  0  0  0  0  0  0
    1.9233   -1.1104    0.0000 C   0  0  0  0  0  0  0  0  0  0  0  0
    1.1387   -1.3654    0.0000 N   0  0  0  0  0  0  0  0  0  0  0  0
    0.8838   -2.1500    0.0000 C   0  0  0  0  0  0  0  0  0  0  0  0
   -5.3662   -2.1269    0.0000 H   0  0  0  0  0  0  0  0  0  0  0  0
   -3.7612   -3.0535    0.0000 H   0  0  0  0  0  0  0  0  0  0  0  0
   -4.8312   -3.0536    0.0000 H   0  0  0  0  0  0  0  0  0  0  0  0
   -3.7802    0.1958    0.0000 H   0  0  0  0  0  0  0  0  0  0  0  0
   -5.3282   -0.6979    0.0000 H   0  0  0  0  0  0  0  0  0  0  0  0
   -3.1385    0.1547    0.0000 H   0  0  0  0  0  0  0  0  0  0  0  0
   -1.9247    0.9102    0.0000 H   0  0  0  0  0  0  0  0  0  0  0  0
   -0.0677    0.9102    0.0000 H   0  0  0  0  0  0  0  0  0  0  0  0
   -0.0677   -2.3061    0.0000 H   0  0  0  0  0  0  0  0  0  0  0  0
   -1.9247   -2.3061    0.0000 H   0  0  0  0  0  0  0  0  0  0  0  0
   -0.6138    0.1587    0.0000 H   0  0  0  0  0  0  0  0  0  0  0  0
   -1.1875    1.9249    0.0000 H   0  0  0  0  0  0  0  0  0  0  0  0
    0.6492    6.1003    0.0000 H   0  0  0  0  0  0  0  0  0  0  0  0
    2.4657    5.7142    0.0000 H   0  0  0  0  0  0  0  0  0  0  0  0
    3.1677    2.9735    0.0000 H   0  0  0  0  0  0  0  0  0  0  0  0
    3.5529    4.7863    0.0000 H   0  0  0  0  0  0  0  0  0  0  0  0
    3.8836    3.7687    0.0000 H   0  0  0  0  0  0  0  0  0  0  0  0
    2.4452    1.1526    0.0000 H   0  0  0  0  0  0  0  0  0  0  0  0
    3.4904    1.4444    0.0000 H   0  0  0  0  0  0  0  0  0  0  0  0
    1.7852    1.4444    0.0000 H   0  0  0  0  0  0  0  0  0  0  0  0
    4.2460   -1.6264    0.0000 H   0  0  0  0  0  0  0  0  0  0  0  0
   -0.1628   -2.3725    0.0000 H   0  0  0  0  0  0  0  0  0  0  0  0
    1.5998   -2.9451    0.0000 H   0  0  0  0  0  0  0  0  0  0  0  0
    0.5532   -3.1676    0.0000 H   0  0  0  0  0  0  0  0  0  0  0  0
  1  2  1  0  0  0  0
  1 39  1  0  0  0  0
  1 40  1  0  0  0  0
  1 41  1  0  0  0  0
  2  3  2  0  0  0  0
  2  4  1  0  0  0  0
  3 42  1  0  0  0  0
  3 43  1  0  0  0  0
  4  5  2  0  0  0  0
  4  6  1  0  0  0  0
  6  7  1  0  0  0  0
  6 44  1  0  0  0  0
  7  8  2  0  0  0  0
  7 12  1  0  0  0  0
  8  9  1  0  0  0  0
  8 45  1  0  0  0  0
  9 10  2  0  0  0  0
  9 46  1  0  0  0  0
 10 11  1  0  0  0  0
 10 13  1  0  0  0  0
 11 12  2  0  0  0  0
 11 47  1  0  0  0  0
 12 48  1  0  0  0  0
 13 14  2  0  0  0  0
 13 37  1  0  0  0  0
 14 15  1  0  0  0  0
 14 30  1  0  0  0  0
 15 16  2  0  0  0  0
 15 29  1  0  0  0  0
 16 17  1  0  0  0  0
 16 49  1  0  0  0  0
 17 18  2  0  0  0  0
 17 50  1  0  0  0  0
 18 19  1  0  0  0  0
 18 27  1  0  0  0  0
 19 20  1  0  0  0  0
 20 21  2  0  0  0  0
 20 26  1  0  0  0  0
 21 22  1  0  0  0  0
 22 23  2  0  0  0  0
 22 51  1  0  0  0  0
 23 24  1  0  0  0  0
 23 52  1  0  0  0  0
 24 25  1  0  0  0  0
 24 26  2  0  0  0  0
 25 53  1  0  0  0  0
 25 54  1  0  0  0  0
 25 55  1  0  0  0  0
 27 28  1  0  0  0  0
 27 29  2  0  0  0  0
 29 56  1  0  0  0  0
 30 31  2  0  0  0  0
 30 36  1  0  0  0  0
 31 32  1  0  0  0  0
 31 33  1  0  0  0  0
 32 57  1  0  0  0  0
 32 58  1  0  0  0  0
 33 34  2  0  0  0  0
 34 35  1  0  0  0  0
 34 59  1  0  0  0  0
 35 36  2  0  0  0  0
 36 37  1  0  0  0  0
 37 38  1  0  0  0  0
 38 60  1  0  0  0  0
 38 61  1  0  0  0  0
 38 62  1  0  0  0  0
M  END
>  <DRUGBANK_ID>
DB18300

>  <COMMON_NAME>
Lirafugratinib

>  <CAS_NUMBER>
2549174-42-5

>  <UNII>
7HY6IMH87S

>  <SYNONYMS>
2-Propenamide, N-[4-[4-amino-5-[3-fluoro-4-[(4-methyl-2-pyrimidinyl)oxy]phenyl]-7-methyl-7H-pyrrolo[2,3-d]pyrimidin-6-yl]phenyl]-2-methyl-; N-(4-(4-amino-5-(3-fluoro-4-((4-methylpyrimidin-2-yl)oxy)phenyl)-7-methyl-7H-pyrrolo[2,3-d]pyrimidin-6-yl)phenyl)methacrylamide; N-[4-(4-amino-5-{3-fluoro-4-[(4-methylpyrimidin-2- yl)oxy]phenyl}-7-methyl-7H-pyrrolo[2,3-d]pyrimidin-6- yl)phenyl]-2-methylprop-2-enamide

$$$$
