
 OpenBabel10282417072D

 13  9  0  0  0  0  0  0  0  0999 V2000
    0.0000    0.0000    0.0000 O   0  0  0  0  0  0  0  0  0  0  0  0
    2.3571    0.0000    0.0000 O   0  0  0  0  0  0  0  0  0  0  0  0
    1.1000   -2.4750    0.0000 O   0  0  0  0  0  0  0  0  0  0  0  0
    0.2750   -2.4750    0.0000 P   0  0  0  0  0  0  0  0  0  0  0  0
    0.2750   -1.6500    0.0000 O   0  0  0  0  0  0  0  0  0  0  0  0
   -0.5500   -2.4750    0.0000 O   0  5  0  0  0  0  0  0  0  0  0  0
    0.2750   -3.3000    0.0000 O   0  5  0  0  0  0  0  0  0  0  0  0
   -1.3750   -2.4750    0.0000 Ca  0  2  0  0  0  0  0  0  0  0  0  0
    0.9700    0.0000    0.0000 H   0  0  0  0  0  0  0  0  0  0  0  0
   -0.4850    0.8400    0.0000 H   0  0  0  0  0  0  0  0  0  0  0  0
    3.3271    0.0000    0.0000 H   0  0  0  0  0  0  0  0  0  0  0  0
    1.8721    0.8400    0.0000 H   0  0  0  0  0  0  0  0  0  0  0  0
    1.5850   -3.3150    0.0000 H   0  0  0  0  0  0  0  0  0  0  0  0
  1  9  1  0  0  0  0
  1 10  1  0  0  0  0
  2 11  1  0  0  0  0
  2 12  1  0  0  0  0
  3  4  1  0  0  0  0
  3 13  1  0  0  0  0
  4  5  2  0  0  0  0
  4  6  1  0  0  0  0
  4  7  1  0  0  0  0
M  CHG  3   6  -1   7  -1   8   2
M  END
>  <DRUGBANK_ID>
DB14481

>  <SECONDARY_ACCESSION_NUMBERS>
DBSALT001593

>  <COMMON_NAME>
Calcium phosphate dihydrate

>  <CAS_NUMBER>
7789-77-7

>  <UNII>
O7TSZ97GEP

>  <SYNONYMS>
Calcium monohydrogen phosphate dihydrate; Calcium phosphate dibasic, hydrous; Calcium phosphate dihydrate, dibasic; Calcium phosphate, dibasic, dihydrate; Calcium phosphate, dibasic, hydrous; D.C.P.; Dibasic calcium phosphate dihydrate; Dibasic calcium phosphate hydrate; Dicalcium phosphate dihydrate

$$$$
