
 OpenBabel10282417072D

 38 38  0  0  0  0  0  0  0  0999 V2000
    0.7146    0.4167    0.0000 C   0  0  0  0  0  0  0  0  0  0  0  0
   -0.7188    0.4167    0.0000 C   0  0  0  0  0  0  0  0  0  0  0  0
   -0.0062    0.8292    0.0000 C   0  0  0  0  0  0  0  0  0  0  0  0
   -0.7188   -0.4167    0.0000 C   0  0  0  0  0  0  0  0  0  0  0  0
    0.7146   -0.4083    0.0000 C   0  0  0  0  0  0  0  0  0  0  0  0
   -0.0062   -0.8209    0.0000 C   0  0  0  0  0  0  0  0  0  0  0  0
    1.4272    0.8334    0.0000 C   0  0  0  0  0  0  0  0  0  0  0  0
   -1.4314   -0.8334    0.0000 S   0  0  0  0  0  0  0  0  0  0  0  0
   -0.0062    1.6460    0.0000 O   0  0  0  0  0  0  0  0  0  0  0  0
    0.0020   -1.6460    0.0000 O   0  0  0  0  0  0  0  0  0  0  0  0
    2.8566    0.8417    0.0000 N   0  0  0  0  0  0  0  0  0  0  0  0
    2.1439    0.4292    0.0000 C   0  0  3  0  0  0  0  0  0  0  0  0
   -2.1439   -0.4209    0.0000 C   0  0  0  0  0  0  0  0  0  0  0  0
    0.7188   -2.0586    0.0000 C   0  0  0  0  0  0  0  0  0  0  0  0
   -0.7188    2.0586    0.0000 C   0  0  0  0  0  0  0  0  0  0  0  0
    2.1439   -0.3958    0.0000 C   0  0  0  0  0  0  0  0  0  0  0  0
   -2.8566   -0.8334    0.0000 C   0  0  0  0  0  0  0  0  0  0  0  0
   -1.6128    0.9322    0.0000 H   0  0  0  0  0  0  0  0  0  0  0  0
    1.6074   -0.9260    0.0000 H   0  0  0  0  0  0  0  0  0  0  0  0
    1.4188    1.9034    0.0000 H   0  0  0  0  0  0  0  0  0  0  0  0
    2.3490    1.3767    0.0000 H   0  0  0  0  0  0  0  0  0  0  0  0
    3.7405    0.3327    0.0000 H   0  0  0  0  0  0  0  0  0  0  0  0
    2.8555    1.8617    0.0000 H   0  0  0  0  0  0  0  0  0  0  0  0
    2.1379    1.4992    0.0000 H   0  0  0  0  0  0  0  0  0  0  0  0
   -2.1438    0.6491    0.0000 H   0  0  0  0  0  0  0  0  0  0  0  0
   -3.0708    0.1136    0.0000 H   0  0  0  0  0  0  0  0  0  0  0  0
    0.7202   -3.1286    0.0000 H   0  0  0  0  0  0  0  0  0  0  0  0
    1.6447   -1.5224    0.0000 H   0  0  0  0  0  0  0  0  0  0  0  0
    1.6461   -2.5924    0.0000 H   0  0  0  0  0  0  0  0  0  0  0  0
   -0.7175    3.1286    0.0000 H   0  0  0  0  0  0  0  0  0  0  0  0
   -1.6461    1.5248    0.0000 H   0  0  0  0  0  0  0  0  0  0  0  0
   -1.6448    2.5947    0.0000 H   0  0  0  0  0  0  0  0  0  0  0  0
    1.2173   -0.9308    0.0000 H   0  0  0  0  0  0  0  0  0  0  0  0
    3.0705   -0.9308    0.0000 H   0  0  0  0  0  0  0  0  0  0  0  0
    2.1439   -1.4658    0.0000 H   0  0  0  0  0  0  0  0  0  0  0  0
   -3.7838   -0.2994    0.0000 H   0  0  0  0  0  0  0  0  0  0  0  0
   -2.8554   -1.9034    0.0000 H   0  0  0  0  0  0  0  0  0  0  0  0
   -3.7827   -1.3694    0.0000 H   0  0  0  0  0  0  0  0  0  0  0  0
  2  3  1  0  0  0  0
  2  4  2  0  0  0  0
  2 18  1  0  0  0  0
  3  1  2  0  0  0  0
  4  6  1  0  0  0  0
  5  1  1  0  0  0  0
  5 19  1  0  0  0  0
  6  5  2  0  0  0  0
  7  1  1  0  0  0  0
  7 20  1  0  0  0  0
  7 21  1  0  0  0  0
  8  4  1  0  0  0  0
  9  3  1  0  0  0  0
 10  6  1  0  0  0  0
 11 12  1  0  0  0  0
 11 22  1  0  0  0  0
 11 23  1  0  0  0  0
 12  7  1  0  0  0  0
 12 24  1  0  0  0  0
 13  8  1  0  0  0  0
 13 25  1  0  0  0  0
 13 26  1  0  0  0  0
 14 10  1  0  0  0  0
 14 27  1  0  0  0  0
 14 28  1  0  0  0  0
 14 29  1  0  0  0  0
 15  9  1  0  0  0  0
 15 30  1  0  0  0  0
 15 31  1  0  0  0  0
 15 32  1  0  0  0  0
 16 12  1  0  0  0  0
 16 33  1  0  0  0  0
 16 34  1  0  0  0  0
 16 35  1  0  0  0  0
 17 13  1  0  0  0  0
 17 36  1  0  0  0  0
 17 37  1  0  0  0  0
 17 38  1  0  0  0  0
M  END
>  <DRUGBANK_ID>
DB13940

>  <COMMON_NAME>
2,5-Dimethoxy-4-ethylthioamphetamine

>  <CAS_NUMBER>
185562-00-9

>  <UNII>
Z1I419DRZZ

>  <SYNONYMS>
2,5-Dimethoxy-4-ethylthioamphetamine; 4-(Ethylthio)-2,5-dimethoxy-alpha-methylbenzeneethanamine; ALEPH-2

$$$$
