
 OpenBabel10282417072D

 20 19  0  0  0  0  0  0  0  0999 V2000
    0.4920    1.8560    0.0000 O   0  0  0  0  0  0  0  0  0  0  0  0
   -1.6491   -1.8560    0.0000 O   0  0  0  0  0  0  0  0  0  0  0  0
   -0.2217   -1.8560    0.0000 O   0  0  0  0  0  0  0  0  0  0  0  0
   -0.9354    1.0325    0.0000 N   0  0  0  0  0  0  0  0  0  0  0  0
    1.2099    0.6187    0.0000 N   0  0  0  0  0  0  0  0  0  0  0  0
   -0.2217   -0.2048    0.0000 C   0  0  0  0  0  0  0  0  0  0  0  0
   -0.2217    0.6187    0.0000 C   0  0  1  0  0  0  0  0  0  0  0  0
   -0.9354   -0.6187    0.0000 C   0  0  0  0  0  0  0  0  0  0  0  0
    0.4920    1.0325    0.0000 C   0  0  0  0  0  0  0  0  0  0  0  0
   -0.9354   -1.4422    0.0000 C   0  0  0  0  0  0  0  0  0  0  0  0
   -2.4614   -1.3890    0.0000 H   0  0  0  0  0  0  0  0  0  0  0  0
   -0.9335    2.0525    0.0000 H   0  0  0  0  0  0  0  0  0  0  0  0
   -1.8197    0.5241    0.0000 H   0  0  0  0  0  0  0  0  0  0  0  0
    1.2106   -0.3658    0.0000 H   0  0  0  0  0  0  0  0  0  0  0  0
    2.0622    1.1116    0.0000 H   0  0  0  0  0  0  0  0  0  0  0  0
    0.7055   -0.7389    0.0000 H   0  0  0  0  0  0  0  0  0  0  0  0
   -0.2201   -1.2748    0.0000 H   0  0  0  0  0  0  0  0  0  0  0  0
   -1.1488    0.0845    0.0000 H   0  0  0  0  0  0  0  0  0  0  0  0
   -1.8626   -0.0846    0.0000 H   0  0  0  0  0  0  0  0  0  0  0  0
   -1.8618   -1.1541    0.0000 H   0  0  0  0  0  0  0  0  0  0  0  0
  1  9  2  0  0  0  0
  2 10  1  0  0  0  0
  2 11  1  0  0  0  0
  3 10  2  0  0  0  0
  4 12  1  0  0  0  0
  4 13  1  0  0  0  0
  5  9  1  0  0  0  0
  5 14  1  0  0  0  0
  5 15  1  0  0  0  0
  6  7  1  0  0  0  0
  6  8  1  0  0  0  0
  6 16  1  0  0  0  0
  6 17  1  0  0  0  0
  7  4  1  0  0  0  0
  7  9  1  0  0  0  0
  7 18  1  1  0  0  0
  8 10  1  0  0  0  0
  8 19  1  0  0  0  0
  8 20  1  0  0  0  0
M  END
>  <DRUGBANK_ID>
DB03091

>  <SECONDARY_ACCESSION_NUMBERS>
EXPT01619

>  <COMMON_NAME>
Isoglutamine

>  <CAS_NUMBER>
636-65-7

>  <UNII>
WL74QNU57B

>  <SYNONYMS>
Glutamic acid alpha-amide; L-alpha-Glutamine; L-Glutamic acid alpha-amide; L-Isoglutamine

$$$$
