4BS
 OpenBabel10282417072D

 41 42  0  0  0  0  0  0  0  0999 V2000
   -5.0606    0.5522    0.0000 N   0  0  0  0  0  0  0  0  0  0  0  0
   -4.3461    0.9647    0.0000 C   0  0  0  0  0  0  0  0  0  0  0  0
   -3.6316    0.5522    0.0000 C   0  0  0  0  0  0  0  0  0  0  0  0
   -2.9171    0.9647    0.0000 C   0  0  0  0  0  0  0  0  0  0  0  0
   -2.2027    0.5522    0.0000 C   0  0  0  0  0  0  0  0  0  0  0  0
   -2.2027   -0.2728    0.0000 O   0  0  0  0  0  0  0  0  0  0  0  0
   -1.4882    0.9647    0.0000 N   0  0  0  0  0  0  0  0  0  0  0  0
   -0.7737    0.5522    0.0000 C   0  0  0  0  0  0  0  0  0  0  0  0
   -0.0593    0.9647    0.0000 C   0  0  0  0  0  0  0  0  0  0  0  0
    0.6552    0.5522    0.0000 C   0  0  0  0  0  0  0  0  0  0  0  0
    0.6552   -0.2728    0.0000 C   0  0  0  0  0  0  0  0  0  0  0  0
   -0.0593   -0.6853    0.0000 C   0  0  0  0  0  0  0  0  0  0  0  0
   -0.7737   -0.2728    0.0000 C   0  0  0  0  0  0  0  0  0  0  0  0
    1.3697   -0.6853    0.0000 O   0  0  0  0  0  0  0  0  0  0  0  0
    2.0842   -0.2728    0.0000 C   0  0  0  0  0  0  0  0  0  0  0  0
    2.7986   -0.6853    0.0000 C   0  0  0  0  0  0  0  0  0  0  0  0
    3.5131   -0.2728    0.0000 C   0  0  0  0  0  0  0  0  0  0  0  0
    4.2276   -0.6853    0.0000 C   0  0  0  0  0  0  0  0  0  0  0  0
    4.2276   -1.5103    0.0000 C   0  0  0  0  0  0  0  0  0  0  0  0
    3.5131   -1.9228    0.0000 C   0  0  0  0  0  0  0  0  0  0  0  0
    2.7986   -1.5103    0.0000 C   0  0  0  0  0  0  0  0  0  0  0  0
   -5.9439    1.0622    0.0000 H   0  0  0  0  0  0  0  0  0  0  0  0
   -5.0606   -0.4678    0.0000 H   0  0  0  0  0  0  0  0  0  0  0  0
   -4.3461    2.0347    0.0000 H   0  0  0  0  0  0  0  0  0  0  0  0
   -3.4195    1.4997    0.0000 H   0  0  0  0  0  0  0  0  0  0  0  0
   -3.6316   -0.5178    0.0000 H   0  0  0  0  0  0  0  0  0  0  0  0
   -2.7050    0.0172    0.0000 H   0  0  0  0  0  0  0  0  0  0  0  0
   -2.9171    2.0347    0.0000 H   0  0  0  0  0  0  0  0  0  0  0  0
   -1.9904    1.4997    0.0000 H   0  0  0  0  0  0  0  0  0  0  0  0
   -1.4882    1.9492    0.0000 H   0  0  0  0  0  0  0  0  0  0  0  0
   -0.0593    1.9967    0.0000 H   0  0  0  0  0  0  0  0  0  0  0  0
    1.5489    1.0682    0.0000 H   0  0  0  0  0  0  0  0  0  0  0  0
   -0.0593   -1.7173    0.0000 H   0  0  0  0  0  0  0  0  0  0  0  0
   -1.6674   -0.7888    0.0000 H   0  0  0  0  0  0  0  0  0  0  0  0
    2.0842    0.7972    0.0000 H   0  0  0  0  0  0  0  0  0  0  0  0
    3.0109    0.2622    0.0000 H   0  0  0  0  0  0  0  0  0  0  0  0
    3.5131    0.7592    0.0000 H   0  0  0  0  0  0  0  0  0  0  0  0
    5.1213   -0.1693    0.0000 H   0  0  0  0  0  0  0  0  0  0  0  0
    5.1213   -2.0263    0.0000 H   0  0  0  0  0  0  0  0  0  0  0  0
    3.5131   -2.9548    0.0000 H   0  0  0  0  0  0  0  0  0  0  0  0
    1.9049   -2.0263    0.0000 H   0  0  0  0  0  0  0  0  0  0  0  0
  1  2  1  0  0  0  0
  1 22  1  0  0  0  0
  1 23  1  0  0  0  0
  2  3  1  0  0  0  0
  2 24  1  0  0  0  0
  2 25  1  0  0  0  0
  3  4  1  0  0  0  0
  3 26  1  0  0  0  0
  3 27  1  0  0  0  0
  4  5  1  0  0  0  0
  4 28  1  0  0  0  0
  4 29  1  0  0  0  0
  5  6  2  0  0  0  0
  5  7  1  0  0  0  0
  7  8  1  0  0  0  0
  7 30  1  0  0  0  0
  8  9  2  0  0  0  0
  8 13  1  0  0  0  0
  9 10  1  0  0  0  0
  9 31  1  0  0  0  0
 10 11  2  0  0  0  0
 10 32  1  0  0  0  0
 11 12  1  0  0  0  0
 11 14  1  0  0  0  0
 12 13  2  0  0  0  0
 12 33  1  0  0  0  0
 13 34  1  0  0  0  0
 14 15  1  0  0  0  0
 15 16  1  0  0  0  0
 15 35  1  0  0  0  0
 15 36  1  0  0  0  0
 16 17  2  0  0  0  0
 16 21  1  0  0  0  0
 17 18  1  0  0  0  0
 17 37  1  0  0  0  0
 18 19  2  0  0  0  0
 18 38  1  0  0  0  0
 19 20  1  0  0  0  0
 19 39  1  0  0  0  0
 20 21  2  0  0  0  0
 20 40  1  0  0  0  0
 21 41  1  0  0  0  0
M  END
>  <DRUGBANK_ID>
DB07104

>  <COMMON_NAME>
4-amino-N-[4-(benzyloxy)phenyl]butanamide

>  <UNII>
2SXE223PVW

$$$$
