
 OpenBabel10282417072D

461464  0  0  0  0  0  0  0  0999 V2000
    0.8495    5.8882    0.0000 C   0  0  0  0  0  0  0  0  0  0  0  0
    1.6697    5.8882    0.0000 C   0  0  1  0  0  0  0  0  0  0  0  0
    0.4394    6.6205    0.0000 O   0  0  0  0  0  0  0  0  0  0  0  0
    0.4394    5.1851    0.0000 N   0  0  0  0  0  0  0  0  0  0  0  0
    2.1092    5.1851    0.0000 N   0  0  0  0  0  0  0  0  0  0  0  0
    2.1092    6.6205    0.0000 C   0  0  0  0  0  0  0  0  0  0  0  0
    1.6697    7.3236    0.0000 C   0  0  0  0  0  0  0  0  0  0  0  0
    2.1092    8.0559    0.0000 C   0  0  0  0  0  0  0  0  0  0  0  0
    1.6697    8.7591    0.0000 N   0  0  0  0  0  0  0  0  0  0  0  0
    2.9294    8.0559    0.0000 O   0  0  0  0  0  0  0  0  0  0  0  0
    2.9294    5.1851    0.0000 C   0  0  0  0  0  0  0  0  0  0  0  0
    3.3396    4.4527    0.0000 C   0  0  2  0  0  0  0  0  0  0  0  0
    3.3396    5.8882    0.0000 O   0  0  0  0  0  0  0  0  0  0  0  0
    4.1598    4.4527    0.0000 C   0  0  0  0  0  0  0  0  0  0  0  0
    2.9294    3.7497    0.0000 N   0  0  0  0  0  0  0  0  0  0  0  0
    4.5699    5.1851    0.0000 C   0  0  0  0  0  0  0  0  0  0  0  0
    4.1598    5.8882    0.0000 C   0  0  0  0  0  0  0  0  0  0  0  0
    3.3396    3.0173    0.0000 C   0  0  0  0  0  0  0  0  0  0  0  0
    2.9294    2.3142    0.0000 C   0  0  2  0  0  0  0  0  0  0  0  0
    4.1598    3.0173    0.0000 O   0  0  0  0  0  0  0  0  0  0  0  0
    3.3396    1.5818    0.0000 C   0  0  0  0  0  0  0  0  0  0  0  0
    2.1092    2.3142    0.0000 N   0  0  0  0  0  0  0  0  0  0  0  0
    1.6697    1.5818    0.0000 C   0  0  0  0  0  0  0  0  0  0  0  0
    2.1092    0.8788    0.0000 C   0  0  2  0  0  0  0  0  0  0  0  0
    0.8495    1.5818    0.0000 O   0  0  0  0  0  0  0  0  0  0  0  0
    1.6697    0.1465    0.0000 C   0  0  0  0  0  0  0  0  0  0  0  0
    2.9294    0.8788    0.0000 N   0  0  0  0  0  0  0  0  0  0  0  0
    0.8495    0.1465    0.0000 C   0  0  0  0  0  0  0  0  0  0  0  0
    0.4394   -0.5566    0.0000 C   0  0  0  0  0  0  0  0  0  0  0  0
    0.4394    0.8788    0.0000 C   0  0  0  0  0  0  0  0  0  0  0  0
    3.5153    0.2929    0.0000 C   0  0  0  0  0  0  0  0  0  0  0  0
    3.5153   -0.5272    0.0000 C   0  0  2  0  0  0  0  0  0  0  0  0
    4.2769    0.6151    0.0000 O   0  0  0  0  0  0  0  0  0  0  0  0
    2.7830   -0.9374    0.0000 C   0  0  0  0  0  0  0  0  0  0  0  0
    4.2184   -0.9374    0.0000 N   0  0  0  0  0  0  0  0  0  0  0  0
    2.5779   -1.7576    0.0000 C   0  0  0  0  0  0  0  0  0  0  0  0
    1.7869   -1.9627    0.0000 C   0  0  0  0  0  0  0  0  0  0  0  0
    1.0546   -1.5526    0.0000 N   0  0  0  0  0  0  0  0  0  0  0  0
    0.2636   -1.7576    0.0000 C   0  0  0  0  0  0  0  0  0  0  0  0
   -0.3222   -1.1717    0.0000 N   0  0  0  0  0  0  0  0  0  0  0  0
    0.0586   -2.5779    0.0000 N   0  0  0  0  0  0  0  0  0  0  0  0
    4.0133   -1.7576    0.0000 C   0  0  0  0  0  0  0  0  0  0  0  0
    4.5992   -2.3435    0.0000 C   0  0  2  0  0  0  0  0  0  0  0  0
    3.2223   -1.9627    0.0000 O   0  0  0  0  0  0  0  0  0  0  0  0
    4.3941   -3.1344    0.0000 C   0  0  1  0  0  0  0  0  0  0  0  0
    5.3902   -2.1092    0.0000 N   0  0  0  0  0  0  0  0  0  0  0  0
    3.5739   -3.3396    0.0000 C   0  0  0  0  0  0  0  0  0  0  0  0
    4.9800   -3.7203    0.0000 O   0  0  0  0  0  0  0  0  0  0  0  0
    5.6245   -1.3182    0.0000 C   0  0  0  0  0  0  0  0  0  0  0  0
    6.4154   -1.1132    0.0000 C   0  0  1  0  0  0  0  0  0  0  0  0
    5.0386   -0.7324    0.0000 O   0  0  0  0  0  0  0  0  0  0  0  0
    6.6205   -0.3222    0.0000 N   0  0  0  0  0  0  0  0  0  0  0  0
    7.0013   -1.6991    0.0000 C   0  0  0  0  0  0  0  0  0  0  0  0
    7.8216   -1.6991    0.0000 C   0  0  0  0  0  0  0  0  0  0  0  0
    8.2317   -2.4021    0.0000 C   0  0  0  0  0  0  0  0  0  0  0  0
    9.0813   -2.4021    0.0000 C   0  0  0  0  0  0  0  0  0  0  0  0
    9.4914   -1.6991    0.0000 C   0  0  0  0  0  0  0  0  0  0  0  0
    9.0813   -0.9667    0.0000 C   0  0  0  0  0  0  0  0  0  0  0  0
    8.2317   -0.9667    0.0000 C   0  0  0  0  0  0  0  0  0  0  0  0
   10.3117   -1.6991    0.0000 O   0  0  0  0  0  0  0  0  0  0  0  0
    6.0346    0.2636    0.0000 C   0  0  0  0  0  0  0  0  0  0  0  0
    6.2397    1.0838    0.0000 C   0  0  2  0  0  0  0  0  0  0  0  0
    5.2437    0.0586    0.0000 O   0  0  0  0  0  0  0  0  0  0  0  0
    5.6831    1.6697    0.0000 C   0  0  0  0  0  0  0  0  0  0  0  0
    7.0599    1.2889    0.0000 N   0  0  0  0  0  0  0  0  0  0  0  0
    5.8882    2.4607    0.0000 C   0  0  0  0  0  0  0  0  0  0  0  0
    5.3023    3.0466    0.0000 O   0  0  0  0  0  0  0  0  0  0  0  0
    6.6791    2.6658    0.0000 N   0  0  0  0  0  0  0  0  0  0  0  0
    7.6458    0.7030    0.0000 C   0  0  0  0  0  0  0  0  0  0  0  0
    8.4368    0.9080    0.0000 C   0  0  2  0  0  0  0  0  0  0  0  0
    7.4115   -0.0878    0.0000 O   0  0  0  0  0  0  0  0  0  0  0  0
    9.0227    0.3222    0.0000 C   0  0  0  0  0  0  0  0  0  0  0  0
    8.6418    1.7283    0.0000 N   0  0  0  0  0  0  0  0  0  0  0  0
    9.8136    0.5566    0.0000 C   0  0  0  0  0  0  0  0  0  0  0  0
   10.3996   -0.0292    0.0000 O   0  0  0  0  0  0  0  0  0  0  0  0
   10.0480    1.3475    0.0000 O   0  0  0  0  0  0  0  0  0  0  0  0
    8.0559    2.3142    0.0000 C   0  0  0  0  0  0  0  0  0  0  0  0
    8.2903    3.1052    0.0000 C   0  0  1  0  0  0  0  0  0  0  0  0
    7.2650    2.0799    0.0000 O   0  0  0  0  0  0  0  0  0  0  0  0
    7.7045    3.6911    0.0000 N   0  0  0  0  0  0  0  0  0  0  0  0
    9.0813    3.3102    0.0000 C   0  0  1  0  0  0  0  0  0  0  0  0
    9.2863    4.1305    0.0000 C   0  0  0  0  0  0  0  0  0  0  0  0
    9.6672    2.7243    0.0000 O   0  0  0  0  0  0  0  0  0  0  0  0
    7.9095    4.4820    0.0000 C   0  0  0  0  0  0  0  0  0  0  0  0
    7.3236    5.0679    0.0000 C   0  0  1  0  0  0  0  0  0  0  0  0
    8.7004    4.7164    0.0000 O   0  0  0  0  0  0  0  0  0  0  0  0
    7.5287    5.8882    0.0000 N   0  0  0  0  0  0  0  0  0  0  0  0
    6.5327    4.8628    0.0000 C   0  0  0  0  0  0  0  0  0  0  0  0
    5.9467    5.4487    0.0000 C   0  0  0  0  0  0  0  0  0  0  0  0
    6.1519    6.2397    0.0000 C   0  0  0  0  0  0  0  0  0  0  0  0
    5.5660    6.8256    0.0000 C   0  0  0  0  0  0  0  0  0  0  0  0
    4.7749    6.6205    0.0000 C   0  0  0  0  0  0  0  0  0  0  0  0
    4.5406    5.8295    0.0000 C   0  0  0  0  0  0  0  0  0  0  0  0
    5.1265    5.2437    0.0000 C   0  0  0  0  0  0  0  0  0  0  0  0
    4.3941    6.7084    0.0000 C   0  0  0  0  0  0  0  0  0  0  0  0
    3.9547    7.4115    0.0000 N   0  0  0  0  0  0  0  0  0  0  0  0
    8.3489    6.0932    0.0000 C   0  0  0  0  0  0  0  0  0  0  0  0
    8.5539    6.8842    0.0000 C   0  0  1  0  0  0  0  0  0  0  0  0
    8.9348    5.5073    0.0000 O   0  0  0  0  0  0  0  0  0  0  0  0
    9.3450    7.1186    0.0000 N   0  0  0  0  0  0  0  0  0  0  0  0
    7.9680    7.4700    0.0000 C   0  0  0  0  0  0  0  0  0  0  0  0
    8.1732    8.2610    0.0000 C   0  0  0  0  0  0  0  0  0  0  0  0
    7.1771    7.2650    0.0000 C   0  0  0  0  0  0  0  0  0  0  0  0
    9.5793    7.9095    0.0000 C   0  0  0  0  0  0  0  0  0  0  0  0
   10.3702    8.1146    0.0000 C   0  0  2  0  0  0  0  0  0  0  0  0
    8.9934    8.4954    0.0000 O   0  0  0  0  0  0  0  0  0  0  0  0
   10.5753    8.9055    0.0000 C   0  0  0  0  0  0  0  0  0  0  0  0
   10.9561    7.5287    0.0000 N   0  0  0  0  0  0  0  0  0  0  0  0
   11.7470    7.7337    0.0000 C   0  0  0  0  0  0  0  0  0  0  0  0
   12.3330    7.1478    0.0000 C   0  0  2  0  0  0  0  0  0  0  0  0
   11.9814    8.5539    0.0000 O   0  0  0  0  0  0  0  0  0  0  0  0
   13.1532    7.3822    0.0000 C   0  0  0  0  0  0  0  0  0  0  0  0
   12.1279    6.3569    0.0000 N   0  0  0  0  0  0  0  0  0  0  0  0
   13.3583    8.1732    0.0000 C   0  0  0  0  0  0  0  0  0  0  0  0
   14.1492    8.3782    0.0000 O   0  0  0  0  0  0  0  0  0  0  0  0
   12.7724    8.7591    0.0000 O   0  0  0  0  0  0  0  0  0  0  0  0
   12.7138    5.7710    0.0000 C   0  0  0  0  0  0  0  0  0  0  0  0
   12.5087    4.9800    0.0000 C   0  0  2  0  0  0  0  0  0  0  0  0
   13.5048    6.0053    0.0000 O   0  0  0  0  0  0  0  0  0  0  0  0
   13.0946    4.3941    0.0000 C   0  0  0  0  0  0  0  0  0  0  0  0
   11.6885    4.7749    0.0000 N   0  0  0  0  0  0  0  0  0  0  0  0
   11.4835    3.9547    0.0000 C   0  0  0  0  0  0  0  0  0  0  0  0
   10.6925    3.7497    0.0000 O   0  0  0  0  0  0  0  0  0  0  0  0
   12.0693    3.3688    0.0000 C   0  0  1  0  0  0  0  0  0  0  0  0
   11.8643    2.5779    0.0000 N   0  0  0  0  0  0  0  0  0  0  0  0
   12.8603    3.6032    0.0000 C   0  0  0  0  0  0  0  0  0  0  0  0
   13.4462    3.0173    0.0000 C   0  0  0  0  0  0  0  0  0  0  0  0
   13.3290    2.1971    0.0000 N   0  0  0  0  0  0  0  0  0  0  0  0
   14.0613    1.8162    0.0000 C   0  0  0  0  0  0  0  0  0  0  0  0
   14.6472    2.4021    0.0000 N   0  0  0  0  0  0  0  0  0  0  0  0
   14.2665    3.1344    0.0000 C   0  0  0  0  0  0  0  0  0  0  0  0
   13.8856    4.5992    0.0000 O   0  0  0  0  0  0  0  0  0  0  0  0
   -0.3808    5.1851    0.0000 C   0  0  2  0  0  0  0  0  0  0  0  0
   -0.7909    4.4527    0.0000 C   0  0  0  0  0  0  0  0  0  0  0  0
   -0.7909    5.8882    0.0000 C   0  0  0  0  0  0  0  0  0  0  0  0
   -0.3808    6.6205    0.0000 C   0  0  0  0  0  0  0  0  0  0  0  0
   -0.7909    7.3236    0.0000 S   0  0  0  0  0  0  0  0  0  0  0  0
   -1.6405    7.3236    0.0000 C   0  0  0  0  0  0  0  0  0  0  0  0
   -1.6405    4.4527    0.0000 N   0  0  0  0  0  0  0  0  0  0  0  0
   -0.3808    3.7497    0.0000 O   0  0  0  0  0  0  0  0  0  0  0  0
   -2.0506    5.1851    0.0000 C   0  0  2  0  0  0  0  0  0  0  0  0
   -2.8709    5.1851    0.0000 C   0  0  0  0  0  0  0  0  0  0  0  0
   -1.6405    5.8882    0.0000 C   0  0  0  0  0  0  0  0  0  0  0  0
   -3.2810    5.8882    0.0000 O   0  0  0  0  0  0  0  0  0  0  0  0
   -3.2810    4.4527    0.0000 N   0  0  0  0  0  0  0  0  0  0  0  0
   -4.1012    4.4527    0.0000 C   0  0  2  0  0  0  0  0  0  0  0  0
   -4.5406    3.7497    0.0000 C   0  0  0  0  0  0  0  0  0  0  0  0
   -4.5406    5.1851    0.0000 C   0  0  0  0  0  0  0  0  0  0  0  0
   -5.3608    5.1851    0.0000 C   0  0  0  0  0  0  0  0  0  0  0  0
   -4.1012    5.8882    0.0000 C   0  0  0  0  0  0  0  0  0  0  0  0
   -5.3608    3.7497    0.0000 O   0  0  0  0  0  0  0  0  0  0  0  0
   -4.1012    3.0173    0.0000 N   0  0  0  0  0  0  0  0  0  0  0  0
   -4.5406    2.3142    0.0000 C   0  0  2  0  0  0  0  0  0  0  0  0
   -4.1012    1.5818    0.0000 C   0  0  0  0  0  0  0  0  0  0  0  0
   -5.3608    2.3142    0.0000 C   0  0  0  0  0  0  0  0  0  0  0  0
   -5.7710    3.0173    0.0000 C   0  0  0  0  0  0  0  0  0  0  0  0
   -6.5912    3.0173    0.0000 C   0  0  0  0  0  0  0  0  0  0  0  0
   -7.0013    3.7497    0.0000 C   0  0  0  0  0  0  0  0  0  0  0  0
   -7.8509    3.7497    0.0000 N   0  0  0  0  0  0  0  0  0  0  0  0
   -4.5406    0.8788    0.0000 N   0  0  0  0  0  0  0  0  0  0  0  0
   -3.2810    1.5818    0.0000 O   0  0  0  0  0  0  0  0  0  0  0  0
   -5.3608    0.8788    0.0000 C   0  0  2  0  0  0  0  0  0  0  0  0
   -5.7710    0.1465    0.0000 C   0  0  0  0  0  0  0  0  0  0  0  0
   -5.7710    1.5818    0.0000 C   0  0  0  0  0  0  0  0  0  0  0  0
   -6.5912    0.1465    0.0000 O   0  0  0  0  0  0  0  0  0  0  0  0
   -5.3608   -0.5566    0.0000 N   0  0  0  0  0  0  0  0  0  0  0  0
   -6.5912    1.5818    0.0000 C   0  0  0  0  0  0  0  0  0  0  0  0
   -7.0013    0.8788    0.0000 C   0  0  0  0  0  0  0  0  0  0  0  0
   -7.8509    0.8788    0.0000 C   0  0  0  0  0  0  0  0  0  0  0  0
   -8.2610    0.1465    0.0000 N   0  0  0  0  0  0  0  0  0  0  0  0
   -5.7710   -1.2889    0.0000 C   0  0  2  0  0  0  0  0  0  0  0  0
   -6.5912   -1.2889    0.0000 C   0  0  0  0  0  0  0  0  0  0  0  0
   -7.0013   -1.9920    0.0000 N   0  0  0  0  0  0  0  0  0  0  0  0
   -7.0013   -0.5566    0.0000 O   0  0  0  0  0  0  0  0  0  0  0  0
   -7.8509   -1.9920    0.0000 C   0  0  1  0  0  0  0  0  0  0  0  0
   -8.2610   -1.2889    0.0000 C   0  0  0  0  0  0  0  0  0  0  0  0
   -9.0813   -1.2889    0.0000 C   0  0  0  0  0  0  0  0  0  0  0  0
   -9.4914   -0.5566    0.0000 C   0  0  0  0  0  0  0  0  0  0  0  0
   -9.4914   -1.9920    0.0000 C   0  0  0  0  0  0  0  0  0  0  0  0
   -5.3608   -1.9920    0.0000 C   0  0  0  0  0  0  0  0  0  0  0  0
   -5.7710   -2.7243    0.0000 C   0  0  0  0  0  0  0  0  0  0  0  0
   -6.5912   -2.7243    0.0000 C   0  0  0  0  0  0  0  0  0  0  0  0
   -7.0013   -3.4274    0.0000 C   0  0  0  0  0  0  0  0  0  0  0  0
   -6.5912   -4.1305    0.0000 C   0  0  0  0  0  0  0  0  0  0  0  0
   -5.7710   -4.1305    0.0000 C   0  0  0  0  0  0  0  0  0  0  0  0
   -5.3608   -3.4274    0.0000 C   0  0  0  0  0  0  0  0  0  0  0  0
   -7.0013   -4.8628    0.0000 O   0  0  0  0  0  0  0  0  0  0  0  0
   -8.2610   -2.7243    0.0000 C   0  0  0  0  0  0  0  0  0  0  0  0
   -9.7258   -2.7536    0.0000 N   0  0  0  0  0  0  0  0  0  0  0  0
   -7.8509   -3.4274    0.0000 O   0  0  0  0  0  0  0  0  0  0  0  0
  -10.3117   -2.1677    0.0000 C   0  0  2  0  0  0  0  0  0  0  0  0
  -11.1319   -2.3729    0.0000 C   0  0  0  0  0  0  0  0  0  0  0  0
  -10.1066   -1.3475    0.0000 C   0  0  0  0  0  0  0  0  0  0  0  0
  -10.6925   -0.7616    0.0000 C   0  0  0  0  0  0  0  0  0  0  0  0
  -11.5127   -0.7616    0.0000 N   0  0  0  0  0  0  0  0  0  0  0  0
  -10.3702    0.0000    0.0000 O   0  0  0  0  0  0  0  0  0  0  0  0
  -11.7178   -1.7869    0.0000 O   0  0  0  0  0  0  0  0  0  0  0  0
  -11.3369   -3.1638    0.0000 N   0  0  0  0  0  0  0  0  0  0  0  0
  -12.1572   -3.1638    0.0000 C   0  0  2  0  0  0  0  0  0  0  0  0
  -12.5673   -3.8961    0.0000 C   0  0  0  0  0  0  0  0  0  0  0  0
  -12.5673   -2.4607    0.0000 C   0  0  0  0  0  0  0  0  0  0  0  0
  -12.3623   -1.6405    0.0000 O   0  0  0  0  0  0  0  0  0  0  0  0
  -13.4169   -3.8961    0.0000 O   0  0  0  0  0  0  0  0  0  0  0  0
  -12.1572   -4.5992    0.0000 N   0  0  0  0  0  0  0  0  0  0  0  0
  -12.5673   -5.3316    0.0000 C   0  0  2  0  0  0  0  0  0  0  0  0
  -12.1572   -6.0346    0.0000 C   0  0  0  0  0  0  0  0  0  0  0  0
  -13.4169   -5.3316    0.0000 C   0  0  2  0  0  0  0  0  0  0  0  0
  -13.8270   -6.0346    0.0000 C   0  0  0  0  0  0  0  0  0  0  0  0
  -13.8270   -4.5992    0.0000 C   0  0  0  0  0  0  0  0  0  0  0  0
  -14.6472   -6.0346    0.0000 C   0  0  0  0  0  0  0  0  0  0  0  0
  -12.5673   -6.7670    0.0000 O   0  0  0  0  0  0  0  0  0  0  0  0
  -11.3369   -6.0346    0.0000 N   0  0  0  0  0  0  0  0  0  0  0  0
  -10.9268   -6.7670    0.0000 C   0  0  2  0  0  0  0  0  0  0  0  0
  -10.1066   -6.7670    0.0000 C   0  0  0  0  0  0  0  0  0  0  0  0
  -11.3369   -7.4700    0.0000 C   0  0  0  0  0  0  0  0  0  0  0  0
  -10.9268   -8.2025    0.0000 C   0  0  0  0  0  0  0  0  0  0  0  0
  -11.3369   -8.9055    0.0000 C   0  0  0  0  0  0  0  0  0  0  0  0
  -10.1066   -8.2025    0.0000 C   0  0  0  0  0  0  0  0  0  0  0  0
   -9.6672   -7.4700    0.0000 O   0  0  0  0  0  0  0  0  0  0  0  0
   -9.6672   -6.0346    0.0000 N   0  0  0  0  0  0  0  0  0  0  0  0
   -8.8469   -6.0346    0.0000 C   0  0  2  0  0  0  0  0  0  0  0  0
   -8.4368   -5.3316    0.0000 C   0  0  0  0  0  0  0  0  0  0  0  0
   -8.4368   -6.7670    0.0000 C   0  0  0  0  0  0  0  0  0  0  0  0
   -7.6166   -5.3316    0.0000 O   0  0  0  0  0  0  0  0  0  0  0  0
   -8.8469   -4.5992    0.0000 O   0  0  0  0  0  0  0  0  0  0  0  0
   -7.6166   -6.7670    0.0000 C   0  0  0  0  0  0  0  0  0  0  0  0
   -7.2065   -7.4700    0.0000 N   0  0  0  0  0  0  0  0  0  0  0  0
   -7.2065   -6.0346    0.0000 O   0  0  0  0  0  0  0  0  0  0  0  0
    2.9880   -2.7536    0.0000 C   0  0  0  0  0  0  0  0  0  0  0  0
    1.1510    4.9523    0.0000 H   0  0  0  0  0  0  0  0  0  0  0  0
    0.9298    4.3314    0.0000 H   0  0  0  0  0  0  0  0  0  0  0  0
    1.6320    4.3240    0.0000 H   0  0  0  0  0  0  0  0  0  0  0  0
    3.1792    6.6302    0.0000 H   0  0  0  0  0  0  0  0  0  0  0  0
    2.6236    7.5587    0.0000 H   0  0  0  0  0  0  0  0  0  0  0  0
    0.5997    7.3139    0.0000 H   0  0  0  0  0  0  0  0  0  0  0  0
    1.1384    8.2523    0.0000 H   0  0  0  0  0  0  0  0  0  0  0  0
    2.1318    9.6284    0.0000 H   0  0  0  0  0  0  0  0  0  0  0  0
    0.6858    8.7246    0.0000 H   0  0  0  0  0  0  0  0  0  0  0  0
    2.2696    4.4621    0.0000 H   0  0  0  0  0  0  0  0  0  0  0  0
    4.7009    3.5296    0.0000 H   0  0  0  0  0  0  0  0  0  0  0  0
    5.2297    4.4633    0.0000 H   0  0  0  0  0  0  0  0  0  0  0  0
    1.9449    3.7584    0.0000 H   0  0  0  0  0  0  0  0  0  0  0  0
    5.6399    5.1945    0.0000 H   0  0  0  0  0  0  0  0  0  0  0  0
    5.0988    6.1153    0.0000 H   0  0  0  0  0  0  0  0  0  0  0  0
    3.0981    5.7549    0.0000 H   0  0  0  0  0  0  0  0  0  0  0  0
    3.4634    6.7005    0.0000 H   0  0  0  0  0  0  0  0  0  0  0  0
    2.3965    3.2421    0.0000 H   0  0  0  0  0  0  0  0  0  0  0  0
    2.7926    0.6622    0.0000 H   0  0  0  0  0  0  0  0  0  0  0  0
    4.4095    1.5678    0.0000 H   0  0  0  0  0  0  0  0  0  0  0  0
    3.8625    0.6482    0.0000 H   0  0  0  0  0  0  0  0  0  0  0  0
    1.6242    3.1709    0.0000 H   0  0  0  0  0  0  0  0  0  0  0  0
    2.6278    1.8147    0.0000 H   0  0  0  0  0  0  0  0  0  0  0  0
    2.1968   -0.7846    0.0000 H   0  0  0  0  0  0  0  0  0  0  0  0
    1.1308   -0.7779    0.0000 H   0  0  0  0  0  0  0  0  0  0  0  0
    3.3062    1.7884    0.0000 H   0  0  0  0  0  0  0  0  0  0  0  0
   -0.2205    0.1559    0.0000 H   0  0  0  0  0  0  0  0  0  0  0  0
   -0.6306   -0.5519    0.0000 H   0  0  0  0  0  0  0  0  0  0  0  0
    0.9703   -1.4856    0.0000 H   0  0  0  0  0  0  0  0  0  0  0  0
   -0.0997   -1.4809    0.0000 H   0  0  0  0  0  0  0  0  0  0  0  0
    0.9865    1.7984    0.0000 H   0  0  0  0  0  0  0  0  0  0  0  0
   -0.6305    0.8928    0.0000 H   0  0  0  0  0  0  0  0  0  0  0  0
   -0.0834    1.8124    0.0000 H   0  0  0  0  0  0  0  0  0  0  0  0
    4.4432    0.0057    0.0000 H   0  0  0  0  0  0  0  0  0  0  0  0
    1.9329   -0.2876    0.0000 H   0  0  0  0  0  0  0  0  0  0  0  0
    1.7730   -1.2908    0.0000 H   0  0  0  0  0  0  0  0  0  0  0  0
    5.1256   -0.5551    0.0000 H   0  0  0  0  0  0  0  0  0  0  0  0
    3.3378   -2.5109    0.0000 H   0  0  0  0  0  0  0  0  0  0  0  0
    2.2990   -2.7906    0.0000 H   0  0  0  0  0  0  0  0  0  0  0  0
    1.6499   -3.0239    0.0000 H   0  0  0  0  0  0  0  0  0  0  0  0
    0.8310   -2.4434    0.0000 H   0  0  0  0  0  0  0  0  0  0  0  0
    1.1807   -0.5762    0.0000 H   0  0  0  0  0  0  0  0  0  0  0  0
   -0.0673   -0.2208    0.0000 H   0  0  0  0  0  0  0  0  0  0  0  0
   -0.8879   -2.8487    0.0000 H   0  0  0  0  0  0  0  0  0  0  0  0
    0.7664   -3.2622    0.0000 H   0  0  0  0  0  0  0  0  0  0  0  0
    4.8626   -1.3064    0.0000 H   0  0  0  0  0  0  0  0  0  0  0  0
    5.4265   -2.8533    0.0000 H   0  0  0  0  0  0  0  0  0  0  0  0
    6.0863   -2.8053    0.0000 H   0  0  0  0  0  0  0  0  0  0  0  0
    3.2883   -4.3708    0.0000 H   0  0  0  0  0  0  0  0  0  0  0  0
    2.5392   -3.6122    0.0000 H   0  0  0  0  0  0  0  0  0  0  0  0
    4.7289   -4.6572    0.0000 H   0  0  0  0  0  0  0  0  0  0  0  0
    5.6588   -0.3566    0.0000 H   0  0  0  0  0  0  0  0  0  0  0  0
    7.5704   -0.0635    0.0000 H   0  0  0  0  0  0  0  0  0  0  0  0
    6.5918   -2.6877    0.0000 H   0  0  0  0  0  0  0  0  0  0  0  0
    7.5958   -2.5888    0.0000 H   0  0  0  0  0  0  0  0  0  0  0  0
    7.7177   -3.2970    0.0000 H   0  0  0  0  0  0  0  0  0  0  0  0
    9.5953   -3.2970    0.0000 H   0  0  0  0  0  0  0  0  0  0  0  0
    9.6032   -0.0764    0.0000 H   0  0  0  0  0  0  0  0  0  0  0  0
    7.7098   -0.0764    0.0000 H   0  0  0  0  0  0  0  0  0  0  0  0
   10.7802   -2.5106    0.0000 H   0  0  0  0  0  0  0  0  0  0  0  0
    6.9963    0.3272    0.0000 H   0  0  0  0  0  0  0  0  0  0  0  0
    4.6472    1.4018    0.0000 H   0  0  0  0  0  0  0  0  0  0  0  0
    4.9268    2.4266    0.0000 H   0  0  0  0  0  0  0  0  0  0  0  0
    7.3227    2.2377    0.0000 H   0  0  0  0  0  0  0  0  0  0  0  0
    7.3696    1.9641    0.0000 H   0  0  0  0  0  0  0  0  0  0  0  0
    6.9416    3.6147    0.0000 H   0  0  0  0  0  0  0  0  0  0  0  0
    7.6769    1.6613    0.0000 H   0  0  0  0  0  0  0  0  0  0  0  0
    8.7594   -0.7149    0.0000 H   0  0  0  0  0  0  0  0  0  0  0  0
    9.7941   -0.4193    0.0000 H   0  0  0  0  0  0  0  0  0  0  0  0
    9.5906    1.9911    0.0000 H   0  0  0  0  0  0  0  0  0  0  0  0
   10.1572   -0.9343    0.0000 H   0  0  0  0  0  0  0  0  0  0  0  0
    7.2532    2.8419    0.0000 H   0  0  0  0  0  0  0  0  0  0  0  0
    6.7546    3.4324    0.0000 H   0  0  0  0  0  0  0  0  0  0  0  0
    8.8001    2.2778    0.0000 H   0  0  0  0  0  0  0  0  0  0  0  0
   10.3150    4.4249    0.0000 H   0  0  0  0  0  0  0  0  0  0  0  0
    8.5170    4.8742    0.0000 H   0  0  0  0  0  0  0  0  0  0  0  0
    9.5457    5.1686    0.0000 H   0  0  0  0  0  0  0  0  0  0  0  0
    9.4161    1.7874    0.0000 H   0  0  0  0  0  0  0  0  0  0  0  0
    8.3548    5.3535    0.0000 H   0  0  0  0  0  0  0  0  0  0  0  0
    6.8326    6.5844    0.0000 H   0  0  0  0  0  0  0  0  0  0  0  0
    6.2516    3.8304    0.0000 H   0  0  0  0  0  0  0  0  0  0  0  0
    5.4986    4.5879    0.0000 H   0  0  0  0  0  0  0  0  0  0  0  0
    7.1477    6.5108    0.0000 H   0  0  0  0  0  0  0  0  0  0  0  0
    5.8371    7.8213    0.0000 H   0  0  0  0  0  0  0  0  0  0  0  0
    4.0578    7.3626    0.0000 H   0  0  0  0  0  0  0  0  0  0  0  0
    3.5404    5.5754    0.0000 H   0  0  0  0  0  0  0  0  0  0  0  0
    4.8510    4.2491    0.0000 H   0  0  0  0  0  0  0  0  0  0  0  0
    5.4536    6.8579    0.0000 H   0  0  0  0  0  0  0  0  0  0  0  0
    4.8460    7.6783    0.0000 H   0  0  0  0  0  0  0  0  0  0  0  0
    4.4335    8.3121    0.0000 H   0  0  0  0  0  0  0  0  0  0  0  0
    2.9353    7.3758    0.0000 H   0  0  0  0  0  0  0  0  0  0  0  0
    9.3234    6.1407    0.0000 H   0  0  0  0  0  0  0  0  0  0  0  0
   10.0412    6.4225    0.0000 H   0  0  0  0  0  0  0  0  0  0  0  0
    7.2115    8.2267    0.0000 H   0  0  0  0  0  0  0  0  0  0  0  0
    9.2045    8.5462    0.0000 H   0  0  0  0  0  0  0  0  0  0  0  0
    7.4106    9.0115    0.0000 H   0  0  0  0  0  0  0  0  0  0  0  0
    8.4419    9.2967    0.0000 H   0  0  0  0  0  0  0  0  0  0  0  0
    6.4267    8.0278    0.0000 H   0  0  0  0  0  0  0  0  0  0  0  0
    6.8917    6.2338    0.0000 H   0  0  0  0  0  0  0  0  0  0  0  0
    6.1413    6.9965    0.0000 H   0  0  0  0  0  0  0  0  0  0  0  0
    9.6136    8.8712    0.0000 H   0  0  0  0  0  0  0  0  0  0  0  0
   11.6066    9.1908    0.0000 H   0  0  0  0  0  0  0  0  0  0  0  0
    9.8126    9.6560    0.0000 H   0  0  0  0  0  0  0  0  0  0  0  0
   10.8439    9.9412    0.0000 H   0  0  0  0  0  0  0  0  0  0  0  0
   10.6974    6.5788    0.0000 H   0  0  0  0  0  0  0  0  0  0  0  0
   11.3006    6.8667    0.0000 H   0  0  0  0  0  0  0  0  0  0  0  0
   13.9191    6.6350    0.0000 H   0  0  0  0  0  0  0  0  0  0  0  0
   14.1839    7.6697    0.0000 H   0  0  0  0  0  0  0  0  0  0  0  0
   11.1780    6.0983    0.0000 H   0  0  0  0  0  0  0  0  0  0  0  0
   13.0149    9.6642    0.0000 H   0  0  0  0  0  0  0  0  0  0  0  0
   11.7554    5.7399    0.0000 H   0  0  0  0  0  0  0  0  0  0  0  0
   12.8135    3.3617    0.0000 H   0  0  0  0  0  0  0  0  0  0  0  0
   13.8466    3.6329    0.0000 H   0  0  0  0  0  0  0  0  0  0  0  0
   10.9923    5.4710    0.0000 H   0  0  0  0  0  0  0  0  0  0  0  0
   11.0369    3.0877    0.0000 H   0  0  0  0  0  0  0  0  0  0  0  0
   10.8812    2.3059    0.0000 H   0  0  0  0  0  0  0  0  0  0  0  0
   12.5914    1.8626    0.0000 H   0  0  0  0  0  0  0  0  0  0  0  0
   13.1236    4.6403    0.0000 H   0  0  0  0  0  0  0  0  0  0  0  0
   13.8920    3.8869    0.0000 H   0  0  0  0  0  0  0  0  0  0  0  0
   12.4533    1.7472    0.0000 H   0  0  0  0  0  0  0  0  0  0  0  0
   14.2185    0.7962    0.0000 H   0  0  0  0  0  0  0  0  0  0  0  0
   14.7383    4.0522    0.0000 H   0  0  0  0  0  0  0  0  0  0  0  0
   14.5659    3.9078    0.0000 H   0  0  0  0  0  0  0  0  0  0  0  0
    0.1603    4.2620    0.0000 H   0  0  0  0  0  0  0  0  0  0  0  0
   -1.8609    5.8788    0.0000 H   0  0  0  0  0  0  0  0  0  0  0  0
   -1.3360    6.8089    0.0000 H   0  0  0  0  0  0  0  0  0  0  0  0
    0.6892    6.6299    0.0000 H   0  0  0  0  0  0  0  0  0  0  0  0
    0.1481    7.5507    0.0000 H   0  0  0  0  0  0  0  0  0  0  0  0
   -2.1755    8.2502    0.0000 H   0  0  0  0  0  0  0  0  0  0  0  0
   -2.1755    6.3970    0.0000 H   0  0  0  0  0  0  0  0  0  0  0  0
   -2.7105    7.3236    0.0000 H   0  0  0  0  0  0  0  0  0  0  0  0
   -2.1383    3.6034    0.0000 H   0  0  0  0  0  0  0  0  0  0  0  0
   -0.9806    5.1757    0.0000 H   0  0  0  0  0  0  0  0  0  0  0  0
   -0.5705    5.8835    0.0000 H   0  0  0  0  0  0  0  0  0  0  0  0
   -2.1714    6.8172    0.0000 H   0  0  0  0  0  0  0  0  0  0  0  0
   -1.1014    6.8125    0.0000 H   0  0  0  0  0  0  0  0  0  0  0  0
   -2.7832    3.6034    0.0000 H   0  0  0  0  0  0  0  0  0  0  0  0
   -3.5825    3.5168    0.0000 H   0  0  0  0  0  0  0  0  0  0  0  0
   -5.0593    6.1210    0.0000 H   0  0  0  0  0  0  0  0  0  0  0  0
   -5.8958    6.1117    0.0000 H   0  0  0  0  0  0  0  0  0  0  0  0
   -5.8958    4.2585    0.0000 H   0  0  0  0  0  0  0  0  0  0  0  0
   -6.4308    5.1851    0.0000 H   0  0  0  0  0  0  0  0  0  0  0  0
   -3.0319    5.8508    0.0000 H   0  0  0  0  0  0  0  0  0  0  0  0
   -4.6035    6.8330    0.0000 H   0  0  0  0  0  0  0  0  0  0  0  0
   -3.5341    6.7956    0.0000 H   0  0  0  0  0  0  0  0  0  0  0  0
   -3.1167    3.0084    0.0000 H   0  0  0  0  0  0  0  0  0  0  0  0
   -3.4706    2.3045    0.0000 H   0  0  0  0  0  0  0  0  0  0  0  0
   -5.8937    1.3863    0.0000 H   0  0  0  0  0  0  0  0  0  0  0  0
   -6.4308    2.3106    0.0000 H   0  0  0  0  0  0  0  0  0  0  0  0
   -5.2381    3.9452    0.0000 H   0  0  0  0  0  0  0  0  0  0  0  0
   -6.3071    3.9433    0.0000 H   0  0  0  0  0  0  0  0  0  0  0  0
   -7.1323    2.0942    0.0000 H   0  0  0  0  0  0  0  0  0  0  0  0
   -7.6611    3.0279    0.0000 H   0  0  0  0  0  0  0  0  0  0  0  0
   -6.4602    4.6728    0.0000 H   0  0  0  0  0  0  0  0  0  0  0  0
   -7.5332    4.6781    0.0000 H   0  0  0  0  0  0  0  0  0  0  0  0
   -8.3609    4.6330    0.0000 H   0  0  0  0  0  0  0  0  0  0  0  0
   -8.3609    2.8664    0.0000 H   0  0  0  0  0  0  0  0  0  0  0  0
   -4.0634    0.0177    0.0000 H   0  0  0  0  0  0  0  0  0  0  0  0
   -4.8198   -0.0444    0.0000 H   0  0  0  0  0  0  0  0  0  0  0  0
   -5.2381    2.5097    0.0000 H   0  0  0  0  0  0  0  0  0  0  0  0
   -6.3071    2.5078    0.0000 H   0  0  0  0  0  0  0  0  0  0  0  0
   -4.3763   -0.5480    0.0000 H   0  0  0  0  0  0  0  0  0  0  0  0
   -7.1241    2.5096    0.0000 H   0  0  0  0  0  0  0  0  0  0  0  0
   -7.6612    1.5854    0.0000 H   0  0  0  0  0  0  0  0  0  0  0  0
   -6.4684   -0.0490    0.0000 H   0  0  0  0  0  0  0  0  0  0  0  0
   -7.5373   -0.0472    0.0000 H   0  0  0  0  0  0  0  0  0  0  0  0
   -8.3920    1.8019    0.0000 H   0  0  0  0  0  0  0  0  0  0  0  0
   -8.9208    0.8683    0.0000 H   0  0  0  0  0  0  0  0  0  0  0  0
   -9.2809    0.1331    0.0000 H   0  0  0  0  0  0  0  0  0  0  0  0
   -7.7395   -0.7301    0.0000 H   0  0  0  0  0  0  0  0  0  0  0  0
   -6.3120   -0.3657    0.0000 H   0  0  0  0  0  0  0  0  0  0  0  0
   -6.5109   -2.8457    0.0000 H   0  0  0  0  0  0  0  0  0  0  0  0
   -7.3180   -1.0642    0.0000 H   0  0  0  0  0  0  0  0  0  0  0  0
   -7.7281   -0.3611    0.0000 H   0  0  0  0  0  0  0  0  0  0  0  0
   -8.7970   -0.3628    0.0000 H   0  0  0  0  0  0  0  0  0  0  0  0
  -10.1513   -1.2795    0.0000 H   0  0  0  0  0  0  0  0  0  0  0  0
   -8.9443    0.3630    0.0000 H   0  0  0  0  0  0  0  0  0  0  0  0
  -10.5613   -0.5426    0.0000 H   0  0  0  0  0  0  0  0  0  0  0  0
  -10.0142    0.3770    0.0000 H   0  0  0  0  0  0  0  0  0  0  0  0
  -10.5614   -1.9873    0.0000 H   0  0  0  0  0  0  0  0  0  0  0  0
   -8.9605   -2.9210    0.0000 H   0  0  0  0  0  0  0  0  0  0  0  0
  -10.0305   -2.9163    0.0000 H   0  0  0  0  0  0  0  0  0  0  0  0
   -4.2908   -1.9826    0.0000 H   0  0  0  0  0  0  0  0  0  0  0  0
   -4.8158   -2.9128    0.0000 H   0  0  0  0  0  0  0  0  0  0  0  0
   -7.1052   -1.8294    0.0000 H   0  0  0  0  0  0  0  0  0  0  0  0
   -8.0333   -3.4274    0.0000 H   0  0  0  0  0  0  0  0  0  0  0  0
   -5.2570   -5.0254    0.0000 H   0  0  0  0  0  0  0  0  0  0  0  0
   -4.3288   -3.4274    0.0000 H   0  0  0  0  0  0  0  0  0  0  0  0
   -7.9382   -4.8751    0.0000 H   0  0  0  0  0  0  0  0  0  0  0  0
  -10.0934   -3.6669    0.0000 H   0  0  0  0  0  0  0  0  0  0  0  0
  -10.5972   -3.1989    0.0000 H   0  0  0  0  0  0  0  0  0  0  0  0
   -9.0754   -1.0619    0.0000 H   0  0  0  0  0  0  0  0  0  0  0  0
   -9.8340   -0.3128    0.0000 H   0  0  0  0  0  0  0  0  0  0  0  0
  -12.0050    0.0910    0.0000 H   0  0  0  0  0  0  0  0  0  0  0  0
  -12.0050   -1.6142    0.0000 H   0  0  0  0  0  0  0  0  0  0  0  0
  -10.7344   -3.9424    0.0000 H   0  0  0  0  0  0  0  0  0  0  0  0
  -11.6161   -4.0869    0.0000 H   0  0  0  0  0  0  0  0  0  0  0  0
  -13.6266   -2.6117    0.0000 H   0  0  0  0  0  0  0  0  0  0  0  0
  -13.2838   -1.6660    0.0000 H   0  0  0  0  0  0  0  0  0  0  0  0
  -11.4297   -1.3737    0.0000 H   0  0  0  0  0  0  0  0  0  0  0  0
  -11.1727   -4.5905    0.0000 H   0  0  0  0  0  0  0  0  0  0  0  0
  -11.4973   -5.3222    0.0000 H   0  0  0  0  0  0  0  0  0  0  0  0
  -12.8758   -4.4085    0.0000 H   0  0  0  0  0  0  0  0  0  0  0  0
  -13.2941   -6.9624    0.0000 H   0  0  0  0  0  0  0  0  0  0  0  0
  -14.3630   -6.9606    0.0000 H   0  0  0  0  0  0  0  0  0  0  0  0
  -13.2799   -3.6797    0.0000 H   0  0  0  0  0  0  0  0  0  0  0  0
  -14.8969   -4.5851    0.0000 H   0  0  0  0  0  0  0  0  0  0  0  0
  -14.3498   -3.6656    0.0000 H   0  0  0  0  0  0  0  0  0  0  0  0
  -15.1822   -5.1080    0.0000 H   0  0  0  0  0  0  0  0  0  0  0  0
  -15.1822   -6.9612    0.0000 H   0  0  0  0  0  0  0  0  0  0  0  0
  -15.7172   -6.0346    0.0000 H   0  0  0  0  0  0  0  0  0  0  0  0
  -10.8391   -5.1853    0.0000 H   0  0  0  0  0  0  0  0  0  0  0  0
  -10.3857   -5.8439    0.0000 H   0  0  0  0  0  0  0  0  0  0  0  0
  -12.4069   -7.4605    0.0000 H   0  0  0  0  0  0  0  0  0  0  0  0
  -11.8821   -8.3907    0.0000 H   0  0  0  0  0  0  0  0  0  0  0  0
  -10.3939   -9.1303    0.0000 H   0  0  0  0  0  0  0  0  0  0  0  0
  -12.4069   -8.9007    0.0000 H   0  0  0  0  0  0  0  0  0  0  0  0
  -10.8061   -9.8345    0.0000 H   0  0  0  0  0  0  0  0  0  0  0  0
  -11.8761   -9.8297    0.0000 H   0  0  0  0  0  0  0  0  0  0  0  0
   -9.5716   -9.1291    0.0000 H   0  0  0  0  0  0  0  0  0  0  0  0
   -9.5716   -7.2759    0.0000 H   0  0  0  0  0  0  0  0  0  0  0  0
   -9.0366   -8.2025    0.0000 H   0  0  0  0  0  0  0  0  0  0  0  0
  -10.1523   -5.1779    0.0000 H   0  0  0  0  0  0  0  0  0  0  0  0
   -9.3798   -5.1068    0.0000 H   0  0  0  0  0  0  0  0  0  0  0  0
   -8.9779   -7.6901    0.0000 H   0  0  0  0  0  0  0  0  0  0  0  0
   -7.9049   -7.6954    0.0000 H   0  0  0  0  0  0  0  0  0  0  0  0
   -7.1481   -6.1431    0.0000 H   0  0  0  0  0  0  0  0  0  0  0  0
   -7.6949   -8.3248    0.0000 H   0  0  0  0  0  0  0  0  0  0  0  0
   -6.2220   -7.4656    0.0000 H   0  0  0  0  0  0  0  0  0  0  0  0
    3.2650   -1.7201    0.0000 H   0  0  0  0  0  0  0  0  0  0  0  0
    1.9544   -3.0304    0.0000 H   0  0  0  0  0  0  0  0  0  0  0  0
    2.2315   -1.9969    0.0000 H   0  0  0  0  0  0  0  0  0  0  0  0
  1  2  1  0  0  0  0
  1  3  2  0  0  0  0
  1  4  1  0  0  0  0
  2  5  1  0  0  0  0
  2  6  1  0  0  0  0
  2230  1  1  0  0  0
  4231  1  0  0  0  0
  5 11  1  0  0  0  0
  5232  1  0  0  0  0
  6  7  1  0  0  0  0
  6233  1  0  0  0  0
  6234  1  0  0  0  0
  7  8  1  0  0  0  0
  7235  1  0  0  0  0
  7236  1  0  0  0  0
  8  9  1  0  0  0  0
  8 10  2  0  0  0  0
  9237  1  0  0  0  0
  9238  1  0  0  0  0
 11 12  1  0  0  0  0
 11 13  2  0  0  0  0
 12 14  1  0  0  0  0
 12 15  1  0  0  0  0
 12239  1  1  0  0  0
 14 16  1  0  0  0  0
 14240  1  0  0  0  0
 14241  1  0  0  0  0
 15 18  1  0  0  0  0
 15242  1  0  0  0  0
 16 17  1  0  0  0  0
 16243  1  0  0  0  0
 16244  1  0  0  0  0
 17 95  1  0  0  0  0
 17245  1  0  0  0  0
 17246  1  0  0  0  0
 18 19  1  0  0  0  0
 18 20  2  0  0  0  0
 19 21  1  0  0  0  0
 19 22  1  0  0  0  0
 19247  1  1  0  0  0
 21248  1  0  0  0  0
 21249  1  0  0  0  0
 21250  1  0  0  0  0
 22 23  1  0  0  0  0
 22251  1  0  0  0  0
 23 24  1  0  0  0  0
 23 25  2  0  0  0  0
 24 26  1  0  0  0  0
 24 27  1  0  0  0  0
 24252  1  6  0  0  0
 26 28  1  0  0  0  0
 26253  1  0  0  0  0
 26254  1  0  0  0  0
 27 31  1  0  0  0  0
 27255  1  0  0  0  0
 28 29  1  0  0  0  0
 28 30  1  0  0  0  0
 28256  1  0  0  0  0
 29257  1  0  0  0  0
 29258  1  0  0  0  0
 29259  1  0  0  0  0
 30260  1  0  0  0  0
 30261  1  0  0  0  0
 30262  1  0  0  0  0
 31 32  1  0  0  0  0
 31 33  2  0  0  0  0
 32 34  1  0  0  0  0
 32 35  1  0  0  0  0
 32263  1  6  0  0  0
 34 36  1  0  0  0  0
 34264  1  0  0  0  0
 34265  1  0  0  0  0
 35 42  1  0  0  0  0
 35266  1  0  0  0  0
 36 37  1  0  0  0  0
 36267  1  0  0  0  0
 36268  1  0  0  0  0
 37 38  1  0  0  0  0
 37269  1  0  0  0  0
 37270  1  0  0  0  0
 38 39  1  0  0  0  0
 38271  1  0  0  0  0
 39 40  2  0  0  0  0
 39 41  1  0  0  0  0
 40272  1  0  0  0  0
 41273  1  0  0  0  0
 41274  1  0  0  0  0
 42 43  1  0  0  0  0
 42 44  2  0  0  0  0
 43 45  1  0  0  0  0
 43 46  1  0  0  0  0
 43275  1  6  0  0  0
 45 47  1  0  0  0  0
 45 48  1  0  0  0  0
 45276  1  1  0  0  0
 46 49  1  0  0  0  0
 46277  1  0  0  0  0
 47229  1  0  0  0  0
 47278  1  0  0  0  0
 47279  1  0  0  0  0
 48280  1  0  0  0  0
 49 50  1  0  0  0  0
 49 51  2  0  0  0  0
 50 52  1  0  0  0  0
 50 53  1  0  0  0  0
 50281  1  6  0  0  0
 52 61  1  0  0  0  0
 52282  1  0  0  0  0
 53 54  1  0  0  0  0
 53283  1  0  0  0  0
 53284  1  0  0  0  0
 54 55  1  0  0  0  0
 54 59  2  0  0  0  0
 55 56  2  0  0  0  0
 55285  1  0  0  0  0
 56 57  1  0  0  0  0
 56286  1  0  0  0  0
 57 58  2  0  0  0  0
 57 60  1  0  0  0  0
 58 59  1  0  0  0  0
 58287  1  0  0  0  0
 59288  1  0  0  0  0
 60289  1  0  0  0  0
 61 62  1  0  0  0  0
 61 63  2  0  0  0  0
 62 64  1  0  0  0  0
 62 65  1  0  0  0  0
 62290  1  1  0  0  0
 64 66  1  0  0  0  0
 64291  1  0  0  0  0
 64292  1  0  0  0  0
 65 69  1  0  0  0  0
 65293  1  0  0  0  0
 66 67  2  0  0  0  0
 66 68  1  0  0  0  0
 68294  1  0  0  0  0
 68295  1  0  0  0  0
 69 70  1  0  0  0  0
 69 71  2  0  0  0  0
 70 72  1  0  0  0  0
 70 73  1  0  0  0  0
 70296  1  6  0  0  0
 72 74  1  0  0  0  0
 72297  1  0  0  0  0
 72298  1  0  0  0  0
 73 77  1  0  0  0  0
 73299  1  0  0  0  0
 74 75  1  0  0  0  0
 74 76  2  0  0  0  0
 75300  1  0  0  0  0
 77 78  1  0  0  0  0
 77 79  2  0  0  0  0
 78 80  1  0  0  0  0
 78 81  1  0  0  0  0
 78301  1  6  0  0  0
 80 84  1  0  0  0  0
 80302  1  0  0  0  0
 81 82  1  0  0  0  0
 81 83  1  0  0  0  0
 81303  1  6  0  0  0
 82304  1  0  0  0  0
 82305  1  0  0  0  0
 82306  1  0  0  0  0
 83307  1  0  0  0  0
 84 85  1  0  0  0  0
 84 86  2  0  0  0  0
 85 87  1  0  0  0  0
 85 88  1  0  0  0  0
 85308  1  1  0  0  0
 87 97  1  0  0  0  0
 87309  1  0  0  0  0
 88 89  1  0  0  0  0
 88310  1  0  0  0  0
 88311  1  0  0  0  0
 89 90  1  0  0  0  0
 89 94  2  0  0  0  0
 90 91  2  0  0  0  0
 90312  1  0  0  0  0
 91 92  1  0  0  0  0
 91313  1  0  0  0  0
 92 93  2  0  0  0  0
 92314  1  0  0  0  0
 93 94  1  0  0  0  0
 93315  1  0  0  0  0
 94316  1  0  0  0  0
 95 96  1  0  0  0  0
 95317  1  0  0  0  0
 95318  1  0  0  0  0
 96319  1  0  0  0  0
 96320  1  0  0  0  0
 97 98  1  0  0  0  0
 97 99  2  0  0  0  0
 98100  1  0  0  0  0
 98101  1  0  0  0  0
 98321  1  1  0  0  0
100104  1  0  0  0  0
100322  1  0  0  0  0
101102  1  0  0  0  0
101103  1  0  0  0  0
101323  1  0  0  0  0
102324  1  0  0  0  0
102325  1  0  0  0  0
102326  1  0  0  0  0
103327  1  0  0  0  0
103328  1  0  0  0  0
103329  1  0  0  0  0
104105  1  0  0  0  0
104106  2  0  0  0  0
105107  1  0  0  0  0
105108  1  0  0  0  0
105330  1  1  0  0  0
107331  1  0  0  0  0
107332  1  0  0  0  0
107333  1  0  0  0  0
108109  1  0  0  0  0
108334  1  0  0  0  0
109110  1  0  0  0  0
109111  2  0  0  0  0
110112  1  0  0  0  0
110113  1  0  0  0  0
110335  1  1  0  0  0
112114  1  0  0  0  0
112336  1  0  0  0  0
112337  1  0  0  0  0
113117  1  0  0  0  0
113338  1  0  0  0  0
114115  2  0  0  0  0
114116  1  0  0  0  0
116339  1  0  0  0  0
117118  1  0  0  0  0
117119  2  0  0  0  0
118120  1  0  0  0  0
118121  1  0  0  0  0
118340  1  1  0  0  0
120132  1  0  0  0  0
120341  1  0  0  0  0
120342  1  0  0  0  0
121122  1  0  0  0  0
121343  1  0  0  0  0
122123  2  0  0  0  0
122124  1  0  0  0  0
124125  1  0  0  0  0
124126  1  0  0  0  0
124344  1  1  0  0  0
125345  1  0  0  0  0
125346  1  0  0  0  0
126127  1  0  0  0  0
126347  1  0  0  0  0
126348  1  0  0  0  0
127128  1  0  0  0  0
127131  2  0  0  0  0
128129  1  0  0  0  0
128349  1  0  0  0  0
129130  2  0  0  0  0
129350  1  0  0  0  0
130131  1  0  0  0  0
131351  1  0  0  0  0
132352  1  0  0  0  0
133  4  1  0  0  0  0
133134  1  0  0  0  0
133135  1  0  0  0  0
133353  1  1  0  0  0
134139  1  0  0  0  0
134140  2  0  0  0  0
135136  1  0  0  0  0
135354  1  0  0  0  0
135355  1  0  0  0  0
136137  1  0  0  0  0
136356  1  0  0  0  0
136357  1  0  0  0  0
137138  1  0  0  0  0
138358  1  0  0  0  0
138359  1  0  0  0  0
138360  1  0  0  0  0
139141  1  0  0  0  0
139361  1  0  0  0  0
141142  1  0  0  0  0
141143  1  0  0  0  0
141362  1  1  0  0  0
142144  2  0  0  0  0
142145  1  0  0  0  0
143363  1  0  0  0  0
143364  1  0  0  0  0
143365  1  0  0  0  0
145366  1  0  0  0  0
146145  1  0  0  0  0
146147  1  0  0  0  0
146148  1  0  0  0  0
146367  1  1  0  0  0
147151  2  0  0  0  0
147152  1  0  0  0  0
148149  1  0  0  0  0
148150  1  0  0  0  0
148368  1  0  0  0  0
149369  1  0  0  0  0
149370  1  0  0  0  0
149371  1  0  0  0  0
150372  1  0  0  0  0
150373  1  0  0  0  0
150374  1  0  0  0  0
152375  1  0  0  0  0
153152  1  0  0  0  0
153154  1  0  0  0  0
153155  1  0  0  0  0
153376  1  1  0  0  0
154160  1  0  0  0  0
154161  2  0  0  0  0
155156  1  0  0  0  0
155377  1  0  0  0  0
155378  1  0  0  0  0
156157  1  0  0  0  0
156379  1  0  0  0  0
156380  1  0  0  0  0
157158  1  0  0  0  0
157381  1  0  0  0  0
157382  1  0  0  0  0
158159  1  0  0  0  0
158383  1  0  0  0  0
158384  1  0  0  0  0
159385  1  0  0  0  0
159386  1  0  0  0  0
160387  1  0  0  0  0
162160  1  0  0  0  0
162163  1  0  0  0  0
162164  1  0  0  0  0
162388  1  1  0  0  0
163165  2  0  0  0  0
163166  1  0  0  0  0
164167  1  0  0  0  0
164389  1  0  0  0  0
164390  1  0  0  0  0
166391  1  0  0  0  0
167168  1  0  0  0  0
167392  1  0  0  0  0
167393  1  0  0  0  0
168169  1  0  0  0  0
168394  1  0  0  0  0
168395  1  0  0  0  0
169170  1  0  0  0  0
169396  1  0  0  0  0
169397  1  0  0  0  0
170398  1  0  0  0  0
170399  1  0  0  0  0
171166  1  0  0  0  0
171172  1  0  0  0  0
171180  1  0  0  0  0
171400  1  6  0  0  0
172173  1  0  0  0  0
172174  2  0  0  0  0
173401  1  0  0  0  0
175173  1  0  0  0  0
175176  1  0  0  0  0
175188  1  0  0  0  0
175402  1  1  0  0  0
176177  1  0  0  0  0
176403  1  0  0  0  0
176404  1  0  0  0  0
177178  1  0  0  0  0
177179  1  0  0  0  0
177405  1  0  0  0  0
178406  1  0  0  0  0
178407  1  0  0  0  0
178408  1  0  0  0  0
179409  1  0  0  0  0
179410  1  0  0  0  0
179411  1  0  0  0  0
180181  1  0  0  0  0
180412  1  0  0  0  0
180413  1  0  0  0  0
181182  1  0  0  0  0
181186  2  0  0  0  0
182183  2  0  0  0  0
182414  1  0  0  0  0
183184  1  0  0  0  0
183415  1  0  0  0  0
184185  2  0  0  0  0
184187  1  0  0  0  0
185186  1  0  0  0  0
185416  1  0  0  0  0
186417  1  0  0  0  0
187418  1  0  0  0  0
188189  1  0  0  0  0
188190  2  0  0  0  0
189419  1  0  0  0  0
191189  1  0  0  0  0
191192  1  0  0  0  0
191193  1  0  0  0  0
191420  1  1  0  0  0
192197  2  0  0  0  0
192198  1  0  0  0  0
193194  1  0  0  0  0
193421  1  0  0  0  0
193422  1  0  0  0  0
194195  1  0  0  0  0
194196  2  0  0  0  0
195423  1  0  0  0  0
195424  1  0  0  0  0
198425  1  0  0  0  0
199198  1  0  0  0  0
199200  1  0  0  0  0
199201  1  0  0  0  0
199426  1  1  0  0  0
200203  2  0  0  0  0
200204  1  0  0  0  0
201202  1  0  0  0  0
201427  1  0  0  0  0
201428  1  0  0  0  0
202429  1  0  0  0  0
204430  1  0  0  0  0
205204  1  0  0  0  0
205206  1  0  0  0  0
205207  1  0  0  0  0
205431  1  1  0  0  0
206211  2  0  0  0  0
206212  1  0  0  0  0
207208  1  0  0  0  0
207209  1  0  0  0  0
207432  1  1  0  0  0
208210  1  0  0  0  0
208433  1  0  0  0  0
208434  1  0  0  0  0
209435  1  0  0  0  0
209436  1  0  0  0  0
209437  1  0  0  0  0
210438  1  0  0  0  0
210439  1  0  0  0  0
210440  1  0  0  0  0
212441  1  0  0  0  0
213212  1  0  0  0  0
213214  1  0  0  0  0
213215  1  0  0  0  0
213442  1  1  0  0  0
214219  2  0  0  0  0
214220  1  0  0  0  0
215216  1  0  0  0  0
215443  1  0  0  0  0
215444  1  0  0  0  0
216217  1  0  0  0  0
216218  1  0  0  0  0
216445  1  0  0  0  0
217446  1  0  0  0  0
217447  1  0  0  0  0
217448  1  0  0  0  0
218449  1  0  0  0  0
218450  1  0  0  0  0
218451  1  0  0  0  0
220452  1  0  0  0  0
221220  1  0  0  0  0
221222  1  0  0  0  0
221223  1  0  0  0  0
221453  1  1  0  0  0
222224  1  0  0  0  0
222225  2  0  0  0  0
223226  1  0  0  0  0
223454  1  0  0  0  0
223455  1  0  0  0  0
224456  1  0  0  0  0
226227  1  0  0  0  0
226228  2  0  0  0  0
227457  1  0  0  0  0
227458  1  0  0  0  0
229459  1  0  0  0  0
229460  1  0  0  0  0
229461  1  0  0  0  0
M  END
>  <DRUGBANK_ID>
DB06260

>  <COMMON_NAME>
Aviptadil

>  <CAS_NUMBER>
40077-57-4

>  <UNII>
A67JUW790C

>  <SYNONYMS>
Aviptadil; Porcine vasoactive intestinal octacosapeptide; Vasoactive intestinal octacosapeptide (pig); Vasoactive intestinal octacosapeptide (swine)

$$$$
