DBY
 OpenBabel10282417072D

 24 24  0  0  0  0  0  0  0  0999 V2000
    0.0327    1.2318    0.0000 N   0  0  0  0  0  0  0  0  0  0  0  0
    0.7472    0.8193    0.0000 C   0  0  2  0  0  0  0  0  0  0  0  0
    1.4617    1.2318    0.0000 C   0  0  0  0  0  0  0  0  0  0  0  0
    1.4617    2.0568    0.0000 O   0  0  0  0  0  0  0  0  0  0  0  0
    0.7472   -0.0057    0.0000 C   0  0  0  0  0  0  0  0  0  0  0  0
    0.0327   -0.4182    0.0000 C   0  0  0  0  0  0  0  0  0  0  0  0
    0.0327   -1.2432    0.0000 C   0  0  0  0  0  0  0  0  0  0  0  0
   -0.6817   -1.6557    0.0000 C   0  0  0  0  0  0  0  0  0  0  0  0
   -0.6817   -0.0057    0.0000 C   0  0  0  0  0  0  0  0  0  0  0  0
   -1.3962   -0.4182    0.0000 C   0  0  0  0  0  0  0  0  0  0  0  0
   -1.3962   -1.2432    0.0000 C   0  0  0  0  0  0  0  0  0  0  0  0
   -2.1107   -1.6557    0.0000 O   0  0  0  0  0  0  0  0  0  0  0  0
   -0.6817   -2.4807    0.0000 Br  0  0  0  0  0  0  0  0  0  0  0  0
   -2.1107   -0.0057    0.0000 Br  0  0  0  0  0  0  0  0  0  0  0  0
    2.1761    0.8193    0.0000 O   0  0  0  0  0  0  0  0  0  0  0  0
    0.7472    1.4032    0.0000 H   0  0  0  0  0  0  0  0  0  0  0  0
    0.0327    2.2518    0.0000 H   0  0  0  0  0  0  0  0  0  0  0  0
   -0.8506    0.7218    0.0000 H   0  0  0  0  0  0  0  0  0  0  0  0
    1.6738   -0.5407    0.0000 H   0  0  0  0  0  0  0  0  0  0  0  0
    0.7472   -1.0757    0.0000 H   0  0  0  0  0  0  0  0  0  0  0  0
    0.9264   -1.7592    0.0000 H   0  0  0  0  0  0  0  0  0  0  0  0
   -0.6817    1.0263    0.0000 H   0  0  0  0  0  0  0  0  0  0  0  0
   -2.9222   -1.1872    0.0000 H   0  0  0  0  0  0  0  0  0  0  0  0
    2.1761   -0.1177    0.0000 H   0  0  0  0  0  0  0  0  0  0  0  0
  1 17  1  0  0  0  0
  1 18  1  0  0  0  0
  2  1  1  0  0  0  0
  2  3  1  0  0  0  0
  2  5  1  0  0  0  0
  2 16  1  1  0  0  0
  3  4  2  0  0  0  0
  3 15  1  0  0  0  0
  5  6  1  0  0  0  0
  5 19  1  0  0  0  0
  5 20  1  0  0  0  0
  6  7  2  0  0  0  0
  6  9  1  0  0  0  0
  7  8  1  0  0  0  0
  7 21  1  0  0  0  0
  8 11  2  0  0  0  0
  8 13  1  0  0  0  0
  9 10  2  0  0  0  0
  9 22  1  0  0  0  0
 10 11  1  0  0  0  0
 10 14  1  0  0  0  0
 11 12  1  0  0  0  0
 12 23  1  0  0  0  0
 15 24  1  0  0  0  0
M  END
>  <DRUGBANK_ID>
DB07637

>  <COMMON_NAME>
Dibromotyrosine

>  <CAS_NUMBER>
300-38-9

>  <UNII>
QD49LEP46E

>  <SYNONYMS>
3,5-dibromo-L-tyrosine

$$$$
