
 OpenBabel10282417072D

 41 43  0  0  0  0  0  0  0  0999 V2000
   -1.4269    1.4420    0.0000 C   0  0  0  0  0  0  0  0  0  0  0  0
   -2.8534    2.2671    0.0000 C   0  0  0  0  0  0  0  0  0  0  0  0
   -2.8543    1.4404    0.0000 C   0  0  0  0  0  0  0  0  0  0  0  0
   -2.1413    1.0262    0.0000 C   0  0  0  0  0  0  0  0  0  0  0  0
   -1.4263    2.2696    0.0000 C   0  0  0  0  0  0  0  0  0  0  0  0
   -2.1426    2.6783    0.0000 C   0  0  0  0  0  0  0  0  0  0  0  0
   -0.7134    2.6849    0.0000 F   0  0  0  0  0  0  0  0  0  0  0  0
   -0.7118    1.0306    0.0000 N   0  0  0  0  0  0  0  0  0  0  0  0
    0.0020    1.4441    0.0000 C   0  0  0  0  0  0  0  0  0  0  0  0
    0.0008    2.2691    0.0000 O   0  0  0  0  0  0  0  0  0  0  0  0
    0.7171    1.0326    0.0000 N   0  0  0  0  0  0  0  0  0  0  0  0
   -0.7106    0.2055    0.0000 C   0  0  0  0  0  0  0  0  0  0  0  0
   -1.4251   -0.2075    0.0000 C   0  0  0  0  0  0  0  0  0  0  0  0
   -1.4258   -1.0289    0.0000 C   0  0  0  0  0  0  0  0  0  0  0  0
   -0.7126   -1.4443    0.0000 C   0  0  0  0  0  0  0  0  0  0  0  0
    0.0031   -1.0320    0.0000 C   0  0  0  0  0  0  0  0  0  0  0  0
    0.0055   -0.2044    0.0000 N   0  0  0  0  0  0  0  0  0  0  0  0
   -0.7145   -2.2692    0.0000 C   0  0  0  0  0  0  0  0  0  0  0  0
   -1.4300   -2.6802    0.0000 N   0  0  0  0  0  0  0  0  0  0  0  0
   -0.0010   -2.6835    0.0000 O   0  0  0  0  0  0  0  0  0  0  0  0
   -2.1410    0.2012    0.0000 F   0  0  0  0  0  0  0  0  0  0  0  0
    0.7167   -1.4459    0.0000 C   0  0  0  0  0  0  0  0  0  0  0  0
    0.7109   -2.2692    0.0000 C   0  0  0  0  0  0  0  0  0  0  0  0
    1.4238   -2.6830    0.0000 C   0  0  0  0  0  0  0  0  0  0  0  0
    2.1400   -2.2719    0.0000 C   0  0  0  0  0  0  0  0  0  0  0  0
    2.1391   -1.4425    0.0000 C   0  0  0  0  0  0  0  0  0  0  0  0
    1.4256   -1.0325    0.0000 C   0  0  0  0  0  0  0  0  0  0  0  0
    1.4230   -0.2074    0.0000 F   0  0  0  0  0  0  0  0  0  0  0  0
    2.8543   -2.6849    0.0000 F   0  0  0  0  0  0  0  0  0  0  0  0
   -3.7471    2.7832    0.0000 H   0  0  0  0  0  0  0  0  0  0  0  0
   -3.7490    0.9261    0.0000 H   0  0  0  0  0  0  0  0  0  0  0  0
   -2.1457    3.7103    0.0000 H   0  0  0  0  0  0  0  0  0  0  0  0
    0.7185    0.0481    0.0000 H   0  0  0  0  0  0  0  0  0  0  0  0
    1.5690    1.5261    0.0000 H   0  0  0  0  0  0  0  0  0  0  0  0
   -2.3187    0.3087    0.0000 H   0  0  0  0  0  0  0  0  0  0  0  0
   -2.3207   -1.5428    0.0000 H   0  0  0  0  0  0  0  0  0  0  0  0
   -2.2815   -2.1861    0.0000 H   0  0  0  0  0  0  0  0  0  0  0  0
   -1.4322   -3.6647    0.0000 H   0  0  0  0  0  0  0  0  0  0  0  0
   -0.1852   -2.7810    0.0000 H   0  0  0  0  0  0  0  0  0  0  0  0
    1.4213   -3.7150    0.0000 H   0  0  0  0  0  0  0  0  0  0  0  0
    3.0320   -0.9251    0.0000 H   0  0  0  0  0  0  0  0  0  0  0  0
  1  8  1  0  0  0  0
  1  5  1  0  0  0  0
  2  3  2  0  0  0  0
  2 30  1  0  0  0  0
  3  4  1  0  0  0  0
  3 31  1  0  0  0  0
  4  1  2  0  0  0  0
  4 21  1  0  0  0  0
  5  6  2  0  0  0  0
  5  7  1  0  0  0  0
  6  2  1  0  0  0  0
  6 32  1  0  0  0  0
  8  9  1  0  0  0  0
  8 12  1  0  0  0  0
  9 10  2  0  0  0  0
  9 11  1  0  0  0  0
 11 33  1  0  0  0  0
 11 34  1  0  0  0  0
 12 17  1  0  0  0  0
 12 13  2  0  0  0  0
 13 14  1  0  0  0  0
 13 35  1  0  0  0  0
 14 15  2  0  0  0  0
 14 36  1  0  0  0  0
 15 16  1  0  0  0  0
 15 18  1  0  0  0  0
 16 17  2  0  0  0  0
 16 22  1  0  0  0  0
 18 19  1  0  0  0  0
 18 20  2  0  0  0  0
 19 37  1  0  0  0  0
 19 38  1  0  0  0  0
 22 23  2  0  0  0  0
 23 24  1  0  0  0  0
 23 39  1  0  0  0  0
 24 25  2  0  0  0  0
 24 40  1  0  0  0  0
 25 26  1  0  0  0  0
 25 29  1  0  0  0  0
 26 27  2  0  0  0  0
 26 41  1  0  0  0  0
 27 22  1  0  0  0  0
 27 28  1  0  0  0  0
M  END
>  <DRUGBANK_ID>
DB05470

>  <COMMON_NAME>
VX-702

>  <CAS_NUMBER>
745833-23-2

>  <UNII>
527E7SK68P

$$$$
