1462
 OpenBabel10282417072D

 57 59  0  0  0  0  0  0  0  0999 V2000
    8.2451   -2.9720    0.0000 O   0  0  0  0  0  0  0  0  0  0  0  0
    1.6500   -0.5266    0.0000 O   0  5  0  0  0  0  0  0  0  0  0  0
    2.3645   -1.7641    0.0000 O   0  0  0  0  0  0  0  0  0  0  0  0
    5.2886    0.5498    0.0000 N   0  0  0  0  0  0  0  0  0  0  0  0
    6.6086    2.2883    0.0000 N   0  0  0  0  0  0  0  0  0  0  0  0
    5.2886   -0.7781    0.0000 N   0  0  0  0  0  0  0  0  0  0  0  0
    2.3645   -0.9391    0.0000 N   0  3  0  0  0  0  0  0  0  0  0  0
    5.5449    1.3340    0.0000 C   0  0  0  0  0  0  0  0  0  0  0  0
    6.3522    1.5041    0.0000 C   0  0  0  0  0  0  0  0  0  0  0  0
    5.7701   -0.1141    0.0000 C   0  0  0  0  0  0  0  0  0  0  0  0
    4.5080    0.2984    0.0000 C   0  0  0  0  0  0  0  0  0  0  0  0
    4.5080   -0.5266    0.0000 C   0  0  0  0  0  0  0  0  0  0  0  0
    6.5951   -0.1141    0.0000 C   0  0  0  0  0  0  0  0  0  0  0  0
    7.4158    2.4585    0.0000 C   0  0  0  0  0  0  0  0  0  0  0  0
    6.0575    2.9024    0.0000 C   0  0  0  0  0  0  0  0  0  0  0  0
    3.7935    0.7109    0.0000 C   0  0  0  0  0  0  0  0  0  0  0  0
    7.0076   -0.8286    0.0000 C   0  0  0  0  0  0  0  0  0  0  0  0
    3.7935   -0.9391    0.0000 C   0  0  0  0  0  0  0  0  0  0  0  0
    3.0791   -0.5266    0.0000 C   0  0  0  0  0  0  0  0  0  0  0  0
    3.0791    0.2984    0.0000 C   0  0  0  0  0  0  0  0  0  0  0  0
    7.6721    3.2427    0.0000 C   0  0  0  0  0  0  0  0  0  0  0  0
    6.3139    3.6866    0.0000 C   0  0  0  0  0  0  0  0  0  0  0  0
    7.8326   -0.8286    0.0000 C   0  0  0  0  0  0  0  0  0  0  0  0
    6.5951   -1.5431    0.0000 C   0  0  0  0  0  0  0  0  0  0  0  0
    8.2451   -1.5431    0.0000 C   0  0  0  0  0  0  0  0  0  0  0  0
    7.0076   -2.2576    0.0000 C   0  0  0  0  0  0  0  0  0  0  0  0
    7.8326   -2.2576    0.0000 C   0  0  0  0  0  0  0  0  0  0  0  0
    9.0702   -2.9720    0.0000 C   0  0  0  0  0  0  0  0  0  0  0  0
    9.4827   -3.6866    0.0000 C   0  0  0  0  0  0  0  0  0  0  0  0
    4.8303    2.1304    0.0000 H   0  0  0  0  0  0  0  0  0  0  0  0
    5.8773    2.3510    0.0000 H   0  0  0  0  0  0  0  0  0  0  0  0
    7.0667    0.7076    0.0000 H   0  0  0  0  0  0  0  0  0  0  0  0
    6.0197    0.4871    0.0000 H   0  0  0  0  0  0  0  0  0  0  0  0
    7.1301    0.8125    0.0000 H   0  0  0  0  0  0  0  0  0  0  0  0
    7.6651   -0.1141    0.0000 H   0  0  0  0  0  0  0  0  0  0  0  0
    8.1304    1.6621    0.0000 H   0  0  0  0  0  0  0  0  0  0  0  0
    8.4628    2.6792    0.0000 H   0  0  0  0  0  0  0  0  0  0  0  0
    5.0105    2.6818    0.0000 H   0  0  0  0  0  0  0  0  0  0  0  0
    5.3430    3.6988    0.0000 H   0  0  0  0  0  0  0  0  0  0  0  0
    3.7935    1.7429    0.0000 H   0  0  0  0  0  0  0  0  0  0  0  0
    3.7935   -1.9711    0.0000 H   0  0  0  0  0  0  0  0  0  0  0  0
    2.1854    0.8144    0.0000 H   0  0  0  0  0  0  0  0  0  0  0  0
    8.7191    3.4634    0.0000 H   0  0  0  0  0  0  0  0  0  0  0  0
    6.9575    4.0391    0.0000 H   0  0  0  0  0  0  0  0  0  0  0  0
    8.0045    4.2598    0.0000 H   0  0  0  0  0  0  0  0  0  0  0  0
    7.3609    3.9071    0.0000 H   0  0  0  0  0  0  0  0  0  0  0  0
    5.5994    4.4831    0.0000 H   0  0  0  0  0  0  0  0  0  0  0  0
    6.6464    4.7036    0.0000 H   0  0  0  0  0  0  0  0  0  0  0  0
    8.3486    0.0651    0.0000 H   0  0  0  0  0  0  0  0  0  0  0  0
    5.5631   -1.5431    0.0000 H   0  0  0  0  0  0  0  0  0  0  0  0
    9.2771   -1.5431    0.0000 H   0  0  0  0  0  0  0  0  0  0  0  0
    6.4916   -3.1513    0.0000 H   0  0  0  0  0  0  0  0  0  0  0  0
    9.6052   -2.0454    0.0000 H   0  0  0  0  0  0  0  0  0  0  0  0
   10.1402   -2.9721    0.0000 H   0  0  0  0  0  0  0  0  0  0  0  0
    8.9476   -4.6132    0.0000 H   0  0  0  0  0  0  0  0  0  0  0  0
   10.5527   -3.6867    0.0000 H   0  0  0  0  0  0  0  0  0  0  0  0
   10.0176   -4.6133    0.0000 H   0  0  0  0  0  0  0  0  0  0  0  0
  1 27  1  0  0  0  0
  1 28  1  0  0  0  0
  2  7  1  0  0  0  0
  3  7  2  0  0  0  0
  4  8  1  0  0  0  0
  4 10  1  0  0  0  0
  4 11  1  0  0  0  0
  5  9  1  0  0  0  0
  5 14  1  0  0  0  0
  5 15  1  0  0  0  0
  6 10  2  0  0  0  0
  6 12  1  0  0  0  0
  7 19  1  0  0  0  0
  8  9  1  0  0  0  0
  8 30  1  0  0  0  0
  8 31  1  0  0  0  0
  9 32  1  0  0  0  0
  9 33  1  0  0  0  0
 10 13  1  0  0  0  0
 11 12  2  0  0  0  0
 11 16  1  0  0  0  0
 12 18  1  0  0  0  0
 13 17  1  0  0  0  0
 13 34  1  0  0  0  0
 13 35  1  0  0  0  0
 14 21  1  0  0  0  0
 14 36  1  0  0  0  0
 14 37  1  0  0  0  0
 15 22  1  0  0  0  0
 15 38  1  0  0  0  0
 15 39  1  0  0  0  0
 16 20  2  0  0  0  0
 16 40  1  0  0  0  0
 17 23  2  0  0  0  0
 17 24  1  0  0  0  0
 18 19  2  0  0  0  0
 18 41  1  0  0  0  0
 19 20  1  0  0  0  0
 20 42  1  0  0  0  0
 21 43  1  0  0  0  0
 21 44  1  0  0  0  0
 21 45  1  0  0  0  0
 22 46  1  0  0  0  0
 22 47  1  0  0  0  0
 22 48  1  0  0  0  0
 23 25  1  0  0  0  0
 23 49  1  0  0  0  0
 24 26  2  0  0  0  0
 24 50  1  0  0  0  0
 25 27  2  0  0  0  0
 25 51  1  0  0  0  0
 26 27  1  0  0  0  0
 26 52  1  0  0  0  0
 28 29  1  0  0  0  0
 28 53  1  0  0  0  0
 28 54  1  0  0  0  0
 29 55  1  0  0  0  0
 29 56  1  0  0  0  0
 29 57  1  0  0  0  0
M  CHG  2   2  -1   7   1
M  END
>  <DRUGBANK_ID>
DB01462

>  <COMMON_NAME>
Etonitazene

>  <CAS_NUMBER>
911-65-9

>  <UNII>
9U3GT3353T

>  <SYNONYMS>
Etonitazene

$$$$
