
 OpenBabel10282417072D

 61 61  0  0  0  0  0  0  0  0999 V2000
    5.3585    3.5062    0.0000 C   0  0  0  0  0  0  0  0  0  0  0  0
    5.3585    1.0312    0.0000 C   0  0  0  0  0  0  0  0  0  0  0  0
    0.3572   -3.5062    0.0000 C   0  0  0  0  0  0  0  0  0  0  0  0
    2.5006    0.2062    0.0000 C   0  0  0  0  0  0  0  0  0  0  0  0
   -5.3585   -2.6812    0.0000 C   0  0  0  0  0  0  0  0  0  0  0  0
    5.3585    2.6812    0.0000 C   0  0  0  0  0  0  0  0  0  0  0  0
   -1.0717   -2.6812    0.0000 C   0  0  0  0  0  0  0  0  0  0  0  0
   -1.7861   -2.2687    0.0000 C   0  0  0  0  0  0  0  0  0  0  0  0
    4.6440    2.2687    0.0000 C   0  0  0  0  0  0  0  0  0  0  0  0
   -0.3572   -2.2687    0.0000 C   0  0  0  0  0  0  0  0  0  0  0  0
    3.9295    1.0312    0.0000 C   0  0  0  0  0  0  0  0  0  0  0  0
    3.9295    0.2062    0.0000 C   0  0  0  0  0  0  0  0  0  0  0  0
   -2.5006   -2.6812    0.0000 C   0  0  0  0  0  0  0  0  0  0  0  0
    1.7861   -2.6812    0.0000 C   0  0  0  0  0  0  0  0  0  0  0  0
    4.6440    1.4437    0.0000 C   0  0  0  0  0  0  0  0  0  0  0  0
    0.3572   -2.6812    0.0000 C   0  0  2  0  0  0  0  0  0  0  0  0
    3.2151   -0.2062    0.0000 C   0  0  0  0  0  0  0  0  0  0  0  0
    2.5006   -2.2687    0.0000 C   0  0  0  0  0  0  0  0  0  0  0  0
    1.0717   -2.2687    0.0000 C   0  0  0  0  0  0  0  0  0  0  0  0
    2.5006   -1.4437    0.0000 C   0  0  3  0  0  0  0  0  0  0  0  0
    3.2151   -1.0312    0.0000 C   0  0  0  0  0  0  0  0  0  0  0  0
    1.7861   -1.0312    0.0000 C   0  0  0  0  0  0  0  0  0  0  0  0
   -3.9295   -2.6812    0.0000 C   0  0  0  0  0  0  0  0  0  0  0  0
   -3.2151   -2.2687    0.0000 N   0  0  0  0  0  0  0  0  0  0  0  0
    3.2151   -2.6812    0.0000 O   0  0  0  0  0  0  0  0  0  0  0  0
    3.9295   -1.4437    0.0000 O   0  0  0  0  0  0  0  0  0  0  0  0
    1.7861   -0.2062    0.0000 O   0  0  0  0  0  0  0  0  0  0  0  0
   -3.9295   -3.5062    0.0000 O   0  0  0  0  0  0  0  0  0  0  0  0
   -4.6440   -2.2687    0.0000 O   0  0  0  0  0  0  0  0  0  0  0  0
    1.0717   -1.4437    0.0000 O   0  0  0  0  0  0  0  0  0  0  0  0
    3.2151    1.4437    0.0000 H   0  0  0  0  0  0  0  0  0  0  0  0
    4.6440   -0.2062    0.0000 H   0  0  0  0  0  0  0  0  0  0  0  0
   -2.5006   -3.5062    0.0000 H   0  0  0  0  0  0  0  0  0  0  0  0
   -0.3572   -3.0937    0.0000 H   0  0  0  0  0  0  0  0  0  0  0  0
    3.2151   -1.8562    0.0000 H   0  0  0  0  0  0  0  0  0  0  0  0
    6.2851    4.0412    0.0000 H   0  0  0  0  0  0  0  0  0  0  0  0
    4.4319    4.0412    0.0000 H   0  0  0  0  0  0  0  0  0  0  0  0
    5.3585    4.5762    0.0000 H   0  0  0  0  0  0  0  0  0  0  0  0
    5.3585   -0.0388    0.0000 H   0  0  0  0  0  0  0  0  0  0  0  0
    6.2851    1.5662    0.0000 H   0  0  0  0  0  0  0  0  0  0  0  0
    6.2852    0.4962    0.0000 H   0  0  0  0  0  0  0  0  0  0  0  0
   -0.5694   -4.0412    0.0000 H   0  0  0  0  0  0  0  0  0  0  0  0
    1.2838   -4.0412    0.0000 H   0  0  0  0  0  0  0  0  0  0  0  0
    0.3572   -4.5762    0.0000 H   0  0  0  0  0  0  0  0  0  0  0  0
    2.5005    1.2762    0.0000 H   0  0  0  0  0  0  0  0  0  0  0  0
    1.5740   -0.3289    0.0000 H   0  0  0  0  0  0  0  0  0  0  0  0
    1.5739    0.7411    0.0000 H   0  0  0  0  0  0  0  0  0  0  0  0
   -6.2851   -2.1462    0.0000 H   0  0  0  0  0  0  0  0  0  0  0  0
   -5.3585   -3.7512    0.0000 H   0  0  0  0  0  0  0  0  0  0  0  0
   -6.2852   -3.2162    0.0000 H   0  0  0  0  0  0  0  0  0  0  0  0
    6.2851    2.1462    0.0000 H   0  0  0  0  0  0  0  0  0  0  0  0
    5.3585    1.6112    0.0000 H   0  0  0  0  0  0  0  0  0  0  0  0
   -1.0717   -3.7512    0.0000 H   0  0  0  0  0  0  0  0  0  0  0  0
   -0.1451   -3.2162    0.0000 H   0  0  0  0  0  0  0  0  0  0  0  0
   -1.7861   -1.1987    0.0000 H   0  0  0  0  0  0  0  0  0  0  0  0
   -2.7127   -1.7337    0.0000 H   0  0  0  0  0  0  0  0  0  0  0  0
    3.7174    2.8037    0.0000 H   0  0  0  0  0  0  0  0  0  0  0  0
    3.7174    1.7337    0.0000 H   0  0  0  0  0  0  0  0  0  0  0  0
   -0.3572   -1.1987    0.0000 H   0  0  0  0  0  0  0  0  0  0  0  0
    0.5695   -1.7337    0.0000 H   0  0  0  0  0  0  0  0  0  0  0  0
    1.7861   -3.7132    0.0000 H   0  0  0  0  0  0  0  0  0  0  0  0
  1 36  1  0  0  0  0
  1 37  1  0  0  0  0
  1 38  1  0  0  0  0
  2 39  1  0  0  0  0
  2 40  1  0  0  0  0
  2 41  1  0  0  0  0
  3 42  1  0  0  0  0
  3 43  1  0  0  0  0
  3 44  1  0  0  0  0
  4 45  1  0  0  0  0
  4 46  1  0  0  0  0
  4 47  1  0  0  0  0
  5 48  1  0  0  0  0
  5 49  1  0  0  0  0
  5 50  1  0  0  0  0
  6  1  1  0  0  0  0
  6 51  1  0  0  0  0
  6 52  1  0  0  0  0
  7 53  1  0  0  0  0
  7 54  1  0  0  0  0
  8  7  1  0  0  0  0
  8 55  1  0  0  0  0
  8 56  1  0  0  0  0
  9  6  1  0  0  0  0
  9 57  1  0  0  0  0
  9 58  1  0  0  0  0
 10  7  1  0  0  0  0
 10 59  1  0  0  0  0
 10 60  1  0  0  0  0
 12 11  1  0  0  0  0
 13  8  1  0  0  0  0
 14 61  1  0  0  0  0
 15  2  1  0  0  0  0
 15  9  1  0  0  0  0
 15 11  2  0  0  0  0
 16  3  1  0  0  0  0
 16 10  1  0  0  0  0
 16 19  1  0  0  0  0
 16 34  1  1  0  0  0
 17  4  1  0  0  0  0
 17 12  2  0  0  0  0
 18 14  1  0  0  0  0
 19 14  2  0  0  0  0
 20 18  1  0  0  0  0
 21 17  1  0  0  0  0
 21 20  1  0  0  0  0
 22 20  1  0  0  0  0
 24 13  2  0  0  0  0
 24 23  1  0  0  0  0
 25 18  2  0  0  0  0
 26 21  2  0  0  0  0
 27 22  2  0  0  0  0
 28 23  2  0  0  0  0
 29  5  1  0  0  0  0
 29 23  1  0  0  0  0
 30 19  1  0  0  0  0
 30 22  1  0  0  0  0
 31 11  1  0  0  0  0
 32 12  1  0  0  0  0
 33 13  1  0  0  0  0
 35 20  1  0  0  0  0
M  END
>  <DRUGBANK_ID>
DB08266

>  <COMMON_NAME>
Methyl [(1E,5R)-5-{3-[(2E,4E)-2,5-dimethyl-2,4-octadienoyl]-2,4-dioxo-3,4-dihydro-2H-pyran-6-yl}hexylidene]carbamate

$$$$
