
 OpenBabel10282417072D

 58 62  0  0  0  0  0  0  0  0999 V2000
   -2.4543   -1.0312    0.0000 C   0  0  0  0  0  0  0  0  0  0  0  0
   -2.4543   -0.2062    0.0000 C   0  0  0  0  0  0  0  0  0  0  0  0
   -3.1557    0.2062    0.0000 C   0  0  0  0  0  0  0  0  0  0  0  0
   -3.1557   -1.4437    0.0000 C   0  0  0  0  0  0  0  0  0  0  0  0
   -3.8981   -1.0312    0.0000 C   0  0  0  0  0  0  0  0  0  0  0  0
   -3.8981   -0.2062    0.0000 C   0  0  0  0  0  0  0  0  0  0  0  0
   -5.3007   -0.1649    0.0000 C   0  0  0  0  0  0  0  0  0  0  0  0
   -5.3007   -0.9899    0.0000 C   0  0  0  0  0  0  0  0  0  0  0  0
   -4.5994   -1.4437    0.0000 N   0  0  0  0  0  0  0  0  0  0  0  0
   -6.0432   -1.4025    0.0000 O   0  0  0  0  0  0  0  0  0  0  0  0
   -1.7531   -1.4437    0.0000 O   0  0  0  0  0  0  0  0  0  0  0  0
   -1.0106   -1.0312    0.0000 C   0  0  0  0  0  0  0  0  0  0  0  0
   -0.3093   -1.4437    0.0000 C   0  0  0  0  0  0  0  0  0  0  0  0
    0.3919   -1.0312    0.0000 C   0  0  0  0  0  0  0  0  0  0  0  0
    1.1344   -1.4437    0.0000 C   0  0  0  0  0  0  0  0  0  0  0  0
    1.8356   -1.0312    0.0000 N   0  0  0  0  0  0  0  0  0  0  0  0
    2.5369   -1.4437    0.0000 C   0  0  0  0  0  0  0  0  0  0  0  0
    3.2794   -1.0312    0.0000 C   0  0  0  0  0  0  0  0  0  0  0  0
    3.2794   -0.2062    0.0000 N   0  0  0  0  0  0  0  0  0  0  0  0
    2.5369    0.2062    0.0000 C   0  0  0  0  0  0  0  0  0  0  0  0
    1.8356   -0.2062    0.0000 C   0  0  0  0  0  0  0  0  0  0  0  0
    3.9807    0.2062    0.0000 C   0  0  0  0  0  0  0  0  0  0  0  0
    4.6819   -0.2062    0.0000 C   0  0  0  0  0  0  0  0  0  0  0  0
    5.4244    0.2062    0.0000 C   0  0  0  0  0  0  0  0  0  0  0  0
    5.4244    1.0312    0.0000 C   0  0  0  0  0  0  0  0  0  0  0  0
    4.6819    1.4437    0.0000 C   0  0  0  0  0  0  0  0  0  0  0  0
    3.9807    1.0312    0.0000 C   0  0  0  0  0  0  0  0  0  0  0  0
   -4.5994    0.2062    0.0000 C   0  0  0  0  0  0  0  0  0  0  0  0
    4.8469   -1.0312    0.0000 C   0  0  0  0  0  0  0  0  0  0  0  0
    5.6719   -1.1550    0.0000 C   0  0  0  0  0  0  0  0  0  0  0  0
    6.0432   -0.3712    0.0000 S   0  0  0  0  0  0  0  0  0  0  0  0
   -1.5585    0.3063    0.0000 H   0  0  0  0  0  0  0  0  0  0  0  0
   -3.1431    1.2381    0.0000 H   0  0  0  0  0  0  0  0  0  0  0  0
   -3.1431   -2.4756    0.0000 H   0  0  0  0  0  0  0  0  0  0  0  0
   -6.1848    0.3675    0.0000 H   0  0  0  0  0  0  0  0  0  0  0  0
   -4.6204   -2.4280    0.0000 H   0  0  0  0  0  0  0  0  0  0  0  0
   -0.9974    0.0387    0.0000 H   0  0  0  0  0  0  0  0  0  0  0  0
   -0.0785   -0.5057    0.0000 H   0  0  0  0  0  0  0  0  0  0  0  0
   -0.3093   -2.5137    0.0000 H   0  0  0  0  0  0  0  0  0  0  0  0
    0.6195   -1.9749    0.0000 H   0  0  0  0  0  0  0  0  0  0  0  0
    0.3787    0.0387    0.0000 H   0  0  0  0  0  0  0  0  0  0  0  0
   -0.5402   -0.5057    0.0000 H   0  0  0  0  0  0  0  0  0  0  0  0
    1.1476   -2.5136    0.0000 H   0  0  0  0  0  0  0  0  0  0  0  0
    2.0665   -1.9692    0.0000 H   0  0  0  0  0  0  0  0  0  0  0  0
    2.5237   -2.5136    0.0000 H   0  0  0  0  0  0  0  0  0  0  0  0
    3.4557   -1.9920    0.0000 H   0  0  0  0  0  0  0  0  0  0  0  0
    4.2016   -1.5738    0.0000 H   0  0  0  0  0  0  0  0  0  0  0  0
    4.2082   -0.5000    0.0000 H   0  0  0  0  0  0  0  0  0  0  0  0
    2.5237    1.2761    0.0000 H   0  0  0  0  0  0  0  0  0  0  0  0
    1.6049    0.7318    0.0000 H   0  0  0  0  0  0  0  0  0  0  0  0
    0.9068    0.3251    0.0000 H   0  0  0  0  0  0  0  0  0  0  0  0
    0.9100   -0.7430    0.0000 H   0  0  0  0  0  0  0  0  0  0  0  0
    6.3139    1.5546    0.0000 H   0  0  0  0  0  0  0  0  0  0  0  0
    4.6692    2.4756    0.0000 H   0  0  0  0  0  0  0  0  0  0  0  0
    3.0849    1.5436    0.0000 H   0  0  0  0  0  0  0  0  0  0  0  0
   -4.5762    1.2379    0.0000 H   0  0  0  0  0  0  0  0  0  0  0  0
    4.1351   -1.7784    0.0000 H   0  0  0  0  0  0  0  0  0  0  0  0
    6.1573   -2.0657    0.0000 H   0  0  0  0  0  0  0  0  0  0  0  0
  1 11  1  0  0  0  0
  1  2  2  0  0  0  0
  2  3  1  0  0  0  0
  2 32  1  0  0  0  0
  3  6  2  0  0  0  0
  3 33  1  0  0  0  0
  4  1  1  0  0  0  0
  4 34  1  0  0  0  0
  5  4  2  0  0  0  0
  5  6  1  0  0  0  0
  6 28  1  0  0  0  0
  7  8  1  0  0  0  0
  7 35  1  0  0  0  0
  8  9  1  0  0  0  0
  8 10  2  0  0  0  0
  9  5  1  0  0  0  0
  9 36  1  0  0  0  0
 11 12  1  0  0  0  0
 12 13  1  0  0  0  0
 12 37  1  0  0  0  0
 12 38  1  0  0  0  0
 13 14  1  0  0  0  0
 13 39  1  0  0  0  0
 13 40  1  0  0  0  0
 14 15  1  0  0  0  0
 14 41  1  0  0  0  0
 14 42  1  0  0  0  0
 15 16  1  0  0  0  0
 15 43  1  0  0  0  0
 15 44  1  0  0  0  0
 16 17  1  0  0  0  0
 17 18  1  0  0  0  0
 17 45  1  0  0  0  0
 17 46  1  0  0  0  0
 18 19  1  0  0  0  0
 18 47  1  0  0  0  0
 18 48  1  0  0  0  0
 19 20  1  0  0  0  0
 19 22  1  0  0  0  0
 20 21  1  0  0  0  0
 20 49  1  0  0  0  0
 20 50  1  0  0  0  0
 21 16  1  0  0  0  0
 21 51  1  0  0  0  0
 21 52  1  0  0  0  0
 22 23  2  0  0  0  0
 23 24  1  0  0  0  0
 23 29  1  0  0  0  0
 24 25  2  0  0  0  0
 24 31  1  0  0  0  0
 25 26  1  0  0  0  0
 25 53  1  0  0  0  0
 26 27  2  0  0  0  0
 26 54  1  0  0  0  0
 27 22  1  0  0  0  0
 27 55  1  0  0  0  0
 28  7  2  0  0  0  0
 28 56  1  0  0  0  0
 29 30  2  0  0  0  0
 29 57  1  0  0  0  0
 30 31  1  0  0  0  0
 30 58  1  0  0  0  0
M  END
>  <DRUGBANK_ID>
DB09128

>  <COMMON_NAME>
Brexpiprazole

>  <CAS_NUMBER>
913611-97-9

>  <UNII>
2J3YBM1K8C

>  <SYNONYMS>
Brexpiprazole; Lu-AF41156

$$$$
