
 OpenBabel10282417072D

 39 42  0  0  1  0  0  0  0  0999 V2000
    3.5543    1.4586    0.0000 O   0  0  0  0  0  0  0  0  0  0  0  0
    4.2688    1.8673    0.0000 O   0  0  0  0  0  0  0  0  0  0  0  0
    6.4352   -0.2200    0.0000 O   0  0  0  0  0  0  0  0  0  0  0  0
    4.7241    2.2052    0.0000 O   0  0  0  0  0  0  0  0  0  0  0  0
    2.0939   -0.2399    0.0000 O   0  0  0  0  0  0  0  0  0  0  0  0
    2.0892    0.6277    0.0000 O   0  5  0  0  0  0  0  0  0  0  0  0
    3.2679    0.5528    0.0000 O   0  0  0  0  0  0  0  0  0  0  0  0
    6.2438    2.1445    0.0000 O   0  0  0  0  0  0  0  0  0  0  0  0
    5.0195   -1.0793    0.0000 N   0  0  0  0  0  0  0  0  0  0  0  0
    3.5345   -1.0850    0.0000 N   0  3  0  0  0  0  0  0  0  0  0  0
    4.2818   -2.3396    0.0000 N   0  0  0  0  0  0  0  0  0  0  0  0
    5.0063   -0.2200    0.0000 C   0  0  3  0  0  0  0  0  0  0  0  0
    4.2918    0.1925    0.0000 C   0  0  3  0  0  0  0  0  0  0  0  0
    4.2918    1.0175    0.0000 C   0  0  3  0  0  0  0  0  0  0  0  0
    5.7208    0.1925    0.0000 C   0  0  3  0  0  0  0  0  0  0  0  0
    5.0063    1.4300    0.0000 C   0  0  3  0  0  0  0  0  0  0  0  0
    5.7208    1.0175    0.0000 C   0  0  2  0  0  0  0  0  0  0  0  0
    2.8068    0.1753    0.0000 C   0  0  1  0  0  0  0  0  0  0  0  0
    2.8068    1.0347    0.0000 C   0  0  3  0  0  0  0  0  0  0  0  0
    3.5411   -0.2256    0.0000 C   0  0  3  0  0  0  0  0  0  0  0  0
    5.4188    2.1445    0.0000 C   0  0  0  0  0  0  0  0  0  0  0  0
    4.2787   -1.5146    0.0000 C   0  0  0  0  0  0  0  0  0  0  0  0
    6.2924    0.6875    0.0000 H   0  0  0  0  0  0  0  0  0  0  0  0
    6.4352   -1.1900    0.0000 H   0  0  0  0  0  0  0  0  0  0  0  0
    5.3476    2.9483    0.0000 H   0  0  0  0  0  0  0  0  0  0  0  0
    1.2520    0.2419    0.0000 H   0  0  0  0  0  0  0  0  0  0  0  0
    3.8999    1.2886    0.0000 H   0  0  0  0  0  0  0  0  0  0  0  0
    6.7288    1.3045    0.0000 H   0  0  0  0  0  0  0  0  0  0  0  0
    5.8777   -1.5617    0.0000 H   0  0  0  0  0  0  0  0  0  0  0  0
    2.6800   -1.5740    0.0000 H   0  0  0  0  0  0  0  0  0  0  0  0
    3.4311   -2.8351    0.0000 H   0  0  0  0  0  0  0  0  0  0  0  0
    5.1362   -2.8286    0.0000 H   0  0  0  0  0  0  0  0  0  0  0  0
    5.2184    0.7275    0.0000 H   0  0  0  0  0  0  0  0  0  0  0  0
    3.3611    0.4897    0.0000 H   0  0  0  0  0  0  0  0  0  0  0  0
    5.7208   -0.8775    0.0000 H   0  0  0  0  0  0  0  0  0  0  0  0
    2.9929   -0.8784    0.0000 H   0  0  0  0  0  0  0  0  0  0  0  0
    2.4856   -0.4013    0.0000 H   0  0  0  0  0  0  0  0  0  0  0  0
    4.8838    3.0711    0.0000 H   0  0  0  0  0  0  0  0  0  0  0  0
    4.3488    2.1445    0.0000 H   0  0  0  0  0  0  0  0  0  0  0  0
  1 14  1  0  0  0  0
  1 19  1  0  0  0  0
  2 17  1  0  0  0  0
  2 19  1  0  0  0  0
  3 15  1  0  0  0  0
  3 24  1  0  0  0  0
  4 16  1  0  0  0  0
  4 25  1  0  0  0  0
  5 26  1  0  0  0  0
  6 19  1  0  0  0  0
  7 20  1  0  0  0  0
  7 27  1  0  0  0  0
  8 21  1  0  0  0  0
  8 28  1  0  0  0  0
  9 12  1  0  0  0  0
  9 22  1  0  0  0  0
  9 29  1  0  0  0  0
 10 20  1  0  0  0  0
 10 22  2  0  0  0  0
 10 30  1  0  0  0  0
 11 22  1  0  0  0  0
 11 31  1  0  0  0  0
 11 32  1  0  0  0  0
 12 13  1  0  0  0  0
 12 15  1  0  0  0  0
 12 18  1  0  0  0  0
 13 14  1  0  0  0  0
 13 20  1  0  0  0  0
 13 33  1  0  0  0  0
 14 16  1  0  0  0  0
 14 34  1  0  0  0  0
 15 17  1  0  0  0  0
 15 35  1  0  0  0  0
 16 17  1  0  0  0  0
 16 21  1  0  0  0  0
 17 23  1  1  0  0  0
 18  5  1  0  0  0  0
 18 19  1  0  0  0  0
 18 36  1  1  0  0  0
 20 37  1  0  0  0  0
 21 38  1  0  0  0  0
 21 39  1  0  0  0  0
M  CHG  2   6  -1  10   1
M  END
>  <DRUGBANK_ID>
DB05232

>  <COMMON_NAME>
Tetrodotoxin

>  <CAS_NUMBER>
4368-28-9

>  <UNII>
3KUM2721U9

>  <SYNONYMS>
Tetrodotoxin

$$$$
