
 OpenBabel10282417072D

 60 63  0  0  1  0  0  0  0  0999 V2000
    0.7144    3.0938    0.0000 C   0  0  0  0  0  0  0  0  0  0  0  0
    0.0000    2.6812    0.0000 C   0  0  1  0  0  0  0  0  0  0  0  0
   -0.7145    3.0938    0.0000 C   0  0  0  0  0  0  0  0  0  0  0  0
   -1.4290    2.6812    0.0000 C   0  0  0  0  0  0  0  0  0  0  0  0
   -1.4290    1.8562    0.0000 N   0  0  0  0  0  0  0  0  0  0  0  0
   -2.1434    1.4438    0.0000 C   0  0  0  0  0  0  0  0  0  0  0  0
   -2.1434    0.6187    0.0000 N   0  0  0  0  0  0  0  0  0  0  0  0
   -2.8579    0.2062    0.0000 C   0  0  0  0  0  0  0  0  0  0  0  0
   -3.5725    0.6187    0.0000 N   0  0  0  0  0  0  0  0  0  0  0  0
   -3.5725    1.4437    0.0000 C   0  0  0  0  0  0  0  0  0  0  0  0
   -4.2869    1.8562    0.0000 N   0  0  0  0  0  0  0  0  0  0  0  0
   -2.8579    1.8562    0.0000 C   0  0  0  0  0  0  0  0  0  0  0  0
   -2.8579    2.6812    0.0000 F   0  0  0  0  0  0  0  0  0  0  0  0
   -0.7145    1.4438    0.0000 C   0  0  0  0  0  0  0  0  0  0  0  0
    0.0000    1.8562    0.0000 C   0  0  2  0  0  0  0  0  0  0  0  0
    0.7144    1.4438    0.0000 N   0  0  0  0  0  0  0  0  0  0  0  0
    1.4289    1.8562    0.0000 C   0  0  0  0  0  0  0  0  0  0  0  0
    2.1434    1.4438    0.0000 C   0  0  0  0  0  0  0  0  0  0  0  0
    2.1434    0.6187    0.0000 C   0  0  0  0  0  0  0  0  0  0  0  0
    1.4289    0.2062    0.0000 C   0  0  1  0  0  0  0  0  0  0  0  0
    1.4289   -0.6187    0.0000 N   0  0  0  0  0  0  0  0  0  0  0  0
    2.1434   -1.0312    0.0000 C   0  0  0  0  0  0  0  0  0  0  0  0
    2.8579   -0.6187    0.0000 C   0  0  0  0  0  0  0  0  0  0  0  0
    3.5724   -1.0312    0.0000 C   0  0  0  0  0  0  0  0  0  0  0  0
    4.2869   -0.6187    0.0000 Cl  0  0  0  0  0  0  0  0  0  0  0  0
    3.5724   -1.8562    0.0000 C   0  0  0  0  0  0  0  0  0  0  0  0
    2.8579   -2.2688    0.0000 C   0  0  0  0  0  0  0  0  0  0  0  0
    2.8579   -3.0938    0.0000 C   0  0  0  0  0  0  0  0  0  0  0  0
    2.1434   -3.5063    0.0000 F   0  0  0  0  0  0  0  0  0  0  0  0
    2.8579   -3.9188    0.0000 F   0  0  0  0  0  0  0  0  0  0  0  0
    3.5724   -3.5063    0.0000 F   0  0  0  0  0  0  0  0  0  0  0  0
    2.1434   -1.8562    0.0000 C   0  0  0  0  0  0  0  0  0  0  0  0
    0.7144    0.6187    0.0000 C   0  0  0  0  0  0  0  0  0  0  0  0
    0.0000    0.2062    0.0000 O   0  0  0  0  0  0  0  0  0  0  0  0
    0.7144    3.9188    0.0000 O   0  0  0  0  0  0  0  0  0  0  0  0
    1.4289    2.6812    0.0000 N   0  0  0  0  0  0  0  0  0  0  0  0
   -0.0000    3.7512    0.0000 H   0  0  0  0  0  0  0  0  0  0  0  0
   -0.7145    4.1638    0.0000 H   0  0  0  0  0  0  0  0  0  0  0  0
   -1.6412    3.6288    0.0000 H   0  0  0  0  0  0  0  0  0  0  0  0
   -2.3557    3.2162    0.0000 H   0  0  0  0  0  0  0  0  0  0  0  0
   -2.3556    2.1462    0.0000 H   0  0  0  0  0  0  0  0  0  0  0  0
   -2.8579   -0.8258    0.0000 H   0  0  0  0  0  0  0  0  0  0  0  0
   -4.2869    2.8407    0.0000 H   0  0  0  0  0  0  0  0  0  0  0  0
   -5.1395    1.3640    0.0000 H   0  0  0  0  0  0  0  0  0  0  0  0
   -0.7145    0.3738    0.0000 H   0  0  0  0  0  0  0  0  0  0  0  0
    0.2121    0.9087    0.0000 H   0  0  0  0  0  0  0  0  0  0  0  0
   -0.0000    0.7862    0.0000 H   0  0  0  0  0  0  0  0  0  0  0  0
    1.4289    2.9262    0.0000 H   0  0  0  0  0  0  0  0  0  0  0  0
    2.3555    2.3913    0.0000 H   0  0  0  0  0  0  0  0  0  0  0  0
    3.0700    1.9789    0.0000 H   0  0  0  0  0  0  0  0  0  0  0  0
    3.0701    0.9088    0.0000 H   0  0  0  0  0  0  0  0  0  0  0  0
    3.0700    0.0837    0.0000 H   0  0  0  0  0  0  0  0  0  0  0  0
    2.1434   -0.4513    0.0000 H   0  0  0  0  0  0  0  0  0  0  0  0
    2.3555   -0.3288    0.0000 H   0  0  0  0  0  0  0  0  0  0  0  0
    0.5763   -1.1110    0.0000 H   0  0  0  0  0  0  0  0  0  0  0  0
    2.8579    0.4133    0.0000 H   0  0  0  0  0  0  0  0  0  0  0  0
    4.4662   -2.3722    0.0000 H   0  0  0  0  0  0  0  0  0  0  0  0
    1.2496   -2.3722    0.0000 H   0  0  0  0  0  0  0  0  0  0  0  0
    1.4288    1.6967    0.0000 H   0  0  0  0  0  0  0  0  0  0  0  0
    2.2815    3.1734    0.0000 H   0  0  0  0  0  0  0  0  0  0  0  0
  1 35  2  0  0  0  0
  1 36  1  0  0  0  0
  2  1  1  0  0  0  0
  2  3  1  0  0  0  0
  2 15  1  0  0  0  0
  2 37  1  1  0  0  0
  3  4  1  0  0  0  0
  3 38  1  0  0  0  0
  3 39  1  0  0  0  0
  4  5  1  0  0  0  0
  4 40  1  0  0  0  0
  4 41  1  0  0  0  0
  5  6  1  0  0  0  0
  6  7  2  0  0  0  0
  6 12  1  0  0  0  0
  7  8  1  0  0  0  0
  8  9  2  0  0  0  0
  8 42  1  0  0  0  0
 10  9  1  0  0  0  0
 10 11  1  0  0  0  0
 11 43  1  0  0  0  0
 11 44  1  0  0  0  0
 12 10  2  0  0  0  0
 12 13  1  0  0  0  0
 14  5  1  0  0  0  0
 14 45  1  0  0  0  0
 14 46  1  0  0  0  0
 15 14  1  0  0  0  0
 15 16  1  0  0  0  0
 15 47  1  6  0  0  0
 16 17  1  0  0  0  0
 16 33  1  0  0  0  0
 17 18  1  0  0  0  0
 17 48  1  0  0  0  0
 17 49  1  0  0  0  0
 18 19  1  0  0  0  0
 18 50  1  0  0  0  0
 18 51  1  0  0  0  0
 19 52  1  0  0  0  0
 19 53  1  0  0  0  0
 20 19  1  0  0  0  0
 20 21  1  0  0  0  0
 20 54  1  6  0  0  0
 21 22  1  0  0  0  0
 21 55  1  0  0  0  0
 22 23  1  0  0  0  0
 22 32  2  0  0  0  0
 23 24  2  0  0  0  0
 23 56  1  0  0  0  0
 24 25  1  0  0  0  0
 24 26  1  0  0  0  0
 26 57  1  0  0  0  0
 27 26  2  0  0  0  0
 27 28  1  0  0  0  0
 28 29  1  0  0  0  0
 28 30  1  0  0  0  0
 28 31  1  0  0  0  0
 32 27  1  0  0  0  0
 32 58  1  0  0  0  0
 33 20  1  0  0  0  0
 33 34  2  0  0  0  0
 36 59  1  0  0  0  0
 36 60  1  0  0  0  0
M  END
>  <DRUGBANK_ID>
DB16657

>  <COMMON_NAME>
Vecabrutinib

>  <CAS_NUMBER>
1510829-06-7

>  <UNII>
PQ7O0OB5GU

$$$$
