
 OpenBabel10282417072D

 26 25  0  0  0  0  0  0  0  0999 V2000
   -1.4289    0.1650    0.0000 C   0  0  0  0  0  0  0  0  0  0  0  0
   -0.7145   -0.2475    0.0000 C   0  0  0  0  0  0  0  0  0  0  0  0
    0.0000    0.1650    0.0000 C   0  0  0  0  0  0  0  0  0  0  0  0
    0.7145   -0.2475    0.0000 C   0  0  0  0  0  0  0  0  0  0  0  0
    1.4289    0.1650    0.0000 C   0  0  0  0  0  0  0  0  0  0  0  0
    0.0000   -1.4850    0.0000 C   0  0  0  0  0  0  0  0  0  0  0  0
    0.0000   -2.3100    0.0000 C   0  0  0  0  0  0  0  0  0  0  0  0
    0.7145   -1.0725    0.0000 C   0  0  0  0  0  0  0  0  0  0  0  0
    2.1434   -0.2475    0.0000 O   0  0  0  0  0  0  0  0  0  0  0  0
    1.4289    0.9900    0.0000 O   0  0  0  0  0  0  0  0  0  0  0  0
   -1.4289    1.2350    0.0000 H   0  0  0  0  0  0  0  0  0  0  0  0
   -2.3556   -0.3700    0.0000 H   0  0  0  0  0  0  0  0  0  0  0  0
   -2.3555    0.7000    0.0000 H   0  0  0  0  0  0  0  0  0  0  0  0
   -0.7145   -1.3175    0.0000 H   0  0  0  0  0  0  0  0  0  0  0  0
    0.2121   -0.7825    0.0000 H   0  0  0  0  0  0  0  0  0  0  0  0
    0.0000    1.2350    0.0000 H   0  0  0  0  0  0  0  0  0  0  0  0
    0.9266    0.7000    0.0000 H   0  0  0  0  0  0  0  0  0  0  0  0
    1.6412   -0.7825    0.0000 H   0  0  0  0  0  0  0  0  0  0  0  0
   -0.9266   -0.9500    0.0000 H   0  0  0  0  0  0  0  0  0  0  0  0
    0.0000   -0.4150    0.0000 H   0  0  0  0  0  0  0  0  0  0  0  0
   -0.9266   -2.8450    0.0000 H   0  0  0  0  0  0  0  0  0  0  0  0
    0.9266   -2.8450    0.0000 H   0  0  0  0  0  0  0  0  0  0  0  0
    0.0000   -3.3800    0.0000 H   0  0  0  0  0  0  0  0  0  0  0  0
    1.6411   -1.6075    0.0000 H   0  0  0  0  0  0  0  0  0  0  0  0
    0.7145   -2.1425    0.0000 H   0  0  0  0  0  0  0  0  0  0  0  0
    2.1434   -1.1845    0.0000 H   0  0  0  0  0  0  0  0  0  0  0  0
  1 11  1  0  0  0  0
  1 12  1  0  0  0  0
  1 13  1  0  0  0  0
  2  1  1  0  0  0  0
  2  3  1  0  0  0  0
  2 14  1  0  0  0  0
  2 15  1  0  0  0  0
  3  4  1  0  0  0  0
  3 16  1  0  0  0  0
  3 17  1  0  0  0  0
  4  8  1  0  0  0  0
  4  5  1  0  0  0  0
  4 18  1  0  0  0  0
  5  9  1  0  0  0  0
  5 10  2  0  0  0  0
  6  7  1  0  0  0  0
  6  8  1  0  0  0  0
  6 19  1  0  0  0  0
  6 20  1  0  0  0  0
  7 21  1  0  0  0  0
  7 22  1  0  0  0  0
  7 23  1  0  0  0  0
  8 24  1  0  0  0  0
  8 25  1  0  0  0  0
  9 26  1  0  0  0  0
M  END
>  <DRUGBANK_ID>
DB00313

>  <SECONDARY_ACCESSION_NUMBERS>
APRD00256; DB00510; APRD00066

>  <COMMON_NAME>
Valproic acid

>  <CAS_NUMBER>
99-66-1

>  <UNII>
614OI1Z5WI

>  <SYNONYMS>
2-n-propyl-n-valeric acid; 2-propyl-pentanoic acid; 2-Propylpentanoic Acid; 2-Propylvaleric Acid; 4-heptanecarboxylic acid; acide valproïque; ácido valproico; acidum valproicum; di-n-propylacetic acid; Di-n-propylessigsäure; Dipropylacetic acid; DPA; n-DPA; Valproate; Valproic acid; Valproinsäure; VPA

$$$$
