
 OpenBabel10282417072D

 49 52  0  0  0  0  0  0  0  0999 V2000
    4.6906   -0.8351    0.0000 C   0  0  0  0  0  0  0  0  0  0  0  0
    4.4360   -0.0513    0.0000 C   0  0  0  0  0  0  0  0  0  0  0  0
    3.6467    0.2051    0.0000 C   0  0  0  0  0  0  0  0  0  0  0  0
    3.6467    1.0349    0.0000 C   0  0  0  0  0  0  0  0  0  0  0  0
    4.4360    1.2913    0.0000 N   0  0  0  0  0  0  0  0  0  0  0  0
    4.9237    0.6199    0.0000 N   0  0  0  0  0  0  0  0  0  0  0  0
    2.9314    1.4534    0.0000 C   0  0  0  0  0  0  0  0  0  0  0  0
    2.2162    1.0349    0.0000 C   0  0  0  0  0  0  0  0  0  0  0  0
    2.2162    0.2062    0.0000 C   0  0  0  0  0  0  0  0  0  0  0  0
    2.9314   -0.2041    0.0000 C   0  0  0  0  0  0  0  0  0  0  0  0
    1.5032   -0.2069    0.0000 C   0  0  0  0  0  0  0  0  0  0  0  0
    0.7883    0.2031    0.0000 C   0  0  0  0  0  0  0  0  0  0  0  0
    0.0735   -0.2068    0.0000 C   0  0  0  0  0  0  0  0  0  0  0  0
    0.0735   -1.0351    0.0000 C   0  0  0  0  0  0  0  0  0  0  0  0
    0.7881   -1.4534    0.0000 N   0  0  0  0  0  0  0  0  0  0  0  0
    1.5032   -1.0352    0.0000 C   0  0  0  0  0  0  0  0  0  0  0  0
   -0.6395    0.2062    0.0000 O   0  0  0  0  0  0  0  0  0  0  0  0
   -1.3537   -0.2046    0.0000 C   0  0  0  0  0  0  0  0  0  0  0  0
   -2.0668    0.2084    0.0000 C   0  0  1  0  0  0  0  0  0  0  0  0
   -2.0668    1.0324    0.0000 N   0  0  0  0  0  0  0  0  0  0  0  0
   -2.7810   -0.2025    0.0000 C   0  0  0  0  0  0  0  0  0  0  0  0
   -3.4940    0.2105    0.0000 C   0  0  0  0  0  0  0  0  0  0  0  0
   -3.4940    1.0389    0.0000 C   0  0  0  0  0  0  0  0  0  0  0  0
   -4.2106    1.4476    0.0000 C   0  0  0  0  0  0  0  0  0  0  0  0
   -4.9237    1.0325    0.0000 C   0  0  0  0  0  0  0  0  0  0  0  0
   -4.9237    0.2084    0.0000 C   0  0  0  0  0  0  0  0  0  0  0  0
   -4.2107   -0.2046    0.0000 C   0  0  0  0  0  0  0  0  0  0  0  0
    3.9746   -1.6302    0.0000 H   0  0  0  0  0  0  0  0  0  0  0  0
    5.7372   -1.0577    0.0000 H   0  0  0  0  0  0  0  0  0  0  0  0
    5.0212   -1.8528    0.0000 H   0  0  0  0  0  0  0  0  0  0  0  0
    4.7403    2.2276    0.0000 H   0  0  0  0  0  0  0  0  0  0  0  0
    2.9314    2.4854    0.0000 H   0  0  0  0  0  0  0  0  0  0  0  0
    1.3210    1.5483    0.0000 H   0  0  0  0  0  0  0  0  0  0  0  0
    2.9308   -1.2361    0.0000 H   0  0  0  0  0  0  0  0  0  0  0  0
    0.7883    1.2351    0.0000 H   0  0  0  0  0  0  0  0  0  0  0  0
   -0.8218   -1.5484    0.0000 H   0  0  0  0  0  0  0  0  0  0  0  0
    2.3984   -1.5487    0.0000 H   0  0  0  0  0  0  0  0  0  0  0  0
   -1.3553   -1.2746    0.0000 H   0  0  0  0  0  0  0  0  0  0  0  0
   -2.2811   -0.7383    0.0000 H   0  0  0  0  0  0  0  0  0  0  0  0
   -1.1398    0.7428    0.0000 H   0  0  0  0  0  0  0  0  0  0  0  0
   -1.1835    1.5424    0.0000 H   0  0  0  0  0  0  0  0  0  0  0  0
   -2.9501    1.5424    0.0000 H   0  0  0  0  0  0  0  0  0  0  0  0
   -2.7826   -1.2725    0.0000 H   0  0  0  0  0  0  0  0  0  0  0  0
   -3.7084   -0.7362    0.0000 H   0  0  0  0  0  0  0  0  0  0  0  0
   -2.6016    1.5573    0.0000 H   0  0  0  0  0  0  0  0  0  0  0  0
   -4.2152    2.4796    0.0000 H   0  0  0  0  0  0  0  0  0  0  0  0
   -5.8184    1.5469    0.0000 H   0  0  0  0  0  0  0  0  0  0  0  0
   -5.8178   -0.3070    0.0000 H   0  0  0  0  0  0  0  0  0  0  0  0
   -4.2107   -1.2366    0.0000 H   0  0  0  0  0  0  0  0  0  0  0  0
  1  2  1  0  0  0  0
  1 28  1  0  0  0  0
  1 29  1  0  0  0  0
  1 30  1  0  0  0  0
  2  3  1  0  0  0  0
  2  6  2  0  0  0  0
  4  3  2  0  0  0  0
  4  7  1  0  0  0  0
  5  4  1  0  0  0  0
  5 31  1  0  0  0  0
  6  5  1  0  0  0  0
  7  8  2  0  0  0  0
  7 32  1  0  0  0  0
  8  9  1  0  0  0  0
  8 33  1  0  0  0  0
  9 10  2  0  0  0  0
  9 11  1  0  0  0  0
 10  3  1  0  0  0  0
 10 34  1  0  0  0  0
 11 12  2  0  0  0  0
 11 16  1  0  0  0  0
 12 35  1  0  0  0  0
 13 12  1  0  0  0  0
 13 17  1  0  0  0  0
 14 13  2  0  0  0  0
 14 36  1  0  0  0  0
 15 14  1  0  0  0  0
 16 15  2  0  0  0  0
 16 37  1  0  0  0  0
 17 18  1  0  0  0  0
 18 19  1  0  0  0  0
 18 38  1  0  0  0  0
 18 39  1  0  0  0  0
 19 20  1  0  0  0  0
 19 21  1  0  0  0  0
 19 40  1  1  0  0  0
 20 41  1  0  0  0  0
 20 42  1  0  0  0  0
 21 22  1  0  0  0  0
 21 43  1  0  0  0  0
 21 44  1  0  0  0  0
 22 23  2  0  0  0  0
 22 27  1  0  0  0  0
 23 45  1  0  0  0  0
 24 23  1  0  0  0  0
 24 46  1  0  0  0  0
 25 24  2  0  0  0  0
 25 47  1  0  0  0  0
 26 25  1  0  0  0  0
 26 48  1  0  0  0  0
 27 26  2  0  0  0  0
 27 49  1  0  0  0  0
M  END
>  <DRUGBANK_ID>
DB08568

>  <COMMON_NAME>
A-674563

>  <CAS_NUMBER>
552325-73-2

>  <UNII>
3W2X0WGW6C

>  <SYNONYMS>
(alphaS)-alpha-(((5-(3-Methyl-1H-indazol-5-yl)-3-pyridinyl)oxy)methyl)benzeneethanamine

$$$$
