1223
 OpenBabel10282417072D

 54 55  0  0  0  0  0  0  0  0999 V2000
    6.5489    9.2706    0.0000 O   0  0  0  0  0  0  0  0  0  0  0  0
    6.5489    3.8116    0.0000 O   0  0  0  0  0  0  0  0  0  0  0  0
    5.1199    6.7956    0.0000 O   0  0  0  0  0  0  0  0  0  0  0  0
    5.1199    1.3365    0.0000 O   0  0  0  0  0  0  0  0  0  0  0  0
    6.5489    6.7956    0.0000 N   0  0  0  0  0  0  0  0  0  0  0  0
    6.5489    1.3365    0.0000 N   0  0  0  0  0  0  0  0  0  0  0  0
    5.8344    8.0331    0.0000 N   0  0  0  0  0  0  0  0  0  0  0  0
    5.8344    2.5741    0.0000 N   0  0  0  0  0  0  0  0  0  0  0  0
    8.0440    8.2846    0.0000 N   0  0  0  0  0  0  0  0  0  0  0  0
    8.0440    2.8254    0.0000 N   0  0  0  0  0  0  0  0  0  0  0  0
    8.0440    6.9567    0.0000 N   0  0  0  0  0  0  0  0  0  0  0  0
    8.0440    1.4977    0.0000 N   0  0  0  0  0  0  0  0  0  0  0  0
    2.5864    4.8416    0.0000 N   0  0  0  0  0  0  0  0  0  0  0  0
    0.4430    4.4291    0.0000 N   0  0  0  0  0  0  0  0  0  0  0  0
    7.2634    7.2081    0.0000 C   0  0  0  0  0  0  0  0  0  0  0  0
    7.2634    1.7490    0.0000 C   0  0  0  0  0  0  0  0  0  0  0  0
    7.2634    8.0331    0.0000 C   0  0  0  0  0  0  0  0  0  0  0  0
    7.2634    2.5741    0.0000 C   0  0  0  0  0  0  0  0  0  0  0  0
    6.5489    8.4456    0.0000 C   0  0  0  0  0  0  0  0  0  0  0  0
    6.5489    2.9866    0.0000 C   0  0  0  0  0  0  0  0  0  0  0  0
    5.8344    7.2081    0.0000 C   0  0  0  0  0  0  0  0  0  0  0  0
    5.8344    1.7490    0.0000 C   0  0  0  0  0  0  0  0  0  0  0  0
    6.5489    5.9706    0.0000 C   0  0  0  0  0  0  0  0  0  0  0  0
    6.5489    0.5115    0.0000 C   0  0  0  0  0  0  0  0  0  0  0  0
    5.1199    8.4456    0.0000 C   0  0  0  0  0  0  0  0  0  0  0  0
    5.1199    2.9866    0.0000 C   0  0  0  0  0  0  0  0  0  0  0  0
    8.5255    7.6206    0.0000 C   0  0  0  0  0  0  0  0  0  0  0  0
    8.5255    2.1615    0.0000 C   0  0  0  0  0  0  0  0  0  0  0  0
    1.8720    4.4291    0.0000 C   0  0  0  0  0  0  0  0  0  0  0  0
    1.1575    4.8416    0.0000 C   0  0  0  0  0  0  0  0  0  0  0  0
    8.3498    9.2204    0.0000 H   0  0  0  0  0  0  0  0  0  0  0  0
    8.3499    3.7612    0.0000 H   0  0  0  0  0  0  0  0  0  0  0  0
    3.4698    4.3316    0.0000 H   0  0  0  0  0  0  0  0  0  0  0  0
    2.5864    5.8616    0.0000 H   0  0  0  0  0  0  0  0  0  0  0  0
   -0.4403    4.9391    0.0000 H   0  0  0  0  0  0  0  0  0  0  0  0
    0.4430    3.4091    0.0000 H   0  0  0  0  0  0  0  0  0  0  0  0
    5.6223    5.4356    0.0000 H   0  0  0  0  0  0  0  0  0  0  0  0
    7.4755    5.4356    0.0000 H   0  0  0  0  0  0  0  0  0  0  0  0
    6.5489    4.9006    0.0000 H   0  0  0  0  0  0  0  0  0  0  0  0
    5.6223   -0.0235    0.0000 H   0  0  0  0  0  0  0  0  0  0  0  0
    7.4755   -0.0235    0.0000 H   0  0  0  0  0  0  0  0  0  0  0  0
    6.5489   -0.5585    0.0000 H   0  0  0  0  0  0  0  0  0  0  0  0
    5.1199    9.5156    0.0000 H   0  0  0  0  0  0  0  0  0  0  0  0
    4.1933    7.9106    0.0000 H   0  0  0  0  0  0  0  0  0  0  0  0
    4.1932    8.9806    0.0000 H   0  0  0  0  0  0  0  0  0  0  0  0
    5.1199    4.0566    0.0000 H   0  0  0  0  0  0  0  0  0  0  0  0
    4.1933    2.4516    0.0000 H   0  0  0  0  0  0  0  0  0  0  0  0
    4.1932    3.5216    0.0000 H   0  0  0  0  0  0  0  0  0  0  0  0
    9.5575    7.6206    0.0000 H   0  0  0  0  0  0  0  0  0  0  0  0
    9.5575    2.1615    0.0000 H   0  0  0  0  0  0  0  0  0  0  0  0
    1.8720    3.3591    0.0000 H   0  0  0  0  0  0  0  0  0  0  0  0
    0.9454    3.8941    0.0000 H   0  0  0  0  0  0  0  0  0  0  0  0
    1.1575    5.9116    0.0000 H   0  0  0  0  0  0  0  0  0  0  0  0
    2.0841    5.3766    0.0000 H   0  0  0  0  0  0  0  0  0  0  0  0
  1 19  2  0  0  0  0
  2 20  2  0  0  0  0
  3 21  2  0  0  0  0
  4 22  2  0  0  0  0
  5 15  1  0  0  0  0
  5 21  1  0  0  0  0
  5 23  1  0  0  0  0
  6 16  1  0  0  0  0
  6 22  1  0  0  0  0
  6 24  1  0  0  0  0
  7 19  1  0  0  0  0
  7 21  1  0  0  0  0
  7 25  1  0  0  0  0
  8 20  1  0  0  0  0
  8 22  1  0  0  0  0
  8 26  1  0  0  0  0
  9 17  1  0  0  0  0
  9 27  1  0  0  0  0
  9 31  1  0  0  0  0
 10 18  1  0  0  0  0
 10 28  1  0  0  0  0
 10 32  1  0  0  0  0
 11 15  1  0  0  0  0
 11 27  2  0  0  0  0
 12 16  1  0  0  0  0
 12 28  2  0  0  0  0
 13 29  1  0  0  0  0
 13 33  1  0  0  0  0
 13 34  1  0  0  0  0
 14 30  1  0  0  0  0
 14 35  1  0  0  0  0
 14 36  1  0  0  0  0
 15 17  2  0  0  0  0
 16 18  2  0  0  0  0
 17 19  1  0  0  0  0
 18 20  1  0  0  0  0
 23 37  1  0  0  0  0
 23 38  1  0  0  0  0
 23 39  1  0  0  0  0
 24 40  1  0  0  0  0
 24 41  1  0  0  0  0
 24 42  1  0  0  0  0
 25 43  1  0  0  0  0
 25 44  1  0  0  0  0
 25 45  1  0  0  0  0
 26 46  1  0  0  0  0
 26 47  1  0  0  0  0
 26 48  1  0  0  0  0
 27 49  1  0  0  0  0
 28 50  1  0  0  0  0
 29 30  1  0  0  0  0
 29 51  1  0  0  0  0
 29 52  1  0  0  0  0
 30 53  1  0  0  0  0
 30 54  1  0  0  0  0
M  END
>  <DRUGBANK_ID>
DB01223

>  <SECONDARY_ACCESSION_NUMBERS>
APRD00329

>  <COMMON_NAME>
Aminophylline

>  <CAS_NUMBER>
317-34-0

>  <UNII>
27Y3KJK423

>  <SYNONYMS>
Aminofilina; Aminophyllin; Aminophylline; Aminophyllinum; Theophyline ethylenediamine; Theophylline ethylenediamine

$$$$
