
 OpenBabel10282417072D

 30 31  0  0  0  0  0  0  0  0999 V2000
   -0.7092    0.8242    0.0000 C   0  0  0  0  0  0  0  0  0  0  0  0
   -0.7092    0.0000    0.0000 C   0  0  0  0  0  0  0  0  0  0  0  0
   -1.4375    1.2459    0.0000 N   0  0  0  0  0  0  0  0  0  0  0  0
   -0.0191   -0.4217    0.0000 N   0  0  0  0  0  0  0  0  0  0  0  0
   -0.0191    1.2459    0.0000 N   0  0  0  0  0  0  0  0  0  0  0  0
   -2.1658    0.0000    0.0000 N   0  0  0  0  0  0  0  0  0  0  0  0
   -2.1658    0.8242    0.0000 C   0  0  0  0  0  0  0  0  0  0  0  0
   -1.4375   -0.4217    0.0000 C   0  0  0  0  0  0  0  0  0  0  0  0
    0.7091    0.0000    0.0000 C   0  0  0  0  0  0  0  0  0  0  0  0
    0.7091    0.8242    0.0000 C   0  0  0  0  0  0  0  0  0  0  0  0
   -1.4375   -1.2459    0.0000 O   0  0  0  0  0  0  0  0  0  0  0  0
   -2.8749    1.2459    0.0000 N   0  0  0  0  0  0  0  0  0  0  0  0
    1.4375   -0.4217    0.0000 C   0  0  2  0  0  0  0  0  0  0  0  0
    2.1466    0.0000    0.0000 C   0  0  2  0  0  0  0  0  0  0  0  0
    2.1466    0.8242    0.0000 C   0  0  0  0  0  0  0  0  0  0  0  0
    1.4375   -1.2459    0.0000 O   0  0  0  0  0  0  0  0  0  0  0  0
    2.8749   -0.4024    0.0000 O   0  0  0  0  0  0  0  0  0  0  0  0
   -1.4375    2.2304    0.0000 H   0  0  0  0  0  0  0  0  0  0  0  0
   -0.0307    2.2303    0.0000 H   0  0  0  0  0  0  0  0  0  0  0  0
    1.6361    1.3586    0.0000 H   0  0  0  0  0  0  0  0  0  0  0  0
    1.6356    0.2889    0.0000 H   0  0  0  0  0  0  0  0  0  0  0  0
   -2.8622    2.2303    0.0000 H   0  0  0  0  0  0  0  0  0  0  0  0
   -3.7338    0.7647    0.0000 H   0  0  0  0  0  0  0  0  0  0  0  0
    0.5105   -0.9561    0.0000 H   0  0  0  0  0  0  0  0  0  0  0  0
    2.1636   -1.0699    0.0000 H   0  0  0  0  0  0  0  0  0  0  0  0
    3.0732    1.3592    0.0000 H   0  0  0  0  0  0  0  0  0  0  0  0
    1.2200    1.3592    0.0000 H   0  0  0  0  0  0  0  0  0  0  0  0
    2.1466    1.8942    0.0000 H   0  0  0  0  0  0  0  0  0  0  0  0
    0.5975   -1.7309    0.0000 H   0  0  0  0  0  0  0  0  0  0  0  0
    2.8932   -1.3722    0.0000 H   0  0  0  0  0  0  0  0  0  0  0  0
  2  1  2  0  0  0  0
  3  1  1  0  0  0  0
  3 18  1  0  0  0  0
  4  2  1  0  0  0  0
  5  1  1  0  0  0  0
  5 19  1  0  0  0  0
  7  3  1  0  0  0  0
  7  6  2  0  0  0  0
  8  2  1  0  0  0  0
  8  6  1  0  0  0  0
  9  4  2  0  0  0  0
 10  5  1  0  0  0  0
 10  9  1  0  0  0  0
 10 20  1  0  0  0  0
 10 21  1  0  0  0  0
 11  8  2  0  0  0  0
 12  7  1  0  0  0  0
 12 22  1  0  0  0  0
 12 23  1  0  0  0  0
 13  9  1  0  0  0  0
 13 16  1  0  0  0  0
 13 24  1  1  0  0  0
 14 13  1  0  0  0  0
 14 15  1  0  0  0  0
 14 17  1  0  0  0  0
 14 25  1  1  0  0  0
 15 26  1  0  0  0  0
 15 27  1  0  0  0  0
 15 28  1  0  0  0  0
 16 29  1  0  0  0  0
 17 30  1  0  0  0  0
M  END
>  <DRUGBANK_ID>
DB04400

>  <SECONDARY_ACCESSION_NUMBERS>
EXPT01697; DB03271; EXPT01698

>  <COMMON_NAME>
L-erythro-7,8-dihydrobiopterin

>  <CAS_NUMBER>
6779-87-9

>  <SYNONYMS>
Dihydrobiopterin; L-erythro-q-Dihydrobiopterin; q-BH2; Quinonoid dihydrobiopterin

$$$$
