
 OpenBabel10282417072D

 17 17  0  0  0  0  0  0  0  0999 V2000
    4.6717  -11.9736    0.0000 C   0  0  0  0  0  0  0  0  0  0  0  0
    4.4159  -12.7649    0.0000 C   0  0  0  0  0  0  0  0  0  0  0  0
    4.0013  -11.4864    0.0000 N   0  0  0  0  0  0  0  0  0  0  0  0
    3.5832  -12.7649    0.0000 N   0  0  0  0  0  0  0  0  0  0  0  0
    3.3275  -11.9736    0.0000 C   0  0  0  0  0  0  0  0  0  0  0  0
    5.1273  -13.1730    0.0000 C   0  0  0  0  0  0  0  0  0  0  0  0
    5.8413  -12.7597    0.0000 C   0  0  0  0  0  0  0  0  0  0  0  0
    6.5553  -13.1689    0.0000 N   0  0  0  0  0  0  0  0  0  0  0  0
    5.6530  -11.6540    0.0000 H   0  0  0  0  0  0  0  0  0  0  0  0
    4.0025  -10.5019    0.0000 H   0  0  0  0  0  0  0  0  0  0  0  0
    2.3466  -11.6528    0.0000 H   0  0  0  0  0  0  0  0  0  0  0  0
    5.1294  -14.2430    0.0000 H   0  0  0  0  0  0  0  0  0  0  0  0
    6.0548  -13.7066    0.0000 H   0  0  0  0  0  0  0  0  0  0  0  0
    5.8390  -11.6897    0.0000 H   0  0  0  0  0  0  0  0  0  0  0  0
    6.7665  -12.2222    0.0000 H   0  0  0  0  0  0  0  0  0  0  0  0
    6.5586  -14.1889    0.0000 H   0  0  0  0  0  0  0  0  0  0  0  0
    7.4370  -12.6561    0.0000 H   0  0  0  0  0  0  0  0  0  0  0  0
  1  2  2  0  0  0  0
  1  3  1  0  0  0  0
  1  9  1  0  0  0  0
  2  4  1  0  0  0  0
  2  6  1  0  0  0  0
  3  5  1  0  0  0  0
  3 10  1  0  0  0  0
  4  5  2  0  0  0  0
  5 11  1  0  0  0  0
  6  7  1  0  0  0  0
  6 12  1  0  0  0  0
  6 13  1  0  0  0  0
  7  8  1  0  0  0  0
  7 14  1  0  0  0  0
  7 15  1  0  0  0  0
  8 16  1  0  0  0  0
  8 17  1  0  0  0  0
M  END
>  <DRUGBANK_ID>
DB05381

>  <SECONDARY_ACCESSION_NUMBERS>
APRD01015; DB05891; DB11320; DB00667

>  <COMMON_NAME>
Histamine

>  <CAS_NUMBER>
51-45-6

>  <UNII>
820484N8I3

>  <SYNONYMS>
1H-Imidazole-4-ethanamine; 2-(4-imidazolyl)ethylamine; 4-imidazoleethylamine; 5-imidazoleethylamine; beta-aminoethylglyoxaline; beta-aminoethylimidazole

$$$$
