
 OpenBabel10282417072D

 27 29  0  0  0  0  0  0  0  0999 V2000
    2.0636   -0.8249    0.0000 C   0  0  0  0  0  0  0  0  0  0  0  0
    1.6511   -0.1105    0.0000 C   0  0  0  0  0  0  0  0  0  0  0  0
    2.8886   -0.8249    0.0000 C   0  0  0  0  0  0  0  0  0  0  0  0
    2.0636    0.6039    0.0000 C   0  0  0  0  0  0  0  0  0  0  0  0
    3.3012   -0.1105    0.0000 C   0  0  0  0  0  0  0  0  0  0  0  0
    2.8886    0.6039    0.0000 C   0  0  0  0  0  0  0  0  0  0  0  0
    0.8261   -0.1105    0.0000 C   0  0  0  0  0  0  0  0  0  0  0  0
    0.3412   -0.7779    0.0000 N   0  0  0  0  0  0  0  0  0  0  0  0
    0.3412    0.5569    0.0000 O   0  0  0  0  0  0  0  0  0  0  0  0
   -0.4433   -0.5230    0.0000 C   0  0  0  0  0  0  0  0  0  0  0  0
   -0.4433    0.3019    0.0000 C   0  0  0  0  0  0  0  0  0  0  0  0
   -1.8723    0.3019    0.0000 C   0  0  0  0  0  0  0  0  0  0  0  0
   -1.1578    0.7144    0.0000 C   0  0  0  0  0  0  0  0  0  0  0  0
   -1.8723   -0.5230    0.0000 C   0  0  0  0  0  0  0  0  0  0  0  0
   -1.1578   -0.9355    0.0000 C   0  0  0  0  0  0  0  0  0  0  0  0
    3.3012   -1.5394    0.0000 Cl  0  0  0  0  0  0  0  0  0  0  0  0
    3.3012    1.3184    0.0000 Cl  0  0  0  0  0  0  0  0  0  0  0  0
   -2.5867    0.7144    0.0000 C   0  0  0  0  0  0  0  0  0  0  0  0
   -3.3012    0.3019    0.0000 O   0  0  0  0  0  0  0  0  0  0  0  0
   -2.5867    1.5394    0.0000 O   0  0  0  0  0  0  0  0  0  0  0  0
    1.5476   -1.7186    0.0000 H   0  0  0  0  0  0  0  0  0  0  0  0
    1.5476    1.4976    0.0000 H   0  0  0  0  0  0  0  0  0  0  0  0
    4.3332   -0.1105    0.0000 H   0  0  0  0  0  0  0  0  0  0  0  0
   -1.1578    1.7464    0.0000 H   0  0  0  0  0  0  0  0  0  0  0  0
   -2.7660   -1.0390    0.0000 H   0  0  0  0  0  0  0  0  0  0  0  0
   -1.1578   -1.9675    0.0000 H   0  0  0  0  0  0  0  0  0  0  0  0
   -4.1127    0.7704    0.0000 H   0  0  0  0  0  0  0  0  0  0  0  0
  1 21  1  0  0  0  0
  2  1  1  0  0  0  0
  2  7  1  0  0  0  0
  3  1  2  0  0  0  0
  3 16  1  0  0  0  0
  4  2  2  0  0  0  0
  4 22  1  0  0  0  0
  5  3  1  0  0  0  0
  5 23  1  0  0  0  0
  6  4  1  0  0  0  0
  6  5  2  0  0  0  0
  6 17  1  0  0  0  0
  8  7  2  0  0  0  0
  9  7  1  0  0  0  0
 10  8  1  0  0  0  0
 10 11  1  0  0  0  0
 10 15  2  0  0  0  0
 11  9  1  0  0  0  0
 11 13  2  0  0  0  0
 12 18  1  0  0  0  0
 13 12  1  0  0  0  0
 13 24  1  0  0  0  0
 14 12  2  0  0  0  0
 14 25  1  0  0  0  0
 15 14  1  0  0  0  0
 15 26  1  0  0  0  0
 18 19  1  0  0  0  0
 18 20  2  0  0  0  0
 19 27  1  0  0  0  0
M  END
>  <DRUGBANK_ID>
DB11644

>  <COMMON_NAME>
Tafamidis

>  <CAS_NUMBER>
594839-88-0

>  <UNII>
8FG9H9D31J

>  <SYNONYMS>
Tafamidis; Tafamidisum

$$$$
