
 OpenBabel10282417072D

 74 78  0  0  0  0  0  0  0  0999 V2000
    2.5971    1.5861    0.0000 C   0  0  0  0  0  0  0  0  0  0  0  0
    0.0811    1.1840    0.0000 C   0  0  0  0  0  0  0  0  0  0  0  0
   -4.7243    0.4512    0.0000 C   0  0  0  0  0  0  0  0  0  0  0  0
   -5.0046   -0.3247    0.0000 C   0  0  0  0  0  0  0  0  0  0  0  0
   -3.9122    0.5964    0.0000 C   0  0  0  0  0  0  0  0  0  0  0  0
    2.6258    3.7686    0.0000 C   0  0  0  0  0  0  0  0  0  0  0  0
    1.8137    3.6234    0.0000 C   0  0  0  0  0  0  0  0  0  0  0  0
    4.2213    1.8765    0.0000 C   0  0  0  0  0  0  0  0  0  0  0  0
    0.0700    3.2086    0.0000 C   0  0  0  0  0  0  0  0  0  0  0  0
    3.4092    1.7313    0.0000 C   0  0  0  0  0  0  0  0  0  0  0  0
   -0.6128    2.7457    0.0000 C   0  0  0  0  0  0  0  0  0  0  0  0
   -3.6607   -0.8102    0.0000 C   0  0  0  0  0  0  0  0  0  0  0  0
    3.9698    3.2831    0.0000 C   0  0  0  0  0  0  0  0  0  0  0  0
    0.9728    1.2956    0.0000 C   0  0  0  0  0  0  0  0  0  0  0  0
   -4.7531   -1.7313    0.0000 C   0  0  0  0  0  0  0  0  0  0  0  0
   -1.4759    1.0320    0.0000 C   0  0  0  0  0  0  0  0  0  0  0  0
   -4.4728   -0.9554    0.0000 C   0  0  0  0  0  0  0  0  0  0  0  0
   -3.3804   -0.0342    0.0000 C   0  0  0  0  0  0  0  0  0  0  0  0
    3.1577    3.1379    0.0000 C   0  0  0  0  0  0  0  0  0  0  0  0
    4.5016    2.6524    0.0000 C   0  0  0  0  0  0  0  0  0  0  0  0
    1.5334    2.8475    0.0000 C   0  0  3  0  0  0  0  0  0  0  0  0
    0.7213    2.7023    0.0000 C   0  0  3  0  0  0  0  0  0  0  0  0
    1.7850    1.4409    0.0000 C   0  0  3  0  0  0  0  0  0  0  0  0
   -1.1956    1.8079    0.0000 C   0  0  0  0  0  0  0  0  0  0  0  0
    2.0652    2.2168    0.0000 C   0  0  3  0  0  0  0  0  0  0  0  0
   -2.5683    0.1109    0.0000 C   0  0  0  0  0  0  0  0  0  0  0  0
    2.8774    2.3620    0.0000 C   0  0  3  0  0  0  0  0  0  0  0  0
    0.4410    1.9264    0.0000 C   0  0  3  0  0  0  0  0  0  0  0  0
   -0.3835    1.9532    0.0000 C   0  0  3  0  0  0  0  0  0  0  0  0
   -4.5016   -3.1379    0.0000 N   0  0  0  0  0  0  0  0  0  0  0  0
    5.3137    2.7976    0.0000 O   0  0  0  0  0  0  0  0  0  0  0  0
    2.3168    0.8102    0.0000 O   0  0  0  0  0  0  0  0  0  0  0  0
   -1.7274    2.4387    0.0000 O   0  0  0  0  0  0  0  0  0  0  0  0
   -2.0365   -0.5197    0.0000 O   0  0  0  0  0  0  0  0  0  0  0  0
   -0.3239    1.1303    0.0000 O   0  0  0  0  0  0  0  0  0  0  0  0
   -5.3137   -3.2831    0.0000 O   0  0  0  0  0  0  0  0  0  0  0  0
   -3.9698   -3.7686    0.0000 O   0  0  0  0  0  0  0  0  0  0  0  0
   -2.2880    0.8868    0.0000 O   0  0  0  0  0  0  0  0  0  0  0  0
   -4.2213   -2.3620    0.0000 O   0  0  0  0  0  0  0  0  0  0  0  0
    1.5438    1.3978    0.0000 H   0  0  0  0  0  0  0  0  0  0  0  0
    3.2868    0.7681    0.0000 H   0  0  0  0  0  0  0  0  0  0  0  0
    2.2335    0.5798    0.0000 H   0  0  0  0  0  0  0  0  0  0  0  0
   -0.9861    1.1068    0.0000 H   0  0  0  0  0  0  0  0  0  0  0  0
    0.6816    0.2984    0.0000 H   0  0  0  0  0  0  0  0  0  0  0  0
   -0.3857    0.2212    0.0000 H   0  0  0  0  0  0  0  0  0  0  0  0
   -5.3895    1.2402    0.0000 H   0  0  0  0  0  0  0  0  0  0  0  0
   -6.0205   -0.5063    0.0000 H   0  0  0  0  0  0  0  0  0  0  0  0
   -3.5616    1.5670    0.0000 H   0  0  0  0  0  0  0  0  0  0  0  0
    2.9893    4.7750    0.0000 H   0  0  0  0  0  0  0  0  0  0  0  0
    3.6791    3.9570    0.0000 H   0  0  0  0  0  0  0  0  0  0  0  0
    1.1240    4.4414    0.0000 H   0  0  0  0  0  0  0  0  0  0  0  0
    0.7604    3.4351    0.0000 H   0  0  0  0  0  0  0  0  0  0  0  0
    4.9110    1.0585    0.0000 H   0  0  0  0  0  0  0  0  0  0  0  0
    5.2746    2.0648    0.0000 H   0  0  0  0  0  0  0  0  0  0  0  0
    0.1048    4.2780    0.0000 H   0  0  0  0  0  0  0  0  0  0  0  0
    1.0387    3.6631    0.0000 H   0  0  0  0  0  0  0  0  0  0  0  0
    3.0456    0.7250    0.0000 H   0  0  0  0  0  0  0  0  0  0  0  0
    2.3559    1.5430    0.0000 H   0  0  0  0  0  0  0  0  0  0  0  0
   -1.6191    3.1093    0.0000 H   0  0  0  0  0  0  0  0  0  0  0  0
   -1.3936    2.0141    0.0000 H   0  0  0  0  0  0  0  0  0  0  0  0
   -2.9954   -1.5992    0.0000 H   0  0  0  0  0  0  0  0  0  0  0  0
    4.3204    4.2537    0.0000 H   0  0  0  0  0  0  0  0  0  0  0  0
    0.6093    0.2893    0.0000 H   0  0  0  0  0  0  0  0  0  0  0  0
   -0.0805    1.1073    0.0000 H   0  0  0  0  0  0  0  0  0  0  0  0
   -5.8064   -1.9196    0.0000 H   0  0  0  0  0  0  0  0  0  0  0  0
   -5.1167   -2.7376    0.0000 H   0  0  0  0  0  0  0  0  0  0  0  0
   -0.7862    0.2140    0.0000 H   0  0  0  0  0  0  0  0  0  0  0  0
   -1.8395    0.0257    0.0000 H   0  0  0  0  0  0  0  0  0  0  0  0
    0.8437    3.6655    0.0000 H   0  0  0  0  0  0  0  0  0  0  0  0
    0.9776    3.7411    0.0000 H   0  0  0  0  0  0  0  0  0  0  0  0
    1.0952    2.2588    0.0000 H   0  0  0  0  0  0  0  0  0  0  0  0
    1.0119    2.0284    0.0000 H   0  0  0  0  0  0  0  0  0  0  0  0
    1.9872   -0.1021    0.0000 H   0  0  0  0  0  0  0  0  0  0  0  0
   -1.1267    0.5859    0.0000 H   0  0  0  0  0  0  0  0  0  0  0  0
  1 40  1  0  0  0  0
  1 41  1  0  0  0  0
  1 42  1  0  0  0  0
  2 43  1  0  0  0  0
  2 44  1  0  0  0  0
  2 45  1  0  0  0  0
  3 46  1  0  0  0  0
  4  3  2  0  0  0  0
  4 47  1  0  0  0  0
  5  3  1  0  0  0  0
  5 48  1  0  0  0  0
  6 49  1  0  0  0  0
  6 50  1  0  0  0  0
  7  6  1  0  0  0  0
  7 51  1  0  0  0  0
  7 52  1  0  0  0  0
  8 53  1  0  0  0  0
  8 54  1  0  0  0  0
  9 55  1  0  0  0  0
  9 56  1  0  0  0  0
 10  8  1  0  0  0  0
 10 57  1  0  0  0  0
 10 58  1  0  0  0  0
 11  9  1  0  0  0  0
 11 59  1  0  0  0  0
 11 60  1  0  0  0  0
 12 61  1  0  0  0  0
 13 62  1  0  0  0  0
 14 63  1  0  0  0  0
 14 64  1  0  0  0  0
 15 65  1  0  0  0  0
 15 66  1  0  0  0  0
 16 67  1  0  0  0  0
 16 68  1  0  0  0  0
 17  4  1  0  0  0  0
 17 12  2  0  0  0  0
 17 15  1  0  0  0  0
 18  5  2  0  0  0  0
 18 12  1  0  0  0  0
 19  6  1  0  0  0  0
 19 13  2  0  0  0  0
 20  8  1  0  0  0  0
 20 13  1  0  0  0  0
 21  7  1  0  0  0  0
 21 69  1  0  0  0  0
 22  9  1  0  0  0  0
 22 21  1  0  0  0  0
 22 70  1  0  0  0  0
 23 14  1  0  0  0  0
 23 71  1  0  0  0  0
 24 16  1  0  0  0  0
 25 21  1  0  0  0  0
 25 23  1  0  0  0  0
 25 72  1  0  0  0  0
 26 18  1  0  0  0  0
 27  1  1  0  0  0  0
 27 10  1  0  0  0  0
 27 19  1  0  0  0  0
 27 25  1  0  0  0  0
 28  2  1  0  0  0  0
 28 14  1  0  0  0  0
 28 22  1  0  0  0  0
 29 11  1  0  0  0  0
 29 24  1  0  0  0  0
 29 28  1  0  0  0  0
 31 20  2  0  0  0  0
 32 23  1  0  0  0  0
 32 73  1  0  0  0  0
 33 24  2  0  0  0  0
 34 26  2  0  0  0  0
 35 29  1  0  0  0  0
 35 74  1  0  0  0  0
 36 30  2  0  0  0  0
 37 30  2  0  0  0  0
 38 16  1  0  0  0  0
 38 26  1  0  0  0  0
 39 15  1  0  0  0  0
 39 30  1  0  0  0  0
M  END
>  <DRUGBANK_ID>
DB05410

>  <COMMON_NAME>
NCX 1022

>  <CAS_NUMBER>
571186-50-0

>  <UNII>
XY2WH7X5M5

$$$$
