
 OpenBabel10282417072D

 42 45  0  0  0  0  0  0  0  0999 V2000
    2.5976    1.7531    0.0000 O   0  0  0  0  0  0  0  0  0  0  0  0
   -2.7870   -1.7307    0.0000 O   0  0  0  0  0  0  0  0  0  0  0  0
    1.5218   -0.1198    0.0000 C   0  0  1  0  0  0  0  0  0  0  0  0
    0.8139   -0.5268    0.0000 C   0  0  1  0  0  0  0  0  0  0  0  0
    1.5218    0.7052    0.0000 C   0  0  1  0  0  0  0  0  0  0  0  0
    0.1004   -0.1031    0.0000 C   0  0  0  0  0  0  0  0  0  0  0  0
    2.3188    0.9670    0.0000 C   0  0  2  0  0  0  0  0  0  0  0  0
    2.3188   -0.3817    0.0000 C   0  0  0  0  0  0  0  0  0  0  0  0
   -0.6187   -0.5211    0.0000 C   0  0  0  0  0  0  0  0  0  0  0  0
    0.8139    1.1121    0.0000 C   0  0  0  0  0  0  0  0  0  0  0  0
    0.8139   -1.3351    0.0000 C   0  0  0  0  0  0  0  0  0  0  0  0
    0.1004    0.7052    0.0000 C   0  0  0  0  0  0  0  0  0  0  0  0
    2.7870    0.3093    0.0000 C   0  0  0  0  0  0  0  0  0  0  0  0
   -0.6187   -1.3462    0.0000 C   0  0  0  0  0  0  0  0  0  0  0  0
    1.5218    1.5301    0.0000 C   0  0  0  0  0  0  0  0  0  0  0  0
    0.1004   -1.7531    0.0000 C   0  0  0  0  0  0  0  0  0  0  0  0
   -1.3433   -0.1031    0.0000 C   0  0  0  0  0  0  0  0  0  0  0  0
   -1.3433   -1.7531    0.0000 C   0  0  0  0  0  0  0  0  0  0  0  0
   -2.0513   -1.3351    0.0000 C   0  0  0  0  0  0  0  0  0  0  0  0
   -2.0513   -0.5268    0.0000 C   0  0  0  0  0  0  0  0  0  0  0  0
    1.5218   -0.9449    0.0000 H   0  0  0  0  0  0  0  0  0  0  0  0
    0.8139    0.2981    0.0000 H   0  0  0  0  0  0  0  0  0  0  0  0
    3.5514    1.9294    0.0000 H   0  0  0  0  0  0  0  0  0  0  0  0
    1.5711    1.7324    0.0000 H   0  0  0  0  0  0  0  0  0  0  0  0
    2.6644   -1.3943    0.0000 H   0  0  0  0  0  0  0  0  0  0  0  0
    3.3793   -0.5239    0.0000 H   0  0  0  0  0  0  0  0  0  0  0  0
    0.8157    2.1441    0.0000 H   0  0  0  0  0  0  0  0  0  0  0  0
    1.7422   -1.8672    0.0000 H   0  0  0  0  0  0  0  0  0  0  0  0
    0.8190   -2.4051    0.0000 H   0  0  0  0  0  0  0  0  0  0  0  0
   -0.7920    1.2236    0.0000 H   0  0  0  0  0  0  0  0  0  0  0  0
    3.8569    0.3217    0.0000 H   0  0  0  0  0  0  0  0  0  0  0  0
    3.2938   -0.6331    0.0000 H   0  0  0  0  0  0  0  0  0  0  0  0
    2.4484    2.0651    0.0000 H   0  0  0  0  0  0  0  0  0  0  0  0
    0.5952    2.0651    0.0000 H   0  0  0  0  0  0  0  0  0  0  0  0
    1.5218    2.6001    0.0000 H   0  0  0  0  0  0  0  0  0  0  0  0
    0.1084   -2.8231    0.0000 H   0  0  0  0  0  0  0  0  0  0  0  0
   -0.8219   -2.2956    0.0000 H   0  0  0  0  0  0  0  0  0  0  0  0
   -1.3519    0.9669    0.0000 H   0  0  0  0  0  0  0  0  0  0  0  0
   -2.2762    0.4209    0.0000 H   0  0  0  0  0  0  0  0  0  0  0  0
   -1.3545   -2.7850    0.0000 H   0  0  0  0  0  0  0  0  0  0  0  0
   -2.9821    0.0009    0.0000 H   0  0  0  0  0  0  0  0  0  0  0  0
   -2.9758   -1.0654    0.0000 H   0  0  0  0  0  0  0  0  0  0  0  0
  1 23  1  0  0  0  0
  2 19  2  0  0  0  0
  3  4  1  0  0  0  0
  3  5  1  0  0  0  0
  3  8  1  0  0  0  0
  3 21  1  6  0  0  0
  4  6  1  0  0  0  0
  4 11  1  0  0  0  0
  4 22  1  1  0  0  0
  5  7  1  0  0  0  0
  5 10  1  0  0  0  0
  5 15  1  1  0  0  0
  6  9  2  0  0  0  0
  6 12  1  0  0  0  0
  7  1  1  0  0  0  0
  7 13  1  0  0  0  0
  7 24  1  6  0  0  0
  8 13  1  0  0  0  0
  8 25  1  0  0  0  0
  8 26  1  0  0  0  0
  9 14  1  0  0  0  0
  9 17  1  0  0  0  0
 10 12  2  0  0  0  0
 10 27  1  0  0  0  0
 11 16  1  0  0  0  0
 11 28  1  0  0  0  0
 11 29  1  0  0  0  0
 12 30  1  0  0  0  0
 13 31  1  0  0  0  0
 13 32  1  0  0  0  0
 14 16  1  0  0  0  0
 14 18  2  0  0  0  0
 15 33  1  0  0  0  0
 15 34  1  0  0  0  0
 15 35  1  0  0  0  0
 16 36  1  0  0  0  0
 16 37  1  0  0  0  0
 17 20  1  0  0  0  0
 17 38  1  0  0  0  0
 17 39  1  0  0  0  0
 18 19  1  0  0  0  0
 18 40  1  0  0  0  0
 19 20  1  0  0  0  0
 20 41  1  0  0  0  0
 20 42  1  0  0  0  0
M  END
>  <DRUGBANK_ID>
DB11551

>  <COMMON_NAME>
Trenbolone

>  <CAS_NUMBER>
10161-33-8

>  <UNII>
P53R4420TR

>  <SYNONYMS>
17-b-Hydroxyestra-4,9,11-trien-3-one; 17-beta-Hydroxyestra-4,9,11-trien-3-one; 17-Î²-hydroxyestra-4,9,11-trien-3-one; Trenbolone

$$$$
