465
 OpenBabel10282417072D

 32 34  0  0  1  0  0  0  0  0999 V2000
    6.9550   -1.8560    0.0000 O   0  0  0  0  0  0  0  0  0  0  0  0
    5.5967   -2.2999    0.0000 O   0  0  0  0  0  0  0  0  0  0  0  0
    4.6232    1.8275    0.0000 O   0  0  0  0  0  0  0  0  0  0  0  0
    5.1107    0.1748    0.0000 N   0  0  0  0  0  0  0  0  0  0  0  0
    5.8914   -0.9016    0.0000 C   0  0  3  0  0  0  0  0  0  0  0  0
    6.3729   -0.2377    0.0000 C   0  0  0  0  0  0  0  0  0  0  0  0
    5.8914    0.4263    0.0000 C   0  0  0  0  0  0  0  0  0  0  0  0
    5.1107   -0.6502    0.0000 C   0  0  0  0  0  0  0  0  0  0  0  0
    4.3261    0.4298    0.0000 C   0  0  0  0  0  0  0  0  0  0  0  0
    4.3261   -0.9052    0.0000 C   0  0  0  0  0  0  0  0  0  0  0  0
    3.8411   -0.2377    0.0000 C   0  0  0  0  0  0  0  0  0  0  0  0
    6.1477   -1.6858    0.0000 C   0  0  0  0  0  0  0  0  0  0  0  0
    4.0711    1.2145    0.0000 C   0  0  0  0  0  0  0  0  0  0  0  0
    3.2641    1.3860    0.0000 C   0  0  0  0  0  0  0  0  0  0  0  0
    2.7121    0.7729    0.0000 C   0  0  0  0  0  0  0  0  0  0  0  0
    3.0092    2.1707    0.0000 C   0  0  0  0  0  0  0  0  0  0  0  0
    1.9050    0.9444    0.0000 C   0  0  0  0  0  0  0  0  0  0  0  0
    2.2021    2.3422    0.0000 C   0  0  0  0  0  0  0  0  0  0  0  0
    1.6501    1.7290    0.0000 C   0  0  0  0  0  0  0  0  0  0  0  0
    7.2460   -2.7467    0.0000 H   0  0  0  0  0  0  0  0  0  0  0  0
    5.5590    0.1155    0.0000 H   0  0  0  0  0  0  0  0  0  0  0  0
    7.4429   -0.2377    0.0000 H   0  0  0  0  0  0  0  0  0  0  0  0
    6.8591    0.7154    0.0000 H   0  0  0  0  0  0  0  0  0  0  0  0
    6.2238    1.4434    0.0000 H   0  0  0  0  0  0  0  0  0  0  0  0
    6.9484    0.5923    0.0000 H   0  0  0  0  0  0  0  0  0  0  0  0
    4.0072   -1.8867    0.0000 H   0  0  0  0  0  0  0  0  0  0  0  0
    2.8091   -0.2377    0.0000 H   0  0  0  0  0  0  0  0  0  0  0  0
    3.0311   -0.2086    0.0000 H   0  0  0  0  0  0  0  0  0  0  0  0
    3.6997    2.9376    0.0000 H   0  0  0  0  0  0  0  0  0  0  0  0
    1.2145    0.1775    0.0000 H   0  0  0  0  0  0  0  0  0  0  0  0
    1.8831    3.3237    0.0000 H   0  0  0  0  0  0  0  0  0  0  0  0
    0.6406    1.9435    0.0000 H   0  0  0  0  0  0  0  0  0  0  0  0
  1 12  1  0  0  0  0
  1 20  1  0  0  0  0
  2 12  2  0  0  0  0
  3 13  2  0  0  0  0
  4  7  1  0  0  0  0
  4  8  1  0  0  0  0
  4  9  1  0  0  0  0
  5  6  1  0  0  0  0
  5  8  1  0  0  0  0
  5 12  1  0  0  0  0
  5 21  1  0  0  0  0
  6  7  1  0  0  0  0
  6 22  1  0  0  0  0
  6 23  1  0  0  0  0
  7 24  1  0  0  0  0
  7 25  1  0  0  0  0
  8 10  2  0  0  0  0
  9 11  2  0  0  0  0
  9 13  1  0  0  0  0
 10 11  1  0  0  0  0
 10 26  1  0  0  0  0
 11 27  1  0  0  0  0
 13 14  1  0  0  0  0
 14 15  2  0  0  0  0
 14 16  1  0  0  0  0
 15 17  1  0  0  0  0
 15 28  1  0  0  0  0
 16 18  2  0  0  0  0
 16 29  1  0  0  0  0
 17 19  2  0  0  0  0
 17 30  1  0  0  0  0
 18 19  1  0  0  0  0
 18 31  1  0  0  0  0
 19 32  1  0  0  0  0
M  END
>  <DRUGBANK_ID>
DB00465

>  <SECONDARY_ACCESSION_NUMBERS>
APRD01060

>  <COMMON_NAME>
Ketorolac

>  <CAS_NUMBER>
74103-06-3

>  <UNII>
YZI5105V0L

>  <SYNONYMS>
Ketorolac; KÃ©torolac; Ketorolaco; Ketorolacum; rac-Ketorolac

$$$$
