DRG
 OpenBabel10282417072D

 26 28  0  0  0  0  0  0  0  0999 V2000
   -1.6506    0.3048    0.0000 C   0  0  0  0  0  0  0  0  0  0  0  0
   -0.8256    0.3048    0.0000 C   0  0  0  0  0  0  0  0  0  0  0  0
   -0.4131    1.0193    0.0000 C   0  0  0  0  0  0  0  0  0  0  0  0
    0.4119    1.0193    0.0000 C   0  0  0  0  0  0  0  0  0  0  0  0
    0.8244    0.3048    0.0000 C   0  0  0  0  0  0  0  0  0  0  0  0
    1.6494    0.3048    0.0000 C   0  0  0  0  0  0  0  0  0  0  0  0
    2.0619   -0.4097    0.0000 C   0  0  0  0  0  0  0  0  0  0  0  0
    1.6494   -1.1241    0.0000 C   0  0  0  0  0  0  0  0  0  0  0  0
    0.8244   -1.1241    0.0000 C   0  0  0  0  0  0  0  0  0  0  0  0
    0.4119   -0.4097    0.0000 C   0  0  0  0  0  0  0  0  0  0  0  0
   -0.4131   -0.4097    0.0000 C   0  0  0  0  0  0  0  0  0  0  0  0
   -0.8256   -1.1241    0.0000 N   0  0  0  0  0  0  0  0  0  0  0  0
   -1.6506   -1.1241    0.0000 N   0  0  0  0  0  0  0  0  0  0  0  0
   -2.0631   -0.4097    0.0000 C   0  0  0  0  0  0  0  0  0  0  0  0
   -2.8881   -0.4097    0.0000 N   0  0  0  0  0  0  0  0  0  0  0  0
   -2.1666    1.1985    0.0000 H   0  0  0  0  0  0  0  0  0  0  0  0
   -0.9481    1.9459    0.0000 H   0  0  0  0  0  0  0  0  0  0  0  0
    0.1219    1.9459    0.0000 H   0  0  0  0  0  0  0  0  0  0  0  0
    0.9469    1.9459    0.0000 H   0  0  0  0  0  0  0  0  0  0  0  0
    1.4819    1.0193    0.0000 H   0  0  0  0  0  0  0  0  0  0  0  0
    2.1654    1.1985    0.0000 H   0  0  0  0  0  0  0  0  0  0  0  0
    3.0939   -0.4097    0.0000 H   0  0  0  0  0  0  0  0  0  0  0  0
    2.1654   -2.0178    0.0000 H   0  0  0  0  0  0  0  0  0  0  0  0
    0.3084   -2.0178    0.0000 H   0  0  0  0  0  0  0  0  0  0  0  0
   -3.3803    0.4429    0.0000 H   0  0  0  0  0  0  0  0  0  0  0  0
   -3.3803   -1.2623    0.0000 H   0  0  0  0  0  0  0  0  0  0  0  0
  1  2  2  0  0  0  0
  1 14  1  0  0  0  0
  1 16  1  0  0  0  0
  2  3  1  0  0  0  0
  2 11  1  0  0  0  0
  3  4  1  0  0  0  0
  3 17  1  0  0  0  0
  3 18  1  0  0  0  0
  4  5  1  0  0  0  0
  4 19  1  0  0  0  0
  4 20  1  0  0  0  0
  5  6  2  0  0  0  0
  5 10  1  0  0  0  0
  6  7  1  0  0  0  0
  6 21  1  0  0  0  0
  7  8  2  0  0  0  0
  7 22  1  0  0  0  0
  8  9  1  0  0  0  0
  8 23  1  0  0  0  0
  9 10  2  0  0  0  0
  9 24  1  0  0  0  0
 10 11  1  0  0  0  0
 11 12  2  0  0  0  0
 12 13  1  0  0  0  0
 13 14  2  0  0  0  0
 14 15  1  0  0  0  0
 15 25  1  0  0  0  0
 15 26  1  0  0  0  0
M  END
>  <DRUGBANK_ID>
DB04069

>  <SECONDARY_ACCESSION_NUMBERS>
EXPT01270

>  <COMMON_NAME>
5,6-Dihydro-Benzo[H]Cinnolin-3-Ylamine

$$$$
