
 OpenBabel10282417072D

 26 25  0  0  1  0  0  0  0  0999 V2000
   -0.1914   -0.7145    0.0000 C   0  0  0  0  0  0  0  0  0  0  0  0
    0.5230   -1.1270    0.0000 N   0  0  0  0  0  0  0  0  0  0  0  0
    1.2375   -0.7145    0.0000 C   0  0  0  0  0  0  0  0  0  0  0  0
    1.2375    0.1105    0.0000 O   0  0  0  0  0  0  0  0  0  0  0  0
    1.9520   -1.1270    0.0000 C   0  0  1  0  0  0  0  0  0  0  0  0
    1.9520   -1.9520    0.0000 N   0  0  0  0  0  0  0  0  0  0  0  0
    2.6664   -0.7145    0.0000 C   0  0  0  0  0  0  0  0  0  0  0  0
    3.3809   -0.3020    0.0000 C   0  0  0  0  0  0  0  0  0  0  0  0
    3.0789   -1.4289    0.0000 C   0  0  0  0  0  0  0  0  0  0  0  0
    2.2539    0.0000    0.0000 C   0  0  0  0  0  0  0  0  0  0  0  0
   -0.1914    0.3555    0.0000 H   0  0  0  0  0  0  0  0  0  0  0  0
   -1.1181   -1.2495    0.0000 H   0  0  0  0  0  0  0  0  0  0  0  0
   -1.1180   -0.1795    0.0000 H   0  0  0  0  0  0  0  0  0  0  0  0
    0.5230   -2.1115    0.0000 H   0  0  0  0  0  0  0  0  0  0  0  0
    1.0254   -1.6620    0.0000 H   0  0  0  0  0  0  0  0  0  0  0  0
    1.0687   -2.4620    0.0000 H   0  0  0  0  0  0  0  0  0  0  0  0
    2.8353   -2.4620    0.0000 H   0  0  0  0  0  0  0  0  0  0  0  0
    4.3075   -0.8370    0.0000 H   0  0  0  0  0  0  0  0  0  0  0  0
    3.3809    0.7680    0.0000 H   0  0  0  0  0  0  0  0  0  0  0  0
    4.3076    0.2330    0.0000 H   0  0  0  0  0  0  0  0  0  0  0  0
    2.5439   -2.3556    0.0000 H   0  0  0  0  0  0  0  0  0  0  0  0
    4.1489   -1.4289    0.0000 H   0  0  0  0  0  0  0  0  0  0  0  0
    3.6139   -2.3555    0.0000 H   0  0  0  0  0  0  0  0  0  0  0  0
    2.7889    0.9266    0.0000 H   0  0  0  0  0  0  0  0  0  0  0  0
    1.1839    0.0000    0.0000 H   0  0  0  0  0  0  0  0  0  0  0  0
    1.7189    0.9267    0.0000 H   0  0  0  0  0  0  0  0  0  0  0  0
  1  2  1  0  0  0  0
  1 11  1  0  0  0  0
  1 12  1  0  0  0  0
  1 13  1  0  0  0  0
  2  3  1  0  0  0  0
  2 14  1  0  0  0  0
  3  4  2  0  0  0  0
  3  5  1  0  0  0  0
  5  6  1  0  0  0  0
  5  7  1  0  0  0  0
  5 15  1  1  0  0  0
  6 16  1  0  0  0  0
  6 17  1  0  0  0  0
  7  8  1  0  0  0  0
  7  9  1  0  0  0  0
  7 10  1  0  0  0  0
  8 18  1  0  0  0  0
  8 19  1  0  0  0  0
  8 20  1  0  0  0  0
  9 21  1  0  0  0  0
  9 22  1  0  0  0  0
  9 23  1  0  0  0  0
 10 24  1  0  0  0  0
 10 25  1  0  0  0  0
 10 26  1  0  0  0  0
M  END
>  <DRUGBANK_ID>
DB01949

>  <SECONDARY_ACCESSION_NUMBERS>
EXPT00776

>  <COMMON_NAME>
2-Amino-N,3,3-Trimethylbutanamide

$$$$
