
 OpenBabel10282417072D

335344  0  0  1  0  0  0  0  0999 V2000
    6.7342   -9.9968    0.0000 C   0  0  0  0  0  0  0  0  0  0  0  0
    7.4408   -9.8030    0.0000 C   0  0  0  0  0  0  0  0  0  0  0  0
    7.1008   -9.0326    0.0000 C   0  0  0  0  0  0  0  0  0  0  0  0
    8.0307  -10.5563    0.0000 C   0  0  0  0  0  0  0  0  0  0  0  0
    7.3294  -10.9891    0.0000 C   0  0  0  0  0  0  0  0  0  0  0  0
    6.4067  -10.9659    0.0000 C   0  0  0  0  0  0  0  0  0  0  0  0
    5.6419  -10.5083    0.0000 C   0  0  0  0  0  0  0  0  0  0  0  0
    5.8095   -9.5699    0.0000 C   0  0  0  0  0  0  0  0  0  0  0  0
    6.2396   -8.7599    0.0000 C   0  0  0  0  0  0  0  0  0  0  0  0
    6.8685   -8.2146    0.0000 O   0  0  0  0  0  0  0  0  0  0  0  0
    6.4049   -9.5175    0.0000 N   0  0  0  0  0  0  0  0  0  0  0  0
    6.1092  -10.3513    0.0000 C   0  0  2  0  0  0  0  0  0  0  0  0
    5.3412   -9.9950    0.0000 C   0  0  0  0  0  0  0  0  0  0  0  0
    4.7465  -10.6299    0.0000 C   0  0  0  0  0  0  0  0  0  0  0  0
    4.6693  -11.3891    0.0000 N   0  0  0  0  0  0  0  0  0  0  0  0
    4.2118   -9.9075    0.0000 O   0  0  0  0  0  0  0  0  0  0  0  0
    5.6394  -11.2191    0.0000 C   0  0  0  0  0  0  0  0  0  0  0  0
    5.6391  -12.0748    0.0000 O   0  0  0  0  0  0  0  0  0  0  0  0
    5.0796  -11.8757    0.0000 N   0  0  0  0  0  0  0  0  0  0  0  0
    4.6915  -12.6178    0.0000 C   0  0  1  0  0  0  0  0  0  0  0  0
    3.8817  -12.7755    0.0000 C   0  0  1  0  0  0  0  0  0  0  0  0
    3.4815  -12.0541    0.0000 O   0  0  0  0  0  0  0  0  0  0  0  0
    4.0439  -11.4506    0.0000 C   0  0  0  0  0  0  0  0  0  0  0  0
    4.1652  -12.2000    0.0000 O   0  0  0  0  0  0  0  0  0  0  0  0
    4.0986  -10.5494    0.0000 C   0  0  2  0  0  0  0  0  0  0  0  0
    4.8200  -10.1492    0.0000 N   0  0  0  0  0  0  0  0  0  0  0  0
    4.8341   -9.3243    0.0000 C   0  0  0  0  0  0  0  0  0  0  0  0
    4.1982   -8.7369    0.0000 O   0  0  0  0  0  0  0  0  0  0  0  0
    5.5556   -8.9241    0.0000 C   0  0  2  0  0  0  0  0  0  0  0  0
    4.9045   -8.3301    0.0000 C   0  0  0  0  0  0  0  0  0  0  0  0
    5.5697   -8.0992    0.0000 N   0  0  0  0  0  0  0  0  0  0  0  0
    6.2911   -7.6990    0.0000 C   0  0  0  0  0  0  0  0  0  0  0  0
    7.0812   -7.3737    0.0000 O   0  0  0  0  0  0  0  0  0  0  0  0
    6.3052   -6.8742    0.0000 C   0  0  2  0  0  0  0  0  0  0  0  0
    5.5105   -6.5066    0.0000 C   0  0  0  0  0  0  0  0  0  0  0  0
    4.6725   -6.2932    0.0000 C   0  0  0  0  0  0  0  0  0  0  0  0
    3.9686   -6.7509    0.0000 C   0  0  0  0  0  0  0  0  0  0  0  0
    4.1360   -5.6399    0.0000 C   0  0  0  0  0  0  0  0  0  0  0  0
    7.0267   -6.4740    0.0000 N   0  0  0  0  0  0  0  0  0  0  0  0
    7.0408   -5.6491    0.0000 C   0  0  0  0  0  0  0  0  0  0  0  0
    6.4019   -5.1036    0.0000 O   0  0  0  0  0  0  0  0  0  0  0  0
    7.7622   -5.2489    0.0000 C   0  0  0  0  0  0  0  0  0  0  0  0
    7.7764   -4.4240    0.0000 N   0  0  0  0  0  0  0  0  0  0  0  0
    8.4978   -4.0238    0.0000 C   0  0  0  0  0  0  0  0  0  0  0  0
    9.3156   -4.1417    0.0000 O   0  0  0  0  0  0  0  0  0  0  0  0
    8.5119   -3.1989    0.0000 C   0  0  1  0  0  0  0  0  0  0  0  0
    9.2334   -2.7987    0.0000 N   0  0  0  0  0  0  0  0  0  0  0  0
    9.2475   -1.9738    0.0000 C   0  0  0  0  0  0  0  0  0  0  0  0
    8.5139   -1.6829    0.0000 O   0  0  0  0  0  0  0  0  0  0  0  0
    9.9689   -1.5736    0.0000 C   0  0  2  0  0  0  0  0  0  0  0  0
    9.9831   -0.7488    0.0000 N   0  0  0  0  0  0  0  0  0  0  0  0
   10.7045   -0.3486    0.0000 C   0  0  0  0  0  0  0  0  0  0  0  0
   11.1317   -1.0454    0.0000 O   0  0  0  0  0  0  0  0  0  0  0  0
   10.7186    0.4763    0.0000 C   0  0  1  0  0  0  0  0  0  0  0  0
   11.4401    0.8765    0.0000 N   0  0  0  0  0  0  0  0  0  0  0  0
   12.1474    0.4518    0.0000 C   0  0  0  0  0  0  0  0  0  0  0  0
   11.9076   -0.3205    0.0000 O   0  0  0  0  0  0  0  0  0  0  0  0
   12.8688    0.8520    0.0000 C   0  0  1  0  0  0  0  0  0  0  0  0
   13.0527    1.6841    0.0000 C   0  0  0  0  0  0  0  0  0  0  0  0
   13.4007    2.4445    0.0000 C   0  0  0  0  0  0  0  0  0  0  0  0
   13.8804    3.1264    0.0000 C   0  0  0  0  0  0  0  0  0  0  0  0
   14.5333    3.6433    0.0000 N   0  0  0  0  0  0  0  0  0  0  0  0
   13.5761    0.4274    0.0000 N   0  0  0  0  0  0  0  0  0  0  0  0
   13.5620   -0.3975    0.0000 C   0  0  0  0  0  0  0  0  0  0  0  0
   14.4136   -0.3204    0.0000 O   0  0  0  0  0  0  0  0  0  0  0  0
   12.8405   -0.7977    0.0000 C   0  0  1  0  0  0  0  0  0  0  0  0
   13.5928   -1.2177    0.0000 C   0  0  0  0  0  0  0  0  0  0  0  0
   13.5337   -2.0473    0.0000 C   0  0  0  0  0  0  0  0  0  0  0  0
   14.2410   -2.4719    0.0000 C   0  0  0  0  0  0  0  0  0  0  0  0
   14.2269   -3.2968    0.0000 C   0  0  0  0  0  0  0  0  0  0  0  0
   13.5054   -3.6970    0.0000 C   0  0  0  0  0  0  0  0  0  0  0  0
   12.8829   -3.6119    0.0000 C   0  0  0  0  0  0  0  0  0  0  0  0
   12.8123   -2.4475    0.0000 C   0  0  0  0  0  0  0  0  0  0  0  0
   12.8264   -1.6226    0.0000 N   0  0  0  0  0  0  0  0  0  0  0  0
   12.1050   -2.0228    0.0000 C   0  0  0  0  0  0  0  0  0  0  0  0
   11.2683   -2.0652    0.0000 O   0  0  0  0  0  0  0  0  0  0  0  0
   12.0908   -2.8477    0.0000 C   0  0  1  0  0  0  0  0  0  0  0  0
   11.3694   -3.2479    0.0000 N   0  0  0  0  0  0  0  0  0  0  0  0
   11.3553   -4.0728    0.0000 C   0  0  0  0  0  0  0  0  0  0  0  0
   12.0250   -3.6828    0.0000 O   0  0  0  0  0  0  0  0  0  0  0  0
   10.6338   -4.4730    0.0000 C   0  0  2  0  0  0  0  0  0  0  0  0
   10.6197   -5.2978    0.0000 N   0  0  0  0  0  0  0  0  0  0  0  0
    9.8983   -5.6980    0.0000 C   0  0  0  0  0  0  0  0  0  0  0  0
    9.0742   -5.5879    0.0000 O   0  0  0  0  0  0  0  0  0  0  0  0
    9.8841   -6.5229    0.0000 C   0  0  2  0  0  0  0  0  0  0  0  0
    9.1627   -6.9231    0.0000 N   0  0  0  0  0  0  0  0  0  0  0  0
    9.1486   -7.7480    0.0000 C   0  0  0  0  0  0  0  0  0  0  0  0
    9.8690   -8.0969    0.0000 O   0  0  0  0  0  0  0  0  0  0  0  0
    8.4272   -8.1482    0.0000 C   0  0  2  0  0  0  0  0  0  0  0  0
    8.4130   -8.9731    0.0000 N   0  0  0  0  0  0  0  0  0  0  0  0
    7.6916   -9.3733    0.0000 C   0  0  0  0  0  0  0  0  0  0  0  0
    7.7350   -8.5241    0.0000 O   0  0  0  0  0  0  0  0  0  0  0  0
    7.6775  -10.1982    0.0000 C   0  0  1  0  0  0  0  0  0  0  0  0
    8.6338  -10.3167    0.0000 C   0  0  0  0  0  0  0  0  0  0  0  0
    9.3722  -10.7741    0.0000 C   0  0  0  0  0  0  0  0  0  0  0  0
   10.0899  -11.2118    0.0000 C   0  0  0  0  0  0  0  0  0  0  0  0
   10.6868  -11.7917    0.0000 N   0  0  0  0  0  0  0  0  0  0  0  0
    6.9560  -10.5984    0.0000 N   0  0  0  0  0  0  0  0  0  0  0  0
    6.9419  -11.4232    0.0000 C   0  0  0  0  0  0  0  0  0  0  0  0
    7.8875  -11.3418    0.0000 O   0  0  0  0  0  0  0  0  0  0  0  0
    6.2205  -11.8234    0.0000 C   0  0  2  0  0  0  0  0  0  0  0  0
    6.2063  -12.6483    0.0000 N   0  0  0  0  0  0  0  0  0  0  0  0
    5.4849  -13.0485    0.0000 C   0  0  0  0  0  0  0  0  0  0  0  0
    5.5005  -13.8991    0.0000 O   0  0  0  0  0  0  0  0  0  0  0  0
    6.9278  -12.2481    0.0000 C   0  0  0  0  0  0  0  0  0  0  0  0
    7.6492  -11.8479    0.0000 C   0  0  0  0  0  0  0  0  0  0  0  0
    8.3565  -12.2726    0.0000 C   0  0  0  0  0  0  0  0  0  0  0  0
    8.3424  -13.0975    0.0000 C   0  0  0  0  0  0  0  0  0  0  0  0
    8.9556  -13.6729    0.0000 O   0  0  0  0  0  0  0  0  0  0  0  0
    7.6209  -13.4977    0.0000 C   0  0  0  0  0  0  0  0  0  0  0  0
    6.9136  -13.0730    0.0000 C   0  0  0  0  0  0  0  0  0  0  0  0
    9.1679   -8.7069    0.0000 C   0  0  1  0  0  0  0  0  0  0  0  0
    9.9852   -8.9990    0.0000 C   0  0  0  0  0  0  0  0  0  0  0  0
    9.3966   -9.5259    0.0000 O   0  0  0  0  0  0  0  0  0  0  0  0
   10.5914   -6.9476    0.0000 C   0  0  0  0  0  0  0  0  0  0  0  0
   11.3129   -6.5474    0.0000 C   0  0  0  0  0  0  0  0  0  0  0  0
   12.0202   -6.9721    0.0000 C   0  0  0  0  0  0  0  0  0  0  0  0
   12.0060   -7.7969    0.0000 C   0  0  0  0  0  0  0  0  0  0  0  0
   12.5965   -8.3989    0.0000 O   0  0  0  0  0  0  0  0  0  0  0  0
   11.2846   -8.1972    0.0000 C   0  0  0  0  0  0  0  0  0  0  0  0
   10.5773   -7.7725    0.0000 C   0  0  0  0  0  0  0  0  0  0  0  0
   11.3411   -4.8976    0.0000 C   0  0  0  0  0  0  0  0  0  0  0  0
   12.0626   -4.4974    0.0000 C   0  0  0  0  0  0  0  0  0  0  0  0
   12.7699   -4.9221    0.0000 C   0  0  0  0  0  0  0  0  0  0  0  0
   12.7557   -5.7470    0.0000 C   0  0  0  0  0  0  0  0  0  0  0  0
   13.5228   -6.1059    0.0000 O   0  0  0  0  0  0  0  0  0  0  0  0
   12.0343   -6.1472    0.0000 C   0  0  0  0  0  0  0  0  0  0  0  0
   11.3270   -5.7225    0.0000 C   0  0  0  0  0  0  0  0  0  0  0  0
   12.8599   -3.1521    0.0000 C   0  0  2  0  0  0  0  0  0  0  0  0
   13.0326   -4.1275    0.0000 C   0  0  0  0  0  0  0  0  0  0  0  0
   13.6136   -2.8646    0.0000 O   0  0  0  0  0  0  0  0  0  0  0  0
   10.0113    0.9010    0.0000 C   0  0  0  0  0  0  0  0  0  0  0  0
    9.2899    0.5008    0.0000 C   0  0  0  0  0  0  0  0  0  0  0  0
    8.5826    0.9255    0.0000 C   0  0  0  0  0  0  0  0  0  0  0  0
    8.5967    1.7503    0.0000 C   0  0  0  0  0  0  0  0  0  0  0  0
    7.8670    2.1598    0.0000 O   0  0  0  0  0  0  0  0  0  0  0  0
    7.9036    2.9999    0.0000 C   0  0  2  0  0  0  0  0  0  0  0  0
    8.6460    3.3596    0.0000 O   0  0  0  0  0  0  0  0  0  0  0  0
    8.7057    4.1824    0.0000 C   0  0  2  0  0  0  0  0  0  0  0  0
    9.4430    4.6110    0.0000 C   0  0  0  0  0  0  0  0  0  0  0  0
    9.9370    5.2842    0.0000 O   0  0  0  0  0  0  0  0  0  0  0  0
    8.0230    4.6456    0.0000 C   0  0  1  0  0  0  0  0  0  0  0  0
    8.1227    5.4871    0.0000 O   0  0  0  0  0  0  0  0  0  0  0  0
    7.2806    4.2859    0.0000 C   0  0  2  0  0  0  0  0  0  0  0  0
    6.9407    5.0608    0.0000 O   0  0  0  0  0  0  0  0  0  0  0  0
    7.2208    3.4630    0.0000 C   0  0  2  0  0  0  0  0  0  0  0  0
    6.4605    3.1119    0.0000 O   0  0  0  0  0  0  0  0  0  0  0  0
    5.7844    3.6112    0.0000 C   0  0  1  0  0  0  0  0  0  0  0  0
    5.8740    4.4313    0.0000 O   0  0  0  0  0  0  0  0  0  0  0  0
    5.2086    4.9190    0.0000 C   0  0  2  0  0  0  0  0  0  0  0  0
    5.2048    5.7700    0.0000 C   0  0  0  0  0  0  0  0  0  0  0  0
    4.7562    6.4726    0.0000 O   0  0  0  0  0  0  0  0  0  0  0  0
    4.4535    4.5865    0.0000 C   0  0  1  0  0  0  0  0  0  0  0  0
    3.7163    5.0004    0.0000 O   0  0  0  0  0  0  0  0  0  0  0  0
    4.3639    3.7664    0.0000 C   0  0  2  0  0  0  0  0  0  0  0  0
    3.5944    3.4170    0.0000 O   0  0  0  0  0  0  0  0  0  0  0  0
    5.0294    3.2788    0.0000 C   0  0  2  0  0  0  0  0  0  0  0  0
    4.9369    2.4389    0.0000 O   0  0  0  0  0  0  0  0  0  0  0  0
    9.3182    2.1506    0.0000 C   0  0  0  0  0  0  0  0  0  0  0  0
   10.0255    1.7259    0.0000 C   0  0  0  0  0  0  0  0  0  0  0  0
    9.2237   -1.0651    0.0000 C   0  0  1  0  0  0  0  0  0  0  0  0
    8.3953   -0.8115    0.0000 C   0  0  0  0  0  0  0  0  0  0  0  0
    8.9486   -0.2784    0.0000 O   0  0  0  0  0  0  0  0  0  0  0  0
    7.8046   -2.7742    0.0000 C   0  0  0  0  0  0  0  0  0  0  0  0
    7.0832   -3.1744    0.0000 C   0  0  0  0  0  0  0  0  0  0  0  0
    6.3759   -2.7498    0.0000 C   0  0  0  0  0  0  0  0  0  0  0  0
    6.3900   -1.9249    0.0000 C   0  0  0  0  0  0  0  0  0  0  0  0
    5.7677   -1.3594    0.0000 O   0  0  0  0  0  0  0  0  0  0  0  0
    7.1115   -1.5247    0.0000 C   0  0  0  0  0  0  0  0  0  0  0  0
    7.8188   -1.9494    0.0000 C   0  0  0  0  0  0  0  0  0  0  0  0
    3.4006  -10.1095    0.0000 C   0  0  0  0  0  0  0  0  0  0  0  0
    2.6707  -10.4939    0.0000 C   0  0  0  0  0  0  0  0  0  0  0  0
    1.9728  -10.0540    0.0000 C   0  0  0  0  0  0  0  0  0  0  0  0
    1.2292  -10.4501    0.0000 Cl  0  0  0  0  0  0  0  0  0  0  0  0
    2.0048   -9.2296    0.0000 C   0  0  0  0  0  0  0  0  0  0  0  0
    1.4312   -8.6103    0.0000 O   0  0  0  0  0  0  0  0  0  0  0  0
    2.7348   -8.8452    0.0000 C   0  0  0  0  0  0  0  0  0  0  0  0
    3.4327   -9.2851    0.0000 C   0  0  0  0  0  0  0  0  0  0  0  0
    3.4029  -13.5082    0.0000 C   0  0  0  0  0  0  0  0  0  0  0  0
    2.5825  -13.6873    0.0000 N   0  0  0  0  0  0  0  0  0  0  0  0
    3.5551  -14.3392    0.0000 O   0  0  0  0  0  0  0  0  0  0  0  0
    5.9732   -9.2447    0.0000 H   0  0  0  0  0  0  0  0  0  0  0  0
    6.4634  -11.0320    0.0000 H   0  0  0  0  0  0  0  0  0  0  0  0
    5.7023  -10.2798    0.0000 H   0  0  0  0  0  0  0  0  0  0  0  0
    8.3586   -9.2529    0.0000 H   0  0  0  0  0  0  0  0  0  0  0  0
    7.7325   -8.1690    0.0000 H   0  0  0  0  0  0  0  0  0  0  0  0
    6.0370   -8.9173    0.0000 H   0  0  0  0  0  0  0  0  0  0  0  0
    6.6688   -8.0537    0.0000 H   0  0  0  0  0  0  0  0  0  0  0  0
    9.0840  -10.7445    0.0000 H   0  0  0  0  0  0  0  0  0  0  0  0
    8.2308  -11.6074    0.0000 H   0  0  0  0  0  0  0  0  0  0  0  0
    7.5986  -11.9854    0.0000 H   0  0  0  0  0  0  0  0  0  0  0  0
    6.1194  -11.9571    0.0000 H   0  0  0  0  0  0  0  0  0  0  0  0
    4.7027  -10.9361    0.0000 H   0  0  0  0  0  0  0  0  0  0  0  0
    4.8340   -9.2331    0.0000 H   0  0  0  0  0  0  0  0  0  0  0  0
    7.3874   -9.5795    0.0000 H   0  0  0  0  0  0  0  0  0  0  0  0
    5.6947   -9.3649    0.0000 H   0  0  0  0  0  0  0  0  0  0  0  0
    5.1372   -8.9446    0.0000 H   0  0  0  0  0  0  0  0  0  0  0  0
    4.3130   -9.6989    0.0000 H   0  0  0  0  0  0  0  0  0  0  0  0
    3.7713  -11.7926    0.0000 H   0  0  0  0  0  0  0  0  0  0  0  0
    5.4677  -11.9651    0.0000 H   0  0  0  0  0  0  0  0  0  0  0  0
    4.2637  -11.3248    0.0000 H   0  0  0  0  0  0  0  0  0  0  0  0
    4.0520  -11.7600    0.0000 H   0  0  0  0  0  0  0  0  0  0  0  0
    4.4789  -13.6633    0.0000 H   0  0  0  0  0  0  0  0  0  0  0  0
    3.1465  -11.0377    0.0000 H   0  0  0  0  0  0  0  0  0  0  0  0
    5.6641  -10.6560    0.0000 H   0  0  0  0  0  0  0  0  0  0  0  0
    4.4929   -8.7997    0.0000 H   0  0  0  0  0  0  0  0  0  0  0  0
    5.1338   -7.2850    0.0000 H   0  0  0  0  0  0  0  0  0  0  0  0
    3.8847   -8.6541    0.0000 H   0  0  0  0  0  0  0  0  0  0  0  0
    4.1140   -7.6090    0.0000 H   0  0  0  0  0  0  0  0  0  0  0  0
    4.7256   -7.5924    0.0000 H   0  0  0  0  0  0  0  0  0  0  0  0
    5.3988   -7.4428    0.0000 H   0  0  0  0  0  0  0  0  0  0  0  0
    5.8686   -5.4983    0.0000 H   0  0  0  0  0  0  0  0  0  0  0  0
    5.0069   -5.5625    0.0000 H   0  0  0  0  0  0  0  0  0  0  0  0
    3.6151   -6.1298    0.0000 H   0  0  0  0  0  0  0  0  0  0  0  0
    3.0149   -6.2657    0.0000 H   0  0  0  0  0  0  0  0  0  0  0  0
    4.0252   -7.8194    0.0000 H   0  0  0  0  0  0  0  0  0  0  0  0
    3.0716   -7.3342    0.0000 H   0  0  0  0  0  0  0  0  0  0  0  0
    4.5126   -4.6384    0.0000 H   0  0  0  0  0  0  0  0  0  0  0  0
    3.0803   -5.8145    0.0000 H   0  0  0  0  0  0  0  0  0  0  0  0
    3.4569   -4.8130    0.0000 H   0  0  0  0  0  0  0  0  0  0  0  0
    7.8707   -6.9808    0.0000 H   0  0  0  0  0  0  0  0  0  0  0  0
    8.6795   -5.7997    0.0000 H   0  0  0  0  0  0  0  0  0  0  0  0
    8.6979   -4.7299    0.0000 H   0  0  0  0  0  0  0  0  0  0  0  0
    6.9324   -3.9172    0.0000 H   0  0  0  0  0  0  0  0  0  0  0  0
    7.5762   -3.7180    0.0000 H   0  0  0  0  0  0  0  0  0  0  0  0
   10.0774   -3.3055    0.0000 H   0  0  0  0  0  0  0  0  0  0  0  0
    8.9000   -1.5242    0.0000 H   0  0  0  0  0  0  0  0  0  0  0  0
    9.1391   -0.2420    0.0000 H   0  0  0  0  0  0  0  0  0  0  0  0
    9.7829   -0.0428    0.0000 H   0  0  0  0  0  0  0  0  0  0  0  0
   11.4570    1.8609    0.0000 H   0  0  0  0  0  0  0  0  0  0  0  0
   12.0111    1.4918    0.0000 H   0  0  0  0  0  0  0  0  0  0  0  0
   12.0382    2.0241    0.0000 H   0  0  0  0  0  0  0  0  0  0  0  0
   12.6271    2.6658    0.0000 H   0  0  0  0  0  0  0  0  0  0  0  0
   12.4727    2.9772    0.0000 H   0  0  0  0  0  0  0  0  0  0  0  0
   13.1690    3.4891    0.0000 H   0  0  0  0  0  0  0  0  0  0  0  0
   13.1027    3.8613    0.0000 H   0  0  0  0  0  0  0  0  0  0  0  0
   13.9272    4.1954    0.0000 H   0  0  0  0  0  0  0  0  0  0  0  0
   15.4815    3.2673    0.0000 H   0  0  0  0  0  0  0  0  0  0  0  0
   14.3848    4.6524    0.0000 H   0  0  0  0  0  0  0  0  0  0  0  0
   14.4370    0.9050    0.0000 H   0  0  0  0  0  0  0  0  0  0  0  0
   13.9105   -0.7992    0.0000 H   0  0  0  0  0  0  0  0  0  0  0  0
   14.5342   -0.7092    0.0000 H   0  0  0  0  0  0  0  0  0  0  0  0
   14.4917   -1.7981    0.0000 H   0  0  0  0  0  0  0  0  0  0  0  0
   15.1434   -1.9712    0.0000 H   0  0  0  0  0  0  0  0  0  0  0  0
   15.1117   -3.8280    0.0000 H   0  0  0  0  0  0  0  0  0  0  0  0
   13.6955   -4.7113    0.0000 H   0  0  0  0  0  0  0  0  0  0  0  0
   12.1262   -4.3136    0.0000 H   0  0  0  0  0  0  0  0  0  0  0  0
   11.9076   -1.9510    0.0000 H   0  0  0  0  0  0  0  0  0  0  0  0
   13.6705   -2.1294    0.0000 H   0  0  0  0  0  0  0  0  0  0  0  0
   12.9809   -2.2539    0.0000 H   0  0  0  0  0  0  0  0  0  0  0  0
   10.5253   -2.7411    0.0000 H   0  0  0  0  0  0  0  0  0  0  0  0
   11.7036   -4.4913    0.0000 H   0  0  0  0  0  0  0  0  0  0  0  0
   11.4638   -5.8046    0.0000 H   0  0  0  0  0  0  0  0  0  0  0  0
   10.8198   -6.0039    0.0000 H   0  0  0  0  0  0  0  0  0  0  0  0
    8.3186   -6.4163    0.0000 H   0  0  0  0  0  0  0  0  0  0  0  0
    9.4946   -8.2229    0.0000 H   0  0  0  0  0  0  0  0  0  0  0  0
    9.2570   -9.4799    0.0000 H   0  0  0  0  0  0  0  0  0  0  0  0
    8.4853   -9.4965    0.0000 H   0  0  0  0  0  0  0  0  0  0  0  0
    8.9896   -9.3076    0.0000 H   0  0  0  0  0  0  0  0  0  0  0  0
    9.6430   -9.9613    0.0000 H   0  0  0  0  0  0  0  0  0  0  0  0
    8.8119  -11.6857    0.0000 H   0  0  0  0  0  0  0  0  0  0  0  0
    9.6224  -11.8144    0.0000 H   0  0  0  0  0  0  0  0  0  0  0  0
   10.7453  -10.3660    0.0000 H   0  0  0  0  0  0  0  0  0  0  0  0
   11.1573  -11.1367    0.0000 H   0  0  0  0  0  0  0  0  0  0  0  0
   10.4371  -12.7807    0.0000 H   0  0  0  0  0  0  0  0  0  0  0  0
   11.6681  -11.5135    0.0000 H   0  0  0  0  0  0  0  0  0  0  0  0
    6.1120  -10.0916    0.0000 H   0  0  0  0  0  0  0  0  0  0  0  0
    7.2903  -11.8417    0.0000 H   0  0  0  0  0  0  0  0  0  0  0  0
    7.0503  -13.1551    0.0000 H   0  0  0  0  0  0  0  0  0  0  0  0
    7.6669  -10.8161    0.0000 H   0  0  0  0  0  0  0  0  0  0  0  0
    9.2589  -11.7720    0.0000 H   0  0  0  0  0  0  0  0  0  0  0  0
    8.7420  -14.5852    0.0000 H   0  0  0  0  0  0  0  0  0  0  0  0
    7.6032  -14.5295    0.0000 H   0  0  0  0  0  0  0  0  0  0  0  0
    6.0111  -13.5736    0.0000 H   0  0  0  0  0  0  0  0  0  0  0  0
    9.8972   -9.4899    0.0000 H   0  0  0  0  0  0  0  0  0  0  0  0
   10.1771  -10.0516    0.0000 H   0  0  0  0  0  0  0  0  0  0  0  0
   10.8009   -8.3065    0.0000 H   0  0  0  0  0  0  0  0  0  0  0  0
   10.9928   -9.3591    0.0000 H   0  0  0  0  0  0  0  0  0  0  0  0
    8.7180  -10.2190    0.0000 H   0  0  0  0  0  0  0  0  0  0  0  0
   11.3306   -5.5156    0.0000 H   0  0  0  0  0  0  0  0  0  0  0  0
   12.9227   -6.4715    0.0000 H   0  0  0  0  0  0  0  0  0  0  0  0
   12.3453   -9.3016    0.0000 H   0  0  0  0  0  0  0  0  0  0  0  0
   11.2670   -9.2290    0.0000 H   0  0  0  0  0  0  0  0  0  0  0  0
    9.6749   -8.2731    0.0000 H   0  0  0  0  0  0  0  0  0  0  0  0
   12.0803   -3.4656    0.0000 H   0  0  0  0  0  0  0  0  0  0  0  0
   13.6724   -4.4215    0.0000 H   0  0  0  0  0  0  0  0  0  0  0  0
   13.6033   -7.0394    0.0000 H   0  0  0  0  0  0  0  0  0  0  0  0
   12.0166   -7.1790    0.0000 H   0  0  0  0  0  0  0  0  0  0  0  0
   10.4246   -6.2231    0.0000 H   0  0  0  0  0  0  0  0  0  0  0  0
   13.7908   -3.6796    0.0000 H   0  0  0  0  0  0  0  0  0  0  0  0
   12.2134   -4.8159    0.0000 H   0  0  0  0  0  0  0  0  0  0  0  0
   14.0383   -4.4928    0.0000 H   0  0  0  0  0  0  0  0  0  0  0  0
   13.2191   -5.1811    0.0000 H   0  0  0  0  0  0  0  0  0  0  0  0
   14.3661   -3.4766    0.0000 H   0  0  0  0  0  0  0  0  0  0  0  0
    9.2722   -0.5310    0.0000 H   0  0  0  0  0  0  0  0  0  0  0  0
    7.6802    0.4249    0.0000 H   0  0  0  0  0  0  0  0  0  0  0  0
    8.7977    2.4121    0.0000 H   0  0  0  0  0  0  0  0  0  0  0  0
    9.6132    3.6155    0.0000 H   0  0  0  0  0  0  0  0  0  0  0  0
   10.1583    3.8152    0.0000 H   0  0  0  0  0  0  0  0  0  0  0  0
   10.5117    4.6640    0.0000 H   0  0  0  0  0  0  0  0  0  0  0  0
   10.9012    5.1782    0.0000 H   0  0  0  0  0  0  0  0  0  0  0  0
    8.9963    5.0901    0.0000 H   0  0  0  0  0  0  0  0  0  0  0  0
    9.0140    5.8699    0.0000 H   0  0  0  0  0  0  0  0  0  0  0  0
    7.6506    5.2899    0.0000 H   0  0  0  0  0  0  0  0  0  0  0  0
    7.5152    5.8424    0.0000 H   0  0  0  0  0  0  0  0  0  0  0  0
    6.3409    4.0719    0.0000 H   0  0  0  0  0  0  0  0  0  0  0  0
    6.7645    4.0406    0.0000 H   0  0  0  0  0  0  0  0  0  0  0  0
    6.1619    5.4049    0.0000 H   0  0  0  0  0  0  0  0  0  0  0  0
    6.2312    6.0722    0.0000 H   0  0  0  0  0  0  0  0  0  0  0  0
    5.5798    6.7721    0.0000 H   0  0  0  0  0  0  0  0  0  0  0  0
    5.2032    7.3335    0.0000 H   0  0  0  0  0  0  0  0  0  0  0  0
    4.5053    5.6552    0.0000 H   0  0  0  0  0  0  0  0  0  0  0  0
    3.7047    5.9703    0.0000 H   0  0  0  0  0  0  0  0  0  0  0  0
    3.4972    4.3939    0.0000 H   0  0  0  0  0  0  0  0  0  0  0  0
    2.8055    3.9814    0.0000 H   0  0  0  0  0  0  0  0  0  0  0  0
    4.0500    2.8480    0.0000 H   0  0  0  0  0  0  0  0  0  0  0  0
    4.0488    2.0488    0.0000 H   0  0  0  0  0  0  0  0  0  0  0  0
    9.3359    3.1824    0.0000 H   0  0  0  0  0  0  0  0  0  0  0  0
   10.9280    2.2265    0.0000 H   0  0  0  0  0  0  0  0  0  0  0  0
    8.4524   -0.3235    0.0000 H   0  0  0  0  0  0  0  0  0  0  0  0
    8.1550    0.2312    0.0000 H   0  0  0  0  0  0  0  0  0  0  0  0
    7.6125   -1.5410    0.0000 H   0  0  0  0  0  0  0  0  0  0  0  0
    7.3722   -0.4983    0.0000 H   0  0  0  0  0  0  0  0  0  0  0  0
    9.5815    0.4567    0.0000 H   0  0  0  0  0  0  0  0  0  0  0  0
    7.0656   -4.2062    0.0000 H   0  0  0  0  0  0  0  0  0  0  0  0
    5.4735   -3.2505    0.0000 H   0  0  0  0  0  0  0  0  0  0  0  0
    5.9667   -0.4438    0.0000 H   0  0  0  0  0  0  0  0  0  0  0  0
    7.1292   -0.4929    0.0000 H   0  0  0  0  0  0  0  0  0  0  0  0
    8.7213   -1.4488    0.0000 H   0  0  0  0  0  0  0  0  0  0  0  0
    2.6306  -11.5251    0.0000 H   0  0  0  0  0  0  0  0  0  0  0  0
    1.7082   -7.7152    0.0000 H   0  0  0  0  0  0  0  0  0  0  0  0
    2.7749   -7.8140    0.0000 H   0  0  0  0  0  0  0  0  0  0  0  0
    4.3458   -8.8042    0.0000 H   0  0  0  0  0  0  0  0  0  0  0  0
    1.9197  -12.9593    0.0000 H   0  0  0  0  0  0  0  0  0  0  0  0
    2.2834  -14.6253    0.0000 H   0  0  0  0  0  0  0  0  0  0  0  0
  1  2  1  0  0  0  0
  1182  1  0  0  0  0
  1183  1  0  0  0  0
  1184  1  0  0  0  0
  2  3  1  0  0  0  0
  2  4  1  0  0  0  0
  2185  1  0  0  0  0
  3186  1  0  0  0  0
  3187  1  0  0  0  0
  3188  1  0  0  0  0
  4  5  1  0  0  0  0
  4189  1  0  0  0  0
  4190  1  0  0  0  0
  5  6  2  0  0  0  0
  5191  1  0  0  0  0
  6  7  1  0  0  0  0
  6192  1  0  0  0  0
  7  8  2  0  0  0  0
  7193  1  0  0  0  0
  8  9  1  0  0  0  0
  8194  1  0  0  0  0
  9 10  2  0  0  0  0
  9 11  1  0  0  0  0
 11195  1  0  0  0  0
 12 11  1  0  0  0  0
 12 13  1  0  0  0  0
 12 17  1  0  0  0  0
 12196  1  6  0  0  0
 13 14  1  0  0  0  0
 13197  1  0  0  0  0
 13198  1  0  0  0  0
 14 15  1  0  0  0  0
 14 16  2  0  0  0  0
 15199  1  0  0  0  0
 15200  1  0  0  0  0
 17 18  2  0  0  0  0
 17 19  1  0  0  0  0
 19201  1  0  0  0  0
 20 19  1  0  0  0  0
 20 21  1  0  0  0  0
 20103  1  0  0  0  0
 20202  1  1  0  0  0
 21 22  1  0  0  0  0
 21179  1  0  0  0  0
 21203  1  1  0  0  0
 22 23  1  0  0  0  0
 23 24  2  0  0  0  0
 23 25  1  0  0  0  0
 25 26  1  0  0  0  0
 25171  1  0  0  0  0
 25204  1  6  0  0  0
 26 27  1  0  0  0  0
 26205  1  0  0  0  0
 27 28  2  0  0  0  0
 27 29  1  0  0  0  0
 29 30  1  0  0  0  0
 29 31  1  0  0  0  0
 29206  1  1  0  0  0
 30207  1  0  0  0  0
 30208  1  0  0  0  0
 30209  1  0  0  0  0
 31 32  1  0  0  0  0
 31210  1  0  0  0  0
 32 33  2  0  0  0  0
 32 34  1  0  0  0  0
 34 35  1  0  0  0  0
 34 39  1  0  0  0  0
 34211  1  1  0  0  0
 35 36  1  0  0  0  0
 35212  1  0  0  0  0
 35213  1  0  0  0  0
 36 37  1  0  0  0  0
 36 38  1  0  0  0  0
 36214  1  0  0  0  0
 37215  1  0  0  0  0
 37216  1  0  0  0  0
 37217  1  0  0  0  0
 38218  1  0  0  0  0
 38219  1  0  0  0  0
 38220  1  0  0  0  0
 39 40  1  0  0  0  0
 39221  1  0  0  0  0
 40 41  2  0  0  0  0
 40 42  1  0  0  0  0
 42 43  1  0  0  0  0
 42222  1  0  0  0  0
 42223  1  0  0  0  0
 43 44  1  0  0  0  0
 43224  1  0  0  0  0
 44 45  2  0  0  0  0
 44 46  1  0  0  0  0
 46 47  1  0  0  0  0
 46164  1  0  0  0  0
 46225  1  1  0  0  0
 47 48  1  0  0  0  0
 47226  1  0  0  0  0
 48 49  2  0  0  0  0
 48 50  1  0  0  0  0
 50 51  1  0  0  0  0
 50161  1  0  0  0  0
 50227  1  6  0  0  0
 51 52  1  0  0  0  0
 51228  1  0  0  0  0
 52 53  2  0  0  0  0
 52 54  1  0  0  0  0
 54 55  1  0  0  0  0
 54132  1  0  0  0  0
 54229  1  1  0  0  0
 55 56  1  0  0  0  0
 55230  1  0  0  0  0
 56 57  2  0  0  0  0
 56 58  1  0  0  0  0
 58 59  1  0  0  0  0
 58 63  1  0  0  0  0
 58231  1  6  0  0  0
 59 60  1  0  0  0  0
 59232  1  0  0  0  0
 59233  1  0  0  0  0
 60 61  1  0  0  0  0
 60234  1  0  0  0  0
 60235  1  0  0  0  0
 61 62  1  0  0  0  0
 61236  1  0  0  0  0
 61237  1  0  0  0  0
 62238  1  0  0  0  0
 62239  1  0  0  0  0
 63 64  1  0  0  0  0
 63240  1  0  0  0  0
 64 65  2  0  0  0  0
 64 66  1  0  0  0  0
 66 67  1  0  0  0  0
 66 74  1  0  0  0  0
 66241  1  6  0  0  0
 67 68  1  0  0  0  0
 67242  1  0  0  0  0
 67243  1  0  0  0  0
 68 69  2  0  0  0  0
 68 73  1  0  0  0  0
 69 70  1  0  0  0  0
 69244  1  0  0  0  0
 70 71  2  0  0  0  0
 70245  1  0  0  0  0
 71 72  1  0  0  0  0
 71246  1  0  0  0  0
 72 73  2  0  0  0  0
 72247  1  0  0  0  0
 73248  1  0  0  0  0
 74 75  1  0  0  0  0
 74249  1  0  0  0  0
 75 76  2  0  0  0  0
 75 77  1  0  0  0  0
 77 78  1  0  0  0  0
 77129  1  0  0  0  0
 77250  1  1  0  0  0
 78 79  1  0  0  0  0
 78251  1  0  0  0  0
 79 80  2  0  0  0  0
 79 81  1  0  0  0  0
 81 82  1  0  0  0  0
 81122  1  0  0  0  0
 81252  1  6  0  0  0
 82 83  1  0  0  0  0
 82253  1  0  0  0  0
 83 84  2  0  0  0  0
 83 85  1  0  0  0  0
 85 86  1  0  0  0  0
 85115  1  0  0  0  0
 85254  1  6  0  0  0
 86 87  1  0  0  0  0
 86255  1  0  0  0  0
 87 88  2  0  0  0  0
 87 89  1  0  0  0  0
 89 90  1  0  0  0  0
 89112  1  0  0  0  0
 89256  1  6  0  0  0
 90 91  1  0  0  0  0
 90257  1  0  0  0  0
 91 92  2  0  0  0  0
 91 93  1  0  0  0  0
 93 94  1  0  0  0  0
 93 98  1  0  0  0  0
 93258  1  6  0  0  0
 94 95  1  0  0  0  0
 94259  1  0  0  0  0
 94260  1  0  0  0  0
 95 96  1  0  0  0  0
 95261  1  0  0  0  0
 95262  1  0  0  0  0
 96 97  1  0  0  0  0
 96263  1  0  0  0  0
 96264  1  0  0  0  0
 97265  1  0  0  0  0
 97266  1  0  0  0  0
 98 99  1  0  0  0  0
 98267  1  0  0  0  0
 99100  2  0  0  0  0
 99101  1  0  0  0  0
101102  1  0  0  0  0
101105  1  0  0  0  0
101268  1  6  0  0  0
102103  1  0  0  0  0
102269  1  0  0  0  0
103104  2  0  0  0  0
105106  2  0  0  0  0
105111  1  0  0  0  0
106107  1  0  0  0  0
106270  1  0  0  0  0
107108  2  0  0  0  0
107271  1  0  0  0  0
108109  1  0  0  0  0
108110  1  0  0  0  0
109272  1  0  0  0  0
110111  2  0  0  0  0
110273  1  0  0  0  0
111274  1  0  0  0  0
112113  1  0  0  0  0
112114  1  0  0  0  0
112275  1  6  0  0  0
113276  1  0  0  0  0
113277  1  0  0  0  0
113278  1  0  0  0  0
114279  1  0  0  0  0
115116  2  0  0  0  0
115121  1  0  0  0  0
116117  1  0  0  0  0
116280  1  0  0  0  0
117118  2  0  0  0  0
117281  1  0  0  0  0
118119  1  0  0  0  0
118120  1  0  0  0  0
119282  1  0  0  0  0
120121  2  0  0  0  0
120283  1  0  0  0  0
121284  1  0  0  0  0
122123  2  0  0  0  0
122128  1  0  0  0  0
123124  1  0  0  0  0
123285  1  0  0  0  0
124125  2  0  0  0  0
124286  1  0  0  0  0
125126  1  0  0  0  0
125127  1  0  0  0  0
126287  1  0  0  0  0
127128  2  0  0  0  0
127288  1  0  0  0  0
128289  1  0  0  0  0
129130  1  0  0  0  0
129131  1  0  0  0  0
129290  1  6  0  0  0
130291  1  0  0  0  0
130292  1  0  0  0  0
130293  1  0  0  0  0
131294  1  0  0  0  0
132133  2  0  0  0  0
132160  1  0  0  0  0
133134  1  0  0  0  0
133295  1  0  0  0  0
134135  2  0  0  0  0
134296  1  0  0  0  0
135136  1  0  0  0  0
135159  1  0  0  0  0
137136  1  0  0  0  0
137138  1  0  0  0  0
137146  1  0  0  0  0
137297  1  6  0  0  0
138139  1  0  0  0  0
139140  1  0  0  0  0
139142  1  0  0  0  0
139298  1  6  0  0  0
140141  1  0  0  0  0
140299  1  0  0  0  0
140300  1  0  0  0  0
141301  1  0  0  0  0
142143  1  0  0  0  0
142144  1  0  0  0  0
142302  1  1  0  0  0
143303  1  0  0  0  0
144145  1  0  0  0  0
144146  1  0  0  0  0
144304  1  6  0  0  0
145305  1  0  0  0  0
146147  1  0  0  0  0
146306  1  6  0  0  0
148147  1  0  0  0  0
148149  1  0  0  0  0
148157  1  0  0  0  0
148307  1  1  0  0  0
149150  1  0  0  0  0
150151  1  0  0  0  0
150153  1  0  0  0  0
150308  1  6  0  0  0
151152  1  0  0  0  0
151309  1  0  0  0  0
151310  1  0  0  0  0
152311  1  0  0  0  0
153154  1  0  0  0  0
153155  1  0  0  0  0
153312  1  1  0  0  0
154313  1  0  0  0  0
155156  1  0  0  0  0
155157  1  0  0  0  0
155314  1  6  0  0  0
156315  1  0  0  0  0
157158  1  0  0  0  0
157316  1  6  0  0  0
158317  1  0  0  0  0
159160  2  0  0  0  0
159318  1  0  0  0  0
160319  1  0  0  0  0
161162  1  0  0  0  0
161163  1  0  0  0  0
161320  1  6  0  0  0
162321  1  0  0  0  0
162322  1  0  0  0  0
162323  1  0  0  0  0
163324  1  0  0  0  0
164165  2  0  0  0  0
164170  1  0  0  0  0
165166  1  0  0  0  0
165325  1  0  0  0  0
166167  2  0  0  0  0
166326  1  0  0  0  0
167168  1  0  0  0  0
167169  1  0  0  0  0
168327  1  0  0  0  0
169170  2  0  0  0  0
169328  1  0  0  0  0
170329  1  0  0  0  0
171172  2  0  0  0  0
171178  1  0  0  0  0
172173  1  0  0  0  0
172330  1  0  0  0  0
173174  1  0  0  0  0
173175  2  0  0  0  0
175176  1  0  0  0  0
175177  1  0  0  0  0
176331  1  0  0  0  0
177178  2  0  0  0  0
177332  1  0  0  0  0
178333  1  0  0  0  0
179180  1  0  0  0  0
179181  2  0  0  0  0
180334  1  0  0  0  0
180335  1  0  0  0  0
M  END
>  <DRUGBANK_ID>
DB04952

>  <COMMON_NAME>
Ramoplanin

>  <CAS_NUMBER>
76168-82-6

>  <UNII>
0WX9996O2G

>  <SYNONYMS>
Ramoplanin

$$$$
