
 OpenBabel10282417072D

 31 28  0  0  0  0  0  0  0  0999 V2000
    0.3423    0.2066    0.0000 O   0  5  0  0  0  0  0  0  0  0  0  0
    1.0563   -0.2066    0.0000 C   0  0  0  0  0  0  0  0  0  0  0  0
    1.7705    0.2066    0.0000 C   0  0  0  0  0  0  0  0  0  0  0  0
    2.4845   -0.2066    0.0000 C   0  0  3  0  0  0  0  0  0  0  0  0
    3.1984    0.2066    0.0000 C   0  0  0  0  0  0  0  0  0  0  0  0
    3.9125   -0.2066    0.0000 O   0  5  0  0  0  0  0  0  0  0  0  0
    1.0521   -1.0334    0.0000 O   0  0  0  0  0  0  0  0  0  0  0  0
    2.4802   -1.0334    0.0000 N   0  3  0  0  0  0  0  0  0  0  0  0
    3.1943    1.0334    0.0000 O   0  0  0  0  0  0  0  0  0  0  0  0
   -3.9125    0.0104    0.0000 Zn  0  2  0  0  0  0  0  0  0  0  0  0
   -1.8969    2.8238    0.0000 O   0  5  0  0  0  0  0  0  0  0  0  0
   -1.1829    2.4105    0.0000 C   0  0  0  0  0  0  0  0  0  0  0  0
   -0.4688    2.8238    0.0000 C   0  0  0  0  0  0  0  0  0  0  0  0
    0.2451    2.4105    0.0000 C   0  0  3  0  0  0  0  0  0  0  0  0
    0.9590    2.8238    0.0000 C   0  0  0  0  0  0  0  0  0  0  0  0
    1.6732    2.4105    0.0000 O   0  5  0  0  0  0  0  0  0  0  0  0
   -1.1871    1.5838    0.0000 O   0  0  0  0  0  0  0  0  0  0  0  0
    0.2408    1.5838    0.0000 N   0  3  0  0  0  0  0  0  0  0  0  0
    0.9549    3.6506    0.0000 O   0  0  0  0  0  0  0  0  0  0  0  0
    1.7706    1.2766    0.0000 H   0  0  0  0  0  0  0  0  0  0  0  0
    0.8436    0.7412    0.0000 H   0  0  0  0  0  0  0  0  0  0  0  0
    2.4845    0.8634    0.0000 H   0  0  0  0  0  0  0  0  0  0  0  0
    1.5942   -1.5388    0.0000 H   0  0  0  0  0  0  0  0  0  0  0  0
    3.3609   -1.5480    0.0000 H   0  0  0  0  0  0  0  0  0  0  0  0
    2.4749   -2.0534    0.0000 H   0  0  0  0  0  0  0  0  0  0  0  0
   -0.4687    3.8938    0.0000 H   0  0  0  0  0  0  0  0  0  0  0  0
   -1.3957    3.3583    0.0000 H   0  0  0  0  0  0  0  0  0  0  0  0
    0.2451    3.4805    0.0000 H   0  0  0  0  0  0  0  0  0  0  0  0
   -0.6452    1.0784    0.0000 H   0  0  0  0  0  0  0  0  0  0  0  0
    1.1215    1.0692    0.0000 H   0  0  0  0  0  0  0  0  0  0  0  0
    0.2355    0.5638    0.0000 H   0  0  0  0  0  0  0  0  0  0  0  0
  1  2  1  0  0  0  0
  2  7  2  0  0  0  0
  2  3  1  0  0  0  0
  3  4  1  0  0  0  0
  3 20  1  0  0  0  0
  3 21  1  0  0  0  0
  4  5  1  0  0  0  0
  4  8  1  0  0  0  0
  4 22  1  0  0  0  0
  5  9  2  0  0  0  0
  5  6  1  0  0  0  0
  8 23  1  0  0  0  0
  8 24  1  0  0  0  0
  8 25  1  0  0  0  0
 11 12  1  0  0  0  0
 12 17  2  0  0  0  0
 12 13  1  0  0  0  0
 13 14  1  0  0  0  0
 13 26  1  0  0  0  0
 13 27  1  0  0  0  0
 14 15  1  0  0  0  0
 14 18  1  0  0  0  0
 14 28  1  0  0  0  0
 15 19  2  0  0  0  0
 15 16  1  0  0  0  0
 18 29  1  0  0  0  0
 18 30  1  0  0  0  0
 18 31  1  0  0  0  0
M  CHG  7   1  -1   6  -1   8   1  10   2  11  -1  16  -1  18   1
M  END
>  <DRUGBANK_ID>
DB16006

>  <COMMON_NAME>
Zinc DL-aspartate

>  <CAS_NUMBER>
15281-32-0

>  <UNII>
T967Q579KA

$$$$
