
 OpenBabel10282417072D

 66 70  0  0  1  0  0  0  0  0999 V2000
   -1.1270    9.3770    0.0000 C   0  0  0  0  0  0  0  0  0  0  0  0
   -0.4125    8.9645    0.0000 C   0  0  2  0  0  0  0  0  0  0  0  0
   -0.4125    8.1395    0.0000 C   0  0  0  0  0  0  0  0  0  0  0  0
    0.3020    7.7270    0.0000 N   0  0  0  0  0  0  0  0  0  0  0  0
    1.0164    8.1395    0.0000 C   0  0  0  0  0  0  0  0  0  0  0  0
    1.0164    8.9645    0.0000 C   0  0  0  0  0  0  0  0  0  0  0  0
    0.3020    9.3770    0.0000 N   0  0  0  0  0  0  0  0  0  0  0  0
    0.3020   10.2020    0.0000 C   0  0  0  0  0  0  0  0  0  0  0  0
    0.3020    6.9020    0.0000 C   0  0  0  0  0  0  0  0  0  0  0  0
    1.0164    6.4895    0.0000 C   0  0  0  0  0  0  0  0  0  0  0  0
    1.0164    5.6645    0.0000 N   0  0  0  0  0  0  0  0  0  0  0  0
    0.3020    5.2520    0.0000 C   0  0  0  0  0  0  0  0  0  0  0  0
    0.3020    4.4270    0.0000 N   0  0  0  0  0  0  0  0  0  0  0  0
   -0.4125    4.0145    0.0000 C   0  0  0  0  0  0  0  0  0  0  0  0
   -0.4125    3.1895    0.0000 C   0  0  0  0  0  0  0  0  0  0  0  0
   -1.1270    2.7770    0.0000 C   0  0  0  0  0  0  0  0  0  0  0  0
   -1.1270    1.9520    0.0000 C   0  0  0  0  0  0  0  0  0  0  0  0
   -0.7145    1.2375    0.0000 C   0  0  0  0  0  0  0  0  0  0  0  0
   -1.5395    1.2375    0.0000 C   0  0  0  0  0  0  0  0  0  0  0  0
   -1.8414    3.1895    0.0000 C   0  0  0  0  0  0  0  0  0  0  0  0
   -2.5559    2.7770    0.0000 F   0  0  0  0  0  0  0  0  0  0  0  0
   -1.8414    4.0145    0.0000 C   0  0  0  0  0  0  0  0  0  0  0  0
   -2.5559    4.4270    0.0000 C   0  0  0  0  0  0  0  0  0  0  0  0
   -1.1270    4.4270    0.0000 N   0  0  0  0  0  0  0  0  0  0  0  0
   -0.4125    5.6645    0.0000 N   0  0  0  0  0  0  0  0  0  0  0  0
   -0.4125    6.4895    0.0000 C   0  0  0  0  0  0  0  0  0  0  0  0
   -1.1270    6.9020    0.0000 N   0  0  0  0  0  0  0  0  0  0  0  0
   -1.8414    6.4895    0.0000 C   0  0  0  0  0  0  0  0  0  0  0  0
   -1.9277    5.6690    0.0000 C   0  0  0  0  0  0  0  0  0  0  0  0
   -2.7346    5.4975    0.0000 C   0  0  0  0  0  0  0  0  0  0  0  0
   -3.0702    4.7438    0.0000 C   0  0  0  0  0  0  0  0  0  0  0  0
   -3.1471    6.2119    0.0000 N   0  0  0  0  0  0  0  0  0  0  0  0
   -3.9676    6.2982    0.0000 C   0  0  0  0  0  0  0  0  0  0  0  0
   -2.5951    6.8250    0.0000 N   0  0  0  0  0  0  0  0  0  0  0  0
   -1.1270   10.4470    0.0000 H   0  0  0  0  0  0  0  0  0  0  0  0
   -2.0536    8.8420    0.0000 H   0  0  0  0  0  0  0  0  0  0  0  0
   -2.0537    9.9120    0.0000 H   0  0  0  0  0  0  0  0  0  0  0  0
   -1.3391    8.4295    0.0000 H   0  0  0  0  0  0  0  0  0  0  0  0
   -1.3391    7.6045    0.0000 H   0  0  0  0  0  0  0  0  0  0  0  0
   -0.4125    7.0695    0.0000 H   0  0  0  0  0  0  0  0  0  0  0  0
    1.9431    7.6045    0.0000 H   0  0  0  0  0  0  0  0  0  0  0  0
    1.9430    8.6745    0.0000 H   0  0  0  0  0  0  0  0  0  0  0  0
    1.9431    9.4995    0.0000 H   0  0  0  0  0  0  0  0  0  0  0  0
    1.0164   10.0345    0.0000 H   0  0  0  0  0  0  0  0  0  0  0  0
    1.2286   10.7370    0.0000 H   0  0  0  0  0  0  0  0  0  0  0  0
   -0.6246   10.7370    0.0000 H   0  0  0  0  0  0  0  0  0  0  0  0
    0.3020   11.2720    0.0000 H   0  0  0  0  0  0  0  0  0  0  0  0
    1.9101    7.0055    0.0000 H   0  0  0  0  0  0  0  0  0  0  0  0
    1.1546    3.9347    0.0000 H   0  0  0  0  0  0  0  0  0  0  0  0
    0.4812    2.6735    0.0000 H   0  0  0  0  0  0  0  0  0  0  0  0
   -1.1270    0.8820    0.0000 H   0  0  0  0  0  0  0  0  0  0  0  0
    0.2121    0.7025    0.0000 H   0  0  0  0  0  0  0  0  0  0  0  0
   -0.9914    0.2040    0.0000 H   0  0  0  0  0  0  0  0  0  0  0  0
   -2.4661    0.7025    0.0000 H   0  0  0  0  0  0  0  0  0  0  0  0
   -2.2961    1.9941    0.0000 H   0  0  0  0  0  0  0  0  0  0  0  0
   -2.5559    5.4970    0.0000 H   0  0  0  0  0  0  0  0  0  0  0  0
   -3.4825    3.8920    0.0000 H   0  0  0  0  0  0  0  0  0  0  0  0
   -3.4826    4.9620    0.0000 H   0  0  0  0  0  0  0  0  0  0  0  0
   -1.1270    7.8865    0.0000 H   0  0  0  0  0  0  0  0  0  0  0  0
   -1.1608    4.9784    0.0000 H   0  0  0  0  0  0  0  0  0  0  0  0
   -4.1343    4.6320    0.0000 H   0  0  0  0  0  0  0  0  0  0  0  0
   -2.4413    3.8781    0.0000 H   0  0  0  0  0  0  0  0  0  0  0  0
   -3.5054    3.7663    0.0000 H   0  0  0  0  0  0  0  0  0  0  0  0
   -4.4027    7.2757    0.0000 H   0  0  0  0  0  0  0  0  0  0  0  0
   -4.5966    5.4326    0.0000 H   0  0  0  0  0  0  0  0  0  0  0  0
   -5.0317    6.4101    0.0000 H   0  0  0  0  0  0  0  0  0  0  0  0
  1 35  1  0  0  0  0
  1 36  1  0  0  0  0
  1 37  1  0  0  0  0
  2  1  1  0  0  0  0
  2  3  1  0  0  0  0
  2  7  1  0  0  0  0
  2 38  1  6  0  0  0
  3  4  1  0  0  0  0
  3 39  1  0  0  0  0
  3 40  1  0  0  0  0
  4  5  1  0  0  0  0
  4  9  1  0  0  0  0
  5  6  1  0  0  0  0
  5 41  1  0  0  0  0
  5 42  1  0  0  0  0
  6  7  1  0  0  0  0
  6 43  1  0  0  0  0
  6 44  1  0  0  0  0
  7  8  1  0  0  0  0
  8 45  1  0  0  0  0
  8 46  1  0  0  0  0
  8 47  1  0  0  0  0
  9 10  2  0  0  0  0
  9 26  1  0  0  0  0
 10 11  1  0  0  0  0
 10 48  1  0  0  0  0
 11 12  2  0  0  0  0
 12 13  1  0  0  0  0
 12 25  1  0  0  0  0
 13 14  1  0  0  0  0
 13 49  1  0  0  0  0
 14 15  2  0  0  0  0
 14 24  1  0  0  0  0
 15 16  1  0  0  0  0
 15 50  1  0  0  0  0
 16 17  1  0  0  0  0
 16 20  2  0  0  0  0
 17 18  1  0  0  0  0
 17 19  1  0  0  0  0
 17 51  1  0  0  0  0
 18 19  1  0  0  0  0
 18 52  1  0  0  0  0
 18 53  1  0  0  0  0
 19 54  1  0  0  0  0
 19 55  1  0  0  0  0
 20 21  1  0  0  0  0
 20 22  1  0  0  0  0
 22 23  1  0  0  0  0
 22 24  2  0  0  0  0
 23 56  1  0  0  0  0
 23 57  1  0  0  0  0
 23 58  1  0  0  0  0
 25 26  2  0  0  0  0
 26 27  1  0  0  0  0
 27 28  1  0  0  0  0
 27 59  1  0  0  0  0
 28 29  1  0  0  0  0
 28 34  2  0  0  0  0
 29 30  2  0  0  0  0
 29 60  1  0  0  0  0
 30 31  1  0  0  0  0
 30 32  1  0  0  0  0
 31 61  1  0  0  0  0
 31 62  1  0  0  0  0
 31 63  1  0  0  0  0
 32 33  1  0  0  0  0
 32 34  1  0  0  0  0
 33 64  1  0  0  0  0
 33 65  1  0  0  0  0
 33 66  1  0  0  0  0
M  END
>  <DRUGBANK_ID>
DB18062

>  <COMMON_NAME>
ZY19489

>  <CAS_NUMBER>
1821293-40-6

>  <UNII>
VL8W9427Y4

>  <SYNONYMS>
ZY-19489

$$$$
