
 OpenBabel10282417072D

141144  0  0  0  0  0  0  0  0999 V2000
    3.2150   -0.2062    0.0000 O   0  0  0  0  0  0  0  0  0  0  0  0
    3.2150   -1.0312    0.0000 C   0  0  2  0  0  0  0  0  0  0  0  0
    3.9294   -1.4437    0.0000 C   0  0  1  0  0  0  0  0  0  0  0  0
    4.6439   -1.0311    0.0000 C   0  0  2  0  0  0  0  0  0  0  0  0
    4.6439   -0.2061    0.0000 C   0  0  1  0  0  0  0  0  0  0  0  0
    3.9294    0.2063    0.0000 C   0  0  1  0  0  0  0  0  0  0  0  0
    3.9294    1.0312    0.0000 C   0  0  0  0  0  0  0  0  0  0  0  0
    5.3585   -1.4436    0.0000 N   0  0  0  0  0  0  0  0  0  0  0  0
    6.0730   -1.0311    0.0000 C   0  0  0  0  0  0  0  0  0  0  0  0
    5.3585   -2.2687    0.0000 C   0  0  0  0  0  0  0  0  0  0  0  0
    3.9295   -2.2686    0.0000 O   0  0  0  0  0  0  0  0  0  0  0  0
    1.7860   -1.0312    0.0000 C   0  0  1  0  0  0  0  0  0  0  0  0
    1.7860   -0.2062    0.0000 C   0  0  2  0  0  0  0  0  0  0  0  0
    1.0715   -1.4437    0.0000 C   0  0  2  0  0  0  0  0  0  0  0  0
    1.0715   -2.2687    0.0000 C   0  0  1  0  0  0  0  0  0  0  0  0
    0.3571   -2.6812    0.0000 C   0  0  0  0  0  0  0  0  0  0  0  0
   -0.3573   -2.2687    0.0000 C   0  0  0  0  0  0  0  0  0  0  0  0
   -1.0718   -1.0312    0.0000 C   0  0  0  0  0  0  0  0  0  0  0  0
   -1.0718   -0.2062    0.0000 C   0  0  0  0  0  0  0  0  0  0  0  0
   -0.3573    0.2062    0.0000 C   0  0  0  0  0  0  0  0  0  0  0  0
   -0.3573    1.0312    0.0000 C   0  0  0  0  0  0  0  0  0  0  0  0
    0.3571    1.4437    0.0000 C   0  0  0  0  0  0  0  0  0  0  0  0
    1.0715    1.0312    0.0000 C   0  0  1  0  0  0  0  0  0  0  0  0
    1.0715    0.2062    0.0000 C   0  0  0  0  0  0  0  0  0  0  0  0
    0.3571    2.2687    0.0000 O   0  0  0  0  0  0  0  0  0  0  0  0
    1.7860   -2.6812    0.0000 O   0  0  0  0  0  0  0  0  0  0  0  0
   -1.0718   -2.6812    0.0000 O   0  0  0  0  0  0  0  0  0  0  0  0
    1.7860    1.4437    0.0000 C   0  0  0  0  0  0  0  0  0  0  0  0
    2.5005    0.2062    0.0000 C   0  0  0  0  0  0  0  0  0  0  0  0
   -1.7863   -1.4437    0.0000 C   0  0  1  0  0  0  0  0  0  0  0  0
    0.3571   -1.0312    0.0000 C   0  0  0  0  0  0  0  0  0  0  0  0
   -1.7863   -2.2687    0.0000 C   0  0  1  0  0  0  0  0  0  0  0  0
   -1.7863    0.2062    0.0000 C   0  0  0  0  0  0  0  0  0  0  0  0
    5.3585    0.2062    0.0000 O   0  0  0  0  0  0  0  0  0  0  0  0
    2.5005    1.0312    0.0000 C   0  0  0  0  0  0  0  0  0  0  0  0
   -2.5007   -2.6812    0.0000 C   0  0  0  0  0  0  0  0  0  0  0  0
   -2.5007   -3.5062    0.0000 C   0  0  0  0  0  0  0  0  0  0  0  0
   -0.3573   -1.4437    0.0000 O   0  0  0  0  0  0  0  0  0  0  0  0
   -2.5007   -1.0312    0.0000 C   0  0  0  0  0  0  0  0  0  0  0  0
    3.2149    1.4437    0.0000 O   0  0  0  0  0  0  0  0  0  0  0  0
   -3.9297   -0.2062    0.0000 O   0  0  0  0  0  0  0  0  0  0  0  0
   -4.6441    0.2063    0.0000 C   0  0  1  0  0  0  0  0  0  0  0  0
   -5.3586   -0.2061    0.0000 C   0  0  2  0  0  0  0  0  0  0  0  0
   -5.3586   -1.0311    0.0000 C   0  0  2  0  0  0  0  0  0  0  0  0
   -4.6441   -1.4437    0.0000 C   0  0  2  0  0  0  0  0  0  0  0  0
   -3.9297   -1.0312    0.0000 C   0  0  2  0  0  0  0  0  0  0  0  0
   -6.0731   -1.4436    0.0000 O   0  0  0  0  0  0  0  0  0  0  0  0
   -6.0731    0.2062    0.0000 O   0  0  0  0  0  0  0  0  0  0  0  0
   -4.6441    1.0312    0.0000 C   0  0  0  0  0  0  0  0  0  0  0  0
   -4.6442   -2.2686    0.0000 O   0  0  0  0  0  0  0  0  0  0  0  0
    2.5005   -1.4437    0.0000 O   0  0  0  0  0  0  0  0  0  0  0  0
   -3.2152   -1.4437    0.0000 O   0  0  0  0  0  0  0  0  0  0  0  0
    6.0730    1.4437    0.0000 O   0  0  0  0  0  0  0  0  0  0  0  0
    6.0731    2.2687    0.0000 C   0  0  2  0  0  0  0  0  0  0  0  0
    5.3586    2.6813    0.0000 C   0  0  1  0  0  0  0  0  0  0  0  0
    4.6440    2.2688    0.0000 C   0  0  1  0  0  0  0  0  0  0  0  0
    4.6439    1.4437    0.0000 C   0  0  0  0  0  0  0  0  0  0  0  0
    5.3585    1.0312    0.0000 C   0  0  2  0  0  0  0  0  0  0  0  0
    5.3586    3.5062    0.0000 O   0  0  0  0  0  0  0  0  0  0  0  0
    6.7876    2.6811    0.0000 C   0  0  0  0  0  0  0  0  0  0  0  0
    4.2316    2.9833    0.0000 O   0  0  0  0  0  0  0  0  0  0  0  0
    3.8190    2.2688    0.0000 C   0  0  0  0  0  0  0  0  0  0  0  0
   -5.3587   -2.6810    0.0000 C   0  0  0  0  0  0  0  0  0  0  0  0
   -6.7876   -1.0310    0.0000 C   0  0  0  0  0  0  0  0  0  0  0  0
    2.2884   -0.4962    0.0000 H   0  0  0  0  0  0  0  0  0  0  0  0
    3.0028   -1.9787    0.0000 H   0  0  0  0  0  0  0  0  0  0  0  0
    4.6440   -2.1011    0.0000 H   0  0  0  0  0  0  0  0  0  0  0  0
    5.5705   -0.7412    0.0000 H   0  0  0  0  0  0  0  0  0  0  0  0
    3.0027    0.7413    0.0000 H   0  0  0  0  0  0  0  0  0  0  0  0
    4.8560    1.5662    0.0000 H   0  0  0  0  0  0  0  0  0  0  0  0
    3.0028    1.5662    0.0000 H   0  0  0  0  0  0  0  0  0  0  0  0
    3.9294    2.1012    0.0000 H   0  0  0  0  0  0  0  0  0  0  0  0
    6.9996   -1.5661    0.0000 H   0  0  0  0  0  0  0  0  0  0  0  0
    6.0730    0.0389    0.0000 H   0  0  0  0  0  0  0  0  0  0  0  0
    6.9997   -0.4961    0.0000 H   0  0  0  0  0  0  0  0  0  0  0  0
    4.4319   -2.8037    0.0000 H   0  0  0  0  0  0  0  0  0  0  0  0
    6.2851   -2.8037    0.0000 H   0  0  0  0  0  0  0  0  0  0  0  0
    5.3585   -3.3387    0.0000 H   0  0  0  0  0  0  0  0  0  0  0  0
    3.0895   -2.7537    0.0000 H   0  0  0  0  0  0  0  0  0  0  0  0
    2.7126   -0.4962    0.0000 H   0  0  0  0  0  0  0  0  0  0  0  0
    2.7126   -0.7413    0.0000 H   0  0  0  0  0  0  0  0  0  0  0  0
    1.0715   -0.3737    0.0000 H   0  0  0  0  0  0  0  0  0  0  0  0
    1.9981   -1.7337    0.0000 H   0  0  0  0  0  0  0  0  0  0  0  0
    0.3571   -3.7512    0.0000 H   0  0  0  0  0  0  0  0  0  0  0  0
   -0.5696   -3.2162    0.0000 H   0  0  0  0  0  0  0  0  0  0  0  0
   -0.1781   -1.5472    0.0000 H   0  0  0  0  0  0  0  0  0  0  0  0
    0.5364   -0.3099    0.0000 H   0  0  0  0  0  0  0  0  0  0  0  0
   -1.2510    1.5472    0.0000 H   0  0  0  0  0  0  0  0  0  0  0  0
    1.0715    2.1012    0.0000 H   0  0  0  0  0  0  0  0  0  0  0  0
    0.1449   -0.3289    0.0000 H   0  0  0  0  0  0  0  0  0  0  0  0
    1.0716   -0.8638    0.0000 H   0  0  0  0  0  0  0  0  0  0  0  0
    1.7860   -3.6512    0.0000 H   0  0  0  0  0  0  0  0  0  0  0  0
    2.7126    0.9087    0.0000 H   0  0  0  0  0  0  0  0  0  0  0  0
    1.7860    2.5137    0.0000 H   0  0  0  0  0  0  0  0  0  0  0  0
    2.7127    1.9787    0.0000 H   0  0  0  0  0  0  0  0  0  0  0  0
    3.4271   -0.3289    0.0000 H   0  0  0  0  0  0  0  0  0  0  0  0
    3.4272    0.7412    0.0000 H   0  0  0  0  0  0  0  0  0  0  0  0
   -1.7863   -0.3737    0.0000 H   0  0  0  0  0  0  0  0  0  0  0  0
    0.3571    0.0388    0.0000 H   0  0  0  0  0  0  0  0  0  0  0  0
   -0.5696   -1.5662    0.0000 H   0  0  0  0  0  0  0  0  0  0  0  0
   -0.5695   -0.4962    0.0000 H   0  0  0  0  0  0  0  0  0  0  0  0
   -2.7130   -1.7337    0.0000 H   0  0  0  0  0  0  0  0  0  0  0  0
   -1.7864    1.2762    0.0000 H   0  0  0  0  0  0  0  0  0  0  0  0
   -2.7129   -0.3289    0.0000 H   0  0  0  0  0  0  0  0  0  0  0  0
   -2.7130    0.7411    0.0000 H   0  0  0  0  0  0  0  0  0  0  0  0
    1.6068    1.5472    0.0000 H   0  0  0  0  0  0  0  0  0  0  0  0
   -3.4274   -2.1462    0.0000 H   0  0  0  0  0  0  0  0  0  0  0  0
   -3.4273   -3.2162    0.0000 H   0  0  0  0  0  0  0  0  0  0  0  0
   -3.4273   -4.0412    0.0000 H   0  0  0  0  0  0  0  0  0  0  0  0
   -1.5741   -4.0412    0.0000 H   0  0  0  0  0  0  0  0  0  0  0  0
   -2.5007   -4.5762    0.0000 H   0  0  0  0  0  0  0  0  0  0  0  0
   -2.5007    0.0388    0.0000 H   0  0  0  0  0  0  0  0  0  0  0  0
   -3.4273   -0.4962    0.0000 H   0  0  0  0  0  0  0  0  0  0  0  0
   -3.7174    0.7413    0.0000 H   0  0  0  0  0  0  0  0  0  0  0  0
   -5.3587    0.8639    0.0000 H   0  0  0  0  0  0  0  0  0  0  0  0
   -6.2852   -0.4961    0.0000 H   0  0  0  0  0  0  0  0  0  0  0  0
   -5.5708   -1.9786    0.0000 H   0  0  0  0  0  0  0  0  0  0  0  0
   -3.0031   -0.4962    0.0000 H   0  0  0  0  0  0  0  0  0  0  0  0
   -6.0733    1.1762    0.0000 H   0  0  0  0  0  0  0  0  0  0  0  0
   -3.7175    1.5662    0.0000 H   0  0  0  0  0  0  0  0  0  0  0  0
   -5.5707    1.5662    0.0000 H   0  0  0  0  0  0  0  0  0  0  0  0
   -4.6441    2.1012    0.0000 H   0  0  0  0  0  0  0  0  0  0  0  0
    6.9997    1.7336    0.0000 H   0  0  0  0  0  0  0  0  0  0  0  0
    6.2853    3.2163    0.0000 H   0  0  0  0  0  0  0  0  0  0  0  0
    3.7172    0.9087    0.0000 H   0  0  0  0  0  0  0  0  0  0  0  0
    4.6439    0.3737    0.0000 H   0  0  0  0  0  0  0  0  0  0  0  0
    6.2851    0.4962    0.0000 H   0  0  0  0  0  0  0  0  0  0  0  0
    6.1986    3.9912    0.0000 H   0  0  0  0  0  0  0  0  0  0  0  0
    7.7142    2.1460    0.0000 H   0  0  0  0  0  0  0  0  0  0  0  0
    6.7877    3.7511    0.0000 H   0  0  0  0  0  0  0  0  0  0  0  0
    7.7143    3.2160    0.0000 H   0  0  0  0  0  0  0  0  0  0  0  0
    4.7167    3.8233    0.0000 H   0  0  0  0  0  0  0  0  0  0  0  0
    3.2840    3.1954    0.0000 H   0  0  0  0  0  0  0  0  0  0  0  0
    3.2840    1.3422    0.0000 H   0  0  0  0  0  0  0  0  0  0  0  0
    2.7490    2.2688    0.0000 H   0  0  0  0  0  0  0  0  0  0  0  0
   -6.2853   -2.1459    0.0000 H   0  0  0  0  0  0  0  0  0  0  0  0
   -5.3588   -3.7510    0.0000 H   0  0  0  0  0  0  0  0  0  0  0  0
   -6.2854   -3.2159    0.0000 H   0  0  0  0  0  0  0  0  0  0  0  0
   -6.7875    0.0390    0.0000 H   0  0  0  0  0  0  0  0  0  0  0  0
   -7.7143   -1.5659    0.0000 H   0  0  0  0  0  0  0  0  0  0  0  0
   -7.7142   -0.4959    0.0000 H   0  0  0  0  0  0  0  0  0  0  0  0
  1  2  1  0  0  0  0
  1  6  1  0  0  0  0
  2  3  1  0  0  0  0
  2 51  1  0  0  0  0
  2 65  1  1  0  0  0
  3  4  1  0  0  0  0
  3 11  1  0  0  0  0
  3 66  1  6  0  0  0
  4  5  1  0  0  0  0
  4  8  1  0  0  0  0
  4 67  1  1  0  0  0
  5  6  1  0  0  0  0
  5 34  1  0  0  0  0
  5 68  1  6  0  0  0
  6  7  1  0  0  0  0
  6 69  1  1  0  0  0
  7 70  1  0  0  0  0
  7 71  1  0  0  0  0
  7 72  1  0  0  0  0
  8  9  1  0  0  0  0
  8 10  1  0  0  0  0
  9 73  1  0  0  0  0
  9 74  1  0  0  0  0
  9 75  1  0  0  0  0
 10 76  1  0  0  0  0
 10 77  1  0  0  0  0
 10 78  1  0  0  0  0
 11 79  1  0  0  0  0
 12 51  1  0  0  0  0
 12 13  1  0  0  0  0
 12 14  1  0  0  0  0
 12 80  1  1  0  0  0
 13 29  1  0  0  0  0
 13 81  1  1  0  0  0
 14 15  1  0  0  0  0
 14 31  1  0  0  0  0
 14 82  1  1  0  0  0
 15 16  1  0  0  0  0
 15 26  1  0  0  0  0
 15 83  1  1  0  0  0
 16 17  1  0  0  0  0
 16 84  1  0  0  0  0
 16 85  1  0  0  0  0
 17 27  1  0  0  0  0
 17 38  2  0  0  0  0
 18 19  2  0  0  0  0
 18 30  1  0  0  0  0
 18 86  1  0  0  0  0
 19 20  1  0  0  0  0
 19 33  1  0  0  0  0
 20 21  2  0  0  0  0
 20 87  1  0  0  0  0
 21 22  1  0  0  0  0
 21 88  1  0  0  0  0
 22 23  1  0  0  0  0
 22 25  2  0  0  0  0
 23 24  1  0  0  0  0
 23 28  1  0  0  0  0
 23 89  1  1  0  0  0
 24 13  1  0  0  0  0
 24 90  1  0  0  0  0
 24 91  1  0  0  0  0
 26 92  1  0  0  0  0
 27 32  1  0  0  0  0
 28 93  1  0  0  0  0
 28 94  1  0  0  0  0
 28 95  1  0  0  0  0
 29 35  1  0  0  0  0
 29 96  1  0  0  0  0
 29 97  1  0  0  0  0
 30 32  1  0  0  0  0
 30 39  1  0  0  0  0
 30 98  1  6  0  0  0
 31 99  1  0  0  0  0
 31100  1  0  0  0  0
 31101  1  0  0  0  0
 32 36  1  0  0  0  0
 32102  1  1  0  0  0
 33103  1  0  0  0  0
 33104  1  0  0  0  0
 33105  1  0  0  0  0
 35 40  2  0  0  0  0
 35106  1  0  0  0  0
 36 37  1  0  0  0  0
 36107  1  0  0  0  0
 36108  1  0  0  0  0
 37109  1  0  0  0  0
 37110  1  0  0  0  0
 37111  1  0  0  0  0
 39 52  1  0  0  0  0
 39112  1  0  0  0  0
 39113  1  0  0  0  0
 41 42  1  0  0  0  0
 41 46  1  0  0  0  0
 42 43  1  0  0  0  0
 42 49  1  0  0  0  0
 42114  1  6  0  0  0
 43 44  1  0  0  0  0
 43 48  1  0  0  0  0
 43115  1  1  0  0  0
 44 45  1  0  0  0  0
 44 47  1  0  0  0  0
 44116  1  1  0  0  0
 45 46  1  0  0  0  0
 45 50  1  0  0  0  0
 45117  1  1  0  0  0
 46 52  1  0  0  0  0
 46118  1  6  0  0  0
 47 64  1  0  0  0  0
 48119  1  0  0  0  0
 49120  1  0  0  0  0
 49121  1  0  0  0  0
 49122  1  0  0  0  0
 50 63  1  0  0  0  0
 53 54  1  0  0  0  0
 53 58  1  0  0  0  0
 54 55  1  0  0  0  0
 54 60  1  0  0  0  0
 54123  1  1  0  0  0
 55 56  1  0  0  0  0
 55 59  1  0  0  0  0
 55124  1  6  0  0  0
 56 57  1  0  0  0  0
 56 61  1  1  0  0  0
 56 62  1  0  0  0  0
 57 58  1  0  0  0  0
 57125  1  0  0  0  0
 57126  1  0  0  0  0
 58 34  1  0  0  0  0
 58127  1  6  0  0  0
 59128  1  0  0  0  0
 60129  1  0  0  0  0
 60130  1  0  0  0  0
 60131  1  0  0  0  0
 61132  1  0  0  0  0
 62133  1  0  0  0  0
 62134  1  0  0  0  0
 62135  1  0  0  0  0
 63136  1  0  0  0  0
 63137  1  0  0  0  0
 63138  1  0  0  0  0
 64139  1  0  0  0  0
 64140  1  0  0  0  0
 64141  1  0  0  0  0
M  END
>  <DRUGBANK_ID>
DB11475

>  <COMMON_NAME>
Tylosin

>  <CAS_NUMBER>
1401-69-0

>  <UNII>
YEF4JXN031

>  <SYNONYMS>
Tilosina; Tylocine; Tylosin; Tylosin A; Tylosine; Tylosinum

$$$$
