
 OpenBabel10282417072D

 43 45  0  0  0  0  0  0  0  0999 V2000
    0.2021    0.0594    0.0000 C   0  0  0  0  0  0  0  0  0  0  0  0
   -0.6064    0.0594    0.0000 C   0  0  0  0  0  0  0  0  0  0  0  0
    1.4150    0.7571    0.0000 N   0  3  0  0  0  0  0  0  0  0  0  0
   -1.0028    0.7571    0.0000 C   0  0  0  0  0  0  0  0  0  0  0  0
   -1.0345   -0.6592    0.0000 C   0  0  0  0  0  0  0  0  0  0  0  0
    0.6064    0.7571    0.0000 C   0  0  0  0  0  0  0  0  0  0  0  0
   -0.6460    1.5023    0.0000 S   0  0  0  0  0  0  0  0  0  0  0  0
   -1.8907   -0.7332    0.0000 S   0  0  0  0  0  0  0  0  0  0  0  0
    0.6434   -0.6592    0.0000 C   0  0  0  0  0  0  0  0  0  0  0  0
   -0.7016   -1.4230    0.0000 C   0  0  0  0  0  0  0  0  0  0  0  0
   -1.8193    0.8442    0.0000 C   0  0  0  0  0  0  0  0  0  0  0  0
    1.8748    0.0673    0.0000 C   0  0  0  0  0  0  0  0  0  0  0  0
   -1.2644    2.0571    0.0000 C   0  0  0  0  0  0  0  0  0  0  0  0
   -2.0571   -1.5498    0.0000 C   0  0  0  0  0  0  0  0  0  0  0  0
   -1.3278   -1.9831    0.0000 C   0  0  0  0  0  0  0  0  0  0  0  0
   -1.9806    1.6476    0.0000 C   0  0  0  0  0  0  0  0  0  0  0  0
    1.4705   -0.6460    0.0000 C   0  0  3  0  0  0  0  0  0  0  0  0
    1.3278    1.5973    0.0000 C   0  0  0  0  0  0  0  0  0  0  0  0
    2.0571    1.2327    0.0000 C   0  0  0  0  0  0  0  0  0  0  0  0
    1.8881   -1.3490    0.0000 O   0  0  0  0  0  0  0  0  0  0  0  0
    1.4864   -2.0571    0.0000 C   0  0  0  0  0  0  0  0  0  0  0  0
    0.0721    1.6842    0.0000 H   0  0  0  0  0  0  0  0  0  0  0  0
   -0.4636    0.7584    0.0000 H   0  0  0  0  0  0  0  0  0  0  0  0
    0.1285   -1.5972    0.0000 H   0  0  0  0  0  0  0  0  0  0  0  0
    1.1957   -1.5757    0.0000 H   0  0  0  0  0  0  0  0  0  0  0  0
    0.3066   -1.6432    0.0000 H   0  0  0  0  0  0  0  0  0  0  0  0
   -2.5148    0.0817    0.0000 H   0  0  0  0  0  0  0  0  0  0  0  0
    2.9441    0.1060    0.0000 H   0  0  0  0  0  0  0  0  0  0  0  0
    2.3626    1.0196    0.0000 H   0  0  0  0  0  0  0  0  0  0  0  0
   -1.1553    3.0833    0.0000 H   0  0  0  0  0  0  0  0  0  0  0  0
   -3.0007   -1.9676    0.0000 H   0  0  0  0  0  0  0  0  0  0  0  0
   -1.2280   -3.0103    0.0000 H   0  0  0  0  0  0  0  0  0  0  0  0
   -2.9201    2.0746    0.0000 H   0  0  0  0  0  0  0  0  0  0  0  0
    0.9245    0.2742    0.0000 H   0  0  0  0  0  0  0  0  0  0  0  0
    2.1943    2.2251    0.0000 H   0  0  0  0  0  0  0  0  0  0  0  0
    0.3509    2.0338    0.0000 H   0  0  0  0  0  0  0  0  0  0  0  0
    1.2173    2.6616    0.0000 H   0  0  0  0  0  0  0  0  0  0  0  0
    3.0386    0.8065    0.0000 H   0  0  0  0  0  0  0  0  0  0  0  0
    1.9355    2.2958    0.0000 H   0  0  0  0  0  0  0  0  0  0  0  0
    2.9169    1.8696    0.0000 H   0  0  0  0  0  0  0  0  0  0  0  0
    0.4164   -2.0652    0.0000 H   0  0  0  0  0  0  0  0  0  0  0  0
    2.0284   -2.9797    0.0000 H   0  0  0  0  0  0  0  0  0  0  0  0
    0.9584   -2.9878    0.0000 H   0  0  0  0  0  0  0  0  0  0  0  0
  2  1  2  0  0  0  0
  3  6  1  0  0  0  0
  3 12  1  0  0  0  0
  4  2  1  0  0  0  0
  5  2  1  0  0  0  0
  6  1  1  0  0  0  0
  6 22  1  0  0  0  0
  6 23  1  0  0  0  0
  7  4  1  0  0  0  0
  8  5  1  0  0  0  0
  9  1  1  0  0  0  0
  9 24  1  0  0  0  0
  9 25  1  0  0  0  0
 10  5  2  0  0  0  0
 10 26  1  0  0  0  0
 11  4  2  0  0  0  0
 11 27  1  0  0  0  0
 12 17  1  0  0  0  0
 12 28  1  0  0  0  0
 12 29  1  0  0  0  0
 13  7  1  0  0  0  0
 13 30  1  0  0  0  0
 14  8  1  0  0  0  0
 14 31  1  0  0  0  0
 15 10  1  0  0  0  0
 15 14  2  0  0  0  0
 15 32  1  0  0  0  0
 16 11  1  0  0  0  0
 16 13  2  0  0  0  0
 16 33  1  0  0  0  0
 17  9  1  0  0  0  0
 17 34  1  0  0  0  0
 18  3  1  0  0  0  0
 18 35  1  0  0  0  0
 18 36  1  0  0  0  0
 18 37  1  0  0  0  0
 19  3  1  0  0  0  0
 19 38  1  0  0  0  0
 19 39  1  0  0  0  0
 19 40  1  0  0  0  0
 20 17  1  0  0  0  0
 21 20  1  0  0  0  0
 21 41  1  0  0  0  0
 21 42  1  0  0  0  0
 21 43  1  0  0  0  0
M  CHG  1   3   1
M  END
>  <DRUGBANK_ID>
DB13850

>  <COMMON_NAME>
Timepidium

>  <CAS_NUMBER>
97094-64-9

>  <UNII>
C1WS2XH3K4

>  <SYNONYMS>
3-(di-2-thienylmethylene)-5-methoxy-1,1-dimethyl-piperidinium; Timepidium cation; Timepidium ion

$$$$
