
 OpenBabel10282417072D

 36 38  0  0  1  0  0  0  0  0999 V2000
    6.3709   -0.8559    0.0000 O   0  0  0  0  0  0  0  0  0  0  0  0
    6.2603    0.3817    0.0000 O   0  0  0  0  0  0  0  0  0  0  0  0
    2.1506    0.9634    0.0000 O   0  0  0  0  0  0  0  0  0  0  0  0
    4.8314   -1.2684    0.0000 C   0  0  0  0  0  0  0  0  0  0  0  0
    5.2439   -1.9829    0.0000 C   0  0  0  0  0  0  0  0  0  0  0  0
    4.4189   -1.9829    0.0000 C   0  0  0  0  0  0  0  0  0  0  0  0
    5.5459   -0.8559    0.0000 C   0  0  2  0  0  0  0  0  0  0  0  0
    4.1168   -0.8559    0.0000 C   0  0  0  0  0  0  0  0  0  0  0  0
    4.1168   -0.0309    0.0000 C   0  0  0  0  0  0  0  0  0  0  0  0
    5.5459   -0.0309    0.0000 C   0  0  0  0  0  0  0  0  0  0  0  0
    5.9584   -1.5704    0.0000 C   0  0  0  0  0  0  0  0  0  0  0  0
    4.8314    0.3817    0.0000 C   0  0  0  0  0  0  0  0  0  0  0  0
    3.4024   -1.2684    0.0000 C   0  0  0  0  0  0  0  0  0  0  0  0
    3.5088    0.5194    0.0000 C   0  0  0  0  0  0  0  0  0  0  0  0
    4.6588    1.1834    0.0000 C   0  0  0  0  0  0  0  0  0  0  0  0
    3.8430    1.2684    0.0000 C   0  0  0  0  0  0  0  0  0  0  0  0
    2.7015    0.3493    0.0000 C   0  0  0  0  0  0  0  0  0  0  0  0
    3.4305    1.9829    0.0000 C   0  0  0  0  0  0  0  0  0  0  0  0
    6.8559   -1.6959    0.0000 H   0  0  0  0  0  0  0  0  0  0  0  0
    2.4520    1.8854    0.0000 H   0  0  0  0  0  0  0  0  0  0  0  0
    6.1705   -2.5179    0.0000 H   0  0  0  0  0  0  0  0  0  0  0  0
    4.9670   -3.0164    0.0000 H   0  0  0  0  0  0  0  0  0  0  0  0
    3.4923   -2.5179    0.0000 H   0  0  0  0  0  0  0  0  0  0  0  0
    4.6958   -3.0164    0.0000 H   0  0  0  0  0  0  0  0  0  0  0  0
    5.4234   -2.4970    0.0000 H   0  0  0  0  0  0  0  0  0  0  0  0
    7.0284   -1.5704    0.0000 H   0  0  0  0  0  0  0  0  0  0  0  0
    6.4934   -2.4971    0.0000 H   0  0  0  0  0  0  0  0  0  0  0  0
    2.4757   -0.7334    0.0000 H   0  0  0  0  0  0  0  0  0  0  0  0
    3.4024   -2.3384    0.0000 H   0  0  0  0  0  0  0  0  0  0  0  0
    2.4758   -1.8034    0.0000 H   0  0  0  0  0  0  0  0  0  0  0  0
    5.3480    1.9515    0.0000 H   0  0  0  0  0  0  0  0  0  0  0  0
    2.3690   -0.6677    0.0000 H   0  0  0  0  0  0  0  0  0  0  0  0
    3.4160   -0.4471    0.0000 H   0  0  0  0  0  0  0  0  0  0  0  0
    3.9655    2.9095    0.0000 H   0  0  0  0  0  0  0  0  0  0  0  0
    2.3605    1.9829    0.0000 H   0  0  0  0  0  0  0  0  0  0  0  0
    2.8955    2.9096    0.0000 H   0  0  0  0  0  0  0  0  0  0  0  0
  1 19  1  0  0  0  0
  2 10  2  0  0  0  0
  3 17  1  0  0  0  0
  3 20  1  0  0  0  0
  4  5  1  0  0  0  0
  4  6  1  0  0  0  0
  4  7  1  0  0  0  0
  4  8  1  0  0  0  0
  5  6  1  0  0  0  0
  5 21  1  0  0  0  0
  5 22  1  0  0  0  0
  6 23  1  0  0  0  0
  6 24  1  0  0  0  0
  7  1  1  6  0  0  0
  7 10  1  0  0  0  0
  7 11  1  0  0  0  0
  8  9  2  0  0  0  0
  8 13  1  0  0  0  0
  9 12  1  0  0  0  0
  9 14  1  0  0  0  0
 10 12  1  0  0  0  0
 11 25  1  0  0  0  0
 11 26  1  0  0  0  0
 11 27  1  0  0  0  0
 12 15  2  0  0  0  0
 13 28  1  0  0  0  0
 13 29  1  0  0  0  0
 13 30  1  0  0  0  0
 14 16  2  0  0  0  0
 14 17  1  0  0  0  0
 15 16  1  0  0  0  0
 15 31  1  0  0  0  0
 16 18  1  0  0  0  0
 17 32  1  0  0  0  0
 17 33  1  0  0  0  0
 18 34  1  0  0  0  0
 18 35  1  0  0  0  0
 18 36  1  0  0  0  0
M  END
>  <DRUGBANK_ID>
DB05786

>  <SECONDARY_ACCESSION_NUMBERS>
DB11733

>  <COMMON_NAME>
Irofulven

>  <CAS_NUMBER>
158440-71-2

>  <UNII>
6B799IH05A

>  <SYNONYMS>
6-hydroxymethylacylfulvene; HMAF; Irofulven

$$$$
