
 OpenBabel10282417072D

 51 54  0  0  0  0  0  0  0  0999 V2000
    5.6091    1.5884    0.0000 O   0  0  0  0  0  0  0  0  0  0  0  0
    4.8946    1.1759    0.0000 C   0  0  0  0  0  0  0  0  0  0  0  0
    4.1801    0.7634    0.0000 C   0  0  0  0  0  0  0  0  0  0  0  0
    3.4656    1.1759    0.0000 N   0  0  0  0  0  0  0  0  0  0  0  0
    2.7512    0.7634    0.0000 C   0  0  0  0  0  0  0  0  0  0  0  0
    2.7512   -0.0616    0.0000 N   0  0  0  0  0  0  0  0  0  0  0  0
    2.0367   -0.4741    0.0000 C   0  0  0  0  0  0  0  0  0  0  0  0
    1.3222   -0.0616    0.0000 N   0  0  0  0  0  0  0  0  0  0  0  0
    1.3222    0.7634    0.0000 C   0  0  0  0  0  0  0  0  0  0  0  0
    2.0367    1.1759    0.0000 C   0  0  0  0  0  0  0  0  0  0  0  0
    2.0367    2.0009    0.0000 F   0  0  0  0  0  0  0  0  0  0  0  0
    2.0367   -1.2991    0.0000 C   0  0  0  0  0  0  0  0  0  0  0  0
    1.3693   -1.7840    0.0000 N   0  0  0  0  0  0  0  0  0  0  0  0
    1.6242   -2.5687    0.0000 N   0  0  0  0  0  0  0  0  0  0  0  0
    1.1393   -3.2361    0.0000 C   0  0  0  0  0  0  0  0  0  0  0  0
    0.3188   -3.1499    0.0000 C   0  0  0  0  0  0  0  0  0  0  0  0
   -0.1661   -3.8173    0.0000 C   0  0  0  0  0  0  0  0  0  0  0  0
    0.1694   -4.5710    0.0000 F   0  0  0  0  0  0  0  0  0  0  0  0
   -0.9866   -3.7311    0.0000 C   0  0  0  0  0  0  0  0  0  0  0  0
   -1.3222   -2.9774    0.0000 C   0  0  0  0  0  0  0  0  0  0  0  0
   -0.8372   -2.3099    0.0000 C   0  0  0  0  0  0  0  0  0  0  0  0
   -0.0168   -2.3962    0.0000 C   0  0  0  0  0  0  0  0  0  0  0  0
    2.4492   -2.5687    0.0000 C   0  0  0  0  0  0  0  0  0  0  0  0
    2.7041   -1.7840    0.0000 C   0  0  0  0  0  0  0  0  0  0  0  0
    2.9341   -3.2361    0.0000 C   0  0  0  0  0  0  0  0  0  0  0  0
    2.6792   -4.0207    0.0000 N   0  0  0  0  0  0  0  0  0  0  0  0
    3.3466   -4.5056    0.0000 O   0  0  0  0  0  0  0  0  0  0  0  0
    4.0141   -4.0207    0.0000 C   0  0  0  0  0  0  0  0  0  0  0  0
    3.7591   -3.2361    0.0000 C   0  0  0  0  0  0  0  0  0  0  0  0
    5.3071    0.4614    0.0000 C   0  0  0  0  0  0  0  0  0  0  0  0
    5.7196   -0.2530    0.0000 F   0  0  0  0  0  0  0  0  0  0  0  0
    4.5926    0.0489    0.0000 F   0  0  0  0  0  0  0  0  0  0  0  0
    6.0216    0.8739    0.0000 F   0  0  0  0  0  0  0  0  0  0  0  0
    4.4821    1.8904    0.0000 C   0  0  0  0  0  0  0  0  0  0  0  0
    4.0696    2.6048    0.0000 F   0  0  0  0  0  0  0  0  0  0  0  0
    5.1966    2.3029    0.0000 F   0  0  0  0  0  0  0  0  0  0  0  0
    3.7676    1.4779    0.0000 F   0  0  0  0  0  0  0  0  0  0  0  0
    6.4491    1.1034    0.0000 H   0  0  0  0  0  0  0  0  0  0  0  0
    4.1801   -0.3066    0.0000 H   0  0  0  0  0  0  0  0  0  0  0  0
    3.2535    0.2284    0.0000 H   0  0  0  0  0  0  0  0  0  0  0  0
    3.4656    2.1604    0.0000 H   0  0  0  0  0  0  0  0  0  0  0  0
    0.4285    1.2794    0.0000 H   0  0  0  0  0  0  0  0  0  0  0  0
    1.5745   -4.2136    0.0000 H   0  0  0  0  0  0  0  0  0  0  0  0
    0.5104   -4.1018    0.0000 H   0  0  0  0  0  0  0  0  0  0  0  0
   -1.5932   -4.5660    0.0000 H   0  0  0  0  0  0  0  0  0  0  0  0
   -2.3485   -2.8695    0.0000 H   0  0  0  0  0  0  0  0  0  0  0  0
   -1.2569   -1.3671    0.0000 H   0  0  0  0  0  0  0  0  0  0  0  0
    0.5898   -1.5613    0.0000 H   0  0  0  0  0  0  0  0  0  0  0  0
    3.6856   -1.4651    0.0000 H   0  0  0  0  0  0  0  0  0  0  0  0
    4.9956   -4.3396    0.0000 H   0  0  0  0  0  0  0  0  0  0  0  0
    4.3657   -2.4012    0.0000 H   0  0  0  0  0  0  0  0  0  0  0  0
  1  2  1  0  0  0  0
  1 38  1  0  0  0  0
  2  3  1  0  0  0  0
  2 30  1  0  0  0  0
  2 34  1  0  0  0  0
  3  4  1  0  0  0  0
  3 39  1  0  0  0  0
  3 40  1  0  0  0  0
  4  5  1  0  0  0  0
  4 41  1  0  0  0  0
  5  6  2  0  0  0  0
  5 10  1  0  0  0  0
  6  7  1  0  0  0  0
  7  8  2  0  0  0  0
  7 12  1  0  0  0  0
  8  9  1  0  0  0  0
  9 10  2  0  0  0  0
  9 42  1  0  0  0  0
 10 11  1  0  0  0  0
 12 13  2  0  0  0  0
 12 24  1  0  0  0  0
 13 14  1  0  0  0  0
 14 15  1  0  0  0  0
 14 23  1  0  0  0  0
 15 16  1  0  0  0  0
 15 43  1  0  0  0  0
 15 44  1  0  0  0  0
 16 17  2  0  0  0  0
 16 22  1  0  0  0  0
 17 18  1  0  0  0  0
 17 19  1  0  0  0  0
 19 20  2  0  0  0  0
 19 45  1  0  0  0  0
 20 21  1  0  0  0  0
 20 46  1  0  0  0  0
 21 22  2  0  0  0  0
 21 47  1  0  0  0  0
 22 48  1  0  0  0  0
 23 24  2  0  0  0  0
 23 25  1  0  0  0  0
 24 49  1  0  0  0  0
 25 26  2  0  0  0  0
 25 29  1  0  0  0  0
 26 27  1  0  0  0  0
 27 28  1  0  0  0  0
 28 29  2  0  0  0  0
 28 50  1  0  0  0  0
 29 51  1  0  0  0  0
 30 31  1  0  0  0  0
 30 32  1  0  0  0  0
 30 33  1  0  0  0  0
 34 35  1  0  0  0  0
 34 36  1  0  0  0  0
 34 37  1  0  0  0  0
M  END
>  <DRUGBANK_ID>
DB16300

>  <COMMON_NAME>
Praliciguat

>  <CAS_NUMBER>
1628730-49-3

>  <UNII>
R1S0H458SA

>  <SYNONYMS>
Praliciguat

$$$$
