202
 OpenBabel10282417072D

 50 49  0  0  0  0  0  0  0  0999 V2000
    4.5077    0.2063    0.0000 O   0  0  0  0  0  0  0  0  0  0  0  0
    8.0799   -0.2063    0.0000 O   0  0  0  0  0  0  0  0  0  0  0  0
    5.2221   -1.0312    0.0000 O   0  0  0  0  0  0  0  0  0  0  0  0
    7.3655    1.0312    0.0000 O   0  0  0  0  0  0  0  0  0  0  0  0
    2.3644   -0.2063    0.0000 N   0  3  0  0  0  0  0  0  0  0  0  0
   10.2233    0.2063    0.0000 N   0  3  0  0  0  0  0  0  0  0  0  0
    3.0789    0.2063    0.0000 C   0  0  0  0  0  0  0  0  0  0  0  0
    9.5088   -0.2063    0.0000 C   0  0  0  0  0  0  0  0  0  0  0  0
    2.7768   -0.9206    0.0000 C   0  0  0  0  0  0  0  0  0  0  0  0
    1.9519    0.5082    0.0000 C   0  0  0  0  0  0  0  0  0  0  0  0
    1.6499   -0.6188    0.0000 C   0  0  0  0  0  0  0  0  0  0  0  0
   10.6358   -0.5082    0.0000 C   0  0  0  0  0  0  0  0  0  0  0  0
    9.8108    0.9206    0.0000 C   0  0  0  0  0  0  0  0  0  0  0  0
   10.9376    0.6188    0.0000 C   0  0  0  0  0  0  0  0  0  0  0  0
    3.7933   -0.2063    0.0000 C   0  0  0  0  0  0  0  0  0  0  0  0
    8.7944    0.2063    0.0000 C   0  0  0  0  0  0  0  0  0  0  0  0
    5.9366    0.2063    0.0000 C   0  0  0  0  0  0  0  0  0  0  0  0
    6.6511   -0.2063    0.0000 C   0  0  0  0  0  0  0  0  0  0  0  0
    5.2221   -0.2063    0.0000 C   0  0  0  0  0  0  0  0  0  0  0  0
    7.3655    0.2063    0.0000 C   0  0  0  0  0  0  0  0  0  0  0  0
    3.0789    1.2763    0.0000 H   0  0  0  0  0  0  0  0  0  0  0  0
    4.0056    0.7412    0.0000 H   0  0  0  0  0  0  0  0  0  0  0  0
    9.5088   -1.2763    0.0000 H   0  0  0  0  0  0  0  0  0  0  0  0
    8.5821   -0.7412    0.0000 H   0  0  0  0  0  0  0  0  0  0  0  0
    2.2418   -1.8472    0.0000 H   0  0  0  0  0  0  0  0  0  0  0  0
    3.8468   -0.9206    0.0000 H   0  0  0  0  0  0  0  0  0  0  0  0
    3.3118   -1.8472    0.0000 H   0  0  0  0  0  0  0  0  0  0  0  0
    2.4869    1.4348    0.0000 H   0  0  0  0  0  0  0  0  0  0  0  0
    0.8819    0.5082    0.0000 H   0  0  0  0  0  0  0  0  0  0  0  0
    1.4169    1.4349    0.0000 H   0  0  0  0  0  0  0  0  0  0  0  0
    0.7233   -0.0838    0.0000 H   0  0  0  0  0  0  0  0  0  0  0  0
    1.6499   -1.6888    0.0000 H   0  0  0  0  0  0  0  0  0  0  0  0
    0.7232   -1.1538    0.0000 H   0  0  0  0  0  0  0  0  0  0  0  0
   10.1008   -1.4348    0.0000 H   0  0  0  0  0  0  0  0  0  0  0  0
   11.7058   -0.5082    0.0000 H   0  0  0  0  0  0  0  0  0  0  0  0
   11.1708   -1.4349    0.0000 H   0  0  0  0  0  0  0  0  0  0  0  0
   10.3457    1.8473    0.0000 H   0  0  0  0  0  0  0  0  0  0  0  0
    8.7408    0.9205    0.0000 H   0  0  0  0  0  0  0  0  0  0  0  0
    9.2757    1.8472    0.0000 H   0  0  0  0  0  0  0  0  0  0  0  0
   11.8643    0.0839    0.0000 H   0  0  0  0  0  0  0  0  0  0  0  0
   10.9375    1.6888    0.0000 H   0  0  0  0  0  0  0  0  0  0  0  0
   11.8642    1.1539    0.0000 H   0  0  0  0  0  0  0  0  0  0  0  0
    3.7933   -1.2763    0.0000 H   0  0  0  0  0  0  0  0  0  0  0  0
    2.8666   -0.7412    0.0000 H   0  0  0  0  0  0  0  0  0  0  0  0
    8.7944    1.2763    0.0000 H   0  0  0  0  0  0  0  0  0  0  0  0
    9.7211    0.7412    0.0000 H   0  0  0  0  0  0  0  0  0  0  0  0
    5.9366    1.2763    0.0000 H   0  0  0  0  0  0  0  0  0  0  0  0
    5.0099    0.7413    0.0000 H   0  0  0  0  0  0  0  0  0  0  0  0
    6.6511   -1.2763    0.0000 H   0  0  0  0  0  0  0  0  0  0  0  0
    7.5778   -0.7412    0.0000 H   0  0  0  0  0  0  0  0  0  0  0  0
  1 15  1  0  0  0  0
  1 19  1  0  0  0  0
  2 16  1  0  0  0  0
  2 20  1  0  0  0  0
  3 19  2  0  0  0  0
  4 20  2  0  0  0  0
  5  7  1  0  0  0  0
  5  9  1  0  0  0  0
  5 10  1  0  0  0  0
  5 11  1  0  0  0  0
  6  8  1  0  0  0  0
  6 12  1  0  0  0  0
  6 13  1  0  0  0  0
  6 14  1  0  0  0  0
  7 15  1  0  0  0  0
  7 21  1  0  0  0  0
  7 22  1  0  0  0  0
  8 16  1  0  0  0  0
  8 23  1  0  0  0  0
  8 24  1  0  0  0  0
  9 25  1  0  0  0  0
  9 26  1  0  0  0  0
  9 27  1  0  0  0  0
 10 28  1  0  0  0  0
 10 29  1  0  0  0  0
 10 30  1  0  0  0  0
 11 31  1  0  0  0  0
 11 32  1  0  0  0  0
 11 33  1  0  0  0  0
 12 34  1  0  0  0  0
 12 35  1  0  0  0  0
 12 36  1  0  0  0  0
 13 37  1  0  0  0  0
 13 38  1  0  0  0  0
 13 39  1  0  0  0  0
 14 40  1  0  0  0  0
 14 41  1  0  0  0  0
 14 42  1  0  0  0  0
 15 43  1  0  0  0  0
 15 44  1  0  0  0  0
 16 45  1  0  0  0  0
 16 46  1  0  0  0  0
 17 18  1  0  0  0  0
 17 19  1  0  0  0  0
 17 47  1  0  0  0  0
 17 48  1  0  0  0  0
 18 20  1  0  0  0  0
 18 49  1  0  0  0  0
 18 50  1  0  0  0  0
M  CHG  2   5   1   6   1
M  END
>  <DRUGBANK_ID>
DB00202

>  <SECONDARY_ACCESSION_NUMBERS>
APRD00159

>  <COMMON_NAME>
Succinylcholine

>  <CAS_NUMBER>
306-40-1

>  <UNII>
J2R869A8YF

>  <SYNONYMS>
2,2'-[(1,4-dioxobutane-1,4-diyl)bis(oxy)]bis(N,N,N-trimethylethanaminium); Dicholine succinate; Succinocholine; Succinoylcholine; Succinylbischoline; Succinyldicholine; Suxamethonium

$$$$
