
 OpenBabel10282417072D

126129  0  0  1  0  0  0  0  0999 V2000
   11.8740   -7.7494    0.0000 C   0  0  0  0  0  0  0  0  0  0  0  0
   11.8740   -6.9162    0.0000 C   0  0  0  0  0  0  0  0  0  0  0  0
   11.1658   -6.4995    0.0000 C   0  0  2  0  0  0  0  0  0  0  0  0
   11.1658   -5.6662    0.0000 C   0  0  0  0  0  0  0  0  0  0  0  0
   10.4158   -5.2497    0.0000 C   0  0  0  0  0  0  0  0  0  0  0  0
    9.7076   -5.6662    0.0000 C   0  0  2  0  0  0  0  0  0  0  0  0
    9.7076   -6.4995    0.0000 C   0  0  1  0  0  0  0  0  0  0  0  0
   10.4158   -6.9162    0.0000 C   0  0  0  0  0  0  0  0  0  0  0  0
    8.9993   -6.9162    0.0000 O   0  0  0  0  0  0  0  0  0  0  0  0
    8.9993   -5.2497    0.0000 O   0  0  0  0  0  0  0  0  0  0  0  0
    8.2911   -6.4995    0.0000 C   0  0  0  0  0  0  0  0  0  0  0  0
   12.5824   -8.1661    0.0000 C   0  0  2  0  0  0  0  0  0  0  0  0
   11.1658   -8.1661    0.0000 C   0  0  0  0  0  0  0  0  0  0  0  0
   13.2907   -7.7494    0.0000 C   0  0  1  0  0  0  0  0  0  0  0  0
   13.9989   -8.1661    0.0000 C   0  0  2  0  0  0  0  0  0  0  0  0
   13.9989   -8.9993    0.0000 C   0  0  0  0  0  0  0  0  0  0  0  0
   14.7906   -9.3326    0.0000 C   0  0  0  0  0  0  0  0  0  0  0  0
   15.1654  -10.1243    0.0000 C   0  0  1  0  0  0  0  0  0  0  0  0
   14.7490  -10.8742    0.0000 C   0  0  0  0  0  0  0  0  0  0  0  0
   13.9989  -11.2908    0.0000 C   0  0  0  0  0  0  0  0  0  0  0  0
   13.2907  -10.8742    0.0000 C   0  0  0  0  0  0  0  0  0  0  0  0
   13.9989  -12.1240    0.0000 C   0  0  0  0  0  0  0  0  0  0  0  0
   13.2907  -12.5407    0.0000 C   0  0  2  0  0  0  0  0  0  0  0  0
   12.5824  -12.1240    0.0000 C   0  0  0  0  0  0  0  0  0  0  0  0
   13.7072  -13.2491    0.0000 C   0  0  0  0  0  0  0  0  0  0  0  0
   13.1241  -13.8739    0.0000 C   0  0  1  0  0  0  0  0  0  0  0  0
   12.3324  -13.6656    0.0000 C   0  0  2  0  0  0  0  0  0  0  0  0
   11.7492  -14.2489    0.0000 C   0  0  2  0  0  0  0  0  0  0  0  0
   10.9575  -14.0406    0.0000 C   0  0  0  0  0  0  0  0  0  0  0  0
   10.7491  -13.2491    0.0000 C   0  0  2  0  0  0  0  0  0  0  0  0
   11.3325  -12.6657    0.0000 C   0  0  2  0  0  0  0  0  0  0  0  0
   12.1240  -12.8741    0.0000 O   0  0  0  0  0  0  0  0  0  0  0  0
   11.9573  -15.0404    0.0000 O   0  0  0  0  0  0  0  0  0  0  0  0
   13.3324  -14.6656    0.0000 O   0  0  0  0  0  0  0  0  0  0  0  0
   14.1239  -14.9156    0.0000 C   0  0  0  0  0  0  0  0  0  0  0  0
   11.3742  -15.6238    0.0000 C   0  0  0  0  0  0  0  0  0  0  0  0
   12.0407  -12.2907    0.0000 O   0  0  0  0  0  0  0  0  0  0  0  0
   10.9158  -11.9573    0.0000 C   0  0  0  0  0  0  0  0  0  0  0  0
   11.3325  -11.2075    0.0000 C   0  0  0  0  0  0  0  0  0  0  0  0
   10.9158  -10.4991    0.0000 N   0  0  0  0  0  0  0  0  0  0  0  0
   10.0826  -10.4991    0.0000 C   0  0  0  0  0  0  0  0  0  0  0  0
   11.3325   -9.7910    0.0000 C   0  0  1  0  0  0  0  0  0  0  0  0
   10.9158   -9.0409    0.0000 C   0  0  0  0  0  0  0  0  0  0  0  0
   10.0826   -9.0409    0.0000 C   0  0  0  0  0  0  0  0  0  0  0  0
    9.6660   -9.7493    0.0000 C   0  0  0  0  0  0  0  0  0  0  0  0
   12.1656  -11.1973    0.0000 O   0  0  0  0  0  0  0  0  0  0  0  0
   10.0827  -11.9676    0.0000 O   0  0  0  0  0  0  0  0  0  0  0  0
    9.9448  -13.0316    0.0000 C   0  0  0  0  0  0  0  0  0  0  0  0
   12.1657   -9.7910    0.0000 C   0  0  0  0  0  0  0  0  0  0  0  0
   12.5824  -10.5125    0.0000 O   0  0  0  0  0  0  0  0  0  0  0  0
   12.5824   -9.0693    0.0000 O   0  0  0  0  0  0  0  0  0  0  0  0
   13.2907   -6.9162    0.0000 C   0  0  0  0  0  0  0  0  0  0  0  0
   14.7223   -7.7523    0.0000 O   0  0  0  0  0  0  0  0  0  0  0  0
   15.4083   -8.8972    0.0000 O   0  0  0  0  0  0  0  0  0  0  0  0
   15.9984  -10.1513    0.0000 C   0  0  0  0  0  0  0  0  0  0  0  0
   16.4318   -9.4539    0.0000 C   0  0  0  0  0  0  0  0  0  0  0  0
   17.2484   -9.4389    0.0000 C   0  0  0  0  0  0  0  0  0  0  0  0
   12.7699   -6.4039    0.0000 H   0  0  0  0  0  0  0  0  0  0  0  0
   12.0946   -5.9683    0.0000 H   0  0  0  0  0  0  0  0  0  0  0  0
   12.0880   -5.1235    0.0000 H   0  0  0  0  0  0  0  0  0  0  0  0
   11.1524   -4.5963    0.0000 H   0  0  0  0  0  0  0  0  0  0  0  0
   10.4026   -4.1798    0.0000 H   0  0  0  0  0  0  0  0  0  0  0  0
    9.4837   -4.7242    0.0000 H   0  0  0  0  0  0  0  0  0  0  0  0
    9.7076   -4.5962    0.0000 H   0  0  0  0  0  0  0  0  0  0  0  0
    8.7788   -5.9683    0.0000 H   0  0  0  0  0  0  0  0  0  0  0  0
   10.4026   -7.9861    0.0000 H   0  0  0  0  0  0  0  0  0  0  0  0
   11.3346   -7.4645    0.0000 H   0  0  0  0  0  0  0  0  0  0  0  0
    9.0070   -4.2797    0.0000 H   0  0  0  0  0  0  0  0  0  0  0  0
    8.2999   -5.4295    0.0000 H   0  0  0  0  0  0  0  0  0  0  0  0
    7.3601   -7.0268    0.0000 H   0  0  0  0  0  0  0  0  0  0  0  0
    7.3689   -5.9569    0.0000 H   0  0  0  0  0  0  0  0  0  0  0  0
   11.6536   -8.6973    0.0000 H   0  0  0  0  0  0  0  0  0  0  0  0
   10.2348   -7.6388    0.0000 H   0  0  0  0  0  0  0  0  0  0  0  0
   11.1746   -9.2361    0.0000 H   0  0  0  0  0  0  0  0  0  0  0  0
   10.2436   -8.7087    0.0000 H   0  0  0  0  0  0  0  0  0  0  0  0
   12.3619   -7.2182    0.0000 H   0  0  0  0  0  0  0  0  0  0  0  0
   14.0055   -7.0961    0.0000 H   0  0  0  0  0  0  0  0  0  0  0  0
   13.1075   -9.5912    0.0000 H   0  0  0  0  0  0  0  0  0  0  0  0
   14.0992  -10.0646    0.0000 H   0  0  0  0  0  0  0  0  0  0  0  0
   15.7523   -9.2296    0.0000 H   0  0  0  0  0  0  0  0  0  0  0  0
   15.4788  -11.6039    0.0000 H   0  0  0  0  0  0  0  0  0  0  0  0
   13.2994   -9.8042    0.0000 H   0  0  0  0  0  0  0  0  0  0  0  0
   12.3597  -11.4016    0.0000 H   0  0  0  0  0  0  0  0  0  0  0  0
   12.3684  -10.3317    0.0000 H   0  0  0  0  0  0  0  0  0  0  0  0
   14.9277  -12.6552    0.0000 H   0  0  0  0  0  0  0  0  0  0  0  0
   14.0055  -13.1940    0.0000 H   0  0  0  0  0  0  0  0  0  0  0  0
   13.2907  -11.4707    0.0000 H   0  0  0  0  0  0  0  0  0  0  0  0
   12.5912  -11.0540    0.0000 H   0  0  0  0  0  0  0  0  0  0  0  0
   11.6514  -12.6514    0.0000 H   0  0  0  0  0  0  0  0  0  0  0  0
   11.6602  -11.5814    0.0000 H   0  0  0  0  0  0  0  0  0  0  0  0
   14.7708  -13.3662    0.0000 H   0  0  0  0  0  0  0  0  0  0  0  0
   14.0792  -14.2523    0.0000 H   0  0  0  0  0  0  0  0  0  0  0  0
   14.1617  -14.1353    0.0000 H   0  0  0  0  0  0  0  0  0  0  0  0
   13.0889  -12.9089    0.0000 H   0  0  0  0  0  0  0  0  0  0  0  0
   12.7821  -14.5282    0.0000 H   0  0  0  0  0  0  0  0  0  0  0  0
   10.2010  -14.7973    0.0000 H   0  0  0  0  0  0  0  0  0  0  0  0
    9.9246  -13.7615    0.0000 H   0  0  0  0  0  0  0  0  0  0  0  0
    9.9900  -14.0032    0.0000 H   0  0  0  0  0  0  0  0  0  0  0  0
   14.3550  -15.9604    0.0000 H   0  0  0  0  0  0  0  0  0  0  0  0
   14.9132  -14.1931    0.0000 H   0  0  0  0  0  0  0  0  0  0  0  0
   15.1442  -15.2379    0.0000 H   0  0  0  0  0  0  0  0  0  0  0  0
   10.3406  -15.3471    0.0000 H   0  0  0  0  0  0  0  0  0  0  0  0
   11.6514  -16.6573    0.0000 H   0  0  0  0  0  0  0  0  0  0  0  0
   10.6178  -16.3806    0.0000 H   0  0  0  0  0  0  0  0  0  0  0  0
   12.8624  -12.8061    0.0000 H   0  0  0  0  0  0  0  0  0  0  0  0
    9.5400  -11.4213    0.0000 H   0  0  0  0  0  0  0  0  0  0  0  0
    9.0127  -10.4859    0.0000 H   0  0  0  0  0  0  0  0  0  0  0  0
   10.2626   -9.7777    0.0000 H   0  0  0  0  0  0  0  0  0  0  0  0
   11.4584   -8.1187    0.0000 H   0  0  0  0  0  0  0  0  0  0  0  0
   10.3846   -8.1121    0.0000 H   0  0  0  0  0  0  0  0  0  0  0  0
    9.5513   -8.1121    0.0000 H   0  0  0  0  0  0  0  0  0  0  0  0
    9.0126   -9.0345    0.0000 H   0  0  0  0  0  0  0  0  0  0  0  0
    8.5961   -9.7362    0.0000 H   0  0  0  0  0  0  0  0  0  0  0  0
    9.1178  -10.6682    0.0000 H   0  0  0  0  0  0  0  0  0  0  0  0
    9.6702  -11.9974    0.0000 H   0  0  0  0  0  0  0  0  0  0  0  0
    9.1865  -13.7865    0.0000 H   0  0  0  0  0  0  0  0  0  0  0  0
    8.9119  -12.7523    0.0000 H   0  0  0  0  0  0  0  0  0  0  0  0
   14.2173   -6.3812    0.0000 H   0  0  0  0  0  0  0  0  0  0  0  0
   12.3641   -6.3812    0.0000 H   0  0  0  0  0  0  0  0  0  0  0  0
   13.2907   -5.8462    0.0000 H   0  0  0  0  0  0  0  0  0  0  0  0
   15.5604   -8.2407    0.0000 H   0  0  0  0  0  0  0  0  0  0  0  0
   16.5031  -11.0948    0.0000 H   0  0  0  0  0  0  0  0  0  0  0  0
   17.0678  -10.1860    0.0000 H   0  0  0  0  0  0  0  0  0  0  0  0
   15.9221   -8.5566    0.0000 H   0  0  0  0  0  0  0  0  0  0  0  0
   17.7807  -10.3230    0.0000 H   0  0  0  0  0  0  0  0  0  0  0  0
   17.7479   -8.5358    0.0000 H   0  0  0  0  0  0  0  0  0  0  0  0
  1  2  2  0  0  0  0
  1 12  1  0  0  0  0
  1 13  1  0  0  0  0
  2 58  1  0  0  0  0
  3  2  1  0  0  0  0
  3  4  1  0  0  0  0
  3  8  1  0  0  0  0
  3 59  1  6  0  0  0
  4  5  1  0  0  0  0
  4 60  1  0  0  0  0
  4 61  1  0  0  0  0
  5  6  1  0  0  0  0
  5 62  1  0  0  0  0
  5 63  1  0  0  0  0
  6  7  1  0  0  0  0
  6 10  1  0  0  0  0
  6 64  1  1  0  0  0
  7  8  1  0  0  0  0
  7  9  1  0  0  0  0
  7 65  1  6  0  0  0
  8 66  1  0  0  0  0
  8 67  1  0  0  0  0
  9 11  1  0  0  0  0
 10 68  1  0  0  0  0
 11 69  1  0  0  0  0
 11 70  1  0  0  0  0
 11 71  1  0  0  0  0
 12 14  1  0  0  0  0
 12 51  1  0  0  0  0
 12 72  1  1  0  0  0
 13 73  1  0  0  0  0
 13 74  1  0  0  0  0
 13 75  1  0  0  0  0
 14 15  1  0  0  0  0
 14 52  1  0  0  0  0
 14 76  1  1  0  0  0
 15 16  1  0  0  0  0
 15 53  1  0  0  0  0
 15 77  1  6  0  0  0
 16 17  1  0  0  0  0
 16 78  1  0  0  0  0
 16 79  1  0  0  0  0
 17 18  1  0  0  0  0
 17 54  2  0  0  0  0
 18 19  1  0  0  0  0
 18 55  1  0  0  0  0
 18 80  1  1  0  0  0
 19 20  2  0  0  0  0
 19 81  1  0  0  0  0
 20 21  1  0  0  0  0
 20 22  1  0  0  0  0
 21 82  1  0  0  0  0
 21 83  1  0  0  0  0
 21 84  1  0  0  0  0
 22 23  1  0  0  0  0
 22 85  1  0  0  0  0
 22 86  1  0  0  0  0
 23 24  1  0  0  0  0
 23 25  1  0  0  0  0
 23 87  1  6  0  0  0
 24 88  1  0  0  0  0
 24 89  1  0  0  0  0
 24 90  1  0  0  0  0
 25 26  1  0  0  0  0
 25 91  1  0  0  0  0
 25 92  1  0  0  0  0
 26 27  1  0  0  0  0
 26 34  1  0  0  0  0
 26 93  1  1  0  0  0
 27 28  1  0  0  0  0
 27 32  1  0  0  0  0
 27 94  1  1  0  0  0
 28 29  1  0  0  0  0
 28 33  1  0  0  0  0
 28 95  1  6  0  0  0
 29 30  1  0  0  0  0
 29 96  1  0  0  0  0
 29 97  1  0  0  0  0
 30 31  1  0  0  0  0
 30 48  1  0  0  0  0
 30 98  1  6  0  0  0
 31 32  1  0  0  0  0
 31 37  1  1  0  0  0
 31 38  1  0  0  0  0
 33 36  1  0  0  0  0
 34 35  1  0  0  0  0
 35 99  1  0  0  0  0
 35100  1  0  0  0  0
 35101  1  0  0  0  0
 36102  1  0  0  0  0
 36103  1  0  0  0  0
 36104  1  0  0  0  0
 37105  1  0  0  0  0
 38 39  1  0  0  0  0
 38 47  2  0  0  0  0
 39 40  1  0  0  0  0
 39 46  2  0  0  0  0
 41 40  1  0  0  0  0
 41 45  1  0  0  0  0
 41106  1  0  0  0  0
 41107  1  0  0  0  0
 42 40  1  0  0  0  0
 42 43  1  0  0  0  0
 42 49  1  0  0  0  0
 42108  1  6  0  0  0
 43 44  1  0  0  0  0
 43109  1  0  0  0  0
 43110  1  0  0  0  0
 44 45  1  0  0  0  0
 44111  1  0  0  0  0
 44112  1  0  0  0  0
 45113  1  0  0  0  0
 45114  1  0  0  0  0
 48115  1  0  0  0  0
 48116  1  0  0  0  0
 48117  1  0  0  0  0
 49 50  2  0  0  0  0
 49 51  1  0  0  0  0
 52118  1  0  0  0  0
 52119  1  0  0  0  0
 52120  1  0  0  0  0
 53121  1  0  0  0  0
 55 56  1  0  0  0  0
 55122  1  0  0  0  0
 55123  1  0  0  0  0
 56 57  2  0  0  0  0
 56124  1  0  0  0  0
 57125  1  0  0  0  0
 57126  1  0  0  0  0
M  END
>  <DRUGBANK_ID>
DB00864

>  <SECONDARY_ACCESSION_NUMBERS>
APRD00276; EXPT01437

>  <COMMON_NAME>
Tacrolimus

>  <CAS_NUMBER>
104987-11-3

>  <UNII>
Y5L2157C4J

>  <SYNONYMS>
Anhydrous tacrolimus; Tacrolimus; Tacrolimus anhydrous; Tacrolimus, anhydrous

$$$$
