12560
 OpenBabel10282417072D

118120  0  0  1  0  0  0  0  0999 V2000
    4.5376   -0.9760    0.0000 O   0  0  0  0  0  0  0  0  0  0  0  0
    4.5376    0.4529    0.0000 O   0  0  0  0  0  0  0  0  0  0  0  0
    5.9887   -2.4873    0.0000 O   0  0  0  0  0  0  0  0  0  0  0  0
    4.5376   -2.4050    0.0000 O   0  0  0  0  0  0  0  0  0  0  0  0
    3.3001    1.1675    0.0000 O   0  0  0  0  0  0  0  0  0  0  0  0
    7.0127    1.8819    0.0000 O   0  0  0  0  0  0  0  0  0  0  0  0
    4.1251    3.4214    0.0000 O   0  0  0  0  0  0  0  0  0  0  0  0
    2.8876   -0.9760    0.0000 O   0  0  0  0  0  0  0  0  0  0  0  0
    2.8876    3.3109    0.0000 O   0  0  0  0  0  0  0  0  0  0  0  0
    9.0471    1.3810    0.0000 O   0  0  0  0  0  0  0  0  0  0  0  0
    7.2057    0.9833    0.0000 O   0  0  0  0  0  0  0  0  0  0  0  0
    8.2502   -1.6905    0.0000 O   0  0  0  0  0  0  0  0  0  0  0  0
    7.0127    0.4529    0.0000 O   0  0  0  0  0  0  0  0  0  0  0  0
    2.0625   -2.4050    0.0000 N   0  0  0  0  0  0  0  0  0  0  0  0
    5.3626   -0.9760    0.0000 C   0  0  2  0  0  0  0  0  0  0  0  0
    5.7751   -0.2615    0.0000 C   0  0  2  0  0  0  0  0  0  0  0  0
    5.7751   -1.6905    0.0000 C   0  0  1  0  0  0  0  0  0  0  0  0
    5.3626    0.4529    0.0000 C   0  0  1  0  0  0  0  0  0  0  0  0
    6.6001   -1.6905    0.0000 C   0  0  0  0  0  0  0  0  0  0  0  0
    5.7751    1.1675    0.0000 C   0  0  2  0  0  0  0  0  0  0  0  0
    7.0127   -0.9760    0.0000 C   0  0  2  0  0  0  0  0  0  0  0  0
    4.1251   -1.6905    0.0000 C   0  0  2  0  0  0  0  0  0  0  0  0
    4.1251    1.1675    0.0000 C   0  0  2  0  0  0  0  0  0  0  0  0
    4.1251    2.5964    0.0000 C   0  0  2  0  0  0  0  0  0  0  0  0
    6.6001   -0.2615    0.0000 C   0  0  0  0  0  0  0  0  0  0  0  0
    3.3001   -1.6905    0.0000 C   0  0  1  0  0  0  0  0  0  0  0  0
    2.8876   -2.4050    0.0000 C   0  0  2  0  0  0  0  0  0  0  0  0
    4.5376    1.8819    0.0000 C   0  0  0  0  0  0  0  0  0  0  0  0
    5.1918   -2.2739    0.0000 C   0  0  0  0  0  0  0  0  0  0  0  0
    3.3001    2.5964    0.0000 C   0  0  2  0  0  0  0  0  0  0  0  0
    8.2502   -0.2615    0.0000 C   0  0  2  0  0  0  0  0  0  0  0  0
    8.2502    1.1675    0.0000 C   0  0  1  0  0  0  0  0  0  0  0  0
    3.3001   -3.1195    0.0000 C   0  0  0  0  0  0  0  0  0  0  0  0
    7.8377    0.4529    0.0000 C   0  0  2  0  0  0  0  0  0  0  0  0
    2.8876    1.8819    0.0000 C   0  0  2  0  0  0  0  0  0  0  0  0
    7.8377   -0.9760    0.0000 C   0  0  0  0  0  0  0  0  0  0  0  0
    4.1251   -3.1195    0.0000 C   0  0  1  0  0  0  0  0  0  0  0  0
    7.8377    1.8819    0.0000 C   0  0  1  0  0  0  0  0  0  0  0  0
    6.6001    1.1675    0.0000 C   0  0  0  0  0  0  0  0  0  0  0  0
    5.3626    1.8819    0.0000 C   0  0  0  0  0  0  0  0  0  0  0  0
    6.1876   -0.9760    0.0000 C   0  0  0  0  0  0  0  0  0  0  0  0
    4.8396    3.0089    0.0000 C   0  0  0  0  0  0  0  0  0  0  0  0
    9.0752   -0.2615    0.0000 C   0  0  0  0  0  0  0  0  0  0  0  0
    8.9260    0.6943    0.0000 C   0  0  0  0  0  0  0  0  0  0  0  0
    8.2502    2.5964    0.0000 C   0  0  0  0  0  0  0  0  0  0  0  0
    2.0625    1.8819    0.0000 C   0  0  0  0  0  0  0  0  0  0  0  0
    4.5376   -3.8339    0.0000 C   0  0  0  0  0  0  0  0  0  0  0  0
    1.6500   -3.1195    0.0000 C   0  0  0  0  0  0  0  0  0  0  0  0
    1.6500   -1.6905    0.0000 C   0  0  0  0  0  0  0  0  0  0  0  0
    7.8377    3.3109    0.0000 C   0  0  0  0  0  0  0  0  0  0  0  0
    4.8396    3.8339    0.0000 C   0  0  0  0  0  0  0  0  0  0  0  0
    5.3029   -3.1733    0.0000 H   0  0  0  0  0  0  0  0  0  0  0  0
    3.3726   -0.1360    0.0000 H   0  0  0  0  0  0  0  0  0  0  0  0
    3.3726    4.1509    0.0000 H   0  0  0  0  0  0  0  0  0  0  0  0
    9.7330    0.6951    0.0000 H   0  0  0  0  0  0  0  0  0  0  0  0
    7.3742    1.9385    0.0000 H   0  0  0  0  0  0  0  0  0  0  0  0
    4.8276   -0.0494    0.0000 H   0  0  0  0  0  0  0  0  0  0  0  0
    6.3101   -1.1881    0.0000 H   0  0  0  0  0  0  0  0  0  0  0  0
    4.8276   -0.4738    0.0000 H   0  0  0  0  0  0  0  0  0  0  0  0
    7.1351   -2.6172    0.0000 H   0  0  0  0  0  0  0  0  0  0  0  0
    7.6701   -1.6906    0.0000 H   0  0  0  0  0  0  0  0  0  0  0  0
    4.7051    1.1674    0.0000 H   0  0  0  0  0  0  0  0  0  0  0  0
    6.0860   -1.5110    0.0000 H   0  0  0  0  0  0  0  0  0  0  0  0
    5.1951   -1.6905    0.0000 H   0  0  0  0  0  0  0  0  0  0  0  0
    3.5901    0.2409    0.0000 H   0  0  0  0  0  0  0  0  0  0  0  0
    7.1351   -1.1881    0.0000 H   0  0  0  0  0  0  0  0  0  0  0  0
    7.1351    0.6651    0.0000 H   0  0  0  0  0  0  0  0  0  0  0  0
    7.6701   -0.2615    0.0000 H   0  0  0  0  0  0  0  0  0  0  0  0
    3.8351   -0.7639    0.0000 H   0  0  0  0  0  0  0  0  0  0  0  0
    2.3526   -1.4784    0.0000 H   0  0  0  0  0  0  0  0  0  0  0  0
    5.6076    1.8819    0.0000 H   0  0  0  0  0  0  0  0  0  0  0  0
    5.0726    2.8085    0.0000 H   0  0  0  0  0  0  0  0  0  0  0  0
    4.1582   -1.9971    0.0000 H   0  0  0  0  0  0  0  0  0  0  0  0
    5.4688   -3.3074    0.0000 H   0  0  0  0  0  0  0  0  0  0  0  0
    4.4353   -3.0306    0.0000 H   0  0  0  0  0  0  0  0  0  0  0  0
    3.8351    3.5230    0.0000 H   0  0  0  0  0  0  0  0  0  0  0  0
    8.7852    0.6652    0.0000 H   0  0  0  0  0  0  0  0  0  0  0  0
    2.7651   -4.0461    0.0000 H   0  0  0  0  0  0  0  0  0  0  0  0
    3.8351   -4.0461    0.0000 H   0  0  0  0  0  0  0  0  0  0  0  0
    7.0180   -0.2349    0.0000 H   0  0  0  0  0  0  0  0  0  0  0  0
    2.3526    0.9552    0.0000 H   0  0  0  0  0  0  0  0  0  0  0  0
    5.1951   -3.1195    0.0000 H   0  0  0  0  0  0  0  0  0  0  0  0
    7.3027    2.8085    0.0000 H   0  0  0  0  0  0  0  0  0  0  0  0
    5.8976    2.8086    0.0000 H   0  0  0  0  0  0  0  0  0  0  0  0
    4.2926    1.8819    0.0000 H   0  0  0  0  0  0  0  0  0  0  0  0
    4.8276    2.8085    0.0000 H   0  0  0  0  0  0  0  0  0  0  0  0
    5.6526   -0.0494    0.0000 H   0  0  0  0  0  0  0  0  0  0  0  0
    5.6526   -1.9026    0.0000 H   0  0  0  0  0  0  0  0  0  0  0  0
    5.1176   -0.9760    0.0000 H   0  0  0  0  0  0  0  0  0  0  0  0
    5.7662    2.4739    0.0000 H   0  0  0  0  0  0  0  0  0  0  0  0
    4.8396    4.0789    0.0000 H   0  0  0  0  0  0  0  0  0  0  0  0
    5.7663    3.5439    0.0000 H   0  0  0  0  0  0  0  0  0  0  0  0
    9.6102   -1.1881    0.0000 H   0  0  0  0  0  0  0  0  0  0  0  0
    9.6102    0.6651    0.0000 H   0  0  0  0  0  0  0  0  0  0  0  0
   10.1452   -0.2615    0.0000 H   0  0  0  0  0  0  0  0  0  0  0  0
    8.8327   -0.3716    0.0000 H   0  0  0  0  0  0  0  0  0  0  0  0
    9.8957    1.1465    0.0000 H   0  0  0  0  0  0  0  0  0  0  0  0
    9.8025    0.0806    0.0000 H   0  0  0  0  0  0  0  0  0  0  0  0
    9.3202    2.5964    0.0000 H   0  0  0  0  0  0  0  0  0  0  0  0
    8.7852    3.5230    0.0000 H   0  0  0  0  0  0  0  0  0  0  0  0
    1.5275    2.8085    0.0000 H   0  0  0  0  0  0  0  0  0  0  0  0
    1.5275    0.9553    0.0000 H   0  0  0  0  0  0  0  0  0  0  0  0
    0.9925    1.8819    0.0000 H   0  0  0  0  0  0  0  0  0  0  0  0
    4.0026   -4.7606    0.0000 H   0  0  0  0  0  0  0  0  0  0  0  0
    5.6076   -3.8339    0.0000 H   0  0  0  0  0  0  0  0  0  0  0  0
    5.0726   -4.7605    0.0000 H   0  0  0  0  0  0  0  0  0  0  0  0
    0.5800   -3.1195    0.0000 H   0  0  0  0  0  0  0  0  0  0  0  0
    2.1850   -4.0461    0.0000 H   0  0  0  0  0  0  0  0  0  0  0  0
    1.1150   -4.0462    0.0000 H   0  0  0  0  0  0  0  0  0  0  0  0
    2.1850   -0.7639    0.0000 H   0  0  0  0  0  0  0  0  0  0  0  0
    0.5800   -1.6905    0.0000 H   0  0  0  0  0  0  0  0  0  0  0  0
    1.1150   -0.7638    0.0000 H   0  0  0  0  0  0  0  0  0  0  0  0
    8.3727    4.2375    0.0000 H   0  0  0  0  0  0  0  0  0  0  0  0
    6.7677    3.3109    0.0000 H   0  0  0  0  0  0  0  0  0  0  0  0
    7.3027    4.2376    0.0000 H   0  0  0  0  0  0  0  0  0  0  0  0
    5.7662    3.2989    0.0000 H   0  0  0  0  0  0  0  0  0  0  0  0
    4.8396    4.9039    0.0000 H   0  0  0  0  0  0  0  0  0  0  0  0
    5.7663    4.3689    0.0000 H   0  0  0  0  0  0  0  0  0  0  0  0
  3 52  1  0  0  0  0
  4 22  1  0  0  0  0
  4 37  1  0  0  0  0
  5 23  1  0  0  0  0
  5 35  1  0  0  0  0
  6 38  1  0  0  0  0
  6 39  1  0  0  0  0
  7 51  1  0  0  0  0
  8 53  1  0  0  0  0
  9 54  1  0  0  0  0
 10 55  1  0  0  0  0
 11 56  1  0  0  0  0
 12 36  2  0  0  0  0
 13 39  2  0  0  0  0
 14 48  1  0  0  0  0
 14 49  1  0  0  0  0
 15  1  1  0  0  0  0
 15 16  1  0  0  0  0
 15 17  1  0  0  0  0
 15 57  1  1  0  0  0
 16 18  1  0  0  0  0
 16 25  1  0  0  0  0
 16 58  1  1  0  0  0
 17  3  1  1  0  0  0
 17 19  1  0  0  0  0
 17 29  1  0  0  0  0
 18  2  1  0  0  0  0
 18 20  1  0  0  0  0
 18 59  1  1  0  0  0
 19 21  1  0  0  0  0
 19 60  1  0  0  0  0
 19 61  1  0  0  0  0
 20 39  1  0  0  0  0
 20 40  1  0  0  0  0
 20 62  1  6  0  0  0
 21 36  1  0  0  0  0
 21 41  1  0  0  0  0
 21 63  1  6  0  0  0
 22  1  1  0  0  0  0
 22 26  1  0  0  0  0
 22 64  1  1  0  0  0
 23  2  1  0  0  0  0
 23 28  1  0  0  0  0
 23 65  1  1  0  0  0
 24  7  1  6  0  0  0
 24 28  1  0  0  0  0
 24 30  1  0  0  0  0
 24 42  1  0  0  0  0
 25 66  1  0  0  0  0
 25 67  1  0  0  0  0
 25 68  1  0  0  0  0
 26  8  1  0  0  0  0
 26 27  1  0  0  0  0
 26 69  1  6  0  0  0
 27 14  1  0  0  0  0
 27 33  1  0  0  0  0
 27 70  1  1  0  0  0
 28 71  1  0  0  0  0
 28 72  1  0  0  0  0
 29 73  1  0  0  0  0
 29 74  1  0  0  0  0
 29 75  1  0  0  0  0
 30  9  1  0  0  0  0
 30 35  1  0  0  0  0
 30 76  1  1  0  0  0
 31 34  1  0  0  0  0
 31 36  1  0  0  0  0
 31 43  1  0  0  0  0
 31 77  1  6  0  0  0
 32 10  1  1  0  0  0
 32 34  1  0  0  0  0
 32 38  1  0  0  0  0
 32 44  1  0  0  0  0
 33 37  1  0  0  0  0
 33 78  1  0  0  0  0
 33 79  1  0  0  0  0
 34 11  1  0  0  0  0
 34 80  1  6  0  0  0
 35 46  1  0  0  0  0
 35 81  1  6  0  0  0
 37 47  1  0  0  0  0
 37 82  1  1  0  0  0
 38 45  1  0  0  0  0
 38 83  1  1  0  0  0
 40 84  1  0  0  0  0
 40 85  1  0  0  0  0
 40 86  1  0  0  0  0
 41 87  1  0  0  0  0
 41 88  1  0  0  0  0
 41 89  1  0  0  0  0
 42 90  1  0  0  0  0
 42 91  1  0  0  0  0
 42 92  1  0  0  0  0
 43 93  1  0  0  0  0
 43 94  1  0  0  0  0
 43 95  1  0  0  0  0
 44 96  1  0  0  0  0
 44 97  1  0  0  0  0
 44 98  1  0  0  0  0
 45 50  1  0  0  0  0
 45 99  1  0  0  0  0
 45100  1  0  0  0  0
 46101  1  0  0  0  0
 46102  1  0  0  0  0
 46103  1  0  0  0  0
 47104  1  0  0  0  0
 47105  1  0  0  0  0
 47106  1  0  0  0  0
 48107  1  0  0  0  0
 48108  1  0  0  0  0
 48109  1  0  0  0  0
 49110  1  0  0  0  0
 49111  1  0  0  0  0
 49112  1  0  0  0  0
 50113  1  0  0  0  0
 50114  1  0  0  0  0
 50115  1  0  0  0  0
 51116  1  0  0  0  0
 51117  1  0  0  0  0
 51118  1  0  0  0  0
M  END
>  <DRUGBANK_ID>
DB00199

>  <SECONDARY_ACCESSION_NUMBERS>
APRD00953

>  <COMMON_NAME>
Erythromycin

>  <CAS_NUMBER>
114-07-8

>  <UNII>
63937KV33D

>  <SYNONYMS>
3''-O-demethylerythromycin; Abomacetin; Eritromicina; Erythromycin; Erythromycin A; Erythromycin C; Ã©rythromycine; Erythromycinum

$$$$
