
 OpenBabel10282417072D

 14 14  0  0  0  0  0  0  0  0999 V2000
   -0.0835   -0.4836    0.0000 C   0  0  0  0  0  0  0  0  0  0  0  0
    0.1713    0.3010    0.0000 C   0  0  0  0  0  0  0  0  0  0  0  0
    0.5839   -0.9684    0.0000 O   0  0  0  0  0  0  0  0  0  0  0  0
   -0.8682   -0.7385    0.0000 C   0  0  0  0  0  0  0  0  0  0  0  0
    0.9963    0.3010    0.0000 C   0  0  0  0  0  0  0  0  0  0  0  0
    1.2513   -0.4836    0.0000 N   0  0  0  0  0  0  0  0  0  0  0  0
   -1.4813   -0.1864    0.0000 N   0  0  0  0  0  0  0  0  0  0  0  0
    1.4813    0.9684    0.0000 O   0  0  0  0  0  0  0  0  0  0  0  0
   -0.4354    1.1359    0.0000 H   0  0  0  0  0  0  0  0  0  0  0  0
   -1.0907   -1.7851    0.0000 H   0  0  0  0  0  0  0  0  0  0  0  0
   -1.8859   -1.0691    0.0000 H   0  0  0  0  0  0  0  0  0  0  0  0
    2.1876   -0.7878    0.0000 H   0  0  0  0  0  0  0  0  0  0  0  0
   -1.2692    0.8113    0.0000 H   0  0  0  0  0  0  0  0  0  0  0  0
   -2.4514   -0.5015    0.0000 H   0  0  0  0  0  0  0  0  0  0  0  0
  1  2  2  0  0  0  0
  1  3  1  0  0  0  0
  1  4  1  0  0  0  0
  2  5  1  0  0  0  0
  2  9  1  0  0  0  0
  3  6  1  0  0  0  0
  4  7  1  0  0  0  0
  4 10  1  0  0  0  0
  4 11  1  0  0  0  0
  5  8  2  0  0  0  0
  5  6  1  0  0  0  0
  6 12  1  0  0  0  0
  7 13  1  0  0  0  0
  7 14  1  0  0  0  0
M  END
>  <DRUGBANK_ID>
DB12458

>  <COMMON_NAME>
Muscimol

>  <CAS_NUMBER>
2763-96-4

>  <UNII>
D5M179TY2E

>  <SYNONYMS>
5-(aminomethyl)-3(2H)-isoxazolone

$$$$
