TF1
 OpenBabel10282417072D

 47 48  0  0  0  0  0  0  0  0999 V2000
    1.0976    0.0225    0.0000 N   0  0  0  0  0  0  0  0  0  0  0  0
    1.8121    0.4350    0.0000 C   0  0  0  0  0  0  0  0  0  0  0  0
    1.0976   -0.8025    0.0000 C   0  0  2  0  0  0  0  0  0  0  0  0
    0.3831    0.4350    0.0000 C   0  0  0  0  0  0  0  0  0  0  0  0
    1.8121    1.2600    0.0000 C   0  0  1  0  0  0  0  0  0  0  0  0
    2.5265    0.0225    0.0000 O   0  0  0  0  0  0  0  0  0  0  0  0
    0.3831   -1.2150    0.0000 C   0  0  0  0  0  0  0  0  0  0  0  0
    1.8121   -1.2150    0.0000 C   0  0  0  0  0  0  0  0  0  0  0  0
   -0.3314    0.0225    0.0000 C   0  0  2  0  0  0  0  0  0  0  0  0
    1.8121    2.0850    0.0000 C   0  0  0  0  0  0  0  0  0  0  0  0
    0.9871    1.2600    0.0000 C   0  0  0  0  0  0  0  0  0  0  0  0
    2.6371    1.2600    0.0000 O   0  0  0  0  0  0  0  0  0  0  0  0
   -0.3314   -0.8025    0.0000 N   0  0  0  0  0  0  0  0  0  0  0  0
   -1.0458    0.4350    0.0000 C   0  0  0  0  0  0  0  0  0  0  0  0
    1.8121    2.9100    0.0000 F   0  0  0  0  0  0  0  0  0  0  0  0
    0.9871    2.0850    0.0000 F   0  0  0  0  0  0  0  0  0  0  0  0
    2.6371    2.0850    0.0000 F   0  0  0  0  0  0  0  0  0  0  0  0
   -1.0458   -1.2150    0.0000 C   0  0  0  0  0  0  0  0  0  0  0  0
   -1.7603   -0.8025    0.0000 C   0  0  0  0  0  0  0  0  0  0  0  0
   -1.0458   -2.0400    0.0000 O   0  0  0  0  0  0  0  0  0  0  0  0
   -2.4748   -1.2150    0.0000 C   0  0  0  0  0  0  0  0  0  0  0  0
   -1.7603    0.0225    0.0000 C   0  0  0  0  0  0  0  0  0  0  0  0
   -3.1892   -0.8025    0.0000 C   0  0  0  0  0  0  0  0  0  0  0  0
   -2.4748    0.4350    0.0000 C   0  0  0  0  0  0  0  0  0  0  0  0
   -3.1892    0.0225    0.0000 C   0  0  0  0  0  0  0  0  0  0  0  0
   -3.9037    0.4350    0.0000 C   0  0  0  0  0  0  0  0  0  0  0  0
   -4.6182    0.8475    0.0000 N   0  0  0  0  0  0  0  0  0  0  0  0
    1.6033   -0.5105    0.0000 H   0  0  0  0  0  0  0  0  0  0  0  0
   -0.3314    0.6065    0.0000 H   0  0  0  0  0  0  0  0  0  0  0  0
    0.3831    1.5050    0.0000 H   0  0  0  0  0  0  0  0  0  0  0  0
   -0.5435    0.9700    0.0000 H   0  0  0  0  0  0  0  0  0  0  0  0
    0.3831   -2.2850    0.0000 H   0  0  0  0  0  0  0  0  0  0  0  0
   -0.5435   -1.7500    0.0000 H   0  0  0  0  0  0  0  0  0  0  0  0
    1.8121   -2.2850    0.0000 H   0  0  0  0  0  0  0  0  0  0  0  0
    2.7387   -0.6800    0.0000 H   0  0  0  0  0  0  0  0  0  0  0  0
    2.7388   -1.7500    0.0000 H   0  0  0  0  0  0  0  0  0  0  0  0
    0.4521    2.1866    0.0000 H   0  0  0  0  0  0  0  0  0  0  0  0
    0.4521    0.3334    0.0000 H   0  0  0  0  0  0  0  0  0  0  0  0
   -0.0829    1.2600    0.0000 H   0  0  0  0  0  0  0  0  0  0  0  0
    3.1221    0.4200    0.0000 H   0  0  0  0  0  0  0  0  0  0  0  0
   -1.0458    1.5050    0.0000 H   0  0  0  0  0  0  0  0  0  0  0  0
   -1.9725   -0.1000    0.0000 H   0  0  0  0  0  0  0  0  0  0  0  0
   -1.9724    0.9700    0.0000 H   0  0  0  0  0  0  0  0  0  0  0  0
   -2.4748   -2.2470    0.0000 H   0  0  0  0  0  0  0  0  0  0  0  0
   -0.8666    0.5385    0.0000 H   0  0  0  0  0  0  0  0  0  0  0  0
   -4.0829   -1.3185    0.0000 H   0  0  0  0  0  0  0  0  0  0  0  0
   -2.4748    1.4670    0.0000 H   0  0  0  0  0  0  0  0  0  0  0  0
  1  2  1  0  0  0  0
  1  3  1  0  0  0  0
  1  4  1  0  0  0  0
  2  6  2  0  0  0  0
  3  7  1  0  0  0  0
  3  8  1  0  0  0  0
  3 28  1  6  0  0  0
  4  9  1  0  0  0  0
  4 30  1  0  0  0  0
  4 31  1  0  0  0  0
  5  2  1  6  0  0  0
  5 10  1  0  0  0  0
  5 11  1  0  0  0  0
  5 12  1  0  0  0  0
  7 13  1  0  0  0  0
  7 32  1  0  0  0  0
  7 33  1  0  0  0  0
  8 34  1  0  0  0  0
  8 35  1  0  0  0  0
  8 36  1  0  0  0  0
  9 13  1  0  0  0  0
  9 14  1  0  0  0  0
  9 29  1  1  0  0  0
 10 15  1  0  0  0  0
 10 16  1  0  0  0  0
 10 17  1  0  0  0  0
 11 37  1  0  0  0  0
 11 38  1  0  0  0  0
 11 39  1  0  0  0  0
 12 40  1  0  0  0  0
 13 18  1  0  0  0  0
 14 41  1  0  0  0  0
 14 42  1  0  0  0  0
 14 43  1  0  0  0  0
 18 19  1  0  0  0  0
 18 20  2  0  0  0  0
 19 21  2  0  0  0  0
 19 22  1  0  0  0  0
 21 23  1  0  0  0  0
 21 44  1  0  0  0  0
 22 24  2  0  0  0  0
 22 45  1  0  0  0  0
 23 25  2  0  0  0  0
 23 46  1  0  0  0  0
 24 25  1  0  0  0  0
 24 47  1  0  0  0  0
 25 26  1  0  0  0  0
 26 27  3  0  0  0  0
M  END
>  <DRUGBANK_ID>
DB08608

>  <COMMON_NAME>
4-({(2R,5S)-2,5-DIMETHYL-4-[(2R)-3,3,3-TRIFLUORO-2-HYDROXY-2-METHYLPROPANOYL]PIPERAZIN-1-YL}CARBONYL)BENZONITRILE

$$$$
