
 OpenBabel10282417072D

 54 54  0  0  0  0  0  0  0  0999 V2000
    2.8579    0.8250    0.0000 C   0  0  0  0  0  0  0  0  0  0  0  0
    7.1447   -1.6500    0.0000 C   0  0  0  0  0  0  0  0  0  0  0  0
    5.1927   -1.1270    0.0000 C   0  0  0  0  0  0  0  0  0  0  0  0
    2.8579    2.4750    0.0000 C   0  0  0  0  0  0  0  0  0  0  0  0
    6.8427    0.3020    0.0000 C   0  0  0  0  0  0  0  0  0  0  0  0
    3.5724    1.2375    0.0000 C   0  0  0  0  0  0  0  0  0  0  0  0
    7.1447   -0.8250    0.0000 C   0  0  0  0  0  0  0  0  0  0  0  0
    6.0177   -1.1270    0.0000 C   0  0  0  0  0  0  0  0  0  0  0  0
    4.2868    4.9500    0.0000 C   0  0  0  0  0  0  0  0  0  0  0  0
    3.5724    4.5375    0.0000 C   0  0  0  0  0  0  0  0  0  0  0  0
    5.0013    4.5375    0.0000 C   0  0  0  0  0  0  0  0  0  0  0  0
    3.5724    3.7125    0.0000 C   0  0  0  0  0  0  0  0  0  0  0  0
    5.0013    3.7125    0.0000 C   0  0  0  0  0  0  0  0  0  0  0  0
    5.7158    0.0000    0.0000 C   0  0  0  0  0  0  0  0  0  0  0  0
    5.7158    0.8250    0.0000 C   0  0  0  0  0  0  0  0  0  0  0  0
    3.5724    2.0625    0.0000 C   0  0  3  0  0  0  0  0  0  0  0  0
    4.2868    3.3000    0.0000 C   0  0  0  0  0  0  0  0  0  0  0  0
    4.2868    2.4750    0.0000 C   0  0  3  0  0  0  0  0  0  0  0  0
    5.0013    2.0625    0.0000 C   0  0  0  0  0  0  0  0  0  0  0  0
    6.4302   -0.4125    0.0000 N   0  3  0  0  0  0  0  0  0  0  0  0
    5.7158    2.4750    0.0000 O   0  0  0  0  0  0  0  0  0  0  0  0
    5.0013    1.2375    0.0000 O   0  0  0  0  0  0  0  0  0  0  0  0
    1.9313    1.3600    0.0000 H   0  0  0  0  0  0  0  0  0  0  0  0
    2.8579   -0.2450    0.0000 H   0  0  0  0  0  0  0  0  0  0  0  0
    1.9312    0.2900    0.0000 H   0  0  0  0  0  0  0  0  0  0  0  0
    6.2181   -2.1850    0.0000 H   0  0  0  0  0  0  0  0  0  0  0  0
    8.0713   -2.1850    0.0000 H   0  0  0  0  0  0  0  0  0  0  0  0
    7.1447   -2.7200    0.0000 H   0  0  0  0  0  0  0  0  0  0  0  0
    4.6577   -0.2004    0.0000 H   0  0  0  0  0  0  0  0  0  0  0  0
    4.6577   -2.0536    0.0000 H   0  0  0  0  0  0  0  0  0  0  0  0
    4.1227   -1.1270    0.0000 H   0  0  0  0  0  0  0  0  0  0  0  0
    2.8579    3.5450    0.0000 H   0  0  0  0  0  0  0  0  0  0  0  0
    1.9313    1.9400    0.0000 H   0  0  0  0  0  0  0  0  0  0  0  0
    1.9312    3.0100    0.0000 H   0  0  0  0  0  0  0  0  0  0  0  0
    7.9127    0.3020    0.0000 H   0  0  0  0  0  0  0  0  0  0  0  0
    6.3077    1.2286    0.0000 H   0  0  0  0  0  0  0  0  0  0  0  0
    7.3777    1.2287    0.0000 H   0  0  0  0  0  0  0  0  0  0  0  0
    4.4990    0.7025    0.0000 H   0  0  0  0  0  0  0  0  0  0  0  0
    4.4990    1.7725    0.0000 H   0  0  0  0  0  0  0  0  0  0  0  0
    8.0713   -0.2900    0.0000 H   0  0  0  0  0  0  0  0  0  0  0  0
    7.1447    0.2450    0.0000 H   0  0  0  0  0  0  0  0  0  0  0  0
    6.5527   -2.0536    0.0000 H   0  0  0  0  0  0  0  0  0  0  0  0
    7.0877   -1.1270    0.0000 H   0  0  0  0  0  0  0  0  0  0  0  0
    4.2868    5.9820    0.0000 H   0  0  0  0  0  0  0  0  0  0  0  0
    2.6787    5.0535    0.0000 H   0  0  0  0  0  0  0  0  0  0  0  0
    5.8950    5.0535    0.0000 H   0  0  0  0  0  0  0  0  0  0  0  0
    2.6787    3.1965    0.0000 H   0  0  0  0  0  0  0  0  0  0  0  0
    5.8950    3.1965    0.0000 H   0  0  0  0  0  0  0  0  0  0  0  0
    4.7891   -0.5350    0.0000 H   0  0  0  0  0  0  0  0  0  0  0  0
    5.7158   -1.0700    0.0000 H   0  0  0  0  0  0  0  0  0  0  0  0
    6.6424    1.3600    0.0000 H   0  0  0  0  0  0  0  0  0  0  0  0
    5.7158    1.8950    0.0000 H   0  0  0  0  0  0  0  0  0  0  0  0
    2.6458    1.5275    0.0000 H   0  0  0  0  0  0  0  0  0  0  0  0
    3.3601    3.0100    0.0000 H   0  0  0  0  0  0  0  0  0  0  0  0
  1 23  1  0  0  0  0
  1 24  1  0  0  0  0
  1 25  1  0  0  0  0
  2 26  1  0  0  0  0
  2 27  1  0  0  0  0
  2 28  1  0  0  0  0
  3 29  1  0  0  0  0
  3 30  1  0  0  0  0
  3 31  1  0  0  0  0
  4 32  1  0  0  0  0
  4 33  1  0  0  0  0
  4 34  1  0  0  0  0
  5 35  1  0  0  0  0
  5 36  1  0  0  0  0
  5 37  1  0  0  0  0
  6  1  1  0  0  0  0
  6 38  1  0  0  0  0
  6 39  1  0  0  0  0
  7  2  1  0  0  0  0
  7 40  1  0  0  0  0
  7 41  1  0  0  0  0
  8  3  1  0  0  0  0
  8 42  1  0  0  0  0
  8 43  1  0  0  0  0
  9 44  1  0  0  0  0
 10  9  2  0  0  0  0
 10 45  1  0  0  0  0
 11  9  1  0  0  0  0
 11 46  1  0  0  0  0
 12 10  1  0  0  0  0
 12 47  1  0  0  0  0
 13 11  2  0  0  0  0
 13 48  1  0  0  0  0
 14 49  1  0  0  0  0
 14 50  1  0  0  0  0
 15 14  1  0  0  0  0
 15 51  1  0  0  0  0
 15 52  1  0  0  0  0
 16  4  1  0  0  0  0
 16  6  1  0  0  0  0
 16 53  1  0  0  0  0
 17 12  2  0  0  0  0
 17 13  1  0  0  0  0
 18 16  1  0  0  0  0
 18 17  1  0  0  0  0
 18 54  1  0  0  0  0
 19 18  1  0  0  0  0
 20  5  1  0  0  0  0
 20  7  1  0  0  0  0
 20  8  1  0  0  0  0
 20 14  1  0  0  0  0
 21 19  2  0  0  0  0
 22 15  1  0  0  0  0
 22 19  1  0  0  0  0
M  CHG  1  20   1
M  END
>  <DRUGBANK_ID>
DB13497

>  <COMMON_NAME>
Valethamate

>  <CAS_NUMBER>
16376-74-2

>  <UNII>
D64S64QVX7

$$$$
