FNP
 OpenBabel10282417072D

 34 35  0  0  0  0  0  0  0  0999 V2000
    2.3345   -0.2499    0.0000 C   0  0  0  0  0  0  0  0  0  0  0  0
   -1.2378    0.1626    0.0000 C   0  0  0  0  0  0  0  0  0  0  0  0
   -1.2378    0.9876    0.0000 C   0  0  0  0  0  0  0  0  0  0  0  0
   -0.5234    1.4001    0.0000 C   0  0  0  0  0  0  0  0  0  0  0  0
    0.1911    0.9876    0.0000 C   0  0  0  0  0  0  0  0  0  0  0  0
    0.9056    1.4001    0.0000 C   0  0  0  0  0  0  0  0  0  0  0  0
    1.6200    0.9876    0.0000 C   0  0  0  0  0  0  0  0  0  0  0  0
    1.6200    0.1626    0.0000 C   0  0  0  0  0  0  0  0  0  0  0  0
    0.9056   -0.2499    0.0000 C   0  0  0  0  0  0  0  0  0  0  0  0
    0.1911    0.1626    0.0000 C   0  0  0  0  0  0  0  0  0  0  0  0
   -0.5234   -0.2499    0.0000 C   0  0  0  0  0  0  0  0  0  0  0  0
   -1.9523   -0.2499    0.0000 C   0  0  0  0  0  0  0  0  0  0  0  0
    2.7470    0.4646    0.0000 F   0  0  0  0  0  0  0  0  0  0  0  0
    1.9220   -0.9644    0.0000 F   0  0  0  0  0  0  0  0  0  0  0  0
    3.0490   -0.6624    0.0000 P   0  0  0  0  0  0  0  0  0  0  0  0
    3.7634   -1.0749    0.0000 O   0  0  0  0  0  0  0  0  0  0  0  0
    3.4615    0.0521    0.0000 O   0  0  0  0  0  0  0  0  0  0  0  0
    2.6365   -1.3769    0.0000 O   0  0  0  0  0  0  0  0  0  0  0  0
   -2.3648    0.4646    0.0000 F   0  0  0  0  0  0  0  0  0  0  0  0
   -1.5398   -0.9644    0.0000 F   0  0  0  0  0  0  0  0  0  0  0  0
   -2.6668   -0.6624    0.0000 P   0  0  0  0  0  0  0  0  0  0  0  0
   -3.3813   -1.0749    0.0000 O   0  0  0  0  0  0  0  0  0  0  0  0
   -3.0793    0.0521    0.0000 O   0  0  0  0  0  0  0  0  0  0  0  0
   -2.2543   -1.3769    0.0000 O   0  0  0  0  0  0  0  0  0  0  0  0
   -2.1315    1.5036    0.0000 H   0  0  0  0  0  0  0  0  0  0  0  0
   -0.5234    2.4321    0.0000 H   0  0  0  0  0  0  0  0  0  0  0  0
    0.9056    2.4321    0.0000 H   0  0  0  0  0  0  0  0  0  0  0  0
    2.5137    1.5036    0.0000 H   0  0  0  0  0  0  0  0  0  0  0  0
    0.9056   -1.2819    0.0000 H   0  0  0  0  0  0  0  0  0  0  0  0
   -0.5234   -1.2819    0.0000 H   0  0  0  0  0  0  0  0  0  0  0  0
    4.4315    0.0521    0.0000 H   0  0  0  0  0  0  0  0  0  0  0  0
    1.6665   -1.3769    0.0000 H   0  0  0  0  0  0  0  0  0  0  0  0
   -2.5943    0.8921    0.0000 H   0  0  0  0  0  0  0  0  0  0  0  0
   -2.7393   -2.2169    0.0000 H   0  0  0  0  0  0  0  0  0  0  0  0
  1  8  1  0  0  0  0
  1 13  1  0  0  0  0
  1 14  1  0  0  0  0
  1 15  1  0  0  0  0
  2  3  2  0  0  0  0
  2 11  1  0  0  0  0
  2 12  1  0  0  0  0
  3  4  1  0  0  0  0
  3 25  1  0  0  0  0
  4  5  2  0  0  0  0
  4 26  1  0  0  0  0
  5  6  1  0  0  0  0
  5 10  1  0  0  0  0
  6  7  2  0  0  0  0
  6 27  1  0  0  0  0
  7  8  1  0  0  0  0
  7 28  1  0  0  0  0
  8  9  2  0  0  0  0
  9 10  1  0  0  0  0
  9 29  1  0  0  0  0
 10 11  2  0  0  0  0
 11 30  1  0  0  0  0
 12 19  1  0  0  0  0
 12 20  1  0  0  0  0
 12 21  1  0  0  0  0
 15 16  2  0  0  0  0
 15 17  1  0  0  0  0
 15 18  1  0  0  0  0
 17 31  1  0  0  0  0
 18 32  1  0  0  0  0
 21 22  2  0  0  0  0
 21 23  1  0  0  0  0
 21 24  1  0  0  0  0
 23 33  1  0  0  0  0
 24 34  1  0  0  0  0
M  END
>  <DRUGBANK_ID>
DB03154

>  <SECONDARY_ACCESSION_NUMBERS>
EXPT01463

>  <COMMON_NAME>
{[7-(Difluoro-Phosphono-Methyl)-Naphthalen-2-Yl]-Difluoro-Methyl}-Phosphonic Acid

$$$$
