4816
 OpenBabel10282417072D

 26 28  0  0  0  0  0  0  0  0999 V2000
    3.6957    1.4452    0.0000 O   0  0  0  0  0  0  0  0  0  0  0  0
    3.6957   -1.7230    0.0000 O   0  0  0  0  0  0  0  0  0  0  0  0
    5.0805    1.4726    0.0000 O   0  0  0  0  0  0  0  0  0  0  0  0
    2.3109    1.4726    0.0000 O   0  0  0  0  0  0  0  0  0  0  0  0
    4.3817    0.2571    0.0000 C   0  0  0  0  0  0  0  0  0  0  0  0
    3.0098    0.2571    0.0000 C   0  0  0  0  0  0  0  0  0  0  0  0
    4.3817   -0.5350    0.0000 C   0  0  0  0  0  0  0  0  0  0  0  0
    3.0098   -0.5350    0.0000 C   0  0  0  0  0  0  0  0  0  0  0  0
    3.6957    0.6531    0.0000 C   0  0  0  0  0  0  0  0  0  0  0  0
    3.6957   -0.9310    0.0000 C   0  0  0  0  0  0  0  0  0  0  0  0
    5.0897    0.6806    0.0000 C   0  0  0  0  0  0  0  0  0  0  0  0
    2.3018    0.6806    0.0000 C   0  0  0  0  0  0  0  0  0  0  0  0
    5.0897   -0.9585    0.0000 C   0  0  0  0  0  0  0  0  0  0  0  0
    2.3018   -0.9585    0.0000 C   0  0  0  0  0  0  0  0  0  0  0  0
    5.8074    0.2736    0.0000 C   0  0  0  0  0  0  0  0  0  0  0  0
    1.5841    0.2736    0.0000 C   0  0  0  0  0  0  0  0  0  0  0  0
    5.8074   -0.5514    0.0000 C   0  0  0  0  0  0  0  0  0  0  0  0
    1.5841   -0.5514    0.0000 C   0  0  0  0  0  0  0  0  0  0  0  0
    5.8865    1.9505    0.0000 H   0  0  0  0  0  0  0  0  0  0  0  0
    3.1277    1.9317    0.0000 H   0  0  0  0  0  0  0  0  0  0  0  0
    5.0778   -1.9904    0.0000 H   0  0  0  0  0  0  0  0  0  0  0  0
    2.3137   -1.9904    0.0000 H   0  0  0  0  0  0  0  0  0  0  0  0
    6.6991    0.7931    0.0000 H   0  0  0  0  0  0  0  0  0  0  0  0
    0.6924    0.7931    0.0000 H   0  0  0  0  0  0  0  0  0  0  0  0
    6.6992   -1.0708    0.0000 H   0  0  0  0  0  0  0  0  0  0  0  0
    0.6923   -1.0708    0.0000 H   0  0  0  0  0  0  0  0  0  0  0  0
  1  9  2  0  0  0  0
  2 10  2  0  0  0  0
  3 11  1  0  0  0  0
  3 19  1  0  0  0  0
  4 12  1  0  0  0  0
  4 20  1  0  0  0  0
  5  7  2  0  0  0  0
  5  9  1  0  0  0  0
  5 11  1  0  0  0  0
  6  8  2  0  0  0  0
  6  9  1  0  0  0  0
  6 12  1  0  0  0  0
  7 10  1  0  0  0  0
  7 13  1  0  0  0  0
  8 10  1  0  0  0  0
  8 14  1  0  0  0  0
 11 15  2  0  0  0  0
 12 16  2  0  0  0  0
 13 17  2  0  0  0  0
 13 21  1  0  0  0  0
 14 18  2  0  0  0  0
 14 22  1  0  0  0  0
 15 17  1  0  0  0  0
 15 23  1  0  0  0  0
 16 18  1  0  0  0  0
 16 24  1  0  0  0  0
 17 25  1  0  0  0  0
 18 26  1  0  0  0  0
M  END
>  <DRUGBANK_ID>
DB04816

>  <COMMON_NAME>
Dantron

>  <CAS_NUMBER>
117-10-2

>  <UNII>
Z4XE6IBF3V

>  <SYNONYMS>
1,8-dihydroxy-9,10-anthracenedione; 1,8-dihydroxy-9,10-anthraquinone; 1,8-dihydroxyanthra-9,10-quinone; 1,8-Dihydroxyanthrachinon; 1,8-Dihydroxyanthraquinone; Chrysazin; Danthron; Dantron; Dantrona; Dantrone; Dantronum

$$$$
