
 OpenBabel10282417072D

 81 84  0  0  1  0  0  0  0  0999 V2000
    5.2622    3.1455    0.0000 C   0  0  0  0  0  0  0  0  0  0  0  0
    4.4739    3.3886    0.0000 O   0  0  0  0  0  0  0  0  0  0  0  0
    3.8691    2.8275    0.0000 C   0  0  0  0  0  0  0  0  0  0  0  0
    3.0808    3.0707    0.0000 C   0  0  0  0  0  0  0  0  0  0  0  0
    2.4760    2.5095    0.0000 C   0  0  0  0  0  0  0  0  0  0  0  0
    2.6596    1.7052    0.0000 C   0  0  0  0  0  0  0  0  0  0  0  0
    3.4479    1.4620    0.0000 C   0  0  0  0  0  0  0  0  0  0  0  0
    3.6315    0.6577    0.0000 C   0  0  1  0  0  0  0  0  0  0  0  0
    4.4358    0.4742    0.0000 O   0  0  0  0  0  0  0  0  0  0  0  0
    4.7938   -0.2691    0.0000 C   0  0  2  0  0  0  0  0  0  0  0  0
    5.6188   -0.2691    0.0000 C   0  0  0  0  0  0  0  0  0  0  0  0
    6.0313   -0.9836    0.0000 C   0  0  0  0  0  0  0  0  0  0  0  0
    5.6188   -1.6981    0.0000 O   0  0  0  0  0  0  0  0  0  0  0  0
    6.8563   -0.9836    0.0000 N   0  0  0  0  0  0  0  0  0  0  0  0
    7.2688   -0.2691    0.0000 C   0  0  0  0  0  0  0  0  0  0  0  0
    8.0938   -0.2691    0.0000 C   0  0  0  0  0  0  0  0  0  0  0  0
    8.5063   -0.9836    0.0000 C   0  0  3  0  0  0  0  0  0  0  0  0
    9.3313   -0.9836    0.0000 C   0  0  0  0  0  0  0  0  0  0  0  0
    9.7438   -1.6981    0.0000 C   0  0  0  0  0  0  0  0  0  0  0  0
   10.5688   -1.6981    0.0000 O   0  0  0  0  0  0  0  0  0  0  0  0
    9.3313   -2.4126    0.0000 O   0  0  0  0  0  0  0  0  0  0  0  0
    8.0938   -1.6981    0.0000 C   0  0  0  0  0  0  0  0  0  0  0  0
    7.2688   -1.6981    0.0000 C   0  0  0  0  0  0  0  0  0  0  0  0
    4.4358   -1.0124    0.0000 C   0  0  0  0  0  0  0  0  0  0  0  0
    4.9502   -1.6575    0.0000 O   0  0  0  0  0  0  0  0  0  0  0  0
    3.6315   -1.1960    0.0000 N   0  0  0  0  0  0  0  0  0  0  0  0
    3.4479   -2.0003    0.0000 C   0  0  0  0  0  0  0  0  0  0  0  0
    4.0527   -2.5615    0.0000 C   0  0  0  0  0  0  0  0  0  0  0  0
    4.6575   -3.1226    0.0000 C   0  0  0  0  0  0  0  0  0  0  0  0
    4.6138   -1.9567    0.0000 C   0  0  0  0  0  0  0  0  0  0  0  0
    3.4915   -3.1663    0.0000 C   0  0  0  0  0  0  0  0  0  0  0  0
    2.6872   -2.9827    0.0000 O   0  0  0  0  0  0  0  0  0  0  0  0
    2.9865   -0.6816    0.0000 C   0  0  0  0  0  0  0  0  0  0  0  0
    2.9865    0.1434    0.0000 C   0  0  0  0  0  0  0  0  0  0  0  0
    2.2720    0.5559    0.0000 C   0  0  0  0  0  0  0  0  0  0  0  0
    1.5575    0.1434    0.0000 C   0  0  0  0  0  0  0  0  0  0  0  0
    0.8431    0.5559    0.0000 Cl  0  0  0  0  0  0  0  0  0  0  0  0
    1.5575   -0.6816    0.0000 C   0  0  0  0  0  0  0  0  0  0  0  0
    2.2720   -1.0941    0.0000 C   0  0  0  0  0  0  0  0  0  0  0  0
    4.0527    2.0232    0.0000 C   0  0  0  0  0  0  0  0  0  0  0  0
    4.8410    1.7800    0.0000 O   0  0  0  0  0  0  0  0  0  0  0  0
    5.4458    2.3412    0.0000 C   0  0  0  0  0  0  0  0  0  0  0  0
    5.5004    2.1023    0.0000 H   0  0  0  0  0  0  0  0  0  0  0  0
    6.0465    3.8733    0.0000 H   0  0  0  0  0  0  0  0  0  0  0  0
    6.2847    2.8302    0.0000 H   0  0  0  0  0  0  0  0  0  0  0  0
    2.8512    4.0768    0.0000 H   0  0  0  0  0  0  0  0  0  0  0  0
    1.4898    2.8137    0.0000 H   0  0  0  0  0  0  0  0  0  0  0  0
    1.9031    1.0033    0.0000 H   0  0  0  0  0  0  0  0  0  0  0  0
    4.3881    1.4143    0.0000 H   0  0  0  0  0  0  0  0  0  0  0  0
    5.3631    0.6369    0.0000 H   0  0  0  0  0  0  0  0  0  0  0  0
    6.1538    0.6575    0.0000 H   0  0  0  0  0  0  0  0  0  0  0  0
    6.6888   -0.2691    0.0000 H   0  0  0  0  0  0  0  0  0  0  0  0
    6.7338    0.6575    0.0000 H   0  0  0  0  0  0  0  0  0  0  0  0
    7.8038    0.6575    0.0000 H   0  0  0  0  0  0  0  0  0  0  0  0
    8.6288    0.6575    0.0000 H   0  0  0  0  0  0  0  0  0  0  0  0
    9.1638   -0.2691    0.0000 H   0  0  0  0  0  0  0  0  0  0  0  0
    9.0413   -0.0570    0.0000 H   0  0  0  0  0  0  0  0  0  0  0  0
    9.8663   -0.0570    0.0000 H   0  0  0  0  0  0  0  0  0  0  0  0
   10.4013   -0.9836    0.0000 H   0  0  0  0  0  0  0  0  0  0  0  0
   11.0373   -2.5096    0.0000 H   0  0  0  0  0  0  0  0  0  0  0  0
    8.6288   -2.6247    0.0000 H   0  0  0  0  0  0  0  0  0  0  0  0
    7.5588   -2.6247    0.0000 H   0  0  0  0  0  0  0  0  0  0  0  0
    6.7338   -2.6247    0.0000 H   0  0  0  0  0  0  0  0  0  0  0  0
    6.1988   -1.6981    0.0000 H   0  0  0  0  0  0  0  0  0  0  0  0
    2.4254   -2.3157    0.0000 H   0  0  0  0  0  0  0  0  0  0  0  0
    3.2098   -3.0435    0.0000 H   0  0  0  0  0  0  0  0  0  0  0  0
    4.4195   -4.1658    0.0000 H   0  0  0  0  0  0  0  0  0  0  0  0
    5.6799   -2.8071    0.0000 H   0  0  0  0  0  0  0  0  0  0  0  0
    5.4419   -3.8503    0.0000 H   0  0  0  0  0  0  0  0  0  0  0  0
    5.6570   -2.1947    0.0000 H   0  0  0  0  0  0  0  0  0  0  0  0
    4.2983   -0.9343    0.0000 H   0  0  0  0  0  0  0  0  0  0  0  0
    5.3415   -1.1723    0.0000 H   0  0  0  0  0  0  0  0  0  0  0  0
    3.8069   -4.1888    0.0000 H   0  0  0  0  0  0  0  0  0  0  0  0
    2.7637   -3.9506    0.0000 H   0  0  0  0  0  0  0  0  0  0  0  0
    2.4013   -2.0558    0.0000 H   0  0  0  0  0  0  0  0  0  0  0  0
    2.2720    1.5879    0.0000 H   0  0  0  0  0  0  0  0  0  0  0  0
    0.6638   -1.1976    0.0000 H   0  0  0  0  0  0  0  0  0  0  0  0
    2.2720   -2.1261    0.0000 H   0  0  0  0  0  0  0  0  0  0  0  0
    6.4683    2.0258    0.0000 H   0  0  0  0  0  0  0  0  0  0  0  0
    5.2077    3.3844    0.0000 H   0  0  0  0  0  0  0  0  0  0  0  0
    6.2301    3.0690    0.0000 H   0  0  0  0  0  0  0  0  0  0  0  0
  1  2  1  0  0  0  0
  1 43  1  0  0  0  0
  1 44  1  0  0  0  0
  1 45  1  0  0  0  0
  2  3  1  0  0  0  0
  3  4  2  0  0  0  0
  3 40  1  0  0  0  0
  4  5  1  0  0  0  0
  4 46  1  0  0  0  0
  5  6  2  0  0  0  0
  5 47  1  0  0  0  0
  6  7  1  0  0  0  0
  6 48  1  0  0  0  0
  7 40  2  0  0  0  0
  8  7  1  0  0  0  0
  8  9  1  0  0  0  0
  8 34  1  0  0  0  0
  8 49  1  6  0  0  0
 10  9  1  0  0  0  0
 10 11  1  0  0  0  0
 10 24  1  0  0  0  0
 10 50  1  1  0  0  0
 11 12  1  0  0  0  0
 11 51  1  0  0  0  0
 11 52  1  0  0  0  0
 12 13  2  0  0  0  0
 12 14  1  0  0  0  0
 14 15  1  0  0  0  0
 14 23  1  0  0  0  0
 15 16  1  0  0  0  0
 15 53  1  0  0  0  0
 15 54  1  0  0  0  0
 16 17  1  0  0  0  0
 16 55  1  0  0  0  0
 16 56  1  0  0  0  0
 17 18  1  0  0  0  0
 17 22  1  0  0  0  0
 17 57  1  0  0  0  0
 18 19  1  0  0  0  0
 18 58  1  0  0  0  0
 18 59  1  0  0  0  0
 19 20  1  0  0  0  0
 19 21  2  0  0  0  0
 20 60  1  0  0  0  0
 22 23  1  0  0  0  0
 22 61  1  0  0  0  0
 22 62  1  0  0  0  0
 23 63  1  0  0  0  0
 23 64  1  0  0  0  0
 24 25  2  0  0  0  0
 24 26  1  0  0  0  0
 26 27  1  0  0  0  0
 26 33  1  0  0  0  0
 27 28  1  0  0  0  0
 27 65  1  0  0  0  0
 27 66  1  0  0  0  0
 28 29  1  0  0  0  0
 28 30  1  0  0  0  0
 28 31  1  0  0  0  0
 29 67  1  0  0  0  0
 29 68  1  0  0  0  0
 29 69  1  0  0  0  0
 30 70  1  0  0  0  0
 30 71  1  0  0  0  0
 30 72  1  0  0  0  0
 31 32  1  0  0  0  0
 31 73  1  0  0  0  0
 31 74  1  0  0  0  0
 32 75  1  0  0  0  0
 33 34  2  0  0  0  0
 33 39  1  0  0  0  0
 34 35  1  0  0  0  0
 35 36  2  0  0  0  0
 35 76  1  0  0  0  0
 36 37  1  0  0  0  0
 36 38  1  0  0  0  0
 38 39  2  0  0  0  0
 38 77  1  0  0  0  0
 39 78  1  0  0  0  0
 40 41  1  0  0  0  0
 41 42  1  0  0  0  0
 42 79  1  0  0  0  0
 42 80  1  0  0  0  0
 42 81  1  0  0  0  0
M  END
>  <DRUGBANK_ID>
DB16215

>  <COMMON_NAME>
Lapaquistat

>  <CAS_NUMBER>
189059-71-0

>  <UNII>
PEZ79BV72X

>  <SYNONYMS>
Lapaquistat

$$$$
