
 OpenBabel10282417072D

 32 32  0  0  0  0  0  0  0  0999 V2000
    0.3572    0.6187    0.0000 N   0  0  0  0  0  0  0  0  0  0  0  0
   -1.0717    0.6187    0.0000 N   0  0  0  0  0  0  0  0  0  0  0  0
   -0.3572   -0.6187    0.0000 N   0  0  0  0  0  0  0  0  0  0  0  0
   -1.0717   -0.2062    0.0000 C   0  0  0  0  0  0  0  0  0  0  0  0
    0.3572   -0.2062    0.0000 C   0  0  0  0  0  0  0  0  0  0  0  0
    1.0717   -0.6187    0.0000 N   0  0  0  0  0  0  0  0  0  0  0  0
    2.5006   -0.6187    0.0000 C   0  0  0  0  0  0  0  0  0  0  0  0
    3.2151   -0.2062    0.0000 C   0  0  0  0  0  0  0  0  0  0  0  0
    1.7861    0.6187    0.0000 C   0  0  0  0  0  0  0  0  0  0  0  0
   -0.3572    1.0312    0.0000 C   0  0  0  0  0  0  0  0  0  0  0  0
   -0.3572    1.8562    0.0000 Cl  0  0  0  0  0  0  0  0  0  0  0  0
   -1.7861   -0.6187    0.0000 N   0  0  0  0  0  0  0  0  0  0  0  0
   -2.5006   -0.2062    0.0000 C   0  0  0  0  0  0  0  0  0  0  0  0
   -3.2151   -0.6187    0.0000 C   0  0  0  0  0  0  0  0  0  0  0  0
    1.7861   -0.2062    0.0000 C   0  0  2  0  0  0  0  0  0  0  0  0
    1.7861   -1.0312    0.0000 C   0  0  0  0  0  0  0  0  0  0  0  0
    1.7861   -1.8562    0.0000 N   0  0  0  0  0  0  0  0  0  0  0  0
    1.0717   -1.6032    0.0000 H   0  0  0  0  0  0  0  0  0  0  0  0
    2.5006   -1.6887    0.0000 H   0  0  0  0  0  0  0  0  0  0  0  0
    3.4272   -1.1537    0.0000 H   0  0  0  0  0  0  0  0  0  0  0  0
    4.1417   -0.7412    0.0000 H   0  0  0  0  0  0  0  0  0  0  0  0
    3.2151    0.8638    0.0000 H   0  0  0  0  0  0  0  0  0  0  0  0
    4.1418    0.3288    0.0000 H   0  0  0  0  0  0  0  0  0  0  0  0
    2.7127    1.1537    0.0000 H   0  0  0  0  0  0  0  0  0  0  0  0
    0.8595    1.1537    0.0000 H   0  0  0  0  0  0  0  0  0  0  0  0
    1.7861    1.6887    0.0000 H   0  0  0  0  0  0  0  0  0  0  0  0
   -1.7861   -1.6032    0.0000 H   0  0  0  0  0  0  0  0  0  0  0  0
   -2.5006    0.8638    0.0000 H   0  0  0  0  0  0  0  0  0  0  0  0
   -3.4272    0.3288    0.0000 H   0  0  0  0  0  0  0  0  0  0  0  0
   -4.1417   -0.0837    0.0000 H   0  0  0  0  0  0  0  0  0  0  0  0
   -3.2151   -1.6887    0.0000 H   0  0  0  0  0  0  0  0  0  0  0  0
   -4.1418   -1.1537    0.0000 H   0  0  0  0  0  0  0  0  0  0  0  0
  1  5  1  0  0  0  0
  1 10  2  0  0  0  0
  2 10  1  0  0  0  0
  3  4  1  0  0  0  0
  4  2  2  0  0  0  0
  4 12  1  0  0  0  0
  5  3  2  0  0  0  0
  5  6  1  0  0  0  0
  6 18  1  0  0  0  0
  7  8  1  0  0  0  0
  7 19  1  0  0  0  0
  7 20  1  0  0  0  0
  8 21  1  0  0  0  0
  8 22  1  0  0  0  0
  8 23  1  0  0  0  0
  9 24  1  0  0  0  0
  9 25  1  0  0  0  0
  9 26  1  0  0  0  0
 10 11  1  0  0  0  0
 12 13  1  0  0  0  0
 12 27  1  0  0  0  0
 13 14  1  0  0  0  0
 13 28  1  0  0  0  0
 13 29  1  0  0  0  0
 14 30  1  0  0  0  0
 14 31  1  0  0  0  0
 14 32  1  0  0  0  0
 15  6  1  0  0  0  0
 15  7  1  0  0  0  0
 15  9  1  0  0  0  0
 15 16  1  6  0  0  0
 16 17  3  0  0  0  0
M  END
>  <DRUGBANK_ID>
DB07551

>  <COMMON_NAME>
(2S)-2-{[4-chloro-6-(ethylamino)-1,3,5-triazin-2-yl]amino}-2-methylbutanenitrile

$$$$
