3UN
 OpenBabel10282417072D

 65 65  0  0  0  0  0  0  0  0999 V2000
   -1.2359   -3.0852    0.0000 N   0  0  0  0  0  0  0  0  0  0  0  0
   -0.6235    1.1577    0.0000 O   0  0  0  0  0  0  0  0  0  0  0  0
    0.1930    1.0398    0.0000 C   0  0  0  0  0  0  0  0  0  0  0  0
    0.7033    1.6881    0.0000 O   0  0  0  0  0  0  0  0  0  0  0  0
    0.3971    2.4541    0.0000 C   0  0  0  0  0  0  0  0  0  0  0  0
    0.9075    3.1023    0.0000 C   0  0  0  0  0  0  0  0  0  0  0  0
    0.4992    0.2738    0.0000 C   0  0  0  0  0  0  0  0  0  0  0  0
   -0.2669   -0.0324    0.0000 C   0  0  0  0  0  0  0  0  0  0  0  0
   -0.9151    0.4779    0.0000 C   0  0  0  0  0  0  0  0  0  0  0  0
   -1.6812    0.1717    0.0000 N   0  0  0  0  0  0  0  0  0  0  0  0
   -2.3294    0.6820    0.0000 C   0  0  0  0  0  0  0  0  0  0  0  0
   -2.2115    1.4986    0.0000 O   0  0  0  0  0  0  0  0  0  0  0  0
   -3.0954    0.3758    0.0000 O   0  0  0  0  0  0  0  0  0  0  0  0
   -3.7437    0.8862    0.0000 C   0  0  0  0  0  0  0  0  0  0  0  0
   -4.3919    1.3965    0.0000 C   0  0  0  0  0  0  0  0  0  0  0  0
   -4.2540    0.2380    0.0000 C   0  0  0  0  0  0  0  0  0  0  0  0
   -3.2333    1.5344    0.0000 C   0  0  0  0  0  0  0  0  0  0  0  0
    1.2653    0.5800    0.0000 C   0  0  0  0  0  0  0  0  0  0  0  0
    1.9135    0.0696    0.0000 O   0  0  0  0  0  0  0  0  0  0  0  0
    2.6796    0.3758    0.0000 C   0  0  0  0  0  0  0  0  0  0  0  0
    3.3278   -0.1345    0.0000 C   0  0  0  0  0  0  0  0  0  0  0  0
    1.3831    1.3965    0.0000 O   0  0  0  0  0  0  0  0  0  0  0  0
    0.8054   -0.4923    0.0000 C   0  0  0  0  0  0  0  0  0  0  0  0
    0.2951   -1.1405    0.0000 C   0  0  0  0  0  0  0  0  0  0  0  0
    0.6013   -1.9066    0.0000 C   0  0  0  0  0  0  0  0  0  0  0  0
    0.0909   -2.5548    0.0000 C   0  0  0  0  0  0  0  0  0  0  0  0
   -0.5215   -1.0227    0.0000 C   0  0  0  0  0  0  0  0  0  0  0  0
   -1.0318   -1.6709    0.0000 C   0  0  0  0  0  0  0  0  0  0  0  0
   -0.7256   -2.4369    0.0000 C   0  0  0  0  0  0  0  0  0  0  0  0
   -0.9297   -3.8512    0.0000 S   0  0  0  0  0  0  0  0  0  0  0  0
   -0.6235   -4.6173    0.0000 O   0  0  0  0  0  0  0  0  0  0  0  0
   -1.6958   -4.1574    0.0000 O   0  0  0  0  0  0  0  0  0  0  0  0
   -0.1637   -3.5450    0.0000 O   0  0  0  0  0  0  0  0  0  0  0  0
   -2.2103   -2.9446    0.0000 H   0  0  0  0  0  0  0  0  0  0  0  0
   -0.6619    2.6070    0.0000 H   0  0  0  0  0  0  0  0  0  0  0  0
    0.0000    3.4477    0.0000 H   0  0  0  0  0  0  0  0  0  0  0  0
    1.9665    2.9494    0.0000 H   0  0  0  0  0  0  0  0  0  0  0  0
    0.5104    4.0959    0.0000 H   0  0  0  0  0  0  0  0  0  0  0  0
    1.5695    3.9430    0.0000 H   0  0  0  0  0  0  0  0  0  0  0  0
   -0.4198   -1.0914    0.0000 H   0  0  0  0  0  0  0  0  0  0  0  0
   -1.2605   -0.4295    0.0000 H   0  0  0  0  0  0  0  0  0  0  0  0
   -0.7622    1.5369    0.0000 H   0  0  0  0  0  0  0  0  0  0  0  0
   -1.7558    1.1398    0.0000 H   0  0  0  0  0  0  0  0  0  0  0  0
   -1.8218   -0.8027    0.0000 H   0  0  0  0  0  0  0  0  0  0  0  0
   -4.2391    2.4555    0.0000 H   0  0  0  0  0  0  0  0  0  0  0  0
   -5.3855    0.9993    0.0000 H   0  0  0  0  0  0  0  0  0  0  0  0
   -5.2326    2.0584    0.0000 H   0  0  0  0  0  0  0  0  0  0  0  0
   -5.3130    0.3908    0.0000 H   0  0  0  0  0  0  0  0  0  0  0  0
   -3.8568   -0.7556    0.0000 H   0  0  0  0  0  0  0  0  0  0  0  0
   -4.9159   -0.6027    0.0000 H   0  0  0  0  0  0  0  0  0  0  0  0
   -2.1743    1.3815    0.0000 H   0  0  0  0  0  0  0  0  0  0  0  0
   -3.6304    2.5280    0.0000 H   0  0  0  0  0  0  0  0  0  0  0  0
   -2.5713    2.3751    0.0000 H   0  0  0  0  0  0  0  0  0  0  0  0
    2.8325    1.4348    0.0000 H   0  0  0  0  0  0  0  0  0  0  0  0
    3.6732    0.7729    0.0000 H   0  0  0  0  0  0  0  0  0  0  0  0
    3.1750   -1.1935    0.0000 H   0  0  0  0  0  0  0  0  0  0  0  0
    4.3214    0.2627    0.0000 H   0  0  0  0  0  0  0  0  0  0  0  0
    4.1685   -0.7964    0.0000 H   0  0  0  0  0  0  0  0  0  0  0  0
    1.8644   -0.6452    0.0000 H   0  0  0  0  0  0  0  0  0  0  0  0
    1.2025   -1.4859    0.0000 H   0  0  0  0  0  0  0  0  0  0  0  0
    1.6227   -2.0541    0.0000 H   0  0  0  0  0  0  0  0  0  0  0  0
    0.4739   -3.5131    0.0000 H   0  0  0  0  0  0  0  0  0  0  0  0
   -0.9046   -0.0644    0.0000 H   0  0  0  0  0  0  0  0  0  0  0  0
   -2.0532   -1.5235    0.0000 H   0  0  0  0  0  0  0  0  0  0  0  0
    0.5985   -4.1450    0.0000 H   0  0  0  0  0  0  0  0  0  0  0  0
  1 29  1  0  0  0  0
  1 30  1  0  0  0  0
  1 34  1  0  0  0  0
  2  3  2  0  0  0  0
  3  4  1  0  0  0  0
  3  7  1  0  0  0  0
  4  5  1  0  0  0  0
  5  6  1  0  0  0  0
  5 35  1  0  0  0  0
  5 36  1  0  0  0  0
  6 37  1  0  0  0  0
  6 38  1  0  0  0  0
  6 39  1  0  0  0  0
  7  8  1  0  0  0  0
  7 18  1  0  0  0  0
  7 23  1  0  0  0  0
  8  9  1  0  0  0  0
  8 40  1  0  0  0  0
  8 41  1  0  0  0  0
  9 10  1  0  0  0  0
  9 42  1  0  0  0  0
  9 43  1  0  0  0  0
 10 11  1  0  0  0  0
 10 44  1  0  0  0  0
 11 12  2  0  0  0  0
 11 13  1  0  0  0  0
 13 14  1  0  0  0  0
 14 15  1  0  0  0  0
 14 16  1  0  0  0  0
 14 17  1  0  0  0  0
 15 45  1  0  0  0  0
 15 46  1  0  0  0  0
 15 47  1  0  0  0  0
 16 48  1  0  0  0  0
 16 49  1  0  0  0  0
 16 50  1  0  0  0  0
 17 51  1  0  0  0  0
 17 52  1  0  0  0  0
 17 53  1  0  0  0  0
 18 19  1  0  0  0  0
 18 22  2  0  0  0  0
 19 20  1  0  0  0  0
 20 21  1  0  0  0  0
 20 54  1  0  0  0  0
 20 55  1  0  0  0  0
 21 56  1  0  0  0  0
 21 57  1  0  0  0  0
 21 58  1  0  0  0  0
 23 24  1  0  0  0  0
 23 59  1  0  0  0  0
 23 60  1  0  0  0  0
 24 25  2  0  0  0  0
 24 27  1  0  0  0  0
 25 26  1  0  0  0  0
 25 61  1  0  0  0  0
 26 29  2  0  0  0  0
 26 62  1  0  0  0  0
 27 28  2  0  0  0  0
 27 63  1  0  0  0  0
 28 29  1  0  0  0  0
 28 64  1  0  0  0  0
 30 31  2  0  0  0  0
 30 32  2  0  0  0  0
 30 33  1  0  0  0  0
 33 65  1  0  0  0  0
M  END
>  <DRUGBANK_ID>
DB07068

>  <COMMON_NAME>
(4-{4-[(TERT-BUTOXYCARBONYL)AMINO]-2,2-BIS(ETHOXYCARBONYL)BUTYL}PHENYL)SULFAMIC ACID

$$$$
