
 OpenBabel10282417072D

 54 57  0  0  0  0  0  0  0  0999 V2000
   -1.7663    1.0763    0.0000 F   0  0  0  0  0  0  0  0  0  0  0  0
    1.0916    1.0763    0.0000 F   0  0  0  0  0  0  0  0  0  0  0  0
   -0.7498   -2.6682    0.0000 O   0  0  0  0  0  0  0  0  0  0  0  0
    0.2245   -4.0894    0.0000 O   0  0  0  0  0  0  0  0  0  0  0  0
   -1.7894   -1.6286    0.0000 O   0  0  0  0  0  0  0  0  0  0  0  0
   -1.0518    4.7889    0.0000 O   0  0  0  0  0  0  0  0  0  0  0  0
    1.0916    4.3763    0.0000 O   0  0  0  0  0  0  0  0  0  0  0  0
    1.0916    6.0264    0.0000 O   0  0  0  0  0  0  0  0  0  0  0  0
    1.7894   -5.5414    0.0000 O   0  0  0  0  0  0  0  0  0  0  0  0
   -0.3373    3.5513    0.0000 N   0  0  0  0  0  0  0  0  0  0  0  0
   -0.3373   -1.3987    0.0000 N   0  0  0  0  0  0  0  0  0  0  0  0
    1.5344   -4.7568    0.0000 N   0  0  0  0  0  0  0  0  0  0  0  0
    0.3771    2.3138    0.0000 C   0  0  0  0  0  0  0  0  0  0  0  0
    0.3771    3.1388    0.0000 C   0  0  0  0  0  0  0  0  0  0  0  0
   -0.3373    1.9013    0.0000 C   0  0  0  0  0  0  0  0  0  0  0  0
    0.0752   -2.6682    0.0000 C   0  0  2  0  0  0  0  0  0  0  0  0
    0.3301   -1.8836    0.0000 C   0  0  0  0  0  0  0  0  0  0  0  0
   -1.0518    3.1388    0.0000 C   0  0  0  0  0  0  0  0  0  0  0  0
   -0.3373    1.0763    0.0000 C   0  0  0  0  0  0  0  0  0  0  0  0
   -1.0518    2.3138    0.0000 C   0  0  0  0  0  0  0  0  0  0  0  0
   -0.3373   -0.5737    0.0000 C   0  0  0  0  0  0  0  0  0  0  0  0
    0.5601   -3.3357    0.0000 C   0  0  0  0  0  0  0  0  0  0  0  0
   -1.0047   -1.8836    0.0000 C   0  0  0  0  0  0  0  0  0  0  0  0
   -0.3373    4.3763    0.0000 C   0  0  0  0  0  0  0  0  0  0  0  0
   -1.0518    0.6638    0.0000 C   0  0  0  0  0  0  0  0  0  0  0  0
    0.3771    0.6638    0.0000 C   0  0  0  0  0  0  0  0  0  0  0  0
   -1.0518   -0.1612    0.0000 C   0  0  0  0  0  0  0  0  0  0  0  0
    0.3771   -0.1612    0.0000 C   0  0  0  0  0  0  0  0  0  0  0  0
    0.3771    4.7889    0.0000 C   0  0  2  0  0  0  0  0  0  0  0  0
    0.3771    5.6139    0.0000 C   0  0  0  0  0  0  0  0  0  0  0  0
    0.7094   -4.7568    0.0000 C   0  0  0  0  0  0  0  0  0  0  0  0
    0.4545   -5.5414    0.0000 C   0  0  0  0  0  0  0  0  0  0  0  0
    1.1219   -6.0264    0.0000 C   0  0  0  0  0  0  0  0  0  0  0  0
    1.0915    3.4063    0.0000 H   0  0  0  0  0  0  0  0  0  0  0  0
    1.9316    5.5414    0.0000 H   0  0  0  0  0  0  0  0  0  0  0  0
    1.3038    1.7788    0.0000 H   0  0  0  0  0  0  0  0  0  0  0  0
    0.3771    1.2438    0.0000 H   0  0  0  0  0  0  0  0  0  0  0  0
    1.3038    3.6738    0.0000 H   0  0  0  0  0  0  0  0  0  0  0  0
    1.3037    2.6038    0.0000 H   0  0  0  0  0  0  0  0  0  0  0  0
   -0.4106   -3.6216    0.0000 H   0  0  0  0  0  0  0  0  0  0  0  0
    1.3477   -1.5529    0.0000 H   0  0  0  0  0  0  0  0  0  0  0  0
    1.0867   -2.6402    0.0000 H   0  0  0  0  0  0  0  0  0  0  0  0
   -1.9784    3.6738    0.0000 H   0  0  0  0  0  0  0  0  0  0  0  0
   -1.9784    2.6038    0.0000 H   0  0  0  0  0  0  0  0  0  0  0  0
   -1.9455    1.7978    0.0000 H   0  0  0  0  0  0  0  0  0  0  0  0
    1.6242   -3.2239    0.0000 H   0  0  0  0  0  0  0  0  0  0  0  0
    0.9954   -2.3582    0.0000 H   0  0  0  0  0  0  0  0  0  0  0  0
   -1.9455   -0.6772    0.0000 H   0  0  0  0  0  0  0  0  0  0  0  0
    1.2708   -0.6772    0.0000 H   0  0  0  0  0  0  0  0  0  0  0  0
    0.3771    3.7189    0.0000 H   0  0  0  0  0  0  0  0  0  0  0  0
   -0.5495    6.1489    0.0000 H   0  0  0  0  0  0  0  0  0  0  0  0
   -0.5495    5.0789    0.0000 H   0  0  0  0  0  0  0  0  0  0  0  0
   -0.5270   -5.8603    0.0000 H   0  0  0  0  0  0  0  0  0  0  0  0
    1.1219   -7.0584    0.0000 H   0  0  0  0  0  0  0  0  0  0  0  0
  1 25  1  0  0  0  0
  2 26  1  0  0  0  0
  3 16  1  0  0  0  0
  3 23  1  0  0  0  0
  4 22  1  0  0  0  0
  4 31  1  0  0  0  0
  5 23  2  0  0  0  0
  6 24  2  0  0  0  0
  7 34  1  0  0  0  0
  8 30  1  0  0  0  0
  8 35  1  0  0  0  0
  9 12  1  0  0  0  0
  9 33  1  0  0  0  0
 10 14  1  0  0  0  0
 10 18  1  0  0  0  0
 10 24  1  0  0  0  0
 11 17  1  0  0  0  0
 11 21  1  0  0  0  0
 11 23  1  0  0  0  0
 12 31  2  0  0  0  0
 13 14  1  0  0  0  0
 13 15  1  0  0  0  0
 13 36  1  0  0  0  0
 13 37  1  0  0  0  0
 14 38  1  0  0  0  0
 14 39  1  0  0  0  0
 15 19  1  0  0  0  0
 15 20  2  0  0  0  0
 16 17  1  0  0  0  0
 16 22  1  0  0  0  0
 16 40  1  1  0  0  0
 17 41  1  0  0  0  0
 17 42  1  0  0  0  0
 18 20  1  0  0  0  0
 18 43  1  0  0  0  0
 18 44  1  0  0  0  0
 19 25  2  0  0  0  0
 19 26  1  0  0  0  0
 20 45  1  0  0  0  0
 21 27  2  0  0  0  0
 21 28  1  0  0  0  0
 22 46  1  0  0  0  0
 22 47  1  0  0  0  0
 24 29  1  0  0  0  0
 25 27  1  0  0  0  0
 26 28  2  0  0  0  0
 27 48  1  0  0  0  0
 28 49  1  0  0  0  0
 29  7  1  0  0  0  0
 29 30  1  0  0  0  0
 29 50  1  1  0  0  0
 30 51  1  0  0  0  0
 30 52  1  0  0  0  0
 31 32  1  0  0  0  0
 32 33  2  0  0  0  0
 32 53  1  0  0  0  0
 33 54  1  0  0  0  0
M  END
>  <DRUGBANK_ID>
DB04850

>  <SECONDARY_ACCESSION_NUMBERS>
DB09032

>  <COMMON_NAME>
Posizolid

>  <CAS_NUMBER>
252260-06-3

>  <UNII>
82V2M8K24R

>  <SYNONYMS>
Posizolid

$$$$
