1326
 OpenBabel10282417072D

 49 52  0  0  1  0  0  0  0  0999 V2000
    5.8136   -0.8460    0.0000 S   0  0  0  0  0  0  0  0  0  0  0  0
    3.6702    0.3915    0.0000 S   0  0  0  0  0  0  0  0  0  0  0  0
    7.9421    0.9795    0.0000 O   0  0  0  0  0  0  0  0  0  0  0  0
    5.0992    2.0416    0.0000 O   0  0  0  0  0  0  0  0  0  0  0  0
    8.9546   -0.0131    0.0000 O   0  0  0  0  0  0  0  0  0  0  0  0
    6.5281    2.0416    0.0000 O   0  0  0  0  0  0  0  0  0  0  0  0
    9.1064   -2.1906    0.0000 O   0  0  0  0  0  0  0  0  0  0  0  0
    6.5281    0.3915    0.0000 N   0  0  0  0  0  0  0  0  0  0  0  0
    7.9421   -1.0214    0.0000 N   0  0  0  0  0  0  0  0  0  0  0  0
    2.2020    0.4684    0.0000 N   0  0  0  0  0  0  0  0  0  0  0  0
    2.8694    1.6245    0.0000 N   0  0  0  0  0  0  0  0  0  0  0  0
    1.6500    1.0816    0.0000 N   0  0  0  0  0  0  0  0  0  0  0  0
    2.0625    1.7960    0.0000 N   0  0  0  0  0  0  0  0  0  0  0  0
    6.5281   -0.4335    0.0000 C   0  0  1  0  0  0  0  0  0  0  0  0
    7.3599   -0.4369    0.0000 C   0  0  1  0  0  0  0  0  0  0  0  0
    7.3599    0.3949    0.0000 C   0  0  0  0  0  0  0  0  0  0  0  0
    5.8136    0.8040    0.0000 C   0  0  0  0  0  0  0  0  0  0  0  0
    5.0992    0.3915    0.0000 C   0  0  0  0  0  0  0  0  0  0  0  0
    5.0992   -0.4335    0.0000 C   0  0  0  0  0  0  0  0  0  0  0  0
    4.3846    0.8040    0.0000 C   0  0  0  0  0  0  0  0  0  0  0  0
    8.7394   -0.8096    0.0000 C   0  0  0  0  0  0  0  0  0  0  0  0
    5.8136    1.6291    0.0000 C   0  0  0  0  0  0  0  0  0  0  0  0
    9.3215   -1.3942    0.0000 C   0  0  1  0  0  0  0  0  0  0  0  0
   10.1189   -1.1822    0.0000 C   0  0  0  0  0  0  0  0  0  0  0  0
    2.9557    0.8040    0.0000 C   0  0  0  0  0  0  0  0  0  0  0  0
   10.3341   -0.3858    0.0000 C   0  0  0  0  0  0  0  0  0  0  0  0
   10.7011   -1.7668    0.0000 C   0  0  0  0  0  0  0  0  0  0  0  0
   11.1314   -0.1739    0.0000 C   0  0  0  0  0  0  0  0  0  0  0  0
   11.4984   -1.5550    0.0000 C   0  0  0  0  0  0  0  0  0  0  0  0
   11.7136   -0.7585    0.0000 C   0  0  0  0  0  0  0  0  0  0  0  0
    2.0305   -0.3385    0.0000 C   0  0  0  0  0  0  0  0  0  0  0  0
    6.6976   -1.0713    0.0000 H   0  0  0  0  0  0  0  0  0  0  0  0
    5.0992    2.9786    0.0000 H   0  0  0  0  0  0  0  0  0  0  0  0
    8.1690   -2.4398    0.0000 H   0  0  0  0  0  0  0  0  0  0  0  0
    7.6853   -1.9718    0.0000 H   0  0  0  0  0  0  0  0  0  0  0  0
    6.9474   -1.4242    0.0000 H   0  0  0  0  0  0  0  0  0  0  0  0
    4.1725   -0.9685    0.0000 H   0  0  0  0  0  0  0  0  0  0  0  0
    4.1726    0.1015    0.0000 H   0  0  0  0  0  0  0  0  0  0  0  0
    4.3845    1.8740    0.0000 H   0  0  0  0  0  0  0  0  0  0  0  0
    5.3112    1.3391    0.0000 H   0  0  0  0  0  0  0  0  0  0  0  0
    8.2874   -1.6690    0.0000 H   0  0  0  0  0  0  0  0  0  0  0  0
    9.6059    0.3454    0.0000 H   0  0  0  0  0  0  0  0  0  0  0  0
   10.4319   -2.7631    0.0000 H   0  0  0  0  0  0  0  0  0  0  0  0
   11.4005    0.8224    0.0000 H   0  0  0  0  0  0  0  0  0  0  0  0
   12.2266   -2.2863    0.0000 H   0  0  0  0  0  0  0  0  0  0  0  0
   12.7110   -0.4935    0.0000 H   0  0  0  0  0  0  0  0  0  0  0  0
    1.0129   -0.6692    0.0000 H   0  0  0  0  0  0  0  0  0  0  0  0
    2.8257   -1.0545    0.0000 H   0  0  0  0  0  0  0  0  0  0  0  0
    1.8080   -1.3851    0.0000 H   0  0  0  0  0  0  0  0  0  0  0  0
  1 14  1  0  0  0  0
  1 19  1  0  0  0  0
  2 20  1  0  0  0  0
  2 25  1  0  0  0  0
  3 16  2  0  0  0  0
  4 22  1  0  0  0  0
  4 33  1  0  0  0  0
  5 21  2  0  0  0  0
  6 22  2  0  0  0  0
  7 34  1  0  0  0  0
  8 14  1  0  0  0  0
  8 16  1  0  0  0  0
  8 17  1  0  0  0  0
  9 21  1  0  0  0  0
  9 35  1  0  0  0  0
 10 12  1  0  0  0  0
 10 25  1  0  0  0  0
 10 31  1  0  0  0  0
 11 13  1  0  0  0  0
 11 25  2  0  0  0  0
 12 13  2  0  0  0  0
 14 15  1  0  0  0  0
 14 32  1  6  0  0  0
 15  9  1  0  0  0  0
 15 16  1  0  0  0  0
 15 36  1  6  0  0  0
 17 18  2  0  0  0  0
 17 22  1  0  0  0  0
 18 19  1  0  0  0  0
 18 20  1  0  0  0  0
 19 37  1  0  0  0  0
 19 38  1  0  0  0  0
 20 39  1  0  0  0  0
 20 40  1  0  0  0  0
 21 23  1  0  0  0  0
 23  7  1  0  0  0  0
 23 24  1  0  0  0  0
 23 41  1  6  0  0  0
 24 26  2  0  0  0  0
 24 27  1  0  0  0  0
 26 28  1  0  0  0  0
 26 42  1  0  0  0  0
 27 29  2  0  0  0  0
 27 43  1  0  0  0  0
 28 30  2  0  0  0  0
 28 44  1  0  0  0  0
 29 30  1  0  0  0  0
 29 45  1  0  0  0  0
 30 46  1  0  0  0  0
 31 47  1  0  0  0  0
 31 48  1  0  0  0  0
 31 49  1  0  0  0  0
M  END
>  <DRUGBANK_ID>
DB01326

>  <COMMON_NAME>
Cefamandole

>  <CAS_NUMBER>
34444-01-4

>  <UNII>
5CKP8C2LLI

>  <SYNONYMS>
(6R,7R)-7-(R)-Mandelamido-3-(((1-methyl-1H-tetrazol-5-yl)thio)methyl)-8-oxo-5-thia-1-azabicyclo(4.2.0)oct-2-ene-carboxylic acid; (6R,7R)-7-{[(2R)-2-hydroxy-2-phenylacetyl]amino}-3-{[(1-methyl-1H-tetrazol-5-yl)sulfanyl]methyl}-8-oxo-5-thia-1-azabicyclo[4.2.0]oct-2-ene-2-carboxylic acid; Cefadole; Cefamandol; CÃ©famandole; Cefamandole; Cefamandolum; Cephadole; Cephamandole; L-Cefamandole

$$$$
