257
 OpenBabel10282417072D

 42 45  0  0  0  0  0  0  0  0999 V2000
    2.6961   -1.4598    0.0000 Cl  0  0  0  0  0  0  0  0  0  0  0  0
    4.1251    1.0153    0.0000 N   0  0  0  0  0  0  0  0  0  0  0  0
    4.5376    2.2848    0.0000 N   0  0  0  0  0  0  0  0  0  0  0  0
    4.1251    0.1902    0.0000 C   0  0  0  0  0  0  0  0  0  0  0  0
    4.1251   -0.6348    0.0000 C   0  0  0  0  0  0  0  0  0  0  0  0
    3.3001    0.1902    0.0000 C   0  0  0  0  0  0  0  0  0  0  0  0
    4.9501    0.1902    0.0000 C   0  0  0  0  0  0  0  0  0  0  0  0
    3.4106   -1.0473    0.0000 C   0  0  0  0  0  0  0  0  0  0  0  0
    4.8396   -1.0473    0.0000 C   0  0  0  0  0  0  0  0  0  0  0  0
    2.8876    0.9047    0.0000 C   0  0  0  0  0  0  0  0  0  0  0  0
    5.3626    0.9047    0.0000 C   0  0  0  0  0  0  0  0  0  0  0  0
    2.8876   -0.5242    0.0000 C   0  0  0  0  0  0  0  0  0  0  0  0
    5.3626   -0.5242    0.0000 C   0  0  0  0  0  0  0  0  0  0  0  0
    3.4577    1.5002    0.0000 C   0  0  0  0  0  0  0  0  0  0  0  0
    4.7925    1.5002    0.0000 C   0  0  0  0  0  0  0  0  0  0  0  0
    3.7126    2.2848    0.0000 C   0  0  0  0  0  0  0  0  0  0  0  0
    3.4106   -1.8723    0.0000 C   0  0  0  0  0  0  0  0  0  0  0  0
    4.8396   -1.8723    0.0000 C   0  0  0  0  0  0  0  0  0  0  0  0
    2.0625    0.9047    0.0000 C   0  0  0  0  0  0  0  0  0  0  0  0
    6.1876    0.9047    0.0000 C   0  0  0  0  0  0  0  0  0  0  0  0
    2.0625   -0.5242    0.0000 C   0  0  0  0  0  0  0  0  0  0  0  0
    6.1876   -0.5242    0.0000 C   0  0  0  0  0  0  0  0  0  0  0  0
    4.1251   -2.2848    0.0000 C   0  0  0  0  0  0  0  0  0  0  0  0
    1.6500    0.1902    0.0000 C   0  0  0  0  0  0  0  0  0  0  0  0
    6.6001    0.1902    0.0000 C   0  0  0  0  0  0  0  0  0  0  0  0
    5.7333   -0.5313    0.0000 H   0  0  0  0  0  0  0  0  0  0  0  0
    3.4036    1.7984    0.0000 H   0  0  0  0  0  0  0  0  0  0  0  0
    4.8466    1.7984    0.0000 H   0  0  0  0  0  0  0  0  0  0  0  0
    3.4036   -1.4179    0.0000 H   0  0  0  0  0  0  0  0  0  0  0  0
    4.8466   -1.4179    0.0000 H   0  0  0  0  0  0  0  0  0  0  0  0
    2.4762    1.1813    0.0000 H   0  0  0  0  0  0  0  0  0  0  0  0
    5.7740    1.1813    0.0000 H   0  0  0  0  0  0  0  0  0  0  0  0
    3.1060    3.1197    0.0000 H   0  0  0  0  0  0  0  0  0  0  0  0
    2.5169   -2.3883    0.0000 H   0  0  0  0  0  0  0  0  0  0  0  0
    5.7333   -2.3883    0.0000 H   0  0  0  0  0  0  0  0  0  0  0  0
    1.5465    1.7984    0.0000 H   0  0  0  0  0  0  0  0  0  0  0  0
    6.7036    1.7984    0.0000 H   0  0  0  0  0  0  0  0  0  0  0  0
    1.5465   -1.4179    0.0000 H   0  0  0  0  0  0  0  0  0  0  0  0
    6.7036   -1.4179    0.0000 H   0  0  0  0  0  0  0  0  0  0  0  0
    4.1251   -3.3168    0.0000 H   0  0  0  0  0  0  0  0  0  0  0  0
    0.6180    0.1902    0.0000 H   0  0  0  0  0  0  0  0  0  0  0  0
    7.6321    0.1902    0.0000 H   0  0  0  0  0  0  0  0  0  0  0  0
  1  8  1  0  0  0  0
  2  4  1  0  0  0  0
  2 14  1  0  0  0  0
  2 15  1  0  0  0  0
  3 15  2  0  0  0  0
  3 16  1  0  0  0  0
  4  5  1  0  0  0  0
  4  6  1  0  0  0  0
  4  7  1  0  0  0  0
  5  8  1  0  0  0  0
  5  9  2  0  0  0  0
  6 10  2  0  0  0  0
  6 12  1  0  0  0  0
  7 11  2  0  0  0  0
  7 13  1  0  0  0  0
  8 17  2  0  0  0  0
  9 18  1  0  0  0  0
  9 26  1  0  0  0  0
 10 19  1  0  0  0  0
 10 27  1  0  0  0  0
 11 20  1  0  0  0  0
 11 28  1  0  0  0  0
 12 21  2  0  0  0  0
 12 29  1  0  0  0  0
 13 22  2  0  0  0  0
 13 30  1  0  0  0  0
 14 16  2  0  0  0  0
 14 31  1  0  0  0  0
 15 32  1  0  0  0  0
 16 33  1  0  0  0  0
 17 23  1  0  0  0  0
 17 34  1  0  0  0  0
 18 23  2  0  0  0  0
 18 35  1  0  0  0  0
 19 24  2  0  0  0  0
 19 36  1  0  0  0  0
 20 25  2  0  0  0  0
 20 37  1  0  0  0  0
 21 24  1  0  0  0  0
 21 38  1  0  0  0  0
 22 25  1  0  0  0  0
 22 39  1  0  0  0  0
 23 40  1  0  0  0  0
 24 41  1  0  0  0  0
 25 42  1  0  0  0  0
M  END
>  <DRUGBANK_ID>
DB00257

>  <SECONDARY_ACCESSION_NUMBERS>
APRD00244

>  <COMMON_NAME>
Clotrimazole

>  <CAS_NUMBER>
23593-75-1

>  <UNII>
G07GZ97H65

>  <SYNONYMS>
1-((2-Chlorophenyl)diphenylmethyl)-1H-imidazole; 1-(o-Chloro-α,α-diphenylbenzyl)imidazole; 1-(o-Chlorotrityl)imidazole; 1-(α-(2-Chlorophenyl)benzhydryl)imidazole; Clotrimazol; Clotrimazole; Clotrimazolum

$$$$
