
 OpenBabel10282417072D

 29 29  0  0  0  0  0  0  0  0999 V2000
   -0.3561    0.4141    0.0000 C   0  0  0  0  0  0  0  0  0  0  0  0
   -1.0683   -0.0023    0.0000 C   0  0  0  0  0  0  0  0  0  0  0  0
   -0.3610    1.2426    0.0000 O   0  0  0  0  0  0  0  0  0  0  0  0
   -1.0683   -0.8308    0.0000 C   0  0  0  0  0  0  0  0  0  0  0  0
   -1.7805    0.4141    0.0000 C   0  0  0  0  0  0  0  0  0  0  0  0
   -2.4927   -0.8308    0.0000 C   0  0  0  0  0  0  0  0  0  0  0  0
    0.3559    0.0072    0.0000 O   0  0  0  0  0  0  0  0  0  0  0  0
   -3.2049   -1.2426    0.0000 N   0  0  0  0  0  0  0  0  0  0  0  0
   -1.7805   -1.2426    0.0000 C   0  0  0  0  0  0  0  0  0  0  0  0
   -2.4927   -0.0023    0.0000 C   0  0  0  0  0  0  0  0  0  0  0  0
    1.0682    0.4190    0.0000 C   0  0  0  0  0  0  0  0  0  0  0  0
    1.7804    0.0072    0.0000 C   0  0  0  0  0  0  0  0  0  0  0  0
    2.4926    0.4287    0.0000 C   0  0  0  0  0  0  0  0  0  0  0  0
    3.2049    0.0121    0.0000 C   0  0  0  0  0  0  0  0  0  0  0  0
   -0.1744   -1.3465    0.0000 H   0  0  0  0  0  0  0  0  0  0  0  0
   -1.7805    1.4461    0.0000 H   0  0  0  0  0  0  0  0  0  0  0  0
   -4.0578   -0.7509    0.0000 H   0  0  0  0  0  0  0  0  0  0  0  0
   -3.2043   -2.2271    0.0000 H   0  0  0  0  0  0  0  0  0  0  0  0
   -1.7805   -2.2746    0.0000 H   0  0  0  0  0  0  0  0  0  0  0  0
   -3.3878    0.5113    0.0000 H   0  0  0  0  0  0  0  0  0  0  0  0
    1.0682    1.4890    0.0000 H   0  0  0  0  0  0  0  0  0  0  0  0
    1.9950    0.9537    0.0000 H   0  0  0  0  0  0  0  0  0  0  0  0
    1.7858   -1.0628    0.0000 H   0  0  0  0  0  0  0  0  0  0  0  0
    2.7113   -0.5204    0.0000 H   0  0  0  0  0  0  0  0  0  0  0  0
    2.4898    1.4987    0.0000 H   0  0  0  0  0  0  0  0  0  0  0  0
    3.4201    0.9623    0.0000 H   0  0  0  0  0  0  0  0  0  0  0  0
    3.1989   -1.0579    0.0000 H   0  0  0  0  0  0  0  0  0  0  0  0
    4.1345    0.5419    0.0000 H   0  0  0  0  0  0  0  0  0  0  0  0
    4.1285   -0.5281    0.0000 H   0  0  0  0  0  0  0  0  0  0  0  0
  2  1  1  0  0  0  0
  3  1  2  0  0  0  0
  4  2  1  0  0  0  0
  4 15  1  0  0  0  0
  5  2  2  0  0  0  0
  5 16  1  0  0  0  0
  6 10  2  0  0  0  0
  7  1  1  0  0  0  0
  8  6  1  0  0  0  0
  8 17  1  0  0  0  0
  8 18  1  0  0  0  0
  9  4  2  0  0  0  0
  9  6  1  0  0  0  0
  9 19  1  0  0  0  0
 10  5  1  0  0  0  0
 10 20  1  0  0  0  0
 11  7  1  0  0  0  0
 11 21  1  0  0  0  0
 11 22  1  0  0  0  0
 12 11  1  0  0  0  0
 12 23  1  0  0  0  0
 12 24  1  0  0  0  0
 13 12  1  0  0  0  0
 13 25  1  0  0  0  0
 13 26  1  0  0  0  0
 14 13  1  0  0  0  0
 14 27  1  0  0  0  0
 14 28  1  0  0  0  0
 14 29  1  0  0  0  0
M  END
>  <DRUGBANK_ID>
DB11148

>  <COMMON_NAME>
Butamben

>  <CAS_NUMBER>
94-25-7

>  <UNII>
EFW857872Q

>  <SYNONYMS>
Butamben; Butyl aminobenzoate

$$$$
