7AC
 OpenBabel10282417072D

 34 36  0  0  0  0  0  0  0  0999 V2000
   -0.9545    1.5470    0.0000 C   0  0  0  0  0  0  0  0  0  0  0  0
   -0.2400    1.9595    0.0000 C   0  0  0  0  0  0  0  0  0  0  0  0
    0.4745    1.5470    0.0000 C   0  0  0  0  0  0  0  0  0  0  0  0
    1.1889    1.9595    0.0000 C   0  0  0  0  0  0  0  0  0  0  0  0
    0.4745    0.7220    0.0000 C   0  0  0  0  0  0  0  0  0  0  0  0
    1.9034   -0.9280    0.0000 C   0  0  0  0  0  0  0  0  0  0  0  0
    2.6179    0.3095    0.0000 C   0  0  0  0  0  0  0  0  0  0  0  0
   -0.9545    0.7220    0.0000 C   0  0  0  0  0  0  0  0  0  0  0  0
   -1.9940   -0.3176    0.0000 C   0  0  0  0  0  0  0  0  0  0  0  0
   -1.7391    0.4670    0.0000 N   0  0  0  0  0  0  0  0  0  0  0  0
   -2.2240    1.1345    0.0000 C   0  0  0  0  0  0  0  0  0  0  0  0
   -1.7391    1.8019    0.0000 N   0  0  0  0  0  0  0  0  0  0  0  0
    1.9034    2.3720    0.0000 N   0  0  0  0  0  0  0  0  0  0  0  0
    1.1889    0.3095    0.0000 C   0  0  0  0  0  0  0  0  0  0  0  0
    1.1889   -0.5155    0.0000 C   0  0  0  0  0  0  0  0  0  0  0  0
    2.6179   -0.5155    0.0000 C   0  0  0  0  0  0  0  0  0  0  0  0
    1.9034    0.7220    0.0000 C   0  0  0  0  0  0  0  0  0  0  0  0
    1.9034    1.5470    0.0000 Cl  0  0  0  0  0  0  0  0  0  0  0  0
   -0.2400    0.3095    0.0000 C   0  0  0  0  0  0  0  0  0  0  0  0
   -0.2400   -0.5155    0.0000 C   0  0  0  0  0  0  0  0  0  0  0  0
   -0.9545   -0.9280    0.0000 N   0  0  0  0  0  0  0  0  0  0  0  0
   -0.2400    2.9915    0.0000 H   0  0  0  0  0  0  0  0  0  0  0  0
    1.9034   -1.9600    0.0000 H   0  0  0  0  0  0  0  0  0  0  0  0
    3.5116    0.8255    0.0000 H   0  0  0  0  0  0  0  0  0  0  0  0
   -3.0406   -0.5401    0.0000 H   0  0  0  0  0  0  0  0  0  0  0  0
   -1.2780   -1.1127    0.0000 H   0  0  0  0  0  0  0  0  0  0  0  0
   -2.3246   -1.3352    0.0000 H   0  0  0  0  0  0  0  0  0  0  0  0
   -3.2560    1.1345    0.0000 H   0  0  0  0  0  0  0  0  0  0  0  0
    0.2952   -1.0315    0.0000 H   0  0  0  0  0  0  0  0  0  0  0  0
    3.5116   -1.0315    0.0000 H   0  0  0  0  0  0  0  0  0  0  0  0
    0.6866   -1.0505    0.0000 H   0  0  0  0  0  0  0  0  0  0  0  0
   -0.2400   -1.5855    0.0000 H   0  0  0  0  0  0  0  0  0  0  0  0
   -1.8378   -0.4180    0.0000 H   0  0  0  0  0  0  0  0  0  0  0  0
   -0.9545   -1.9480    0.0000 H   0  0  0  0  0  0  0  0  0  0  0  0
  1  2  2  0  0  0  0
  1  8  1  0  0  0  0
  1 12  1  0  0  0  0
  2  3  1  0  0  0  0
  2 22  1  0  0  0  0
  3  4  1  0  0  0  0
  3  5  2  0  0  0  0
  4 13  3  0  0  0  0
  5 14  1  0  0  0  0
  5 19  1  0  0  0  0
  6 15  2  0  0  0  0
  6 16  1  0  0  0  0
  6 23  1  0  0  0  0
  7 16  2  0  0  0  0
  7 17  1  0  0  0  0
  7 24  1  0  0  0  0
  8 10  1  0  0  0  0
  8 19  2  0  0  0  0
  9 10  1  0  0  0  0
  9 25  1  0  0  0  0
  9 26  1  0  0  0  0
  9 27  1  0  0  0  0
 10 11  1  0  0  0  0
 11 12  2  0  0  0  0
 11 28  1  0  0  0  0
 14 15  1  0  0  0  0
 14 17  2  0  0  0  0
 15 29  1  0  0  0  0
 16 30  1  0  0  0  0
 17 18  1  0  0  0  0
 19 20  1  0  0  0  0
 20 21  1  0  0  0  0
 20 31  1  0  0  0  0
 20 32  1  0  0  0  0
 21 33  1  0  0  0  0
 21 34  1  0  0  0  0
M  END
>  <DRUGBANK_ID>
DB07239

>  <COMMON_NAME>
7-(aminomethyl)-6-(2-chlorophenyl)-1-methyl-1H-benzimidazole-5-carbonitrile

$$$$
