
 OpenBabel10282417072D

 21 21  0  0  0  0  0  0  0  0999 V2000
   -0.3571    0.2062    0.0000 O   0  0  0  0  0  0  0  0  0  0  0  0
    1.7862    1.4437    0.0000 O   0  0  0  0  0  0  0  0  0  0  0  0
    0.3572    1.4437    0.0000 O   0  0  0  0  0  0  0  0  0  0  0  0
   -1.0716   -1.0312    0.0000 O   0  0  0  0  0  0  0  0  0  0  0  0
    0.3572   -0.2062    0.0000 C   0  0  0  0  0  0  0  0  0  0  0  0
    1.0717    0.2062    0.0000 C   0  0  0  0  0  0  0  0  0  0  0  0
    0.3572   -1.0312    0.0000 C   0  0  0  0  0  0  0  0  0  0  0  0
    1.7862   -0.2062    0.0000 C   0  0  0  0  0  0  0  0  0  0  0  0
    1.0717   -1.4437    0.0000 C   0  0  0  0  0  0  0  0  0  0  0  0
    1.7862   -1.0312    0.0000 C   0  0  0  0  0  0  0  0  0  0  0  0
    1.0717    1.0312    0.0000 C   0  0  0  0  0  0  0  0  0  0  0  0
   -1.0716   -0.2062    0.0000 C   0  0  0  0  0  0  0  0  0  0  0  0
   -1.7862    0.2062    0.0000 C   0  0  0  0  0  0  0  0  0  0  0  0
    2.5977    0.9752    0.0000 H   0  0  0  0  0  0  0  0  0  0  0  0
   -0.5365   -1.5472    0.0000 H   0  0  0  0  0  0  0  0  0  0  0  0
    2.6799    0.3099    0.0000 H   0  0  0  0  0  0  0  0  0  0  0  0
    1.0717   -2.4757    0.0000 H   0  0  0  0  0  0  0  0  0  0  0  0
    2.6799   -1.5472    0.0000 H   0  0  0  0  0  0  0  0  0  0  0  0
   -1.7864    1.2762    0.0000 H   0  0  0  0  0  0  0  0  0  0  0  0
   -2.7127   -0.3290    0.0000 H   0  0  0  0  0  0  0  0  0  0  0  0
   -2.7129    0.7410    0.0000 H   0  0  0  0  0  0  0  0  0  0  0  0
  1  5  1  0  0  0  0
  1 12  1  0  0  0  0
  2 11  1  0  0  0  0
  2 14  1  0  0  0  0
  3 11  2  0  0  0  0
  4 12  2  0  0  0  0
  5  6  1  0  0  0  0
  5  7  2  0  0  0  0
  6  8  2  0  0  0  0
  6 11  1  0  0  0  0
  7  9  1  0  0  0  0
  7 15  1  0  0  0  0
  8 10  1  0  0  0  0
  8 16  1  0  0  0  0
  9 10  2  0  0  0  0
  9 17  1  0  0  0  0
 10 18  1  0  0  0  0
 12 13  1  0  0  0  0
 13 19  1  0  0  0  0
 13 20  1  0  0  0  0
 13 21  1  0  0  0  0
M  END
>  <DRUGBANK_ID>
DB00945

>  <SECONDARY_ACCESSION_NUMBERS>
APRD00264; EXPT00475

>  <COMMON_NAME>
Acetylsalicylic acid

>  <CAS_NUMBER>
50-78-2

>  <UNII>
R16CO5Y76E

>  <SYNONYMS>
2-Acetoxybenzenecarboxylic acid; 2-Acetoxybenzoic acid; Acetylsalicylate; Acetylsalicylsäure; acide 2-(acétyloxy)benzoïque; Acide acétylsalicylique; ácido acetilsalicílico; Acidum acetylsalicylicum; ASA; Aspirin; Aspirina; Azetylsalizylsäure; o-acetoxybenzoic acid; O-acetylsalicylic acid; o-carboxyphenyl acetate; Polopiryna; Salicylic acid acetate

$$$$
