ID5
 OpenBabel10282417072D

 38 40  0  0  0  0  0  0  0  0999 V2000
   -2.3222   -1.3904    0.0000 C   0  0  0  0  0  0  0  0  0  0  0  0
   -0.6722   -1.3904    0.0000 C   0  0  0  0  0  0  0  0  0  0  0  0
   -1.9097   -0.6760    0.0000 C   0  0  0  0  0  0  0  0  0  0  0  0
   -1.9097   -2.1049    0.0000 C   0  0  0  0  0  0  0  0  0  0  0  0
   -1.0847   -2.1049    0.0000 C   0  0  0  0  0  0  0  0  0  0  0  0
   -1.0847   -0.6760    0.0000 C   0  0  0  0  0  0  0  0  0  0  0  0
    4.8033    1.5780    0.0000 F   0  0  0  0  0  0  0  0  0  0  0  0
   -2.3222   -2.8194    0.0000 F   0  0  0  0  0  0  0  0  0  0  0  0
   -0.6722    0.0385    0.0000 C   0  0  0  0  0  0  0  0  0  0  0  0
    1.3903    0.7530    0.0000 C   0  0  0  0  0  0  0  0  0  0  0  0
    3.3743   -0.8970    0.0000 F   0  0  0  0  0  0  0  0  0  0  0  0
   -2.3222    0.0385    0.0000 O   0  0  0  0  0  0  0  0  0  0  0  0
   -1.0847    0.7530    0.0000 O   0  0  0  0  0  0  0  0  0  0  0  0
    0.5653    0.7530    0.0000 C   0  0  0  0  0  0  0  0  0  0  0  0
   -3.1472    0.0385    0.0000 C   0  0  0  0  0  0  0  0  0  0  0  0
    1.8752    1.4204    0.0000 N   0  0  0  0  0  0  0  0  0  0  0  0
    1.8752    0.0855    0.0000 S   0  0  0  0  0  0  0  0  0  0  0  0
    3.3743    2.4030    0.0000 F   0  0  0  0  0  0  0  0  0  0  0  0
    2.6599    0.3405    0.0000 C   0  0  0  0  0  0  0  0  0  0  0  0
    4.0888    1.1655    0.0000 C   0  0  0  0  0  0  0  0  0  0  0  0
    2.6599    1.1655    0.0000 C   0  0  0  0  0  0  0  0  0  0  0  0
    3.3743   -0.0720    0.0000 C   0  0  0  0  0  0  0  0  0  0  0  0
    4.0888    0.3405    0.0000 C   0  0  0  0  0  0  0  0  0  0  0  0
    3.3743    1.5780    0.0000 C   0  0  0  0  0  0  0  0  0  0  0  0
   -3.5597    0.7530    0.0000 C   0  0  0  0  0  0  0  0  0  0  0  0
   -4.3847    0.7530    0.0000 O   0  0  0  0  0  0  0  0  0  0  0  0
   -3.1472    1.4675    0.0000 O   0  0  0  0  0  0  0  0  0  0  0  0
    0.1528    0.0385    0.0000 N   0  0  0  0  0  0  0  0  0  0  0  0
   -3.3542   -1.3904    0.0000 H   0  0  0  0  0  0  0  0  0  0  0  0
    0.3598   -1.3904    0.0000 H   0  0  0  0  0  0  0  0  0  0  0  0
   -0.5687   -2.9986    0.0000 H   0  0  0  0  0  0  0  0  0  0  0  0
    0.0303    1.6796    0.0000 H   0  0  0  0  0  0  0  0  0  0  0  0
   -0.5047    0.7530    0.0000 H   0  0  0  0  0  0  0  0  0  0  0  0
   -3.6822   -0.8881    0.0000 H   0  0  0  0  0  0  0  0  0  0  0  0
   -4.2172    0.0385    0.0000 H   0  0  0  0  0  0  0  0  0  0  0  0
    4.9825   -0.1755    0.0000 H   0  0  0  0  0  0  0  0  0  0  0  0
   -4.8532    1.5645    0.0000 H   0  0  0  0  0  0  0  0  0  0  0  0
    0.6451   -0.8141    0.0000 H   0  0  0  0  0  0  0  0  0  0  0  0
  1  3  2  0  0  0  0
  1  4  1  0  0  0  0
  1 29  1  0  0  0  0
  2  5  1  0  0  0  0
  2  6  2  0  0  0  0
  2 30  1  0  0  0  0
  3  6  1  0  0  0  0
  3 12  1  0  0  0  0
  4  5  2  0  0  0  0
  4  8  1  0  0  0  0
  5 31  1  0  0  0  0
  6  9  1  0  0  0  0
  7 20  1  0  0  0  0
  9 13  2  0  0  0  0
  9 28  1  0  0  0  0
 10 14  1  0  0  0  0
 10 16  2  0  0  0  0
 10 17  1  0  0  0  0
 11 22  1  0  0  0  0
 12 15  1  0  0  0  0
 14 28  1  0  0  0  0
 14 32  1  0  0  0  0
 14 33  1  0  0  0  0
 15 25  1  0  0  0  0
 15 34  1  0  0  0  0
 15 35  1  0  0  0  0
 16 21  1  0  0  0  0
 17 19  1  0  0  0  0
 18 24  1  0  0  0  0
 19 21  2  0  0  0  0
 19 22  1  0  0  0  0
 20 23  1  0  0  0  0
 20 24  2  0  0  0  0
 21 24  1  0  0  0  0
 22 23  2  0  0  0  0
 23 36  1  0  0  0  0
 25 26  1  0  0  0  0
 25 27  2  0  0  0  0
 26 37  1  0  0  0  0
 28 38  1  0  0  0  0
M  END
>  <DRUGBANK_ID>
DB02834

>  <SECONDARY_ACCESSION_NUMBERS>
EXPT01836

>  <COMMON_NAME>
IDD552

$$$$
