
 OpenBabel10282417072D

 40 42  0  0  0  0  0  0  0  0999 V2000
    0.0414    0.0686    0.0000 C   0  0  0  0  0  0  0  0  0  0  0  0
   -0.4554    0.7312    0.0000 C   0  0  0  0  0  0  0  0  0  0  0  0
   -0.2484    1.5179    0.0000 C   0  0  0  0  0  0  0  0  0  0  0  0
    0.4969    1.8491    0.0000 S   0  0  0  0  0  0  0  0  0  0  0  0
    0.8695    0.0686    0.0000 C   0  0  0  0  0  0  0  0  0  0  0  0
    1.2422    1.4765    0.0000 C   0  0  0  0  0  0  0  0  0  0  0  0
    1.4078    0.6898    0.0000 C   0  0  0  0  0  0  0  0  0  0  0  0
   -0.8695    2.0975    0.0000 C   0  0  0  0  0  0  0  0  0  0  0  0
   -1.6561    1.8491    0.0000 C   0  0  0  0  0  0  0  0  0  0  0  0
   -1.8632    1.0624    0.0000 C   0  0  0  0  0  0  0  0  0  0  0  0
   -1.2421    0.4828    0.0000 C   0  0  0  0  0  0  0  0  0  0  0  0
    2.1945    0.4413    0.0000 C   0  0  0  0  0  0  0  0  0  0  0  0
    2.8156    0.9797    0.0000 C   0  0  0  0  0  0  0  0  0  0  0  0
    2.6500    1.8077    0.0000 C   0  0  0  0  0  0  0  0  0  0  0  0
    1.8633    2.0562    0.0000 C   0  0  0  0  0  0  0  0  0  0  0  0
   -2.6499    0.8141    0.0000 Cl  0  0  0  0  0  0  0  0  0  0  0  0
   -0.3312   -0.6766    0.0000 O   0  0  0  0  0  0  0  0  0  0  0  0
   -1.1593   -0.6766    0.0000 C   0  0  0  0  0  0  0  0  0  0  0  0
   -1.5734   -1.3804    0.0000 C   0  0  0  0  0  0  0  0  0  0  0  0
   -2.4015   -1.3804    0.0000 N   0  0  0  0  0  0  0  0  0  0  0  0
   -2.8156   -0.6632    0.0000 C   0  0  0  0  0  0  0  0  0  0  0  0
   -2.8156   -2.0975    0.0000 C   0  0  0  0  0  0  0  0  0  0  0  0
    1.2982   -0.8701    0.0000 H   0  0  0  0  0  0  0  0  0  0  0  0
   -0.6418    3.1041    0.0000 H   0  0  0  0  0  0  0  0  0  0  0  0
   -2.4033    2.5609    0.0000 H   0  0  0  0  0  0  0  0  0  0  0  0
   -1.4698   -0.5238    0.0000 H   0  0  0  0  0  0  0  0  0  0  0  0
    2.4037   -0.5693    0.0000 H   0  0  0  0  0  0  0  0  0  0  0  0
    3.7920    0.6457    0.0000 H   0  0  0  0  0  0  0  0  0  0  0  0
    3.4183    2.4968    0.0000 H   0  0  0  0  0  0  0  0  0  0  0  0
    1.6356    3.0628    0.0000 H   0  0  0  0  0  0  0  0  0  0  0  0
   -1.6905    0.2522    0.0000 H   0  0  0  0  0  0  0  0  0  0  0  0
   -2.2293   -0.6700    0.0000 H   0  0  0  0  0  0  0  0  0  0  0  0
   -1.0422   -2.3092    0.0000 H   0  0  0  0  0  0  0  0  0  0  0  0
   -2.1103   -2.3059    0.0000 H   0  0  0  0  0  0  0  0  0  0  0  0
   -2.2806    0.2635    0.0000 H   0  0  0  0  0  0  0  0  0  0  0  0
   -3.8856   -0.6632    0.0000 H   0  0  0  0  0  0  0  0  0  0  0  0
   -3.3506    0.2634    0.0000 H   0  0  0  0  0  0  0  0  0  0  0  0
   -3.8856   -2.0974    0.0000 H   0  0  0  0  0  0  0  0  0  0  0  0
   -2.2807   -3.0242    0.0000 H   0  0  0  0  0  0  0  0  0  0  0  0
   -3.3507   -3.0241    0.0000 H   0  0  0  0  0  0  0  0  0  0  0  0
  1  5  2  0  0  0  0
  1  2  1  0  0  0  0
  1 17  1  0  0  0  0
  2  3  1  0  0  0  0
  2 11  2  0  0  0  0
  3  4  1  0  0  0  0
  3  8  2  0  0  0  0
  4  6  1  0  0  0  0
  5  7  1  0  0  0  0
  5 23  1  0  0  0  0
  6  7  1  0  0  0  0
  6 15  2  0  0  0  0
  7 12  2  0  0  0  0
  8  9  1  0  0  0  0
  8 24  1  0  0  0  0
  9 10  2  0  0  0  0
  9 25  1  0  0  0  0
 10 11  1  0  0  0  0
 10 16  1  0  0  0  0
 11 26  1  0  0  0  0
 12 13  1  0  0  0  0
 12 27  1  0  0  0  0
 13 14  2  0  0  0  0
 13 28  1  0  0  0  0
 14 15  1  0  0  0  0
 14 29  1  0  0  0  0
 15 30  1  0  0  0  0
 17 18  1  0  0  0  0
 18 19  1  0  0  0  0
 18 31  1  0  0  0  0
 18 32  1  0  0  0  0
 19 20  1  0  0  0  0
 19 33  1  0  0  0  0
 19 34  1  0  0  0  0
 20 21  1  0  0  0  0
 20 22  1  0  0  0  0
 21 35  1  0  0  0  0
 21 36  1  0  0  0  0
 21 37  1  0  0  0  0
 22 38  1  0  0  0  0
 22 39  1  0  0  0  0
 22 40  1  0  0  0  0
M  END
>  <DRUGBANK_ID>
DB09225

>  <COMMON_NAME>
Zotepine

>  <CAS_NUMBER>
26615-21-4

>  <UNII>
U29O83JAZW

>  <SYNONYMS>
Zotepina; Zotepine

$$$$
