
 OpenBabel10282417072D

 81 84  0  0  1  0  0  0  0  0999 V2000
    9.6312  -19.4894    0.0000 C   0  0  0  0  0  0  0  0  0  0  0  0
    9.6312  -20.3145    0.0000 C   0  0  1  0  0  0  0  0  0  0  0  0
   10.3457  -20.7269    0.0000 C   0  0  0  0  0  0  0  0  0  0  0  0
   11.0603  -20.3145    0.0000 C   0  0  1  0  0  0  0  0  0  0  0  0
   11.0603  -19.4894    0.0000 C   0  0  2  0  0  0  0  0  0  0  0  0
   10.3457  -19.0769    0.0000 C   0  0  0  0  0  0  0  0  0  0  0  0
   11.7747  -20.7269    0.0000 C   0  0  0  0  0  0  0  0  0  0  0  0
   12.4893  -20.3145    0.0000 C   0  0  0  0  0  0  0  0  0  0  0  0
   12.4893  -19.4894    0.0000 C   0  0  0  0  0  0  0  0  0  0  0  0
   11.7747  -19.0769    0.0000 C   0  0  0  0  0  0  0  0  0  0  0  0
   13.2038  -19.0769    0.0000 C   0  0  1  0  0  0  0  0  0  0  0  0
   13.2038  -18.2518    0.0000 C   0  0  2  0  0  0  0  0  0  0  0  0
   12.4893  -17.8393    0.0000 C   0  0  0  0  0  0  0  0  0  0  0  0
   11.7747  -18.2518    0.0000 C   0  0  0  0  0  0  0  0  0  0  0  0
   13.9885  -19.3318    0.0000 C   0  0  0  0  0  0  0  0  0  0  0  0
   14.4734  -18.6643    0.0000 C   0  0  0  0  0  0  0  0  0  0  0  0
   13.9885  -17.9969    0.0000 C   0  0  2  0  0  0  0  0  0  0  0  0
   14.2425  -17.2149    0.0000 C   0  0  1  0  0  0  0  0  0  0  0  0
   15.0468  -17.0439    0.0000 C   0  0  0  0  0  0  0  0  0  0  0  0
   13.6924  -16.6038    0.0000 C   0  0  0  0  0  0  0  0  0  0  0  0
   15.5970  -17.6549    0.0000 C   0  0  0  0  0  0  0  0  0  0  0  0
   16.4012  -17.4840    0.0000 C   0  0  0  0  0  0  0  0  0  0  0  0
   16.9514  -18.0950    0.0000 C   0  0  0  0  0  0  0  0  0  0  0  0
   16.6973  -18.8770    0.0000 C   0  0  0  0  0  0  0  0  0  0  0  0
   17.7557  -17.9241    0.0000 C   0  0  0  0  0  0  0  0  0  0  0  0
   14.8005  -17.8682    0.0000 H   0  0  0  0  0  0  0  0  0  0  0  0
   13.2898  -17.4341    0.0000 C   0  0  0  0  0  0  0  0  0  0  0  0
   11.0603  -18.6672    0.0000 C   0  0  0  0  0  0  0  0  0  0  0  0
   13.2898  -19.8946    0.0000 C   0  0  0  0  0  0  0  0  0  0  0  0
    8.9192  -20.7256    0.0000 O   0  0  0  0  0  0  0  0  0  0  0  0
   10.3457  -21.5492    0.0000 C   0  0  0  0  0  0  0  0  0  0  0  0
   11.0578  -21.1381    0.0000 H   0  0  0  0  0  0  0  0  0  0  0  0
    9.6337  -21.1381    0.0000 C   0  0  0  0  0  0  0  0  0  0  0  0
    8.7046  -18.9544    0.0000 H   0  0  0  0  0  0  0  0  0  0  0  0
    9.6312  -18.4194    0.0000 H   0  0  0  0  0  0  0  0  0  0  0  0
    8.7045  -19.7795    0.0000 H   0  0  0  0  0  0  0  0  0  0  0  0
   10.3457  -18.0069    0.0000 H   0  0  0  0  0  0  0  0  0  0  0  0
    9.4190  -18.5419    0.0000 H   0  0  0  0  0  0  0  0  0  0  0  0
   11.7746  -21.7969    0.0000 H   0  0  0  0  0  0  0  0  0  0  0  0
   12.7013  -21.2620    0.0000 H   0  0  0  0  0  0  0  0  0  0  0  0
   13.4159  -20.8496    0.0000 H   0  0  0  0  0  0  0  0  0  0  0  0
   13.4160  -19.7795    0.0000 H   0  0  0  0  0  0  0  0  0  0  0  0
   12.4893  -16.7693    0.0000 H   0  0  0  0  0  0  0  0  0  0  0  0
   11.5627  -17.3042    0.0000 H   0  0  0  0  0  0  0  0  0  0  0  0
   10.8481  -17.7168    0.0000 H   0  0  0  0  0  0  0  0  0  0  0  0
   10.8480  -18.7868    0.0000 H   0  0  0  0  0  0  0  0  0  0  0  0
   14.3192  -20.3494    0.0000 H   0  0  0  0  0  0  0  0  0  0  0  0
   15.0453  -19.4991    0.0000 H   0  0  0  0  0  0  0  0  0  0  0  0
   15.5434  -18.6643    0.0000 H   0  0  0  0  0  0  0  0  0  0  0  0
   14.9592  -17.7109    0.0000 H   0  0  0  0  0  0  0  0  0  0  0  0
   13.1959  -17.4374    0.0000 H   0  0  0  0  0  0  0  0  0  0  0  0
   15.3774  -16.0263    0.0000 H   0  0  0  0  0  0  0  0  0  0  0  0
   16.0934  -16.8214    0.0000 H   0  0  0  0  0  0  0  0  0  0  0  0
   14.0232  -15.5862    0.0000 H   0  0  0  0  0  0  0  0  0  0  0  0
   12.6458  -16.8261    0.0000 H   0  0  0  0  0  0  0  0  0  0  0  0
   12.9765  -15.8085    0.0000 H   0  0  0  0  0  0  0  0  0  0  0  0
   15.2664  -18.6725    0.0000 H   0  0  0  0  0  0  0  0  0  0  0  0
   16.3130  -18.4501    0.0000 H   0  0  0  0  0  0  0  0  0  0  0  0
   16.7201  -16.5025    0.0000 H   0  0  0  0  0  0  0  0  0  0  0  0
   15.6507  -19.0995    0.0000 H   0  0  0  0  0  0  0  0  0  0  0  0
   17.4133  -19.6722    0.0000 H   0  0  0  0  0  0  0  0  0  0  0  0
   16.3666  -19.8946    0.0000 H   0  0  0  0  0  0  0  0  0  0  0  0
   18.4716  -18.7193    0.0000 H   0  0  0  0  0  0  0  0  0  0  0  0
   18.0864  -16.9065    0.0000 H   0  0  0  0  0  0  0  0  0  0  0  0
   18.8023  -17.7017    0.0000 H   0  0  0  0  0  0  0  0  0  0  0  0
   14.2673  -16.9990    0.0000 H   0  0  0  0  0  0  0  0  0  0  0  0
   12.4242  -16.8051    0.0000 H   0  0  0  0  0  0  0  0  0  0  0  0
   13.4017  -16.3700    0.0000 H   0  0  0  0  0  0  0  0  0  0  0  0
   11.9869  -18.1322    0.0000 H   0  0  0  0  0  0  0  0  0  0  0  0
   10.1337  -18.1322    0.0000 H   0  0  0  0  0  0  0  0  0  0  0  0
   11.0603  -17.5972    0.0000 H   0  0  0  0  0  0  0  0  0  0  0  0
   12.4242  -20.5236    0.0000 H   0  0  0  0  0  0  0  0  0  0  0  0
   14.2673  -20.3297    0.0000 H   0  0  0  0  0  0  0  0  0  0  0  0
   13.4017  -20.9587    0.0000 H   0  0  0  0  0  0  0  0  0  0  0  0
    8.0791  -20.2406    0.0000 H   0  0  0  0  0  0  0  0  0  0  0  0
    9.4191  -22.0842    0.0000 H   0  0  0  0  0  0  0  0  0  0  0  0
   11.2723  -22.0842    0.0000 H   0  0  0  0  0  0  0  0  0  0  0  0
   10.3457  -22.6192    0.0000 H   0  0  0  0  0  0  0  0  0  0  0  0
    8.7070  -20.6032    0.0000 H   0  0  0  0  0  0  0  0  0  0  0  0
    9.6338  -22.2081    0.0000 H   0  0  0  0  0  0  0  0  0  0  0  0
    8.7071  -21.6732    0.0000 H   0  0  0  0  0  0  0  0  0  0  0  0
  1  2  1  0  0  0  0
  1 34  1  0  0  0  0
  1 35  1  0  0  0  0
  2  3  1  0  0  0  0
  2 30  1  0  0  0  0
  2 36  1  6  0  0  0
  3  4  1  0  0  0  0
  3 31  1  0  0  0  0
  3 33  1  0  0  0  0
  4  5  1  0  0  0  0
  4  7  1  0  0  0  0
  4 32  1  6  0  0  0
  5  6  1  0  0  0  0
  5 28  1  1  0  0  0
  6  1  1  0  0  0  0
  6 37  1  0  0  0  0
  6 38  1  0  0  0  0
  7  8  1  0  0  0  0
  7 39  1  0  0  0  0
  7 40  1  0  0  0  0
  8  9  1  0  0  0  0
  8 41  1  0  0  0  0
  8 42  1  0  0  0  0
  9 10  2  0  0  0  0
  9 11  1  0  0  0  0
 10  5  1  0  0  0  0
 11 12  1  0  0  0  0
 11 15  1  0  0  0  0
 11 29  1  6  0  0  0
 12 13  1  0  0  0  0
 12 27  1  1  0  0  0
 13 14  1  0  0  0  0
 13 43  1  0  0  0  0
 13 44  1  0  0  0  0
 14 10  1  0  0  0  0
 14 45  1  0  0  0  0
 14 46  1  0  0  0  0
 15 16  1  0  0  0  0
 15 47  1  0  0  0  0
 15 48  1  0  0  0  0
 16 17  1  0  0  0  0
 16 49  1  0  0  0  0
 16 50  1  0  0  0  0
 17 12  1  0  0  0  0
 17 18  1  0  0  0  0
 17 26  1  6  0  0  0
 18 19  1  0  0  0  0
 18 20  1  0  0  0  0
 18 51  1  1  0  0  0
 19 21  1  0  0  0  0
 19 52  1  0  0  0  0
 19 53  1  0  0  0  0
 20 54  1  0  0  0  0
 20 55  1  0  0  0  0
 20 56  1  0  0  0  0
 21 22  1  0  0  0  0
 21 57  1  0  0  0  0
 21 58  1  0  0  0  0
 22 23  2  0  0  0  0
 22 59  1  0  0  0  0
 23 24  1  0  0  0  0
 23 25  1  0  0  0  0
 24 60  1  0  0  0  0
 24 61  1  0  0  0  0
 24 62  1  0  0  0  0
 25 63  1  0  0  0  0
 25 64  1  0  0  0  0
 25 65  1  0  0  0  0
 27 66  1  0  0  0  0
 27 67  1  0  0  0  0
 27 68  1  0  0  0  0
 28 69  1  0  0  0  0
 28 70  1  0  0  0  0
 28 71  1  0  0  0  0
 29 72  1  0  0  0  0
 29 73  1  0  0  0  0
 29 74  1  0  0  0  0
 30 75  1  0  0  0  0
 31 76  1  0  0  0  0
 31 77  1  0  0  0  0
 31 78  1  0  0  0  0
 33 79  1  0  0  0  0
 33 80  1  0  0  0  0
 33 81  1  0  0  0  0
M  END
>  <DRUGBANK_ID>
DB03696

>  <SECONDARY_ACCESSION_NUMBERS>
EXPT02002

>  <COMMON_NAME>
Lanosterol

>  <CAS_NUMBER>
79-63-0

>  <UNII>
1J05Z83K3M

$$$$
