
 OpenBabel10282417072D

 60 64  0  0  0  0  0  0  0  0999 V2000
   -1.5356    7.2402    0.0000 C   0  0  0  0  0  0  0  0  0  0  0  0
   -0.8212    6.8277    0.0000 C   0  0  0  0  0  0  0  0  0  0  0  0
   -0.1067    7.2402    0.0000 C   0  0  0  0  0  0  0  0  0  0  0  0
    0.6078    6.8277    0.0000 C   0  0  0  0  0  0  0  0  0  0  0  0
    0.6078    6.0027    0.0000 C   0  0  0  0  0  0  0  0  0  0  0  0
   -0.1067    5.5902    0.0000 C   0  0  0  0  0  0  0  0  0  0  0  0
   -0.8212    6.0027    0.0000 C   0  0  0  0  0  0  0  0  0  0  0  0
   -1.5356    5.5902    0.0000 N   0  0  0  0  0  0  0  0  0  0  0  0
   -2.2501    6.0027    0.0000 C   0  0  0  0  0  0  0  0  0  0  0  0
   -2.9646    5.5902    0.0000 N   0  0  0  0  0  0  0  0  0  0  0  0
   -3.6791    6.0027    0.0000 C   0  0  0  0  0  0  0  0  0  0  0  0
   -3.6791    6.8277    0.0000 C   0  0  0  0  0  0  0  0  0  0  0  0
   -2.9646    7.2402    0.0000 C   0  0  0  0  0  0  0  0  0  0  0  0
   -2.2501    6.8277    0.0000 N   0  0  0  0  0  0  0  0  0  0  0  0
   -2.9646    8.0652    0.0000 C   0  0  0  0  0  0  0  0  0  0  0  0
   -3.6791    8.4777    0.0000 C   0  0  0  0  0  0  0  0  0  0  0  0
   -3.6791    9.3027    0.0000 N   0  0  0  0  0  0  0  0  0  0  0  0
   -2.9646    9.7152    0.0000 C   0  0  0  0  0  0  0  0  0  0  0  0
   -2.2501    9.3027    0.0000 C   0  0  0  0  0  0  0  0  0  0  0  0
   -2.2501    8.4777    0.0000 N   0  0  0  0  0  0  0  0  0  0  0  0
    1.3222    5.5902    0.0000 C   0  0  0  0  0  0  0  0  0  0  0  0
    2.0367    6.0027    0.0000 O   0  0  0  0  0  0  0  0  0  0  0  0
    1.3222    4.7652    0.0000 N   0  0  0  0  0  0  0  0  0  0  0  0
    2.0367    4.3527    0.0000 C   0  0  0  0  0  0  0  0  0  0  0  0
    2.7512    4.7652    0.0000 C   0  0  0  0  0  0  0  0  0  0  0  0
    3.4656    4.3527    0.0000 C   0  0  0  0  0  0  0  0  0  0  0  0
    3.4656    3.5277    0.0000 C   0  0  0  0  0  0  0  0  0  0  0  0
    2.7512    3.1152    0.0000 C   0  0  0  0  0  0  0  0  0  0  0  0
    2.0367    3.5277    0.0000 C   0  0  0  0  0  0  0  0  0  0  0  0
    2.7512    2.2902    0.0000 N   0  0  0  0  0  0  0  0  0  0  0  0
    3.4186    1.8053    0.0000 C   0  0  0  0  0  0  0  0  0  0  0  0
    3.1637    1.0206    0.0000 C   0  0  0  0  0  0  0  0  0  0  0  0
    2.3387    1.0206    0.0000 N   0  0  0  0  0  0  0  0  0  0  0  0
    2.0837    1.8053    0.0000 C   0  0  0  0  0  0  0  0  0  0  0  0
    3.6486    0.3532    0.0000 C   0  0  0  0  0  0  0  0  0  0  0  0
    4.1801    4.7652    0.0000 C   0  0  0  0  0  0  0  0  0  0  0  0
    4.8946    5.1777    0.0000 F   0  0  0  0  0  0  0  0  0  0  0  0
    4.5926    4.0507    0.0000 F   0  0  0  0  0  0  0  0  0  0  0  0
    3.7676    5.4797    0.0000 F   0  0  0  0  0  0  0  0  0  0  0  0
   -1.5356    8.3102    0.0000 H   0  0  0  0  0  0  0  0  0  0  0  0
   -2.4623    6.7052    0.0000 H   0  0  0  0  0  0  0  0  0  0  0  0
   -2.4622    7.7752    0.0000 H   0  0  0  0  0  0  0  0  0  0  0  0
   -0.1067    8.2722    0.0000 H   0  0  0  0  0  0  0  0  0  0  0  0
    1.5015    7.3437    0.0000 H   0  0  0  0  0  0  0  0  0  0  0  0
   -0.1067    4.5582    0.0000 H   0  0  0  0  0  0  0  0  0  0  0  0
   -1.5356    4.6057    0.0000 H   0  0  0  0  0  0  0  0  0  0  0  0
   -4.5728    5.4867    0.0000 H   0  0  0  0  0  0  0  0  0  0  0  0
   -4.5728    7.3437    0.0000 H   0  0  0  0  0  0  0  0  0  0  0  0
   -4.5728    7.9617    0.0000 H   0  0  0  0  0  0  0  0  0  0  0  0
   -2.9646   10.7472    0.0000 H   0  0  0  0  0  0  0  0  0  0  0  0
   -1.3564    9.8187    0.0000 H   0  0  0  0  0  0  0  0  0  0  0  0
    0.4696    4.2729    0.0000 H   0  0  0  0  0  0  0  0  0  0  0  0
    2.7512    5.7972    0.0000 H   0  0  0  0  0  0  0  0  0  0  0  0
    4.3593    3.0117    0.0000 H   0  0  0  0  0  0  0  0  0  0  0  0
    1.1430    3.0117    0.0000 H   0  0  0  0  0  0  0  0  0  0  0  0
    4.4001    2.1242    0.0000 H   0  0  0  0  0  0  0  0  0  0  0  0
    1.1022    2.1242    0.0000 H   0  0  0  0  0  0  0  0  0  0  0  0
    3.2134   -0.6243    0.0000 H   0  0  0  0  0  0  0  0  0  0  0  0
    4.7127    0.4651    0.0000 H   0  0  0  0  0  0  0  0  0  0  0  0
    4.2775   -0.5124    0.0000 H   0  0  0  0  0  0  0  0  0  0  0  0
  1  2  1  0  0  0  0
  1 40  1  0  0  0  0
  1 41  1  0  0  0  0
  1 42  1  0  0  0  0
  2  3  2  0  0  0  0
  2  7  1  0  0  0  0
  3  4  1  0  0  0  0
  3 43  1  0  0  0  0
  4  5  2  0  0  0  0
  4 44  1  0  0  0  0
  5  6  1  0  0  0  0
  5 21  1  0  0  0  0
  6  7  2  0  0  0  0
  6 45  1  0  0  0  0
  7  8  1  0  0  0  0
  8  9  1  0  0  0  0
  8 46  1  0  0  0  0
  9 10  2  0  0  0  0
  9 14  1  0  0  0  0
 10 11  1  0  0  0  0
 11 12  2  0  0  0  0
 11 47  1  0  0  0  0
 12 13  1  0  0  0  0
 12 48  1  0  0  0  0
 13 14  2  0  0  0  0
 13 15  1  0  0  0  0
 15 16  2  0  0  0  0
 15 20  1  0  0  0  0
 16 17  1  0  0  0  0
 16 49  1  0  0  0  0
 17 18  2  0  0  0  0
 18 19  1  0  0  0  0
 18 50  1  0  0  0  0
 19 20  2  0  0  0  0
 19 51  1  0  0  0  0
 21 22  2  0  0  0  0
 21 23  1  0  0  0  0
 23 24  1  0  0  0  0
 23 52  1  0  0  0  0
 24 25  2  0  0  0  0
 24 29  1  0  0  0  0
 25 26  1  0  0  0  0
 25 53  1  0  0  0  0
 26 27  2  0  0  0  0
 26 36  1  0  0  0  0
 27 28  1  0  0  0  0
 27 54  1  0  0  0  0
 28 29  2  0  0  0  0
 28 30  1  0  0  0  0
 29 55  1  0  0  0  0
 30 31  1  0  0  0  0
 30 34  1  0  0  0  0
 31 32  2  0  0  0  0
 31 56  1  0  0  0  0
 32 33  1  0  0  0  0
 32 35  1  0  0  0  0
 33 34  2  0  0  0  0
 34 57  1  0  0  0  0
 35 58  1  0  0  0  0
 35 59  1  0  0  0  0
 35 60  1  0  0  0  0
 36 37  1  0  0  0  0
 36 38  1  0  0  0  0
 36 39  1  0  0  0  0
M  END
>  <DRUGBANK_ID>
DB12323

>  <COMMON_NAME>
Radotinib

>  <CAS_NUMBER>
926037-48-1

>  <UNII>
I284LJY110

>  <SYNONYMS>
Radotinib

$$$$
