
 OpenBabel10282417072D

 73 78  0  0  0  0  0  0  0  0999 V2000
    1.4070    2.4996    0.0000 P   0  0  3  0  0  0  0  0  0  0  0  0
    2.2450    1.3418    0.0000 P   0  0  3  0  0  0  0  0  0  0  0  0
   -0.8992    3.5827    0.0000 O   0  0  0  0  0  0  0  0  0  0  0  0
    3.8815   -1.0500    0.0000 O   0  0  0  0  0  0  0  0  0  0  0  0
   -1.5858    5.6041    0.0000 O   0  0  0  0  0  0  0  0  0  0  0  0
    0.1989    5.4133    0.0000 O   0  0  0  0  0  0  0  0  0  0  0  0
    1.7470   -1.0143    0.0000 O   0  0  0  0  0  0  0  0  0  0  0  0
    2.4742   -2.6553    0.0000 O   0  0  0  0  0  0  0  0  0  0  0  0
    0.6539    2.8364    0.0000 O   0  0  0  0  0  0  0  0  0  0  0  0
    2.3298    0.5213    0.0000 O   0  0  0  0  0  0  0  0  0  0  0  0
    2.1601    2.1625    0.0000 O   0  0  0  0  0  0  0  0  0  0  0  0
    1.0701    1.7463    0.0000 O   0  0  0  0  0  0  0  0  0  0  0  0
    1.7440    3.2526    0.0000 O   0  0  0  0  0  0  0  0  0  0  0  0
    3.0656    1.4267    0.0000 O   0  5  0  0  0  0  0  0  0  0  0  0
    1.4243    1.2570    0.0000 O   0  0  0  0  0  0  0  0  0  0  0  0
    3.4908   -4.8234    0.0000 O   0  0  0  0  0  0  0  0  0  0  0  0
   -2.3186    3.9656    0.0000 N   0  0  0  0  0  0  0  0  0  0  0  0
    4.2596   -2.4708    0.0000 N   0  3  0  0  0  0  0  0  0  0  0  0
   -3.4686    3.3017    0.0000 N   0  0  0  0  0  0  0  0  0  0  0  0
   -2.9267    5.3410    0.0000 N   0  0  0  0  0  0  0  0  0  0  0  0
   -4.3557    5.3410    0.0000 N   0  0  0  0  0  0  0  0  0  0  0  0
   -5.1364    4.2645    0.0000 N   0  0  0  0  0  0  0  0  0  0  0  0
    4.8490   -5.2673    0.0000 N   0  0  0  0  0  0  0  0  0  0  0  0
   -1.1745    4.8888    0.0000 C   0  0  2  0  0  0  0  0  0  0  0  0
   -0.3540    4.8012    0.0000 C   0  0  1  0  0  0  0  0  0  0  0  0
   -1.5114    4.1357    0.0000 C   0  0  1  0  0  0  0  0  0  0  0  0
   -0.1839    3.9939    0.0000 C   0  0  1  0  0  0  0  0  0  0  0  0
    2.5538   -1.1872    0.0000 C   0  0  1  0  0  0  0  0  0  0  0  0
    2.8879   -1.9415    0.0000 C   0  0  2  0  0  0  0  0  0  0  0  0
    3.1678   -0.6363    0.0000 C   0  0  1  0  0  0  0  0  0  0  0  0
    3.7086   -1.8567    0.0000 C   0  0  1  0  0  0  0  0  0  0  0  0
    0.5691    3.6571    0.0000 C   0  0  0  0  0  0  0  0  0  0  0  0
    3.0830    0.1843    0.0000 C   0  0  0  0  0  0  0  0  0  0  0  0
   -2.9267    4.5160    0.0000 C   0  0  0  0  0  0  0  0  0  0  0  0
   -2.6529    3.2166    0.0000 C   0  0  0  0  0  0  0  0  0  0  0  0
   -3.6412    4.1035    0.0000 C   0  0  0  0  0  0  0  0  0  0  0  0
    4.0033   -3.2550    0.0000 C   0  0  0  0  0  0  0  0  0  0  0  0
    5.0669   -2.3006    0.0000 C   0  0  0  0  0  0  0  0  0  0  0  0
   -4.3557    4.5160    0.0000 C   0  0  0  0  0  0  0  0  0  0  0  0
    4.5543   -3.8691    0.0000 C   0  0  0  0  0  0  0  0  0  0  0  0
    5.6180   -2.9148    0.0000 C   0  0  0  0  0  0  0  0  0  0  0  0
   -3.6412    5.7536    0.0000 C   0  0  0  0  0  0  0  0  0  0  0  0
    5.3616   -3.6990    0.0000 C   0  0  0  0  0  0  0  0  0  0  0  0
   -5.1364    5.5925    0.0000 C   0  0  0  0  0  0  0  0  0  0  0  0
    4.2980   -4.6533    0.0000 C   0  0  0  0  0  0  0  0  0  0  0  0
   -5.6180    4.9285    0.0000 C   0  0  0  0  0  0  0  0  0  0  0  0
    5.3495   -5.1619    0.0000 H   0  0  0  0  0  0  0  0  0  0  0  0
    4.6901   -5.7536    0.0000 H   0  0  0  0  0  0  0  0  0  0  0  0
   -1.0993    6.4433    0.0000 H   0  0  0  0  0  0  0  0  0  0  0  0
    1.1474    5.2101    0.0000 H   0  0  0  0  0  0  0  0  0  0  0  0
    1.4488   -0.0913    0.0000 H   0  0  0  0  0  0  0  0  0  0  0  0
    1.5042   -2.6537    0.0000 H   0  0  0  0  0  0  0  0  0  0  0  0
    0.1052    1.6465    0.0000 H   0  0  0  0  0  0  0  0  0  0  0  0
   -0.5902    5.7852    0.0000 H   0  0  0  0  0  0  0  0  0  0  0  0
   -0.7358    5.8007    0.0000 H   0  0  0  0  0  0  0  0  0  0  0  0
   -1.7901    3.1026    0.0000 H   0  0  0  0  0  0  0  0  0  0  0  0
   -0.1298    2.9253    0.0000 H   0  0  0  0  0  0  0  0  0  0  0  0
    1.8789   -2.0175    0.0000 H   0  0  0  0  0  0  0  0  0  0  0  0
    1.8195   -1.8836    0.0000 H   0  0  0  0  0  0  0  0  0  0  0  0
    4.0662   -0.0551    0.0000 H   0  0  0  0  0  0  0  0  0  0  0  0
    4.7426   -1.5815    0.0000 H   0  0  0  0  0  0  0  0  0  0  0  0
    1.4358    4.2845    0.0000 H   0  0  0  0  0  0  0  0  0  0  0  0
    0.4591    4.7214    0.0000 H   0  0  0  0  0  0  0  0  0  0  0  0
    3.9498    0.8117    0.0000 H   0  0  0  0  0  0  0  0  0  0  0  0
    4.0597   -0.2526    0.0000 H   0  0  0  0  0  0  0  0  0  0  0  0
   -2.1370    2.3228    0.0000 H   0  0  0  0  0  0  0  0  0  0  0  0
    2.9935   -3.4678    0.0000 H   0  0  0  0  0  0  0  0  0  0  0  0
    5.3875   -1.3197    0.0000 H   0  0  0  0  0  0  0  0  0  0  0  0
    6.6278   -2.7020    0.0000 H   0  0  0  0  0  0  0  0  0  0  0  0
   -3.6412    6.7856    0.0000 H   0  0  0  0  0  0  0  0  0  0  0  0
    6.0508   -4.4672    0.0000 H   0  0  0  0  0  0  0  0  0  0  0  0
   -5.4569    6.5735    0.0000 H   0  0  0  0  0  0  0  0  0  0  0  0
   -6.6500    4.9285    0.0000 H   0  0  0  0  0  0  0  0  0  0  0  0
  1  9  1  0  0  0  0
  1 11  1  0  0  0  0
  1 12  1  0  0  0  0
  1 13  2  0  0  0  0
  2 10  1  0  0  0  0
  2 11  1  0  0  0  0
  2 14  1  0  0  0  0
  2 15  2  0  0  0  0
  3 26  1  0  0  0  0
  3 27  1  0  0  0  0
  4 30  1  0  0  0  0
  4 31  1  0  0  0  0
  5 49  1  0  0  0  0
  6 50  1  0  0  0  0
  7 51  1  0  0  0  0
  8 52  1  0  0  0  0
  9 32  1  0  0  0  0
 10 33  1  0  0  0  0
 12 53  1  0  0  0  0
 16 45  2  0  0  0  0
 17 34  1  0  0  0  0
 17 35  1  0  0  0  0
 18 37  1  0  0  0  0
 18 38  2  0  0  0  0
 19 35  2  0  0  0  0
 19 36  1  0  0  0  0
 20 34  1  0  0  0  0
 20 42  2  0  0  0  0
 21 39  1  0  0  0  0
 21 42  1  0  0  0  0
 21 44  1  0  0  0  0
 22 39  2  0  0  0  0
 22 46  1  0  0  0  0
 23 45  1  0  0  0  0
 23 47  1  0  0  0  0
 23 48  1  0  0  0  0
 24  5  1  0  0  0  0
 24 25  1  0  0  0  0
 24 26  1  0  0  0  0
 24 54  1  1  0  0  0
 25  6  1  0  0  0  0
 25 27  1  0  0  0  0
 25 55  1  1  0  0  0
 26 17  1  0  0  0  0
 26 56  1  6  0  0  0
 27 32  1  0  0  0  0
 27 57  1  6  0  0  0
 28  7  1  0  0  0  0
 28 29  1  0  0  0  0
 28 30  1  0  0  0  0
 28 58  1  1  0  0  0
 29  8  1  0  0  0  0
 29 31  1  0  0  0  0
 29 59  1  1  0  0  0
 30 33  1  0  0  0  0
 30 60  1  6  0  0  0
 31 18  1  0  0  0  0
 31 61  1  6  0  0  0
 32 62  1  0  0  0  0
 32 63  1  0  0  0  0
 33 64  1  0  0  0  0
 33 65  1  0  0  0  0
 34 36  2  0  0  0  0
 35 66  1  0  0  0  0
 36 39  1  0  0  0  0
 37 40  2  0  0  0  0
 37 67  1  0  0  0  0
 38 41  1  0  0  0  0
 38 68  1  0  0  0  0
 40 43  1  0  0  0  0
 40 45  1  0  0  0  0
 41 43  2  0  0  0  0
 41 69  1  0  0  0  0
 42 70  1  0  0  0  0
 43 71  1  0  0  0  0
 44 46  2  0  0  0  0
 44 72  1  0  0  0  0
 46 73  1  0  0  0  0
M  CHG  2  14  -1  18   1
M  END
>  <DRUGBANK_ID>
DB02483

>  <SECONDARY_ACCESSION_NUMBERS>
EXPT01343

>  <COMMON_NAME>
Etheno-NAD

$$$$
