
 OpenBabel10282417072D

127132  0  0  1  0  0  0  0  0999 V2000
   -0.7145   -0.4125    0.0000 C   0  0  0  0  0  0  0  0  0  0  0  0
    0.7145    8.6625    0.0000 C   0  0  0  0  0  0  0  0  0  0  0  0
   -3.5724   -5.3625    0.0000 C   0  0  0  0  0  0  0  0  0  0  0  0
   -1.4289    2.4750    0.0000 C   0  0  0  0  0  0  0  0  0  0  0  0
   -2.1434    3.7125    0.0000 C   0  0  0  0  0  0  0  0  0  0  0  0
   -2.1434   -1.2375    0.0000 C   0  0  0  0  0  0  0  0  0  0  0  0
    2.1434    4.5375    0.0000 C   0  0  0  0  0  0  0  0  0  0  0  0
   -1.4289   -0.0000    0.0000 C   0  0  2  0  0  0  0  0  0  0  0  0
    1.4289    8.2500    0.0000 C   0  0  2  0  0  0  0  0  0  0  0  0
   -2.8579   -4.9500    0.0000 C   0  0  2  0  0  0  0  0  0  0  0  0
   -1.4289    3.3000    0.0000 C   0  0  0  0  0  0  0  0  0  0  0  0
   -0.7145    2.0625    0.0000 C   0  0  1  0  0  0  0  0  0  0  0  0
   -2.8579   -1.6500    0.0000 C   0  0  2  0  0  0  0  0  0  0  0  0
    1.4289    4.9500    0.0000 C   0  0  2  0  0  0  0  0  0  0  0  0
   -1.4289    0.8250    0.0000 C   0  0  2  0  0  0  0  0  0  0  0  0
    2.1434    8.6625    0.0000 C   0  0  2  0  0  0  0  0  0  0  0  0
   -0.0000    2.4750    0.0000 C   0  0  1  0  0  0  0  0  0  0  0  0
   -2.1434    1.2375    0.0000 C   0  0  1  0  0  0  0  0  0  0  0  0
    2.8579    8.2500    0.0000 C   0  0  1  0  0  0  0  0  0  0  0  0
   -0.0000    3.3000    0.0000 C   0  0  2  0  0  0  0  0  0  0  0  0
   -2.1434   -3.7125    0.0000 C   0  0  2  0  0  0  0  0  0  0  0  0
   -4.2868   -1.6500    0.0000 C   0  0  2  0  0  0  0  0  0  0  0  0
    0.7145    6.1875    0.0000 C   0  0  2  0  0  0  0  0  0  0  0  0
   -1.4289   -4.1250    0.0000 C   0  0  2  0  0  0  0  0  0  0  0  0
   -2.8579    0.8250    0.0000 C   0  0  2  0  0  0  0  0  0  0  0  0
    2.8579    7.4250    0.0000 C   0  0  2  0  0  0  0  0  0  0  0  0
   -4.2868   -2.4750    0.0000 C   0  0  2  0  0  0  0  0  0  0  0  0
    0.0000    5.7750    0.0000 C   0  0  2  0  0  0  0  0  0  0  0  0
   -2.8579   -4.1250    0.0000 C   0  0  2  0  0  0  0  0  0  0  0  0
   -0.7145    3.7125    0.0000 C   0  0  2  0  0  0  0  0  0  0  0  0
   -3.5724   -1.2375    0.0000 C   0  0  2  0  0  0  0  0  0  0  0  0
    1.4289    5.7750    0.0000 C   0  0  2  0  0  0  0  0  0  0  0  0
   -1.4289   -4.9500    0.0000 C   0  0  2  0  0  0  0  0  0  0  0  0
   -2.8579   -0.0000    0.0000 C   0  0  2  0  0  0  0  0  0  0  0  0
    2.1434    7.0125    0.0000 C   0  0  2  0  0  0  0  0  0  0  0  0
   -3.5724   -2.8875    0.0000 C   0  0  2  0  0  0  0  0  0  0  0  0
   -0.0000    4.9500    0.0000 C   0  0  2  0  0  0  0  0  0  0  0  0
   -0.7145    1.2375    0.0000 N   0  0  0  0  0  0  0  0  0  0  0  0
   -2.8579    3.3000    0.0000 O   0  0  0  0  0  0  0  0  0  0  0  0
   -1.4289   -1.6500    0.0000 O   0  0  0  0  0  0  0  0  0  0  0  0
    2.8579    4.9500    0.0000 O   0  0  0  0  0  0  0  0  0  0  0  0
    2.1434    9.4875    0.0000 O   0  0  0  0  0  0  0  0  0  0  0  0
    0.7145    2.0625    0.0000 O   0  0  0  0  0  0  0  0  0  0  0  0
   -2.1434    2.0625    0.0000 O   0  0  0  0  0  0  0  0  0  0  0  0
    3.5724    8.6625    0.0000 O   0  0  0  0  0  0  0  0  0  0  0  0
    0.7145    3.7125    0.0000 O   0  0  0  0  0  0  0  0  0  0  0  0
   -2.1434   -2.8875    0.0000 O   0  0  0  0  0  0  0  0  0  0  0  0
   -5.0013   -1.2375    0.0000 O   0  0  0  0  0  0  0  0  0  0  0  0
    0.7145    7.0125    0.0000 O   0  0  0  0  0  0  0  0  0  0  0  0
   -0.7145   -3.7125    0.0000 O   0  0  0  0  0  0  0  0  0  0  0  0
   -3.5724    1.2375    0.0000 O   0  0  0  0  0  0  0  0  0  0  0  0
    3.5724    7.0125    0.0000 O   0  0  0  0  0  0  0  0  0  0  0  0
   -5.0013   -2.8875    0.0000 O   0  0  0  0  0  0  0  0  0  0  0  0
   -0.7145    6.1875    0.0000 O   0  0  0  0  0  0  0  0  0  0  0  0
   -0.7145   -5.3625    0.0000 O   0  0  0  0  0  0  0  0  0  0  0  0
   -2.1434   -5.3625    0.0000 O   0  0  0  0  0  0  0  0  0  0  0  0
   -2.1434   -0.4125    0.0000 O   0  0  0  0  0  0  0  0  0  0  0  0
    1.4289    7.4250    0.0000 O   0  0  0  0  0  0  0  0  0  0  0  0
   -2.8579   -2.4750    0.0000 O   0  0  0  0  0  0  0  0  0  0  0  0
    0.7145    4.5375    0.0000 O   0  0  0  0  0  0  0  0  0  0  0  0
   -3.5724   -3.7125    0.0000 O   0  0  0  0  0  0  0  0  0  0  0  0
   -0.7145    4.5375    0.0000 O   0  0  0  0  0  0  0  0  0  0  0  0
   -3.5724   -0.4125    0.0000 O   0  0  0  0  0  0  0  0  0  0  0  0
    2.1434    6.1875    0.0000 O   0  0  0  0  0  0  0  0  0  0  0  0
   -0.8986    0.6320    0.0000 H   0  0  0  0  0  0  0  0  0  0  0  0
    1.1468    9.0252    0.0000 H   0  0  0  0  0  0  0  0  0  0  0  0
   -3.6704   -4.8067    0.0000 H   0  0  0  0  0  0  0  0  0  0  0  0
   -1.2448    1.4305    0.0000 H   0  0  0  0  0  0  0  0  0  0  0  0
   -3.1401   -0.8748    0.0000 H   0  0  0  0  0  0  0  0  0  0  0  0
    1.9592    5.5820    0.0000 H   0  0  0  0  0  0  0  0  0  0  0  0
   -0.6165    0.6817    0.0000 H   0  0  0  0  0  0  0  0  0  0  0  0
    1.6131    9.2945    0.0000 H   0  0  0  0  0  0  0  0  0  0  0  0
   -0.0000    1.6500    0.0000 H   0  0  0  0  0  0  0  0  0  0  0  0
   -1.6131    1.8695    0.0000 H   0  0  0  0  0  0  0  0  0  0  0  0
    2.8579    9.0750    0.0000 H   0  0  0  0  0  0  0  0  0  0  0  0
    0.7145    2.8875    0.0000 H   0  0  0  0  0  0  0  0  0  0  0  0
   -1.6131   -3.0805    0.0000 H   0  0  0  0  0  0  0  0  0  0  0  0
   -4.8171   -2.2820    0.0000 H   0  0  0  0  0  0  0  0  0  0  0  0
   -0.0980    6.3308    0.0000 H   0  0  0  0  0  0  0  0  0  0  0  0
   -1.1468   -3.3498    0.0000 H   0  0  0  0  0  0  0  0  0  0  0  0
   -2.8579    1.6500    0.0000 H   0  0  0  0  0  0  0  0  0  0  0  0
    3.5724    7.8375    0.0000 H   0  0  0  0  0  0  0  0  0  0  0  0
   -5.0993   -2.3317    0.0000 H   0  0  0  0  0  0  0  0  0  0  0  0
   -0.2822    6.5502    0.0000 H   0  0  0  0  0  0  0  0  0  0  0  0
   -3.6704   -4.2683    0.0000 H   0  0  0  0  0  0  0  0  0  0  0  0
   -1.4289    4.1250    0.0000 H   0  0  0  0  0  0  0  0  0  0  0  0
   -3.0421   -0.6055    0.0000 H   0  0  0  0  0  0  0  0  0  0  0  0
    2.2414    5.6317    0.0000 H   0  0  0  0  0  0  0  0  0  0  0  0
   -0.7145   -4.5375    0.0000 H   0  0  0  0  0  0  0  0  0  0  0  0
   -3.5724    0.4125    0.0000 H   0  0  0  0  0  0  0  0  0  0  0  0
    2.8579    6.6000    0.0000 H   0  0  0  0  0  0  0  0  0  0  0  0
   -4.2868   -3.3000    0.0000 H   0  0  0  0  0  0  0  0  0  0  0  0
   -0.7145    5.3625    0.0000 H   0  0  0  0  0  0  0  0  0  0  0  0
   -0.7145   -1.4825    0.0000 H   0  0  0  0  0  0  0  0  0  0  0  0
    0.2122    0.1225    0.0000 H   0  0  0  0  0  0  0  0  0  0  0  0
    0.2121   -0.9475    0.0000 H   0  0  0  0  0  0  0  0  0  0  0  0
    0.7145    9.7325    0.0000 H   0  0  0  0  0  0  0  0  0  0  0  0
   -0.2122    8.1275    0.0000 H   0  0  0  0  0  0  0  0  0  0  0  0
   -0.2121    9.1975    0.0000 H   0  0  0  0  0  0  0  0  0  0  0  0
   -4.4990   -4.8275    0.0000 H   0  0  0  0  0  0  0  0  0  0  0  0
   -3.5724   -6.4325    0.0000 H   0  0  0  0  0  0  0  0  0  0  0  0
   -4.4991   -5.8975    0.0000 H   0  0  0  0  0  0  0  0  0  0  0  0
   -2.3226    1.9590    0.0000 H   0  0  0  0  0  0  0  0  0  0  0  0
   -2.1434    4.7825    0.0000 H   0  0  0  0  0  0  0  0  0  0  0  0
   -3.0700    4.2475    0.0000 H   0  0  0  0  0  0  0  0  0  0  0  0
   -2.1434   -0.1675    0.0000 H   0  0  0  0  0  0  0  0  0  0  0  0
   -1.2168   -0.7025    0.0000 H   0  0  0  0  0  0  0  0  0  0  0  0
    2.1434    3.4675    0.0000 H   0  0  0  0  0  0  0  0  0  0  0  0
    3.0700    4.0025    0.0000 H   0  0  0  0  0  0  0  0  0  0  0  0
    0.1689    0.7275    0.0000 H   0  0  0  0  0  0  0  0  0  0  0  0
   -3.6979    3.7850    0.0000 H   0  0  0  0  0  0  0  0  0  0  0  0
   -1.4289   -2.6200    0.0000 H   0  0  0  0  0  0  0  0  0  0  0  0
    3.6979    4.4650    0.0000 H   0  0  0  0  0  0  0  0  0  0  0  0
    2.9834    9.9725    0.0000 H   0  0  0  0  0  0  0  0  0  0  0  0
    0.7145    1.0925    0.0000 H   0  0  0  0  0  0  0  0  0  0  0  0
   -1.3034    2.5475    0.0000 H   0  0  0  0  0  0  0  0  0  0  0  0
    4.4124    8.1775    0.0000 H   0  0  0  0  0  0  0  0  0  0  0  0
    1.5545    3.2275    0.0000 H   0  0  0  0  0  0  0  0  0  0  0  0
   -1.3034   -2.4025    0.0000 H   0  0  0  0  0  0  0  0  0  0  0  0
   -5.0013   -0.2675    0.0000 H   0  0  0  0  0  0  0  0  0  0  0  0
    1.5545    7.4975    0.0000 H   0  0  0  0  0  0  0  0  0  0  0  0
    0.1256   -4.1975    0.0000 H   0  0  0  0  0  0  0  0  0  0  0  0
   -3.5724    2.2075    0.0000 H   0  0  0  0  0  0  0  0  0  0  0  0
    3.5724    6.0425    0.0000 H   0  0  0  0  0  0  0  0  0  0  0  0
   -5.8413   -2.4025    0.0000 H   0  0  0  0  0  0  0  0  0  0  0  0
   -0.7145    7.1575    0.0000 H   0  0  0  0  0  0  0  0  0  0  0  0
   -0.7145   -6.3325    0.0000 H   0  0  0  0  0  0  0  0  0  0  0  0
  1 94  1  0  0  0  0
  1 95  1  0  0  0  0
  1 96  1  0  0  0  0
  2 97  1  0  0  0  0
  2 98  1  0  0  0  0
  2 99  1  0  0  0  0
  3100  1  0  0  0  0
  3101  1  0  0  0  0
  3102  1  0  0  0  0
  4103  1  0  0  0  0
  5104  1  0  0  0  0
  5105  1  0  0  0  0
  6106  1  0  0  0  0
  6107  1  0  0  0  0
  7108  1  0  0  0  0
  7109  1  0  0  0  0
  8  1  1  0  0  0  0
  8 65  1  6  0  0  0
  9  2  1  0  0  0  0
  9 66  1  1  0  0  0
 10  3  1  0  0  0  0
 10 67  1  1  0  0  0
 11  4  2  0  0  0  0
 11  5  1  0  0  0  0
 12  4  1  0  0  0  0
 12 38  1  0  0  0  0
 12 68  1  6  0  0  0
 13  6  1  0  0  0  0
 13 69  1  6  0  0  0
 14  7  1  0  0  0  0
 14 70  1  6  0  0  0
 15  8  1  0  0  0  0
 15 38  1  0  0  0  0
 15 71  1  1  0  0  0
 16  9  1  0  0  0  0
 16 42  1  0  0  0  0
 16 72  1  6  0  0  0
 17 12  1  0  0  0  0
 17 43  1  0  0  0  0
 17 73  1  6  0  0  0
 18 15  1  0  0  0  0
 18 44  1  0  0  0  0
 18 74  1  6  0  0  0
 19 16  1  0  0  0  0
 19 45  1  0  0  0  0
 19 75  1  1  0  0  0
 20 17  1  0  0  0  0
 20 46  1  0  0  0  0
 20 76  1  1  0  0  0
 21 47  1  0  0  0  0
 21 77  1  1  0  0  0
 22 48  1  0  0  0  0
 22 78  1  6  0  0  0
 23 49  1  0  0  0  0
 23 79  1  6  0  0  0
 24 21  1  0  0  0  0
 24 50  1  0  0  0  0
 24 80  1  6  0  0  0
 25 18  1  0  0  0  0
 25 51  1  0  0  0  0
 25 81  1  1  0  0  0
 26 19  1  0  0  0  0
 26 52  1  0  0  0  0
 26 82  1  6  0  0  0
 27 22  1  0  0  0  0
 27 53  1  0  0  0  0
 27 83  1  1  0  0  0
 28 23  1  0  0  0  0
 28 54  1  0  0  0  0
 28 84  1  1  0  0  0
 29 10  1  0  0  0  0
 29 21  1  0  0  0  0
 29 61  1  0  0  0  0
 29 85  1  6  0  0  0
 30 11  1  0  0  0  0
 30 20  1  0  0  0  0
 30 62  1  0  0  0  0
 30 86  1  6  0  0  0
 31 13  1  0  0  0  0
 31 22  1  0  0  0  0
 31 63  1  0  0  0  0
 31 87  1  1  0  0  0
 32 14  1  0  0  0  0
 32 23  1  0  0  0  0
 32 64  1  0  0  0  0
 32 88  1  1  0  0  0
 33 24  1  0  0  0  0
 33 55  1  0  0  0  0
 33 89  1  1  0  0  0
 34 25  1  0  0  0  0
 34 63  1  0  0  0  0
 34 90  1  1  0  0  0
 35 26  1  0  0  0  0
 35 64  1  0  0  0  0
 35 91  1  6  0  0  0
 36 27  1  0  0  0  0
 36 61  1  0  0  0  0
 36 92  1  1  0  0  0
 37 28  1  0  0  0  0
 37 62  1  0  0  0  0
 37 93  1  1  0  0  0
 38110  1  0  0  0  0
 39  5  1  0  0  0  0
 39111  1  0  0  0  0
 40  6  1  0  0  0  0
 40112  1  0  0  0  0
 41  7  1  0  0  0  0
 41113  1  0  0  0  0
 42114  1  0  0  0  0
 43115  1  0  0  0  0
 44116  1  0  0  0  0
 45117  1  0  0  0  0
 46118  1  0  0  0  0
 47119  1  0  0  0  0
 48120  1  0  0  0  0
 49121  1  0  0  0  0
 50122  1  0  0  0  0
 51123  1  0  0  0  0
 52124  1  0  0  0  0
 53125  1  0  0  0  0
 54126  1  0  0  0  0
 55127  1  0  0  0  0
 56 10  1  0  0  0  0
 56 33  1  0  0  0  0
 57  8  1  0  0  0  0
 57 34  1  0  0  0  0
 58  9  1  0  0  0  0
 58 35  1  0  0  0  0
 59 13  1  0  0  0  0
 59 36  1  0  0  0  0
 60 14  1  0  0  0  0
 60 37  1  0  0  0  0
M  END
>  <DRUGBANK_ID>
DB03617

>  <SECONDARY_ACCESSION_NUMBERS>
EXPT00392

>  <COMMON_NAME>
Modified Acarbose Hexasaccharide

$$$$
