MRA
 OpenBabel10282417072D

 38 39  0  0  0  0  0  0  0  0999 V2000
   -2.1880   -2.2391    0.0000 C   0  0  0  0  0  0  0  0  0  0  0  0
   -1.4735   -1.8266    0.0000 C   0  0  0  0  0  0  0  0  0  0  0  0
   -1.4735   -1.0016    0.0000 C   0  0  0  0  0  0  0  0  0  0  0  0
   -2.1880   -0.5891    0.0000 C   0  0  0  0  0  0  0  0  0  0  0  0
   -2.9024   -1.0016    0.0000 C   0  0  0  0  0  0  0  0  0  0  0  0
   -2.9024   -1.8266    0.0000 C   0  0  0  0  0  0  0  0  0  0  0  0
   -3.6169   -2.2391    0.0000 C   0  0  0  0  0  0  0  0  0  0  0  0
   -4.3314   -2.6516    0.0000 C   0  0  0  0  0  0  0  0  0  0  0  0
   -0.7590   -0.5891    0.0000 N   0  0  0  0  0  0  0  0  0  0  0  0
   -0.7590    0.2359    0.0000 C   0  0  0  0  0  0  0  0  0  0  0  0
   -0.0446    0.6484    0.0000 C   0  0  0  0  0  0  0  0  0  0  0  0
   -0.0446    1.4734    0.0000 C   0  0  0  0  0  0  0  0  0  0  0  0
   -0.7590    1.8859    0.0000 C   0  0  0  0  0  0  0  0  0  0  0  0
   -1.4735    1.4734    0.0000 C   0  0  0  0  0  0  0  0  0  0  0  0
   -1.4735    0.6484    0.0000 C   0  0  0  0  0  0  0  0  0  0  0  0
   -2.1880    0.2359    0.0000 F   0  0  0  0  0  0  0  0  0  0  0  0
   -2.1880    1.8859    0.0000 F   0  0  0  0  0  0  0  0  0  0  0  0
    0.6699    0.2359    0.0000 C   0  0  0  0  0  0  0  0  0  0  0  0
    0.6699   -0.5891    0.0000 O   0  0  0  0  0  0  0  0  0  0  0  0
    1.3844    0.6484    0.0000 N   0  0  0  0  0  0  0  0  0  0  0  0
    2.0989    0.2359    0.0000 O   0  0  0  0  0  0  0  0  0  0  0  0
    2.8133    0.6484    0.0000 C   0  0  0  0  0  0  0  0  0  0  0  0
    3.5278    0.2359    0.0000 C   0  0  0  0  0  0  0  0  0  0  0  0
    4.2423    0.6484    0.0000 O   0  0  0  0  0  0  0  0  0  0  0  0
   -0.7590   -2.2391    0.0000 F   0  0  0  0  0  0  0  0  0  0  0  0
   -2.1880   -3.2711    0.0000 H   0  0  0  0  0  0  0  0  0  0  0  0
   -2.1880    0.4429    0.0000 H   0  0  0  0  0  0  0  0  0  0  0  0
   -3.7961   -0.4856    0.0000 H   0  0  0  0  0  0  0  0  0  0  0  0
   -5.1922   -3.1486    0.0000 H   0  0  0  0  0  0  0  0  0  0  0  0
    0.0936   -1.0814    0.0000 H   0  0  0  0  0  0  0  0  0  0  0  0
    0.8491    1.9894    0.0000 H   0  0  0  0  0  0  0  0  0  0  0  0
   -0.7590    2.9179    0.0000 H   0  0  0  0  0  0  0  0  0  0  0  0
    1.3844    1.6329    0.0000 H   0  0  0  0  0  0  0  0  0  0  0  0
    2.8133    1.7184    0.0000 H   0  0  0  0  0  0  0  0  0  0  0  0
    3.7399    1.1834    0.0000 H   0  0  0  0  0  0  0  0  0  0  0  0
    3.5278   -0.8341    0.0000 H   0  0  0  0  0  0  0  0  0  0  0  0
    4.4544   -0.2991    0.0000 H   0  0  0  0  0  0  0  0  0  0  0  0
    5.0823    0.1634    0.0000 H   0  0  0  0  0  0  0  0  0  0  0  0
  1  2  2  0  0  0  0
  1  6  1  0  0  0  0
  1 26  1  0  0  0  0
  2 25  1  0  0  0  0
  2  3  1  0  0  0  0
  3  9  1  0  0  0  0
  3  4  2  0  0  0  0
  4  5  1  0  0  0  0
  4 27  1  0  0  0  0
  5  6  2  0  0  0  0
  5 28  1  0  0  0  0
  6  7  1  0  0  0  0
  7  8  3  0  0  0  0
  8 29  1  0  0  0  0
  9 10  1  0  0  0  0
  9 30  1  0  0  0  0
 10 15  2  0  0  0  0
 10 11  1  0  0  0  0
 11 18  1  0  0  0  0
 11 12  2  0  0  0  0
 12 13  1  0  0  0  0
 12 31  1  0  0  0  0
 13 14  2  0  0  0  0
 13 32  1  0  0  0  0
 14 15  1  0  0  0  0
 14 17  1  0  0  0  0
 15 16  1  0  0  0  0
 18 19  2  0  0  0  0
 18 20  1  0  0  0  0
 20 21  1  0  0  0  0
 20 33  1  0  0  0  0
 21 22  1  0  0  0  0
 22 23  1  0  0  0  0
 22 34  1  0  0  0  0
 22 35  1  0  0  0  0
 23 24  1  0  0  0  0
 23 36  1  0  0  0  0
 23 37  1  0  0  0  0
 24 38  1  0  0  0  0
M  END
>  <DRUGBANK_ID>
DB08208

>  <COMMON_NAME>
2-[(4-ETHYNYL-2-FLUOROPHENYL)AMINO]-3,4-DIFLUORO-N-(2-HYDROXYETHOXY)BENZAMIDE

$$$$
