
 OpenBabel10282417072D

 18 16  0  0  0  0  0  0  0  0999 V2000
    3.7125   -0.7145    0.0000 C   0  0  0  0  0  0  0  0  0  0  0  0
    2.4750   -1.4289    0.0000 C   0  0  0  0  0  0  0  0  0  0  0  0
    2.8875   -0.7145    0.0000 C   0  0  0  0  0  0  0  0  0  0  0  0
    4.1250   -1.4289    0.0000 O   0  0  0  0  0  0  0  0  0  0  0  0
    2.8875   -2.1434    0.0000 O   0  0  0  0  0  0  0  0  0  0  0  0
    0.8250    0.0000    0.0000 O   0  5  0  0  0  0  0  0  0  0  0  0
    1.6500    0.8250    0.0000 O   0  5  0  0  0  0  0  0  0  0  0  0
    1.6500   -0.8250    0.0000 O   0  0  0  0  0  0  0  0  0  0  0  0
    2.4750    0.0000    0.0000 O   0  0  0  0  0  0  0  0  0  0  0  0
    1.6500    0.0000    0.0000 P   0  0  0  0  0  0  0  0  0  0  0  0
    0.0000    0.0000    0.0000 Ca  0  2  0  0  0  0  0  0  0  0  0  0
    4.2475    0.2122    0.0000 H   0  0  0  0  0  0  0  0  0  0  0  0
    4.7825   -0.7145    0.0000 H   0  0  0  0  0  0  0  0  0  0  0  0
    1.4050   -1.4289    0.0000 H   0  0  0  0  0  0  0  0  0  0  0  0
    1.9400   -2.3555    0.0000 H   0  0  0  0  0  0  0  0  0  0  0  0
    1.8175   -0.7145    0.0000 H   0  0  0  0  0  0  0  0  0  0  0  0
    3.6400   -2.2690    0.0000 H   0  0  0  0  0  0  0  0  0  0  0  0
    2.4025   -2.9834    0.0000 H   0  0  0  0  0  0  0  0  0  0  0  0
  1 12  1  0  0  0  0
  1 13  1  0  0  0  0
  2 14  1  0  0  0  0
  2 15  1  0  0  0  0
  3  1  1  0  0  0  0
  3  2  1  0  0  0  0
  3 16  1  0  0  0  0
  4  1  1  0  0  0  0
  4 17  1  0  0  0  0
  5  2  1  0  0  0  0
  5 18  1  0  0  0  0
  9  3  1  0  0  0  0
 10  6  1  0  0  0  0
 10  7  1  0  0  0  0
 10  8  2  0  0  0  0
 10  9  1  0  0  0  0
M  CHG  3   6  -1   7  -1  11   2
M  END
>  <DRUGBANK_ID>
DB11264

>  <SECONDARY_ACCESSION_NUMBERS>
DBSALT002553

>  <COMMON_NAME>
Calcium glycerophosphate

>  <CAS_NUMBER>
27214-00-2

>  <UNII>
Y56W30YB7O

>  <SYNONYMS>
1,2,3-Propanetriol, mono(dihydrogen phosphate) calcium salt; 1,2,3-Propanetriol, mono(dihydrogen phosphate), calcium salt; Calcium beta-glycerophosphate; calcium β-glycerophosphate; β-glycerophosphoric acid calcium salt

$$$$
