
 OpenBabel10282417072D

 68 72  0  0  0  0  0  0  0  0999 V2000
   -1.8497   -1.7522    0.0000 F   0  0  0  0  0  0  0  0  0  0  0  0
    0.9016    0.8319    0.0000 O   0  0  0  0  0  0  0  0  0  0  0  0
   -2.4074    0.4043    0.0000 O   0  0  0  0  0  0  0  0  0  0  0  0
   -0.4089    1.7614    0.0000 O   0  0  0  0  0  0  0  0  0  0  0  0
    1.7568    1.3338    0.0000 O   0  0  0  0  0  0  0  0  0  0  0  0
   -4.6476   -2.5979    0.0000 O   0  0  0  0  0  0  0  0  0  0  0  0
    2.4725    2.5979    0.0000 O   0  0  0  0  0  0  0  0  0  0  0  0
    4.6476    0.4787    0.0000 N   0  0  0  0  0  0  0  0  0  0  0  0
   -0.4089   -0.9899    0.0000 C   0  0  1  0  0  0  0  0  0  0  0  0
   -1.1339   -1.3710    0.0000 C   0  0  1  0  0  0  0  0  0  0  0  0
   -0.4089   -0.1440    0.0000 C   0  0  1  0  0  0  0  0  0  0  0  0
   -1.8497   -0.9899    0.0000 C   0  0  2  0  0  0  0  0  0  0  0  0
    0.3067    0.2370    0.0000 C   0  0  1  0  0  0  0  0  0  0  0  0
   -2.5283   -1.3710    0.0000 C   0  0  2  0  0  0  0  0  0  0  0  0
   -1.8497   -0.1440    0.0000 C   0  0  2  0  0  0  0  0  0  0  0  0
   -1.1339    0.2370    0.0000 C   0  0  0  0  0  0  0  0  0  0  0  0
    1.0317   -0.9899    0.0000 C   0  0  0  0  0  0  0  0  0  0  0  0
    1.0317   -0.1440    0.0000 C   0  0  1  0  0  0  0  0  0  0  0  0
   -1.1339   -2.1703    0.0000 C   0  0  0  0  0  0  0  0  0  0  0  0
   -2.5283   -2.1703    0.0000 C   0  0  0  0  0  0  0  0  0  0  0  0
    0.3067    1.3431    0.0000 C   0  0  0  0  0  0  0  0  0  0  0  0
   -0.4089    0.6646    0.0000 C   0  0  0  0  0  0  0  0  0  0  0  0
   -1.8497   -2.5979    0.0000 C   0  0  0  0  0  0  0  0  0  0  0  0
   -3.2533   -0.9899    0.0000 C   0  0  0  0  0  0  0  0  0  0  0  0
   -2.5283   -0.5623    0.0000 C   0  0  0  0  0  0  0  0  0  0  0  0
   -3.2533   -2.5979    0.0000 C   0  0  0  0  0  0  0  0  0  0  0  0
    1.7381    0.2835    0.0000 C   0  0  0  0  0  0  0  0  0  0  0  0
    1.0317    1.7521    0.0000 C   0  0  0  0  0  0  0  0  0  0  0  0
   -3.9691   -1.3710    0.0000 C   0  0  0  0  0  0  0  0  0  0  0  0
   -3.9691   -2.1703    0.0000 C   0  0  0  0  0  0  0  0  0  0  0  0
    2.4725    1.7427    0.0000 C   0  0  0  0  0  0  0  0  0  0  0  0
    3.1882    1.3245    0.0000 C   0  0  0  0  0  0  0  0  0  0  0  0
    3.1789    0.4787    0.0000 C   0  0  0  0  0  0  0  0  0  0  0  0
    3.9226    1.7427    0.0000 C   0  0  0  0  0  0  0  0  0  0  0  0
    3.9132    0.0604    0.0000 C   0  0  0  0  0  0  0  0  0  0  0  0
    4.6476    1.3245    0.0000 C   0  0  0  0  0  0  0  0  0  0  0  0
   -0.4089   -1.7522    0.0000 H   0  0  0  0  0  0  0  0  0  0  0  0
   -1.1339   -0.5623    0.0000 H   0  0  0  0  0  0  0  0  0  0  0  0
    1.8385    0.5808    0.0000 H   0  0  0  0  0  0  0  0  0  0  0  0
   -2.1643    1.3433    0.0000 H   0  0  0  0  0  0  0  0  0  0  0  0
   -2.8365   -0.5577    0.0000 H   0  0  0  0  0  0  0  0  0  0  0  0
   -1.1367    1.3070    0.0000 H   0  0  0  0  0  0  0  0  0  0  0  0
   -2.0519    0.7867    0.0000 H   0  0  0  0  0  0  0  0  0  0  0  0
    1.7883   -1.7465    0.0000 H   0  0  0  0  0  0  0  0  0  0  0  0
    2.0203   -0.5804    0.0000 H   0  0  0  0  0  0  0  0  0  0  0  0
    0.9994    0.9255    0.0000 H   0  0  0  0  0  0  0  0  0  0  0  0
   -0.2033   -2.6984    0.0000 H   0  0  0  0  0  0  0  0  0  0  0  0
   -1.1220   -3.2402    0.0000 H   0  0  0  0  0  0  0  0  0  0  0  0
    0.5177    1.1996    0.0000 H   0  0  0  0  0  0  0  0  0  0  0  0
   -1.3355    1.1996    0.0000 H   0  0  0  0  0  0  0  0  0  0  0  0
   -0.4089    1.7346    0.0000 H   0  0  0  0  0  0  0  0  0  0  0  0
   -1.8624   -3.6678    0.0000 H   0  0  0  0  0  0  0  0  0  0  0  0
   -2.7896   -3.1093    0.0000 H   0  0  0  0  0  0  0  0  0  0  0  0
   -3.2560    0.0421    0.0000 H   0  0  0  0  0  0  0  0  0  0  0  0
   -1.6017   -0.0273    0.0000 H   0  0  0  0  0  0  0  0  0  0  0  0
   -3.4549   -0.0273    0.0000 H   0  0  0  0  0  0  0  0  0  0  0  0
   -2.5283    0.5077    0.0000 H   0  0  0  0  0  0  0  0  0  0  0  0
   -3.2562   -3.6299    0.0000 H   0  0  0  0  0  0  0  0  0  0  0  0
    2.6756   -0.2323    0.0000 H   0  0  0  0  0  0  0  0  0  0  0  0
    1.7160    1.3533    0.0000 H   0  0  0  0  0  0  0  0  0  0  0  0
    2.6535    0.8375    0.0000 H   0  0  0  0  0  0  0  0  0  0  0  0
    1.0368    2.8221    0.0000 H   0  0  0  0  0  0  0  0  0  0  0  0
    0.1090    2.2939    0.0000 H   0  0  0  0  0  0  0  0  0  0  0  0
   -4.8538   -0.8397    0.0000 H   0  0  0  0  0  0  0  0  0  0  0  0
    2.2838   -0.0350    0.0000 H   0  0  0  0  0  0  0  0  0  0  0  0
    3.9255    2.7747    0.0000 H   0  0  0  0  0  0  0  0  0  0  0  0
    3.9132   -0.9716    0.0000 H   0  0  0  0  0  0  0  0  0  0  0  0
    5.5412    1.8407    0.0000 H   0  0  0  0  0  0  0  0  0  0  0  0
  2 39  1  0  0  0  0
  3 40  1  0  0  0  0
  4 21  2  0  0  0  0
  5 28  1  0  0  0  0
  5 31  1  0  0  0  0
  6 30  2  0  0  0  0
  7 31  2  0  0  0  0
  8 35  2  0  0  0  0
  8 36  1  0  0  0  0
  9 10  1  0  0  0  0
  9 11  1  0  0  0  0
  9 17  1  0  0  0  0
  9 37  1  6  0  0  0
 10 12  1  0  0  0  0
 10 19  1  0  0  0  0
 10 38  1  1  0  0  0
 11 13  1  0  0  0  0
 11 16  1  0  0  0  0
 11 22  1  1  0  0  0
 12  1  1  6  0  0  0
 12 14  1  0  0  0  0
 12 15  1  0  0  0  0
 13  2  1  6  0  0  0
 13 18  1  0  0  0  0
 13 21  1  0  0  0  0
 14 20  1  0  0  0  0
 14 24  1  0  0  0  0
 14 25  1  1  0  0  0
 15  3  1  0  0  0  0
 15 16  1  0  0  0  0
 15 41  1  6  0  0  0
 16 42  1  0  0  0  0
 16 43  1  0  0  0  0
 17 18  1  0  0  0  0
 17 44  1  0  0  0  0
 17 45  1  0  0  0  0
 18 27  1  0  0  0  0
 18 46  1  1  0  0  0
 19 23  1  0  0  0  0
 19 47  1  0  0  0  0
 19 48  1  0  0  0  0
 20 23  1  0  0  0  0
 20 26  2  0  0  0  0
 21 28  1  0  0  0  0
 22 49  1  0  0  0  0
 22 50  1  0  0  0  0
 22 51  1  0  0  0  0
 23 52  1  0  0  0  0
 23 53  1  0  0  0  0
 24 29  2  0  0  0  0
 24 54  1  0  0  0  0
 25 55  1  0  0  0  0
 25 56  1  0  0  0  0
 25 57  1  0  0  0  0
 26 30  1  0  0  0  0
 26 58  1  0  0  0  0
 27 59  1  0  0  0  0
 27 60  1  0  0  0  0
 27 61  1  0  0  0  0
 28 62  1  0  0  0  0
 28 63  1  0  0  0  0
 29 30  1  0  0  0  0
 29 64  1  0  0  0  0
 31 32  1  0  0  0  0
 32 33  2  0  0  0  0
 32 34  1  0  0  0  0
 33 35  1  0  0  0  0
 33 65  1  0  0  0  0
 34 36  2  0  0  0  0
 34 66  1  0  0  0  0
 35 67  1  0  0  0  0
 36 68  1  0  0  0  0
M  END
>  <DRUGBANK_ID>
DB11487

>  <COMMON_NAME>
Dexamethasone isonicotinate

>  <CAS_NUMBER>
2265-64-7

>  <UNII>
8LGC0BOA71

>  <SYNONYMS>
Dexamethasone 21-(4-Pyridinecarboxylate); Dexamethasone-21-isonicotinate

$$$$
