PO1
 OpenBabel10282417072D

 58 61  0  0  0  0  0  0  0  0999 V2000
    2.5246   -0.3523    0.0000 C   0  0  0  0  0  0  0  0  0  0  0  0
    2.2443    0.4236    0.0000 C   0  0  0  0  0  0  0  0  0  0  0  0
    3.8973   -2.0494    0.0000 O   0  0  0  0  0  0  0  0  0  0  0  0
    3.6170   -1.2734    0.0000 S   0  0  0  0  0  0  0  0  0  0  0  0
    4.3930   -0.9931    0.0000 O   0  0  0  0  0  0  0  0  0  0  0  0
    2.8411   -1.5537    0.0000 N   0  0  0  0  0  0  0  0  0  0  0  0
    3.3367   -0.4975    0.0000 O   0  0  0  0  0  0  0  0  0  0  0  0
    1.4322    0.5688    0.0000 C   0  0  0  0  0  0  0  0  0  0  0  0
    0.9004   -0.0619    0.0000 C   0  0  0  0  0  0  0  0  0  0  0  0
    1.1807   -0.8378    0.0000 C   0  0  0  0  0  0  0  0  0  0  0  0
    1.9928   -0.9830    0.0000 C   0  0  0  0  0  0  0  0  0  0  0  0
    2.7761    1.0543    0.0000 O   0  0  0  0  0  0  0  0  0  0  0  0
    2.4958    1.8303    0.0000 C   0  0  0  0  0  0  0  0  0  0  0  0
    0.0883    0.0833    0.0000 C   0  0  2  0  0  0  0  0  0  0  0  0
   -0.4435   -0.5474    0.0000 C   0  0  1  0  0  0  0  0  0  0  0  0
   -0.1632   -1.3233    0.0000 C   0  0  0  0  0  0  0  0  0  0  0  0
    0.6489   -1.4685    0.0000 C   0  0  0  0  0  0  0  0  0  0  0  0
   -0.1920    0.8593    0.0000 C   0  0  0  0  0  0  0  0  0  0  0  0
   -1.0041    1.0045    0.0000 C   0  0  0  0  0  0  0  0  0  0  0  0
   -1.5360    0.3738    0.0000 C   0  0  2  0  0  0  0  0  0  0  0  0
   -1.2557   -0.4021    0.0000 C   0  0  1  0  0  0  0  0  0  0  0  0
   -1.8958    1.1161    0.0000 C   0  0  0  0  0  0  0  0  0  0  0  0
   -2.3605    0.3470    0.0000 C   0  0  2  0  0  0  0  0  0  0  0  0
   -2.5898   -0.4455    0.0000 C   0  0  0  0  0  0  0  0  0  0  0  0
   -1.9070   -0.9085    0.0000 C   0  0  0  0  0  0  0  0  0  0  0  0
   -2.8669    0.9983    0.0000 O   0  0  0  0  0  0  0  0  0  0  0  0
   -3.6841    0.8854    0.0000 S   0  0  0  0  0  0  0  0  0  0  0  0
   -4.5014    0.7726    0.0000 O   0  0  0  0  0  0  0  0  0  0  0  0
   -3.7970    1.7027    0.0000 O   0  0  0  0  0  0  0  0  0  0  0  0
   -3.5713    0.0682    0.0000 N   0  0  0  0  0  0  0  0  0  0  0  0
    0.4647    0.5298    0.0000 H   0  0  0  0  0  0  0  0  0  0  0  0
   -0.8200   -0.9938    0.0000 H   0  0  0  0  0  0  0  0  0  0  0  0
   -1.1158   -0.9691    0.0000 H   0  0  0  0  0  0  0  0  0  0  0  0
   -2.1125    0.8756    0.0000 H   0  0  0  0  0  0  0  0  0  0  0  0
    2.0613   -0.8962    0.0000 H   0  0  0  0  0  0  0  0  0  0  0  0
    2.6616   -2.5578    0.0000 H   0  0  0  0  0  0  0  0  0  0  0  0
    1.0816    1.5394    0.0000 H   0  0  0  0  0  0  0  0  0  0  0  0
    2.3434   -1.9536    0.0000 H   0  0  0  0  0  0  0  0  0  0  0  0
    3.1856    2.6483    0.0000 H   0  0  0  0  0  0  0  0  0  0  0  0
    1.4425    2.0187    0.0000 H   0  0  0  0  0  0  0  0  0  0  0  0
    2.1323    2.8367    0.0000 H   0  0  0  0  0  0  0  0  0  0  0  0
   -0.8529   -2.1413    0.0000 H   0  0  0  0  0  0  0  0  0  0  0  0
    0.2004   -2.3296    0.0000 H   0  0  0  0  0  0  0  0  0  0  0  0
    1.0125   -2.4748    0.0000 H   0  0  0  0  0  0  0  0  0  0  0  0
   -0.0408   -2.2865    0.0000 H   0  0  0  0  0  0  0  0  0  0  0  0
    0.4978    1.6773    0.0000 H   0  0  0  0  0  0  0  0  0  0  0  0
   -0.5555    1.8656    0.0000 H   0  0  0  0  0  0  0  0  0  0  0  0
   -1.3676    2.0109    0.0000 H   0  0  0  0  0  0  0  0  0  0  0  0
   -2.0574    1.1929    0.0000 H   0  0  0  0  0  0  0  0  0  0  0  0
   -1.2953    2.0017    0.0000 H   0  0  0  0  0  0  0  0  0  0  0  0
   -2.9630    1.1933    0.0000 H   0  0  0  0  0  0  0  0  0  0  0  0
   -2.3625    2.0790    0.0000 H   0  0  0  0  0  0  0  0  0  0  0  0
   -3.5962   -0.8090    0.0000 H   0  0  0  0  0  0  0  0  0  0  0  0
   -2.7228   -1.5072    0.0000 H   0  0  0  0  0  0  0  0  0  0  0  0
   -1.8722   -1.9779    0.0000 H   0  0  0  0  0  0  0  0  0  0  0  0
   -2.8441   -1.4250    0.0000 H   0  0  0  0  0  0  0  0  0  0  0  0
   -4.3766   -0.5578    0.0000 H   0  0  0  0  0  0  0  0  0  0  0  0
   -2.6265   -0.3162    0.0000 H   0  0  0  0  0  0  0  0  0  0  0  0
  1  2  1  0  0  0  0
  1  7  1  0  0  0  0
  1 11  2  0  0  0  0
  2  8  2  0  0  0  0
  2 12  1  0  0  0  0
  3  4  2  0  0  0  0
  4  5  2  0  0  0  0
  4  6  1  0  0  0  0
  4  7  1  0  0  0  0
  6 35  1  0  0  0  0
  6 36  1  0  0  0  0
  8  9  1  0  0  0  0
  8 37  1  0  0  0  0
  9 10  2  0  0  0  0
  9 14  1  0  0  0  0
 10 11  1  0  0  0  0
 10 17  1  0  0  0  0
 11 38  1  0  0  0  0
 12 13  1  0  0  0  0
 13 39  1  0  0  0  0
 13 40  1  0  0  0  0
 13 41  1  0  0  0  0
 14 15  1  0  0  0  0
 14 18  1  0  0  0  0
 14 31  1  1  0  0  0
 15 16  1  0  0  0  0
 15 21  1  0  0  0  0
 15 32  1  6  0  0  0
 16 17  1  0  0  0  0
 16 42  1  0  0  0  0
 16 43  1  0  0  0  0
 17 44  1  0  0  0  0
 17 45  1  0  0  0  0
 18 19  1  0  0  0  0
 18 46  1  0  0  0  0
 18 47  1  0  0  0  0
 19 20  1  0  0  0  0
 19 48  1  0  0  0  0
 19 49  1  0  0  0  0
 20 21  1  0  0  0  0
 20 22  1  6  0  0  0
 20 23  1  0  0  0  0
 21 25  1  0  0  0  0
 21 33  1  1  0  0  0
 22 50  1  0  0  0  0
 22 51  1  0  0  0  0
 22 52  1  0  0  0  0
 23 24  1  0  0  0  0
 23 26  1  0  0  0  0
 23 34  1  1  0  0  0
 24 25  1  0  0  0  0
 24 53  1  0  0  0  0
 24 54  1  0  0  0  0
 25 55  1  0  0  0  0
 25 56  1  0  0  0  0
 26 27  1  0  0  0  0
 27 28  2  0  0  0  0
 27 29  2  0  0  0  0
 27 30  1  0  0  0  0
 30 57  1  0  0  0  0
 30 58  1  0  0  0  0
M  END
>  <DRUGBANK_ID>
DB08416

>  <COMMON_NAME>
(9BETA,13ALPHA,14BETA,17ALPHA)-2-METHOXYESTRA-1,3,5(10)-TRIENE-3,17-DIYL DISULFAMATE

>  <UNII>
S57SQE6LE5

$$$$
