ME1
 OpenBabel10282417072D

 43 45  0  0  0  0  0  0  0  0999 V2000
    5.0624    3.1115    0.0000 C   0  0  0  0  0  0  0  0  0  0  0  0
    4.6499    2.3970    0.0000 C   0  0  0  0  0  0  0  0  0  0  0  0
    3.8430    2.5686    0.0000 C   0  0  0  0  0  0  0  0  0  0  0  0
    1.6133    3.8015    0.0000 C   0  0  0  0  0  0  0  0  0  0  0  0
    0.8989    3.3890    0.0000 C   0  0  0  0  0  0  0  0  0  0  0  0
   -0.5301    3.3890    0.0000 C   0  0  0  0  0  0  0  0  0  0  0  0
   -1.2446    3.8015    0.0000 C   0  0  0  0  0  0  0  0  0  0  0  0
   -1.9590    3.3890    0.0000 C   0  0  0  0  0  0  0  0  0  0  0  0
   -2.6735    3.8015    0.0000 C   0  0  0  0  0  0  0  0  0  0  0  0
   -1.2446    4.6265    0.0000 C   0  0  0  0  0  0  0  0  0  0  0  0
   -4.1024    4.6265    0.0000 C   0  0  0  0  0  0  0  0  0  0  0  0
   -4.8169    5.0390    0.0000 C   0  0  0  0  0  0  0  0  0  0  0  0
   -4.1024    6.2765    0.0000 C   0  0  0  0  0  0  0  0  0  0  0  0
    3.7567    3.3890    0.0000 C   0  0  0  0  0  0  0  0  0  0  0  0
    4.5104    3.7246    0.0000 S   0  0  0  0  0  0  0  0  0  0  0  0
    3.0423    3.8015    0.0000 C   0  0  0  0  0  0  0  0  0  0  0  0
    3.0423    4.6265    0.0000 O   0  0  0  0  0  0  0  0  0  0  0  0
    2.3278    3.3890    0.0000 N   0  0  0  0  0  0  0  0  0  0  0  0
    0.1844    3.8015    0.0000 N   0  0  0  0  0  0  0  0  0  0  0  0
   -0.5301    2.5640    0.0000 O   0  0  0  0  0  0  0  0  0  0  0  0
   -2.6735    4.6265    0.0000 C   0  0  0  0  0  0  0  0  0  0  0  0
   -1.9590    5.0390    0.0000 C   0  0  0  0  0  0  0  0  0  0  0  0
   -3.3880    5.0390    0.0000 N   0  0  0  0  0  0  0  0  0  0  0  0
   -4.8169    5.8640    0.0000 C   0  0  0  0  0  0  0  0  0  0  0  0
   -3.3880    5.8640    0.0000 C   0  0  0  0  0  0  0  0  0  0  0  0
   -2.6735    6.2765    0.0000 O   0  0  0  0  0  0  0  0  0  0  0  0
    5.8829    3.1977    0.0000 Cl  0  0  0  0  0  0  0  0  0  0  0  0
    5.0696    1.4542    0.0000 H   0  0  0  0  0  0  0  0  0  0  0  0
    3.0761    1.8781    0.0000 H   0  0  0  0  0  0  0  0  0  0  0  0
    1.6133    4.8715    0.0000 H   0  0  0  0  0  0  0  0  0  0  0  0
    2.5399    4.3365    0.0000 H   0  0  0  0  0  0  0  0  0  0  0  0
    0.8989    2.3190    0.0000 H   0  0  0  0  0  0  0  0  0  0  0  0
   -0.0277    2.8540    0.0000 H   0  0  0  0  0  0  0  0  0  0  0  0
   -1.9590    2.3570    0.0000 H   0  0  0  0  0  0  0  0  0  0  0  0
   -3.5672    3.2855    0.0000 H   0  0  0  0  0  0  0  0  0  0  0  0
   -0.3509    5.1425    0.0000 H   0  0  0  0  0  0  0  0  0  0  0  0
   -4.1024    3.5945    0.0000 H   0  0  0  0  0  0  0  0  0  0  0  0
   -5.7106    4.5230    0.0000 H   0  0  0  0  0  0  0  0  0  0  0  0
   -4.1024    7.3085    0.0000 H   0  0  0  0  0  0  0  0  0  0  0  0
    2.3278    2.4045    0.0000 H   0  0  0  0  0  0  0  0  0  0  0  0
    0.1844    4.7860    0.0000 H   0  0  0  0  0  0  0  0  0  0  0  0
   -1.9590    6.0710    0.0000 H   0  0  0  0  0  0  0  0  0  0  0  0
   -5.7106    6.3800    0.0000 H   0  0  0  0  0  0  0  0  0  0  0  0
  1  2  2  0  0  0  0
  1 27  1  0  0  0  0
  1 15  1  0  0  0  0
  2  3  1  0  0  0  0
  2 28  1  0  0  0  0
  3 14  2  0  0  0  0
  3 29  1  0  0  0  0
  4  5  1  0  0  0  0
  4 18  1  0  0  0  0
  4 30  1  0  0  0  0
  4 31  1  0  0  0  0
  5 19  1  0  0  0  0
  5 32  1  0  0  0  0
  5 33  1  0  0  0  0
  6  7  1  0  0  0  0
  6 20  2  0  0  0  0
  6 19  1  0  0  0  0
  7  8  2  0  0  0  0
  7 10  1  0  0  0  0
  8  9  1  0  0  0  0
  8 34  1  0  0  0  0
  9 21  2  0  0  0  0
  9 35  1  0  0  0  0
 10 22  2  0  0  0  0
 10 36  1  0  0  0  0
 11 12  2  0  0  0  0
 11 23  1  0  0  0  0
 11 37  1  0  0  0  0
 12 24  1  0  0  0  0
 12 38  1  0  0  0  0
 13 24  2  0  0  0  0
 13 25  1  0  0  0  0
 13 39  1  0  0  0  0
 14 16  1  0  0  0  0
 14 15  1  0  0  0  0
 16 17  2  0  0  0  0
 16 18  1  0  0  0  0
 18 40  1  0  0  0  0
 19 41  1  0  0  0  0
 21 23  1  0  0  0  0
 21 22  1  0  0  0  0
 22 42  1  0  0  0  0
 23 25  1  0  0  0  0
 24 43  1  0  0  0  0
 25 26  2  0  0  0  0
M  END
>  <DRUGBANK_ID>
DB08173

>  <COMMON_NAME>
5-CHLORO-N-(2-(4-(2-OXOPYRIDIN-1(2H)-YL)BENZAMIDO)ETHYL)THIOPHENE-2-CARBOXAMIDE

$$$$
