
 OpenBabel10282417072D

123123  0  0  1  0  0  0  0  0999 V2000
   -2.1434   -2.0625    0.0000 Al  0  1  0  0  0  0  0  0  0  0  0  0
    0.7145    3.7125    0.0000 C   0  0  0  0  0  0  0  0  0  0  0  0
    0.0000    3.3000    0.0000 C   0  0  0  0  0  0  0  0  0  0  0  0
   -0.7145    3.7125    0.0000 C   0  0  0  0  0  0  0  0  0  0  0  0
    0.0000    2.4750    0.0000 C   0  0  0  0  0  0  0  0  0  0  0  0
    0.7145    2.0625    0.0000 C   0  0  2  0  0  0  0  0  0  0  0  0
    0.7145    1.2375    0.0000 N   0  0  0  0  0  0  0  0  0  0  0  0
    0.0000    0.8250    0.0000 C   0  0  0  0  0  0  0  0  0  0  0  0
   -0.7145    1.2375    0.0000 O   0  0  0  0  0  0  0  0  0  0  0  0
   -0.0000    0.0000    0.0000 C   0  0  2  0  0  0  0  0  0  0  0  0
   -0.7145   -0.4125    0.0000 C   0  0  0  0  0  0  0  0  0  0  0  0
   -1.4289    0.0000    0.0000 C   0  0  0  0  0  0  0  0  0  0  0  0
   -2.1434   -0.4125    0.0000 N   0  0  0  0  0  0  0  0  0  0  0  0
   -1.4289    0.8250    0.0000 O   0  0  0  0  0  0  0  0  0  0  0  0
    0.7145   -0.4125    0.0000 N   0  0  0  0  0  0  0  0  0  0  0  0
    0.7145   -1.2375    0.0000 C   0  0  0  0  0  0  0  0  0  0  0  0
   -0.0000   -1.6500    0.0000 O   0  0  0  0  0  0  0  0  0  0  0  0
    1.4289   -1.6500    0.0000 C   0  0  2  0  0  0  0  0  0  0  0  0
    1.4289   -2.4750    0.0000 C   0  0  0  0  0  0  0  0  0  0  0  0
    0.7145   -2.8875    0.0000 C   0  0  0  0  0  0  0  0  0  0  0  0
   -0.0000   -2.4750    0.0000 C   0  0  0  0  0  0  0  0  0  0  0  0
   -0.7145   -2.8875    0.0000 N   0  0  0  0  0  0  0  0  0  0  0  0
   -1.4289   -2.4750    0.0000 O   0  5  0  0  0  0  0  0  0  0  0  0
   -0.7145   -3.7125    0.0000 C   0  0  0  0  0  0  0  0  0  0  0  0
    0.0000   -4.1250    0.0000 C   0  0  0  0  0  0  0  0  0  0  0  0
   -1.4289   -4.1250    0.0000 O   0  0  0  0  0  0  0  0  0  0  0  0
    2.1434   -1.2375    0.0000 N   0  0  0  0  0  0  0  0  0  0  0  0
    2.8579   -1.6500    0.0000 C   0  0  0  0  0  0  0  0  0  0  0  0
    2.8579   -2.4750    0.0000 O   0  0  0  0  0  0  0  0  0  0  0  0
    3.5724   -1.2375    0.0000 C   0  0  2  0  0  0  0  0  0  0  0  0
    4.2868   -1.6500    0.0000 C   0  0  0  0  0  0  0  0  0  0  0  0
    4.2868   -2.4750    0.0000 C   0  0  0  0  0  0  0  0  0  0  0  0
    5.0013   -2.8875    0.0000 C   0  0  0  0  0  0  0  0  0  0  0  0
    5.0013   -3.7125    0.0000 N   0  0  0  0  0  0  0  0  0  0  0  0
    4.2868   -4.1250    0.0000 O   0  5  0  0  0  0  0  0  0  0  0  0
    5.7158   -4.1250    0.0000 C   0  0  0  0  0  0  0  0  0  0  0  0
    6.4302   -3.7125    0.0000 C   0  0  0  0  0  0  0  0  0  0  0  0
    5.7158   -4.9500    0.0000 O   0  0  0  0  0  0  0  0  0  0  0  0
    3.5724   -0.4125    0.0000 N   0  0  0  0  0  0  0  0  0  0  0  0
    4.2868    0.0000    0.0000 C   0  0  0  0  0  0  0  0  0  0  0  0
    5.0013   -0.4125    0.0000 O   0  0  0  0  0  0  0  0  0  0  0  0
    4.2868    0.8250    0.0000 C   0  0  2  0  0  0  0  0  0  0  0  0
    5.0013    1.2375    0.0000 C   0  0  0  0  0  0  0  0  0  0  0  0
    5.7158    0.8250    0.0000 C   0  0  0  0  0  0  0  0  0  0  0  0
    6.4302    1.2375    0.0000 C   0  0  0  0  0  0  0  0  0  0  0  0
    7.1447    0.8250    0.0000 N   0  0  0  0  0  0  0  0  0  0  0  0
    7.1447    0.0000    0.0000 O   0  5  0  0  0  0  0  0  0  0  0  0
    7.8592    1.2375    0.0000 C   0  0  0  0  0  0  0  0  0  0  0  0
    7.8592    2.0625    0.0000 C   0  0  0  0  0  0  0  0  0  0  0  0
    8.5737    0.8250    0.0000 O   0  0  0  0  0  0  0  0  0  0  0  0
    3.5724    1.2375    0.0000 N   0  0  0  0  0  0  0  0  0  0  0  0
    3.5724    2.0625    0.0000 C   0  0  0  0  0  0  0  0  0  0  0  0
    4.2868    2.4750    0.0000 O   0  0  0  0  0  0  0  0  0  0  0  0
    2.8579    2.4750    0.0000 C   0  0  1  0  0  0  0  0  0  0  0  0
    2.8579    3.3000    0.0000 C   0  0  0  0  0  0  0  0  0  0  0  0
    3.5724    3.7125    0.0000 C   0  0  0  0  0  0  0  0  0  0  0  0
    3.5724    4.5375    0.0000 C   0  0  0  0  0  0  0  0  0  0  0  0
    4.2868    4.9500    0.0000 C   0  0  0  0  0  0  0  0  0  0  0  0
    5.0013    4.5375    0.0000 C   0  0  0  0  0  0  0  0  0  0  0  0
    5.0013    3.7125    0.0000 C   0  0  0  0  0  0  0  0  0  0  0  0
    4.2868    3.3000    0.0000 C   0  0  0  0  0  0  0  0  0  0  0  0
    2.1434    2.0625    0.0000 N   0  0  0  0  0  0  0  0  0  0  0  0
    1.4289    2.4750    0.0000 C   0  0  0  0  0  0  0  0  0  0  0  0
    1.4289    3.3000    0.0000 O   0  0  0  0  0  0  0  0  0  0  0  0
    1.6411    3.1775    0.0000 H   0  0  0  0  0  0  0  0  0  0  0  0
    0.7145    4.7825    0.0000 H   0  0  0  0  0  0  0  0  0  0  0  0
    1.6412    4.2475    0.0000 H   0  0  0  0  0  0  0  0  0  0  0  0
   -0.9266    2.7650    0.0000 H   0  0  0  0  0  0  0  0  0  0  0  0
   -0.7145    4.7825    0.0000 H   0  0  0  0  0  0  0  0  0  0  0  0
   -1.6411    3.1775    0.0000 H   0  0  0  0  0  0  0  0  0  0  0  0
   -1.6412    4.2475    0.0000 H   0  0  0  0  0  0  0  0  0  0  0  0
   -0.9266    1.9400    0.0000 H   0  0  0  0  0  0  0  0  0  0  0  0
    0.0000    1.4050    0.0000 H   0  0  0  0  0  0  0  0  0  0  0  0
   -0.2121    1.5275    0.0000 H   0  0  0  0  0  0  0  0  0  0  0  0
    1.5671    0.7452    0.0000 H   0  0  0  0  0  0  0  0  0  0  0  0
   -0.9266    0.5350    0.0000 H   0  0  0  0  0  0  0  0  0  0  0  0
   -0.7145   -1.4825    0.0000 H   0  0  0  0  0  0  0  0  0  0  0  0
   -1.6412   -0.9475    0.0000 H   0  0  0  0  0  0  0  0  0  0  0  0
   -2.9960    0.0798    0.0000 H   0  0  0  0  0  0  0  0  0  0  0  0
   -2.1434   -1.3970    0.0000 H   0  0  0  0  0  0  0  0  0  0  0  0
    1.5671    0.0798    0.0000 H   0  0  0  0  0  0  0  0  0  0  0  0
    0.5022   -2.1850    0.0000 H   0  0  0  0  0  0  0  0  0  0  0  0
    2.3556   -3.0100    0.0000 H   0  0  0  0  0  0  0  0  0  0  0  0
    1.4289   -3.5450    0.0000 H   0  0  0  0  0  0  0  0  0  0  0  0
    0.7145   -3.9575    0.0000 H   0  0  0  0  0  0  0  0  0  0  0  0
   -0.2121   -3.4225    0.0000 H   0  0  0  0  0  0  0  0  0  0  0  0
    0.0000   -1.4050    0.0000 H   0  0  0  0  0  0  0  0  0  0  0  0
   -0.9266   -1.9400    0.0000 H   0  0  0  0  0  0  0  0  0  0  0  0
    0.0000   -5.1950    0.0000 H   0  0  0  0  0  0  0  0  0  0  0  0
    0.9266   -3.5900    0.0000 H   0  0  0  0  0  0  0  0  0  0  0  0
    0.9267   -4.6600    0.0000 H   0  0  0  0  0  0  0  0  0  0  0  0
    2.1434   -0.2530    0.0000 H   0  0  0  0  0  0  0  0  0  0  0  0
    3.5724   -2.3075    0.0000 H   0  0  0  0  0  0  0  0  0  0  0  0
    5.2135   -1.1150    0.0000 H   0  0  0  0  0  0  0  0  0  0  0  0
    5.2134   -2.1850    0.0000 H   0  0  0  0  0  0  0  0  0  0  0  0
    3.3602   -3.0100    0.0000 H   0  0  0  0  0  0  0  0  0  0  0  0
    4.2868   -3.5450    0.0000 H   0  0  0  0  0  0  0  0  0  0  0  0
    5.9279   -2.3525    0.0000 H   0  0  0  0  0  0  0  0  0  0  0  0
    5.9279   -3.4225    0.0000 H   0  0  0  0  0  0  0  0  0  0  0  0
    7.3569   -4.2475    0.0000 H   0  0  0  0  0  0  0  0  0  0  0  0
    6.4302   -2.6425    0.0000 H   0  0  0  0  0  0  0  0  0  0  0  0
    7.3568   -3.1775    0.0000 H   0  0  0  0  0  0  0  0  0  0  0  0
    2.7198    0.0797    0.0000 H   0  0  0  0  0  0  0  0  0  0  0  0
    5.2134    0.2900    0.0000 H   0  0  0  0  0  0  0  0  0  0  0  0
    5.0013    2.3075    0.0000 H   0  0  0  0  0  0  0  0  0  0  0  0
    5.9279    1.7725    0.0000 H   0  0  0  0  0  0  0  0  0  0  0  0
    5.7158   -0.2450    0.0000 H   0  0  0  0  0  0  0  0  0  0  0  0
    6.6425    0.2900    0.0000 H   0  0  0  0  0  0  0  0  0  0  0  0
    6.4302    2.3075    0.0000 H   0  0  0  0  0  0  0  0  0  0  0  0
    7.3568    1.7725    0.0000 H   0  0  0  0  0  0  0  0  0  0  0  0
    8.7858    2.5975    0.0000 H   0  0  0  0  0  0  0  0  0  0  0  0
    6.9326    2.5975    0.0000 H   0  0  0  0  0  0  0  0  0  0  0  0
    7.8592    3.1325    0.0000 H   0  0  0  0  0  0  0  0  0  0  0  0
    2.7198    0.7453    0.0000 H   0  0  0  0  0  0  0  0  0  0  0  0
    3.7845    3.0100    0.0000 H   0  0  0  0  0  0  0  0  0  0  0  0
    1.9313    3.8350    0.0000 H   0  0  0  0  0  0  0  0  0  0  0  0
    2.8579    4.3700    0.0000 H   0  0  0  0  0  0  0  0  0  0  0  0
    2.6787    5.0535    0.0000 H   0  0  0  0  0  0  0  0  0  0  0  0
    4.2868    5.9820    0.0000 H   0  0  0  0  0  0  0  0  0  0  0  0
    5.8950    5.0535    0.0000 H   0  0  0  0  0  0  0  0  0  0  0  0
    5.8950    3.1965    0.0000 H   0  0  0  0  0  0  0  0  0  0  0  0
    4.2868    2.2680    0.0000 H   0  0  0  0  0  0  0  0  0  0  0  0
    2.1434    1.0780    0.0000 H   0  0  0  0  0  0  0  0  0  0  0  0
  2  3  1  0  0  0  0
  2 65  1  0  0  0  0
  2 66  1  0  0  0  0
  2 67  1  0  0  0  0
  3  4  1  0  0  0  0
  3  5  1  0  0  0  0
  3 68  1  0  0  0  0
  4 69  1  0  0  0  0
  4 70  1  0  0  0  0
  4 71  1  0  0  0  0
  5 72  1  0  0  0  0
  5 73  1  0  0  0  0
  6  5  1  0  0  0  0
  6  7  1  0  0  0  0
  6 63  1  0  0  0  0
  6 74  1  6  0  0  0
  7  8  1  0  0  0  0
  7 75  1  0  0  0  0
  8  9  2  0  0  0  0
 10  8  1  0  0  0  0
 10 11  1  0  0  0  0
 10 15  1  0  0  0  0
 10 76  1  6  0  0  0
 11 12  1  0  0  0  0
 11 77  1  0  0  0  0
 11 78  1  0  0  0  0
 12 13  1  0  0  0  0
 12 14  2  0  0  0  0
 13 79  1  0  0  0  0
 13 80  1  0  0  0  0
 15 16  1  0  0  0  0
 15 81  1  0  0  0  0
 16 17  2  0  0  0  0
 18 16  1  0  0  0  0
 18 19  1  0  0  0  0
 18 27  1  0  0  0  0
 18 82  1  6  0  0  0
 19 20  1  0  0  0  0
 19 83  1  0  0  0  0
 19 84  1  0  0  0  0
 20 21  1  0  0  0  0
 20 85  1  0  0  0  0
 20 86  1  0  0  0  0
 21 22  1  0  0  0  0
 21 87  1  0  0  0  0
 21 88  1  0  0  0  0
 22 23  1  0  0  0  0
 22 24  1  0  0  0  0
 24 25  1  0  0  0  0
 24 26  2  0  0  0  0
 25 89  1  0  0  0  0
 25 90  1  0  0  0  0
 25 91  1  0  0  0  0
 27 28  1  0  0  0  0
 27 92  1  0  0  0  0
 28 29  2  0  0  0  0
 30 28  1  0  0  0  0
 30 31  1  0  0  0  0
 30 39  1  0  0  0  0
 30 93  1  6  0  0  0
 31 32  1  0  0  0  0
 31 94  1  0  0  0  0
 31 95  1  0  0  0  0
 32 33  1  0  0  0  0
 32 96  1  0  0  0  0
 32 97  1  0  0  0  0
 33 34  1  0  0  0  0
 33 98  1  0  0  0  0
 33 99  1  0  0  0  0
 34 35  1  0  0  0  0
 34 36  1  0  0  0  0
 36 37  1  0  0  0  0
 36 38  2  0  0  0  0
 37100  1  0  0  0  0
 37101  1  0  0  0  0
 37102  1  0  0  0  0
 39 40  1  0  0  0  0
 39103  1  0  0  0  0
 40 41  2  0  0  0  0
 42 40  1  0  0  0  0
 42 43  1  0  0  0  0
 42 51  1  0  0  0  0
 42104  1  6  0  0  0
 43 44  1  0  0  0  0
 43105  1  0  0  0  0
 43106  1  0  0  0  0
 44 45  1  0  0  0  0
 44107  1  0  0  0  0
 44108  1  0  0  0  0
 45 46  1  0  0  0  0
 45109  1  0  0  0  0
 45110  1  0  0  0  0
 46 47  1  0  0  0  0
 46 48  1  0  0  0  0
 48 49  1  0  0  0  0
 48 50  2  0  0  0  0
 49111  1  0  0  0  0
 49112  1  0  0  0  0
 49113  1  0  0  0  0
 51 52  1  0  0  0  0
 51114  1  0  0  0  0
 52 53  2  0  0  0  0
 54 52  1  0  0  0  0
 54 55  1  0  0  0  0
 54 62  1  0  0  0  0
 54115  1  1  0  0  0
 55 56  1  0  0  0  0
 55116  1  0  0  0  0
 55117  1  0  0  0  0
 56 57  2  0  0  0  0
 56 61  1  0  0  0  0
 57 58  1  0  0  0  0
 57118  1  0  0  0  0
 58 59  2  0  0  0  0
 58119  1  0  0  0  0
 59 60  1  0  0  0  0
 59120  1  0  0  0  0
 60 61  2  0  0  0  0
 60121  1  0  0  0  0
 61122  1  0  0  0  0
 62 63  1  0  0  0  0
 62123  1  0  0  0  0
 63 64  2  0  0  0  0
M  CHG  4   1   3  23  -1  35  -1  47  -1
M  END
>  <DRUGBANK_ID>
DB17796

>  <COMMON_NAME>
VL-2397

>  <CAS_NUMBER>
1186200-57-6

>  <UNII>
E39B3691TD

>  <SYNONYMS>
ASP-2397; ASP2397; Cyclo(-asn-leu-d-phe-al((n5-acetyl-n5-hydroxy-orn)-(n5-acetyl-n5-hydroxy-orn)-(n5-hydroxy-orn))-) . al(iii); Cyclo(l-asparaginyl-l-leucyl-d-phenylalanyl-n5-acetyl-n5-hydroxy-l-ornithyl-n5-acetyl-n5-hydroxy-l-ornithyl-n5-acetyl-n5-hydroxy-l-ornithyl), aluminum salt (1:1); Cyclo{-asn-leu-d-phe-al[(N5-acetyl-N5-hydroxy-orn)-(N5-acetyl-N5-hydroxy-orn)-(N5-hydroxy-orn)]-} . Al(III); VL-2397

$$$$
