
 OpenBabel10282417072D

 75 78  0  0  1  0  0  0  0  0999 V2000
   -3.3333   -1.4648    0.0000 C   0  0  0  0  0  0  0  0  0  0  0  0
   -1.5445   -3.3289    0.0000 C   0  0  0  0  0  0  0  0  0  0  0  0
    2.8949    1.1887    0.0000 C   0  0  0  0  0  0  0  0  0  0  0  0
   -2.8047    1.0927    0.0000 C   0  0  0  0  0  0  0  0  0  0  0  0
    2.9204   -2.0555    0.0000 C   0  0  0  0  0  0  0  0  0  0  0  0
   -2.8061   -2.0994    0.0000 C   0  0  0  0  0  0  0  0  0  0  0  0
    1.6437    2.4287    0.0000 C   0  0  0  0  0  0  0  0  0  0  0  0
   -1.5545    2.3704    0.0000 C   0  0  0  0  0  0  0  0  0  0  0  0
    2.4125    2.7281    0.0000 C   0  0  0  0  0  0  0  0  0  0  0  0
   -2.3307    2.6501    0.0000 C   0  0  0  0  0  0  0  0  0  0  0  0
    2.0928   -0.4313    0.0000 C   0  0  0  0  0  0  0  0  0  0  0  0
   -2.0057   -0.4964    0.0000 C   0  0  0  0  0  0  0  0  0  0  0  0
    0.0613   -2.4986    0.0000 C   0  0  0  0  0  0  0  0  0  0  0  0
    0.0548    1.6004    0.0000 C   0  0  0  0  0  0  0  0  0  0  0  0
    1.6998   -3.2977    0.0000 C   0  0  0  0  0  0  0  0  0  0  0  0
   -1.4318   -2.5116    0.0000 C   0  0  0  0  0  0  0  0  0  0  0  0
    2.0798    1.0618    0.0000 C   0  0  0  0  0  0  0  0  0  0  0  0
   -1.9892    0.9677    0.0000 C   0  0  0  0  0  0  0  0  0  0  0  0
    2.1059   -1.9244    0.0000 C   0  0  0  0  0  0  0  0  0  0  0  0
   -1.9929   -1.9602    0.0000 C   0  0  2  0  0  0  0  0  0  0  0  0
    1.5187    1.6132    0.0000 C   0  0  0  0  0  0  0  0  0  0  0  0
   -1.4087    1.5584    0.0000 C   0  0  0  0  0  0  0  0  0  0  0  0
    1.5545   -2.4856    0.0000 C   0  0  0  0  0  0  0  0  0  0  0  0
    1.6766    0.2970    0.0000 C   0  0  0  0  0  0  0  0  0  0  0  0
    1.7184   -1.1373    0.0000 C   0  0  0  0  0  0  0  0  0  0  0  0
   -0.6742   -2.0951    0.0000 C   0  0  0  0  0  0  0  0  0  0  0  0
   -1.6317    0.2682    0.0000 C   0  0  0  0  0  0  0  0  0  0  0  0
   -1.6189   -1.1957    0.0000 C   0  0  0  0  0  0  0  0  0  0  0  0
    0.7608    1.2260    0.0000 C   0  0  0  0  0  0  0  0  0  0  0  0
   -0.6738    1.2135    0.0000 C   0  0  0  0  0  0  0  0  0  0  0  0
    0.7607   -2.1119    0.0000 C   0  0  0  0  0  0  0  0  0  0  0  0
    2.5375    3.5435    0.0000 C   0  0  0  0  0  0  0  0  0  0  0  0
   -2.4765    3.4622    0.0000 C   0  0  0  0  0  0  0  0  0  0  0  0
   -0.7979   -1.3349    0.0000 N   0  5  0  0  0  0  0  0  0  0  0  0
    0.9144    0.4075    0.0000 N   0  5  0  0  0  0  0  0  0  0  0  0
   -0.8425    0.4214    0.0000 N   0  5  0  0  0  0  0  0  0  0  0  0
    0.9002   -1.3201    0.0000 N   0  5  0  0  0  0  0  0  0  0  0  0
    1.0692   -3.8296    0.0000 O   0  0  0  0  0  0  0  0  0  0  0  0
    1.8938    4.0596    0.0000 O   0  0  0  0  0  0  0  0  0  0  0  0
    3.3063    3.8430    0.0000 O   0  0  0  0  0  0  0  0  0  0  0  0
   -3.2526    3.7419    0.0000 O   0  0  0  0  0  0  0  0  0  0  0  0
   -1.8461    3.9944    0.0000 O   0  0  0  0  0  0  0  0  0  0  0  0
    5.6634    0.0000    0.0000 Fe  0  0  0  0  0  0  0  0  0  0  0  0
    2.9176   -0.4183    0.0000 H   0  0  0  0  0  0  0  0  0  0  0  0
   -2.8305   -0.5172    0.0000 H   0  0  0  0  0  0  0  0  0  0  0  0
    0.0626   -3.3236    0.0000 H   0  0  0  0  0  0  0  0  0  0  0  0
    0.0545    2.4254    0.0000 H   0  0  0  0  0  0  0  0  0  0  0  0
    2.4758   -3.5779    0.0000 H   0  0  0  0  0  0  0  0  0  0  0  0
   -2.2396   -2.7475    0.0000 H   0  0  0  0  0  0  0  0  0  0  0  0
   -2.9756   -0.4968    0.0000 H   0  0  0  0  0  0  0  0  0  0  0  0
   -4.3505   -1.6390    0.0000 H   0  0  0  0  0  0  0  0  0  0  0  0
   -2.5355   -3.7323    0.0000 H   0  0  0  0  0  0  0  0  0  0  0  0
   -0.6996   -3.9855    0.0000 H   0  0  0  0  0  0  0  0  0  0  0  0
   -1.6907   -4.3889    0.0000 H   0  0  0  0  0  0  0  0  0  0  0  0
    3.5661    0.3554    0.0000 H   0  0  0  0  0  0  0  0  0  0  0  0
    3.2810    2.1866    0.0000 H   0  0  0  0  0  0  0  0  0  0  0  0
    3.9522    1.3533    0.0000 H   0  0  0  0  0  0  0  0  0  0  0  0
   -3.1931    2.0897    0.0000 H   0  0  0  0  0  0  0  0  0  0  0  0
   -3.4739    0.2578    0.0000 H   0  0  0  0  0  0  0  0  0  0  0  0
   -3.8623    1.2548    0.0000 H   0  0  0  0  0  0  0  0  0  0  0  0
    3.3013   -3.0554    0.0000 H   0  0  0  0  0  0  0  0  0  0  0  0
    3.5959   -1.2256    0.0000 H   0  0  0  0  0  0  0  0  0  0  0  0
    3.9768   -2.2255    0.0000 H   0  0  0  0  0  0  0  0  0  0  0  0
   -3.1639   -3.0674    0.0000 H   0  0  0  0  0  0  0  0  0  0  0  0
    0.8089    3.0980    0.0000 H   0  0  0  0  0  0  0  0  0  0  0  0
    0.6467    2.0403    0.0000 H   0  0  0  0  0  0  0  0  0  0  0  0
   -0.7370    3.0608    0.0000 H   0  0  0  0  0  0  0  0  0  0  0  0
   -0.5479    2.0076    0.0000 H   0  0  0  0  0  0  0  0  0  0  0  0
    3.2473    2.0588    0.0000 H   0  0  0  0  0  0  0  0  0  0  0  0
    3.4095    3.1165    0.0000 H   0  0  0  0  0  0  0  0  0  0  0  0
   -3.1482    1.9597    0.0000 H   0  0  0  0  0  0  0  0  0  0  0  0
   -3.3373    3.0129    0.0000 H   0  0  0  0  0  0  0  0  0  0  0  0
    0.1879   -3.5114    0.0000 H   0  0  0  0  0  0  0  0  0  0  0  0
    4.0374    3.2569    0.0000 H   0  0  0  0  0  0  0  0  0  0  0  0
   -0.9647    3.6766    0.0000 H   0  0  0  0  0  0  0  0  0  0  0  0
  1 50  1  0  0  0  0
  1 51  1  0  0  0  0
  2 52  1  0  0  0  0
  2 53  1  0  0  0  0
  2 54  1  0  0  0  0
  3 55  1  0  0  0  0
  3 56  1  0  0  0  0
  3 57  1  0  0  0  0
  4 58  1  0  0  0  0
  4 59  1  0  0  0  0
  4 60  1  0  0  0  0
  5 61  1  0  0  0  0
  5 62  1  0  0  0  0
  5 63  1  0  0  0  0
  6  1  2  0  0  0  0
  6 64  1  0  0  0  0
  7 65  1  0  0  0  0
  7 66  1  0  0  0  0
  8 67  1  0  0  0  0
  8 68  1  0  0  0  0
  9  7  1  0  0  0  0
  9 69  1  0  0  0  0
  9 70  1  0  0  0  0
 10  8  1  0  0  0  0
 10 71  1  0  0  0  0
 10 72  1  0  0  0  0
 16  2  1  0  0  0  0
 17  3  1  0  0  0  0
 18  4  1  0  0  0  0
 19  5  1  0  0  0  0
 20  6  1  0  0  0  0
 20 16  1  0  0  0  0
 20 49  1  6  0  0  0
 21  7  1  0  0  0  0
 21 17  2  0  0  0  0
 22  8  1  0  0  0  0
 22 18  1  0  0  0  0
 23 15  2  0  0  0  0
 23 19  1  0  0  0  0
 24 11  2  0  0  0  0
 24 17  1  0  0  0  0
 25 11  1  0  0  0  0
 25 19  2  0  0  0  0
 26 13  1  0  0  0  0
 26 16  2  0  0  0  0
 27 12  1  0  0  0  0
 27 18  2  0  0  0  0
 28 12  2  0  0  0  0
 28 20  1  0  0  0  0
 29 14  2  0  0  0  0
 29 21  1  0  0  0  0
 30 14  1  0  0  0  0
 30 22  2  0  0  0  0
 31 13  2  0  0  0  0
 31 23  1  0  0  0  0
 32  9  1  0  0  0  0
 33 10  1  0  0  0  0
 34 26  1  0  0  0  0
 34 28  1  0  0  0  0
 35 24  1  0  0  0  0
 35 29  1  0  0  0  0
 36 27  1  0  0  0  0
 36 30  1  0  0  0  0
 37 25  1  0  0  0  0
 37 31  1  0  0  0  0
 38 15  1  0  0  0  0
 38 73  1  0  0  0  0
 39 32  2  0  0  0  0
 40 32  1  0  0  0  0
 40 74  1  0  0  0  0
 41 33  2  0  0  0  0
 42 33  1  0  0  0  0
 42 75  1  0  0  0  0
 44 11  1  0  0  0  0
 45 12  1  0  0  0  0
 46 13  1  0  0  0  0
 47 14  1  0  0  0  0
 48 15  1  0  0  0  0
M  CHG  5  34  -1  35  -1  36  -1  37  -1  43   4
M  END
>  <DRUGBANK_ID>
DB03224

>  <SECONDARY_ACCESSION_NUMBERS>
EXPT01735

>  <COMMON_NAME>
2-Formyl-Protoporphryn Ix

$$$$
