
 OpenBabel10282417072D

 67 70  0  0  1  0  0  0  0  0999 V2000
   -4.7261    4.8709    0.0000 N   0  0  0  0  0  0  0  0  0  0  0  0
   -4.0116    5.2834    0.0000 C   0  0  0  0  0  0  0  0  0  0  0  0
   -3.2971    4.8709    0.0000 C   0  0  0  0  0  0  0  0  0  0  0  0
   -2.5827    5.2834    0.0000 C   0  0  0  0  0  0  0  0  0  0  0  0
   -1.8682    4.8709    0.0000 C   0  0  0  0  0  0  0  0  0  0  0  0
   -1.1537    5.2834    0.0000 C   0  0  2  0  0  0  0  0  0  0  0  0
   -1.1537    6.1084    0.0000 N   0  0  0  0  0  0  0  0  0  0  0  0
   -0.4393    4.8709    0.0000 C   0  0  0  0  0  0  0  0  0  0  0  0
   -0.4393    4.0459    0.0000 O   0  0  0  0  0  0  0  0  0  0  0  0
    0.2752    5.2834    0.0000 N   0  0  0  0  0  0  0  0  0  0  0  0
    0.2752    6.1084    0.0000 C   0  0  0  0  0  0  0  0  0  0  0  0
   -0.4393    6.5209    0.0000 C   0  0  0  0  0  0  0  0  0  0  0  0
   -0.4393    7.3459    0.0000 C   0  0  0  0  0  0  0  0  0  0  0  0
    0.2752    7.7584    0.0000 C   0  0  0  0  0  0  0  0  0  0  0  0
    0.9897    7.3459    0.0000 C   0  0  0  0  0  0  0  0  0  0  0  0
    0.9897    6.5209    0.0000 C   0  0  0  0  0  0  0  0  0  0  0  0
    0.2752    8.5834    0.0000 C   0  0  0  0  0  0  0  0  0  0  0  0
   -0.4393    8.9959    0.0000 O   0  0  0  0  0  0  0  0  0  0  0  0
    0.9897    8.9959    0.0000 C   0  0  0  0  0  0  0  0  0  0  0  0
    0.9897    9.8209    0.0000 N   0  0  0  0  0  0  0  0  0  0  0  0
    1.6571   10.3058    0.0000 C   0  0  0  0  0  0  0  0  0  0  0  0
    1.4022   11.0904    0.0000 N   0  0  0  0  0  0  0  0  0  0  0  0
    0.5772   11.0904    0.0000 C   0  0  0  0  0  0  0  0  0  0  0  0
    0.3222   10.3058    0.0000 C   0  0  0  0  0  0  0  0  0  0  0  0
   -0.4847   10.1343    0.0000 C   0  0  0  0  0  0  0  0  0  0  0  0
   -1.0368   10.7474    0.0000 C   0  0  0  0  0  0  0  0  0  0  0  0
   -0.7818   11.5320    0.0000 C   0  0  0  0  0  0  0  0  0  0  0  0
    0.0252   11.7035    0.0000 C   0  0  0  0  0  0  0  0  0  0  0  0
    2.4417   10.0509    0.0000 C   0  0  0  0  0  0  0  0  0  0  0  0
    3.1092   10.5358    0.0000 N   0  0  0  0  0  0  0  0  0  0  0  0
    3.7766   10.0509    0.0000 O   0  0  0  0  0  0  0  0  0  0  0  0
    3.5217    9.2662    0.0000 N   0  0  0  0  0  0  0  0  0  0  0  0
    2.6967    9.2662    0.0000 C   0  0  0  0  0  0  0  0  0  0  0  0
    2.2118    8.5988    0.0000 N   0  0  0  0  0  0  0  0  0  0  0  0
    2.5473    7.8451    0.0000 C   0  0  0  0  0  0  0  0  0  0  0  0
    3.3678    7.7589    0.0000 C   0  0  0  0  0  0  0  0  0  0  0  0
    3.8527    8.4263    0.0000 C   0  0  0  0  0  0  0  0  0  0  0  0
    4.3376    9.0938    0.0000 N   0  0  0  0  0  0  0  0  0  0  0  0
   -5.6094    5.3809    0.0000 H   0  0  0  0  0  0  0  0  0  0  0  0
   -4.7261    3.8509    0.0000 H   0  0  0  0  0  0  0  0  0  0  0  0
   -4.0116    6.3534    0.0000 H   0  0  0  0  0  0  0  0  0  0  0  0
   -3.0850    5.8184    0.0000 H   0  0  0  0  0  0  0  0  0  0  0  0
   -3.2971    3.8009    0.0000 H   0  0  0  0  0  0  0  0  0  0  0  0
   -2.3704    4.3359    0.0000 H   0  0  0  0  0  0  0  0  0  0  0  0
   -2.5827    6.3534    0.0000 H   0  0  0  0  0  0  0  0  0  0  0  0
   -1.6561    5.8184    0.0000 H   0  0  0  0  0  0  0  0  0  0  0  0
   -1.8682    3.8009    0.0000 H   0  0  0  0  0  0  0  0  0  0  0  0
   -0.9416    4.3359    0.0000 H   0  0  0  0  0  0  0  0  0  0  0  0
   -2.0803    5.8184    0.0000 H   0  0  0  0  0  0  0  0  0  0  0  0
   -0.2704    6.6184    0.0000 H   0  0  0  0  0  0  0  0  0  0  0  0
   -2.0370    6.6184    0.0000 H   0  0  0  0  0  0  0  0  0  0  0  0
    1.1278    4.7911    0.0000 H   0  0  0  0  0  0  0  0  0  0  0  0
   -1.3330    6.0049    0.0000 H   0  0  0  0  0  0  0  0  0  0  0  0
   -1.3330    7.8619    0.0000 H   0  0  0  0  0  0  0  0  0  0  0  0
    1.8834    7.8619    0.0000 H   0  0  0  0  0  0  0  0  0  0  0  0
    1.8834    6.0049    0.0000 H   0  0  0  0  0  0  0  0  0  0  0  0
    1.9163    8.4609    0.0000 H   0  0  0  0  0  0  0  0  0  0  0  0
    1.9163    9.5309    0.0000 H   0  0  0  0  0  0  0  0  0  0  0  0
   -0.8036    9.1528    0.0000 H   0  0  0  0  0  0  0  0  0  0  0  0
   -2.0463   10.5328    0.0000 H   0  0  0  0  0  0  0  0  0  0  0  0
   -1.4723   12.2990    0.0000 H   0  0  0  0  0  0  0  0  0  0  0  0
    0.3441   12.6850    0.0000 H   0  0  0  0  0  0  0  0  0  0  0  0
    1.2327    8.7017    0.0000 H   0  0  0  0  0  0  0  0  0  0  0  0
    1.9184    6.9795    0.0000 H   0  0  0  0  0  0  0  0  0  0  0  0
    2.9825    6.8676    0.0000 H   0  0  0  0  0  0  0  0  0  0  0  0
    3.8030    6.7814    0.0000 H   0  0  0  0  0  0  0  0  0  0  0  0
    4.4319    7.6471    0.0000 H   0  0  0  0  0  0  0  0  0  0  0  0
  1  2  1  0  0  0  0
  1 39  1  0  0  0  0
  1 40  1  0  0  0  0
  2  3  1  0  0  0  0
  2 41  1  0  0  0  0
  2 42  1  0  0  0  0
  3  4  1  0  0  0  0
  3 43  1  0  0  0  0
  3 44  1  0  0  0  0
  4  5  1  0  0  0  0
  4 45  1  0  0  0  0
  4 46  1  0  0  0  0
  5 47  1  0  0  0  0
  5 48  1  0  0  0  0
  6  5  1  0  0  0  0
  6  7  1  0  0  0  0
  6  8  1  0  0  0  0
  6 49  1  1  0  0  0
  7 50  1  0  0  0  0
  7 51  1  0  0  0  0
  8  9  2  0  0  0  0
  8 10  1  0  0  0  0
 10 11  1  0  0  0  0
 10 52  1  0  0  0  0
 11 12  2  0  0  0  0
 11 16  1  0  0  0  0
 12 13  1  0  0  0  0
 12 53  1  0  0  0  0
 13 14  2  0  0  0  0
 13 54  1  0  0  0  0
 14 15  1  0  0  0  0
 14 17  1  0  0  0  0
 15 16  2  0  0  0  0
 15 55  1  0  0  0  0
 16 56  1  0  0  0  0
 17 18  2  0  0  0  0
 17 19  1  0  0  0  0
 19 20  1  0  0  0  0
 19 57  1  0  0  0  0
 19 58  1  0  0  0  0
 20 21  1  0  0  0  0
 20 24  1  0  0  0  0
 21 22  2  0  0  0  0
 21 29  1  0  0  0  0
 22 23  1  0  0  0  0
 23 24  2  0  0  0  0
 23 28  1  0  0  0  0
 24 25  1  0  0  0  0
 25 26  2  0  0  0  0
 25 59  1  0  0  0  0
 26 27  1  0  0  0  0
 26 60  1  0  0  0  0
 27 28  2  0  0  0  0
 27 61  1  0  0  0  0
 28 62  1  0  0  0  0
 29 30  2  0  0  0  0
 29 33  1  0  0  0  0
 30 31  1  0  0  0  0
 31 32  1  0  0  0  0
 32 33  2  0  0  0  0
 33 34  1  0  0  0  0
 34 35  1  0  0  0  0
 34 63  1  0  0  0  0
 35 36  1  0  0  0  0
 35 64  1  0  0  0  0
 35 65  1  0  0  0  0
 36 37  1  0  0  0  0
 36 66  1  0  0  0  0
 36 67  1  0  0  0  0
 37 38  3  0  0  0  0
M  END
>  <DRUGBANK_ID>
DB15224

>  <COMMON_NAME>
Lisavanbulin

>  <CAS_NUMBER>
1263384-43-5

>  <UNII>
5PT0QP06X5

>  <SYNONYMS>
Lisavanbulin

$$$$
