
 OpenBabel10282417072D

  5  3  0  0  0  0  0  0  0  0999 V2000
   -1.3621   -0.9905    0.0000 Ca  0  2  0  0  0  0  0  0  0  0  0  0
   -0.0409    0.9905    0.0000 O   0  5  0  0  0  0  0  0  0  0  0  0
    1.3621    0.9905    0.0000 O   0  5  0  0  0  0  0  0  0  0  0  0
    0.6189    0.5777    0.0000 C   0  0  0  0  0  0  0  0  0  0  0  0
    0.6189   -0.2473    0.0000 O   0  0  0  0  0  0  0  0  0  0  0  0
  2  4  1  0  0  0  0
  3  4  1  0  0  0  0
  4  5  2  0  0  0  0
M  CHG  3   1   2   2  -1   3  -1
M  END
>  <DRUGBANK_ID>
DB06724

>  <COMMON_NAME>
Calcium carbonate

>  <CAS_NUMBER>
471-34-1

>  <UNII>
H0G9379FGK

>  <SYNONYMS>
Calcio carbonato; Calcium carbonate; Calcium carbonate (1:1); Calciumcarbonat; Carbonate de calcium; Carbonato de calcio; Carbonic acid calcium salt (1:1); Chalk; Kalziumkarbonat; Kohlensaurer kalk; Precipitated calcium carbonate

$$$$
