
 OpenBabel10282417072D

 30 32  0  0  0  0  0  0  0  0999 V2000
   -1.1801    0.4125    0.0000 C   0  0  0  0  0  0  0  0  0  0  0  0
   -0.7676   -0.3020    0.0000 C   0  0  0  0  0  0  0  0  0  0  0  0
    3.9934    0.8250    0.0000 C   0  0  0  0  0  0  0  0  0  0  0  0
    3.2789    1.2375    0.0000 C   0  0  0  0  0  0  0  0  0  0  0  0
   -0.7676    1.1270    0.0000 C   0  0  0  0  0  0  0  0  0  0  0  0
    3.2789   -0.4125    0.0000 C   0  0  0  0  0  0  0  0  0  0  0  0
    3.9934    0.0000    0.0000 C   0  0  0  0  0  0  0  0  0  0  0  0
    2.5645    0.8250    0.0000 C   0  0  0  0  0  0  0  0  0  0  0  0
    2.5645    0.0000    0.0000 C   0  0  0  0  0  0  0  0  0  0  0  0
    0.0574   -0.3020    0.0000 C   0  0  0  0  0  0  0  0  0  0  0  0
    0.4699    0.4125    0.0000 C   0  0  0  0  0  0  0  0  0  0  0  0
    4.7079   -0.4125    0.0000 C   0  0  0  0  0  0  0  0  0  0  0  0
    1.2949    0.4125    0.0000 C   0  0  0  0  0  0  0  0  0  0  0  0
    5.4223   -0.0000    0.0000 N   0  0  0  0  0  0  0  0  0  0  0  0
    4.7079   -1.2375    0.0000 N   0  0  0  0  0  0  0  0  0  0  0  0
    0.0574    1.1270    0.0000 N   0  0  0  0  0  0  0  0  0  0  0  0
    1.7798    1.0799    0.0000 N   0  0  0  0  0  0  0  0  0  0  0  0
    1.7798   -0.2549    0.0000 N   0  0  0  0  0  0  0  0  0  0  0  0
    0.4699   -1.0164    0.0000 O   0  0  0  0  0  0  0  0  0  0  0  0
   -2.2121    0.4125    0.0000 H   0  0  0  0  0  0  0  0  0  0  0  0
   -1.2836   -1.1957    0.0000 H   0  0  0  0  0  0  0  0  0  0  0  0
    4.8871    1.3410    0.0000 H   0  0  0  0  0  0  0  0  0  0  0  0
    3.2789    2.2695    0.0000 H   0  0  0  0  0  0  0  0  0  0  0  0
   -1.2836    2.0207    0.0000 H   0  0  0  0  0  0  0  0  0  0  0  0
    3.2789   -1.4445    0.0000 H   0  0  0  0  0  0  0  0  0  0  0  0
    6.2749   -0.4922    0.0000 H   0  0  0  0  0  0  0  0  0  0  0  0
    3.8553   -1.7298    0.0000 H   0  0  0  0  0  0  0  0  0  0  0  0
    5.5605   -1.7297    0.0000 H   0  0  0  0  0  0  0  0  0  0  0  0
    1.4755   -1.1912    0.0000 H   0  0  0  0  0  0  0  0  0  0  0  0
    0.0014   -1.8279    0.0000 H   0  0  0  0  0  0  0  0  0  0  0  0
  1 20  1  0  0  0  0
  2  1  2  0  0  0  0
  2 21  1  0  0  0  0
  3 22  1  0  0  0  0
  4  3  2  0  0  0  0
  4 23  1  0  0  0  0
  5  1  1  0  0  0  0
  5 24  1  0  0  0  0
  6 25  1  0  0  0  0
  7  3  1  0  0  0  0
  7  6  2  0  0  0  0
  8  4  1  0  0  0  0
  9  6  1  0  0  0  0
  9  8  2  0  0  0  0
 10  2  1  0  0  0  0
 11 10  2  0  0  0  0
 12  7  1  0  0  0  0
 13 11  1  0  0  0  0
 14 12  2  0  0  0  0
 14 26  1  0  0  0  0
 15 12  1  0  0  0  0
 15 27  1  0  0  0  0
 15 28  1  0  0  0  0
 16  5  2  0  0  0  0
 16 11  1  0  0  0  0
 17  8  1  0  0  0  0
 17 13  2  0  0  0  0
 18  9  1  0  0  0  0
 18 13  1  0  0  0  0
 18 29  1  0  0  0  0
 19 10  1  0  0  0  0
 19 30  1  0  0  0  0
M  END
>  <DRUGBANK_ID>
DB03016

>  <SECONDARY_ACCESSION_NUMBERS>
EXPT00317

>  <COMMON_NAME>
CRA_1801

$$$$
