
 OpenBabel10282417072D

 62 64  0  0  1  0  0  0  0  0999 V2000
   19.7620  -13.2391    0.0000 C   0  0  2  0  0  0  0  0  0  0  0  0
   20.1986  -12.0201    0.0000 N   0  0  0  0  0  0  0  0  0  0  0  0
   19.0948  -12.7606    0.0000 O   0  0  0  0  0  0  0  0  0  0  0  0
   19.5070  -14.0251    0.0000 C   0  0  0  0  0  0  0  0  0  0  0  0
   19.4860  -11.5975    0.0000 C   0  0  0  0  0  0  0  0  0  0  0  0
   20.9216  -11.5975    0.0000 C   0  0  0  0  0  0  0  0  0  0  0  0
   18.4312  -13.2391    0.0000 C   0  0  1  0  0  0  0  0  0  0  0  0
   18.6862  -14.0251    0.0000 C   0  0  1  0  0  0  0  0  0  0  0  0
   19.4860  -10.7661    0.0000 N   0  0  0  0  0  0  0  0  0  0  0  0
   18.7735  -12.0062    0.0000 O   0  0  0  0  0  0  0  0  0  0  0  0
   20.9216  -10.7661    0.0000 C   0  0  0  0  0  0  0  0  0  0  0  0
   17.6557  -12.9806    0.0000 C   0  0  0  0  0  0  0  0  0  0  0  0
   18.2006  -14.6887    0.0000 O   0  0  0  0  0  0  0  0  0  0  0  0
   20.1986  -10.3505    0.0000 C   0  0  0  0  0  0  0  0  0  0  0  0
   21.6271  -10.3505    0.0000 C   0  0  0  0  0  0  0  0  0  0  0  0
   17.0375  -13.5256    0.0000 O   0  0  0  0  0  0  0  0  0  0  0  0
   20.1986   -9.5332    0.0000 O   0  0  0  0  0  0  0  0  0  0  0  0
   16.2167  -13.5256    0.0000 P   0  0  3  0  0  0  0  0  0  0  0  0
   15.3958  -13.5256    0.0000 O   0  0  0  0  0  0  0  0  0  0  0  0
   16.2132  -14.3464    0.0000 O   0  0  0  0  0  0  0  0  0  0  0  0
   16.2167  -12.7012    0.0000 O   0  0  0  0  0  0  0  0  0  0  0  0
   14.5750  -13.5256    0.0000 P   0  0  3  0  0  0  0  0  0  0  0  0
   13.7541  -13.5290    0.0000 O   0  0  0  0  0  0  0  0  0  0  0  0
   14.5750  -14.3464    0.0000 O   0  0  0  0  0  0  0  0  0  0  0  0
   14.5750  -12.7012    0.0000 O   0  0  0  0  0  0  0  0  0  0  0  0
   13.0416  -13.9447    0.0000 C   0  0  1  0  0  0  0  0  0  0  0  0
   12.3220  -13.5290    0.0000 O   0  0  0  0  0  0  0  0  0  0  0  0
   13.0416  -14.7761    0.0000 C   0  0  1  0  0  0  0  0  0  0  0  0
   11.6096  -13.9447    0.0000 C   0  0  1  0  0  0  0  0  0  0  0  0
   12.3220  -15.1917    0.0000 C   0  0  2  0  0  0  0  0  0  0  0  0
   13.7541  -15.1813    0.0000 O   0  0  0  0  0  0  0  0  0  0  0  0
   11.6096  -14.7761    0.0000 C   0  0  2  0  0  0  0  0  0  0  0  0
   10.8970  -13.5290    0.0000 C   0  0  0  0  0  0  0  0  0  0  0  0
   12.3186  -16.0194    0.0000 O   0  0  0  0  0  0  0  0  0  0  0  0
   10.8970  -15.1813    0.0000 O   0  0  0  0  0  0  0  0  0  0  0  0
   10.8970  -12.7117    0.0000 O   0  0  0  0  0  0  0  0  0  0  0  0
   19.4434  -12.2176    0.0000 H   0  0  0  0  0  0  0  0  0  0  0  0
   20.1361  -14.8906    0.0000 H   0  0  0  0  0  0  0  0  0  0  0  0
   19.0213  -14.9785    0.0000 H   0  0  0  0  0  0  0  0  0  0  0  0
   21.8167  -12.1111    0.0000 H   0  0  0  0  0  0  0  0  0  0  0  0
   18.2697  -12.1814    0.0000 H   0  0  0  0  0  0  0  0  0  0  0  0
   19.1703  -14.9793    0.0000 H   0  0  0  0  0  0  0  0  0  0  0  0
   18.6323  -10.2757    0.0000 H   0  0  0  0  0  0  0  0  0  0  0  0
   17.4427  -11.9320    0.0000 H   0  0  0  0  0  0  0  0  0  0  0  0
   16.6413  -12.6400    0.0000 H   0  0  0  0  0  0  0  0  0  0  0  0
   17.2363  -14.5840    0.0000 H   0  0  0  0  0  0  0  0  0  0  0  0
   22.5584  -10.8774    0.0000 H   0  0  0  0  0  0  0  0  0  0  0  0
   21.6177   -9.2805    0.0000 H   0  0  0  0  0  0  0  0  0  0  0  0
   22.5490   -9.8074    0.0000 H   0  0  0  0  0  0  0  0  0  0  0  0
   15.3711  -14.8278    0.0000 H   0  0  0  0  0  0  0  0  0  0  0  0
   13.7350  -14.8314    0.0000 H   0  0  0  0  0  0  0  0  0  0  0  0
   13.0393  -12.8747    0.0000 H   0  0  0  0  0  0  0  0  0  0  0  0
   13.9665  -14.2381    0.0000 H   0  0  0  0  0  0  0  0  0  0  0  0
   11.6095  -12.8747    0.0000 H   0  0  0  0  0  0  0  0  0  0  0  0
   13.2476  -15.7285    0.0000 H   0  0  0  0  0  0  0  0  0  0  0  0
   13.7604  -16.1513    0.0000 H   0  0  0  0  0  0  0  0  0  0  0  0
   10.6847  -14.2381    0.0000 H   0  0  0  0  0  0  0  0  0  0  0  0
    9.9692  -14.0619    0.0000 H   0  0  0  0  0  0  0  0  0  0  0  0
    9.9710  -12.9930    0.0000 H   0  0  0  0  0  0  0  0  0  0  0  0
   11.4766  -16.5009    0.0000 H   0  0  0  0  0  0  0  0  0  0  0  0
   10.0602  -14.6908    0.0000 H   0  0  0  0  0  0  0  0  0  0  0  0
   11.7370  -12.2267    0.0000 H   0  0  0  0  0  0  0  0  0  0  0  0
  1  2  1  0  0  0  0
  1  3  1  0  0  0  0
  1  4  1  0  0  0  0
  1 37  1  6  0  0  0
  2  5  1  0  0  0  0
  2  6  1  0  0  0  0
  3  7  1  0  0  0  0
  4  8  1  0  0  0  0
  4 38  1  0  0  0  0
  4 39  1  0  0  0  0
  5  9  1  0  0  0  0
  5 10  2  0  0  0  0
  6 11  2  0  0  0  0
  6 40  1  0  0  0  0
  7 12  1  0  0  0  0
  7  8  1  0  0  0  0
  7 41  1  6  0  0  0
  8 13  1  0  0  0  0
  8 42  1  1  0  0  0
  9 14  1  0  0  0  0
  9 43  1  0  0  0  0
 11 15  1  0  0  0  0
 11 14  1  0  0  0  0
 12 16  1  0  0  0  0
 12 44  1  0  0  0  0
 12 45  1  0  0  0  0
 13 46  1  0  0  0  0
 14 17  2  0  0  0  0
 15 47  1  0  0  0  0
 15 48  1  0  0  0  0
 15 49  1  0  0  0  0
 16 18  1  0  0  0  0
 18 19  1  0  0  0  0
 18 20  1  0  0  0  0
 18 21  2  0  0  0  0
 19 22  1  0  0  0  0
 20 50  1  0  0  0  0
 22 23  1  0  0  0  0
 22 24  1  0  0  0  0
 22 25  2  0  0  0  0
 24 51  1  0  0  0  0
 26 23  1  0  0  0  0
 26 27  1  0  0  0  0
 26 28  1  0  0  0  0
 26 52  1  1  0  0  0
 27 29  1  0  0  0  0
 28 30  1  0  0  0  0
 28 31  1  0  0  0  0
 28 53  1  1  0  0  0
 29 32  1  0  0  0  0
 29 33  1  0  0  0  0
 29 54  1  6  0  0  0
 30 34  1  0  0  0  0
 30 32  1  0  0  0  0
 30 55  1  6  0  0  0
 31 56  1  0  0  0  0
 32 35  1  0  0  0  0
 32 57  1  1  0  0  0
 33 36  1  0  0  0  0
 33 58  1  0  0  0  0
 33 59  1  0  0  0  0
 34 60  1  0  0  0  0
 35 61  1  0  0  0  0
 36 62  1  0  0  0  0
M  END
>  <DRUGBANK_ID>
DB03751

>  <SECONDARY_ACCESSION_NUMBERS>
EXPT01115

>  <COMMON_NAME>
2'deoxy-Thymidine-5'-Diphospho-Alpha-D-Glucose

>  <UNII>
Q9XRK94HEF

$$$$
