
 OpenBabel10282417072D

 60 62  0  0  0  0  0  0  0  0999 V2000
   -1.8371    0.1668    0.0000 C   0  0  0  0  0  0  0  0  0  0  0  0
   -1.1157    0.5995    0.0000 C   0  0  0  0  0  0  0  0  0  0  0  0
   -0.3899    0.1668    0.0000 N   0  0  0  0  0  0  0  0  0  0  0  0
    0.3313    0.6221    0.0000 C   0  0  0  0  0  0  0  0  0  0  0  0
   -1.1157    1.4065    0.0000 C   0  0  0  0  0  0  0  0  0  0  0  0
   -1.8371   -0.6491    0.0000 C   0  0  0  0  0  0  0  0  0  0  0  0
    1.0616    0.2209    0.0000 C   0  0  0  0  0  0  0  0  0  0  0  0
    2.4817   -0.5769    0.0000 C   0  0  0  0  0  0  0  0  0  0  0  0
   -2.5674   -1.0548    0.0000 N   0  0  0  0  0  0  0  0  0  0  0  0
   -1.8371    1.8258    0.0000 C   0  0  0  0  0  0  0  0  0  0  0  0
    2.4907    0.2434    0.0000 C   0  0  0  0  0  0  0  0  0  0  0  0
    1.7649    0.6491    0.0000 C   0  0  0  0  0  0  0  0  0  0  0  0
    3.2481   -1.0008    0.0000 O   0  0  0  0  0  0  0  0  0  0  0  0
   -2.5493    0.5995    0.0000 C   0  0  0  0  0  0  0  0  0  0  0  0
    3.9694   -0.5545    0.0000 C   0  0  0  0  0  0  0  0  0  0  0  0
   -2.5493    1.4245    0.0000 C   0  0  0  0  0  0  0  0  0  0  0  0
    0.3448    1.4471    0.0000 O   0  0  0  0  0  0  0  0  0  0  0  0
    1.0481   -0.6040    0.0000 C   0  0  0  0  0  0  0  0  0  0  0  0
    1.8189   -1.0008    0.0000 C   0  0  0  0  0  0  0  0  0  0  0  0
    3.9423    0.0676    0.0000 O   0  0  0  0  0  0  0  0  0  0  0  0
   -3.2661   -0.6491    0.0000 C   0  0  0  0  0  0  0  0  0  0  0  0
   -0.3899    1.8258    0.0000 Br  0  0  0  0  0  0  0  0  0  0  0  0
   -3.2436    1.8798    0.0000 Br  0  0  0  0  0  0  0  0  0  0  0  0
    3.1939    0.6761    0.0000 O   0  0  0  0  0  0  0  0  0  0  0  0
   -2.5674   -1.8798    0.0000 C   0  0  0  0  0  0  0  0  0  0  0  0
    4.6996   -0.9466    0.0000 C   0  0  0  0  0  0  0  0  0  0  0  0
   -3.9964   -1.0548    0.0000 C   0  0  0  0  0  0  0  0  0  0  0  0
   -3.2661    0.1668    0.0000 C   0  0  0  0  0  0  0  0  0  0  0  0
    3.1714    1.6499    0.0000 C   0  0  0  0  0  0  0  0  0  0  0  0
   -3.9964    0.5725    0.0000 C   0  0  0  0  0  0  0  0  0  0  0  0
   -4.6996   -0.6491    0.0000 C   0  0  0  0  0  0  0  0  0  0  0  0
   -4.6996    0.1668    0.0000 C   0  0  0  0  0  0  0  0  0  0  0  0
   -0.3773   -0.8176    0.0000 H   0  0  0  0  0  0  0  0  0  0  0  0
   -0.9149   -1.1917    0.0000 H   0  0  0  0  0  0  0  0  0  0  0  0
   -1.8504   -1.7190    0.0000 H   0  0  0  0  0  0  0  0  0  0  0  0
   -1.8302    2.8578    0.0000 H   0  0  0  0  0  0  0  0  0  0  0  0
    1.7457    1.6809    0.0000 H   0  0  0  0  0  0  0  0  0  0  0  0
   -3.4488    0.0935    0.0000 H   0  0  0  0  0  0  0  0  0  0  0  0
    0.1627   -1.1342    0.0000 H   0  0  0  0  0  0  0  0  0  0  0  0
    1.8672   -2.0317    0.0000 H   0  0  0  0  0  0  0  0  0  0  0  0
   -4.1883   -0.1065    0.0000 H   0  0  0  0  0  0  0  0  0  0  0  0
   -3.4940   -2.4148    0.0000 H   0  0  0  0  0  0  0  0  0  0  0  0
   -1.6408   -2.4148    0.0000 H   0  0  0  0  0  0  0  0  0  0  0  0
   -2.5674   -2.9498    0.0000 H   0  0  0  0  0  0  0  0  0  0  0  0
    4.7326   -2.0161    0.0000 H   0  0  0  0  0  0  0  0  0  0  0  0
    5.6093   -0.3833    0.0000 H   0  0  0  0  0  0  0  0  0  0  0  0
    5.6423   -1.4528    0.0000 H   0  0  0  0  0  0  0  0  0  0  0  0
   -4.0051   -2.1248    0.0000 H   0  0  0  0  0  0  0  0  0  0  0  0
   -4.9251   -1.5862    0.0000 H   0  0  0  0  0  0  0  0  0  0  0  0
   -2.3439    0.7094    0.0000 H   0  0  0  0  0  0  0  0  0  0  0  0
   -3.2794    1.2367    0.0000 H   0  0  0  0  0  0  0  0  0  0  0  0
    4.0854    2.2062    0.0000 H   0  0  0  0  0  0  0  0  0  0  0  0
    2.2326    2.1634    0.0000 H   0  0  0  0  0  0  0  0  0  0  0  0
    3.1467    2.7196    0.0000 H   0  0  0  0  0  0  0  0  0  0  0  0
   -4.0051    1.6425    0.0000 H   0  0  0  0  0  0  0  0  0  0  0  0
   -4.9251    1.1039    0.0000 H   0  0  0  0  0  0  0  0  0  0  0  0
   -5.6262   -1.1842    0.0000 H   0  0  0  0  0  0  0  0  0  0  0  0
   -5.6263   -0.1142    0.0000 H   0  0  0  0  0  0  0  0  0  0  0  0
   -5.6262    0.7019    0.0000 H   0  0  0  0  0  0  0  0  0  0  0  0
   -5.6263   -0.3681    0.0000 H   0  0  0  0  0  0  0  0  0  0  0  0
  2  1  2  0  0  0  0
  3  2  1  0  0  0  0
  3 33  1  0  0  0  0
  4  3  1  0  0  0  0
  5  2  1  0  0  0  0
  5 10  2  0  0  0  0
  6  1  1  0  0  0  0
  6 34  1  0  0  0  0
  6 35  1  0  0  0  0
  7  4  1  0  0  0  0
  8 19  1  0  0  0  0
  9  6  1  0  0  0  0
 10 16  1  0  0  0  0
 10 36  1  0  0  0  0
 11 12  1  0  0  0  0
 11  8  2  0  0  0  0
 12  7  2  0  0  0  0
 12 37  1  0  0  0  0
 13  8  1  0  0  0  0
 14  1  1  0  0  0  0
 14 38  1  0  0  0  0
 15 13  1  0  0  0  0
 16 14  2  0  0  0  0
 17  4  2  0  0  0  0
 18  7  1  0  0  0  0
 18 39  1  0  0  0  0
 19 18  2  0  0  0  0
 19 40  1  0  0  0  0
 20 15  2  0  0  0  0
 21  9  1  0  0  0  0
 21 41  1  0  0  0  0
 22  5  1  0  0  0  0
 23 16  1  0  0  0  0
 24 11  1  0  0  0  0
 25  9  1  0  0  0  0
 25 42  1  0  0  0  0
 25 43  1  0  0  0  0
 25 44  1  0  0  0  0
 26 15  1  0  0  0  0
 26 45  1  0  0  0  0
 26 46  1  0  0  0  0
 26 47  1  0  0  0  0
 27 21  1  0  0  0  0
 27 48  1  0  0  0  0
 27 49  1  0  0  0  0
 28 21  1  0  0  0  0
 28 50  1  0  0  0  0
 28 51  1  0  0  0  0
 29 24  1  0  0  0  0
 29 52  1  0  0  0  0
 29 53  1  0  0  0  0
 29 54  1  0  0  0  0
 30 28  1  0  0  0  0
 30 55  1  0  0  0  0
 30 56  1  0  0  0  0
 31 27  1  0  0  0  0
 31 32  1  0  0  0  0
 31 57  1  0  0  0  0
 31 58  1  0  0  0  0
 32 30  1  0  0  0  0
 32 59  1  0  0  0  0
 32 60  1  0  0  0  0
M  END
>  <DRUGBANK_ID>
DB14720

>  <COMMON_NAME>
Brovanexine

>  <CAS_NUMBER>
54340-61-3

>  <UNII>
Y00SD533IW

>  <SYNONYMS>
Brovanexina; Brovanexine; Brovanexinum

$$$$
