
 OpenBabel10282417072D

 37 38  0  0  0  0  0  0  0  0999 V2000
    0.0281   -0.2978    0.0000 N   0  0  0  0  0  0  0  0  0  0  0  0
    0.8527   -0.2554    0.0000 C   0  0  0  0  0  0  0  0  0  0  0  0
   -1.1558   -1.0801    0.0000 C   0  0  0  0  0  0  0  0  0  0  0  0
   -1.6738   -0.4352    0.0000 S   0  0  0  0  0  0  0  0  0  0  0  0
   -0.3348   -1.0343    0.0000 C   0  0  0  0  0  0  0  0  0  0  0  0
    1.3074   -0.9426    0.0000 N   0  0  0  0  0  0  0  0  0  0  0  0
   -2.4456   -0.7276    0.0000 C   0  0  0  0  0  0  0  0  0  0  0  0
   -1.6104   -1.7673    0.0000 C   0  0  0  0  0  0  0  0  0  0  0  0
   -0.4052    0.3893    0.0000 C   0  0  0  0  0  0  0  0  0  0  0  0
   -2.4068   -1.5522    0.0000 C   0  0  0  0  0  0  0  0  0  0  0  0
   -1.6738    1.0448    0.0000 N   0  0  0  0  0  0  0  0  0  0  0  0
   -1.2298    0.3506    0.0000 C   0  0  0  0  0  0  0  0  0  0  0  0
    1.2298    0.4739    0.0000 C   0  0  0  0  0  0  0  0  0  0  0  0
    2.1320   -0.9109    0.0000 C   0  0  0  0  0  0  0  0  0  0  0  0
   -2.5020    1.0025    0.0000 C   0  0  0  0  0  0  0  0  0  0  0  0
   -1.3038    1.7673    0.0000 C   0  0  0  0  0  0  0  0  0  0  0  0
    2.0544    0.5197    0.0000 C   0  0  0  0  0  0  0  0  0  0  0  0
    2.5020   -0.1708    0.0000 C   0  0  0  0  0  0  0  0  0  0  0  0
    0.2555   -1.9268    0.0000 H   0  0  0  0  0  0  0  0  0  0  0  0
    0.7331   -0.9667    0.0000 H   0  0  0  0  0  0  0  0  0  0  0  0
   -3.3084   -0.1613    0.0000 H   0  0  0  0  0  0  0  0  0  0  0  0
   -1.2456   -2.7327    0.0000 H   0  0  0  0  0  0  0  0  0  0  0  0
    0.0895    1.3381    0.0000 H   0  0  0  0  0  0  0  0  0  0  0  0
   -0.9813    1.2910    0.0000 H   0  0  0  0  0  0  0  0  0  0  0  0
   -3.2112   -2.1987    0.0000 H   0  0  0  0  0  0  0  0  0  0  0  0
   -1.7215   -0.5997    0.0000 H   0  0  0  0  0  0  0  0  0  0  0  0
   -0.6523   -0.5502    0.0000 H   0  0  0  0  0  0  0  0  0  0  0  0
    0.6690    1.3402    0.0000 H   0  0  0  0  0  0  0  0  0  0  0  0
    2.6913   -1.7782    0.0000 H   0  0  0  0  0  0  0  0  0  0  0  0
   -3.0836    1.9007    0.0000 H   0  0  0  0  0  0  0  0  0  0  0  0
   -2.9890    0.0498    0.0000 H   0  0  0  0  0  0  0  0  0  0  0  0
   -3.5706    0.9479    0.0000 H   0  0  0  0  0  0  0  0  0  0  0  0
   -0.2352    1.8211    0.0000 H   0  0  0  0  0  0  0  0  0  0  0  0
   -1.8847    2.6659    0.0000 H   0  0  0  0  0  0  0  0  0  0  0  0
   -0.8161    2.7197    0.0000 H   0  0  0  0  0  0  0  0  0  0  0  0
    2.5219    1.4398    0.0000 H   0  0  0  0  0  0  0  0  0  0  0  0
    3.5324   -0.1133    0.0000 H   0  0  0  0  0  0  0  0  0  0  0  0
  2  1  1  0  0  0  0
  3  5  1  0  0  0  0
  4  3  1  0  0  0  0
  5  1  1  0  0  0  0
  5 19  1  0  0  0  0
  5 20  1  0  0  0  0
  6  2  2  0  0  0  0
  7  4  1  0  0  0  0
  7 21  1  0  0  0  0
  8  3  2  0  0  0  0
  8 22  1  0  0  0  0
  9  1  1  0  0  0  0
  9 23  1  0  0  0  0
  9 24  1  0  0  0  0
 10  8  1  0  0  0  0
 10  7  2  0  0  0  0
 10 25  1  0  0  0  0
 11 12  1  0  0  0  0
 12  9  1  0  0  0  0
 12 26  1  0  0  0  0
 12 27  1  0  0  0  0
 13  2  1  0  0  0  0
 13 28  1  0  0  0  0
 14  6  1  0  0  0  0
 14 29  1  0  0  0  0
 15 11  1  0  0  0  0
 15 30  1  0  0  0  0
 15 31  1  0  0  0  0
 15 32  1  0  0  0  0
 16 11  1  0  0  0  0
 16 33  1  0  0  0  0
 16 34  1  0  0  0  0
 16 35  1  0  0  0  0
 17 13  2  0  0  0  0
 17 18  1  0  0  0  0
 17 36  1  0  0  0  0
 18 14  2  0  0  0  0
 18 37  1  0  0  0  0
M  END
>  <DRUGBANK_ID>
DB04819

>  <COMMON_NAME>
Methapyrilene

>  <CAS_NUMBER>
91-80-5

>  <UNII>
A01LX40298

>  <SYNONYMS>
2-[[2-(Dimethylamino)ethyl]-2-thenylamino]pyridine; Methapyrilene; Methypyrilene; N-(α-pyridyl)-N-(α-thenyl)-N',N'-dimethylethylenediamine; N,N-dimethyl-N'-pyrid-2-yl-N'-2-thenylethylenediamine; N,N-dimethyl-N'-pyridin-2-yl-N'-(2-thienylmethyl)ethane-1,2-diamine; Thenylpyramine

$$$$
