
 OpenBabel10282417072D

 83 88  0  0  0  0  0  0  0  0999 V2000
   -2.7246   -1.4525    0.0000 C   0  0  1  0  0  0  0  0  0  0  0  0
   -2.7308   -2.2785    0.0000 C   0  0  0  0  0  0  0  0  0  0  0  0
   -3.4378   -1.0318    0.0000 O   0  0  0  0  0  0  0  0  0  0  0  0
   -3.4488   -2.6884    0.0000 C   0  0  1  0  0  0  0  0  0  0  0  0
   -4.1589   -1.4401    0.0000 C   0  0  1  0  0  0  0  0  0  0  0  0
   -4.1621   -2.2678    0.0000 C   0  0  1  0  0  0  0  0  0  0  0  0
   -3.4596   -3.5157    0.0000 O   0  0  0  0  0  0  0  0  0  0  0  0
   -4.8691   -1.0212    0.0000 C   0  0  0  0  0  0  0  0  0  0  0  0
   -4.8831   -2.6760    0.0000 O   0  0  0  0  0  0  0  0  0  0  0  0
   -4.1856   -3.9252    0.0000 C   0  0  0  0  0  0  0  0  0  0  0  0
    0.1492    0.2009    0.0000 C   0  0  2  0  0  0  0  0  0  0  0  0
    0.8723    0.6132    0.0000 C   0  0  2  0  0  0  0  0  0  0  0  0
    0.1457   -0.6269    0.0000 C   0  0  1  0  0  0  0  0  0  0  0  0
   -0.5634    0.6167    0.0000 C   0  0  0  0  0  0  0  0  0  0  0  0
    0.1422    1.0289    0.0000 C   0  0  0  0  0  0  0  0  0  0  0  0
    1.5816    0.1939    0.0000 C   0  0  2  0  0  0  0  0  0  0  0  0
    0.8793    1.4377    0.0000 C   0  0  0  0  0  0  0  0  0  0  0  0
   -0.5634   -1.0392    0.0000 C   0  0  0  0  0  0  0  0  0  0  0  0
    0.8654   -1.0428    0.0000 C   0  0  0  0  0  0  0  0  0  0  0  0
    0.1387   -1.4481    0.0000 O   0  0  0  0  0  0  0  0  0  0  0  0
   -1.2796    0.2009    0.0000 C   0  0  0  0  0  0  0  0  0  0  0  0
   -0.5739    1.4411    0.0000 O   0  0  0  0  0  0  0  0  0  0  0  0
    2.2943    0.6027    0.0000 C   0  0  2  0  0  0  0  0  0  0  0  0
    1.5816   -0.6305    0.0000 C   0  0  0  0  0  0  0  0  0  0  0  0
    1.5955    1.8429    0.0000 C   0  0  0  0  0  0  0  0  0  0  0  0
   -1.2796   -0.6269    0.0000 C   0  0  2  0  0  0  0  0  0  0  0  0
    2.3047    1.4273    0.0000 C   0  0  2  0  0  0  0  0  0  0  0  0
    3.7232    0.5852    0.0000 C   0  0  0  0  0  0  0  0  0  0  0  0
    2.2874   -0.2217    0.0000 O   0  0  0  0  0  0  0  0  0  0  0  0
   -1.9958   -1.0392    0.0000 O   0  0  0  0  0  0  0  0  0  0  0  0
    3.0245    1.8290    0.0000 C   0  0  2  0  0  0  0  0  0  0  0  0
    2.2978    2.2516    0.0000 C   0  0  0  0  0  0  0  0  0  0  0  0
    3.7302    1.4063    0.0000 C   0  0  0  0  0  0  0  0  0  0  0  0
    3.0209    2.6569    0.0000 C   0  0  0  0  0  0  0  0  0  0  0  0
    2.7659    3.4396    0.0000 C   0  0  0  0  0  0  0  0  0  0  0  0
    3.8455    2.6605    0.0000 C   0  0  0  0  0  0  0  0  0  0  0  0
    3.4332    3.9252    0.0000 O   0  0  0  0  0  0  0  0  0  0  0  0
    4.0971    3.4431    0.0000 C   0  0  0  0  0  0  0  0  0  0  0  0
    4.8831    3.7016    0.0000 O   0  0  0  0  0  0  0  0  0  0  0  0
    0.8654   -0.2217    0.0000 H   0  0  0  0  0  0  0  0  0  0  0  0
    1.5746    1.0324    0.0000 H   0  0  0  0  0  0  0  0  0  0  0  0
    3.7426    2.2538    0.0000 H   0  0  0  0  0  0  0  0  0  0  0  0
   -1.8021   -1.9945    0.0000 H   0  0  0  0  0  0  0  0  0  0  0  0
   -1.8075   -2.8192    0.0000 H   0  0  0  0  0  0  0  0  0  0  0  0
   -2.7367   -3.3485    0.0000 H   0  0  0  0  0  0  0  0  0  0  0  0
   -2.5270   -3.2317    0.0000 H   0  0  0  0  0  0  0  0  0  0  0  0
   -5.0891   -1.9690    0.0000 H   0  0  0  0  0  0  0  0  0  0  0  0
   -5.0854   -1.7271    0.0000 H   0  0  0  0  0  0  0  0  0  0  0  0
   -4.8591    0.0488    0.0000 H   0  0  0  0  0  0  0  0  0  0  0  0
   -5.8007   -1.5475    0.0000 H   0  0  0  0  0  0  0  0  0  0  0  0
   -5.7907   -0.4776    0.0000 H   0  0  0  0  0  0  0  0  0  0  0  0
   -5.7190   -2.1839    0.0000 H   0  0  0  0  0  0  0  0  0  0  0  0
   -5.1068   -3.3809    0.0000 H   0  0  0  0  0  0  0  0  0  0  0  0
   -4.1963   -4.9951    0.0000 H   0  0  0  0  0  0  0  0  0  0  0  0
   -5.1176   -4.4509    0.0000 H   0  0  0  0  0  0  0  0  0  0  0  0
   -0.5622    1.6867    0.0000 H   0  0  0  0  0  0  0  0  0  0  0  0
   -1.4904    1.1511    0.0000 H   0  0  0  0  0  0  0  0  0  0  0  0
    1.0334    1.5493    0.0000 H   0  0  0  0  0  0  0  0  0  0  0  0
   -0.0427    1.9807    0.0000 H   0  0  0  0  0  0  0  0  0  0  0  0
    0.8886    2.5077    0.0000 H   0  0  0  0  0  0  0  0  0  0  0  0
   -0.5611   -2.1092    0.0000 H   0  0  0  0  0  0  0  0  0  0  0  0
   -1.4891   -1.5758    0.0000 H   0  0  0  0  0  0  0  0  0  0  0  0
    0.8645   -2.1128    0.0000 H   0  0  0  0  0  0  0  0  0  0  0  0
    1.7915   -1.5788    0.0000 H   0  0  0  0  0  0  0  0  0  0  0  0
   -0.7054   -1.9259    0.0000 H   0  0  0  0  0  0  0  0  0  0  0  0
   -2.2069    0.7348    0.0000 H   0  0  0  0  0  0  0  0  0  0  0  0
   -2.2059   -0.3347    0.0000 H   0  0  0  0  0  0  0  0  0  0  0  0
    2.5079   -1.1661    0.0000 H   0  0  0  0  0  0  0  0  0  0  0  0
    1.5806   -1.7005    0.0000 H   0  0  0  0  0  0  0  0  0  0  0  0
    1.6036    2.9129    0.0000 H   0  0  0  0  0  0  0  0  0  0  0  0
    2.5259    2.3714    0.0000 H   0  0  0  0  0  0  0  0  0  0  0  0
   -1.2796   -1.6969    0.0000 H   0  0  0  0  0  0  0  0  0  0  0  0
    4.4719   -0.1792    0.0000 H   0  0  0  0  0  0  0  0  0  0  0  0
    4.7156    0.9853    0.0000 H   0  0  0  0  0  0  0  0  0  0  0  0
    1.4433   -0.6997    0.0000 H   0  0  0  0  0  0  0  0  0  0  0  0
    3.2199    2.7943    0.0000 H   0  0  0  0  0  0  0  0  0  0  0  0
    1.3667    2.7788    0.0000 H   0  0  0  0  0  0  0  0  0  0  0  0
    2.2888    3.3216    0.0000 H   0  0  0  0  0  0  0  0  0  0  0  0
    4.6634    1.9299    0.0000 H   0  0  0  0  0  0  0  0  0  0  0  0
    3.7454    2.4762    0.0000 H   0  0  0  0  0  0  0  0  0  0  0  0
    1.7480    3.7695    0.0000 H   0  0  0  0  0  0  0  0  0  0  0  0
    2.5977    4.4963    0.0000 H   0  0  0  0  0  0  0  0  0  0  0  0
    4.4552    1.8279    0.0000 H   0  0  0  0  0  0  0  0  0  0  0  0
  1  2  1  0  0  0  0
  1  3  1  0  0  0  0
  1 30  1  0  0  0  0
  1 43  1  6  0  0  0
  2  4  1  0  0  0  0
  2 44  1  0  0  0  0
  2 45  1  0  0  0  0
  3  5  1  0  0  0  0
  4  6  1  0  0  0  0
  4  7  1  0  0  0  0
  4 46  1  1  0  0  0
  5  6  1  0  0  0  0
  5  8  1  0  0  0  0
  5 47  1  6  0  0  0
  6  9  1  0  0  0  0
  6 48  1  1  0  0  0
  7 10  1  0  0  0  0
  8 49  1  0  0  0  0
  8 50  1  0  0  0  0
  8 51  1  0  0  0  0
  9 52  1  0  0  0  0
 10 53  1  0  0  0  0
 10 54  1  0  0  0  0
 10 55  1  0  0  0  0
 11 12  1  0  0  0  0
 11 13  1  0  0  0  0
 11 14  1  0  0  0  0
 11 15  1  1  0  0  0
 12 16  1  0  0  0  0
 12 17  1  0  0  0  0
 12 40  1  6  0  0  0
 13 18  1  0  0  0  0
 13 19  1  0  0  0  0
 13 20  1  1  0  0  0
 14 21  1  0  0  0  0
 14 56  1  0  0  0  0
 14 57  1  0  0  0  0
 15 22  2  0  0  0  0
 15 58  1  0  0  0  0
 16 23  1  0  0  0  0
 16 24  1  0  0  0  0
 16 41  1  1  0  0  0
 17 25  1  0  0  0  0
 17 59  1  0  0  0  0
 17 60  1  0  0  0  0
 18 26  1  0  0  0  0
 18 61  1  0  0  0  0
 18 62  1  0  0  0  0
 19 24  1  0  0  0  0
 19 63  1  0  0  0  0
 19 64  1  0  0  0  0
 20 65  1  0  0  0  0
 21 26  1  0  0  0  0
 21 66  1  0  0  0  0
 21 67  1  0  0  0  0
 23 27  1  0  0  0  0
 23 28  1  0  0  0  0
 23 29  1  1  0  0  0
 24 68  1  0  0  0  0
 24 69  1  0  0  0  0
 25 27  1  0  0  0  0
 25 70  1  0  0  0  0
 25 71  1  0  0  0  0
 26 30  1  0  0  0  0
 26 72  1  6  0  0  0
 27 31  1  0  0  0  0
 27 32  1  1  0  0  0
 28 33  1  0  0  0  0
 28 73  1  0  0  0  0
 28 74  1  0  0  0  0
 29 75  1  0  0  0  0
 31 34  1  0  0  0  0
 31 33  1  0  0  0  0
 31 42  1  6  0  0  0
 32 76  1  0  0  0  0
 32 77  1  0  0  0  0
 32 78  1  0  0  0  0
 33 79  1  0  0  0  0
 33 80  1  0  0  0  0
 34 35  1  0  0  0  0
 34 36  2  0  0  0  0
 35 37  1  0  0  0  0
 35 81  1  0  0  0  0
 35 82  1  0  0  0  0
 36 38  1  0  0  0  0
 36 83  1  0  0  0  0
 37 38  1  0  0  0  0
 38 39  2  0  0  0  0
M  END
>  <DRUGBANK_ID>
DB13240

>  <COMMON_NAME>
Cymarin

>  <CAS_NUMBER>
508-77-0

>  <UNII>
UK3LS8435E

>  <SYNONYMS>
Cymarine

$$$$
