
 OpenBabel10282417072D

 50 52  0  0  0  0  0  0  0  0999 V2000
    2.4751   -1.8357    0.0000 S   0  0  0  0  0  0  0  0  0  0  0  0
    9.1807   -0.1856    0.0000 F   0  0  0  0  0  0  0  0  0  0  0  0
    5.3992   -0.8496    0.0000 O   0  0  0  0  0  0  0  0  0  0  0  0
    2.4751    0.6394    0.0000 O   0  0  0  0  0  0  0  0  0  0  0  0
    6.4628    1.4326    0.0000 O   0  0  0  0  0  0  0  0  0  0  0  0
    3.3001   -1.8357    0.0000 O   0  0  0  0  0  0  0  0  0  0  0  0
    1.6500   -1.8357    0.0000 O   0  0  0  0  0  0  0  0  0  0  0  0
    2.4751   -1.0106    0.0000 N   0  0  0  0  0  0  0  0  0  0  0  0
    5.1045    1.8765    0.0000 N   0  0  0  0  0  0  0  0  0  0  0  0
    4.6185    0.2269    0.0000 C   0  0  0  0  0  0  0  0  0  0  0  0
    4.6185   -0.5981    0.0000 C   0  0  0  0  0  0  0  0  0  0  0  0
    5.3992    0.4783    0.0000 C   0  0  0  0  0  0  0  0  0  0  0  0
    3.1895   -0.5981    0.0000 C   0  0  0  0  0  0  0  0  0  0  0  0
    5.8806   -0.1856    0.0000 C   0  0  0  0  0  0  0  0  0  0  0  0
    3.1895    0.2269    0.0000 C   0  0  0  0  0  0  0  0  0  0  0  0
    3.9041    0.6394    0.0000 C   0  0  0  0  0  0  0  0  0  0  0  0
    3.9041   -1.0106    0.0000 C   0  0  0  0  0  0  0  0  0  0  0  0
    6.7057   -0.1856    0.0000 C   0  0  0  0  0  0  0  0  0  0  0  0
    2.4751    1.4644    0.0000 C   0  0  0  0  0  0  0  0  0  0  0  0
    5.6555    1.2624    0.0000 C   0  0  0  0  0  0  0  0  0  0  0  0
    7.1182    0.5288    0.0000 C   0  0  0  0  0  0  0  0  0  0  0  0
    7.1182   -0.9002    0.0000 C   0  0  0  0  0  0  0  0  0  0  0  0
    1.7606    1.8769    0.0000 C   0  0  0  0  0  0  0  0  0  0  0  0
    3.1895    1.8769    0.0000 C   0  0  0  0  0  0  0  0  0  0  0  0
    2.4751   -2.6607    0.0000 C   0  0  0  0  0  0  0  0  0  0  0  0
    7.9432    0.5288    0.0000 C   0  0  0  0  0  0  0  0  0  0  0  0
    7.9432   -0.9002    0.0000 C   0  0  0  0  0  0  0  0  0  0  0  0
    8.3557   -0.1856    0.0000 C   0  0  0  0  0  0  0  0  0  0  0  0
    5.3608    2.6607    0.0000 C   0  0  0  0  0  0  0  0  0  0  0  0
    1.6225   -0.5184    0.0000 H   0  0  0  0  0  0  0  0  0  0  0  0
    4.1412    1.6735    0.0000 H   0  0  0  0  0  0  0  0  0  0  0  0
    3.9042    1.6714    0.0000 H   0  0  0  0  0  0  0  0  0  0  0  0
    3.9042   -2.0426    0.0000 H   0  0  0  0  0  0  0  0  0  0  0  0
    2.4751    2.5344    0.0000 H   0  0  0  0  0  0  0  0  0  0  0  0
    6.6022    1.4225    0.0000 H   0  0  0  0  0  0  0  0  0  0  0  0
    6.6022   -1.7939    0.0000 H   0  0  0  0  0  0  0  0  0  0  0  0
    1.7606    2.9469    0.0000 H   0  0  0  0  0  0  0  0  0  0  0  0
    0.8340    1.3419    0.0000 H   0  0  0  0  0  0  0  0  0  0  0  0
    0.8339    2.4119    0.0000 H   0  0  0  0  0  0  0  0  0  0  0  0
    4.1162    1.3419    0.0000 H   0  0  0  0  0  0  0  0  0  0  0  0
    3.1895    2.9469    0.0000 H   0  0  0  0  0  0  0  0  0  0  0  0
    4.1161    2.4119    0.0000 H   0  0  0  0  0  0  0  0  0  0  0  0
    1.5485   -3.1957    0.0000 H   0  0  0  0  0  0  0  0  0  0  0  0
    3.4017   -3.1957    0.0000 H   0  0  0  0  0  0  0  0  0  0  0  0
    2.4751   -3.7307    0.0000 H   0  0  0  0  0  0  0  0  0  0  0  0
    8.4592    1.4225    0.0000 H   0  0  0  0  0  0  0  0  0  0  0  0
    8.4592   -1.7939    0.0000 H   0  0  0  0  0  0  0  0  0  0  0  0
    6.4078    2.8814    0.0000 H   0  0  0  0  0  0  0  0  0  0  0  0
    4.6462    3.4571    0.0000 H   0  0  0  0  0  0  0  0  0  0  0  0
    5.6932    3.6778    0.0000 H   0  0  0  0  0  0  0  0  0  0  0  0
  1  6  2  0  0  0  0
  1  7  2  0  0  0  0
  1  8  1  0  0  0  0
  1 25  1  0  0  0  0
  2 28  1  0  0  0  0
  3 11  1  0  0  0  0
  3 14  1  0  0  0  0
  4 15  1  0  0  0  0
  4 19  1  0  0  0  0
  5 20  2  0  0  0  0
  8 13  1  0  0  0  0
  8 30  1  0  0  0  0
  9 20  1  0  0  0  0
  9 29  1  0  0  0  0
  9 31  1  0  0  0  0
 10 11  1  0  0  0  0
 10 12  1  0  0  0  0
 10 16  2  0  0  0  0
 11 17  2  0  0  0  0
 12 14  2  0  0  0  0
 12 20  1  0  0  0  0
 13 15  2  0  0  0  0
 13 17  1  0  0  0  0
 14 18  1  0  0  0  0
 15 16  1  0  0  0  0
 16 32  1  0  0  0  0
 17 33  1  0  0  0  0
 18 21  2  0  0  0  0
 18 22  1  0  0  0  0
 19 23  1  0  0  0  0
 19 24  1  0  0  0  0
 19 34  1  0  0  0  0
 21 26  1  0  0  0  0
 21 35  1  0  0  0  0
 22 27  2  0  0  0  0
 22 36  1  0  0  0  0
 23 37  1  0  0  0  0
 23 38  1  0  0  0  0
 23 39  1  0  0  0  0
 24 40  1  0  0  0  0
 24 41  1  0  0  0  0
 24 42  1  0  0  0  0
 25 43  1  0  0  0  0
 25 44  1  0  0  0  0
 25 45  1  0  0  0  0
 26 28  2  0  0  0  0
 26 46  1  0  0  0  0
 27 28  1  0  0  0  0
 27 47  1  0  0  0  0
 29 48  1  0  0  0  0
 29 49  1  0  0  0  0
 29 50  1  0  0  0  0
M  END
>  <DRUGBANK_ID>
DB05884

>  <COMMON_NAME>
HCV-086

$$$$
