
 OpenBabel10282417072D

 35 34  0  0  0  0  0  0  0  0999 V2000
    0.3590   -0.2112    0.0000 C   0  0  0  0  0  0  0  0  0  0  0  0
   -0.3481   -0.6250    0.0000 C   0  0  0  0  0  0  0  0  0  0  0  0
    1.0706   -0.6250    0.0000 C   0  0  0  0  0  0  0  0  0  0  0  0
   -1.0641   -0.2112    0.0000 C   0  0  0  0  0  0  0  0  0  0  0  0
    1.7669   -0.2112    0.0000 C   0  0  0  0  0  0  0  0  0  0  0  0
   -1.7865   -0.6250    0.0000 C   0  0  0  0  0  0  0  0  0  0  0  0
    2.4827   -0.6250    0.0000 C   0  0  0  0  0  0  0  0  0  0  0  0
   -2.5025   -0.2112    0.0000 C   0  0  0  0  0  0  0  0  0  0  0  0
    3.2010   -0.2112    0.0000 C   0  0  0  0  0  0  0  0  0  0  0  0
   -3.1923   -0.6250    0.0000 C   0  0  0  0  0  0  0  0  0  0  0  0
    3.8972   -0.6250    0.0000 O   0  0  0  0  0  0  0  0  0  0  0  0
    3.2010    0.6250    0.0000 O   0  0  0  0  0  0  0  0  0  0  0  0
   -3.8972   -0.2112    0.0000 C   0  0  0  0  0  0  0  0  0  0  0  0
    0.3575    0.8588    0.0000 H   0  0  0  0  0  0  0  0  0  0  0  0
    1.2861    0.3230    0.0000 H   0  0  0  0  0  0  0  0  0  0  0  0
   -0.3452   -1.6950    0.0000 H   0  0  0  0  0  0  0  0  0  0  0  0
   -1.2741   -1.1611    0.0000 H   0  0  0  0  0  0  0  0  0  0  0  0
    1.0757   -1.6950    0.0000 H   0  0  0  0  0  0  0  0  0  0  0  0
    2.0019   -1.1519    0.0000 H   0  0  0  0  0  0  0  0  0  0  0  0
   -1.0620    0.8588    0.0000 H   0  0  0  0  0  0  0  0  0  0  0  0
   -1.9893    0.3263    0.0000 H   0  0  0  0  0  0  0  0  0  0  0  0
    1.7605    0.8588    0.0000 H   0  0  0  0  0  0  0  0  0  0  0  0
    2.6921    0.3263    0.0000 H   0  0  0  0  0  0  0  0  0  0  0  0
   -1.7886   -1.6950    0.0000 H   0  0  0  0  0  0  0  0  0  0  0  0
   -2.7138   -1.1589    0.0000 H   0  0  0  0  0  0  0  0  0  0  0  0
    2.4819   -1.6950    0.0000 H   0  0  0  0  0  0  0  0  0  0  0  0
    3.4089   -1.1608    0.0000 H   0  0  0  0  0  0  0  0  0  0  0  0
   -2.5112    0.8588    0.0000 H   0  0  0  0  0  0  0  0  0  0  0  0
   -3.4357    0.3122    0.0000 H   0  0  0  0  0  0  0  0  0  0  0  0
   -3.1872   -1.6950    0.0000 H   0  0  0  0  0  0  0  0  0  0  0  0
   -4.1196   -1.1589    0.0000 H   0  0  0  0  0  0  0  0  0  0  0  0
    3.8853   -1.5619    0.0000 H   0  0  0  0  0  0  0  0  0  0  0  0
   -3.8895    0.8588    0.0000 H   0  0  0  0  0  0  0  0  0  0  0  0
   -4.8277   -0.7395    0.0000 H   0  0  0  0  0  0  0  0  0  0  0  0
   -4.8200    0.3305    0.0000 H   0  0  0  0  0  0  0  0  0  0  0  0
  1  2  1  0  0  0  0
  1  3  1  0  0  0  0
  1 14  1  0  0  0  0
  1 15  1  0  0  0  0
  2  4  1  0  0  0  0
  2 16  1  0  0  0  0
  2 17  1  0  0  0  0
  3  5  1  0  0  0  0
  3 18  1  0  0  0  0
  3 19  1  0  0  0  0
  4  6  1  0  0  0  0
  4 20  1  0  0  0  0
  4 21  1  0  0  0  0
  5  7  1  0  0  0  0
  5 22  1  0  0  0  0
  5 23  1  0  0  0  0
  6  8  1  0  0  0  0
  6 24  1  0  0  0  0
  6 25  1  0  0  0  0
  7  9  1  0  0  0  0
  7 26  1  0  0  0  0
  7 27  1  0  0  0  0
  8 10  1  0  0  0  0
  8 28  1  0  0  0  0
  8 29  1  0  0  0  0
  9 11  1  0  0  0  0
  9 12  2  0  0  0  0
 10 13  1  0  0  0  0
 10 30  1  0  0  0  0
 10 31  1  0  0  0  0
 11 32  1  0  0  0  0
 13 33  1  0  0  0  0
 13 34  1  0  0  0  0
 13 35  1  0  0  0  0
M  END
>  <DRUGBANK_ID>
DB16857

>  <COMMON_NAME>
Undecanoic acid

>  <CAS_NUMBER>
112-37-8

>  <UNII>
138ON3IIQG

>  <SYNONYMS>
Hendecanoic acid; Undecanoate; Undecoic acid; Undecylic acid

$$$$
