
 OpenBabel10282417072D

 65 66  0  0  1  0  0  0  0  0999 V2000
   -0.3680   10.9468    0.0000 C   0  0  0  0  0  0  0  0  0  0  0  0
    0.8695   11.6613    0.0000 C   0  0  0  0  0  0  0  0  0  0  0  0
   -0.1174    7.9784    0.0000 C   0  0  0  0  0  0  0  0  0  0  0  0
    0.5971    6.7409    0.0000 C   0  0  0  0  0  0  0  0  0  0  0  0
    4.1695   11.2784    0.0000 C   0  0  0  0  0  0  0  0  0  0  0  0
    5.5984   11.2784    0.0000 C   0  0  0  0  0  0  0  0  0  0  0  0
    7.6248   13.0299    0.0000 C   0  0  0  0  0  0  0  0  0  0  0  0
    4.9310   12.5883    0.0000 C   0  0  0  0  0  0  0  0  0  0  0  0
    2.9320    9.5179    0.0000 C   0  0  0  0  0  0  0  0  0  0  0  0
    3.4550    7.5659    0.0000 C   0  0  0  0  0  0  0  0  0  0  0  0
    4.1695    9.6284    0.0000 C   0  0  0  0  0  0  0  0  0  0  0  0
    0.4570   10.9468    0.0000 C   0  0  0  0  0  0  0  0  0  0  0  0
    0.5971    7.5659    0.0000 C   0  0  0  0  0  0  0  0  0  0  0  0
    4.8839   10.8659    0.0000 C   0  0  2  0  0  0  0  0  0  0  0  0
    6.0109   13.3729    0.0000 C   0  0  0  0  0  0  0  0  0  0  0  0
    6.5629   13.9860    0.0000 C   0  0  0  0  0  0  0  0  0  0  0  0
    6.2658   12.5883    0.0000 C   0  0  0  0  0  0  0  0  0  0  0  0
    1.6945   10.2323    0.0000 C   0  0  0  0  0  0  0  0  0  0  0  0
    2.0260    7.5659    0.0000 C   0  0  0  0  0  0  0  0  0  0  0  0
    6.3080   14.7707    0.0000 N   0  0  0  0  0  0  0  0  0  0  0  0
    7.3699   13.8145    0.0000 N   0  0  0  0  0  0  0  0  0  0  0  0
    7.0728   12.4168    0.0000 N   0  0  0  0  0  0  0  0  0  0  0  0
    5.1859   13.3729    0.0000 N   0  0  0  0  0  0  0  0  0  0  0  0
    5.5984   12.1034    0.0000 N   0  0  0  0  0  0  0  0  0  0  0  0
    2.1070   10.9468    0.0000 O   0  0  0  0  0  0  0  0  0  0  0  0
    2.0260    6.7409    0.0000 O   0  0  0  0  0  0  0  0  0  0  0  0
    4.9945    8.8034    0.0000 O   0  0  0  0  0  0  0  0  0  0  0  0
    2.1070    9.5179    0.0000 O   0  0  0  0  0  0  0  0  0  0  0  0
    2.7405    7.9784    0.0000 O   0  0  0  0  0  0  0  0  0  0  0  0
    4.8839   10.0409    0.0000 O   0  0  0  0  0  0  0  0  0  0  0  0
    3.3445    8.8034    0.0000 O   0  0  0  0  0  0  0  0  0  0  0  0
    4.1695    7.9784    0.0000 O   0  0  0  0  0  0  0  0  0  0  0  0
    0.8695   10.2323    0.0000 O   0  0  0  0  0  0  0  0  0  0  0  0
    1.3116    7.9784    0.0000 O   0  0  0  0  0  0  0  0  0  0  0  0
    4.1695    8.8034    0.0000 P   0  0  0  0  0  0  0  0  0  0  0  0
    4.8839   11.6909    0.0000 H   0  0  0  0  0  0  0  0  0  0  0  0
   -0.9030   11.8734    0.0000 H   0  0  0  0  0  0  0  0  0  0  0  0
   -0.9030   10.0202    0.0000 H   0  0  0  0  0  0  0  0  0  0  0  0
   -1.4380   10.9468    0.0000 H   0  0  0  0  0  0  0  0  0  0  0  0
    1.9395   11.6613    0.0000 H   0  0  0  0  0  0  0  0  0  0  0  0
    0.3345   12.5879    0.0000 H   0  0  0  0  0  0  0  0  0  0  0  0
    1.4045   12.5880    0.0000 H   0  0  0  0  0  0  0  0  0  0  0  0
   -0.1174    9.0484    0.0000 H   0  0  0  0  0  0  0  0  0  0  0  0
   -1.0440    7.4434    0.0000 H   0  0  0  0  0  0  0  0  0  0  0  0
   -1.0441    8.5134    0.0000 H   0  0  0  0  0  0  0  0  0  0  0  0
   -0.3295    6.2059    0.0000 H   0  0  0  0  0  0  0  0  0  0  0  0
    1.5237    6.2059    0.0000 H   0  0  0  0  0  0  0  0  0  0  0  0
    0.5971    5.6709    0.0000 H   0  0  0  0  0  0  0  0  0  0  0  0
    4.1695   12.3484    0.0000 H   0  0  0  0  0  0  0  0  0  0  0  0
    3.2428   10.7434    0.0000 H   0  0  0  0  0  0  0  0  0  0  0  0
    3.2429   11.8134    0.0000 H   0  0  0  0  0  0  0  0  0  0  0  0
    6.5250   10.7434    0.0000 H   0  0  0  0  0  0  0  0  0  0  0  0
    6.5250   11.8134    0.0000 H   0  0  0  0  0  0  0  0  0  0  0  0
    8.6342   12.8153    0.0000 H   0  0  0  0  0  0  0  0  0  0  0  0
    3.9495   12.2694    0.0000 H   0  0  0  0  0  0  0  0  0  0  0  0
    3.4670   10.4445    0.0000 H   0  0  0  0  0  0  0  0  0  0  0  0
    4.0020    9.5179    0.0000 H   0  0  0  0  0  0  0  0  0  0  0  0
    3.4550    6.4959    0.0000 H   0  0  0  0  0  0  0  0  0  0  0  0
    4.3816    7.0309    0.0000 H   0  0  0  0  0  0  0  0  0  0  0  0
    3.2428   10.1634    0.0000 H   0  0  0  0  0  0  0  0  0  0  0  0
    3.2429    9.0934    0.0000 H   0  0  0  0  0  0  0  0  0  0  0  0
    1.5270   10.9468    0.0000 H   0  0  0  0  0  0  0  0  0  0  0  0
    1.5237    7.0309    0.0000 H   0  0  0  0  0  0  0  0  0  0  0  0
    6.9668   15.5023    0.0000 H   0  0  0  0  0  0  0  0  0  0  0  0
    5.3450   14.9755    0.0000 H   0  0  0  0  0  0  0  0  0  0  0  0
  1 37  1  0  0  0  0
  1 38  1  0  0  0  0
  1 39  1  0  0  0  0
  2 40  1  0  0  0  0
  2 41  1  0  0  0  0
  2 42  1  0  0  0  0
  3 43  1  0  0  0  0
  3 44  1  0  0  0  0
  3 45  1  0  0  0  0
  4 46  1  0  0  0  0
  4 47  1  0  0  0  0
  4 48  1  0  0  0  0
  5 49  1  0  0  0  0
  5 50  1  0  0  0  0
  5 51  1  0  0  0  0
  6 52  1  0  0  0  0
  6 53  1  0  0  0  0
  7 54  1  0  0  0  0
  8 55  1  0  0  0  0
  9 56  1  0  0  0  0
  9 57  1  0  0  0  0
 10 58  1  0  0  0  0
 10 59  1  0  0  0  0
 11 60  1  0  0  0  0
 11 61  1  0  0  0  0
 12  1  1  0  0  0  0
 12  2  1  0  0  0  0
 12 62  1  0  0  0  0
 13  3  1  0  0  0  0
 13  4  1  0  0  0  0
 13 63  1  0  0  0  0
 14  5  1  0  0  0  0
 14  6  1  0  0  0  0
 14 36  1  1  0  0  0
 16 15  2  0  0  0  0
 17 15  1  0  0  0  0
 20 16  1  0  0  0  0
 20 64  1  0  0  0  0
 20 65  1  0  0  0  0
 21  7  2  0  0  0  0
 21 16  1  0  0  0  0
 22  7  1  0  0  0  0
 22 17  2  0  0  0  0
 23  8  2  0  0  0  0
 23 15  1  0  0  0  0
 24  6  1  0  0  0  0
 24  8  1  0  0  0  0
 24 17  1  0  0  0  0
 25 18  2  0  0  0  0
 26 19  2  0  0  0  0
 28  9  1  0  0  0  0
 28 18  1  0  0  0  0
 29 10  1  0  0  0  0
 29 19  1  0  0  0  0
 30 11  1  0  0  0  0
 30 14  1  0  0  0  0
 31  9  1  0  0  0  0
 32 10  1  0  0  0  0
 33 12  1  0  0  0  0
 33 18  1  0  0  0  0
 34 13  1  0  0  0  0
 34 19  1  0  0  0  0
 35 11  1  0  0  0  0
 35 27  2  0  0  0  0
 35 31  1  0  0  0  0
 35 32  1  0  0  0  0
M  END
>  <DRUGBANK_ID>
DB00300

>  <SECONDARY_ACCESSION_NUMBERS>
APRD01248; DB13426

>  <COMMON_NAME>
Tenofovir disoproxil

>  <CAS_NUMBER>
201341-05-1

>  <UNII>
F4YU4LON7I

>  <SYNONYMS>
Bis(POC)PMPA; Tenofovir bis(isopropyloxycarbonyloxymethyl) ester

$$$$
