
 OpenBabel10282417072D

 25 25  0  0  0  0  0  0  0  0999 V2000
   16.6472  -10.7566    0.0000 S   0  0  0  0  0  0  0  0  0  0  0  0
   15.9327  -11.1691    0.0000 O   0  0  0  0  0  0  0  0  0  0  0  0
   17.3617  -10.3441    0.0000 O   0  0  0  0  0  0  0  0  0  0  0  0
   16.2346  -10.0422    0.0000 O   0  0  0  0  0  0  0  0  0  0  0  0
   17.0596  -11.4711    0.0000 O   0  0  0  0  0  0  0  0  0  0  0  0
   15.2181  -15.7066    0.0000 N   0  0  0  0  0  0  0  0  0  0  0  0
   15.9327  -14.4691    0.0000 C   0  0  0  0  0  0  0  0  0  0  0  0
   15.9327  -13.6441    0.0000 C   0  0  0  0  0  0  0  0  0  0  0  0
   15.2181  -14.8816    0.0000 C   0  0  0  0  0  0  0  0  0  0  0  0
   15.2181  -13.2316    0.0000 C   0  0  0  0  0  0  0  0  0  0  0  0
   16.6472  -13.2316    0.0000 C   0  0  0  0  0  0  0  0  0  0  0  0
   15.9327  -11.9941    0.0000 C   0  0  0  0  0  0  0  0  0  0  0  0
   15.2181  -12.4066    0.0000 C   0  0  0  0  0  0  0  0  0  0  0  0
   16.6472  -12.4066    0.0000 C   0  0  0  0  0  0  0  0  0  0  0  0
   18.2017  -10.8291    0.0000 H   0  0  0  0  0  0  0  0  0  0  0  0
   14.3348  -16.2166    0.0000 H   0  0  0  0  0  0  0  0  0  0  0  0
   16.1014  -16.2166    0.0000 H   0  0  0  0  0  0  0  0  0  0  0  0
   16.8593  -15.0041    0.0000 H   0  0  0  0  0  0  0  0  0  0  0  0
   15.9326  -15.5391    0.0000 H   0  0  0  0  0  0  0  0  0  0  0  0
   14.2915  -14.3466    0.0000 H   0  0  0  0  0  0  0  0  0  0  0  0
   15.2182  -13.8116    0.0000 H   0  0  0  0  0  0  0  0  0  0  0  0
   14.3244  -13.7476    0.0000 H   0  0  0  0  0  0  0  0  0  0  0  0
   17.5409  -13.7476    0.0000 H   0  0  0  0  0  0  0  0  0  0  0  0
   14.3244  -11.8906    0.0000 H   0  0  0  0  0  0  0  0  0  0  0  0
   17.5409  -11.8906    0.0000 H   0  0  0  0  0  0  0  0  0  0  0  0
  1  2  1  0  0  0  0
  1  3  1  0  0  0  0
  1  4  2  0  0  0  0
  1  5  2  0  0  0  0
  2 12  1  0  0  0  0
  3 15  1  0  0  0  0
  6  9  1  0  0  0  0
  6 16  1  0  0  0  0
  6 17  1  0  0  0  0
  7  8  1  0  0  0  0
  7  9  1  0  0  0  0
  7 18  1  0  0  0  0
  7 19  1  0  0  0  0
  8 10  2  0  0  0  0
  8 11  1  0  0  0  0
  9 20  1  0  0  0  0
  9 21  1  0  0  0  0
 10 13  1  0  0  0  0
 10 22  1  0  0  0  0
 11 14  2  0  0  0  0
 11 23  1  0  0  0  0
 12 13  2  0  0  0  0
 12 14  1  0  0  0  0
 13 24  1  0  0  0  0
 14 25  1  0  0  0  0
M  END
>  <DRUGBANK_ID>
DB14630

>  <SECONDARY_ACCESSION_NUMBERS>
DBSALT002212

>  <COMMON_NAME>
Tyramine O-sulfate

>  <CAS_NUMBER>
30223-92-8

>  <UNII>
SIA20BP28W

>  <SYNONYMS>
Tyramine sulfate

$$$$
