
 OpenBabel10282417072D

 13 13  0  0  0  0  0  0  0  0999 V2000
   -1.4289   -0.5403    0.0000 Cl  0  0  0  0  0  0  0  0  0  0  0  0
    0.0000   -1.3654    0.0000 O   0  0  0  0  0  0  0  0  0  0  0  0
    1.4289    1.1096    0.0000 O   0  0  0  0  0  0  0  0  0  0  0  0
    0.0000    1.1096    0.0000 N   0  0  0  0  0  0  0  0  0  0  0  0
    0.0000   -0.5403    0.0000 C   0  0  0  0  0  0  0  0  0  0  0  0
   -0.7145   -0.1278    0.0000 C   0  0  0  0  0  0  0  0  0  0  0  0
    0.7145   -0.1278    0.0000 C   0  0  0  0  0  0  0  0  0  0  0  0
   -0.7145    0.6971    0.0000 C   0  0  0  0  0  0  0  0  0  0  0  0
    0.7145    0.6971    0.0000 C   0  0  0  0  0  0  0  0  0  0  0  0
   -0.8115   -1.8339    0.0000 H   0  0  0  0  0  0  0  0  0  0  0  0
    0.0000    2.0941    0.0000 H   0  0  0  0  0  0  0  0  0  0  0  0
    1.6082   -0.6438    0.0000 H   0  0  0  0  0  0  0  0  0  0  0  0
   -1.6082    1.2131    0.0000 H   0  0  0  0  0  0  0  0  0  0  0  0
  1  6  1  0  0  0  0
  2  5  1  0  0  0  0
  2 10  1  0  0  0  0
  3  9  2  0  0  0  0
  4  8  1  0  0  0  0
  4  9  1  0  0  0  0
  4 11  1  0  0  0  0
  5  6  1  0  0  0  0
  5  7  2  0  0  0  0
  6  8  2  0  0  0  0
  7  9  1  0  0  0  0
  7 12  1  0  0  0  0
  8 13  1  0  0  0  0
M  END
>  <DRUGBANK_ID>
DB09257

>  <COMMON_NAME>
Gimeracil

>  <CAS_NUMBER>
103766-25-2

>  <UNII>
UA8SE1325T

>  <SYNONYMS>
5-Chloro-2,4-dihydroxypyridine; 5-Chloro-4-hydroxy-2-pyridone; Gimeracil; gimestat; Teysuno; Ts-1 (TN)

$$$$
