
 OpenBabel10282417072D

 29 31  0  0  0  0  0  0  0  0999 V2000
   -0.2775   -1.0312    0.0000 C   0  0  0  0  0  0  0  0  0  0  0  0
   -0.2775   -0.2062    0.0000 C   0  0  0  0  0  0  0  0  0  0  0  0
   -0.9920    0.2062    0.0000 C   0  0  0  0  0  0  0  0  0  0  0  0
   -1.7065   -0.2062    0.0000 C   0  0  0  0  0  0  0  0  0  0  0  0
   -1.7065   -1.0312    0.0000 C   0  0  0  0  0  0  0  0  0  0  0  0
   -0.9920   -1.4437    0.0000 N   0  0  0  0  0  0  0  0  0  0  0  0
    1.1513    1.4437    0.0000 C   0  0  0  0  0  0  0  0  0  0  0  0
    0.4369    1.0312    0.0000 C   0  0  0  0  0  0  0  0  0  0  0  0
    0.4369    0.2062    0.0000 C   0  0  0  0  0  0  0  0  0  0  0  0
    1.1513   -0.2062    0.0000 C   0  0  0  0  0  0  0  0  0  0  0  0
    1.8658    1.0312    0.0000 C   0  0  0  0  0  0  0  0  0  0  0  0
    1.8658    0.2062    0.0000 N   0  0  0  0  0  0  0  0  0  0  0  0
    2.6504   -0.0486    0.0000 C   0  0  0  0  0  0  0  0  0  0  0  0
    3.1353    0.6187    0.0000 C   0  0  0  0  0  0  0  0  0  0  0  0
    2.6504    1.2862    0.0000 N   0  0  0  0  0  0  0  0  0  0  0  0
    0.4369   -1.4437    0.0000 C   0  0  0  0  0  0  0  0  0  0  0  0
   -2.4210   -1.4437    0.0000 O   0  0  0  0  0  0  0  0  0  0  0  0
   -2.4210    0.2062    0.0000 C   0  0  0  0  0  0  0  0  0  0  0  0
   -3.1354    0.6187    0.0000 N   0  0  0  0  0  0  0  0  0  0  0  0
   -0.9920    1.2382    0.0000 H   0  0  0  0  0  0  0  0  0  0  0  0
   -0.9920   -2.4282    0.0000 H   0  0  0  0  0  0  0  0  0  0  0  0
    1.1513    2.4757    0.0000 H   0  0  0  0  0  0  0  0  0  0  0  0
   -0.4568    1.5472    0.0000 H   0  0  0  0  0  0  0  0  0  0  0  0
    1.1513   -1.2382    0.0000 H   0  0  0  0  0  0  0  0  0  0  0  0
    2.9693   -1.0301    0.0000 H   0  0  0  0  0  0  0  0  0  0  0  0
    4.1673    0.6186    0.0000 H   0  0  0  0  0  0  0  0  0  0  0  0
    0.4369   -2.5137    0.0000 H   0  0  0  0  0  0  0  0  0  0  0  0
    1.3636   -0.9087    0.0000 H   0  0  0  0  0  0  0  0  0  0  0  0
    1.3635   -1.9787    0.0000 H   0  0  0  0  0  0  0  0  0  0  0  0
  1  2  2  0  0  0  0
  1  6  1  0  0  0  0
  1 16  1  0  0  0  0
  2  3  1  0  0  0  0
  3  4  2  0  0  0  0
  3 20  1  0  0  0  0
  4  5  1  0  0  0  0
  4 18  1  0  0  0  0
  5  6  1  0  0  0  0
  5 17  2  0  0  0  0
  6 21  1  0  0  0  0
  7  8  2  0  0  0  0
  7 22  1  0  0  0  0
  8  9  1  0  0  0  0
  8 23  1  0  0  0  0
  9 10  2  0  0  0  0
  9  2  1  0  0  0  0
 10 24  1  0  0  0  0
 11 12  1  0  0  0  0
 11  7  1  0  0  0  0
 12 13  1  0  0  0  0
 12 10  1  0  0  0  0
 13 14  2  0  0  0  0
 13 25  1  0  0  0  0
 14 15  1  0  0  0  0
 14 26  1  0  0  0  0
 15 11  2  0  0  0  0
 16 27  1  0  0  0  0
 16 28  1  0  0  0  0
 16 29  1  0  0  0  0
 18 19  3  0  0  0  0
M  END
>  <DRUGBANK_ID>
DB16847

>  <COMMON_NAME>
Olprinone

>  <CAS_NUMBER>
106730-54-5

>  <UNII>
4Y8BMI9YGC

>  <SYNONYMS>
Loprinone; Olprinone

$$$$
