
 OpenBabel10282417072D

 49 52  0  0  0  0  0  0  0  0999 V2000
   -2.3643    2.1030    0.0000 C   0  0  0  0  0  0  0  0  0  0  0  0
   -2.1928    1.2960    0.0000 C   0  0  0  0  0  0  0  0  0  0  0  0
   -1.4080    1.0411    0.0000 C   0  0  0  0  0  0  0  0  0  0  0  0
   -1.2366    0.2341    0.0000 C   0  0  0  0  0  0  0  0  0  0  0  0
   -1.8497   -0.3179    0.0000 C   0  0  0  0  0  0  0  0  0  0  0  0
   -2.6343   -0.0630    0.0000 C   0  0  0  0  0  0  0  0  0  0  0  0
   -2.8058    0.7440    0.0000 C   0  0  0  0  0  0  0  0  0  0  0  0
   -2.5358    2.9099    0.0000 N   0  0  0  0  0  0  0  0  0  0  0  0
   -1.6782   -1.1249    0.0000 C   0  0  0  0  0  0  0  0  0  0  0  0
   -3.0982   -1.5053    0.0000 C   0  0  0  0  0  0  0  0  0  0  0  0
   -3.5107   -2.2198    0.0000 N   0  0  0  0  0  0  0  0  0  0  0  0
   -2.9587   -2.8330    0.0000 C   0  0  0  0  0  0  0  0  0  0  0  0
   -2.2050   -2.4973    0.0000 C   0  0  0  0  0  0  0  0  0  0  0  0
   -2.2912   -1.6769    0.0000 N   0  0  0  0  0  0  0  0  0  0  0  0
   -1.4905   -2.9099    0.0000 C   0  0  0  0  0  0  0  0  0  0  0  0
   -0.7760   -2.4973    0.0000 N   0  0  0  0  0  0  0  0  0  0  0  0
   -0.0615   -2.9099    0.0000 C   0  0  0  0  0  0  0  0  0  0  0  0
    0.6528   -2.4973    0.0000 C   0  0  0  0  0  0  0  0  0  0  0  0
    0.6528   -1.6723    0.0000 N   0  0  0  0  0  0  0  0  0  0  0  0
   -0.0615   -1.2598    0.0000 C   0  0  0  0  0  0  0  0  0  0  0  0
   -0.7760   -1.6723    0.0000 C   0  0  0  0  0  0  0  0  0  0  0  0
    1.3673   -2.9099    0.0000 O   0  0  0  0  0  0  0  0  0  0  0  0
    1.3673   -1.2598    0.0000 C   0  0  0  0  0  0  0  0  0  0  0  0
    2.0818   -1.6723    0.0000 C   0  0  0  0  0  0  0  0  0  0  0  0
    2.7962   -1.2598    0.0000 C   0  0  0  0  0  0  0  0  0  0  0  0
    2.7962   -0.4349    0.0000 C   0  0  0  0  0  0  0  0  0  0  0  0
    2.0818   -0.0223    0.0000 C   0  0  0  0  0  0  0  0  0  0  0  0
    1.3673   -0.4349    0.0000 C   0  0  0  0  0  0  0  0  0  0  0  0
    3.5107   -1.6723    0.0000 Cl  0  0  0  0  0  0  0  0  0  0  0  0
   -0.6411    1.7316    0.0000 H   0  0  0  0  0  0  0  0  0  0  0  0
   -0.2551   -0.0849    0.0000 H   0  0  0  0  0  0  0  0  0  0  0  0
   -3.4012   -0.7535    0.0000 H   0  0  0  0  0  0  0  0  0  0  0  0
   -3.7873    1.0629    0.0000 H   0  0  0  0  0  0  0  0  0  0  0  0
   -0.6606   -1.4555    0.0000 H   0  0  0  0  0  0  0  0  0  0  0  0
   -0.8830   -0.4089    0.0000 H   0  0  0  0  0  0  0  0  0  0  0  0
   -3.5179   -0.5625    0.0000 H   0  0  0  0  0  0  0  0  0  0  0  0
   -3.1732   -3.8425    0.0000 H   0  0  0  0  0  0  0  0  0  0  0  0
   -1.4905   -3.9799    0.0000 H   0  0  0  0  0  0  0  0  0  0  0  0
   -2.4172   -3.4449    0.0000 H   0  0  0  0  0  0  0  0  0  0  0  0
   -0.0614   -3.9799    0.0000 H   0  0  0  0  0  0  0  0  0  0  0  0
    0.8652   -3.4448    0.0000 H   0  0  0  0  0  0  0  0  0  0  0  0
   -0.0614   -0.1898    0.0000 H   0  0  0  0  0  0  0  0  0  0  0  0
   -0.9881   -0.7248    0.0000 H   0  0  0  0  0  0  0  0  0  0  0  0
   -1.7026   -1.1373    0.0000 H   0  0  0  0  0  0  0  0  0  0  0  0
   -1.7026   -2.2073    0.0000 H   0  0  0  0  0  0  0  0  0  0  0  0
    2.0818   -2.7043    0.0000 H   0  0  0  0  0  0  0  0  0  0  0  0
    3.6900    0.0810    0.0000 H   0  0  0  0  0  0  0  0  0  0  0  0
    2.0818    1.0097    0.0000 H   0  0  0  0  0  0  0  0  0  0  0  0
    0.4735    0.0811    0.0000 H   0  0  0  0  0  0  0  0  0  0  0  0
  1  2  1  0  0  0  0
  1  8  3  0  0  0  0
  2  3  1  0  0  0  0
  2  7  2  0  0  0  0
  3  4  2  0  0  0  0
  3 30  1  0  0  0  0
  4  5  1  0  0  0  0
  4 31  1  0  0  0  0
  5  6  2  0  0  0  0
  5  9  1  0  0  0  0
  6  7  1  0  0  0  0
  6 32  1  0  0  0  0
  7 33  1  0  0  0  0
  9 14  1  0  0  0  0
  9 34  1  0  0  0  0
  9 35  1  0  0  0  0
 10 11  2  0  0  0  0
 10 14  1  0  0  0  0
 10 36  1  0  0  0  0
 11 12  1  0  0  0  0
 12 13  2  0  0  0  0
 12 37  1  0  0  0  0
 13 14  1  0  0  0  0
 13 15  1  0  0  0  0
 15 16  1  0  0  0  0
 15 38  1  0  0  0  0
 15 39  1  0  0  0  0
 16 17  1  0  0  0  0
 16 21  1  0  0  0  0
 17 18  1  0  0  0  0
 17 40  1  0  0  0  0
 17 41  1  0  0  0  0
 18 19  1  0  0  0  0
 18 22  2  0  0  0  0
 19 20  1  0  0  0  0
 19 23  1  0  0  0  0
 20 21  1  0  0  0  0
 20 42  1  0  0  0  0
 20 43  1  0  0  0  0
 21 44  1  0  0  0  0
 21 45  1  0  0  0  0
 23 24  1  0  0  0  0
 23 28  2  0  0  0  0
 24 25  2  0  0  0  0
 24 46  1  0  0  0  0
 25 26  1  0  0  0  0
 25 29  1  0  0  0  0
 26 27  2  0  0  0  0
 26 47  1  0  0  0  0
 27 28  1  0  0  0  0
 27 48  1  0  0  0  0
 28 49  1  0  0  0  0
M  END
>  <DRUGBANK_ID>
DB07227

>  <COMMON_NAME>
L-778123

>  <CAS_NUMBER>
183499-57-2

>  <UNII>
31ZXM8ZKQ3

$$$$
