
 OpenBabel10282417072D

 95100  0  0  1  0  0  0  0  0999 V2000
    3.4675   -1.1600    0.0000 C   0  0  0  0  0  0  0  0  0  0  0  0
    3.7079   -0.3708    0.0000 C   0  0  1  0  0  0  0  0  0  0  0  0
    4.2660   -0.9783    0.0000 C   0  0  0  0  0  0  0  0  0  0  0  0
    5.0712   -0.7987    0.0000 C   0  0  0  0  0  0  0  0  0  0  0  0
    5.3183   -0.0116    0.0000 C   0  0  0  0  0  0  0  0  0  0  0  0
    4.7601    0.5959    0.0000 C   0  0  1  0  0  0  0  0  0  0  0  0
    3.9549    0.4163    0.0000 C   0  0  1  0  0  0  0  0  0  0  0  0
    3.4013    1.0406    0.0000 C   0  0  0  0  0  0  0  0  0  0  0  0
    2.5923    0.8721    0.0000 C   0  0  0  0  0  0  0  0  0  0  0  0
    2.2888    0.0848    0.0000 C   0  0  2  0  0  0  0  0  0  0  0  0
    2.8891   -0.5680    0.0000 C   0  0  1  0  0  0  0  0  0  0  0  0
    2.6457   -1.4133    0.0000 C   0  0  0  0  0  0  0  0  0  0  0  0
    1.8005   -1.5738    0.0000 C   0  0  0  0  0  0  0  0  0  0  0  0
    1.2392   -0.9158    0.0000 C   0  0  2  0  0  0  0  0  0  0  0  0
    1.8145   -0.4488    0.0000 C   0  0  0  0  0  0  0  0  0  0  0  0
    0.8565   -0.1421    0.0000 C   0  0  0  0  0  0  0  0  0  0  0  0
    0.0431   -0.0038    0.0000 C   0  0  0  0  0  0  0  0  0  0  0  0
    1.4780    0.4659    0.0000 C   0  0  0  0  0  0  0  0  0  0  0  0
    0.5504   -1.3699    0.0000 O   0  0  0  0  0  0  0  0  0  0  0  0
    0.5993   -2.1934    0.0000 C   0  0  1  0  0  0  0  0  0  0  0  0
   -0.0895   -2.6475    0.0000 C   0  0  1  0  0  0  0  0  0  0  0  0
   -0.0406   -3.4711    0.0000 C   0  0  2  0  0  0  0  0  0  0  0  0
    0.6970   -3.8405    0.0000 C   0  0  1  0  0  0  0  0  0  0  0  0
    1.3858   -3.3865    0.0000 C   0  0  2  0  0  0  0  0  0  0  0  0
    1.3369   -2.5629    0.0000 O   0  0  0  0  0  0  0  0  0  0  0  0
    2.1234   -3.7559    0.0000 C   0  0  0  0  0  0  0  0  0  0  0  0
    2.1723   -4.5795    0.0000 O   0  0  0  0  0  0  0  0  0  0  0  0
    0.7459   -4.6641    0.0000 O   0  0  0  0  0  0  0  0  0  0  0  0
   -0.7294   -3.9252    0.0000 O   0  0  0  0  0  0  0  0  0  0  0  0
   -0.8271   -2.2781    0.0000 O   0  0  0  0  0  0  0  0  0  0  0  0
   -1.5159   -2.7321    0.0000 C   0  0  1  0  0  0  0  0  0  0  0  0
   -2.2536   -2.3627    0.0000 C   0  0  1  0  0  0  0  0  0  0  0  0
   -2.9424   -2.8168    0.0000 C   0  0  2  0  0  0  0  0  0  0  0  0
   -2.8935   -3.6403    0.0000 C   0  0  1  0  0  0  0  0  0  0  0  0
   -2.1559   -4.0098    0.0000 C   0  0  2  0  0  0  0  0  0  0  0  0
   -1.4671   -3.5557    0.0000 O   0  0  0  0  0  0  0  0  0  0  0  0
   -2.1070   -4.8333    0.0000 C   0  0  0  0  0  0  0  0  0  0  0  0
   -2.7958   -5.2874    0.0000 O   0  0  0  0  0  0  0  0  0  0  0  0
   -3.5823   -4.0944    0.0000 O   0  0  0  0  0  0  0  0  0  0  0  0
   -3.6800   -2.4473    0.0000 O   0  0  0  0  0  0  0  0  0  0  0  0
   -2.3024   -1.5391    0.0000 O   0  0  0  0  0  0  0  0  0  0  0  0
    5.3478    1.1749    0.0000 C   0  0  0  0  0  0  0  0  0  0  0  0
    4.6088    1.4069    0.0000 C   0  0  0  0  0  0  0  0  0  0  0  0
    3.8307    1.6813    0.0000 O   0  0  0  0  0  0  0  0  0  0  0  0
    5.2354    1.9435    0.0000 O   0  0  0  0  0  0  0  0  0  0  0  0
    2.4252   -1.4018    0.0000 H   0  0  0  0  0  0  0  0  0  0  0  0
    4.1980   -1.9418    0.0000 H   0  0  0  0  0  0  0  0  0  0  0  0
    3.1557   -2.1836    0.0000 H   0  0  0  0  0  0  0  0  0  0  0  0
    3.9456   -1.9992    0.0000 H   0  0  0  0  0  0  0  0  0  0  0  0
    4.9899   -1.7663    0.0000 H   0  0  0  0  0  0  0  0  0  0  0  0
    5.7951   -1.5867    0.0000 H   0  0  0  0  0  0  0  0  0  0  0  0
    6.1155   -0.5658    0.0000 H   0  0  0  0  0  0  0  0  0  0  0  0
    6.3626    0.2214    0.0000 H   0  0  0  0  0  0  0  0  0  0  0  0
    5.6387    1.0093    0.0000 H   0  0  0  0  0  0  0  0  0  0  0  0
    4.2843    1.4343    0.0000 H   0  0  0  0  0  0  0  0  0  0  0  0
    3.7379    2.0563    0.0000 H   0  0  0  0  0  0  0  0  0  0  0  0
    2.6893    1.8393    0.0000 H   0  0  0  0  0  0  0  0  0  0  0  0
    1.8996    1.6876    0.0000 H   0  0  0  0  0  0  0  0  0  0  0  0
    1.5374    0.6931    0.0000 H   0  0  0  0  0  0  0  0  0  0  0  0
    1.8477   -0.8136    0.0000 H   0  0  0  0  0  0  0  0  0  0  0  0
    3.3664   -2.2041    0.0000 H   0  0  0  0  0  0  0  0  0  0  0  0
    2.3070   -2.4283    0.0000 H   0  0  0  0  0  0  0  0  0  0  0  0
    1.4452   -2.5831    0.0000 H   0  0  0  0  0  0  0  0  0  0  0  0
    0.7485   -1.7695    0.0000 H   0  0  0  0  0  0  0  0  0  0  0  0
    2.5540   -1.2221    0.0000 H   0  0  0  0  0  0  0  0  0  0  0  0
    2.8843   -0.4293    0.0000 H   0  0  0  0  0  0  0  0  0  0  0  0
   -0.3158    0.9638    0.0000 H   0  0  0  0  0  0  0  0  0  0  0  0
   -0.6154   -0.7984    0.0000 H   0  0  0  0  0  0  0  0  0  0  0  0
    1.2996    1.5209    0.0000 H   0  0  0  0  0  0  0  0  0  0  0  0
    2.3302    1.1130    0.0000 H   0  0  0  0  0  0  0  0  0  0  0  0
   -0.3574   -1.7142    0.0000 H   0  0  0  0  0  0  0  0  0  0  0  0
   -0.1529   -1.5794    0.0000 H   0  0  0  0  0  0  0  0  0  0  0  0
   -0.9973   -2.9919    0.0000 H   0  0  0  0  0  0  0  0  0  0  0  0
   -0.1963   -4.4295    0.0000 H   0  0  0  0  0  0  0  0  0  0  0  0
    1.4491   -4.4546    0.0000 H   0  0  0  0  0  0  0  0  0  0  0  0
    3.0167   -3.1669    0.0000 H   0  0  0  0  0  0  0  0  0  0  0  0
    3.0801   -4.2350    0.0000 H   0  0  0  0  0  0  0  0  0  0  0  0
    1.3625   -5.1134    0.0000 H   0  0  0  0  0  0  0  0  0  0  0  0
   -0.0639   -5.1980    0.0000 H   0  0  0  0  0  0  0  0  0  0  0  0
   -1.5967   -3.4908    0.0000 H   0  0  0  0  0  0  0  0  0  0  0  0
   -1.5793   -1.6640    0.0000 H   0  0  0  0  0  0  0  0  0  0  0  0
   -1.3603   -1.7738    0.0000 H   0  0  0  0  0  0  0  0  0  0  0  0
   -3.0057   -1.7487    0.0000 H   0  0  0  0  0  0  0  0  0  0  0  0
   -3.8502   -3.1611    0.0000 H   0  0  0  0  0  0  0  0  0  0  0  0
   -3.0492   -4.5987    0.0000 H   0  0  0  0  0  0  0  0  0  0  0  0
   -1.1503   -5.3125    0.0000 H   0  0  0  0  0  0  0  0  0  0  0  0
   -2.0436   -5.9014    0.0000 H   0  0  0  0  0  0  0  0  0  0  0  0
   -3.6631   -4.8530    0.0000 H   0  0  0  0  0  0  0  0  0  0  0  0
   -4.4496   -3.6600    0.0000 H   0  0  0  0  0  0  0  0  0  0  0  0
   -3.7374   -1.4790    0.0000 H   0  0  0  0  0  0  0  0  0  0  0  0
   -1.4925   -1.0053    0.0000 H   0  0  0  0  0  0  0  0  0  0  0  0
    6.3792    0.8903    0.0000 H   0  0  0  0  0  0  0  0  0  0  0  0
    5.0786    2.2105    0.0000 H   0  0  0  0  0  0  0  0  0  0  0  0
    6.1100    1.9258    0.0000 H   0  0  0  0  0  0  0  0  0  0  0  0
    6.1191    1.6319    0.0000 H   0  0  0  0  0  0  0  0  0  0  0  0
  1 46  1  0  0  0  0
  1 47  1  0  0  0  0
  1 48  1  0  0  0  0
  2  1  1  6  0  0  0
  2  3  1  0  0  0  0
  2  7  1  0  0  0  0
  2 11  1  0  0  0  0
  3  4  1  0  0  0  0
  3 49  1  0  0  0  0
  3 50  1  0  0  0  0
  4  5  1  0  0  0  0
  4 51  1  0  0  0  0
  4 52  1  0  0  0  0
  5  6  1  0  0  0  0
  5 53  1  0  0  0  0
  5 54  1  0  0  0  0
  6  7  1  0  0  0  0
  6 42  1  0  0  0  0
  6 43  1  6  0  0  0
  7  8  1  0  0  0  0
  7 55  1  1  0  0  0
  8  9  1  0  0  0  0
  8 56  1  0  0  0  0
  8 57  1  0  0  0  0
  9 58  1  0  0  0  0
  9 59  1  0  0  0  0
 10  9  1  6  0  0  0
 10 11  1  0  0  0  0
 10 15  1  0  0  0  0
 10 18  1  0  0  0  0
 11 12  1  0  0  0  0
 11 60  1  1  0  0  0
 12 13  1  0  0  0  0
 12 61  1  0  0  0  0
 12 62  1  0  0  0  0
 13 14  1  0  0  0  0
 13 63  1  0  0  0  0
 13 64  1  0  0  0  0
 14 15  1  0  0  0  0
 14 16  1  0  0  0  0
 14 19  1  6  0  0  0
 15 65  1  0  0  0  0
 15 66  1  0  0  0  0
 16 17  2  0  0  0  0
 16 18  1  0  0  0  0
 17 67  1  0  0  0  0
 17 68  1  0  0  0  0
 18 69  1  0  0  0  0
 18 70  1  0  0  0  0
 20 19  1  0  0  0  0
 20 21  1  0  0  0  0
 20 25  1  0  0  0  0
 20 71  1  1  0  0  0
 21 22  1  0  0  0  0
 21 30  1  0  0  0  0
 21 72  1  6  0  0  0
 22 23  1  0  0  0  0
 22 29  1  0  0  0  0
 22 73  1  1  0  0  0
 23 24  1  0  0  0  0
 23 28  1  0  0  0  0
 23 74  1  6  0  0  0
 24 25  1  0  0  0  0
 24 26  1  0  0  0  0
 24 75  1  1  0  0  0
 26 27  1  0  0  0  0
 26 76  1  0  0  0  0
 26 77  1  0  0  0  0
 27 78  1  0  0  0  0
 28 79  1  0  0  0  0
 29 80  1  0  0  0  0
 31 30  1  0  0  0  0
 31 32  1  0  0  0  0
 31 36  1  0  0  0  0
 31 81  1  1  0  0  0
 32 33  1  0  0  0  0
 32 41  1  0  0  0  0
 32 82  1  6  0  0  0
 33 34  1  0  0  0  0
 33 40  1  0  0  0  0
 33 83  1  1  0  0  0
 34 35  1  0  0  0  0
 34 39  1  0  0  0  0
 34 84  1  6  0  0  0
 35 36  1  0  0  0  0
 35 37  1  0  0  0  0
 35 85  1  1  0  0  0
 37 38  1  0  0  0  0
 37 86  1  0  0  0  0
 37 87  1  0  0  0  0
 38 88  1  0  0  0  0
 39 89  1  0  0  0  0
 40 90  1  0  0  0  0
 41 91  1  0  0  0  0
 42 92  1  0  0  0  0
 42 93  1  0  0  0  0
 42 94  1  0  0  0  0
 43 44  2  0  0  0  0
 43 45  1  0  0  0  0
 45 95  1  0  0  0  0
M  END
>  <DRUGBANK_ID>
DB12434

>  <COMMON_NAME>
Steviolbioside

>  <CAS_NUMBER>
41093-60-1

>  <UNII>
07GV37SOFN

>  <SYNONYMS>
STB

$$$$
