
 OpenBabel10282417072D

 45 49  0  0  1  0  0  0  0  0999 V2000
   -0.0550   -0.2083    0.0000 C   0  0  0  0  0  0  0  0  0  0  0  0
    0.6633    0.2056    0.0000 C   0  0  0  0  0  0  0  0  0  0  0  0
    1.3726   -0.2077    0.0000 C   0  0  0  0  0  0  0  0  0  0  0  0
    1.3726   -1.0322    0.0000 C   0  0  0  0  0  0  0  0  0  0  0  0
    0.6615   -1.4411    0.0000 N   0  0  0  0  0  0  0  0  0  0  0  0
   -0.0550   -1.0334    0.0000 C   0  0  0  0  0  0  0  0  0  0  0  0
   -0.7638   -1.4480    0.0000 C   0  0  0  0  0  0  0  0  0  0  0  0
   -0.7638   -2.2722    0.0000 N   0  0  0  0  0  0  0  0  0  0  0  0
   -1.4794   -2.6835    0.0000 C   0  0  0  0  0  0  0  0  0  0  0  0
   -2.1957   -2.2690    0.0000 C   0  0  0  0  0  0  0  0  0  0  0  0
   -2.1957   -1.4513    0.0000 C   0  0  0  0  0  0  0  0  0  0  0  0
   -1.4821   -1.0353    0.0000 C   0  0  0  0  0  0  0  0  0  0  0  0
    2.0915   -1.4447    0.0000 C   0  0  0  0  0  0  0  0  0  0  0  0
    2.8051   -1.0283    0.0000 C   0  0  0  0  0  0  0  0  0  0  0  0
    2.8051   -0.2056    0.0000 C   0  0  0  0  0  0  0  0  0  0  0  0
    2.0880    0.2040    0.0000 C   0  0  0  0  0  0  0  0  0  0  0  0
    3.5186   -1.4426    0.0000 F   0  0  0  0  0  0  0  0  0  0  0  0
   -0.7638    0.2059    0.0000 C   0  0  2  0  0  0  0  0  0  0  0  0
   -1.4818   -0.2083    0.0000 C   0  0  0  0  0  0  0  0  0  0  0  0
   -0.7638    1.0300    0.0000 N   0  0  0  0  0  0  0  0  0  0  0  0
   -1.4818    1.4446    0.0000 C   0  0  0  0  0  0  0  0  0  0  0  0
   -2.1949    1.0313    0.0000 C   0  0  0  0  0  0  0  0  0  0  0  0
   -2.9081    1.4439    0.0000 C   0  0  0  0  0  0  0  0  0  0  0  0
   -2.9081    2.2693    0.0000 N   0  0  0  0  0  0  0  0  0  0  0  0
   -2.1946    2.6835    0.0000 C   0  0  0  0  0  0  0  0  0  0  0  0
   -1.4818    2.2696    0.0000 N   0  0  0  0  0  0  0  0  0  0  0  0
   -3.5186    0.8908    0.0000 N   0  0  0  0  0  0  0  0  0  0  0  0
   -3.1838    0.1400    0.0000 C   0  0  0  0  0  0  0  0  0  0  0  0
   -2.3636    0.2276    0.0000 N   0  0  0  0  0  0  0  0  0  0  0  0
    0.6658    1.2376    0.0000 H   0  0  0  0  0  0  0  0  0  0  0  0
   -1.4809   -3.7155    0.0000 H   0  0  0  0  0  0  0  0  0  0  0  0
   -3.0897   -2.7846    0.0000 H   0  0  0  0  0  0  0  0  0  0  0  0
   -3.0905   -0.9372    0.0000 H   0  0  0  0  0  0  0  0  0  0  0  0
   -1.4854   -0.0033    0.0000 H   0  0  0  0  0  0  0  0  0  0  0  0
    2.0953   -2.4767    0.0000 H   0  0  0  0  0  0  0  0  0  0  0  0
    3.6976    0.3125    0.0000 H   0  0  0  0  0  0  0  0  0  0  0  0
    2.0863    1.2360    0.0000 H   0  0  0  0  0  0  0  0  0  0  0  0
    0.1642    0.7385    0.0000 H   0  0  0  0  0  0  0  0  0  0  0  0
   -2.4083    0.3270    0.0000 H   0  0  0  0  0  0  0  0  0  0  0  0
   -1.4822   -1.2783    0.0000 H   0  0  0  0  0  0  0  0  0  0  0  0
   -2.4086   -0.7430    0.0000 H   0  0  0  0  0  0  0  0  0  0  0  0
    0.0888    1.5222    0.0000 H   0  0  0  0  0  0  0  0  0  0  0  0
   -2.1945    3.7155    0.0000 H   0  0  0  0  0  0  0  0  0  0  0  0
   -4.4820    1.0937    0.0000 H   0  0  0  0  0  0  0  0  0  0  0  0
   -3.6988   -0.7543    0.0000 H   0  0  0  0  0  0  0  0  0  0  0  0
  1  6  1  0  0  0  0
  1 18  1  0  0  0  0
  2  1  2  0  0  0  0
  2 30  1  0  0  0  0
  3  2  1  0  0  0  0
  3 16  1  0  0  0  0
  4  3  2  0  0  0  0
  4 13  1  0  0  0  0
  5  4  1  0  0  0  0
  6  5  2  0  0  0  0
  6  7  1  0  0  0  0
  7 12  1  0  0  0  0
  8  7  2  0  0  0  0
  9  8  1  0  0  0  0
  9 31  1  0  0  0  0
 10  9  2  0  0  0  0
 10 32  1  0  0  0  0
 11 10  1  0  0  0  0
 11 33  1  0  0  0  0
 12 11  2  0  0  0  0
 12 34  1  0  0  0  0
 13 14  2  0  0  0  0
 13 35  1  0  0  0  0
 14 15  1  0  0  0  0
 14 17  1  0  0  0  0
 15 16  2  0  0  0  0
 15 36  1  0  0  0  0
 16 37  1  0  0  0  0
 18 19  1  0  0  0  0
 18 20  1  0  0  0  0
 18 38  1  1  0  0  0
 19 39  1  0  0  0  0
 19 40  1  0  0  0  0
 19 41  1  0  0  0  0
 20 21  1  0  0  0  0
 20 42  1  0  0  0  0
 21 26  1  0  0  0  0
 22 21  2  0  0  0  0
 22 29  1  0  0  0  0
 23 22  1  0  0  0  0
 23 27  1  0  0  0  0
 24 23  2  0  0  0  0
 25 24  1  0  0  0  0
 25 43  1  0  0  0  0
 26 25  2  0  0  0  0
 27 28  1  0  0  0  0
 27 44  1  0  0  0  0
 28 29  2  0  0  0  0
 28 45  1  0  0  0  0
M  END
>  <DRUGBANK_ID>
DB16879

>  <COMMON_NAME>
AMG-319

>  <CAS_NUMBER>
1608125-21-8

>  <UNII>
19DG7G1U5Q

>  <SYNONYMS>
AMG319

$$$$
