
 OpenBabel10282417072D

 40 41  0  0  0  0  0  0  0  0999 V2000
   -1.0716   -1.8562    0.0000 C   0  0  0  0  0  0  0  0  0  0  0  0
   -0.3571   -1.4437    0.0000 C   0  0  0  0  0  0  0  0  0  0  0  0
   -0.3571   -0.6187    0.0000 C   0  0  0  0  0  0  0  0  0  0  0  0
   -1.7861   -1.4437    0.0000 C   0  0  0  0  0  0  0  0  0  0  0  0
   -1.7861   -0.6187    0.0000 C   0  0  0  0  0  0  0  0  0  0  0  0
   -2.5005   -0.2062    0.0000 C   0  0  0  0  0  0  0  0  0  0  0  0
   -3.2151   -0.6187    0.0000 C   0  0  0  0  0  0  0  0  0  0  0  0
   -3.2151   -1.4437    0.0000 C   0  0  0  0  0  0  0  0  0  0  0  0
   -2.5005   -1.8562    0.0000 C   0  0  0  0  0  0  0  0  0  0  0  0
   -1.0716   -0.2062    0.0000 C   0  0  0  0  0  0  0  0  0  0  0  0
   -1.0716    0.6187    0.0000 O   0  0  0  0  0  0  0  0  0  0  0  0
   -0.3571    1.0312    0.0000 C   0  0  0  0  0  0  0  0  0  0  0  0
    1.0717    1.0312    0.0000 C   0  0  0  0  0  0  0  0  0  0  0  0
    1.7862    0.6187    0.0000 N   0  0  0  0  0  0  0  0  0  0  0  0
    2.5007    1.8562    0.0000 C   0  0  0  0  0  0  0  0  0  0  0  0
    2.5007    1.0312    0.0000 C   0  0  0  0  0  0  0  0  0  0  0  0
    3.2151    0.6187    0.0000 C   0  0  0  0  0  0  0  0  0  0  0  0
    0.3572    0.6187    0.0000 C   0  0  1  0  0  0  0  0  0  0  0  0
    0.3572   -0.2062    0.0000 O   0  0  0  0  0  0  0  0  0  0  0  0
   -1.0716   -2.8882    0.0000 H   0  0  0  0  0  0  0  0  0  0  0  0
    0.5366   -1.9597    0.0000 H   0  0  0  0  0  0  0  0  0  0  0  0
    0.5366   -0.1027    0.0000 H   0  0  0  0  0  0  0  0  0  0  0  0
   -2.5004    0.8258    0.0000 H   0  0  0  0  0  0  0  0  0  0  0  0
   -4.1088   -0.1027    0.0000 H   0  0  0  0  0  0  0  0  0  0  0  0
   -4.1088   -1.9597    0.0000 H   0  0  0  0  0  0  0  0  0  0  0  0
   -2.5004   -2.8882    0.0000 H   0  0  0  0  0  0  0  0  0  0  0  0
   -0.3570    2.1012    0.0000 H   0  0  0  0  0  0  0  0  0  0  0  0
    0.5696    1.5661    0.0000 H   0  0  0  0  0  0  0  0  0  0  0  0
    1.0717    2.1012    0.0000 H   0  0  0  0  0  0  0  0  0  0  0  0
    1.9983    1.5662    0.0000 H   0  0  0  0  0  0  0  0  0  0  0  0
    1.7862   -0.4013    0.0000 H   0  0  0  0  0  0  0  0  0  0  0  0
    3.4273    2.3912    0.0000 H   0  0  0  0  0  0  0  0  0  0  0  0
    1.5741    2.3912    0.0000 H   0  0  0  0  0  0  0  0  0  0  0  0
    2.5007    2.9262    0.0000 H   0  0  0  0  0  0  0  0  0  0  0  0
    3.4274    1.5662    0.0000 H   0  0  0  0  0  0  0  0  0  0  0  0
    3.2151   -0.4513    0.0000 H   0  0  0  0  0  0  0  0  0  0  0  0
    4.1418    1.1537    0.0000 H   0  0  0  0  0  0  0  0  0  0  0  0
    4.1417    0.0837    0.0000 H   0  0  0  0  0  0  0  0  0  0  0  0
   -0.5695    0.0837    0.0000 H   0  0  0  0  0  0  0  0  0  0  0  0
   -0.4828   -0.6912    0.0000 H   0  0  0  0  0  0  0  0  0  0  0  0
  1  2  2  0  0  0  0
  1 20  1  0  0  0  0
  2  3  1  0  0  0  0
  2 21  1  0  0  0  0
  3 22  1  0  0  0  0
  4  1  1  0  0  0  0
  5  4  2  0  0  0  0
  6  5  1  0  0  0  0
  6  7  2  0  0  0  0
  6 23  1  0  0  0  0
  7  8  1  0  0  0  0
  7 24  1  0  0  0  0
  8  9  2  0  0  0  0
  8 25  1  0  0  0  0
  9  4  1  0  0  0  0
  9 26  1  0  0  0  0
 10  5  1  0  0  0  0
 10  3  2  0  0  0  0
 10 11  1  0  0  0  0
 11 12  1  0  0  0  0
 12 18  1  0  0  0  0
 12 27  1  0  0  0  0
 12 28  1  0  0  0  0
 13 14  1  0  0  0  0
 13 29  1  0  0  0  0
 13 30  1  0  0  0  0
 14 16  1  0  0  0  0
 14 31  1  0  0  0  0
 15 32  1  0  0  0  0
 15 33  1  0  0  0  0
 15 34  1  0  0  0  0
 16 15  1  0  0  0  0
 16 17  1  0  0  0  0
 16 35  1  0  0  0  0
 17 36  1  0  0  0  0
 17 37  1  0  0  0  0
 17 38  1  0  0  0  0
 18 13  1  0  0  0  0
 18 19  1  0  0  0  0
 18 39  1  6  0  0  0
 19 40  1  0  0  0  0
M  END
>  <DRUGBANK_ID>
DB03322

>  <SECONDARY_ACCESSION_NUMBERS>
EXPT02931

>  <COMMON_NAME>
Dexpropranolol

>  <CAS_NUMBER>
5051-22-9

>  <UNII>
PG6KY07UD7

>  <SYNONYMS>
(+)-1-Isopropylamino-3-(1-naphthyloxy)-2-propanol; (+)-Propranolol; (R)-(+)-propranolol; 2R-Propranolol; D-Propranolol; Dexpropranolol; R (+)-Propanolol; R-(+)-Propranolol

$$$$
