ZY6
 OpenBabel10282417072D

 42 45  0  0  0  0  0  0  0  0999 V2000
    1.4459   -0.0117    0.0000 C   0  0  0  0  0  0  0  0  0  0  0  0
    2.1604    0.4008    0.0000 C   0  0  0  0  0  0  0  0  0  0  0  0
    2.8749   -0.0117    0.0000 C   0  0  0  0  0  0  0  0  0  0  0  0
    2.8749   -0.8367    0.0000 C   0  0  0  0  0  0  0  0  0  0  0  0
    2.1604   -1.2492    0.0000 C   0  0  0  0  0  0  0  0  0  0  0  0
    1.4459   -0.8367    0.0000 C   0  0  0  0  0  0  0  0  0  0  0  0
    0.7315   -1.2492    0.0000 C   0  0  0  0  0  0  0  0  0  0  0  0
    0.7315   -2.0742    0.0000 C   0  0  0  0  0  0  0  0  0  0  0  0
    0.0170   -2.4867    0.0000 N   0  0  0  0  0  0  0  0  0  0  0  0
   -0.6975   -2.0742    0.0000 C   0  0  0  0  0  0  0  0  0  0  0  0
   -1.4821   -2.3292    0.0000 N   0  0  0  0  0  0  0  0  0  0  0  0
   -1.9670   -1.6617    0.0000 N   0  0  0  0  0  0  0  0  0  0  0  0
   -1.4821   -0.9943    0.0000 C   0  0  0  0  0  0  0  0  0  0  0  0
   -0.6975   -1.2492    0.0000 C   0  0  0  0  0  0  0  0  0  0  0  0
    0.0170   -0.8367    0.0000 C   0  0  0  0  0  0  0  0  0  0  0  0
    0.0170   -0.0117    0.0000 N   0  0  0  0  0  0  0  0  0  0  0  0
   -0.6975    0.4008    0.0000 C   0  0  0  0  0  0  0  0  0  0  0  0
    0.7315    0.4008    0.0000 C   0  0  0  0  0  0  0  0  0  0  0  0
    0.7315    1.2258    0.0000 C   0  0  0  0  0  0  0  0  0  0  0  0
    0.0170    1.6383    0.0000 O   0  0  0  0  0  0  0  0  0  0  0  0
   -0.6975    1.2258    0.0000 C   0  0  1  0  0  0  0  0  0  0  0  0
   -1.4119    1.6383    0.0000 C   0  0  0  0  0  0  0  0  0  0  0  0
   -2.1264    1.2258    0.0000 N   0  0  0  0  0  0  0  0  0  0  0  0
   -1.2032    0.9338    0.0000 H   0  0  0  0  0  0  0  0  0  0  0  0
    0.5522    0.5043    0.0000 H   0  0  0  0  0  0  0  0  0  0  0  0
    2.1604    1.4328    0.0000 H   0  0  0  0  0  0  0  0  0  0  0  0
    3.7686    0.5043    0.0000 H   0  0  0  0  0  0  0  0  0  0  0  0
    3.7686   -1.3527    0.0000 H   0  0  0  0  0  0  0  0  0  0  0  0
    2.1604   -2.2812    0.0000 H   0  0  0  0  0  0  0  0  0  0  0  0
    1.6252   -2.5902    0.0000 H   0  0  0  0  0  0  0  0  0  0  0  0
   -1.7863   -3.2655    0.0000 H   0  0  0  0  0  0  0  0  0  0  0  0
   -1.8010   -0.0128    0.0000 H   0  0  0  0  0  0  0  0  0  0  0  0
   -1.6241   -0.1342    0.0000 H   0  0  0  0  0  0  0  0  0  0  0  0
   -1.6241    0.9358    0.0000 H   0  0  0  0  0  0  0  0  0  0  0  0
    1.6581   -0.1342    0.0000 H   0  0  0  0  0  0  0  0  0  0  0  0
    1.6581    0.9358    0.0000 H   0  0  0  0  0  0  0  0  0  0  0  0
    1.6581    1.7608    0.0000 H   0  0  0  0  0  0  0  0  0  0  0  0
    0.7315    2.2958    0.0000 H   0  0  0  0  0  0  0  0  0  0  0  0
   -1.4119    2.7083    0.0000 H   0  0  0  0  0  0  0  0  0  0  0  0
   -2.3385    2.1733    0.0000 H   0  0  0  0  0  0  0  0  0  0  0  0
   -3.0097    1.7358    0.0000 H   0  0  0  0  0  0  0  0  0  0  0  0
   -2.1264    0.2058    0.0000 H   0  0  0  0  0  0  0  0  0  0  0  0
  1  2  1  0  0  0  0
  1  6  2  0  0  0  0
  1 25  1  0  0  0  0
  2  3  2  0  0  0  0
  2 26  1  0  0  0  0
  3  4  1  0  0  0  0
  3 27  1  0  0  0  0
  4  5  2  0  0  0  0
  4 28  1  0  0  0  0
  5  6  1  0  0  0  0
  5 29  1  0  0  0  0
  6  7  1  0  0  0  0
  7  8  1  0  0  0  0
  7 15  2  0  0  0  0
  8  9  2  0  0  0  0
  8 30  1  0  0  0  0
  9 10  1  0  0  0  0
 10 11  1  0  0  0  0
 10 14  2  0  0  0  0
 11 12  1  0  0  0  0
 11 31  1  0  0  0  0
 12 13  2  0  0  0  0
 13 14  1  0  0  0  0
 13 32  1  0  0  0  0
 14 15  1  0  0  0  0
 15 16  1  0  0  0  0
 16 17  1  0  0  0  0
 16 18  1  0  0  0  0
 17 21  1  0  0  0  0
 17 33  1  0  0  0  0
 17 34  1  0  0  0  0
 18 19  1  0  0  0  0
 18 35  1  0  0  0  0
 18 36  1  0  0  0  0
 19 20  1  0  0  0  0
 19 37  1  0  0  0  0
 19 38  1  0  0  0  0
 20 21  1  0  0  0  0
 21 22  1  0  0  0  0
 21 24  1  1  0  0  0
 22 23  1  0  0  0  0
 22 39  1  0  0  0  0
 22 40  1  0  0  0  0
 23 41  1  0  0  0  0
 23 42  1  0  0  0  0
M  END
>  <DRUGBANK_ID>
DB08774

>  <COMMON_NAME>
1-[(2S)-4-(5-phenyl-1H-pyrazolo[3,4-b]pyridin-4-yl)morpholin-2-yl]methanamine

$$$$
