
 OpenBabel10282417072D

 33 34  0  0  0  0  0  0  0  0999 V2000
    8.5736    0.8250    0.0000 C   0  0  0  0  0  0  0  0  0  0  0  0
    7.8591    1.2375    0.0000 C   0  0  0  0  0  0  0  0  0  0  0  0
    8.5736    0.0000    0.0000 C   0  0  0  0  0  0  0  0  0  0  0  0
    7.1447    0.8250    0.0000 C   0  0  0  0  0  0  0  0  0  0  0  0
    7.8591   -0.4125    0.0000 C   0  0  0  0  0  0  0  0  0  0  0  0
    5.7157    0.0000    0.0000 C   0  0  0  0  0  0  0  0  0  0  0  0
    6.4302   -1.2375    0.0000 C   0  0  0  0  0  0  0  0  0  0  0  0
    5.0012   -0.4125    0.0000 C   0  0  0  0  0  0  0  0  0  0  0  0
    5.7157   -1.6500    0.0000 C   0  0  0  0  0  0  0  0  0  0  0  0
    3.5723   -1.2375    0.0000 C   0  0  0  0  0  0  0  0  0  0  0  0
    2.8578   -1.6500    0.0000 C   0  0  0  0  0  0  0  0  0  0  0  0
    7.1447    0.0000    0.0000 C   0  0  0  0  0  0  0  0  0  0  0  0
    6.4302   -0.4125    0.0000 C   0  0  0  0  0  0  0  0  0  0  0  0
    5.0012   -1.2375    0.0000 C   0  0  0  0  0  0  0  0  0  0  0  0
    4.2868   -1.6500    0.0000 C   0  0  0  0  0  0  0  0  0  0  0  0
    2.1434   -1.2375    0.0000 C   0  0  0  0  0  0  0  0  0  0  0  0
    4.2868   -2.4750    0.0000 O   0  0  0  0  0  0  0  0  0  0  0  0
    1.4289   -1.6500    0.0000 O   0  0  0  0  0  0  0  0  0  0  0  0
    2.1434   -0.4125    0.0000 O   0  0  0  0  0  0  0  0  0  0  0  0
    9.4673    1.3410    0.0000 H   0  0  0  0  0  0  0  0  0  0  0  0
    7.8591    2.2695    0.0000 H   0  0  0  0  0  0  0  0  0  0  0  0
    9.4673   -0.5160    0.0000 H   0  0  0  0  0  0  0  0  0  0  0  0
    6.2510    1.3410    0.0000 H   0  0  0  0  0  0  0  0  0  0  0  0
    7.8591   -1.4445    0.0000 H   0  0  0  0  0  0  0  0  0  0  0  0
    5.7157    1.0320    0.0000 H   0  0  0  0  0  0  0  0  0  0  0  0
    7.3239   -1.7535    0.0000 H   0  0  0  0  0  0  0  0  0  0  0  0
    4.1075    0.1035    0.0000 H   0  0  0  0  0  0  0  0  0  0  0  0
    5.7157   -2.6820    0.0000 H   0  0  0  0  0  0  0  0  0  0  0  0
    3.5723   -0.1675    0.0000 H   0  0  0  0  0  0  0  0  0  0  0  0
    4.4989   -0.7025    0.0000 H   0  0  0  0  0  0  0  0  0  0  0  0
    2.8578   -2.7200    0.0000 H   0  0  0  0  0  0  0  0  0  0  0  0
    1.9311   -2.1850    0.0000 H   0  0  0  0  0  0  0  0  0  0  0  0
    2.9549    0.0560    0.0000 H   0  0  0  0  0  0  0  0  0  0  0  0
  1 20  1  0  0  0  0
  2  1  2  0  0  0  0
  2 21  1  0  0  0  0
  3  1  1  0  0  0  0
  3 22  1  0  0  0  0
  4  2  1  0  0  0  0
  4 23  1  0  0  0  0
  5  3  2  0  0  0  0
  5 24  1  0  0  0  0
  6 25  1  0  0  0  0
  7 26  1  0  0  0  0
  8  6  1  0  0  0  0
  8 27  1  0  0  0  0
  9  7  2  0  0  0  0
  9 28  1  0  0  0  0
 10 29  1  0  0  0  0
 10 30  1  0  0  0  0
 11 10  1  0  0  0  0
 11 31  1  0  0  0  0
 11 32  1  0  0  0  0
 12  4  2  0  0  0  0
 12  5  1  0  0  0  0
 13  6  2  0  0  0  0
 13  7  1  0  0  0  0
 13 12  1  0  0  0  0
 14  8  2  0  0  0  0
 14  9  1  0  0  0  0
 15 10  1  0  0  0  0
 15 14  1  0  0  0  0
 16 11  1  0  0  0  0
 17 15  2  0  0  0  0
 18 16  2  0  0  0  0
 19 16  1  0  0  0  0
 19 33  1  0  0  0  0
M  END
>  <DRUGBANK_ID>
DB08981

>  <COMMON_NAME>
Fenbufen

>  <CAS_NUMBER>
36330-85-5

>  <UNII>
9815R1WR9B

>  <SYNONYMS>
3-(4-Biphenylylcarbonyl)propionic acid; 3-(4-Phenylbenzoyl)propionic acid; 4-(4-Biphenylyl)-4-oxobutyric acid; Fenbufén; Fenbufen; Fenbufène; Fenbufenum; gamma-oxo(1,1'-biphenyl)-4-butanoic acid

$$$$
