G6A
 OpenBabel10282417072D

 47 50  0  0  0  0  0  0  0  0999 V2000
   -4.0558    2.6638    0.0000 C   0  0  0  0  0  0  0  0  0  0  0  0
    3.3012    1.6326    0.0000 C   0  0  0  0  0  0  0  0  0  0  0  0
    3.7137    0.9181    0.0000 C   0  0  0  0  0  0  0  0  0  0  0  0
    2.8887    0.9181    0.0000 C   0  0  0  0  0  0  0  0  0  0  0  0
   -3.7203    1.9101    0.0000 C   0  0  0  0  0  0  0  0  0  0  0  0
   -2.9133    1.7386    0.0000 O   0  0  0  0  0  0  0  0  0  0  0  0
   -4.1328    1.1957    0.0000 N   0  0  0  0  0  0  0  0  0  0  0  0
   -3.5808    0.5826    0.0000 N   0  0  0  0  0  0  0  0  0  0  0  0
   -2.8271    0.9181    0.0000 C   0  0  0  0  0  0  0  0  0  0  0  0
   -2.1126    0.5056    0.0000 C   0  0  0  0  0  0  0  0  0  0  0  0
   -1.3981    0.9181    0.0000 C   0  0  0  0  0  0  0  0  0  0  0  0
   -0.6837    0.5056    0.0000 C   0  0  0  0  0  0  0  0  0  0  0  0
   -2.1126   -0.3194    0.0000 C   0  0  0  0  0  0  0  0  0  0  0  0
   -1.3981   -0.7319    0.0000 C   0  0  0  0  0  0  0  0  0  0  0  0
   -1.3981   -1.5569    0.0000 C   0  0  0  0  0  0  0  0  0  0  0  0
   -0.6837   -0.3194    0.0000 C   0  0  0  0  0  0  0  0  0  0  0  0
    0.0308   -0.7319    0.0000 C   0  0  0  0  0  0  0  0  0  0  0  0
    0.7453   -0.3194    0.0000 C   0  0  0  0  0  0  0  0  0  0  0  0
    1.4597   -0.7319    0.0000 C   0  0  0  0  0  0  0  0  0  0  0  0
    2.1742   -0.3194    0.0000 C   0  0  0  0  0  0  0  0  0  0  0  0
    2.8887   -0.7319    0.0000 O   0  0  0  0  0  0  0  0  0  0  0  0
    2.1742    0.5056    0.0000 N   0  0  0  0  0  0  0  0  0  0  0  0
    1.4597   -1.5569    0.0000 C   0  0  0  0  0  0  0  0  0  0  0  0
    0.7453   -1.9694    0.0000 C   0  0  0  0  0  0  0  0  0  0  0  0
    0.0308   -1.5569    0.0000 C   0  0  0  0  0  0  0  0  0  0  0  0
   -0.6837   -1.9694    0.0000 C   0  0  0  0  0  0  0  0  0  0  0  0
   -3.4268    3.5294    0.0000 H   0  0  0  0  0  0  0  0  0  0  0  0
   -5.1199    2.7757    0.0000 H   0  0  0  0  0  0  0  0  0  0  0  0
   -4.4909    3.6413    0.0000 H   0  0  0  0  0  0  0  0  0  0  0  0
    3.3012    2.7026    0.0000 H   0  0  0  0  0  0  0  0  0  0  0  0
    2.2677    1.9095    0.0000 H   0  0  0  0  0  0  0  0  0  0  0  0
    4.6403    0.3831    0.0000 H   0  0  0  0  0  0  0  0  0  0  0  0
    3.4368   -0.1154    0.0000 H   0  0  0  0  0  0  0  0  0  0  0  0
    3.1656   -0.1154    0.0000 H   0  0  0  0  0  0  0  0  0  0  0  0
   -1.3981    1.9501    0.0000 H   0  0  0  0  0  0  0  0  0  0  0  0
    0.2100    1.0216    0.0000 H   0  0  0  0  0  0  0  0  0  0  0  0
   -3.0063   -0.8354    0.0000 H   0  0  0  0  0  0  0  0  0  0  0  0
   -2.3247   -2.0919    0.0000 H   0  0  0  0  0  0  0  0  0  0  0  0
   -0.4715   -2.0919    0.0000 H   0  0  0  0  0  0  0  0  0  0  0  0
   -1.3981   -2.6269    0.0000 H   0  0  0  0  0  0  0  0  0  0  0  0
    0.7453    0.7126    0.0000 H   0  0  0  0  0  0  0  0  0  0  0  0
    1.3216    0.9979    0.0000 H   0  0  0  0  0  0  0  0  0  0  0  0
    2.3534   -2.0729    0.0000 H   0  0  0  0  0  0  0  0  0  0  0  0
    0.7453   -3.0014    0.0000 H   0  0  0  0  0  0  0  0  0  0  0  0
   -1.6103   -1.4344    0.0000 H   0  0  0  0  0  0  0  0  0  0  0  0
   -0.6837   -3.0394    0.0000 H   0  0  0  0  0  0  0  0  0  0  0  0
   -1.6104   -2.5044    0.0000 H   0  0  0  0  0  0  0  0  0  0  0  0
  1  5  1  0  0  0  0
  1 27  1  0  0  0  0
  1 28  1  0  0  0  0
  1 29  1  0  0  0  0
  2  3  1  0  0  0  0
  2  4  1  0  0  0  0
  2 30  1  0  0  0  0
  2 31  1  0  0  0  0
  3  4  1  0  0  0  0
  3 32  1  0  0  0  0
  3 33  1  0  0  0  0
  4 22  1  0  0  0  0
  4 34  1  0  0  0  0
  5  6  1  0  0  0  0
  5  7  2  0  0  0  0
  6  9  1  0  0  0  0
  7  8  1  0  0  0  0
  8  9  2  0  0  0  0
  9 10  1  0  0  0  0
 10 11  2  0  0  0  0
 10 13  1  0  0  0  0
 11 12  1  0  0  0  0
 11 35  1  0  0  0  0
 12 16  2  0  0  0  0
 12 36  1  0  0  0  0
 13 14  2  0  0  0  0
 13 37  1  0  0  0  0
 14 15  1  0  0  0  0
 14 16  1  0  0  0  0
 15 38  1  0  0  0  0
 15 39  1  0  0  0  0
 15 40  1  0  0  0  0
 16 17  1  0  0  0  0
 17 18  2  0  0  0  0
 17 25  1  0  0  0  0
 18 19  1  0  0  0  0
 18 41  1  0  0  0  0
 19 20  1  0  0  0  0
 19 23  2  0  0  0  0
 20 21  2  0  0  0  0
 20 22  1  0  0  0  0
 22 42  1  0  0  0  0
 23 24  1  0  0  0  0
 23 43  1  0  0  0  0
 24 25  2  0  0  0  0
 24 44  1  0  0  0  0
 25 26  1  0  0  0  0
 26 45  1  0  0  0  0
 26 46  1  0  0  0  0
 26 47  1  0  0  0  0
M  END
>  <DRUGBANK_ID>
DB07811

>  <COMMON_NAME>
N-cyclopropyl-2',6-dimethyl-4'-(5-methyl-1,3,4-oxadiazol-2-yl)biphenyl-3-carboxamide

$$$$
