W01
 OpenBabel10282417072D

 45 47  0  0  0  0  0  0  0  0999 V2000
   -3.6469    0.2765    0.0000 O   0  0  0  0  0  0  0  0  0  0  0  0
   -4.1989    0.8896    0.0000 N   0  0  0  0  0  0  0  0  0  0  0  0
   -3.7864    1.6041    0.0000 C   0  0  0  0  0  0  0  0  0  0  0  0
   -4.1220    2.3578    0.0000 C   0  0  0  0  0  0  0  0  0  0  0  0
   -2.9795    1.4326    0.0000 C   0  0  0  0  0  0  0  0  0  0  0  0
   -2.8932    0.6121    0.0000 C   0  0  0  0  0  0  0  0  0  0  0  0
   -2.1788    0.1996    0.0000 C   0  0  0  0  0  0  0  0  0  0  0  0
   -1.4643    0.6121    0.0000 C   0  0  0  0  0  0  0  0  0  0  0  0
   -0.7498    0.1996    0.0000 C   0  0  0  0  0  0  0  0  0  0  0  0
   -0.0354    0.6121    0.0000 O   0  0  0  0  0  0  0  0  0  0  0  0
    0.6791    0.1996    0.0000 C   0  0  0  0  0  0  0  0  0  0  0  0
    1.3936    0.6121    0.0000 C   0  0  0  0  0  0  0  0  0  0  0  0
    1.3936    1.4371    0.0000 C   0  0  0  0  0  0  0  0  0  0  0  0
    2.1081    0.1996    0.0000 C   0  0  0  0  0  0  0  0  0  0  0  0
    2.1081   -0.6254    0.0000 C   0  0  0  0  0  0  0  0  0  0  0  0
    1.3936   -1.0379    0.0000 C   0  0  0  0  0  0  0  0  0  0  0  0
    0.6791   -0.6254    0.0000 C   0  0  0  0  0  0  0  0  0  0  0  0
   -0.0354   -1.0379    0.0000 C   0  0  0  0  0  0  0  0  0  0  0  0
    2.8225   -1.0379    0.0000 C   0  0  0  0  0  0  0  0  0  0  0  0
    3.5762   -0.7023    0.0000 N   0  0  0  0  0  0  0  0  0  0  0  0
    2.9088   -1.8584    0.0000 N   0  0  0  0  0  0  0  0  0  0  0  0
    3.7157   -2.0299    0.0000 N   0  0  0  0  0  0  0  0  0  0  0  0
    4.0513   -2.7836    0.0000 C   0  0  0  0  0  0  0  0  0  0  0  0
    4.1282   -1.3154    0.0000 N   0  0  0  0  0  0  0  0  0  0  0  0
   -3.4931    3.2235    0.0000 H   0  0  0  0  0  0  0  0  0  0  0  0
   -5.1861    2.4696    0.0000 H   0  0  0  0  0  0  0  0  0  0  0  0
   -4.5572    3.3353    0.0000 H   0  0  0  0  0  0  0  0  0  0  0  0
   -2.2126    2.1232    0.0000 H   0  0  0  0  0  0  0  0  0  0  0  0
   -2.1788   -0.8704    0.0000 H   0  0  0  0  0  0  0  0  0  0  0  0
   -1.2522   -0.3354    0.0000 H   0  0  0  0  0  0  0  0  0  0  0  0
   -1.4643    1.6821    0.0000 H   0  0  0  0  0  0  0  0  0  0  0  0
   -0.5377    1.1471    0.0000 H   0  0  0  0  0  0  0  0  0  0  0  0
   -0.7498   -0.8704    0.0000 H   0  0  0  0  0  0  0  0  0  0  0  0
    0.1769   -0.3354    0.0000 H   0  0  0  0  0  0  0  0  0  0  0  0
    2.3202    1.9721    0.0000 H   0  0  0  0  0  0  0  0  0  0  0  0
    0.4670    1.9721    0.0000 H   0  0  0  0  0  0  0  0  0  0  0  0
    1.3936    2.5071    0.0000 H   0  0  0  0  0  0  0  0  0  0  0  0
    3.0018    0.7156    0.0000 H   0  0  0  0  0  0  0  0  0  0  0  0
    1.3936   -2.0699    0.0000 H   0  0  0  0  0  0  0  0  0  0  0  0
   -0.9620   -0.5029    0.0000 H   0  0  0  0  0  0  0  0  0  0  0  0
   -0.0354   -2.1079    0.0000 H   0  0  0  0  0  0  0  0  0  0  0  0
   -0.9621   -1.5729    0.0000 H   0  0  0  0  0  0  0  0  0  0  0  0
    3.4224   -3.6493    0.0000 H   0  0  0  0  0  0  0  0  0  0  0  0
    5.1154   -2.8954    0.0000 H   0  0  0  0  0  0  0  0  0  0  0  0
    4.4865   -3.7611    0.0000 H   0  0  0  0  0  0  0  0  0  0  0  0
  1  2  1  0  0  0  0
  1  6  1  0  0  0  0
  2  3  2  0  0  0  0
  3  4  1  0  0  0  0
  3  5  1  0  0  0  0
  4 25  1  0  0  0  0
  4 26  1  0  0  0  0
  4 27  1  0  0  0  0
  5  6  2  0  0  0  0
  5 28  1  0  0  0  0
  6  7  1  0  0  0  0
  7  8  1  0  0  0  0
  7 29  1  0  0  0  0
  7 30  1  0  0  0  0
  8  9  1  0  0  0  0
  8 31  1  0  0  0  0
  8 32  1  0  0  0  0
  9 10  1  0  0  0  0
  9 33  1  0  0  0  0
  9 34  1  0  0  0  0
 10 11  1  0  0  0  0
 11 12  2  0  0  0  0
 11 17  1  0  0  0  0
 12 13  1  0  0  0  0
 12 14  1  0  0  0  0
 13 35  1  0  0  0  0
 13 36  1  0  0  0  0
 13 37  1  0  0  0  0
 14 15  2  0  0  0  0
 14 38  1  0  0  0  0
 15 16  1  0  0  0  0
 15 19  1  0  0  0  0
 16 17  2  0  0  0  0
 16 39  1  0  0  0  0
 17 18  1  0  0  0  0
 18 40  1  0  0  0  0
 18 41  1  0  0  0  0
 18 42  1  0  0  0  0
 19 20  1  0  0  0  0
 19 21  2  0  0  0  0
 20 24  2  0  0  0  0
 21 22  1  0  0  0  0
 22 23  1  0  0  0  0
 22 24  1  0  0  0  0
 23 43  1  0  0  0  0
 23 44  1  0  0  0  0
 23 45  1  0  0  0  0
M  END
>  <DRUGBANK_ID>
DB08713

>  <COMMON_NAME>
2,6-DIMETHYL-1-(3-[3-METHYL-5-ISOXAZOLYL]-PROPANYL)-4-[2N-METHYL-2H-TETRAZOL-5-YL]-PHENOL

$$$$
