
 OpenBabel10282417072D

 63 65  0  0  0  0  0  0  0  0999 V2000
   -4.8432    0.4077    0.0000 C   0  0  0  0  0  0  0  0  0  0  0  0
   -4.1285    0.8202    0.0000 C   0  0  0  0  0  0  0  0  0  0  0  0
   -5.5579    0.8202    0.0000 C   0  0  0  0  0  0  0  0  0  0  0  0
   -6.2724    0.4077    0.0000 O   0  0  0  0  0  0  0  0  0  0  0  0
   -5.5579    1.6454    0.0000 O   0  0  0  0  0  0  0  0  0  0  0  0
   -3.4139    0.4077    0.0000 C   0  0  0  0  0  0  0  0  0  0  0  0
   -3.4157   -0.4185    0.0000 C   0  0  0  0  0  0  0  0  0  0  0  0
   -2.7018   -0.8310    0.0000 C   0  0  0  0  0  0  0  0  0  0  0  0
   -1.9863   -0.4184    0.0000 C   0  0  0  0  0  0  0  0  0  0  0  0
   -1.9889    0.4111    0.0000 C   0  0  0  0  0  0  0  0  0  0  0  0
   -2.7033    0.8198    0.0000 C   0  0  0  0  0  0  0  0  0  0  0  0
   -1.2758    0.8261    0.0000 O   0  0  0  0  0  0  0  0  0  0  0  0
   -0.5597    0.4161    0.0000 C   0  0  0  0  0  0  0  0  0  0  0  0
    0.1533    0.8311    0.0000 C   0  0  1  0  0  0  0  0  0  0  0  0
    0.8696    0.4211    0.0000 C   0  0  0  0  0  0  0  0  0  0  0  0
    1.5826    0.8362    0.0000 N   0  0  0  0  0  0  0  0  0  0  0  0
    0.1506    1.6563    0.0000 O   0  0  0  0  0  0  0  0  0  0  0  0
    2.2987    0.4262    0.0000 C   0  0  0  0  0  0  0  0  0  0  0  0
    3.0121    0.8412    0.0000 C   0  0  0  0  0  0  0  0  0  0  0  0
    1.8775   -0.2799    0.0000 C   0  0  0  0  0  0  0  0  0  0  0  0
    2.7027   -0.2799    0.0000 C   0  0  0  0  0  0  0  0  0  0  0  0
    3.7280    0.4313    0.0000 C   0  0  0  0  0  0  0  0  0  0  0  0
    3.8208   -0.3855    0.0000 C   0  0  0  0  0  0  0  0  0  0  0  0
    4.4843    0.7729    0.0000 C   0  0  0  0  0  0  0  0  0  0  0  0
    5.0386    0.1617    0.0000 C   0  0  0  0  0  0  0  0  0  0  0  0
    4.6267   -0.5517    0.0000 C   0  0  0  0  0  0  0  0  0  0  0  0
    5.0384   -1.2633    0.0000 C   0  0  0  0  0  0  0  0  0  0  0  0
    5.8622   -1.2626    0.0000 C   0  0  0  0  0  0  0  0  0  0  0  0
    6.2724   -0.5442    0.0000 C   0  0  0  0  0  0  0  0  0  0  0  0
    5.8583    0.1643    0.0000 C   0  0  0  0  0  0  0  0  0  0  0  0
   -1.2712   -0.8300    0.0000 F   0  0  0  0  0  0  0  0  0  0  0  0
   -2.7024   -1.6563    0.0000 F   0  0  0  0  0  0  0  0  0  0  0  0
   -4.8432   -0.6623    0.0000 H   0  0  0  0  0  0  0  0  0  0  0  0
   -3.9166   -0.1274    0.0000 H   0  0  0  0  0  0  0  0  0  0  0  0
   -4.1285    1.8902    0.0000 H   0  0  0  0  0  0  0  0  0  0  0  0
   -5.0551    1.3553    0.0000 H   0  0  0  0  0  0  0  0  0  0  0  0
   -7.0839    0.8762    0.0000 H   0  0  0  0  0  0  0  0  0  0  0  0
   -4.3101   -0.9334    0.0000 H   0  0  0  0  0  0  0  0  0  0  0  0
   -2.7063    1.8518    0.0000 H   0  0  0  0  0  0  0  0  0  0  0  0
   -0.5559   -0.6539    0.0000 H   0  0  0  0  0  0  0  0  0  0  0  0
    0.3688   -0.1156    0.0000 H   0  0  0  0  0  0  0  0  0  0  0  0
   -0.7752    1.3630    0.0000 H   0  0  0  0  0  0  0  0  0  0  0  0
    0.8735   -0.6489    0.0000 H   0  0  0  0  0  0  0  0  0  0  0  0
   -0.0551   -0.1173    0.0000 H   0  0  0  0  0  0  0  0  0  0  0  0
    1.5789    1.8562    0.0000 H   0  0  0  0  0  0  0  0  0  0  0  0
    0.9891    2.1440    0.0000 H   0  0  0  0  0  0  0  0  0  0  0  0
    3.0084    1.9112    0.0000 H   0  0  0  0  0  0  0  0  0  0  0  0
    3.9369    1.3795    0.0000 H   0  0  0  0  0  0  0  0  0  0  0  0
    0.8076   -0.2646    0.0000 H   0  0  0  0  0  0  0  0  0  0  0  0
    2.3992   -1.2141    0.0000 H   0  0  0  0  0  0  0  0  0  0  0  0
    1.3293   -1.1988    0.0000 H   0  0  0  0  0  0  0  0  0  0  0  0
    2.1641   -1.2045    0.0000 H   0  0  0  0  0  0  0  0  0  0  0  0
    3.7727   -0.2841    0.0000 H   0  0  0  0  0  0  0  0  0  0  0  0
    3.2341   -1.2086    0.0000 H   0  0  0  0  0  0  0  0  0  0  0  0
    4.6583   -0.0973    0.0000 H   0  0  0  0  0  0  0  0  0  0  0  0
    3.0308   -1.1072    0.0000 H   0  0  0  0  0  0  0  0  0  0  0  0
    4.1046   -1.4172    0.0000 H   0  0  0  0  0  0  0  0  0  0  0  0
    4.7021    1.8205    0.0000 H   0  0  0  0  0  0  0  0  0  0  0  0
    3.6495    1.4422    0.0000 H   0  0  0  0  0  0  0  0  0  0  0  0
    4.5232   -2.1575    0.0000 H   0  0  0  0  0  0  0  0  0  0  0  0
    6.3807   -2.1549    0.0000 H   0  0  0  0  0  0  0  0  0  0  0  0
    7.3044   -0.5390    0.0000 H   0  0  0  0  0  0  0  0  0  0  0  0
    6.3705    1.0602    0.0000 H   0  0  0  0  0  0  0  0  0  0  0  0
  1  3  1  0  0  0  0
  1  2  1  0  0  0  0
  1 33  1  0  0  0  0
  1 34  1  0  0  0  0
  2  6  1  0  0  0  0
  2 35  1  0  0  0  0
  2 36  1  0  0  0  0
  3  5  2  0  0  0  0
  3  4  1  0  0  0  0
  4 37  1  0  0  0  0
  6  7  2  0  0  0  0
  7  8  1  0  0  0  0
  7 38  1  0  0  0  0
  8  9  2  0  0  0  0
  8 32  1  0  0  0  0
  9 10  1  0  0  0  0
  9 31  1  0  0  0  0
 10 11  2  0  0  0  0
 10 12  1  0  0  0  0
 11  6  1  0  0  0  0
 11 39  1  0  0  0  0
 12 13  1  0  0  0  0
 13 14  1  0  0  0  0
 13 40  1  0  0  0  0
 13 41  1  0  0  0  0
 14 17  1  0  0  0  0
 14 15  1  0  0  0  0
 14 42  1  1  0  0  0
 15 16  1  0  0  0  0
 15 43  1  0  0  0  0
 15 44  1  0  0  0  0
 16 18  1  0  0  0  0
 16 45  1  0  0  0  0
 17 46  1  0  0  0  0
 18 19  1  0  0  0  0
 18 20  1  0  0  0  0
 18 21  1  0  0  0  0
 19 22  1  0  0  0  0
 19 47  1  0  0  0  0
 19 48  1  0  0  0  0
 20 49  1  0  0  0  0
 20 50  1  0  0  0  0
 20 51  1  0  0  0  0
 21 52  1  0  0  0  0
 21 53  1  0  0  0  0
 21 54  1  0  0  0  0
 22 23  1  0  0  0  0
 22 55  1  0  0  0  0
 23 26  1  0  0  0  0
 23 56  1  0  0  0  0
 23 57  1  0  0  0  0
 24 22  1  0  0  0  0
 24 58  1  0  0  0  0
 24 59  1  0  0  0  0
 25 24  1  0  0  0  0
 25 26  2  0  0  0  0
 26 27  1  0  0  0  0
 27 28  2  0  0  0  0
 27 60  1  0  0  0  0
 28 29  1  0  0  0  0
 28 61  1  0  0  0  0
 29 30  2  0  0  0  0
 29 62  1  0  0  0  0
 30 25  1  0  0  0  0
 30 63  1  0  0  0  0
M  END
>  <DRUGBANK_ID>
DB05255

>  <COMMON_NAME>
Ronacaleret

>  <CAS_NUMBER>
753449-67-1

>  <UNII>
DIH95YP7J3

>  <SYNONYMS>
Ronacaleret

$$$$
