
 OpenBabel10282417072D

 72 77  0  0  1  0  0  0  0  0999 V2000
   -0.1740   -7.7355    0.0000 C   0  0  0  0  0  0  0  0  0  0  0  0
   -0.4290   -6.9509    0.0000 N   0  0  0  0  0  0  0  0  0  0  0  0
    0.1231   -6.3378    0.0000 C   0  0  0  0  0  0  0  0  0  0  0  0
    0.9300   -6.5093    0.0000 O   0  0  0  0  0  0  0  0  0  0  0  0
   -0.1319   -5.5532    0.0000 N   0  0  0  0  0  0  0  0  0  0  0  0
   -0.9388   -5.3817    0.0000 C   0  0  0  0  0  0  0  0  0  0  0  0
   -1.1938   -4.5971    0.0000 O   0  0  0  0  0  0  0  0  0  0  0  0
   -1.4909   -5.9948    0.0000 C   0  0  0  0  0  0  0  0  0  0  0  0
   -1.2359   -6.7794    0.0000 C   0  0  0  0  0  0  0  0  0  0  0  0
   -1.7880   -7.3925    0.0000 C   0  0  0  0  0  0  0  0  0  0  0  0
   -1.5330   -8.1771    0.0000 F   0  0  0  0  0  0  0  0  0  0  0  0
   -2.5949   -7.2210    0.0000 C   0  0  0  0  0  0  0  0  0  0  0  0
   -2.8499   -6.4363    0.0000 C   0  0  0  0  0  0  0  0  0  0  0  0
   -2.2978   -5.8232    0.0000 C   0  0  0  0  0  0  0  0  0  0  0  0
    0.4202   -4.9401    0.0000 C   0  0  0  0  0  0  0  0  0  0  0  0
    0.1652   -4.1555    0.0000 C   0  0  0  0  0  0  0  0  0  0  0  0
   -0.6417   -3.9840    0.0000 C   0  0  0  0  0  0  0  0  0  0  0  0
    0.7173   -3.5424    0.0000 C   0  0  0  0  0  0  0  0  0  0  0  0
    1.5242   -3.7139    0.0000 C   0  0  0  0  0  0  0  0  0  0  0  0
    1.7792   -4.4985    0.0000 C   0  0  0  0  0  0  0  0  0  0  0  0
    1.2271   -5.1116    0.0000 C   0  0  0  0  0  0  0  0  0  0  0  0
    0.4623   -2.7578    0.0000 C   0  0  0  0  0  0  0  0  0  0  0  0
    1.0144   -2.1447    0.0000 C   0  0  0  0  0  0  0  0  0  0  0  0
    1.8394   -2.1447    0.0000 C   0  0  0  0  0  0  0  0  0  0  0  0
    2.0943   -1.3601    0.0000 C   0  0  0  0  0  0  0  0  0  0  0  0
    2.9013   -1.1885    0.0000 C   0  0  0  0  0  0  0  0  0  0  0  0
    3.4533   -1.8016    0.0000 C   0  0  2  0  0  0  0  0  0  0  0  0
    3.1984   -2.5862    0.0000 C   0  0  0  0  0  0  0  0  0  0  0  0
    2.3914   -2.7578    0.0000 C   0  0  0  0  0  0  0  0  0  0  0  0
    4.2603   -1.6301    0.0000 C   0  0  0  0  0  0  0  0  0  0  0  0
    5.0672   -1.4586    0.0000 C   0  0  0  0  0  0  0  0  0  0  0  0
    4.4318   -2.4371    0.0000 C   0  0  0  0  0  0  0  0  0  0  0  0
    4.0887   -0.8231    0.0000 O   0  0  0  0  0  0  0  0  0  0  0  0
    1.4269   -0.8751    0.0000 N   0  0  0  0  0  0  0  0  0  0  0  0
    0.7594   -1.3601    0.0000 C   0  0  0  0  0  0  0  0  0  0  0  0
   -0.0476   -1.1885    0.0000 C   0  0  0  0  0  0  0  0  0  0  0  0
   -0.5996   -1.8016    0.0000 C   0  0  0  0  0  0  0  0  0  0  0  0
   -0.3446   -2.5862    0.0000 C   0  0  0  0  0  0  0  0  0  0  0  0
   -0.8967   -3.1993    0.0000 F   0  0  0  0  0  0  0  0  0  0  0  0
   -0.3025   -0.4039    0.0000 C   0  0  0  0  0  0  0  0  0  0  0  0
   -1.1095   -0.2324    0.0000 N   0  0  0  0  0  0  0  0  0  0  0  0
    0.2495    0.2092    0.0000 O   0  0  0  0  0  0  0  0  0  0  0  0
   -0.8899   -8.5307    0.0000 H   0  0  0  0  0  0  0  0  0  0  0  0
    0.8726   -7.9579    0.0000 H   0  0  0  0  0  0  0  0  0  0  0  0
    0.1567   -8.7531    0.0000 H   0  0  0  0  0  0  0  0  0  0  0  0
   -3.2854   -7.9879    0.0000 H   0  0  0  0  0  0  0  0  0  0  0  0
   -3.8593   -6.2217    0.0000 H   0  0  0  0  0  0  0  0  0  0  0  0
   -2.6166   -4.8417    0.0000 H   0  0  0  0  0  0  0  0  0  0  0  0
   -0.9724   -2.9664    0.0000 H   0  0  0  0  0  0  0  0  0  0  0  0
   -1.3577   -4.7792    0.0000 H   0  0  0  0  0  0  0  0  0  0  0  0
   -1.6883   -3.7615    0.0000 H   0  0  0  0  0  0  0  0  0  0  0  0
    2.2147   -2.9469    0.0000 H   0  0  0  0  0  0  0  0  0  0  0  0
    2.7887   -4.7131    0.0000 H   0  0  0  0  0  0  0  0  0  0  0  0
    1.5460   -6.0931    0.0000 H   0  0  0  0  0  0  0  0  0  0  0  0
    3.2319   -0.1709    0.0000 H   0  0  0  0  0  0  0  0  0  0  0  0
    3.9479   -0.9660    0.0000 H   0  0  0  0  0  0  0  0  0  0  0  0
    3.7840   -0.7840    0.0000 H   0  0  0  0  0  0  0  0  0  0  0  0
    3.9144   -3.3813    0.0000 H   0  0  0  0  0  0  0  0  0  0  0  0
    2.8678   -3.6039    0.0000 H   0  0  0  0  0  0  0  0  0  0  0  0
    2.0608   -3.7754    0.0000 H   0  0  0  0  0  0  0  0  0  0  0  0
    1.3448   -2.9803    0.0000 H   0  0  0  0  0  0  0  0  0  0  0  0
    5.7832   -2.2538    0.0000 H   0  0  0  0  0  0  0  0  0  0  0  0
    5.3979   -0.4410    0.0000 H   0  0  0  0  0  0  0  0  0  0  0  0
    6.1138   -1.2361    0.0000 H   0  0  0  0  0  0  0  0  0  0  0  0
    3.6366   -3.1530    0.0000 H   0  0  0  0  0  0  0  0  0  0  0  0
    5.4494   -2.7678    0.0000 H   0  0  0  0  0  0  0  0  0  0  0  0
    4.6542   -3.4837    0.0000 H   0  0  0  0  0  0  0  0  0  0  0  0
    4.8095   -0.1740    0.0000 H   0  0  0  0  0  0  0  0  0  0  0  0
    1.4269    0.1094    0.0000 H   0  0  0  0  0  0  0  0  0  0  0  0
   -1.6091   -1.5871    0.0000 H   0  0  0  0  0  0  0  0  0  0  0  0
   -1.4138    0.7039    0.0000 H   0  0  0  0  0  0  0  0  0  0  0  0
   -1.7682   -0.9641    0.0000 H   0  0  0  0  0  0  0  0  0  0  0  0
  1  2  1  0  0  0  0
  1 43  1  0  0  0  0
  1 44  1  0  0  0  0
  1 45  1  0  0  0  0
  2  3  1  0  0  0  0
  2  9  1  0  0  0  0
  3  4  2  0  0  0  0
  3  5  1  0  0  0  0
  5  6  1  0  0  0  0
  5 15  1  0  0  0  0
  6  7  2  0  0  0  0
  6  8  1  0  0  0  0
  8  9  2  0  0  0  0
  8 14  1  0  0  0  0
  9 10  1  0  0  0  0
 10 11  1  0  0  0  0
 10 12  2  0  0  0  0
 12 13  1  0  0  0  0
 12 46  1  0  0  0  0
 13 14  2  0  0  0  0
 13 47  1  0  0  0  0
 14 48  1  0  0  0  0
 15 16  2  0  0  0  0
 15 21  1  0  0  0  0
 16 17  1  0  0  0  0
 16 18  1  0  0  0  0
 17 49  1  0  0  0  0
 17 50  1  0  0  0  0
 17 51  1  0  0  0  0
 18 19  2  0  0  0  0
 18 22  1  0  0  0  0
 19 20  1  0  0  0  0
 19 52  1  0  0  0  0
 20 21  2  0  0  0  0
 20 53  1  0  0  0  0
 21 54  1  0  0  0  0
 22 23  2  0  0  0  0
 22 38  1  0  0  0  0
 23 24  1  0  0  0  0
 23 35  1  0  0  0  0
 24 25  2  0  0  0  0
 24 29  1  0  0  0  0
 25 26  1  0  0  0  0
 25 34  1  0  0  0  0
 26 55  1  0  0  0  0
 26 56  1  0  0  0  0
 27 26  1  0  0  0  0
 27 28  1  0  0  0  0
 27 30  1  0  0  0  0
 27 57  1  6  0  0  0
 28 29  1  0  0  0  0
 28 58  1  0  0  0  0
 28 59  1  0  0  0  0
 29 60  1  0  0  0  0
 29 61  1  0  0  0  0
 30 31  1  0  0  0  0
 30 32  1  0  0  0  0
 30 33  1  0  0  0  0
 31 62  1  0  0  0  0
 31 63  1  0  0  0  0
 31 64  1  0  0  0  0
 32 65  1  0  0  0  0
 32 66  1  0  0  0  0
 32 67  1  0  0  0  0
 33 68  1  0  0  0  0
 34 35  1  0  0  0  0
 34 69  1  0  0  0  0
 35 36  2  0  0  0  0
 36 37  1  0  0  0  0
 36 40  1  0  0  0  0
 37 38  2  0  0  0  0
 37 70  1  0  0  0  0
 38 39  1  0  0  0  0
 40 41  1  0  0  0  0
 40 42  2  0  0  0  0
 41 71  1  0  0  0  0
 41 72  1  0  0  0  0
M  END
>  <DRUGBANK_ID>
DB15291

>  <COMMON_NAME>
BMS-986142

>  <CAS_NUMBER>
1643368-58-4

>  <UNII>
PJX9GH268R

$$$$
