
 OpenBabel10282417072D

 47 47  0  0  1  0  0  0  0  0999 V2000
    4.2868   -0.8250    0.0000 C   0  0  0  0  0  0  0  0  0  0  0  0
    5.7158   -1.6500    0.0000 C   0  0  0  0  0  0  0  0  0  0  0  0
    9.2881   -2.8875    0.0000 C   0  0  0  0  0  0  0  0  0  0  0  0
    5.0013   -0.4125    0.0000 C   0  0  0  0  0  0  0  0  0  0  0  0
   10.0026   -0.8250    0.0000 C   0  0  0  0  0  0  0  0  0  0  0  0
    7.8592   -0.4125    0.0000 C   0  0  0  0  0  0  0  0  0  0  0  0
    9.2881    0.4125    0.0000 C   0  0  0  0  0  0  0  0  0  0  0  0
    5.7158   -0.8250    0.0000 C   0  0  1  0  0  0  0  0  0  0  0  0
    9.2881   -2.0625    0.0000 C   0  0  0  0  0  0  0  0  0  0  0  0
    9.2881   -0.4125    0.0000 C   0  0  0  0  0  0  0  0  0  0  0  0
    8.5737   -0.8250    0.0000 C   0  0  0  0  0  0  0  0  0  0  0  0
    6.4302   -0.4125    0.0000 C   0  0  2  0  0  0  0  0  0  0  0  0
    8.5737   -1.6500    0.0000 C   0  0  0  0  0  0  0  0  0  0  0  0
    6.4302    0.4125    0.0000 C   0  0  0  0  0  0  0  0  0  0  0  0
   10.0026   -1.6500    0.0000 N   0  0  0  0  0  0  0  0  0  0  0  0
    7.1447   -0.8250    0.0000 N   0  0  0  0  0  0  0  0  0  0  0  0
    7.8592   -2.0625    0.0000 O   0  0  0  0  0  0  0  0  0  0  0  0
    7.1447    0.8250    0.0000 O   0  0  0  0  0  0  0  0  0  0  0  0
    5.7158    0.8250    0.0000 O   0  0  0  0  0  0  0  0  0  0  0  0
   10.0026    2.4750    0.0000 O   0  0  0  0  0  0  0  0  0  0  0  0
   10.8276    1.6500    0.0000 O   0  0  0  0  0  0  0  0  0  0  0  0
    9.1776    1.6500    0.0000 O   0  0  0  0  0  0  0  0  0  0  0  0
   10.0026    0.8250    0.0000 O   0  0  0  0  0  0  0  0  0  0  0  0
   10.0026    1.6500    0.0000 P   0  0  0  0  0  0  0  0  0  0  0  0
    5.0013   -1.2375    0.0000 H   0  0  0  0  0  0  0  0  0  0  0  0
    5.7158    0.0000    0.0000 H   0  0  0  0  0  0  0  0  0  0  0  0
    3.3602   -0.2900    0.0000 H   0  0  0  0  0  0  0  0  0  0  0  0
    4.2868   -1.8950    0.0000 H   0  0  0  0  0  0  0  0  0  0  0  0
    3.3601   -1.3600    0.0000 H   0  0  0  0  0  0  0  0  0  0  0  0
    4.7892   -2.1850    0.0000 H   0  0  0  0  0  0  0  0  0  0  0  0
    6.6424   -2.1850    0.0000 H   0  0  0  0  0  0  0  0  0  0  0  0
    5.7158   -2.7200    0.0000 H   0  0  0  0  0  0  0  0  0  0  0  0
    8.3615   -3.4225    0.0000 H   0  0  0  0  0  0  0  0  0  0  0  0
   10.2147   -3.4225    0.0000 H   0  0  0  0  0  0  0  0  0  0  0  0
    9.2881   -3.9575    0.0000 H   0  0  0  0  0  0  0  0  0  0  0  0
    5.0013    0.6575    0.0000 H   0  0  0  0  0  0  0  0  0  0  0  0
    5.9279    0.1225    0.0000 H   0  0  0  0  0  0  0  0  0  0  0  0
   10.8963   -0.3090    0.0000 H   0  0  0  0  0  0  0  0  0  0  0  0
    7.8592    0.6575    0.0000 H   0  0  0  0  0  0  0  0  0  0  0  0
    6.9326    0.1225    0.0000 H   0  0  0  0  0  0  0  0  0  0  0  0
    8.3615    0.9475    0.0000 H   0  0  0  0  0  0  0  0  0  0  0  0
    9.2881    1.4825    0.0000 H   0  0  0  0  0  0  0  0  0  0  0  0
    7.1447   -1.8450    0.0000 H   0  0  0  0  0  0  0  0  0  0  0  0
    7.0477   -1.5940    0.0000 H   0  0  0  0  0  0  0  0  0  0  0  0
    5.7158    1.7620    0.0000 H   0  0  0  0  0  0  0  0  0  0  0  0
   10.8426    2.9600    0.0000 H   0  0  0  0  0  0  0  0  0  0  0  0
   11.3126    0.8100    0.0000 H   0  0  0  0  0  0  0  0  0  0  0  0
  1 27  1  0  0  0  0
  1 28  1  0  0  0  0
  1 29  1  0  0  0  0
  2 30  1  0  0  0  0
  2 31  1  0  0  0  0
  2 32  1  0  0  0  0
  3 33  1  0  0  0  0
  3 34  1  0  0  0  0
  3 35  1  0  0  0  0
  4  1  1  0  0  0  0
  4 36  1  0  0  0  0
  4 37  1  0  0  0  0
  5 38  1  0  0  0  0
  6 39  1  0  0  0  0
  6 40  1  0  0  0  0
  7 41  1  0  0  0  0
  7 42  1  0  0  0  0
  8  2  1  0  0  0  0
  8  4  1  0  0  0  0
  8 25  1  6  0  0  0
  9  3  1  0  0  0  0
 10  5  1  0  0  0  0
 10  7  1  0  0  0  0
 11  6  1  0  0  0  0
 11 10  2  0  0  0  0
 12  8  1  0  0  0  0
 12 16  1  0  0  0  0
 12 26  1  1  0  0  0
 13  9  2  0  0  0  0
 13 11  1  0  0  0  0
 14 12  1  0  0  0  0
 15  5  2  0  0  0  0
 15  9  1  0  0  0  0
 16  6  1  0  0  0  0
 16 43  1  0  0  0  0
 17 13  1  0  0  0  0
 17 44  1  0  0  0  0
 18 14  2  0  0  0  0
 19 14  1  0  0  0  0
 19 45  1  0  0  0  0
 20 46  1  0  0  0  0
 21 47  1  0  0  0  0
 23  7  1  0  0  0  0
 24 20  1  0  0  0  0
 24 21  1  0  0  0  0
 24 22  2  0  0  0  0
 24 23  1  0  0  0  0
M  END
>  <DRUGBANK_ID>
DB02635

>  <SECONDARY_ACCESSION_NUMBERS>
EXPT01863

>  <COMMON_NAME>
N-[O-Phosphono-Pyridoxyl]-Isoleucine

$$$$
