
 OpenBabel10282417072D

 48 49  0  0  0  0  0  0  0  0999 V2000
    1.8819   -1.4437    0.0000 O   0  0  0  0  0  0  0  0  0  0  0  0
    0.3423   -0.2062    0.0000 O   0  0  0  0  0  0  0  0  0  0  0  0
    2.4049    0.5081    0.0000 O   0  0  0  0  0  0  0  0  0  0  0  0
   -0.2614    0.6187    0.0000 O   0  0  0  0  0  0  0  0  0  0  0  0
    2.4049   -0.9207    0.0000 O   0  0  0  0  0  0  0  0  0  0  0  0
    1.1674    3.0937    0.0000 O   0  0  0  0  0  0  0  0  0  0  0  0
    1.8819    1.8562    0.0000 O   0  0  0  0  0  0  0  0  0  0  0  0
   -0.9759   -2.2688    0.0000 O   0  0  0  0  0  0  0  0  0  0  0  0
   -0.2614   -3.5063    0.0000 O   0  0  0  0  0  0  0  0  0  0  0  0
   -2.4049    3.5063    0.0000 O   0  0  0  0  0  0  0  0  0  0  0  0
    1.1674    0.6187    0.0000 N   0  0  0  0  0  0  0  0  0  0  0  0
    0.4529   -1.4437    0.0000 N   0  0  0  0  0  0  0  0  0  0  0  0
    1.1674   -0.2062    0.0000 C   0  0  2  0  0  0  0  0  0  0  0  0
    1.1674   -1.0312    0.0000 C   0  0  1  0  0  0  0  0  0  0  0  0
    0.4529    1.8562    0.0000 C   0  0  2  0  0  0  0  0  0  0  0  0
    0.4529    1.0312    0.0000 C   0  0  0  0  0  0  0  0  0  0  0  0
    1.9923   -0.2062    0.0000 C   0  0  0  0  0  0  0  0  0  0  0  0
    1.8819   -2.2688    0.0000 C   0  0  0  0  0  0  0  0  0  0  0  0
    1.1674   -2.6812    0.0000 C   0  0  0  0  0  0  0  0  0  0  0  0
    0.4529   -2.2688    0.0000 C   0  0  0  0  0  0  0  0  0  0  0  0
   -0.2614    2.2688    0.0000 C   0  0  0  0  0  0  0  0  0  0  0  0
   -0.0700   -0.9207    0.0000 C   0  0  0  0  0  0  0  0  0  0  0  0
    1.1674    2.2688    0.0000 C   0  0  0  0  0  0  0  0  0  0  0  0
   -0.2614    3.0937    0.0000 C   0  0  0  0  0  0  0  0  0  0  0  0
   -0.9759    1.8562    0.0000 C   0  0  0  0  0  0  0  0  0  0  0  0
   -0.2614   -2.6812    0.0000 C   0  0  0  0  0  0  0  0  0  0  0  0
    1.1674   -3.5063    0.0000 C   0  0  0  0  0  0  0  0  0  0  0  0
   -0.9759    3.5063    0.0000 C   0  0  0  0  0  0  0  0  0  0  0  0
   -1.6904    2.2688    0.0000 C   0  0  0  0  0  0  0  0  0  0  0  0
   -1.6904    3.0937    0.0000 C   0  0  0  0  0  0  0  0  0  0  0  0
    1.7389   -0.7013    0.0000 H   0  0  0  0  0  0  0  0  0  0  0  0
    1.6104    0.8745    0.0000 H   0  0  0  0  0  0  0  0  0  0  0  0
    3.3419    0.5079    0.0000 H   0  0  0  0  0  0  0  0  0  0  0  0
    1.9789    3.5622    0.0000 H   0  0  0  0  0  0  0  0  0  0  0  0
   -0.9760   -1.3318    0.0000 H   0  0  0  0  0  0  0  0  0  0  0  0
   -2.4048    4.4433    0.0000 H   0  0  0  0  0  0  0  0  0  0  0  0
   -0.4738    1.3213    0.0000 H   0  0  0  0  0  0  0  0  0  0  0  0
    2.8085   -2.8039    0.0000 H   0  0  0  0  0  0  0  0  0  0  0  0
    1.8818   -3.3388    0.0000 H   0  0  0  0  0  0  0  0  0  0  0  0
   -1.1400   -0.9209    0.0000 H   0  0  0  0  0  0  0  0  0  0  0  0
    0.4652   -1.8472    0.0000 H   0  0  0  0  0  0  0  0  0  0  0  0
   -0.6048   -1.8475    0.0000 H   0  0  0  0  0  0  0  0  0  0  0  0
    0.6324    3.6097    0.0000 H   0  0  0  0  0  0  0  0  0  0  0  0
   -0.9759    0.8242    0.0000 H   0  0  0  0  0  0  0  0  0  0  0  0
    0.2737   -4.0223    0.0000 H   0  0  0  0  0  0  0  0  0  0  0  0
    2.0611   -4.0223    0.0000 H   0  0  0  0  0  0  0  0  0  0  0  0
   -0.9759    4.5383    0.0000 H   0  0  0  0  0  0  0  0  0  0  0  0
   -2.5842    1.7528    0.0000 H   0  0  0  0  0  0  0  0  0  0  0  0
  1 14  1  0  0  0  0
  1 18  1  0  0  0  0
  2 22  1  0  0  0  0
  3 17  1  0  0  0  0
  3 33  1  0  0  0  0
  4 16  2  0  0  0  0
  5 17  2  0  0  0  0
  6 23  1  0  0  0  0
  6 34  1  0  0  0  0
  7 23  2  0  0  0  0
  8 26  1  0  0  0  0
  8 35  1  0  0  0  0
  9 26  2  0  0  0  0
 10 30  1  0  0  0  0
 10 36  1  0  0  0  0
 11 16  1  0  0  0  0
 11 32  1  0  0  0  0
 12 14  1  0  0  0  0
 12 20  2  0  0  0  0
 13  2  1  1  0  0  0
 13 11  1  0  0  0  0
 13 14  1  0  0  0  0
 13 17  1  0  0  0  0
 14 31  1  6  0  0  0
 15 16  1  0  0  0  0
 15 21  1  0  0  0  0
 15 23  1  0  0  0  0
 15 37  1  1  0  0  0
 18 19  1  0  0  0  0
 18 38  1  0  0  0  0
 18 39  1  0  0  0  0
 19 20  1  0  0  0  0
 19 27  2  0  0  0  0
 20 26  1  0  0  0  0
 21 24  2  0  0  0  0
 21 25  1  0  0  0  0
 22 40  1  0  0  0  0
 22 41  1  0  0  0  0
 22 42  1  0  0  0  0
 24 28  1  0  0  0  0
 24 43  1  0  0  0  0
 25 29  2  0  0  0  0
 25 44  1  0  0  0  0
 27 45  1  0  0  0  0
 27 46  1  0  0  0  0
 28 30  2  0  0  0  0
 28 47  1  0  0  0  0
 29 30  1  0  0  0  0
 29 48  1  0  0  0  0
M  END
>  <DRUGBANK_ID>
DB04740

>  <COMMON_NAME>
Moxalactam (hydrolyzed)

$$$$
