CFQ
 OpenBabel10282417072D

 40 40  0  0  0  0  0  0  0  0999 V2000
   51.5794   30.5537    0.0000 As  0  3  0  0  0  0  0  0  0  0  0  0
   51.1669   31.2682    0.0000 C   0  0  0  0  0  0  0  0  0  0  0  0
   50.8650   30.1412    0.0000 C   0  0  0  0  0  0  0  0  0  0  0  0
   52.2939   30.9662    0.0000 C   0  0  0  0  0  0  0  0  0  0  0  0
   51.9919   29.8392    0.0000 C   0  0  0  0  0  0  0  0  0  0  0  0
   52.8169   29.8392    0.0000 C   0  0  0  0  0  0  0  0  0  0  0  0
   53.2294   29.1248    0.0000 O   0  0  0  0  0  0  0  0  0  0  0  0
   54.0544   29.1248    0.0000 C   0  0  2  0  0  0  0  0  0  0  0  0
   54.4669   29.8392    0.0000 C   0  0  0  0  0  0  0  0  0  0  0  0
   54.4669   28.4103    0.0000 C   0  0  0  0  0  0  0  0  0  0  0  0
   55.2919   28.4103    0.0000 C   0  0  0  0  0  0  0  0  0  0  0  0
   55.7044   27.6958    0.0000 C   0  0  0  0  0  0  0  0  0  0  0  0
   55.2919   26.9813    0.0000 C   0  0  0  0  0  0  0  0  0  0  0  0
   54.4669   26.9813    0.0000 C   0  0  0  0  0  0  0  0  0  0  0  0
   54.0544   27.6958    0.0000 C   0  0  0  0  0  0  0  0  0  0  0  0
   55.7044   29.1248    0.0000 N   0  3  0  0  0  0  0  0  0  0  0  0
   56.5294   29.1248    0.0000 O   0  0  0  0  0  0  0  0  0  0  0  0
   55.2919   29.8392    0.0000 O   0  0  0  0  0  0  0  0  0  0  0  0
   55.1814   29.4267    0.0000 F   0  0  0  0  0  0  0  0  0  0  0  0
   53.7525   30.2517    0.0000 F   0  0  0  0  0  0  0  0  0  0  0  0
   54.8794   30.5537    0.0000 F   0  0  0  0  0  0  0  0  0  0  0  0
   53.7625   29.6304    0.0000 H   0  0  0  0  0  0  0  0  0  0  0  0
   51.7019   32.1948    0.0000 H   0  0  0  0  0  0  0  0  0  0  0  0
   50.0969   31.2682    0.0000 H   0  0  0  0  0  0  0  0  0  0  0  0
   50.6319   32.1949    0.0000 H   0  0  0  0  0  0  0  0  0  0  0  0
   49.9383   30.6762    0.0000 H   0  0  0  0  0  0  0  0  0  0  0  0
   50.8650   29.0712    0.0000 H   0  0  0  0  0  0  0  0  0  0  0  0
   49.9384   29.6062    0.0000 H   0  0  0  0  0  0  0  0  0  0  0  0
   53.2205   30.4312    0.0000 H   0  0  0  0  0  0  0  0  0  0  0  0
   52.2939   32.0362    0.0000 H   0  0  0  0  0  0  0  0  0  0  0  0
   53.2206   31.5012    0.0000 H   0  0  0  0  0  0  0  0  0  0  0  0
   51.4569   28.9126    0.0000 H   0  0  0  0  0  0  0  0  0  0  0  0
   52.5269   28.9126    0.0000 H   0  0  0  0  0  0  0  0  0  0  0  0
   53.3519   30.7659    0.0000 H   0  0  0  0  0  0  0  0  0  0  0  0
   53.8869   29.8392    0.0000 H   0  0  0  0  0  0  0  0  0  0  0  0
   56.7364   27.6958    0.0000 H   0  0  0  0  0  0  0  0  0  0  0  0
   55.8079   26.0876    0.0000 H   0  0  0  0  0  0  0  0  0  0  0  0
   53.9509   26.0876    0.0000 H   0  0  0  0  0  0  0  0  0  0  0  0
   53.0224   27.6958    0.0000 H   0  0  0  0  0  0  0  0  0  0  0  0
   56.9979   28.3133    0.0000 H   0  0  0  0  0  0  0  0  0  0  0  0
  1  2  1  0  0  0  0
  1  3  1  0  0  0  0
  1  4  1  0  0  0  0
  1  5  1  0  0  0  0
  2 23  1  0  0  0  0
  2 24  1  0  0  0  0
  2 25  1  0  0  0  0
  3 26  1  0  0  0  0
  3 27  1  0  0  0  0
  3 28  1  0  0  0  0
  4 29  1  0  0  0  0
  4 30  1  0  0  0  0
  4 31  1  0  0  0  0
  5  6  1  0  0  0  0
  5 32  1  0  0  0  0
  5 33  1  0  0  0  0
  6  7  1  0  0  0  0
  6 34  1  0  0  0  0
  6 35  1  0  0  0  0
  8  7  1  0  0  0  0
  8  9  1  0  0  0  0
  8 10  1  0  0  0  0
  8 22  1  1  0  0  0
  9 19  1  0  0  0  0
  9 20  1  0  0  0  0
  9 21  1  0  0  0  0
 10 11  1  0  0  0  0
 10 15  2  0  0  0  0
 11 12  2  0  0  0  0
 11 16  1  0  0  0  0
 12 13  1  0  0  0  0
 12 36  1  0  0  0  0
 13 14  2  0  0  0  0
 13 37  1  0  0  0  0
 14 15  1  0  0  0  0
 14 38  1  0  0  0  0
 15 39  1  0  0  0  0
 16 17  1  0  0  0  0
 16 18  2  0  0  0  0
 17 40  1  0  0  0  0
M  CHG  2   1   1  16   1
M  END
>  <DRUGBANK_ID>
DB07555

>  <COMMON_NAME>
Hydroxy(oxo)(2-{(1S)-2,2,2-trifluoro-1-[2-(trimethylarsonio)ethoxy]ethyl}phenyl)ammonium

$$$$
