
 OpenBabel10282417072D

 43 42  0  0  0  0  0  0  0  0999 V2000
    2.8580    0.0000    0.0000 C   0  0  0  0  0  0  0  0  0  0  0  0
    2.1435   -0.4125    0.0000 C   0  0  0  0  0  0  0  0  0  0  0  0
    1.4290    0.0000    0.0000 C   0  0  0  0  0  0  0  0  0  0  0  0
    0.7145   -0.4125    0.0000 C   0  0  0  0  0  0  0  0  0  0  0  0
    0.0000    0.0000    0.0000 C   0  0  0  0  0  0  0  0  0  0  0  0
   -0.7145   -0.4125    0.0000 C   0  0  0  0  0  0  0  0  0  0  0  0
   -1.4290    0.0000    0.0000 C   0  0  0  0  0  0  0  0  0  0  0  0
   -2.1435   -0.4125    0.0000 C   0  0  0  0  0  0  0  0  0  0  0  0
   -2.8580    0.0000    0.0000 C   0  0  0  0  0  0  0  0  0  0  0  0
   -3.5725   -0.4125    0.0000 C   0  0  0  0  0  0  0  0  0  0  0  0
    3.5726   -0.4125    0.0000 O   0  0  0  0  0  0  0  0  0  0  0  0
   -4.2870    0.0000    0.0000 C   0  0  0  0  0  0  0  0  0  0  0  0
   -5.0016   -0.4125    0.0000 C   0  0  0  0  0  0  0  0  0  0  0  0
    4.2871    0.0000    0.0000 S   0  0  0  0  0  0  0  0  0  0  0  0
    3.8746    0.7145    0.0000 O   0  0  0  0  0  0  0  0  0  0  0  0
    5.0016    0.4125    0.0000 O   0  0  0  0  0  0  0  0  0  0  0  0
    4.6996   -0.7145    0.0000 O   0  0  0  0  0  0  0  0  0  0  0  0
    2.8580    1.0700    0.0000 H   0  0  0  0  0  0  0  0  0  0  0  0
    3.7846    0.5351    0.0000 H   0  0  0  0  0  0  0  0  0  0  0  0
    2.1435   -1.4825    0.0000 H   0  0  0  0  0  0  0  0  0  0  0  0
    1.2169   -0.9475    0.0000 H   0  0  0  0  0  0  0  0  0  0  0  0
    1.4290    1.0700    0.0000 H   0  0  0  0  0  0  0  0  0  0  0  0
    0.5024    0.5350    0.0000 H   0  0  0  0  0  0  0  0  0  0  0  0
    0.7145   -1.4825    0.0000 H   0  0  0  0  0  0  0  0  0  0  0  0
   -0.2121   -0.9475    0.0000 H   0  0  0  0  0  0  0  0  0  0  0  0
    0.0000    1.0700    0.0000 H   0  0  0  0  0  0  0  0  0  0  0  0
   -0.9266    0.5350    0.0000 H   0  0  0  0  0  0  0  0  0  0  0  0
   -0.7145   -1.4825    0.0000 H   0  0  0  0  0  0  0  0  0  0  0  0
   -1.6411   -0.9475    0.0000 H   0  0  0  0  0  0  0  0  0  0  0  0
   -1.4290    1.0700    0.0000 H   0  0  0  0  0  0  0  0  0  0  0  0
   -2.3556    0.5350    0.0000 H   0  0  0  0  0  0  0  0  0  0  0  0
   -2.1435   -1.4825    0.0000 H   0  0  0  0  0  0  0  0  0  0  0  0
   -3.0701   -0.9475    0.0000 H   0  0  0  0  0  0  0  0  0  0  0  0
   -2.8580    1.0700    0.0000 H   0  0  0  0  0  0  0  0  0  0  0  0
   -3.7846    0.5350    0.0000 H   0  0  0  0  0  0  0  0  0  0  0  0
   -3.5725   -1.4825    0.0000 H   0  0  0  0  0  0  0  0  0  0  0  0
   -4.4991   -0.9475    0.0000 H   0  0  0  0  0  0  0  0  0  0  0  0
   -4.2870    1.0700    0.0000 H   0  0  0  0  0  0  0  0  0  0  0  0
   -5.2136    0.5351    0.0000 H   0  0  0  0  0  0  0  0  0  0  0  0
   -5.9282    0.1226    0.0000 H   0  0  0  0  0  0  0  0  0  0  0  0
   -5.0017   -1.4825    0.0000 H   0  0  0  0  0  0  0  0  0  0  0  0
   -5.9283   -0.9474    0.0000 H   0  0  0  0  0  0  0  0  0  0  0  0
    4.2146   -1.5545    0.0000 H   0  0  0  0  0  0  0  0  0  0  0  0
  1  2  1  0  0  0  0
  1 11  1  0  0  0  0
  1 18  1  0  0  0  0
  1 19  1  0  0  0  0
  2  3  1  0  0  0  0
  2 20  1  0  0  0  0
  2 21  1  0  0  0  0
  3  4  1  0  0  0  0
  3 22  1  0  0  0  0
  3 23  1  0  0  0  0
  4  5  1  0  0  0  0
  4 24  1  0  0  0  0
  4 25  1  0  0  0  0
  5  6  1  0  0  0  0
  5 26  1  0  0  0  0
  5 27  1  0  0  0  0
  6  7  1  0  0  0  0
  6 28  1  0  0  0  0
  6 29  1  0  0  0  0
  7  8  1  0  0  0  0
  7 30  1  0  0  0  0
  7 31  1  0  0  0  0
  8  9  1  0  0  0  0
  8 32  1  0  0  0  0
  8 33  1  0  0  0  0
  9 10  1  0  0  0  0
  9 34  1  0  0  0  0
  9 35  1  0  0  0  0
 10 36  1  0  0  0  0
 10 37  1  0  0  0  0
 12 10  1  0  0  0  0
 12 38  1  0  0  0  0
 12 39  1  0  0  0  0
 13 12  1  0  0  0  0
 13 40  1  0  0  0  0
 13 41  1  0  0  0  0
 13 42  1  0  0  0  0
 14 11  1  0  0  0  0
 15 14  2  0  0  0  0
 16 14  2  0  0  0  0
 17 14  1  0  0  0  0
 17 43  1  0  0  0  0
M  END
>  <DRUGBANK_ID>
DB03967

>  <SECONDARY_ACCESSION_NUMBERS>
EXPT02877

>  <COMMON_NAME>
Dodecyl sulfate

>  <CAS_NUMBER>
151-41-7

>  <UNII>
DIQ16UC154

>  <SYNONYMS>
Dodecyl hydrogen sulfate; Dodecylsulfuric acid; Lauryl sulfate; Lauryl sulfuric acid; Lauryl sulphate; Monododecyl hydrogen sulfate; N-Dodecyl sulfate; Sulfuric acid, monododecyl ester

$$$$
