SU1
 OpenBabel10282417072D

 38 40  0  0  0  0  0  0  0  0999 V2000
    0.7922   -1.0894    0.0000 N   0  0  0  0  0  0  0  0  0  0  0  0
    0.3072   -0.4220    0.0000 C   0  0  0  0  0  0  0  0  0  0  0  0
   -0.5178   -0.4220    0.0000 O   0  0  0  0  0  0  0  0  0  0  0  0
    0.7922    0.2455    0.0000 C   0  0  0  0  0  0  0  0  0  0  0  0
    2.2913    0.4030    0.0000 C   0  0  0  0  0  0  0  0  0  0  0  0
    3.0057   -0.0095    0.0000 C   0  0  0  0  0  0  0  0  0  0  0  0
    3.0057   -0.8345    0.0000 C   0  0  0  0  0  0  0  0  0  0  0  0
    2.2913   -1.2470    0.0000 C   0  0  0  0  0  0  0  0  0  0  0  0
    1.5768   -0.8345    0.0000 C   0  0  0  0  0  0  0  0  0  0  0  0
    1.5768   -0.0095    0.0000 C   0  0  0  0  0  0  0  0  0  0  0  0
    0.5372    1.0301    0.0000 C   0  0  0  0  0  0  0  0  0  0  0  0
   -0.6053    1.9553    0.0000 N   0  0  0  0  0  0  0  0  0  0  0  0
   -0.2697    1.2016    0.0000 C   0  0  0  0  0  0  0  0  0  0  0  0
   -0.8828    0.6496    0.0000 C   0  0  0  0  0  0  0  0  0  0  0  0
   -1.5973    1.0621    0.0000 C   0  0  0  0  0  0  0  0  0  0  0  0
   -1.4258    1.8691    0.0000 C   0  0  0  0  0  0  0  0  0  0  0  0
   -2.3510    0.7265    0.0000 C   0  0  0  0  0  0  0  0  0  0  0  0
   -0.7966   -0.1709    0.0000 C   0  0  0  0  0  0  0  0  0  0  0  0
   -1.4640   -0.6558    0.0000 C   0  0  0  0  0  0  0  0  0  0  0  0
   -1.3778   -1.4763    0.0000 C   0  0  0  0  0  0  0  0  0  0  0  0
   -2.0452   -1.9612    0.0000 O   0  0  0  0  0  0  0  0  0  0  0  0
   -0.6241   -1.8119    0.0000 O   0  0  0  0  0  0  0  0  0  0  0  0
    0.4880   -2.0257    0.0000 H   0  0  0  0  0  0  0  0  0  0  0  0
    2.2913    1.4350    0.0000 H   0  0  0  0  0  0  0  0  0  0  0  0
    3.8994    0.5065    0.0000 H   0  0  0  0  0  0  0  0  0  0  0  0
    3.8994   -1.3505    0.0000 H   0  0  0  0  0  0  0  0  0  0  0  0
    2.2913   -2.2790    0.0000 H   0  0  0  0  0  0  0  0  0  0  0  0
    1.2277    1.7971    0.0000 H   0  0  0  0  0  0  0  0  0  0  0  0
   -0.1130    2.8079    0.0000 H   0  0  0  0  0  0  0  0  0  0  0  0
   -2.1163    2.6360    0.0000 H   0  0  0  0  0  0  0  0  0  0  0  0
   -3.2167    1.3554    0.0000 H   0  0  0  0  0  0  0  0  0  0  0  0
   -2.4628   -0.3376    0.0000 H   0  0  0  0  0  0  0  0  0  0  0  0
   -3.3285    0.2913    0.0000 H   0  0  0  0  0  0  0  0  0  0  0  0
    0.1809   -0.6061    0.0000 H   0  0  0  0  0  0  0  0  0  0  0  0
   -0.6848   -1.2350    0.0000 H   0  0  0  0  0  0  0  0  0  0  0  0
   -2.4415   -0.2206    0.0000 H   0  0  0  0  0  0  0  0  0  0  0  0
   -2.3297   -1.2847    0.0000 H   0  0  0  0  0  0  0  0  0  0  0  0
   -0.5262   -2.7438    0.0000 H   0  0  0  0  0  0  0  0  0  0  0  0
  1  2  1  0  0  0  0
  1  9  1  0  0  0  0
  1 23  1  0  0  0  0
  2  3  2  0  0  0  0
  2  4  1  0  0  0  0
  4 10  1  0  0  0  0
  4 11  2  0  0  0  0
  5  6  1  0  0  0  0
  5 10  2  0  0  0  0
  5 24  1  0  0  0  0
  6  7  2  0  0  0  0
  6 25  1  0  0  0  0
  7  8  1  0  0  0  0
  7 26  1  0  0  0  0
  8  9  2  0  0  0  0
  8 27  1  0  0  0  0
  9 10  1  0  0  0  0
 11 13  1  0  0  0  0
 11 28  1  0  0  0  0
 12 13  1  0  0  0  0
 12 16  1  0  0  0  0
 12 29  1  0  0  0  0
 13 14  2  0  0  0  0
 14 15  1  0  0  0  0
 14 18  1  0  0  0  0
 15 16  2  0  0  0  0
 15 17  1  0  0  0  0
 16 30  1  0  0  0  0
 17 31  1  0  0  0  0
 17 32  1  0  0  0  0
 17 33  1  0  0  0  0
 18 19  1  0  0  0  0
 18 34  1  0  0  0  0
 18 35  1  0  0  0  0
 19 20  1  0  0  0  0
 19 36  1  0  0  0  0
 19 37  1  0  0  0  0
 20 21  2  0  0  0  0
 20 22  1  0  0  0  0
 22 38  1  0  0  0  0
M  END
>  <DRUGBANK_ID>
DB08577

>  <COMMON_NAME>
3-[(3-(2-CARBOXYETHYL)-4-METHYLPYRROL-2-YL)METHYLENE]-2-INDOLINONE

$$$$
