
 OpenBabel10282417072D

 24 24  0  0  0  0  0  0  0  0999 V2000
   -0.3545    1.6498    0.0000 C   0  0  0  0  0  0  0  0  0  0  0  0
   -0.3545    0.8248    0.0000 C   0  0  1  0  0  0  0  0  0  0  0  0
    0.3573    0.4129    0.0000 N   0  0  0  0  0  0  0  0  0  0  0  0
    0.3573   -0.4121    0.0000 C   0  0  0  0  0  0  0  0  0  0  0  0
    1.0718   -0.8247    0.0000 N   0  0  0  0  0  0  0  0  0  0  0  0
    1.0718   -1.6498    0.0000 C   0  0  0  0  0  0  0  0  0  0  0  0
    1.7864   -0.4121    0.0000 C   0  0  0  0  0  0  0  0  0  0  0  0
   -0.3527   -0.8239    0.0000 N   0  0  0  0  0  0  0  0  0  0  0  0
   -1.0689   -0.4158    0.0000 C   0  0  0  0  0  0  0  0  0  0  0  0
   -1.7864   -0.8300    0.0000 N   0  0  0  0  0  0  0  0  0  0  0  0
   -1.0689    0.4125    0.0000 N   0  0  0  0  0  0  0  0  0  0  0  0
    0.5721    2.1848    0.0000 H   0  0  0  0  0  0  0  0  0  0  0  0
   -1.2811    2.1848    0.0000 H   0  0  0  0  0  0  0  0  0  0  0  0
   -0.3545    2.7198    0.0000 H   0  0  0  0  0  0  0  0  0  0  0  0
    0.5724    1.3593    0.0000 H   0  0  0  0  0  0  0  0  0  0  0  0
    0.1452   -2.1848    0.0000 H   0  0  0  0  0  0  0  0  0  0  0  0
    1.9984   -2.1848    0.0000 H   0  0  0  0  0  0  0  0  0  0  0  0
    1.0718   -2.7198    0.0000 H   0  0  0  0  0  0  0  0  0  0  0  0
    2.7131   -0.9471    0.0000 H   0  0  0  0  0  0  0  0  0  0  0  0
    1.7864    0.6579    0.0000 H   0  0  0  0  0  0  0  0  0  0  0  0
    2.7130    0.1229    0.0000 H   0  0  0  0  0  0  0  0  0  0  0  0
   -2.6390   -0.3377    0.0000 H   0  0  0  0  0  0  0  0  0  0  0  0
   -1.7865   -1.8145    0.0000 H   0  0  0  0  0  0  0  0  0  0  0  0
   -1.9215    0.9048    0.0000 H   0  0  0  0  0  0  0  0  0  0  0  0
  1 12  1  0  0  0  0
  1 13  1  0  0  0  0
  1 14  1  0  0  0  0
  2  1  1  0  0  0  0
  2 11  1  0  0  0  0
  2 15  1  6  0  0  0
  3  2  1  0  0  0  0
  4  3  2  0  0  0  0
  4  5  1  0  0  0  0
  5  6  1  0  0  0  0
  5  7  1  0  0  0  0
  6 16  1  0  0  0  0
  6 17  1  0  0  0  0
  6 18  1  0  0  0  0
  7 19  1  0  0  0  0
  7 20  1  0  0  0  0
  7 21  1  0  0  0  0
  8  4  1  0  0  0  0
  9  8  2  0  0  0  0
  9 10  1  0  0  0  0
 10 22  1  0  0  0  0
 10 23  1  0  0  0  0
 11  9  1  0  0  0  0
 11 24  1  0  0  0  0
M  END
>  <DRUGBANK_ID>
DB12509

>  <COMMON_NAME>
Imeglimin

>  <CAS_NUMBER>
775351-65-0

>  <UNII>
UU226QGU97

>  <SYNONYMS>
Imeglimin; Imeglimina; ImÃ©glimine; Imegliminum

$$$$
