IP6
 OpenBabel10282417072D

 42 45  0  0  0  0  0  0  0  0999 V2000
    2.9574   -1.2739    0.0000 N   0  0  0  0  0  0  0  0  0  0  0  0
    2.2430   -1.6864    0.0000 C   0  0  0  0  0  0  0  0  0  0  0  0
    2.2430   -2.5114    0.0000 N   0  0  0  0  0  0  0  0  0  0  0  0
    1.5285   -2.9239    0.0000 C   0  0  0  0  0  0  0  0  0  0  0  0
    0.8140   -2.5114    0.0000 C   0  0  0  0  0  0  0  0  0  0  0  0
    0.8140   -1.6864    0.0000 C   0  0  0  0  0  0  0  0  0  0  0  0
    1.5285   -1.2739    0.0000 C   0  0  0  0  0  0  0  0  0  0  0  0
    1.5285   -0.4489    0.0000 N   0  0  0  0  0  0  0  0  0  0  0  0
    0.8140   -0.0364    0.0000 C   0  0  0  0  0  0  0  0  0  0  0  0
    0.8140    0.7886    0.0000 C   0  0  0  0  0  0  0  0  0  0  0  0
    1.5285    1.2011    0.0000 C   0  0  0  0  0  0  0  0  0  0  0  0
    1.5285    2.0261    0.0000 C   0  0  0  0  0  0  0  0  0  0  0  0
    0.8140    2.4386    0.0000 C   0  0  0  0  0  0  0  0  0  0  0  0
    0.0996    2.0261    0.0000 C   0  0  0  0  0  0  0  0  0  0  0  0
    0.0996    1.2011    0.0000 C   0  0  0  0  0  0  0  0  0  0  0  0
   -0.6149    2.4386    0.0000 C   0  0  0  0  0  0  0  0  0  0  0  0
   -0.6149    3.2636    0.0000 C   0  0  0  0  0  0  0  0  0  0  0  0
   -1.3294    3.6761    0.0000 C   0  0  0  0  0  0  0  0  0  0  0  0
   -2.0439    3.2636    0.0000 C   0  0  0  0  0  0  0  0  0  0  0  0
   -2.8285    3.5185    0.0000 C   0  0  0  0  0  0  0  0  0  0  0  0
   -3.3134    2.8511    0.0000 C   0  0  0  0  0  0  0  0  0  0  0  0
   -2.8285    2.1836    0.0000 N   0  0  0  0  0  0  0  0  0  0  0  0
   -2.0439    2.4386    0.0000 C   0  0  0  0  0  0  0  0  0  0  0  0
   -1.3294    2.0261    0.0000 C   0  0  0  0  0  0  0  0  0  0  0  0
    3.8100   -1.7661    0.0000 H   0  0  0  0  0  0  0  0  0  0  0  0
    2.9574   -0.2894    0.0000 H   0  0  0  0  0  0  0  0  0  0  0  0
    1.5285   -3.9559    0.0000 H   0  0  0  0  0  0  0  0  0  0  0  0
   -0.0797   -3.0274    0.0000 H   0  0  0  0  0  0  0  0  0  0  0  0
   -0.0797   -1.1704    0.0000 H   0  0  0  0  0  0  0  0  0  0  0  0
    2.3811    0.0434    0.0000 H   0  0  0  0  0  0  0  0  0  0  0  0
   -0.1126   -0.5714    0.0000 H   0  0  0  0  0  0  0  0  0  0  0  0
   -0.1126    0.4986    0.0000 H   0  0  0  0  0  0  0  0  0  0  0  0
    2.4222    0.6851    0.0000 H   0  0  0  0  0  0  0  0  0  0  0  0
    2.4222    2.5421    0.0000 H   0  0  0  0  0  0  0  0  0  0  0  0
    0.8140    3.4706    0.0000 H   0  0  0  0  0  0  0  0  0  0  0  0
   -0.7941    0.6851    0.0000 H   0  0  0  0  0  0  0  0  0  0  0  0
    0.2788    3.7796    0.0000 H   0  0  0  0  0  0  0  0  0  0  0  0
   -1.3294    4.7081    0.0000 H   0  0  0  0  0  0  0  0  0  0  0  0
   -3.1474    4.5000    0.0000 H   0  0  0  0  0  0  0  0  0  0  0  0
   -4.3454    2.8511    0.0000 H   0  0  0  0  0  0  0  0  0  0  0  0
   -3.1327    1.2473    0.0000 H   0  0  0  0  0  0  0  0  0  0  0  0
   -1.3294    0.9941    0.0000 H   0  0  0  0  0  0  0  0  0  0  0  0
  1  2  1  0  0  0  0
  1 25  1  0  0  0  0
  1 26  1  0  0  0  0
  2  3  2  0  0  0  0
  2  7  1  0  0  0  0
  3  4  1  0  0  0  0
  4  5  2  0  0  0  0
  4 27  1  0  0  0  0
  5  6  1  0  0  0  0
  5 28  1  0  0  0  0
  6  7  2  0  0  0  0
  6 29  1  0  0  0  0
  7  8  1  0  0  0  0
  8  9  1  0  0  0  0
  8 30  1  0  0  0  0
  9 10  1  0  0  0  0
  9 31  1  0  0  0  0
  9 32  1  0  0  0  0
 10 15  1  0  0  0  0
 10 11  2  0  0  0  0
 11 12  1  0  0  0  0
 11 33  1  0  0  0  0
 12 13  2  0  0  0  0
 12 34  1  0  0  0  0
 13 14  1  0  0  0  0
 13 35  1  0  0  0  0
 14 16  1  0  0  0  0
 14 15  2  0  0  0  0
 15 36  1  0  0  0  0
 16 24  2  0  0  0  0
 16 17  1  0  0  0  0
 17 18  2  0  0  0  0
 17 37  1  0  0  0  0
 18 19  1  0  0  0  0
 18 38  1  0  0  0  0
 19 20  1  0  0  0  0
 19 23  2  0  0  0  0
 20 21  2  0  0  0  0
 20 39  1  0  0  0  0
 21 22  1  0  0  0  0
 21 40  1  0  0  0  0
 22 23  1  0  0  0  0
 22 41  1  0  0  0  0
 23 24  1  0  0  0  0
 24 42  1  0  0  0  0
M  END
>  <DRUGBANK_ID>
DB07993

>  <COMMON_NAME>
N~3~-[3-(1H-INDOL-6-YL)BENZYL]PYRIDINE-2,3-DIAMINE

$$$$
