L11
 OpenBabel10282417072D

 56 59  0  0  0  0  0  0  0  0999 V2000
    1.8919    3.6672    0.0000 Cl  0  0  0  0  0  0  0  0  0  0  0  0
    1.8919    2.8422    0.0000 C   0  0  0  0  0  0  0  0  0  0  0  0
    2.6064    2.4297    0.0000 C   0  0  0  0  0  0  0  0  0  0  0  0
    2.6064    1.6047    0.0000 C   0  0  0  0  0  0  0  0  0  0  0  0
    1.1775    2.4297    0.0000 C   0  0  0  0  0  0  0  0  0  0  0  0
    0.4630    2.8422    0.0000 C   0  0  0  0  0  0  0  0  0  0  0  0
    0.4630    3.6672    0.0000 O   0  0  0  0  0  0  0  0  0  0  0  0
   -0.2515    4.0797    0.0000 C   0  0  0  0  0  0  0  0  0  0  0  0
   -0.9660    3.6672    0.0000 C   0  0  0  0  0  0  0  0  0  0  0  0
   -1.6804    4.0797    0.0000 N   0  0  0  0  0  0  0  0  0  0  0  0
   -1.6804    4.9047    0.0000 C   0  0  0  0  0  0  0  0  0  0  0  0
   -0.9660    5.3172    0.0000 C   0  0  0  0  0  0  0  0  0  0  0  0
   -0.2515    4.9047    0.0000 C   0  0  0  0  0  0  0  0  0  0  0  0
    1.1775    1.6047    0.0000 C   0  0  0  0  0  0  0  0  0  0  0  0
    1.8919    1.1922    0.0000 C   0  0  0  0  0  0  0  0  0  0  0  0
    1.8919    0.3672    0.0000 N   0  0  0  0  0  0  0  0  0  0  0  0
    1.1775   -0.0453    0.0000 C   0  0  0  0  0  0  0  0  0  0  0  0
    0.4630    0.3672    0.0000 O   0  0  0  0  0  0  0  0  0  0  0  0
    1.1775   -0.8703    0.0000 C   0  0  0  0  0  0  0  0  0  0  0  0
    1.8919   -1.2828    0.0000 C   0  0  0  0  0  0  0  0  0  0  0  0
    1.8919   -2.1078    0.0000 C   0  0  2  0  0  0  0  0  0  0  0  0
    2.6064   -2.5203    0.0000 F   0  0  0  0  0  0  0  0  0  0  0  0
    0.4630   -1.2828    0.0000 C   0  0  0  0  0  0  0  0  0  0  0  0
    0.4630   -2.1078    0.0000 C   0  0  1  0  0  0  0  0  0  0  0  0
    1.1775   -2.5203    0.0000 C   0  0  0  0  0  0  0  0  0  0  0  0
   -0.2515   -2.5203    0.0000 N   0  0  0  0  0  0  0  0  0  0  0  0
   -0.2515   -3.3453    0.0000 C   0  0  0  0  0  0  0  0  0  0  0  0
   -0.9660   -3.7578    0.0000 C   0  0  0  0  0  0  0  0  0  0  0  0
   -1.6804   -3.3453    0.0000 O   0  0  0  0  0  0  0  0  0  0  0  0
   -1.6804   -2.5203    0.0000 C   0  0  0  0  0  0  0  0  0  0  0  0
   -0.9660   -2.1078    0.0000 C   0  0  0  0  0  0  0  0  0  0  0  0
    2.3976   -1.8159    0.0000 H   0  0  0  0  0  0  0  0  0  0  0  0
   -0.0427   -1.8159    0.0000 H   0  0  0  0  0  0  0  0  0  0  0  0
    3.5001    2.9457    0.0000 H   0  0  0  0  0  0  0  0  0  0  0  0
    3.5001    1.0887    0.0000 H   0  0  0  0  0  0  0  0  0  0  0  0
   -0.4636    2.3072    0.0000 H   0  0  0  0  0  0  0  0  0  0  0  0
   -0.4636    3.3772    0.0000 H   0  0  0  0  0  0  0  0  0  0  0  0
   -0.9660    2.6352    0.0000 H   0  0  0  0  0  0  0  0  0  0  0  0
   -2.5741    5.4207    0.0000 H   0  0  0  0  0  0  0  0  0  0  0  0
   -0.9660    6.3492    0.0000 H   0  0  0  0  0  0  0  0  0  0  0  0
    0.6422    5.4207    0.0000 H   0  0  0  0  0  0  0  0  0  0  0  0
    0.2838    1.0887    0.0000 H   0  0  0  0  0  0  0  0  0  0  0  0
    2.7445   -0.1250    0.0000 H   0  0  0  0  0  0  0  0  0  0  0  0
    2.7856   -0.7668    0.0000 H   0  0  0  0  0  0  0  0  0  0  0  0
   -0.4636   -0.7478    0.0000 H   0  0  0  0  0  0  0  0  0  0  0  0
   -0.4636   -1.8178    0.0000 H   0  0  0  0  0  0  0  0  0  0  0  0
    1.1775   -3.5903    0.0000 H   0  0  0  0  0  0  0  0  0  0  0  0
    0.2509   -3.0553    0.0000 H   0  0  0  0  0  0  0  0  0  0  0  0
    0.6751   -3.8803    0.0000 H   0  0  0  0  0  0  0  0  0  0  0  0
   -0.2515   -4.4153    0.0000 H   0  0  0  0  0  0  0  0  0  0  0  0
   -0.9660   -4.8278    0.0000 H   0  0  0  0  0  0  0  0  0  0  0  0
   -1.8927   -4.2928    0.0000 H   0  0  0  0  0  0  0  0  0  0  0  0
   -2.6071   -1.9853    0.0000 H   0  0  0  0  0  0  0  0  0  0  0  0
   -1.6804   -1.4503    0.0000 H   0  0  0  0  0  0  0  0  0  0  0  0
   -0.9660   -1.0378    0.0000 H   0  0  0  0  0  0  0  0  0  0  0  0
   -1.8927   -1.5728    0.0000 H   0  0  0  0  0  0  0  0  0  0  0  0
  1  2  1  0  0  0  0
  2  3  2  0  0  0  0
  2  5  1  0  0  0  0
  3  4  1  0  0  0  0
  3 34  1  0  0  0  0
  4 15  2  0  0  0  0
  4 35  1  0  0  0  0
  5  6  1  0  0  0  0
  5 14  2  0  0  0  0
  6  7  1  0  0  0  0
  6 36  1  0  0  0  0
  6 37  1  0  0  0  0
  7  8  1  0  0  0  0
  8  9  2  0  0  0  0
  8 13  1  0  0  0  0
  9 10  1  0  0  0  0
  9 38  1  0  0  0  0
 10 11  2  0  0  0  0
 11 12  1  0  0  0  0
 11 39  1  0  0  0  0
 12 13  2  0  0  0  0
 12 40  1  0  0  0  0
 13 41  1  0  0  0  0
 14 15  1  0  0  0  0
 14 42  1  0  0  0  0
 15 16  1  0  0  0  0
 16 17  1  0  0  0  0
 16 43  1  0  0  0  0
 17 18  2  0  0  0  0
 17 19  1  0  0  0  0
 19 20  2  0  0  0  0
 19 23  1  0  0  0  0
 20 21  1  0  0  0  0
 20 44  1  0  0  0  0
 21 22  1  0  0  0  0
 21 25  1  0  0  0  0
 21 32  1  1  0  0  0
 23 24  1  0  0  0  0
 23 45  1  0  0  0  0
 23 46  1  0  0  0  0
 24 25  1  0  0  0  0
 24 26  1  0  0  0  0
 24 33  1  6  0  0  0
 25 47  1  0  0  0  0
 25 48  1  0  0  0  0
 26 27  1  0  0  0  0
 26 31  1  0  0  0  0
 27 28  1  0  0  0  0
 27 49  1  0  0  0  0
 27 50  1  0  0  0  0
 28 29  1  0  0  0  0
 28 51  1  0  0  0  0
 28 52  1  0  0  0  0
 29 30  1  0  0  0  0
 30 31  1  0  0  0  0
 30 53  1  0  0  0  0
 30 54  1  0  0  0  0
 31 55  1  0  0  0  0
 31 56  1  0  0  0  0
M  END
>  <DRUGBANK_ID>
DB08068

>  <COMMON_NAME>
N-[4-CHLORO-3-(PYRIDIN-3-YLOXYMETHYL)-PHENYL]-3-FLUORO-

$$$$
