
 OpenBabel10282417072D

 33 34  0  0  0  0  0  0  0  0999 V2000
   -1.4266    1.2344    0.0000 N   0  0  0  0  0  0  0  0  0  0  0  0
   -1.4266    0.4129    0.0000 C   0  0  0  0  0  0  0  0  0  0  0  0
   -2.1376    0.0024    0.0000 N   0  0  0  0  0  0  0  0  0  0  0  0
   -2.1376   -0.8236    0.0000 C   0  0  0  0  0  0  0  0  0  0  0  0
   -2.8532   -1.2343    0.0000 N   0  0  0  0  0  0  0  0  0  0  0  0
   -1.4266   -1.2343    0.0000 N   0  0  0  0  0  0  0  0  0  0  0  0
   -0.7110   -0.8236    0.0000 C   0  0  0  0  0  0  0  0  0  0  0  0
    0.0000   -1.2343    0.0000 N   0  0  0  0  0  0  0  0  0  0  0  0
    0.7155   -0.8236    0.0000 C   0  0  0  0  0  0  0  0  0  0  0  0
    0.7155    0.0024    0.0000 C   0  0  2  0  0  0  0  0  0  0  0  0
    1.4265    0.4129    0.0000 C   0  0  1  0  0  0  0  0  0  0  0  0
    1.4265    1.2344    0.0000 O   0  0  0  0  0  0  0  0  0  0  0  0
    2.1421    0.0024    0.0000 C   0  0  2  0  0  0  0  0  0  0  0  0
    2.1421   -0.8236    0.0000 C   0  0  0  0  0  0  0  0  0  0  0  0
    2.8532    0.4129    0.0000 O   0  0  0  0  0  0  0  0  0  0  0  0
    0.0000    0.4129    0.0000 N   0  0  0  0  0  0  0  0  0  0  0  0
   -0.7110    0.0024    0.0000 C   0  0  0  0  0  0  0  0  0  0  0  0
    0.7155    0.8236    0.0000 H   0  0  0  0  0  0  0  0  0  0  0  0
   -0.5740    1.7267    0.0000 H   0  0  0  0  0  0  0  0  0  0  0  0
   -2.2792    1.7266    0.0000 H   0  0  0  0  0  0  0  0  0  0  0  0
   -3.7045   -0.7399    0.0000 H   0  0  0  0  0  0  0  0  0  0  0  0
   -2.8557   -2.2188    0.0000 H   0  0  0  0  0  0  0  0  0  0  0  0
   -0.0013   -2.2188    0.0000 H   0  0  0  0  0  0  0  0  0  0  0  0
    1.6415   -1.3598    0.0000 H   0  0  0  0  0  0  0  0  0  0  0  0
    1.6425   -0.2892    0.0000 H   0  0  0  0  0  0  0  0  0  0  0  0
    0.4999    0.9479    0.0000 H   0  0  0  0  0  0  0  0  0  0  0  0
    2.2665    1.7194    0.0000 H   0  0  0  0  0  0  0  0  0  0  0  0
    2.1406    1.0724    0.0000 H   0  0  0  0  0  0  0  0  0  0  0  0
    1.2155   -1.3586    0.0000 H   0  0  0  0  0  0  0  0  0  0  0  0
    3.0687   -1.3586    0.0000 H   0  0  0  0  0  0  0  0  0  0  0  0
    2.1421   -1.8936    0.0000 H   0  0  0  0  0  0  0  0  0  0  0  0
    3.6932   -0.0721    0.0000 H   0  0  0  0  0  0  0  0  0  0  0  0
   -0.0013    1.3974    0.0000 H   0  0  0  0  0  0  0  0  0  0  0  0
  1  2  1  0  0  0  0
  1 19  1  0  0  0  0
  1 20  1  0  0  0  0
  2  3  2  0  0  0  0
  2 17  1  0  0  0  0
  3  4  1  0  0  0  0
  4  5  1  0  0  0  0
  4  6  2  0  0  0  0
  5 21  1  0  0  0  0
  5 22  1  0  0  0  0
  7  6  1  0  0  0  0
  7  8  1  0  0  0  0
  8  9  1  0  0  0  0
  8 23  1  0  0  0  0
  9 24  1  0  0  0  0
  9 25  1  0  0  0  0
 10  9  1  0  0  0  0
 10 11  1  0  0  0  0
 10 18  1  6  0  0  0
 11 12  1  0  0  0  0
 11 13  1  0  0  0  0
 11 26  1  6  0  0  0
 12 27  1  0  0  0  0
 13 14  1  0  0  0  0
 13 15  1  0  0  0  0
 13 28  1  6  0  0  0
 14 29  1  0  0  0  0
 14 30  1  0  0  0  0
 14 31  1  0  0  0  0
 15 32  1  0  0  0  0
 16 10  1  0  0  0  0
 16 33  1  0  0  0  0
 17 16  1  0  0  0  0
 17  7  2  0  0  0  0
M  END
>  <DRUGBANK_ID>
DB12575

>  <COMMON_NAME>
Ronopterin

>  <CAS_NUMBER>
185243-78-1

>  <UNII>
1D1Z87AY23

>  <SYNONYMS>
Ronopterin

$$$$
