
 OpenBabel10282417072D

 35 34  0  0  0  0  0  0  0  0999 V2000
    0.7215    1.4482    0.0000 C   0  0  0  0  0  0  0  0  0  0  0  0
   -0.7166    1.4482    0.0000 C   0  0  0  0  0  0  0  0  0  0  0  0
    0.0025    1.0437    0.0000 C   0  0  1  0  0  0  0  0  0  0  0  0
    1.4408   -1.4433    0.0000 C   0  0  0  0  0  0  0  0  0  0  0  0
    0.7215    2.2772    0.0000 O   0  0  0  0  0  0  0  0  0  0  0  0
    1.4408   -2.2772    0.0000 O   0  0  0  0  0  0  0  0  0  0  0  0
    1.4408    1.0437    0.0000 N   0  0  0  0  0  0  0  0  0  0  0  0
   -2.1499    1.4482    0.0000 O   0  0  0  0  0  0  0  0  0  0  0  0
   -1.4308    1.0437    0.0000 C   0  0  0  0  0  0  0  0  0  0  0  0
    0.7215   -1.0388    0.0000 O   0  0  0  0  0  0  0  0  0  0  0  0
    0.0025    0.2046    0.0000 O   0  0  0  0  0  0  0  0  0  0  0  0
   -1.1011    2.1425    0.0000 C   0  0  0  0  0  0  0  0  0  0  0  0
   -0.1572    2.1375    0.0000 C   0  0  0  0  0  0  0  0  0  0  0  0
    2.1499   -1.0388    0.0000 C   0  0  0  0  0  0  0  0  0  0  0  0
    1.4408    0.2046    0.0000 C   0  0  0  0  0  0  0  0  0  0  0  0
    2.1499   -0.2096    0.0000 C   0  0  0  0  0  0  0  0  0  0  0  0
   -0.9211    0.5035    0.0000 H   0  0  0  0  0  0  0  0  0  0  0  0
    2.2906    1.5408    0.0000 H   0  0  0  0  0  0  0  0  0  0  0  0
   -2.1608    2.4181    0.0000 H   0  0  0  0  0  0  0  0  0  0  0  0
   -1.4292   -0.0263    0.0000 H   0  0  0  0  0  0  0  0  0  0  0  0
   -0.5060    0.5055    0.0000 H   0  0  0  0  0  0  0  0  0  0  0  0
    0.7109   -0.1019    0.0000 H   0  0  0  0  0  0  0  0  0  0  0  0
   -0.8375   -0.2804    0.0000 H   0  0  0  0  0  0  0  0  0  0  0  0
   -0.5496    3.0595    0.0000 H   0  0  0  0  0  0  0  0  0  0  0  0
   -2.1709    2.1616    0.0000 H   0  0  0  0  0  0  0  0  0  0  0  0
   -1.6195    3.0785    0.0000 H   0  0  0  0  0  0  0  0  0  0  0  0
    0.8994    1.9690    0.0000 H   0  0  0  0  0  0  0  0  0  0  0  0
   -0.5396    3.1368    0.0000 H   0  0  0  0  0  0  0  0  0  0  0  0
    0.5171    2.9683    0.0000 H   0  0  0  0  0  0  0  0  0  0  0  0
    3.0752   -1.5762    0.0000 H   0  0  0  0  0  0  0  0  0  0  0  0
    3.0772   -0.5050    0.0000 H   0  0  0  0  0  0  0  0  0  0  0  0
    0.5128   -0.3281    0.0000 H   0  0  0  0  0  0  0  0  0  0  0  0
    1.4367   -0.8654    0.0000 H   0  0  0  0  0  0  0  0  0  0  0  0
    3.0779    0.3231    0.0000 H   0  0  0  0  0  0  0  0  0  0  0  0
    2.1540    0.8604    0.0000 H   0  0  0  0  0  0  0  0  0  0  0  0
  2  3  1  0  0  0  0
  3  1  1  0  0  0  0
  3 11  1  0  0  0  0
  3 17  1  1  0  0  0
  4 14  1  0  0  0  0
  5  1  2  0  0  0  0
  6  4  2  0  0  0  0
  7  1  1  0  0  0  0
  7 18  1  0  0  0  0
  8  9  1  0  0  0  0
  8 19  1  0  0  0  0
  9  2  1  0  0  0  0
  9 20  1  0  0  0  0
  9 21  1  0  0  0  0
 10  4  1  0  0  0  0
 10 22  1  0  0  0  0
 11 23  1  0  0  0  0
 12  2  1  0  0  0  0
 12 24  1  0  0  0  0
 12 25  1  0  0  0  0
 12 26  1  0  0  0  0
 13  2  1  0  0  0  0
 13 27  1  0  0  0  0
 13 28  1  0  0  0  0
 13 29  1  0  0  0  0
 14 16  1  0  0  0  0
 14 30  1  0  0  0  0
 14 31  1  0  0  0  0
 15  7  1  0  0  0  0
 15 32  1  0  0  0  0
 15 33  1  0  0  0  0
 16 15  1  0  0  0  0
 16 34  1  0  0  0  0
 16 35  1  0  0  0  0
M  END
>  <DRUGBANK_ID>
DB14044

>  <COMMON_NAME>
Hopantenic acid

>  <CAS_NUMBER>
18679-90-8

>  <UNII>
H473MVB16U

>  <SYNONYMS>
Acide hopantenique; Acido hopantenico; Acidum hopantenicum; D-Homopantothenic acid; Hopantenic acid; Hopanteninsaeure; N-pantoyl-GABA; Pantocalcin

$$$$
