
 OpenBabel10282417072D

 60 62  0  0  0  0  0  0  0  0999 V2000
   -3.2151    0.8249    0.0000 C   0  0  0  0  0  0  0  0  0  0  0  0
   -3.9296    0.4124    0.0000 C   0  0  0  0  0  0  0  0  0  0  0  0
   -3.9296   -0.4125    0.0000 C   0  0  0  0  0  0  0  0  0  0  0  0
   -3.2151   -0.8250    0.0000 C   0  0  0  0  0  0  0  0  0  0  0  0
   -2.5006   -0.4125    0.0000 C   0  0  0  0  0  0  0  0  0  0  0  0
   -2.5006    0.4124    0.0000 C   0  0  0  0  0  0  0  0  0  0  0  0
   -1.7861    0.8249    0.0000 C   0  0  0  0  0  0  0  0  0  0  0  0
   -1.7861   -0.8250    0.0000 C   0  0  0  0  0  0  0  0  0  0  0  0
   -1.0716   -0.4125    0.0000 C   0  0  0  0  0  0  0  0  0  0  0  0
   -1.0716    0.4124    0.0000 C   0  0  0  0  0  0  0  0  0  0  0  0
   -0.3572    0.8249    0.0000 C   0  0  0  0  0  0  0  0  0  0  0  0
   -0.3572   -0.8250    0.0000 C   0  0  0  0  0  0  0  0  0  0  0  0
    0.3572   -0.4125    0.0000 C   0  0  0  0  0  0  0  0  0  0  0  0
    0.3572    0.4124    0.0000 C   0  0  0  0  0  0  0  0  0  0  0  0
   -3.2151    1.6499    0.0000 O   0  0  0  0  0  0  0  0  0  0  0  0
   -3.2151   -1.6500    0.0000 O   0  0  0  0  0  0  0  0  0  0  0  0
   -1.7861    1.6499    0.0000 O   0  0  0  0  0  0  0  0  0  0  0  0
   -1.7861   -1.6500    0.0000 O   0  0  0  0  0  0  0  0  0  0  0  0
   -0.3572    1.6499    0.0000 N   0  0  0  0  0  0  0  0  0  0  0  0
   -0.3572   -1.6500    0.0000 N   0  0  0  0  0  0  0  0  0  0  0  0
    0.3572    2.0624    0.0000 C   0  0  0  0  0  0  0  0  0  0  0  0
    1.0717    1.6499    0.0000 C   0  0  0  0  0  0  0  0  0  0  0  0
    0.3572   -2.0625    0.0000 C   0  0  0  0  0  0  0  0  0  0  0  0
    1.0717   -1.6500    0.0000 C   0  0  0  0  0  0  0  0  0  0  0  0
    1.7862    2.0624    0.0000 N   0  0  0  0  0  0  0  0  0  0  0  0
    1.7862   -2.0625    0.0000 N   0  0  0  0  0  0  0  0  0  0  0  0
    2.5007    1.6499    0.0000 C   0  0  0  0  0  0  0  0  0  0  0  0
    3.2150    2.0624    0.0000 C   0  0  0  0  0  0  0  0  0  0  0  0
    2.5007   -1.6500    0.0000 C   0  0  0  0  0  0  0  0  0  0  0  0
    3.2150   -2.0625    0.0000 C   0  0  0  0  0  0  0  0  0  0  0  0
    3.9296    1.6499    0.0000 O   0  0  0  0  0  0  0  0  0  0  0  0
    3.9296   -1.6500    0.0000 O   0  0  0  0  0  0  0  0  0  0  0  0
   -4.8233    0.9284    0.0000 H   0  0  0  0  0  0  0  0  0  0  0  0
   -4.8233   -0.9285    0.0000 H   0  0  0  0  0  0  0  0  0  0  0  0
    1.2509   -0.9285    0.0000 H   0  0  0  0  0  0  0  0  0  0  0  0
    1.2509    0.9284    0.0000 H   0  0  0  0  0  0  0  0  0  0  0  0
   -2.4036    2.1184    0.0000 H   0  0  0  0  0  0  0  0  0  0  0  0
   -4.0266   -2.1185    0.0000 H   0  0  0  0  0  0  0  0  0  0  0  0
   -1.2098    2.1421    0.0000 H   0  0  0  0  0  0  0  0  0  0  0  0
   -1.2098   -2.1422    0.0000 H   0  0  0  0  0  0  0  0  0  0  0  0
    0.3572    3.1324    0.0000 H   0  0  0  0  0  0  0  0  0  0  0  0
    1.2838    2.5974    0.0000 H   0  0  0  0  0  0  0  0  0  0  0  0
    1.0717    0.5799    0.0000 H   0  0  0  0  0  0  0  0  0  0  0  0
    1.9983    1.1149    0.0000 H   0  0  0  0  0  0  0  0  0  0  0  0
    0.3572   -3.1325    0.0000 H   0  0  0  0  0  0  0  0  0  0  0  0
    1.2838   -2.5975    0.0000 H   0  0  0  0  0  0  0  0  0  0  0  0
    1.0717   -0.5800    0.0000 H   0  0  0  0  0  0  0  0  0  0  0  0
    1.9983   -1.1150    0.0000 H   0  0  0  0  0  0  0  0  0  0  0  0
    1.7862    3.0824    0.0000 H   0  0  0  0  0  0  0  0  0  0  0  0
    1.7862   -3.0825    0.0000 H   0  0  0  0  0  0  0  0  0  0  0  0
    2.5008    0.5799    0.0000 H   0  0  0  0  0  0  0  0  0  0  0  0
    3.4274    1.1150    0.0000 H   0  0  0  0  0  0  0  0  0  0  0  0
    3.2149    3.1324    0.0000 H   0  0  0  0  0  0  0  0  0  0  0  0
    4.1416    2.5975    0.0000 H   0  0  0  0  0  0  0  0  0  0  0  0
    2.5008   -0.5800    0.0000 H   0  0  0  0  0  0  0  0  0  0  0  0
    3.4274   -1.1151    0.0000 H   0  0  0  0  0  0  0  0  0  0  0  0
    3.2149   -3.1325    0.0000 H   0  0  0  0  0  0  0  0  0  0  0  0
    4.1416   -2.5976    0.0000 H   0  0  0  0  0  0  0  0  0  0  0  0
    3.9297    0.6799    0.0000 H   0  0  0  0  0  0  0  0  0  0  0  0
    4.7696   -2.1351    0.0000 H   0  0  0  0  0  0  0  0  0  0  0  0
  1  2  2  0  0  0  0
  1  6  1  0  0  0  0
  1 15  1  0  0  0  0
  2  3  1  0  0  0  0
  2 33  1  0  0  0  0
  3  4  2  0  0  0  0
  3 34  1  0  0  0  0
  4  5  1  0  0  0  0
  4 16  1  0  0  0  0
  5  8  1  0  0  0  0
  6  5  2  0  0  0  0
  7  6  1  0  0  0  0
  7 10  1  0  0  0  0
  7 17  2  0  0  0  0
  8  9  1  0  0  0  0
  8 18  2  0  0  0  0
  9 12  1  0  0  0  0
 10  9  2  0  0  0  0
 11 10  1  0  0  0  0
 11 14  2  0  0  0  0
 11 19  1  0  0  0  0
 12 13  2  0  0  0  0
 12 20  1  0  0  0  0
 13 14  1  0  0  0  0
 13 35  1  0  0  0  0
 14 36  1  0  0  0  0
 15 37  1  0  0  0  0
 16 38  1  0  0  0  0
 19 21  1  0  0  0  0
 19 39  1  0  0  0  0
 20 23  1  0  0  0  0
 20 40  1  0  0  0  0
 21 22  1  0  0  0  0
 21 41  1  0  0  0  0
 21 42  1  0  0  0  0
 22 25  1  0  0  0  0
 22 43  1  0  0  0  0
 22 44  1  0  0  0  0
 23 24  1  0  0  0  0
 23 45  1  0  0  0  0
 23 46  1  0  0  0  0
 24 26  1  0  0  0  0
 24 47  1  0  0  0  0
 24 48  1  0  0  0  0
 25 27  1  0  0  0  0
 25 49  1  0  0  0  0
 26 29  1  0  0  0  0
 26 50  1  0  0  0  0
 27 28  1  0  0  0  0
 27 51  1  0  0  0  0
 27 52  1  0  0  0  0
 28 31  1  0  0  0  0
 28 53  1  0  0  0  0
 28 54  1  0  0  0  0
 29 30  1  0  0  0  0
 29 55  1  0  0  0  0
 29 56  1  0  0  0  0
 30 32  1  0  0  0  0
 30 57  1  0  0  0  0
 30 58  1  0  0  0  0
 31 59  1  0  0  0  0
 32 60  1  0  0  0  0
M  END
>  <DRUGBANK_ID>
DB01204

>  <SECONDARY_ACCESSION_NUMBERS>
APRD00371

>  <COMMON_NAME>
Mitoxantrone

>  <CAS_NUMBER>
65271-80-9

>  <UNII>
BZ114NVM5P

>  <SYNONYMS>
1,4-Bis(2-(2-hydroxyethylamino)ethyl)amino)-5,8-dihydroxyanthraquinone; Mitoxantrona; Mitoxantrone; Mitoxantronum

$$$$
