T2D
 OpenBabel10282417072D

 22 23  0  0  0  0  0  0  0  0999 V2000
    0.1876   -0.1471    0.0000 C   0  0  0  0  0  0  0  0  0  0  0  0
    0.9722    0.1078    0.0000 C   0  0  0  0  0  0  0  0  0  0  0  0
    1.5853   -0.4442    0.0000 C   0  0  0  0  0  0  0  0  0  0  0  0
    1.4138   -1.2512    0.0000 C   0  0  0  0  0  0  0  0  0  0  0  0
    0.6292   -1.5061    0.0000 C   0  0  0  0  0  0  0  0  0  0  0  0
    0.0161   -0.9541    0.0000 C   0  0  0  0  0  0  0  0  0  0  0  0
   -0.7685   -1.2091    0.0000 N   0  0  0  0  0  0  0  0  0  0  0  0
   -1.0235   -1.9937    0.0000 S   0  0  0  0  0  0  0  0  0  0  0  0
   -1.8485   -1.9937    0.0000 N   0  0  0  0  0  0  0  0  0  0  0  0
   -2.1034   -1.2091    0.0000 C   0  0  0  0  0  0  0  0  0  0  0  0
   -1.4360   -0.7241    0.0000 C   0  0  0  0  0  0  0  0  0  0  0  0
   -2.8880   -0.9541    0.0000 O   0  0  0  0  0  0  0  0  0  0  0  0
   -0.2734   -2.3371    0.0000 O   0  0  0  0  0  0  0  0  0  0  0  0
   -0.9287   -2.8132    0.0000 O   0  0  0  0  0  0  0  0  0  0  0  0
   -0.5793    0.5434    0.0000 H   0  0  0  0  0  0  0  0  0  0  0  0
    1.1868    1.1172    0.0000 H   0  0  0  0  0  0  0  0  0  0  0  0
    2.5668   -0.1253    0.0000 H   0  0  0  0  0  0  0  0  0  0  0  0
    2.1807   -1.9417    0.0000 H   0  0  0  0  0  0  0  0  0  0  0  0
    0.4146   -2.5155    0.0000 H   0  0  0  0  0  0  0  0  0  0  0  0
   -2.4272   -2.7902    0.0000 H   0  0  0  0  0  0  0  0  0  0  0  0
   -1.4360    0.3459    0.0000 H   0  0  0  0  0  0  0  0  0  0  0  0
   -2.3894   -0.2384    0.0000 H   0  0  0  0  0  0  0  0  0  0  0  0
  1  2  1  0  0  0  0
  1  6  2  0  0  0  0
  1 15  1  0  0  0  0
  2  3  2  0  0  0  0
  2 16  1  0  0  0  0
  3  4  1  0  0  0  0
  3 17  1  0  0  0  0
  4  5  2  0  0  0  0
  4 18  1  0  0  0  0
  5  6  1  0  0  0  0
  5 19  1  0  0  0  0
  6  7  1  0  0  0  0
  7  8  1  0  0  0  0
  7 11  1  0  0  0  0
  8  9  1  0  0  0  0
  8 13  2  0  0  0  0
  8 14  2  0  0  0  0
  9 10  1  0  0  0  0
  9 20  1  0  0  0  0
 10 11  1  0  0  0  0
 10 12  2  0  0  0  0
 11 21  1  0  0  0  0
 11 22  1  0  0  0  0
M  END
>  <DRUGBANK_ID>
DB08593

>  <COMMON_NAME>
1,2,5-THIADIAZOLIDIN-3-ONE-1,1-DIOXIDE

>  <UNII>
L4SBH33TJR

$$$$
