
 OpenBabel10282417072D

 67 71  0  0  1  0  0  0  0  0999 V2000
    9.1524    2.5525    0.0000 C   0  0  0  0  0  0  0  0  0  0  0  0
    8.6004    1.9394    0.0000 C   0  0  0  0  0  0  0  0  0  0  0  0
    7.7934    2.1109    0.0000 C   0  0  0  0  0  0  0  0  0  0  0  0
    7.2413    1.4978    0.0000 O   0  0  0  0  0  0  0  0  0  0  0  0
    6.4344    1.6693    0.0000 C   0  0  0  0  0  0  0  0  0  0  0  0
    5.8823    1.0562    0.0000 C   0  0  0  0  0  0  0  0  0  0  0  0
    5.0754    1.2278    0.0000 C   0  0  0  0  0  0  0  0  0  0  0  0
    4.8204    2.0124    0.0000 C   0  0  0  0  0  0  0  0  0  0  0  0
    5.3725    2.6255    0.0000 C   0  0  0  0  0  0  0  0  0  0  0  0
    6.1794    2.4540    0.0000 C   0  0  0  0  0  0  0  0  0  0  0  0
    4.9600    3.3400    0.0000 C   0  0  2  0  0  0  0  0  0  0  0  0
    4.1530    3.1684    0.0000 C   0  0  1  0  0  0  0  0  0  0  0  0
    4.0668    2.3479    0.0000 C   0  0  1  0  0  0  0  0  0  0  0  0
    3.3523    1.9354    0.0000 C   0  0  0  0  0  0  0  0  0  0  0  0
    3.3523    1.1104    0.0000 C   0  0  0  0  0  0  0  0  0  0  0  0
    2.6378    0.6979    0.0000 C   0  0  0  0  0  0  0  0  0  0  0  0
    1.9233    1.1104    0.0000 C   0  0  0  0  0  0  0  0  0  0  0  0
    1.9233    1.9354    0.0000 C   0  0  0  0  0  0  0  0  0  0  0  0
    2.6378    2.3479    0.0000 C   0  0  0  0  0  0  0  0  0  0  0  0
    1.1387    2.1904    0.0000 O   0  0  0  0  0  0  0  0  0  0  0  0
    0.6538    1.5229    0.0000 C   0  0  0  0  0  0  0  0  0  0  0  0
    1.1387    0.8555    0.0000 O   0  0  0  0  0  0  0  0  0  0  0  0
    3.5399    3.7205    0.0000 C   0  0  0  0  0  0  0  0  0  0  0  0
    2.7553    3.4655    0.0000 O   0  0  0  0  0  0  0  0  0  0  0  0
    3.7114    4.5274    0.0000 O   0  0  0  0  0  0  0  0  0  0  0  0
    5.2955    4.0936    0.0000 C   0  0  0  0  0  0  0  0  0  0  0  0
    4.8106    4.7611    0.0000 C   0  0  0  0  0  0  0  0  0  0  0  0
    5.1462    5.5147    0.0000 C   0  0  0  0  0  0  0  0  0  0  0  0
    5.9666    5.6010    0.0000 C   0  0  0  0  0  0  0  0  0  0  0  0
    6.4516    4.9335    0.0000 C   0  0  0  0  0  0  0  0  0  0  0  0
    6.1160    4.1799    0.0000 C   0  0  0  0  0  0  0  0  0  0  0  0
    6.6009    3.5124    0.0000 O   0  0  0  0  0  0  0  0  0  0  0  0
    7.4214    3.5987    0.0000 C   0  0  0  0  0  0  0  0  0  0  0  0
    7.7570    4.3523    0.0000 C   0  0  0  0  0  0  0  0  0  0  0  0
    8.5774    4.4386    0.0000 O   0  0  0  0  0  0  0  0  0  0  0  0
    6.3022    6.3547    0.0000 O   0  0  0  0  0  0  0  0  0  0  0  0
    7.1227    6.4409    0.0000 C   0  0  0  0  0  0  0  0  0  0  0  0
   10.1990    2.3301    0.0000 H   0  0  0  0  0  0  0  0  0  0  0  0
    8.8217    3.5701    0.0000 H   0  0  0  0  0  0  0  0  0  0  0  0
    9.8683    3.3477    0.0000 H   0  0  0  0  0  0  0  0  0  0  0  0
    8.9311    0.9218    0.0000 H   0  0  0  0  0  0  0  0  0  0  0  0
    7.8845    1.1442    0.0000 H   0  0  0  0  0  0  0  0  0  0  0  0
    7.4628    3.1285    0.0000 H   0  0  0  0  0  0  0  0  0  0  0  0
    6.7468    2.3334    0.0000 H   0  0  0  0  0  0  0  0  0  0  0  0
    6.2011    0.0747    0.0000 H   0  0  0  0  0  0  0  0  0  0  0  0
    4.3848    0.4609    0.0000 H   0  0  0  0  0  0  0  0  0  0  0  0
    6.8699    3.2209    0.0000 H   0  0  0  0  0  0  0  0  0  0  0  0
    6.0285    3.3960    0.0000 H   0  0  0  0  0  0  0  0  0  0  0  0
    4.4299    4.2019    0.0000 H   0  0  0  0  0  0  0  0  0  0  0  0
    3.1694    2.9307    0.0000 H   0  0  0  0  0  0  0  0  0  0  0  0
    4.2460    0.5944    0.0000 H   0  0  0  0  0  0  0  0  0  0  0  0
    2.6378   -0.3341    0.0000 H   0  0  0  0  0  0  0  0  0  0  0  0
    2.6378    3.3799    0.0000 H   0  0  0  0  0  0  0  0  0  0  0  0
   -0.4162    1.5229    0.0000 H   0  0  0  0  0  0  0  0  0  0  0  0
    0.1680    0.5695    0.0000 H   0  0  0  0  0  0  0  0  0  0  0  0
    4.6025    4.8170    0.0000 H   0  0  0  0  0  0  0  0  0  0  0  0
    3.7842    4.6533    0.0000 H   0  0  0  0  0  0  0  0  0  0  0  0
    4.5396    6.3496    0.0000 H   0  0  0  0  0  0  0  0  0  0  0  0
    7.4779    5.0413    0.0000 H   0  0  0  0  0  0  0  0  0  0  0  0
    8.0503    2.7330    0.0000 H   0  0  0  0  0  0  0  0  0  0  0  0
    8.4855    3.7105    0.0000 H   0  0  0  0  0  0  0  0  0  0  0  0
    7.1281    5.2179    0.0000 H   0  0  0  0  0  0  0  0  0  0  0  0
    8.1922    5.3298    0.0000 H   0  0  0  0  0  0  0  0  0  0  0  0
    9.1476    3.6539    0.0000 H   0  0  0  0  0  0  0  0  0  0  0  0
    7.7516    5.5752    0.0000 H   0  0  0  0  0  0  0  0  0  0  0  0
    7.5580    7.4184    0.0000 H   0  0  0  0  0  0  0  0  0  0  0  0
    8.1868    6.5527    0.0000 H   0  0  0  0  0  0  0  0  0  0  0  0
  1  2  1  0  0  0  0
  1 38  1  0  0  0  0
  1 39  1  0  0  0  0
  1 40  1  0  0  0  0
  2  3  1  0  0  0  0
  2 41  1  0  0  0  0
  2 42  1  0  0  0  0
  3  4  1  0  0  0  0
  3 43  1  0  0  0  0
  3 44  1  0  0  0  0
  4  5  1  0  0  0  0
  5  6  2  0  0  0  0
  5 10  1  0  0  0  0
  6  7  1  0  0  0  0
  6 45  1  0  0  0  0
  7  8  2  0  0  0  0
  7 46  1  0  0  0  0
  8  9  1  0  0  0  0
  8 13  1  0  0  0  0
  9 10  2  0  0  0  0
  9 11  1  0  0  0  0
 10 47  1  0  0  0  0
 11 12  1  0  0  0  0
 11 26  1  0  0  0  0
 11 48  1  1  0  0  0
 12 13  1  0  0  0  0
 12 23  1  0  0  0  0
 12 49  1  6  0  0  0
 13 14  1  0  0  0  0
 13 50  1  1  0  0  0
 14 15  2  0  0  0  0
 14 19  1  0  0  0  0
 15 16  1  0  0  0  0
 15 51  1  0  0  0  0
 16 17  2  0  0  0  0
 16 52  1  0  0  0  0
 17 18  1  0  0  0  0
 17 22  1  0  0  0  0
 18 19  2  0  0  0  0
 18 20  1  0  0  0  0
 19 53  1  0  0  0  0
 20 21  1  0  0  0  0
 21 22  1  0  0  0  0
 21 54  1  0  0  0  0
 21 55  1  0  0  0  0
 23 24  2  0  0  0  0
 23 25  1  0  0  0  0
 25 56  1  0  0  0  0
 26 27  2  0  0  0  0
 26 31  1  0  0  0  0
 27 28  1  0  0  0  0
 27 57  1  0  0  0  0
 28 29  2  0  0  0  0
 28 58  1  0  0  0  0
 29 30  1  0  0  0  0
 29 36  1  0  0  0  0
 30 31  2  0  0  0  0
 30 59  1  0  0  0  0
 31 32  1  0  0  0  0
 32 33  1  0  0  0  0
 33 34  1  0  0  0  0
 33 60  1  0  0  0  0
 33 61  1  0  0  0  0
 34 35  1  0  0  0  0
 34 62  1  0  0  0  0
 34 63  1  0  0  0  0
 35 64  1  0  0  0  0
 36 37  1  0  0  0  0
 37 65  1  0  0  0  0
 37 66  1  0  0  0  0
 37 67  1  0  0  0  0
M  END
>  <DRUGBANK_ID>
DB06460

>  <COMMON_NAME>
Enrasentan

>  <CAS_NUMBER>
167256-08-8

>  <UNII>
QG16H8A6ZH

>  <SYNONYMS>
Enrasentan

$$$$
