
 OpenBabel10282417072D

 16 14  0  0  0  0  0  0  0  0999 V2000
   -0.3833    0.2062    0.0000 C   0  0  0  0  0  0  0  0  0  0  0  0
   -1.8124    0.2062    0.0000 C   0  0  0  0  0  0  0  0  0  0  0  0
    0.3334   -0.2062    0.0000 C   0  0  0  0  0  0  0  0  0  0  0  0
   -1.0957   -0.2062    0.0000 C   0  0  3  0  0  0  0  0  0  0  0  0
    1.0458    0.2062    0.0000 O   0  5  0  0  0  0  0  0  0  0  0  0
   -1.8124    1.0312    0.0000 O   0  0  0  0  0  0  0  0  0  0  0  0
    0.3334   -1.0312    0.0000 O   0  0  0  0  0  0  0  0  0  0  0  0
   -1.0957   -1.0312    0.0000 N   0  0  0  0  0  0  0  0  0  0  0  0
   -2.5249   -0.2062    0.0000 O   0  0  0  0  0  0  0  0  0  0  0  0
    2.5249    0.8019    0.0000 K   0  3  0  0  0  0  0  0  0  0  0  0
   -0.3847    1.2762    0.0000 H   0  0  0  0  0  0  0  0  0  0  0  0
   -1.3106    0.7401    0.0000 H   0  0  0  0  0  0  0  0  0  0  0  0
   -1.0971    0.8638    0.0000 H   0  0  0  0  0  0  0  0  0  0  0  0
   -1.9790   -1.5412    0.0000 H   0  0  0  0  0  0  0  0  0  0  0  0
   -0.2124   -1.5412    0.0000 H   0  0  0  0  0  0  0  0  0  0  0  0
   -3.3369    0.2614    0.0000 H   0  0  0  0  0  0  0  0  0  0  0  0
  1 11  1  0  0  0  0
  1 12  1  0  0  0  0
  2  4  1  0  0  0  0
  3  1  1  0  0  0  0
  4  1  1  0  0  0  0
  4 13  1  0  0  0  0
  5  3  1  0  0  0  0
  6  2  2  0  0  0  0
  7  3  2  0  0  0  0
  8  4  1  0  0  0  0
  8 14  1  0  0  0  0
  8 15  1  0  0  0  0
  9  2  1  0  0  0  0
  9 16  1  0  0  0  0
M  CHG  2   5  -1  10   1
M  END
>  <DRUGBANK_ID>
DB15998

>  <COMMON_NAME>
Potassium hydrogen DL-aspartate

>  <CAS_NUMBER>
923-09-1

>  <UNII>
5UW00M8KR0

$$$$
