WAC
 OpenBabel10282417072D

 57 60  0  0  0  0  0  0  0  0999 V2000
   -2.5396   -2.2721    0.0000 C   0  0  0  0  0  0  0  0  0  0  0  0
   -1.8118   -1.8835    0.0000 C   0  0  0  0  0  0  0  0  0  0  0  0
   -1.7845   -1.0589    0.0000 C   0  0  0  0  0  0  0  0  0  0  0  0
   -2.4849   -0.6230    0.0000 C   0  0  0  0  0  0  0  0  0  0  0  0
   -3.2127   -1.0116    0.0000 C   0  0  0  0  0  0  0  0  0  0  0  0
   -3.2400   -1.8362    0.0000 C   0  0  0  0  0  0  0  0  0  0  0  0
   -1.1535   -0.5275    0.0000 N   0  0  0  0  0  0  0  0  0  0  0  0
   -1.4639    0.2369    0.0000 C   0  0  0  0  0  0  0  0  0  0  0  0
   -2.2868    0.1778    0.0000 C   0  0  0  0  0  0  0  0  0  0  0  0
   -1.1036    0.9790    0.0000 C   0  0  1  0  0  0  0  0  0  0  0  0
   -1.5661    1.6621    0.0000 N   0  0  2  0  0  0  0  0  0  0  0  0
   -2.3890    1.6031    0.0000 C   0  0  0  0  0  0  0  0  0  0  0  0
   -2.7493    0.8610    0.0000 C   0  0  0  0  0  0  0  0  0  0  0  0
   -0.2807    1.0380    0.0000 C   0  0  0  0  0  0  0  0  0  0  0  0
    0.0797    1.7802    0.0000 C   0  0  0  0  0  0  0  0  0  0  0  0
   -0.3829    2.4633    0.0000 C   0  0  0  0  0  0  0  0  0  0  0  0
   -1.2058    2.4043    0.0000 C   0  0  0  0  0  0  0  0  0  0  0  0
   -0.3526   -0.7257    0.0000 C   0  0  0  0  0  0  0  0  0  0  0  0
    0.2194   -0.1312    0.0000 C   0  0  0  0  0  0  0  0  0  0  0  0
    1.0203   -0.3294    0.0000 C   0  0  0  0  0  0  0  0  0  0  0  0
    1.5923    0.2651    0.0000 N   0  0  0  0  0  0  0  0  0  0  0  0
    2.3931    0.0670    0.0000 S   0  0  0  0  0  0  0  0  0  0  0  0
    3.1940   -0.1312    0.0000 C   0  0  0  0  0  0  0  0  0  0  0  0
    3.7660    0.4633    0.0000 C   0  0  0  0  0  0  0  0  0  0  0  0
    3.4228   -0.9238    0.0000 C   0  0  0  0  0  0  0  0  0  0  0  0
    2.1950   -0.7339    0.0000 O   0  0  0  0  0  0  0  0  0  0  0  0
    2.5913    0.8678    0.0000 O   0  0  0  0  0  0  0  0  0  0  0  0
   -3.5722    0.8020    0.0000 O   0  0  0  0  0  0  0  0  0  0  0  0
   -0.7762    0.4955    0.0000 H   0  0  0  0  0  0  0  0  0  0  0  0
   -2.5738   -3.3035    0.0000 H   0  0  0  0  0  0  0  0  0  0  0  0
   -0.9356   -2.4288    0.0000 H   0  0  0  0  0  0  0  0  0  0  0  0
   -4.0889   -0.4663    0.0000 H   0  0  0  0  0  0  0  0  0  0  0  0
   -4.1503   -2.3223    0.0000 H   0  0  0  0  0  0  0  0  0  0  0  0
   -2.9889    2.4891    0.0000 H   0  0  0  0  0  0  0  0  0  0  0  0
   -3.4563    1.5266    0.0000 H   0  0  0  0  0  0  0  0  0  0  0  0
    0.3192    0.1520    0.0000 H   0  0  0  0  0  0  0  0  0  0  0  0
    0.7866    1.1145    0.0000 H   0  0  0  0  0  0  0  0  0  0  0  0
    1.1470    1.8568    0.0000 H   0  0  0  0  0  0  0  0  0  0  0  0
    0.5470    2.7428    0.0000 H   0  0  0  0  0  0  0  0  0  0  0  0
    0.0844    3.4259    0.0000 H   0  0  0  0  0  0  0  0  0  0  0  0
   -0.9828    3.3493    0.0000 H   0  0  0  0  0  0  0  0  0  0  0  0
   -1.8057    3.2903    0.0000 H   0  0  0  0  0  0  0  0  0  0  0  0
   -0.7385    3.3668    0.0000 H   0  0  0  0  0  0  0  0  0  0  0  0
   -0.0558   -1.7537    0.0000 H   0  0  0  0  0  0  0  0  0  0  0  0
    0.6861   -0.9827    0.0000 H   0  0  0  0  0  0  0  0  0  0  0  0
   -0.0774    0.8968    0.0000 H   0  0  0  0  0  0  0  0  0  0  0  0
    0.9613    0.6398    0.0000 H   0  0  0  0  0  0  0  0  0  0  0  0
    1.3171   -1.3574    0.0000 H   0  0  0  0  0  0  0  0  0  0  0  0
    2.0590   -0.5864    0.0000 H   0  0  0  0  0  0  0  0  0  0  0  0
    1.3094    1.2451    0.0000 H   0  0  0  0  0  0  0  0  0  0  0  0
    4.2327   -0.3882    0.0000 H   0  0  0  0  0  0  0  0  0  0  0  0
    4.8047    0.2063    0.0000 H   0  0  0  0  0  0  0  0  0  0  0  0
    3.4692    1.4913    0.0000 H   0  0  0  0  0  0  0  0  0  0  0  0
    4.5079    1.2344    0.0000 H   0  0  0  0  0  0  0  0  0  0  0  0
    2.6809   -1.6948    0.0000 H   0  0  0  0  0  0  0  0  0  0  0  0
    4.4615   -1.1808    0.0000 H   0  0  0  0  0  0  0  0  0  0  0  0
    3.7196   -1.9518    0.0000 H   0  0  0  0  0  0  0  0  0  0  0  0
  1  2  2  0  0  0  0
  1  6  1  0  0  0  0
  1 30  1  0  0  0  0
  2  3  1  0  0  0  0
  2 31  1  0  0  0  0
  3  4  2  0  0  0  0
  3  7  1  0  0  0  0
  4  5  1  0  0  0  0
  4  9  1  0  0  0  0
  5  6  2  0  0  0  0
  5 32  1  0  0  0  0
  6 33  1  0  0  0  0
  7  8  1  0  0  0  0
  7 18  1  0  0  0  0
  8  9  2  0  0  0  0
  8 10  1  0  0  0  0
  9 13  1  0  0  0  0
 10 11  1  0  0  0  0
 10 14  1  0  0  0  0
 10 29  1  6  0  0  0
 11 12  1  6  0  0  0
 11 17  1  0  0  0  0
 12 13  1  0  0  0  0
 12 34  1  0  0  0  0
 12 35  1  0  0  0  0
 13 28  2  0  0  0  0
 14 15  1  0  0  0  0
 14 36  1  0  0  0  0
 14 37  1  0  0  0  0
 15 16  1  0  0  0  0
 15 38  1  0  0  0  0
 15 39  1  0  0  0  0
 16 17  1  0  0  0  0
 16 40  1  0  0  0  0
 16 41  1  0  0  0  0
 17 42  1  0  0  0  0
 17 43  1  0  0  0  0
 18 19  1  0  0  0  0
 18 44  1  0  0  0  0
 18 45  1  0  0  0  0
 19 20  1  0  0  0  0
 19 46  1  0  0  0  0
 19 47  1  0  0  0  0
 20 21  1  0  0  0  0
 20 48  1  0  0  0  0
 20 49  1  0  0  0  0
 21 22  1  0  0  0  0
 21 50  1  0  0  0  0
 22 23  1  0  0  0  0
 22 26  2  0  0  0  0
 22 27  2  0  0  0  0
 23 24  1  0  0  0  0
 23 25  1  0  0  0  0
 23 51  1  0  0  0  0
 24 52  1  0  0  0  0
 24 53  1  0  0  0  0
 24 54  1  0  0  0  0
 25 55  1  0  0  0  0
 25 56  1  0  0  0  0
 25 57  1  0  0  0  0
M  END
>  <DRUGBANK_ID>
DB01967

>  <SECONDARY_ACCESSION_NUMBERS>
EXPT03238

>  <COMMON_NAME>
N-{3-[(7ar,12as,12bs)-7-Oxo-1,3,4,6,7,7a,12a,12b-Octahydroindolo[2,3-a]Quinolizin-12(2h)-Yl]Propyl}Propane-2-Sulfonamide

$$$$
