
 OpenBabel10282417072D

 34 34  0  0  0  0  0  0  0  0999 V2000
    2.3825    1.1136    0.0000 O   0  0  0  0  0  0  0  0  0  0  0  0
    1.5675    0.9684    0.0000 C   0  0  0  0  0  0  0  0  0  0  0  0
    1.2888    0.1965    0.0000 O   0  0  0  0  0  0  0  0  0  0  0  0
    0.4738    0.0514    0.0000 C   0  0  0  0  0  0  0  0  0  0  0  0
   -0.2401   -0.3617    0.0000 C   0  0  3  0  0  0  0  0  0  0  0  0
   -0.9579    0.0506    0.0000 C   0  0  0  0  0  0  0  0  0  0  0  0
   -1.6673   -0.3617    0.0000 C   0  0  0  0  0  0  0  0  0  0  0  0
   -1.6673   -1.1868    0.0000 C   0  0  0  0  0  0  0  0  0  0  0  0
   -0.9579   -1.5993    0.0000 C   0  0  0  0  0  0  0  0  0  0  0  0
   -0.2401   -1.1868    0.0000 C   0  0  0  0  0  0  0  0  0  0  0  0
   -2.3825   -1.5981    0.0000 C   0  0  0  0  0  0  0  0  0  0  0  0
   -0.0540    0.6796    0.0000 C   0  0  0  0  0  0  0  0  0  0  0  0
    0.7570   -0.7234    0.0000 C   0  0  0  0  0  0  0  0  0  0  0  0
    1.0358    1.5993    0.0000 C   0  0  0  0  0  0  0  0  0  0  0  0
   -0.2418    0.7083    0.0000 H   0  0  0  0  0  0  0  0  0  0  0  0
   -0.9606    1.1206    0.0000 H   0  0  0  0  0  0  0  0  0  0  0  0
   -1.8860    0.5831    0.0000 H   0  0  0  0  0  0  0  0  0  0  0  0
   -2.5618    0.1530    0.0000 H   0  0  0  0  0  0  0  0  0  0  0  0
   -0.9606   -2.6693    0.0000 H   0  0  0  0  0  0  0  0  0  0  0  0
   -0.0325   -2.1364    0.0000 H   0  0  0  0  0  0  0  0  0  0  0  0
    0.6860   -1.7227    0.0000 H   0  0  0  0  0  0  0  0  0  0  0  0
    0.6868   -0.6523    0.0000 H   0  0  0  0  0  0  0  0  0  0  0  0
   -3.3082   -1.0615    0.0000 H   0  0  0  0  0  0  0  0  0  0  0  0
   -2.3843   -2.6681    0.0000 H   0  0  0  0  0  0  0  0  0  0  0  0
   -3.3101   -2.1315    0.0000 H   0  0  0  0  0  0  0  0  0  0  0  0
    0.3113    1.6853    0.0000 H   0  0  0  0  0  0  0  0  0  0  0  0
   -1.1076    0.4931    0.0000 H   0  0  0  0  0  0  0  0  0  0  0  0
   -0.7423    1.4988    0.0000 H   0  0  0  0  0  0  0  0  0  0  0  0
    0.0703   -1.5440    0.0000 H   0  0  0  0  0  0  0  0  0  0  0  0
    1.8110   -0.9078    0.0000 H   0  0  0  0  0  0  0  0  0  0  0  0
    1.1243   -1.7284    0.0000 H   0  0  0  0  0  0  0  0  0  0  0  0
    1.3996    2.6056    0.0000 H   0  0  0  0  0  0  0  0  0  0  0  0
   -0.0175    1.4112    0.0000 H   0  0  0  0  0  0  0  0  0  0  0  0
    0.3463    2.4175    0.0000 H   0  0  0  0  0  0  0  0  0  0  0  0
  1  2  2  0  0  0  0
  2  3  1  0  0  0  0
  2 14  1  0  0  0  0
  3  4  1  0  0  0  0
  4  5  1  0  0  0  0
  4 12  1  0  0  0  0
  4 13  1  0  0  0  0
  5  6  1  0  0  0  0
  5 15  1  0  0  0  0
  6  7  1  0  0  0  0
  6 16  1  0  0  0  0
  6 17  1  0  0  0  0
  7  8  2  0  0  0  0
  7 18  1  0  0  0  0
  8  9  1  0  0  0  0
  8 11  1  0  0  0  0
  9 10  1  0  0  0  0
  9 19  1  0  0  0  0
  9 20  1  0  0  0  0
 10  5  1  0  0  0  0
 10 21  1  0  0  0  0
 10 22  1  0  0  0  0
 11 23  1  0  0  0  0
 11 24  1  0  0  0  0
 11 25  1  0  0  0  0
 12 26  1  0  0  0  0
 12 27  1  0  0  0  0
 12 28  1  0  0  0  0
 13 29  1  0  0  0  0
 13 30  1  0  0  0  0
 13 31  1  0  0  0  0
 14 32  1  0  0  0  0
 14 33  1  0  0  0  0
 14 34  1  0  0  0  0
M  END
>  <DRUGBANK_ID>
DB15957

>  <COMMON_NAME>
Terpinyl acetate

>  <CAS_NUMBER>
8007-35-0

>  <UNII>
9RXE0I9F2J

>  <SYNONYMS>
Terpineol acetate

$$$$
