
 OpenBabel10282417072D

 40 40  0  0  1  0  0  0  0  0999 V2000
   -0.8146   -1.4901    0.0000 C   0  0  0  0  0  0  0  0  0  0  0  0
   -0.3297   -0.8227    0.0000 C   0  0  0  0  0  0  0  0  0  0  0  0
    0.3378   -1.3076    0.0000 C   0  0  0  0  0  0  0  0  0  0  0  0
   -0.9971   -0.3378    0.0000 C   0  0  0  0  0  0  0  0  0  0  0  0
    0.1553   -0.1553    0.0000 C   0  0  0  0  0  0  0  0  0  0  0  0
   -0.0997    0.6294    0.0000 C   0  0  0  0  0  0  0  0  0  0  0  0
   -0.8843    0.8843    0.0000 C   0  0  0  0  0  0  0  0  0  0  0  0
   -1.4974    0.3323    0.0000 C   0  0  2  0  0  0  0  0  0  0  0  0
   -1.3259   -0.4747    0.0000 N   0  0  0  0  0  0  0  0  0  0  0  0
   -2.2820    0.5872    0.0000 C   0  0  0  0  0  0  0  0  0  0  0  0
   -2.8951    0.0352    0.0000 O   0  0  0  0  0  0  0  0  0  0  0  0
   -2.4535    1.3942    0.0000 O   0  0  0  0  0  0  0  0  0  0  0  0
    0.5678    1.1143    0.0000 C   0  0  0  0  0  0  0  0  0  0  0  0
    0.5678    1.9393    0.0000 O   0  0  0  0  0  0  0  0  0  0  0  0
    1.2822    2.3518    0.0000 C   0  0  0  0  0  0  0  0  0  0  0  0
    1.2822    3.1768    0.0000 P   0  0  0  0  0  0  0  0  0  0  0  0
    1.2822    4.0018    0.0000 O   0  0  0  0  0  0  0  0  0  0  0  0
    2.1072    3.1768    0.0000 O   0  0  0  0  0  0  0  0  0  0  0  0
    0.4572    3.1768    0.0000 O   0  0  0  0  0  0  0  0  0  0  0  0
    1.2352    0.6294    0.0000 N   0  0  0  0  0  0  0  0  0  0  0  0
    0.9803   -0.1553    0.0000 O   0  0  0  0  0  0  0  0  0  0  0  0
   -1.8787   -1.3782    0.0000 H   0  0  0  0  0  0  0  0  0  0  0  0
   -0.3794   -2.4676    0.0000 H   0  0  0  0  0  0  0  0  0  0  0  0
   -1.4435   -2.3557    0.0000 H   0  0  0  0  0  0  0  0  0  0  0  0
    0.2260   -2.3717    0.0000 H   0  0  0  0  0  0  0  0  0  0  0  0
    1.3153   -0.8723    0.0000 H   0  0  0  0  0  0  0  0  0  0  0  0
    1.2035   -1.9365    0.0000 H   0  0  0  0  0  0  0  0  0  0  0  0
   -0.8852    0.7263    0.0000 H   0  0  0  0  0  0  0  0  0  0  0  0
   -1.9746   -0.7730    0.0000 H   0  0  0  0  0  0  0  0  0  0  0  0
   -1.8627    0.2911    0.0000 H   0  0  0  0  0  0  0  0  0  0  0  0
   -1.1068    1.9309    0.0000 H   0  0  0  0  0  0  0  0  0  0  0  0
   -1.9019    1.2150    0.0000 H   0  0  0  0  0  0  0  0  0  0  0  0
   -0.4798    0.0016    0.0000 H   0  0  0  0  0  0  0  0  0  0  0  0
   -2.0839   -1.1572    0.0000 H   0  0  0  0  0  0  0  0  0  0  0  0
   -0.3558   -0.7899    0.0000 H   0  0  0  0  0  0  0  0  0  0  0  0
   -3.7862    0.3248    0.0000 H   0  0  0  0  0  0  0  0  0  0  0  0
    2.2089    1.8168    0.0000 H   0  0  0  0  0  0  0  0  0  0  0  0
    2.2088    2.8868    0.0000 H   0  0  0  0  0  0  0  0  0  0  0  0
    2.1222    4.4868    0.0000 H   0  0  0  0  0  0  0  0  0  0  0  0
    2.5922    2.3368    0.0000 H   0  0  0  0  0  0  0  0  0  0  0  0
  1  2  1  0  0  0  0
  1 22  1  0  0  0  0
  1 23  1  0  0  0  0
  1 24  1  0  0  0  0
  2  3  1  0  0  0  0
  2  4  1  0  0  0  0
  2  5  1  0  0  0  0
  3 25  1  0  0  0  0
  3 26  1  0  0  0  0
  3 27  1  0  0  0  0
  4 28  1  0  0  0  0
  4 29  1  0  0  0  0
  4 30  1  0  0  0  0
  5  6  2  0  0  0  0
  5 21  1  0  0  0  0
  6  7  1  0  0  0  0
  6 13  1  0  0  0  0
  7  8  1  0  0  0  0
  7 31  1  0  0  0  0
  7 32  1  0  0  0  0
  8  9  1  0  0  0  0
  8 10  1  0  0  0  0
  8 33  1  1  0  0  0
  9 34  1  0  0  0  0
  9 35  1  0  0  0  0
 10 11  1  0  0  0  0
 10 12  2  0  0  0  0
 11 36  1  0  0  0  0
 13 14  1  0  0  0  0
 13 20  2  0  0  0  0
 14 15  1  0  0  0  0
 15 16  1  0  0  0  0
 15 37  1  0  0  0  0
 15 38  1  0  0  0  0
 16 17  1  0  0  0  0
 16 18  1  0  0  0  0
 16 19  2  0  0  0  0
 17 39  1  0  0  0  0
 18 40  1  0  0  0  0
 20 21  1  0  0  0  0
M  END
>  <DRUGBANK_ID>
DB02347

>  <SECONDARY_ACCESSION_NUMBERS>
EXPT00578

>  <COMMON_NAME>
2-Amino-3-(5-Tert-Butyl-3-(Phosphonomethoxy)-4-Isoxazolyl)Propionic Acid

$$$$
