
 OpenBabel10282417072D

 26 27  0  0  1  0  0  0  0  0999 V2000
   10.6821   -8.1129    0.0000 N   0  0  0  0  0  0  0  0  0  0  0  0
   10.0068   -8.5842    0.0000 C   0  0  2  0  0  0  0  0  0  0  0  0
    9.2541   -8.2465    0.0000 C   0  0  0  0  0  0  0  0  0  0  0  0
    8.5471   -7.0119    0.0000 N   0  0  0  0  0  0  0  0  0  0  0  0
    9.2541   -7.4305    0.0000 C   0  0  0  0  0  0  0  0  0  0  0  0
   11.3504   -8.5771    0.0000 C   0  0  0  0  0  0  0  0  0  0  0  0
   10.6821   -7.2722    0.0000 C   0  0  0  0  0  0  0  0  0  0  0  0
   10.2741   -9.3686    0.0000 C   0  0  0  0  0  0  0  0  0  0  0  0
   11.1077   -9.3686    0.0000 C   0  0  0  0  0  0  0  0  0  0  0  0
    8.5471   -8.6546    0.0000 C   0  0  0  0  0  0  0  0  0  0  0  0
    7.8330   -7.4199    0.0000 C   0  0  0  0  0  0  0  0  0  0  0  0
    7.8330   -8.2465    0.0000 C   0  0  0  0  0  0  0  0  0  0  0  0
    9.9066   -7.5189    0.0000 H   0  0  0  0  0  0  0  0  0  0  0  0
   10.1507   -6.9194    0.0000 H   0  0  0  0  0  0  0  0  0  0  0  0
   12.3616   -8.2273    0.0000 H   0  0  0  0  0  0  0  0  0  0  0  0
   12.1203   -9.3201    0.0000 H   0  0  0  0  0  0  0  0  0  0  0  0
   11.6087   -6.7372    0.0000 H   0  0  0  0  0  0  0  0  0  0  0  0
    9.7555   -6.7372    0.0000 H   0  0  0  0  0  0  0  0  0  0  0  0
   10.6821   -6.2022    0.0000 H   0  0  0  0  0  0  0  0  0  0  0  0
    9.6514  -10.2387    0.0000 H   0  0  0  0  0  0  0  0  0  0  0  0
   10.7633  -10.3202    0.0000 H   0  0  0  0  0  0  0  0  0  0  0  0
   11.7438  -10.2290    0.0000 H   0  0  0  0  0  0  0  0  0  0  0  0
   10.6259  -10.3240    0.0000 H   0  0  0  0  0  0  0  0  0  0  0  0
    8.5493   -9.6866    0.0000 H   0  0  0  0  0  0  0  0  0  0  0  0
    6.9404   -6.9019    0.0000 H   0  0  0  0  0  0  0  0  0  0  0  0
    6.9404   -8.7645    0.0000 H   0  0  0  0  0  0  0  0  0  0  0  0
  2  1  1  0  0  0  0
  2  3  1  0  0  0  0
  2 13  1  6  0  0  0
  5  3  2  0  0  0  0
  5  4  1  0  0  0  0
  5 14  1  0  0  0  0
  6  1  1  0  0  0  0
  6 15  1  0  0  0  0
  6 16  1  0  0  0  0
  7  1  1  0  0  0  0
  7 17  1  0  0  0  0
  7 18  1  0  0  0  0
  7 19  1  0  0  0  0
  8  2  1  0  0  0  0
  8 20  1  0  0  0  0
  8 21  1  0  0  0  0
  9  6  1  0  0  0  0
  9  8  1  0  0  0  0
  9 22  1  0  0  0  0
  9 23  1  0  0  0  0
 10  3  1  0  0  0  0
 10 24  1  0  0  0  0
 11  4  2  0  0  0  0
 11 25  1  0  0  0  0
 12 10  2  0  0  0  0
 12 11  1  0  0  0  0
 12 26  1  0  0  0  0
M  END
>  <DRUGBANK_ID>
DB00184

>  <SECONDARY_ACCESSION_NUMBERS>
APRD00200; EXPT02315; DB09463; DB11303

>  <COMMON_NAME>
Nicotine

>  <CAS_NUMBER>
54-11-5

>  <UNII>
6M3C89ZY6R

>  <SYNONYMS>
(−)-nicotine; (S)-(−)-nicotine; (S)-3-(1-methylpyrrolidin-2-yl)pyridine; (S)-3-(N-methylpyrrolidin-2-yl)pyridine; (S)-Nicotine; 3-(2-(N-methylpyrrolidinyl))pyridine; 3-(N-methylpyrollidino)pyridine; L(−)-nicotine; Nicotina; Nicotine; Nicotine betadex; Nicotine polacrilex; Nikotin; Nikotyna

$$$$
