FRX
 OpenBabel10282417072D

 49 52  0  0  0  0  0  0  0  0999 V2000
    1.6973   -2.0477    0.0000 O   0  0  0  0  0  0  0  0  0  0  0  0
    1.6973   -2.8727    0.0000 C   0  0  0  0  0  0  0  0  0  0  0  0
    2.4118   -3.2852    0.0000 N   0  0  0  0  0  0  0  0  0  0  0  0
    3.1263   -2.8727    0.0000 C   0  0  0  0  0  0  0  0  0  0  0  0
    3.8407   -3.2852    0.0000 C   0  0  0  0  0  0  0  0  0  0  0  0
    4.5552   -2.8727    0.0000 O   0  0  0  0  0  0  0  0  0  0  0  0
    0.9828   -3.2852    0.0000 C   0  0  0  0  0  0  0  0  0  0  0  0
    0.2684   -2.8727    0.0000 N   0  0  0  0  0  0  0  0  0  0  0  0
   -0.4461   -3.2852    0.0000 C   0  0  0  0  0  0  0  0  0  0  0  0
   -0.4461   -4.1102    0.0000 O   0  0  0  0  0  0  0  0  0  0  0  0
    0.2684   -2.0477    0.0000 C   0  0  0  0  0  0  0  0  0  0  0  0
    0.9828   -1.6352    0.0000 C   0  0  0  0  0  0  0  0  0  0  0  0
    0.9828   -0.8102    0.0000 C   0  0  0  0  0  0  0  0  0  0  0  0
    0.2684   -0.3977    0.0000 C   0  0  0  0  0  0  0  0  0  0  0  0
   -0.4461   -1.6352    0.0000 C   0  0  0  0  0  0  0  0  0  0  0  0
   -0.4461   -0.8102    0.0000 C   0  0  0  0  0  0  0  0  0  0  0  0
   -1.1606   -2.0477    0.0000 C   0  0  0  0  0  0  0  0  0  0  0  0
   -1.1606   -2.8727    0.0000 C   0  0  2  0  0  0  0  0  0  0  0  0
   -1.8750   -3.2852    0.0000 N   0  0  0  0  0  0  0  0  0  0  0  0
   -1.8750   -4.1102    0.0000 C   0  0  0  0  0  0  0  0  0  0  0  0
   -1.1606   -4.5227    0.0000 O   0  0  0  0  0  0  0  0  0  0  0  0
   -2.5895   -4.5227    0.0000 C   0  0  0  0  0  0  0  0  0  0  0  0
   -3.3432   -4.1871    0.0000 N   0  0  0  0  0  0  0  0  0  0  0  0
   -3.8952   -4.8002    0.0000 C   0  0  0  0  0  0  0  0  0  0  0  0
   -3.4827   -5.5147    0.0000 C   0  0  0  0  0  0  0  0  0  0  0  0
   -2.6758   -5.3431    0.0000 C   0  0  0  0  0  0  0  0  0  0  0  0
   -4.0348   -6.1278    0.0000 C   0  0  0  0  0  0  0  0  0  0  0  0
   -4.7022   -4.9717    0.0000 S   0  0  0  0  0  0  0  0  0  0  0  0
   -4.7884   -5.7922    0.0000 C   0  0  0  0  0  0  0  0  0  0  0  0
   -5.5029   -6.2047    0.0000 Cl  0  0  0  0  0  0  0  0  0  0  0  0
   -1.1606   -3.4566    0.0000 H   0  0  0  0  0  0  0  0  0  0  0  0
    2.4118   -4.2697    0.0000 H   0  0  0  0  0  0  0  0  0  0  0  0
    3.1263   -1.8027    0.0000 H   0  0  0  0  0  0  0  0  0  0  0  0
    4.0530   -2.3377    0.0000 H   0  0  0  0  0  0  0  0  0  0  0  0
    3.8407   -4.3552    0.0000 H   0  0  0  0  0  0  0  0  0  0  0  0
    4.7673   -3.8202    0.0000 H   0  0  0  0  0  0  0  0  0  0  0  0
    5.3952   -3.3577    0.0000 H   0  0  0  0  0  0  0  0  0  0  0  0
    0.9828   -4.3552    0.0000 H   0  0  0  0  0  0  0  0  0  0  0  0
    0.0561   -3.8202    0.0000 H   0  0  0  0  0  0  0  0  0  0  0  0
    1.8765   -2.1512    0.0000 H   0  0  0  0  0  0  0  0  0  0  0  0
    1.8765   -0.2942    0.0000 H   0  0  0  0  0  0  0  0  0  0  0  0
    0.2684    0.6343    0.0000 H   0  0  0  0  0  0  0  0  0  0  0  0
   -1.3398   -0.2942    0.0000 H   0  0  0  0  0  0  0  0  0  0  0  0
   -2.0872   -1.5127    0.0000 H   0  0  0  0  0  0  0  0  0  0  0  0
   -2.0872   -2.5827    0.0000 H   0  0  0  0  0  0  0  0  0  0  0  0
   -2.7276   -2.7930    0.0000 H   0  0  0  0  0  0  0  0  0  0  0  0
   -3.5479   -3.2241    0.0000 H   0  0  0  0  0  0  0  0  0  0  0  0
   -1.9089   -6.0336    0.0000 H   0  0  0  0  0  0  0  0  0  0  0  0
   -3.8203   -7.1373    0.0000 H   0  0  0  0  0  0  0  0  0  0  0  0
  1  2  2  0  0  0  0
  2  7  1  0  0  0  0
  2  3  1  0  0  0  0
  3  4  1  0  0  0  0
  3 32  1  0  0  0  0
  4  5  1  0  0  0  0
  4 33  1  0  0  0  0
  4 34  1  0  0  0  0
  5  6  1  0  0  0  0
  5 35  1  0  0  0  0
  5 36  1  0  0  0  0
  6 37  1  0  0  0  0
  7  8  1  0  0  0  0
  7 38  1  0  0  0  0
  7 39  1  0  0  0  0
  8 11  1  0  0  0  0
  8  9  1  0  0  0  0
  9 18  1  0  0  0  0
  9 10  2  0  0  0  0
 11 15  2  0  0  0  0
 11 12  1  0  0  0  0
 12 13  2  0  0  0  0
 12 40  1  0  0  0  0
 13 14  1  0  0  0  0
 13 41  1  0  0  0  0
 14 16  2  0  0  0  0
 14 42  1  0  0  0  0
 15 16  1  0  0  0  0
 15 17  1  0  0  0  0
 16 43  1  0  0  0  0
 17 18  1  0  0  0  0
 17 44  1  0  0  0  0
 17 45  1  0  0  0  0
 18 19  1  0  0  0  0
 18 31  1  6  0  0  0
 19 20  1  0  0  0  0
 19 46  1  0  0  0  0
 20 22  1  0  0  0  0
 20 21  2  0  0  0  0
 22 26  2  0  0  0  0
 22 23  1  0  0  0  0
 23 24  1  0  0  0  0
 23 47  1  0  0  0  0
 24 25  2  0  0  0  0
 24 28  1  0  0  0  0
 25 27  1  0  0  0  0
 25 26  1  0  0  0  0
 26 48  1  0  0  0  0
 27 29  2  0  0  0  0
 27 49  1  0  0  0  0
 28 29  1  0  0  0  0
 29 30  1  0  0  0  0
M  END
>  <DRUGBANK_ID>
DB07792

>  <COMMON_NAME>
(S)-2-CHLORO-N-(1-(2-(2-HYDROXYETHYLAMINO)-2-OXOETHYL)-2-OXO-1,2,3,4-TETRAHYDROQUINOLIN-3-YL)-6H-THIENO[2,3-B]PYRROLE-5-CARBOXAMIDE

$$$$
