
 OpenBabel10282417072D

 66 66  0  0  1  0  0  0  0  0999 V2000
    6.6365  -13.5279    0.0000 C   0  0  2  0  0  0  0  0  0  0  0  0
    7.3499  -13.1128    0.0000 C   0  0  2  0  0  0  0  0  0  0  0  0
    5.9196  -13.1128    0.0000 C   0  0  1  0  0  0  0  0  0  0  0  0
    7.3499  -12.2863    0.0000 C   0  0  1  0  0  0  0  0  0  0  0  0
    8.0634  -13.5279    0.0000 O   0  0  0  0  0  0  0  0  0  0  0  0
    5.9196  -12.2863    0.0000 C   0  0  2  0  0  0  0  0  0  0  0  0
    5.2062  -13.5279    0.0000 O   0  0  0  0  0  0  0  0  0  0  0  0
    6.6365  -11.8780    0.0000 O   0  0  0  0  0  0  0  0  0  0  0  0
    8.0600  -11.8746    0.0000 S   0  0  0  0  0  0  0  0  0  0  0  0
    5.2028  -11.8780    0.0000 C   0  0  0  0  0  0  0  0  0  0  0  0
    6.6374  -14.3529    0.0000 O   0  0  0  0  0  0  0  0  0  0  0  0
    5.2042  -11.0530    0.0000 O   0  0  0  0  0  0  0  0  0  0  0  0
    4.4899  -10.6405    0.0000 C   0  0  0  0  0  0  0  0  0  0  0  0
    4.4899   -9.8156    0.0000 O   0  0  0  0  0  0  0  0  0  0  0  0
    3.7753  -11.0530    0.0000 C   0  0  0  0  0  0  0  0  0  0  0  0
    4.4904  -13.1177    0.0000 C   0  0  0  0  0  0  0  0  0  0  0  0
    3.7773  -13.5325    0.0000 C   0  0  0  0  0  0  0  0  0  0  0  0
    4.4904  -12.2927    0.0000 O   0  0  0  0  0  0  0  0  0  0  0  0
    5.9234  -14.7660    0.0000 C   0  0  0  0  0  0  0  0  0  0  0  0
    5.2090  -14.3536    0.0000 C   0  0  0  0  0  0  0  0  0  0  0  0
    5.9234  -15.5910    0.0000 O   0  0  0  0  0  0  0  0  0  0  0  0
    8.7779  -13.1154    0.0000 C   0  0  0  0  0  0  0  0  0  0  0  0
    9.4924  -13.5279    0.0000 C   0  0  0  0  0  0  0  0  0  0  0  0
    8.7779  -12.2904    0.0000 O   0  0  0  0  0  0  0  0  0  0  0  0
    7.3689  -10.6008    0.0000 P   0  3  0  0  0  0  0  0  0  0  0  0
    7.3602   -9.7759    0.0000 C   0  0  0  0  0  0  0  0  0  0  0  0
    6.6589  -11.0209    0.0000 C   0  0  0  0  0  0  0  0  0  0  0  0
    6.6501  -10.1959    0.0000 C   0  0  0  0  0  0  0  0  0  0  0  0
    8.0702   -9.3559    0.0000 C   0  0  0  0  0  0  0  0  0  0  0  0
    6.6414   -9.3710    0.0000 C   0  0  0  0  0  0  0  0  0  0  0  0
    8.0353  -10.9932    0.0000 Au  0  5  0  0  0  0  0  0  0  0  0  0
    5.9390  -10.6215    0.0000 C   0  0  0  0  0  0  0  0  0  0  0  0
    7.5643  -14.0608    0.0000 H   0  0  0  0  0  0  0  0  0  0  0  0
    7.3499  -14.1828    0.0000 H   0  0  0  0  0  0  0  0  0  0  0  0
    5.9207  -14.1828    0.0000 H   0  0  0  0  0  0  0  0  0  0  0  0
    8.2770  -12.8205    0.0000 H   0  0  0  0  0  0  0  0  0  0  0  0
    4.9945  -12.8240    0.0000 H   0  0  0  0  0  0  0  0  0  0  0  0
    4.2773  -12.4149    0.0000 H   0  0  0  0  0  0  0  0  0  0  0  0
    4.2761  -11.3432    0.0000 H   0  0  0  0  0  0  0  0  0  0  0  0
    2.8487  -10.5179    0.0000 H   0  0  0  0  0  0  0  0  0  0  0  0
    3.7752  -12.1230    0.0000 H   0  0  0  0  0  0  0  0  0  0  0  0
    2.8486  -11.5879    0.0000 H   0  0  0  0  0  0  0  0  0  0  0  0
    2.8489  -13.0005    0.0000 H   0  0  0  0  0  0  0  0  0  0  0  0
    3.7808  -14.6025    0.0000 H   0  0  0  0  0  0  0  0  0  0  0  0
    2.8524  -14.0705    0.0000 H   0  0  0  0  0  0  0  0  0  0  0  0
    5.2089  -13.2836    0.0000 H   0  0  0  0  0  0  0  0  0  0  0  0
    4.2824  -14.8887    0.0000 H   0  0  0  0  0  0  0  0  0  0  0  0
    4.2823  -13.8187    0.0000 H   0  0  0  0  0  0  0  0  0  0  0  0
    9.4924  -14.5979    0.0000 H   0  0  0  0  0  0  0  0  0  0  0  0
   10.4190  -12.9929    0.0000 H   0  0  0  0  0  0  0  0  0  0  0  0
   10.4191  -14.0629    0.0000 H   0  0  0  0  0  0  0  0  0  0  0  0
    6.4280   -9.2507    0.0000 H   0  0  0  0  0  0  0  0  0  0  0  0
    7.3489   -8.7060    0.0000 H   0  0  0  0  0  0  0  0  0  0  0  0
    6.6738  -12.0908    0.0000 H   0  0  0  0  0  0  0  0  0  0  0  0
    5.7406  -11.5702    0.0000 H   0  0  0  0  0  0  0  0  0  0  0  0
    5.7292  -10.7407    0.0000 H   0  0  0  0  0  0  0  0  0  0  0  0
    5.7179   -9.6707    0.0000 H   0  0  0  0  0  0  0  0  0  0  0  0
    9.0025   -9.8811    0.0000 H   0  0  0  0  0  0  0  0  0  0  0  0
    8.0589   -8.2860    0.0000 H   0  0  0  0  0  0  0  0  0  0  0  0
    8.9911   -8.8111    0.0000 H   0  0  0  0  0  0  0  0  0  0  0  0
    7.5624   -8.8263    0.0000 H   0  0  0  0  0  0  0  0  0  0  0  0
    5.7092   -8.8458    0.0000 H   0  0  0  0  0  0  0  0  0  0  0  0
    6.6301   -8.3011    0.0000 H   0  0  0  0  0  0  0  0  0  0  0  0
    5.9207   -9.5517    0.0000 H   0  0  0  0  0  0  0  0  0  0  0  0
    5.0216  -11.1722    0.0000 H   0  0  0  0  0  0  0  0  0  0  0  0
    5.0034  -10.1024    0.0000 H   0  0  0  0  0  0  0  0  0  0  0  0
  1  2  1  0  0  0  0
  1  3  1  0  0  0  0
  1 11  1  0  0  0  0
  1 33  1  6  0  0  0
  2  4  1  0  0  0  0
  2  5  1  0  0  0  0
  2 34  1  1  0  0  0
  3  6  1  0  0  0  0
  3  7  1  0  0  0  0
  3 35  1  1  0  0  0
  4  8  1  0  0  0  0
  4  9  1  0  0  0  0
  4 36  1  6  0  0  0
  5 22  1  0  0  0  0
  6 10  1  0  0  0  0
  6  8  1  0  0  0  0
  6 37  1  6  0  0  0
  7 16  1  0  0  0  0
  9 31  1  0  0  0  0
 10 12  1  0  0  0  0
 10 38  1  0  0  0  0
 10 39  1  0  0  0  0
 11 19  1  0  0  0  0
 12 13  1  0  0  0  0
 13 14  2  0  0  0  0
 13 15  1  0  0  0  0
 15 40  1  0  0  0  0
 15 41  1  0  0  0  0
 15 42  1  0  0  0  0
 16 17  1  0  0  0  0
 16 18  2  0  0  0  0
 17 43  1  0  0  0  0
 17 44  1  0  0  0  0
 17 45  1  0  0  0  0
 19 20  1  0  0  0  0
 19 21  2  0  0  0  0
 20 46  1  0  0  0  0
 20 47  1  0  0  0  0
 20 48  1  0  0  0  0
 22 23  1  0  0  0  0
 22 24  2  0  0  0  0
 23 49  1  0  0  0  0
 23 50  1  0  0  0  0
 23 51  1  0  0  0  0
 25 26  1  0  0  0  0
 25 27  1  0  0  0  0
 25 28  1  0  0  0  0
 25 31  1  0  0  0  0
 26 29  1  0  0  0  0
 26 52  1  0  0  0  0
 26 53  1  0  0  0  0
 27 32  1  0  0  0  0
 27 54  1  0  0  0  0
 27 55  1  0  0  0  0
 28 30  1  0  0  0  0
 28 56  1  0  0  0  0
 28 57  1  0  0  0  0
 29 58  1  0  0  0  0
 29 59  1  0  0  0  0
 29 60  1  0  0  0  0
 30 61  1  0  0  0  0
 30 62  1  0  0  0  0
 30 63  1  0  0  0  0
 32 64  1  0  0  0  0
 32 65  1  0  0  0  0
 32 66  1  0  0  0  0
M  CHG  2  25   1  31  -1
M  END
>  <DRUGBANK_ID>
DB00995

>  <SECONDARY_ACCESSION_NUMBERS>
APRD00808

>  <COMMON_NAME>
Auranofin

>  <CAS_NUMBER>
34031-32-8

>  <UNII>
3H04W2810V

>  <SYNONYMS>
(1-Thio-beta-D-glucopyranosato)(triethylphosphine)gold 2,3,4,6-tetraacetate; 2,3,4,6-Tetra-O-acetyl-1-thio-beta-D-glucopyranosato-S (triethylphosphine)gold; Auranofin; Auranofina; Auranofine; Auranofinum; Triethylphosphine gold

$$$$
