
 OpenBabel10282417072D

 26 26  0  0  0  0  0  0  0  0999 V2000
   -1.7895    0.0000    0.0000 C   0  0  0  0  0  0  0  0  0  0  0  0
   -1.7895   -0.8250    0.0000 C   0  0  0  0  0  0  0  0  0  0  0  0
   -1.0470   -1.2374    0.0000 C   0  0  0  0  0  0  0  0  0  0  0  0
   -0.3458   -0.8250    0.0000 C   0  0  0  0  0  0  0  0  0  0  0  0
   -0.3458    0.0000    0.0000 C   0  0  0  0  0  0  0  0  0  0  0  0
   -1.0470    0.4125    0.0000 C   0  0  0  0  0  0  0  0  0  0  0  0
   -2.4908   -1.2374    0.0000 O   0  0  0  0  0  0  0  0  0  0  0  0
    0.3554    0.4125    0.0000 C   0  0  2  0  0  0  0  0  0  0  0  0
    1.0567    0.0000    0.0000 C   0  0  1  0  0  0  0  0  0  0  0  0
    1.7991    0.4125    0.0000 C   0  0  0  0  0  0  0  0  0  0  0  0
    2.5004    0.0000    0.0000 O   0  0  0  0  0  0  0  0  0  0  0  0
    1.7991    1.2374    0.0000 O   0  0  0  0  0  0  0  0  0  0  0  0
    0.3554    1.2374    0.0000 O   0  0  0  0  0  0  0  0  0  0  0  0
    1.0567   -0.8250    0.0000 N   0  0  0  0  0  0  0  0  0  0  0  0
   -2.5005    0.4184    0.0000 O   0  0  0  0  0  0  0  0  0  0  0  0
   -1.0343   -2.2693    0.0000 H   0  0  0  0  0  0  0  0  0  0  0  0
    0.5500   -1.3374    0.0000 H   0  0  0  0  0  0  0  0  0  0  0  0
   -1.0343    1.4444    0.0000 H   0  0  0  0  0  0  0  0  0  0  0  0
   -3.3060   -0.7754    0.0000 H   0  0  0  0  0  0  0  0  0  0  0  0
   -0.5734    0.9437    0.0000 H   0  0  0  0  0  0  0  0  0  0  0  0
    0.1279   -0.5312    0.0000 H   0  0  0  0  0  0  0  0  0  0  0  0
    2.4928   -0.9370    0.0000 H   0  0  0  0  0  0  0  0  0  0  0  0
    1.1954    1.7224    0.0000 H   0  0  0  0  0  0  0  0  0  0  0  0
    0.1734   -1.3350    0.0000 H   0  0  0  0  0  0  0  0  0  0  0  0
    1.9400   -1.3350    0.0000 H   0  0  0  0  0  0  0  0  0  0  0  0
   -2.4927    1.3554    0.0000 H   0  0  0  0  0  0  0  0  0  0  0  0
  1  2  2  0  0  0  0
  1 15  1  0  0  0  0
  2  3  1  0  0  0  0
  2  7  1  0  0  0  0
  3  4  2  0  0  0  0
  3 16  1  0  0  0  0
  4  5  1  0  0  0  0
  4 17  1  0  0  0  0
  5  8  1  0  0  0  0
  5  6  2  0  0  0  0
  6  1  1  0  0  0  0
  6 18  1  0  0  0  0
  7 19  1  0  0  0  0
  8  9  1  0  0  0  0
  8 13  1  0  0  0  0
  8 20  1  6  0  0  0
  9 10  1  0  0  0  0
  9 14  1  0  0  0  0
  9 21  1  6  0  0  0
 10 11  1  0  0  0  0
 10 12  2  0  0  0  0
 11 22  1  0  0  0  0
 13 23  1  0  0  0  0
 14 24  1  0  0  0  0
 14 25  1  0  0  0  0
 15 26  1  0  0  0  0
M  END
>  <DRUGBANK_ID>
DB06262

>  <COMMON_NAME>
Droxidopa

>  <CAS_NUMBER>
23651-95-8

>  <UNII>
J7A92W69L7

>  <SYNONYMS>
DOPS; Droxidopa; L-Dihydroxyphenylserine; L-DOPS; L-threo-dihydroxyphenylserine

$$$$
