
 OpenBabel10282417072D

 58 61  0  0  0  0  0  0  0  0999 V2000
   -4.6441   -0.4124    0.0000 C   0  0  0  0  0  0  0  0  0  0  0  0
   -5.3585   -0.8249    0.0000 C   0  0  0  0  0  0  0  0  0  0  0  0
   -5.3585   -1.6500    0.0000 C   0  0  0  0  0  0  0  0  0  0  0  0
   -4.6441   -2.0625    0.0000 N   0  0  0  0  0  0  0  0  0  0  0  0
   -3.9296   -1.6500    0.0000 C   0  0  0  0  0  0  0  0  0  0  0  0
   -3.9296   -0.8249    0.0000 N   0  0  0  0  0  0  0  0  0  0  0  0
   -3.2151   -0.4124    0.0000 C   0  0  3  0  0  0  0  0  0  0  0  0
   -2.5007    0.8250    0.0000 C   0  0  0  0  0  0  0  0  0  0  0  0
   -3.2151    0.4125    0.0000 C   0  0  0  0  0  0  0  0  0  0  0  0
   -2.5007   -0.8249    0.0000 C   0  0  0  0  0  0  0  0  0  0  0  0
   -1.7862   -0.4124    0.0000 C   0  0  0  0  0  0  0  0  0  0  0  0
   -1.7862    0.4125    0.0000 N   0  0  0  0  0  0  0  0  0  0  0  0
   -3.2151   -2.0624    0.0000 O   0  0  0  0  0  0  0  0  0  0  0  0
   -1.0716    0.8250    0.0000 C   0  0  0  0  0  0  0  0  0  0  0  0
   -1.0716    1.6500    0.0000 O   0  0  0  0  0  0  0  0  0  0  0  0
   -0.3573    0.4125    0.0000 C   0  0  2  0  0  0  0  0  0  0  0  0
   -0.3573   -0.4124    0.0000 O   0  0  0  0  0  0  0  0  0  0  0  0
    0.3572    0.8250    0.0000 C   0  0  0  0  0  0  0  0  0  0  0  0
    1.0716    0.4125    0.0000 S   0  0  0  0  0  0  0  0  0  0  0  0
    0.6224   -0.2357    0.0000 O   0  0  0  0  0  0  0  0  0  0  0  0
    1.3958   -0.2651    0.0000 O   0  0  0  0  0  0  0  0  0  0  0  0
    1.7862    0.8250    0.0000 C   0  0  0  0  0  0  0  0  0  0  0  0
    2.5006    2.0625    0.0000 C   0  0  0  0  0  0  0  0  0  0  0  0
    1.7862    1.6500    0.0000 C   0  0  0  0  0  0  0  0  0  0  0  0
    2.5006    0.4125    0.0000 C   0  0  0  0  0  0  0  0  0  0  0  0
    3.2151    0.8250    0.0000 C   0  0  0  0  0  0  0  0  0  0  0  0
    3.2151    1.6500    0.0000 C   0  0  0  0  0  0  0  0  0  0  0  0
    3.9296    2.0625    0.0000 C   0  0  0  0  0  0  0  0  0  0  0  0
    3.9296    0.4125    0.0000 C   0  0  0  0  0  0  0  0  0  0  0  0
    4.6440    0.8250    0.0000 C   0  0  0  0  0  0  0  0  0  0  0  0
    4.6440    1.6500    0.0000 C   0  0  0  0  0  0  0  0  0  0  0  0
    5.3584    2.0625    0.0000 Cl  0  0  0  0  0  0  0  0  0  0  0  0
   -4.6441    0.6576    0.0000 H   0  0  0  0  0  0  0  0  0  0  0  0
   -3.7175    0.1226    0.0000 H   0  0  0  0  0  0  0  0  0  0  0  0
   -6.2852   -0.2899    0.0000 H   0  0  0  0  0  0  0  0  0  0  0  0
   -6.2851   -1.3599    0.0000 H   0  0  0  0  0  0  0  0  0  0  0  0
   -6.2852   -2.1850    0.0000 H   0  0  0  0  0  0  0  0  0  0  0  0
   -5.3585   -2.7200    0.0000 H   0  0  0  0  0  0  0  0  0  0  0  0
   -4.6441   -3.0470    0.0000 H   0  0  0  0  0  0  0  0  0  0  0  0
   -4.1417    0.1226    0.0000 H   0  0  0  0  0  0  0  0  0  0  0  0
   -2.5007    1.8950    0.0000 H   0  0  0  0  0  0  0  0  0  0  0  0
   -1.5741    1.3600    0.0000 H   0  0  0  0  0  0  0  0  0  0  0  0
   -4.1418    0.9475    0.0000 H   0  0  0  0  0  0  0  0  0  0  0  0
   -3.2151    1.4825    0.0000 H   0  0  0  0  0  0  0  0  0  0  0  0
   -2.5007   -1.8949    0.0000 H   0  0  0  0  0  0  0  0  0  0  0  0
   -1.5741   -1.3599    0.0000 H   0  0  0  0  0  0  0  0  0  0  0  0
   -0.8596   -0.9474    0.0000 H   0  0  0  0  0  0  0  0  0  0  0  0
   -0.8596    0.1226    0.0000 H   0  0  0  0  0  0  0  0  0  0  0  0
   -1.2840   -0.1225    0.0000 H   0  0  0  0  0  0  0  0  0  0  0  0
   -1.1973   -0.8974    0.0000 H   0  0  0  0  0  0  0  0  0  0  0  0
    0.3572    1.8950    0.0000 H   0  0  0  0  0  0  0  0  0  0  0  0
    1.2839    1.3600    0.0000 H   0  0  0  0  0  0  0  0  0  0  0  0
    2.5006    3.0945    0.0000 H   0  0  0  0  0  0  0  0  0  0  0  0
    0.8925    2.1660    0.0000 H   0  0  0  0  0  0  0  0  0  0  0  0
    2.5006   -0.6195    0.0000 H   0  0  0  0  0  0  0  0  0  0  0  0
    3.9296    3.0945    0.0000 H   0  0  0  0  0  0  0  0  0  0  0  0
    3.9296   -0.6195    0.0000 H   0  0  0  0  0  0  0  0  0  0  0  0
    5.5377    0.3090    0.0000 H   0  0  0  0  0  0  0  0  0  0  0  0
  1  2  1  0  0  0  0
  1  6  1  0  0  0  0
  1 33  1  0  0  0  0
  1 34  1  0  0  0  0
  2  3  1  0  0  0  0
  2 35  1  0  0  0  0
  2 36  1  0  0  0  0
  3  4  1  0  0  0  0
  3 37  1  0  0  0  0
  3 38  1  0  0  0  0
  4  5  1  0  0  0  0
  4 39  1  0  0  0  0
  5  6  1  0  0  0  0
  5 13  2  0  0  0  0
  6  7  1  0  0  0  0
  7 10  1  0  0  0  0
  7 40  1  0  0  0  0
  8  9  1  0  0  0  0
  8 12  1  0  0  0  0
  8 41  1  0  0  0  0
  8 42  1  0  0  0  0
  9  7  1  0  0  0  0
  9 43  1  0  0  0  0
  9 44  1  0  0  0  0
 10 11  1  0  0  0  0
 10 45  1  0  0  0  0
 10 46  1  0  0  0  0
 11 12  1  0  0  0  0
 11 47  1  0  0  0  0
 11 48  1  0  0  0  0
 12 14  1  0  0  0  0
 14 15  2  0  0  0  0
 14 16  1  0  0  0  0
 16 17  1  0  0  0  0
 16 18  1  0  0  0  0
 16 49  1  6  0  0  0
 17 50  1  0  0  0  0
 18 19  1  0  0  0  0
 18 51  1  0  0  0  0
 18 52  1  0  0  0  0
 19 20  2  0  0  0  0
 19 21  2  0  0  0  0
 19 22  1  0  0  0  0
 22 25  1  0  0  0  0
 23 24  1  0  0  0  0
 23 27  2  0  0  0  0
 23 53  1  0  0  0  0
 24 22  2  0  0  0  0
 24 54  1  0  0  0  0
 25 26  2  0  0  0  0
 25 55  1  0  0  0  0
 26 27  1  0  0  0  0
 26 29  1  0  0  0  0
 28 27  1  0  0  0  0
 28 31  2  0  0  0  0
 28 56  1  0  0  0  0
 29 30  2  0  0  0  0
 29 57  1  0  0  0  0
 30 31  1  0  0  0  0
 30 58  1  0  0  0  0
 31 32  1  0  0  0  0
M  END
>  <DRUGBANK_ID>
DB11984

>  <COMMON_NAME>
Letaxaban

>  <CAS_NUMBER>
870262-90-1

>  <UNII>
Y3WB03966W

>  <SYNONYMS>
Letaxaban; Letaxab√°n; Letaxabanum

$$$$
