
 OpenBabel10282417072D

265272  0  0  1  0  0  0  0  0999 V2000
   -0.8424    2.5798    0.0000 C   0  0  1  0  0  0  0  0  0  0  0  0
   -3.9341    3.3937    0.0000 N   0  0  0  0  0  0  0  0  0  0  0  0
   -3.4386    4.1616    0.0000 C   0  0  2  0  0  0  0  0  0  0  0  0
   -3.5952    5.3623    0.0000 C   0  0  2  0  0  0  0  0  0  0  0  0
   -4.3097    5.7749    0.0000 C   0  0  0  0  0  0  0  0  0  0  0  0
   -2.8807    5.7749    0.0000 S   0  0  0  0  0  0  0  0  0  0  0  0
   -1.2529    3.6050    0.0000 N   0  0  0  0  0  0  0  0  0  0  0  0
   -5.0241    2.8873    0.0000 C   0  0  0  0  0  0  0  0  0  0  0  0
   -5.0241    2.0623    0.0000 C   0  0  1  0  0  0  0  0  0  0  0  0
   -5.7385    1.6498    0.0000 N   0  0  0  0  0  0  0  0  0  0  0  0
   -5.7385    0.8248    0.0000 C   0  0  0  0  0  0  0  0  0  0  0  0
   -6.4531    0.4124    0.0000 C   0  0  0  0  0  0  0  0  0  0  0  0
   -6.4531   -0.4125    0.0000 N   0  0  0  0  0  0  0  0  0  0  0  0
   -5.7385   -0.8250    0.0000 C   0  0  0  0  0  0  0  0  0  0  0  0
   -5.7385   -1.6500    0.0000 C   0  0  1  0  0  0  0  0  0  0  0  0
   -5.0241   -2.0624    0.0000 N   0  0  0  0  0  0  0  0  0  0  0  0
   -5.0241   -2.8875    0.0000 C   0  0  0  0  0  0  0  0  0  0  0  0
   -4.3097   -3.3000    0.0000 C   0  0  1  0  0  0  0  0  0  0  0  0
   -4.3097   -4.1248    0.0000 N   0  0  0  0  0  0  0  0  0  0  0  0
   -3.5952   -4.5374    0.0000 C   0  0  0  0  0  0  0  0  0  0  0  0
   -3.5952   -5.3625    0.0000 C   0  0  1  0  0  0  0  0  0  0  0  0
   -2.8807   -5.7750    0.0000 N   0  0  0  0  0  0  0  0  0  0  0  0
   -2.1663   -5.3625    0.0000 C   0  0  0  0  0  0  0  0  0  0  0  0
   -1.4517   -5.7750    0.0000 C   0  0  1  0  0  0  0  0  0  0  0  0
   -0.7374   -5.3625    0.0000 N   0  0  0  0  0  0  0  0  0  0  0  0
   -0.0230   -5.7750    0.0000 C   0  0  0  0  0  0  0  0  0  0  0  0
    0.6916   -5.3625    0.0000 C   0  0  1  0  0  0  0  0  0  0  0  0
    0.6916   -4.5374    0.0000 C   0  0  2  0  0  0  0  0  0  0  0  0
    1.4059   -4.1248    0.0000 C   0  0  0  0  0  0  0  0  0  0  0  0
   -0.0230   -4.1248    0.0000 S   0  0  0  0  0  0  0  0  0  0  0  0
    1.4059   -5.7750    0.0000 N   0  0  0  0  0  0  0  0  0  0  0  0
    2.1205   -5.3625    0.0000 C   0  0  0  0  0  0  0  0  0  0  0  0
    2.8348   -5.7750    0.0000 C   0  0  1  0  0  0  0  0  0  0  0  0
    3.5493   -5.3625    0.0000 N   0  0  0  0  0  0  0  0  0  0  0  0
    4.2639   -5.7750    0.0000 C   0  0  0  0  0  0  0  0  0  0  0  0
    4.9783   -5.3625    0.0000 C   0  0  1  0  0  0  0  0  0  0  0  0
    4.9783   -4.5374    0.0000 N   0  0  0  0  0  0  0  0  0  0  0  0
    5.7628   -4.2825    0.0000 C   0  0  0  0  0  0  0  0  0  0  0  0
    6.2477   -4.9499    0.0000 C   0  0  0  0  0  0  0  0  0  0  0  0
    5.7628   -5.6173    0.0000 C   0  0  0  0  0  0  0  0  0  0  0  0
    4.2639   -4.1248    0.0000 C   0  0  0  0  0  0  0  0  0  0  0  0
    4.2639   -3.3000    0.0000 C   0  0  0  0  0  0  0  0  0  0  0  0
    4.9783   -2.8875    0.0000 N   0  0  0  0  0  0  0  0  0  0  0  0
    4.9783   -2.0624    0.0000 C   0  0  0  0  0  0  0  0  0  0  0  0
    5.6927   -1.6500    0.0000 C   0  0  1  0  0  0  0  0  0  0  0  0
    5.6927   -0.8250    0.0000 N   0  0  0  0  0  0  0  0  0  0  0  0
    6.4072   -0.4125    0.0000 C   0  0  0  0  0  0  0  0  0  0  0  0
    6.4072    0.4124    0.0000 C   0  0  1  0  0  0  0  0  0  0  0  0
    5.6927    0.8248    0.0000 N   0  0  0  0  0  0  0  0  0  0  0  0
    5.6927    1.6498    0.0000 C   0  0  0  0  0  0  0  0  0  0  0  0
    4.9783    2.0623    0.0000 C   0  0  1  0  0  0  0  0  0  0  0  0
    4.9783    2.8873    0.0000 N   0  0  0  0  0  0  0  0  0  0  0  0
    4.2639    3.2998    0.0000 C   0  0  0  0  0  0  0  0  0  0  0  0
    4.2639    4.1248    0.0000 C   0  0  2  0  0  0  0  0  0  0  0  0
    3.5493    4.5373    0.0000 N   0  0  0  0  0  0  0  0  0  0  0  0
    3.5493    5.3623    0.0000 C   0  0  0  0  0  0  0  0  0  0  0  0
    2.8348    5.7749    0.0000 C   0  0  1  0  0  0  0  0  0  0  0  0
    2.1205    5.3623    0.0000 N   0  0  0  0  0  0  0  0  0  0  0  0
    1.4059    5.7749    0.0000 C   0  0  0  0  0  0  0  0  0  0  0  0
    0.6916    5.3623    0.0000 C   0  0  1  0  0  0  0  0  0  0  0  0
   -0.0230    5.7749    0.0000 N   0  0  0  0  0  0  0  0  0  0  0  0
   -0.7374    5.3623    0.0000 C   0  0  0  0  0  0  0  0  0  0  0  0
   -1.4517    5.7749    0.0000 C   0  0  1  0  0  0  0  0  0  0  0  0
   -1.4517    6.5997    0.0000 N   0  0  0  0  0  0  0  0  0  0  0  0
   -2.1663    5.3623    0.0000 C   0  0  0  0  0  0  0  0  0  0  0  0
   -0.7374    4.5373    0.0000 O   0  0  0  0  0  0  0  0  0  0  0  0
    0.6916    4.5373    0.0000 C   0  0  0  0  0  0  0  0  0  0  0  0
    1.4059    4.1248    0.0000 C   0  0  0  0  0  0  0  0  0  0  0  0
    1.4059    3.2998    0.0000 C   0  0  0  0  0  0  0  0  0  0  0  0
    2.1205    2.8873    0.0000 C   0  0  0  0  0  0  0  0  0  0  0  0
    2.8348    3.2998    0.0000 N   0  0  0  0  0  0  0  0  0  0  0  0
    1.4059    6.5997    0.0000 O   0  0  0  0  0  0  0  0  0  0  0  0
    2.8348    6.5997    0.0000 C   0  0  0  0  0  0  0  0  0  0  0  0
    3.5493    7.0124    0.0000 C   0  0  0  0  0  0  0  0  0  0  0  0
    3.5493    7.8372    0.0000 C   0  0  0  0  0  0  0  0  0  0  0  0
    2.8348    8.2498    0.0000 O   0  0  0  0  0  0  0  0  0  0  0  0
    4.2639    8.2498    0.0000 N   0  0  0  0  0  0  0  0  0  0  0  0
    4.2639    5.7749    0.0000 O   0  0  0  0  0  0  0  0  0  0  0  0
    4.9783    4.5373    0.0000 C   0  0  0  0  0  0  0  0  0  0  0  0
    3.4885    3.0176    0.0000 O   0  0  0  0  0  0  0  0  0  0  0  0
    3.3833    1.9190    0.0000 C   0  0  0  0  0  0  0  0  0  0  0  0
    6.4072    2.0623    0.0000 O   0  0  0  0  0  0  0  0  0  0  0  0
    4.9490    0.1931    0.0000 C   0  0  0  0  0  0  0  0  0  0  0  0
    7.1217   -0.8250    0.0000 O   0  0  0  0  0  0  0  0  0  0  0  0
    6.5051   -1.7933    0.0000 C   0  0  0  0  0  0  0  0  0  0  0  0
    6.7873   -2.5685    0.0000 C   0  0  0  0  0  0  0  0  0  0  0  0
    6.2569   -3.2005    0.0000 C   0  0  0  0  0  0  0  0  0  0  0  0
    6.5390   -3.9757    0.0000 C   0  0  0  0  0  0  0  0  0  0  0  0
    7.3518   -4.1190    0.0000 C   0  0  0  0  0  0  0  0  0  0  0  0
    7.8820   -3.4870    0.0000 C   0  0  0  0  0  0  0  0  0  0  0  0
    7.5999   -2.7117    0.0000 C   0  0  0  0  0  0  0  0  0  0  0  0
    4.2639   -1.6500    0.0000 O   0  0  0  0  0  0  0  0  0  0  0  0
    3.5493   -4.5374    0.0000 O   0  0  0  0  0  0  0  0  0  0  0  0
    4.2639   -6.5999    0.0000 O   0  0  0  0  0  0  0  0  0  0  0  0
    2.8348   -6.5999    0.0000 C   0  0  0  0  0  0  0  0  0  0  0  0
    2.1205   -7.0124    0.0000 C   0  0  0  0  0  0  0  0  0  0  0  0
    1.4059   -6.5999    0.0000 C   0  0  0  0  0  0  0  0  0  0  0  0
    0.6916   -7.0124    0.0000 C   0  0  0  0  0  0  0  0  0  0  0  0
    0.6916   -7.8374    0.0000 C   0  0  0  0  0  0  0  0  0  0  0  0
    1.4059   -8.2499    0.0000 C   0  0  0  0  0  0  0  0  0  0  0  0
    2.1205   -7.8374    0.0000 C   0  0  0  0  0  0  0  0  0  0  0  0
    2.1205   -4.5374    0.0000 O   0  0  0  0  0  0  0  0  0  0  0  0
   -0.0230   -6.5999    0.0000 O   0  0  0  0  0  0  0  0  0  0  0  0
   -1.4517   -6.5999    0.0000 C   0  0  0  0  0  0  0  0  0  0  0  0
   -2.1663   -7.0124    0.0000 C   0  0  0  0  0  0  0  0  0  0  0  0
   -2.1663   -7.8374    0.0000 C   0  0  0  0  0  0  0  0  0  0  0  0
   -2.8807   -8.2499    0.0000 C   0  0  0  0  0  0  0  0  0  0  0  0
   -3.5952   -7.8374    0.0000 C   0  0  0  0  0  0  0  0  0  0  0  0
   -3.5952   -7.0124    0.0000 C   0  0  0  0  0  0  0  0  0  0  0  0
   -2.8807   -6.5999    0.0000 C   0  0  0  0  0  0  0  0  0  0  0  0
   -2.1663   -4.5374    0.0000 O   0  0  0  0  0  0  0  0  0  0  0  0
   -4.3097   -5.7750    0.0000 C   0  0  0  0  0  0  0  0  0  0  0  0
   -4.3097   -6.5999    0.0000 C   0  0  0  0  0  0  0  0  0  0  0  0
   -5.0241   -5.3625    0.0000 C   0  0  0  0  0  0  0  0  0  0  0  0
   -2.8807   -4.1248    0.0000 O   0  0  0  0  0  0  0  0  0  0  0  0
   -3.5639   -2.4493    0.0000 C   0  0  0  0  0  0  0  0  0  0  0  0
    3.7865   -1.7663    0.0000 S   0  0  0  0  0  0  0  0  0  0  0  0
   -5.7385   -3.3000    0.0000 O   0  0  0  0  0  0  0  0  0  0  0  0
   -6.4531   -2.0624    0.0000 C   0  0  2  0  0  0  0  0  0  0  0  0
   -7.1675   -1.6500    0.0000 C   0  0  0  0  0  0  0  0  0  0  0  0
   -7.1675   -0.8250    0.0000 O   0  0  0  0  0  0  0  0  0  0  0  0
   -7.8820   -2.0624    0.0000 O   0  0  0  0  0  0  0  0  0  0  0  0
   -6.4531   -2.8875    0.0000 O   0  0  0  0  0  0  0  0  0  0  0  0
   -5.0241   -0.4125    0.0000 O   0  0  0  0  0  0  0  0  0  0  0  0
   -5.0241    0.4124    0.0000 O   0  0  0  0  0  0  0  0  0  0  0  0
   -4.3548    0.5748    0.0000 C   0  0  0  0  0  0  0  0  0  0  0  0
   -3.1229    0.2090    0.0000 C   0  0  0  0  0  0  0  0  0  0  0  0
   -2.7189    0.9283    0.0000 O   0  0  0  0  0  0  0  0  0  0  0  0
   -2.7021   -0.5004    0.0000 N   0  0  0  0  0  0  0  0  0  0  0  0
   -5.7385    3.2998    0.0000 O   0  0  0  0  0  0  0  0  0  0  0  0
    0.2397    2.2564    0.0000 C   0  0  0  0  0  0  0  0  0  0  0  0
    0.5270    1.2720    0.0000 C   0  0  0  0  0  0  0  0  0  0  0  0
    1.7983    1.7647    0.0000 C   0  0  0  0  0  0  0  0  0  0  0  0
    2.5141    0.7618    0.0000 C   0  0  0  0  0  0  0  0  0  0  0  0
    3.9835    1.0824    0.0000 N   0  0  0  0  0  0  0  0  0  0  0  0
   -1.2680    1.4103    0.0000 O   0  0  0  0  0  0  0  0  0  0  0  0
   -2.3466    2.0293    0.0000 O   0  0  0  0  0  0  0  0  0  0  0  0
   -1.5639    1.9680    0.0000 C   0  0  0  0  0  0  0  0  0  0  0  0
   -2.6683    2.9560    0.0000 O   0  0  0  0  0  0  0  0  0  0  0  0
   -2.3273    3.6050    0.0000 C   0  0  0  0  0  0  0  0  0  0  0  0
   -0.6231    1.5325    0.0000 H   0  0  0  0  0  0  0  0  0  0  0  0
   -3.2877    2.6512    0.0000 H   0  0  0  0  0  0  0  0  0  0  0  0
   -2.5666    4.7816    0.0000 H   0  0  0  0  0  0  0  0  0  0  0  0
   -4.4853    4.7684    0.0000 H   0  0  0  0  0  0  0  0  0  0  0  0
   -4.3096    6.8449    0.0000 H   0  0  0  0  0  0  0  0  0  0  0  0
   -5.2364    5.2400    0.0000 H   0  0  0  0  0  0  0  0  0  0  0  0
   -5.2363    6.3100    0.0000 H   0  0  0  0  0  0  0  0  0  0  0  0
   -0.7011    4.4203    0.0000 H   0  0  0  0  0  0  0  0  0  0  0  0
   -3.9779    2.2868    0.0000 H   0  0  0  0  0  0  0  0  0  0  0  0
   -6.5911    2.1420    0.0000 H   0  0  0  0  0  0  0  0  0  0  0  0
   -7.3797    0.9475    0.0000 H   0  0  0  0  0  0  0  0  0  0  0  0
   -7.3798   -0.1226    0.0000 H   0  0  0  0  0  0  0  0  0  0  0  0
   -7.3057   -0.9048    0.0000 H   0  0  0  0  0  0  0  0  0  0  0  0
   -4.8119   -1.1150    0.0000 H   0  0  0  0  0  0  0  0  0  0  0  0
   -4.1715   -1.5701    0.0000 H   0  0  0  0  0  0  0  0  0  0  0  0
   -4.4841   -2.2443    0.0000 H   0  0  0  0  0  0  0  0  0  0  0  0
   -5.1623   -4.6170    0.0000 H   0  0  0  0  0  0  0  0  0  0  0  0
   -4.5218   -4.8275    0.0000 H   0  0  0  0  0  0  0  0  0  0  0  0
   -2.8807   -6.7595    0.0000 H   0  0  0  0  0  0  0  0  0  0  0  0
   -2.3783   -6.3100    0.0000 H   0  0  0  0  0  0  0  0  0  0  0  0
   -0.7374   -4.3780    0.0000 H   0  0  0  0  0  0  0  0  0  0  0  0
    0.6915   -6.4325    0.0000 H   0  0  0  0  0  0  0  0  0  0  0  0
   -0.2351   -5.0724    0.0000 H   0  0  0  0  0  0  0  0  0  0  0  0
    2.3327   -4.6596    0.0000 H   0  0  0  0  0  0  0  0  0  0  0  0
    1.4057   -3.0548    0.0000 H   0  0  0  0  0  0  0  0  0  0  0  0
    2.3324   -3.5896    0.0000 H   0  0  0  0  0  0  0  0  0  0  0  0
    1.4058   -6.7595    0.0000 H   0  0  0  0  0  0  0  0  0  0  0  0
    1.9081   -6.3100    0.0000 H   0  0  0  0  0  0  0  0  0  0  0  0
    3.5493   -4.3780    0.0000 H   0  0  0  0  0  0  0  0  0  0  0  0
    5.0902   -6.4266    0.0000 H   0  0  0  0  0  0  0  0  0  0  0  0
    6.0934   -3.2649    0.0000 H   0  0  0  0  0  0  0  0  0  0  0  0
    6.8196   -4.1151    0.0000 H   0  0  0  0  0  0  0  0  0  0  0  0
    7.3177   -4.9499    0.0000 H   0  0  0  0  0  0  0  0  0  0  0  0
    6.7335   -5.9033    0.0000 H   0  0  0  0  0  0  0  0  0  0  0  0
    6.0935   -6.6349    0.0000 H   0  0  0  0  0  0  0  0  0  0  0  0
    5.0063   -6.3740    0.0000 H   0  0  0  0  0  0  0  0  0  0  0  0
    3.3372   -2.7650    0.0000 H   0  0  0  0  0  0  0  0  0  0  0  0
    4.2639   -2.2300    0.0000 H   0  0  0  0  0  0  0  0  0  0  0  0
    5.8309   -3.3797    0.0000 H   0  0  0  0  0  0  0  0  0  0  0  0
    5.8784   -2.7038    0.0000 H   0  0  0  0  0  0  0  0  0  0  0  0
    4.8401   -0.3327    0.0000 H   0  0  0  0  0  0  0  0  0  0  0  0
    5.7091   -0.3985    0.0000 H   0  0  0  0  0  0  0  0  0  0  0  0
    4.8401    0.3325    0.0000 H   0  0  0  0  0  0  0  0  0  0  0  0
    4.7479    1.0174    0.0000 H   0  0  0  0  0  0  0  0  0  0  0  0
    5.8309    3.3795    0.0000 H   0  0  0  0  0  0  0  0  0  0  0  0
    5.1906    3.5898    0.0000 H   0  0  0  0  0  0  0  0  0  0  0  0
    2.6967    4.0450    0.0000 H   0  0  0  0  0  0  0  0  0  0  0  0
    3.7615    6.3099    0.0000 H   0  0  0  0  0  0  0  0  0  0  0  0
    2.1206    4.3778    0.0000 H   0  0  0  0  0  0  0  0  0  0  0  0
    1.6183    4.8274    0.0000 H   0  0  0  0  0  0  0  0  0  0  0  0
   -0.0231    6.7594    0.0000 H   0  0  0  0  0  0  0  0  0  0  0  0
   -0.5250    6.3098    0.0000 H   0  0  0  0  0  0  0  0  0  0  0  0
   -0.5684    7.1097    0.0000 H   0  0  0  0  0  0  0  0  0  0  0  0
   -2.3350    7.1097    0.0000 H   0  0  0  0  0  0  0  0  0  0  0  0
   -2.1664    4.2923    0.0000 H   0  0  0  0  0  0  0  0  0  0  0  0
   -3.0930    4.8274    0.0000 H   0  0  0  0  0  0  0  0  0  0  0  0
   -0.2351    4.0023    0.0000 H   0  0  0  0  0  0  0  0  0  0  0  0
    0.6915    3.4673    0.0000 H   0  0  0  0  0  0  0  0  0  0  0  0
    2.3326    4.6598    0.0000 H   0  0  0  0  0  0  0  0  0  0  0  0
    2.3325    3.5898    0.0000 H   0  0  0  0  0  0  0  0  0  0  0  0
    0.4793    2.7648    0.0000 H   0  0  0  0  0  0  0  0  0  0  0  0
    1.4060    2.2298    0.0000 H   0  0  0  0  0  0  0  0  0  0  0  0
    2.1206    1.8173    0.0000 H   0  0  0  0  0  0  0  0  0  0  0  0
    3.0472    2.3524    0.0000 H   0  0  0  0  0  0  0  0  0  0  0  0
    3.7182    2.7899    0.0000 H   0  0  0  0  0  0  0  0  0  0  0  0
    2.8347    4.3198    0.0000 H   0  0  0  0  0  0  0  0  0  0  0  0
    1.9081    7.1346    0.0000 H   0  0  0  0  0  0  0  0  0  0  0  0
    2.8346    7.6697    0.0000 H   0  0  0  0  0  0  0  0  0  0  0  0
    4.4760    6.4775    0.0000 H   0  0  0  0  0  0  0  0  0  0  0  0
    4.4759    7.5474    0.0000 H   0  0  0  0  0  0  0  0  0  0  0  0
    5.1165    7.7576    0.0000 H   0  0  0  0  0  0  0  0  0  0  0  0
    4.2639    9.2343    0.0000 H   0  0  0  0  0  0  0  0  0  0  0  0
    5.5974    5.4100    0.0000 H   0  0  0  0  0  0  0  0  0  0  0  0
    5.9630    4.1187    0.0000 H   0  0  0  0  0  0  0  0  0  0  0  0
    2.8027    2.8178    0.0000 H   0  0  0  0  0  0  0  0  0  0  0  0
    2.3138    1.8867    0.0000 H   0  0  0  0  0  0  0  0  0  0  0  0
    4.6353   -0.8299    0.0000 H   0  0  0  0  0  0  0  0  0  0  0  0
    3.9162   -0.0866    0.0000 H   0  0  0  0  0  0  0  0  0  0  0  0
    7.1929   -0.9736    0.0000 H   0  0  0  0  0  0  0  0  0  0  0  0
    7.5588   -1.9791    0.0000 H   0  0  0  0  0  0  0  0  0  0  0  0
    5.2406   -3.0212    0.0000 H   0  0  0  0  0  0  0  0  0  0  0  0
    5.8756   -4.7662    0.0000 H   0  0  0  0  0  0  0  0  0  0  0  0
    7.7048   -5.0887    0.0000 H   0  0  0  0  0  0  0  0  0  0  0  0
    8.8983   -3.6662    0.0000 H   0  0  0  0  0  0  0  0  0  0  0  0
    8.2633   -1.9211    0.0000 H   0  0  0  0  0  0  0  0  0  0  0  0
    3.7615   -7.1349    0.0000 H   0  0  0  0  0  0  0  0  0  0  0  0
    2.8349   -7.6699    0.0000 H   0  0  0  0  0  0  0  0  0  0  0  0
    1.4058   -5.5679    0.0000 H   0  0  0  0  0  0  0  0  0  0  0  0
   -0.2022   -6.4964    0.0000 H   0  0  0  0  0  0  0  0  0  0  0  0
   -0.2022   -8.3534    0.0000 H   0  0  0  0  0  0  0  0  0  0  0  0
    1.4058   -9.2819    0.0000 H   0  0  0  0  0  0  0  0  0  0  0  0
    3.0142   -8.3534    0.0000 H   0  0  0  0  0  0  0  0  0  0  0  0
   -0.5251   -7.1349    0.0000 H   0  0  0  0  0  0  0  0  0  0  0  0
   -1.4518   -7.6699    0.0000 H   0  0  0  0  0  0  0  0  0  0  0  0
   -1.2726   -8.3534    0.0000 H   0  0  0  0  0  0  0  0  0  0  0  0
   -2.8807   -9.2819    0.0000 H   0  0  0  0  0  0  0  0  0  0  0  0
   -4.4889   -8.3534    0.0000 H   0  0  0  0  0  0  0  0  0  0  0  0
   -4.4889   -6.4964    0.0000 H   0  0  0  0  0  0  0  0  0  0  0  0
   -2.8807   -5.5679    0.0000 H   0  0  0  0  0  0  0  0  0  0  0  0
   -5.2364   -6.3100    0.0000 H   0  0  0  0  0  0  0  0  0  0  0  0
   -5.2363   -7.1349    0.0000 H   0  0  0  0  0  0  0  0  0  0  0  0
   -3.3831   -7.1349    0.0000 H   0  0  0  0  0  0  0  0  0  0  0  0
   -4.3097   -7.6699    0.0000 H   0  0  0  0  0  0  0  0  0  0  0  0
   -5.0241   -4.2925    0.0000 H   0  0  0  0  0  0  0  0  0  0  0  0
   -5.9508   -5.8975    0.0000 H   0  0  0  0  0  0  0  0  0  0  0  0
   -5.9507   -4.8275    0.0000 H   0  0  0  0  0  0  0  0  0  0  0  0
   -4.0502   -1.4962    0.0000 H   0  0  0  0  0  0  0  0  0  0  0  0
   -3.0480   -1.5119    0.0000 H   0  0  0  0  0  0  0  0  0  0  0  0
   -5.5265   -2.5975    0.0000 H   0  0  0  0  0  0  0  0  0  0  0  0
   -8.6934   -1.5938    0.0000 H   0  0  0  0  0  0  0  0  0  0  0  0
   -7.2931   -3.3725    0.0000 H   0  0  0  0  0  0  0  0  0  0  0  0
   -5.0590   -0.2308    0.0000 H   0  0  0  0  0  0  0  0  0  0  0  0
   -4.0571   -0.4530    0.0000 H   0  0  0  0  0  0  0  0  0  0  0  0
   -3.1843   -1.3587    0.0000 H   0  0  0  0  0  0  0  0  0  0  0  0
   -1.7177   -0.4888    0.0000 H   0  0  0  0  0  0  0  0  0  0  0  0
    0.9987    3.0106    0.0000 H   0  0  0  0  0  0  0  0  0  0  0  0
    1.2758    1.9893    0.0000 H   0  0  0  0  0  0  0  0  0  0  0  0
    0.0534    0.3125    0.0000 H   0  0  0  0  0  0  0  0  0  0  0  0
    1.2493    0.4826    0.0000 H   0  0  0  0  0  0  0  0  0  0  0  0
    2.1049    2.7898    0.0000 H   0  0  0  0  0  0  0  0  0  0  0  0
    2.8538    1.9401    0.0000 H   0  0  0  0  0  0  0  0  0  0  0  0
    2.1291   -0.2365    0.0000 H   0  0  0  0  0  0  0  0  0  0  0  0
    3.2106   -0.0505    0.0000 H   0  0  0  0  0  0  0  0  0  0  0  0
    4.2504    2.0669    0.0000 H   0  0  0  0  0  0  0  0  0  0  0  0
   -2.7503    2.8749    0.0000 H   0  0  0  0  0  0  0  0  0  0  0  0
  1138  1  0  0  0  0
  1131  1  0  0  0  0
  1  7  1  0  0  0  0
  1141  1  6  0  0  0
  2  8  1  0  0  0  0
  2  3  1  0  0  0  0
  2142  1  0  0  0  0
  3  4  1  0  0  0  0
  3140  1  0  0  0  0
  3143  1  1  0  0  0
  4  5  1  0  0  0  0
  4  6  1  0  0  0  0
  4144  1  1  0  0  0
  5145  1  0  0  0  0
  5146  1  0  0  0  0
  5147  1  0  0  0  0
  7148  1  0  0  0  0
  8  9  1  0  0  0  0
  8130  2  0  0  0  0
  9126  1  0  0  0  0
  9149  1  1  0  0  0
 10  9  1  0  0  0  0
 10 11  1  0  0  0  0
 10150  1  0  0  0  0
 11 12  1  0  0  0  0
 11125  2  0  0  0  0
 12151  1  0  0  0  0
 12152  1  0  0  0  0
 13 12  1  0  0  0  0
 13 14  1  0  0  0  0
 13153  1  0  0  0  0
 14 15  1  0  0  0  0
 14124  2  0  0  0  0
 15 16  1  0  0  0  0
 15119  1  0  0  0  0
 15154  1  6  0  0  0
 16 17  1  0  0  0  0
 16155  1  0  0  0  0
 17 18  1  0  0  0  0
 17118  2  0  0  0  0
 18116  1  0  0  0  0
 18156  1  1  0  0  0
 19 18  1  0  0  0  0
 19 20  1  0  0  0  0
 19157  1  0  0  0  0
 20 21  1  0  0  0  0
 20115  2  0  0  0  0
 21112  1  0  0  0  0
 21158  1  6  0  0  0
 22 21  1  0  0  0  0
 22 23  1  0  0  0  0
 22159  1  0  0  0  0
 23 24  1  0  0  0  0
 23111  2  0  0  0  0
 24104  1  0  0  0  0
 24160  1  6  0  0  0
 25 24  1  0  0  0  0
 25 26  1  0  0  0  0
 25161  1  0  0  0  0
 26 27  1  0  0  0  0
 26103  2  0  0  0  0
 27 28  1  0  0  0  0
 27 31  1  0  0  0  0
 27162  1  6  0  0  0
 28 29  1  0  0  0  0
 28 30  1  0  0  0  0
 28163  1  6  0  0  0
 29164  1  0  0  0  0
 29165  1  0  0  0  0
 29166  1  0  0  0  0
 31 32  1  0  0  0  0
 31167  1  0  0  0  0
 32 33  1  0  0  0  0
 32102  2  0  0  0  0
 33 95  1  0  0  0  0
 33168  1  6  0  0  0
 34 33  1  0  0  0  0
 34 35  1  0  0  0  0
 34169  1  0  0  0  0
 35 94  2  0  0  0  0
 36 35  1  0  0  0  0
 36 40  1  0  0  0  0
 36170  1  6  0  0  0
 37 36  1  0  0  0  0
 37 38  1  0  0  0  0
 37 41  1  0  0  0  0
 38171  1  0  0  0  0
 38172  1  0  0  0  0
 39 38  1  0  0  0  0
 39173  1  0  0  0  0
 39174  1  0  0  0  0
 40 39  1  0  0  0  0
 40175  1  0  0  0  0
 40176  1  0  0  0  0
 41 42  1  0  0  0  0
 41 93  2  0  0  0  0
 42177  1  0  0  0  0
 42178  1  0  0  0  0
 43 42  1  0  0  0  0
 43 44  1  0  0  0  0
 43179  1  0  0  0  0
 44 45  1  0  0  0  0
 44 92  2  0  0  0  0
 45 46  1  0  0  0  0
 45 85  1  0  0  0  0
 45180  1  6  0  0  0
 46 47  1  0  0  0  0
 46181  1  0  0  0  0
 47 48  1  0  0  0  0
 47 84  2  0  0  0  0
 48 49  1  0  0  0  0
 48 83  1  0  0  0  0
 48182  1  1  0  0  0
 49 50  1  0  0  0  0
 49183  1  0  0  0  0
 50 51  1  0  0  0  0
 50 82  2  0  0  0  0
 51 52  1  0  0  0  0
 51 81  1  0  0  0  0
 51184  1  1  0  0  0
 52 53  1  0  0  0  0
 52185  1  0  0  0  0
 53 54  1  0  0  0  0
 53 80  2  0  0  0  0
 54 55  1  0  0  0  0
 54 79  1  0  0  0  0
 54186  1  1  0  0  0
 55 56  1  0  0  0  0
 55187  1  0  0  0  0
 56 57  1  0  0  0  0
 56 78  2  0  0  0  0
 57 58  1  0  0  0  0
 57 73  1  0  0  0  0
 57188  1  6  0  0  0
 58 59  1  0  0  0  0
 58189  1  0  0  0  0
 59 60  1  0  0  0  0
 59 72  2  0  0  0  0
 60 61  1  0  0  0  0
 60 67  1  0  0  0  0
 60190  1  1  0  0  0
 61 62  1  0  0  0  0
 61191  1  0  0  0  0
 62 63  1  0  0  0  0
 62 66  2  0  0  0  0
 63 64  1  0  0  0  0
 63 65  1  0  0  0  0
 63192  1  1  0  0  0
 64193  1  0  0  0  0
 64194  1  0  0  0  0
 65  6  1  0  0  0  0
 65195  1  0  0  0  0
 65196  1  0  0  0  0
 67 68  1  0  0  0  0
 67197  1  0  0  0  0
 67198  1  0  0  0  0
 68 69  1  0  0  0  0
 68199  1  0  0  0  0
 68200  1  0  0  0  0
 69 70  1  0  0  0  0
 69201  1  0  0  0  0
 69202  1  0  0  0  0
 70 71  1  0  0  0  0
 70203  1  0  0  0  0
 70204  1  0  0  0  0
 71205  1  0  0  0  0
 71206  1  0  0  0  0
 73 74  1  0  0  0  0
 73207  1  0  0  0  0
 73208  1  0  0  0  0
 74 75  1  0  0  0  0
 74209  1  0  0  0  0
 74210  1  0  0  0  0
 75 76  2  0  0  0  0
 75 77  1  0  0  0  0
 77211  1  0  0  0  0
 77212  1  0  0  0  0
 79117  1  0  0  0  0
 79213  1  0  0  0  0
 79214  1  0  0  0  0
 81 30  1  0  0  0  0
 81215  1  0  0  0  0
 81216  1  0  0  0  0
 83135  1  0  0  0  0
 83217  1  0  0  0  0
 83218  1  0  0  0  0
 85 86  1  0  0  0  0
 85219  1  0  0  0  0
 85220  1  0  0  0  0
 86 87  1  0  0  0  0
 86 91  2  0  0  0  0
 87 88  2  0  0  0  0
 87221  1  0  0  0  0
 88 89  1  0  0  0  0
 88222  1  0  0  0  0
 89 90  2  0  0  0  0
 89223  1  0  0  0  0
 90 91  1  0  0  0  0
 90224  1  0  0  0  0
 91225  1  0  0  0  0
 95 96  1  0  0  0  0
 95226  1  0  0  0  0
 95227  1  0  0  0  0
 96 97  1  0  0  0  0
 96101  2  0  0  0  0
 97 98  2  0  0  0  0
 97228  1  0  0  0  0
 98 99  1  0  0  0  0
 98229  1  0  0  0  0
 99100  2  0  0  0  0
 99230  1  0  0  0  0
100101  1  0  0  0  0
100231  1  0  0  0  0
101232  1  0  0  0  0
104105  1  0  0  0  0
104233  1  0  0  0  0
104234  1  0  0  0  0
105106  1  0  0  0  0
105110  2  0  0  0  0
106107  2  0  0  0  0
106235  1  0  0  0  0
107108  1  0  0  0  0
107236  1  0  0  0  0
108109  2  0  0  0  0
108237  1  0  0  0  0
109110  1  0  0  0  0
109238  1  0  0  0  0
110239  1  0  0  0  0
112113  1  0  0  0  0
112114  1  0  0  0  0
112240  1  0  0  0  0
113241  1  0  0  0  0
113242  1  0  0  0  0
113243  1  0  0  0  0
114244  1  0  0  0  0
114245  1  0  0  0  0
114246  1  0  0  0  0
116117  1  0  0  0  0
116247  1  0  0  0  0
116248  1  0  0  0  0
119120  1  0  0  0  0
119123  1  0  0  0  0
119249  1  6  0  0  0
120121  2  0  0  0  0
120122  1  0  0  0  0
122250  1  0  0  0  0
123251  1  0  0  0  0
126127  1  0  0  0  0
126252  1  0  0  0  0
126253  1  0  0  0  0
127128  2  0  0  0  0
127129  1  0  0  0  0
129254  1  0  0  0  0
129255  1  0  0  0  0
131132  1  0  0  0  0
131256  1  0  0  0  0
131257  1  0  0  0  0
132133  1  0  0  0  0
132258  1  0  0  0  0
132259  1  0  0  0  0
133134  1  0  0  0  0
133260  1  0  0  0  0
133261  1  0  0  0  0
134135  1  0  0  0  0
134262  1  0  0  0  0
134263  1  0  0  0  0
135264  1  0  0  0  0
137265  1  0  0  0  0
138136  2  0  0  0  0
138137  1  0  0  0  0
140139  2  0  0  0  0
140  7  1  0  0  0  0
M  END
>  <DRUGBANK_ID>
DB05029

>  <COMMON_NAME>
Lancovutide

>  <CAS_NUMBER>
1391-36-2

>  <UNII>
BPR0F3X56H

>  <SYNONYMS>
Duramycin; Lancovutide; Leucopeptin

$$$$
