
 OpenBabel10282417072D

 22 22  0  0  0  0  0  0  0  0999 V2000
    0.7145   -1.2375    0.0000 C   0  0  0  0  0  0  0  0  0  0  0  0
    1.4289   -0.0000    0.0000 C   0  0  0  0  0  0  0  0  0  0  0  0
    0.0000   -0.0000    0.0000 C   0  0  0  0  0  0  0  0  0  0  0  0
    1.4289    0.8250    0.0000 C   0  0  0  0  0  0  0  0  0  0  0  0
    0.0000    0.8250    0.0000 C   0  0  0  0  0  0  0  0  0  0  0  0
    0.7145    2.0625    0.0000 C   0  0  0  0  0  0  0  0  0  0  0  0
    0.7145   -0.4125    0.0000 N   0  0  0  0  0  0  0  0  0  0  0  0
    0.7145    1.2375    0.0000 N   0  0  0  0  0  0  0  0  0  0  0  0
   -0.0000    2.4750    0.0000 O   0  0  0  0  0  0  0  0  0  0  0  0
    1.4289    2.4750    0.0000 O   0  0  0  0  0  0  0  0  0  0  0  0
   -0.2121   -1.7725    0.0000 H   0  0  0  0  0  0  0  0  0  0  0  0
    1.6411   -1.7725    0.0000 H   0  0  0  0  0  0  0  0  0  0  0  0
    0.7145   -2.3075    0.0000 H   0  0  0  0  0  0  0  0  0  0  0  0
    2.3556   -0.5350    0.0000 H   0  0  0  0  0  0  0  0  0  0  0  0
    1.4289   -1.0700    0.0000 H   0  0  0  0  0  0  0  0  0  0  0  0
   -0.9266   -0.5350    0.0000 H   0  0  0  0  0  0  0  0  0  0  0  0
    0.0000   -1.0700    0.0000 H   0  0  0  0  0  0  0  0  0  0  0  0
    2.3556    1.3600    0.0000 H   0  0  0  0  0  0  0  0  0  0  0  0
    1.4289    1.8950    0.0000 H   0  0  0  0  0  0  0  0  0  0  0  0
   -0.9266    1.3600    0.0000 H   0  0  0  0  0  0  0  0  0  0  0  0
    0.0000    1.8950    0.0000 H   0  0  0  0  0  0  0  0  0  0  0  0
    2.2404    2.0065    0.0000 H   0  0  0  0  0  0  0  0  0  0  0  0
  1 11  1  0  0  0  0
  1 12  1  0  0  0  0
  1 13  1  0  0  0  0
  2 14  1  0  0  0  0
  2 15  1  0  0  0  0
  3 16  1  0  0  0  0
  3 17  1  0  0  0  0
  4  2  1  0  0  0  0
  4 18  1  0  0  0  0
  4 19  1  0  0  0  0
  5  3  1  0  0  0  0
  5 20  1  0  0  0  0
  5 21  1  0  0  0  0
  7  1  1  0  0  0  0
  7  2  1  0  0  0  0
  7  3  1  0  0  0  0
  8  4  1  0  0  0  0
  8  5  1  0  0  0  0
  8  6  1  0  0  0  0
  9  6  2  0  0  0  0
 10  6  1  0  0  0  0
 10 22  1  0  0  0  0
M  END
>  <DRUGBANK_ID>
DB04451

>  <SECONDARY_ACCESSION_NUMBERS>
EXPT02419

>  <COMMON_NAME>
4-Methylpiperazin-1-Yl Carbonyl Group

$$$$
