LGB
 OpenBabel10282417072D

 37 39  0  0  0  0  0  0  0  0999 V2000
   -1.4177   -0.2201    0.0000 C   0  0  0  0  0  0  0  0  0  0  0  0
   -0.6331   -0.4750    0.0000 N   0  0  0  0  0  0  0  0  0  0  0  0
   -0.6331   -1.3000    0.0000 C   0  0  1  0  0  0  0  0  0  0  0  0
   -1.4177   -1.5549    0.0000 C   0  0  2  0  0  0  0  0  0  0  0  0
   -1.9026   -0.8875    0.0000 C   0  0  0  0  0  0  0  0  0  0  0  0
    0.1516   -0.2201    0.0000 C   0  0  0  0  0  0  0  0  0  0  0  0
    0.6365   -0.8875    0.0000 O   0  0  0  0  0  0  0  0  0  0  0  0
    0.1516   -1.5549    0.0000 C   0  0  1  0  0  0  0  0  0  0  0  0
    0.4065    0.5646    0.0000 N   0  0  0  0  0  0  0  0  0  0  0  0
    1.2135    0.7361    0.0000 C   0  0  0  0  0  0  0  0  0  0  0  0
    1.4684    1.5207    0.0000 C   0  0  0  0  0  0  0  0  0  0  0  0
    2.2754    1.6922    0.0000 C   0  0  0  0  0  0  0  0  0  0  0  0
    2.8274    1.0791    0.0000 C   0  0  0  0  0  0  0  0  0  0  0  0
    2.5725    0.2945    0.0000 C   0  0  0  0  0  0  0  0  0  0  0  0
    1.7655    0.1230    0.0000 C   0  0  0  0  0  0  0  0  0  0  0  0
    0.9164    2.1338    0.0000 C   0  0  0  0  0  0  0  0  0  0  0  0
    2.5303    2.4769    0.0000 Cl  0  0  0  0  0  0  0  0  0  0  0  0
   -1.6726   -2.3396    0.0000 O   0  0  0  0  0  0  0  0  0  0  0  0
    3.6344    1.2507    0.0000 C   0  0  0  0  0  0  0  0  0  0  0  0
    4.4413    1.4222    0.0000 N   0  0  0  0  0  0  0  0  0  0  0  0
    0.4065   -2.3396    0.0000 C   0  0  0  0  0  0  0  0  0  0  0  0
    0.6614   -3.1242    0.0000 F   0  0  0  0  0  0  0  0  0  0  0  0
   -0.3781   -2.5945    0.0000 F   0  0  0  0  0  0  0  0  0  0  0  0
    1.1911   -2.0846    0.0000 F   0  0  0  0  0  0  0  0  0  0  0  0
   -0.6331   -1.8839    0.0000 H   0  0  0  0  0  0  0  0  0  0  0  0
   -1.0048   -1.9678    0.0000 H   0  0  0  0  0  0  0  0  0  0  0  0
   -0.2613   -1.9678    0.0000 H   0  0  0  0  0  0  0  0  0  0  0  0
   -1.7484    0.7975    0.0000 H   0  0  0  0  0  0  0  0  0  0  0  0
   -2.4745   -0.0527    0.0000 H   0  0  0  0  0  0  0  0  0  0  0  0
   -2.9726   -0.8875    0.0000 H   0  0  0  0  0  0  0  0  0  0  0  0
   -2.3884   -1.8409    0.0000 H   0  0  0  0  0  0  0  0  0  0  0  0
    3.2630   -0.4724    0.0000 H   0  0  0  0  0  0  0  0  0  0  0  0
    1.4466   -0.8585    0.0000 H   0  0  0  0  0  0  0  0  0  0  0  0
    1.2471    3.1514    0.0000 H   0  0  0  0  0  0  0  0  0  0  0  0
   -0.1302    1.9114    0.0000 H   0  0  0  0  0  0  0  0  0  0  0  0
    0.2005    2.9290    0.0000 H   0  0  0  0  0  0  0  0  0  0  0  0
   -2.6214   -2.5413    0.0000 H   0  0  0  0  0  0  0  0  0  0  0  0
  1  2  1  0  0  0  0
  1 28  1  0  0  0  0
  1 29  1  0  0  0  0
  3  2  1  0  0  0  0
  3  8  1  0  0  0  0
  3 25  1  1  0  0  0
  4  3  1  0  0  0  0
  4 18  1  0  0  0  0
  4 26  1  6  0  0  0
  5  1  1  0  0  0  0
  5  4  1  0  0  0  0
  5 30  1  0  0  0  0
  5 31  1  0  0  0  0
  6  2  1  0  0  0  0
  6  7  1  0  0  0  0
  7  8  1  0  0  0  0
  8 21  1  0  0  0  0
  8 27  1  6  0  0  0
  9  6  2  0  0  0  0
 10  9  1  0  0  0  0
 10 11  1  0  0  0  0
 11 16  1  0  0  0  0
 12 11  2  0  0  0  0
 12 17  1  0  0  0  0
 13 12  1  0  0  0  0
 14 13  2  0  0  0  0
 14 15  1  0  0  0  0
 14 32  1  0  0  0  0
 15 10  2  0  0  0  0
 15 33  1  0  0  0  0
 16 34  1  0  0  0  0
 16 35  1  0  0  0  0
 16 36  1  0  0  0  0
 18 37  1  0  0  0  0
 19 13  1  0  0  0  0
 20 19  3  0  0  0  0
 21 22  1  0  0  0  0
 21 24  1  0  0  0  0
 21 23  1  0  0  0  0
M  END
>  <DRUGBANK_ID>
DB08088

>  <COMMON_NAME>
2-chloro-4-{[(1R,3Z,7S,7aS)-7-hydroxy-1-(trifluoromethyl)tetrahydro-1H-pyrrolo[1,2-c][1,3]oxazol-3-ylidene]amino}-3-methylbenzonitrile

$$$$
