
 OpenBabel10282417072D

 73 76  0  0  0  0  0  0  0  0999 V2000
   -1.4289   -1.6500    0.0000 C   0  0  0  0  0  0  0  0  0  0  0  0
   -1.4289   -2.4750    0.0000 C   0  0  0  0  0  0  0  0  0  0  0  0
   -2.1434   -2.8875    0.0000 C   0  0  0  0  0  0  0  0  0  0  0  0
   -2.1434   -3.7125    0.0000 C   0  0  0  0  0  0  0  0  0  0  0  0
   -1.4289   -4.1250    0.0000 C   0  0  0  0  0  0  0  0  0  0  0  0
   -0.7144   -3.7125    0.0000 C   0  0  0  0  0  0  0  0  0  0  0  0
   -0.7144   -2.8875    0.0000 C   0  0  0  0  0  0  0  0  0  0  0  0
    0.0000   -2.4750    0.0000 C   0  0  0  0  0  0  0  0  0  0  0  0
    0.0000   -1.6500    0.0000 C   0  0  0  0  0  0  0  0  0  0  0  0
    0.7144   -1.2375    0.0000 C   0  0  0  0  0  0  0  0  0  0  0  0
    1.4289   -1.6500    0.0000 N   0  0  0  0  0  0  0  0  0  0  0  0
    1.4289   -2.4750    0.0000 C   0  0  0  0  0  0  0  0  0  0  0  0
    0.7144   -2.8875    0.0000 C   0  0  0  0  0  0  0  0  0  0  0  0
    0.7144   -3.7125    0.0000 N   0  0  0  0  0  0  0  0  0  0  0  0
    0.0000   -4.1250    0.0000 C   0  0  0  0  0  0  0  0  0  0  0  0
    1.4289   -4.1250    0.0000 C   0  0  0  0  0  0  0  0  0  0  0  0
    1.4289   -4.9500    0.0000 O   0  0  0  0  0  0  0  0  0  0  0  0
    2.1434   -3.7125    0.0000 C   0  0  0  0  0  0  0  0  0  0  0  0
    2.8578   -3.3000    0.0000 C   0  0  0  0  0  0  0  0  0  0  0  0
    1.7309   -2.9980    0.0000 C   0  0  0  0  0  0  0  0  0  0  0  0
    2.5559   -4.4269    0.0000 C   0  0  0  0  0  0  0  0  0  0  0  0
    3.3809   -4.4269    0.0000 C   0  0  0  0  0  0  0  0  0  0  0  0
    3.7934   -5.1414    0.0000 C   0  0  0  0  0  0  0  0  0  0  0  0
    3.3809   -5.8559    0.0000 C   0  0  0  0  0  0  0  0  0  0  0  0
    2.5559   -5.8559    0.0000 C   0  0  0  0  0  0  0  0  0  0  0  0
    2.1434   -5.1414    0.0000 C   0  0  0  0  0  0  0  0  0  0  0  0
    2.1434   -6.5703    0.0000 C   0  0  0  0  0  0  0  0  0  0  0  0
    1.7309   -7.2848    0.0000 F   0  0  0  0  0  0  0  0  0  0  0  0
    2.8578   -6.9828    0.0000 F   0  0  0  0  0  0  0  0  0  0  0  0
    1.4289   -6.1578    0.0000 F   0  0  0  0  0  0  0  0  0  0  0  0
    4.6184   -5.1414    0.0000 C   0  0  0  0  0  0  0  0  0  0  0  0
    5.4434   -5.1414    0.0000 F   0  0  0  0  0  0  0  0  0  0  0  0
    4.6184   -5.9664    0.0000 F   0  0  0  0  0  0  0  0  0  0  0  0
    4.6184   -4.3164    0.0000 F   0  0  0  0  0  0  0  0  0  0  0  0
    0.7144   -0.4125    0.0000 N   0  0  0  0  0  0  0  0  0  0  0  0
    0.0000    0.0000    0.0000 C   0  0  0  0  0  0  0  0  0  0  0  0
    0.0000    0.8250    0.0000 C   0  0  0  0  0  0  0  0  0  0  0  0
    0.7144    1.2375    0.0000 N   0  0  0  0  0  0  0  0  0  0  0  0
    1.4289    0.8250    0.0000 C   0  0  0  0  0  0  0  0  0  0  0  0
    1.4289    0.0000    0.0000 C   0  0  0  0  0  0  0  0  0  0  0  0
    0.7144    2.0625    0.0000 C   0  0  0  0  0  0  0  0  0  0  0  0
   -0.5023   -1.1150    0.0000 H   0  0  0  0  0  0  0  0  0  0  0  0
   -2.3555   -1.1150    0.0000 H   0  0  0  0  0  0  0  0  0  0  0  0
   -1.4289   -0.5800    0.0000 H   0  0  0  0  0  0  0  0  0  0  0  0
   -3.0371   -2.3715    0.0000 H   0  0  0  0  0  0  0  0  0  0  0  0
   -3.0371   -4.2285    0.0000 H   0  0  0  0  0  0  0  0  0  0  0  0
   -1.4289   -5.1570    0.0000 H   0  0  0  0  0  0  0  0  0  0  0  0
    0.1793   -4.2285    0.0000 H   0  0  0  0  0  0  0  0  0  0  0  0
   -0.8937   -1.1340    0.0000 H   0  0  0  0  0  0  0  0  0  0  0  0
    2.3226   -2.9910    0.0000 H   0  0  0  0  0  0  0  0  0  0  0  0
   -0.9267   -3.5900    0.0000 H   0  0  0  0  0  0  0  0  0  0  0  0
    0.0000   -5.1950    0.0000 H   0  0  0  0  0  0  0  0  0  0  0  0
   -0.9266   -4.6600    0.0000 H   0  0  0  0  0  0  0  0  0  0  0  0
    3.7845   -3.8350    0.0000 H   0  0  0  0  0  0  0  0  0  0  0  0
    2.8578   -2.2300    0.0000 H   0  0  0  0  0  0  0  0  0  0  0  0
    3.7844   -2.7650    0.0000 H   0  0  0  0  0  0  0  0  0  0  0  0
    2.2659   -2.0714    0.0000 H   0  0  0  0  0  0  0  0  0  0  0  0
    0.6609   -2.9980    0.0000 H   0  0  0  0  0  0  0  0  0  0  0  0
    1.1959   -2.0713    0.0000 H   0  0  0  0  0  0  0  0  0  0  0  0
    3.8969   -3.5332    0.0000 H   0  0  0  0  0  0  0  0  0  0  0  0
    3.8969   -6.7496    0.0000 H   0  0  0  0  0  0  0  0  0  0  0  0
    1.1114   -5.1414    0.0000 H   0  0  0  0  0  0  0  0  0  0  0  0
   -0.9267   -0.5350    0.0000 H   0  0  0  0  0  0  0  0  0  0  0  0
   -0.9266    0.5350    0.0000 H   0  0  0  0  0  0  0  0  0  0  0  0
   -0.9267    1.3600    0.0000 H   0  0  0  0  0  0  0  0  0  0  0  0
   -0.0000    1.8950    0.0000 H   0  0  0  0  0  0  0  0  0  0  0  0
    2.3555    1.3600    0.0000 H   0  0  0  0  0  0  0  0  0  0  0  0
    2.3555    0.2900    0.0000 H   0  0  0  0  0  0  0  0  0  0  0  0
    2.3555   -0.5350    0.0000 H   0  0  0  0  0  0  0  0  0  0  0  0
    1.4289   -1.0700    0.0000 H   0  0  0  0  0  0  0  0  0  0  0  0
    1.6410    2.5975    0.0000 H   0  0  0  0  0  0  0  0  0  0  0  0
   -0.2122    2.5975    0.0000 H   0  0  0  0  0  0  0  0  0  0  0  0
    0.7144    3.1325    0.0000 H   0  0  0  0  0  0  0  0  0  0  0  0
  1  2  1  0  0  0  0
  1 42  1  0  0  0  0
  1 43  1  0  0  0  0
  1 44  1  0  0  0  0
  2  3  2  0  0  0  0
  2  7  1  0  0  0  0
  3  4  1  0  0  0  0
  3 45  1  0  0  0  0
  4  5  2  0  0  0  0
  4 46  1  0  0  0  0
  5  6  1  0  0  0  0
  5 47  1  0  0  0  0
  6  7  2  0  0  0  0
  6 48  1  0  0  0  0
  7  8  1  0  0  0  0
  8  9  2  0  0  0  0
  8 13  1  0  0  0  0
  9 10  1  0  0  0  0
  9 49  1  0  0  0  0
 10 11  2  0  0  0  0
 10 35  1  0  0  0  0
 11 12  1  0  0  0  0
 12 13  2  0  0  0  0
 12 50  1  0  0  0  0
 13 14  1  0  0  0  0
 14 15  1  0  0  0  0
 14 16  1  0  0  0  0
 15 51  1  0  0  0  0
 15 52  1  0  0  0  0
 15 53  1  0  0  0  0
 16 17  2  0  0  0  0
 16 18  1  0  0  0  0
 18 19  1  0  0  0  0
 18 20  1  0  0  0  0
 18 21  1  0  0  0  0
 19 54  1  0  0  0  0
 19 55  1  0  0  0  0
 19 56  1  0  0  0  0
 20 57  1  0  0  0  0
 20 58  1  0  0  0  0
 20 59  1  0  0  0  0
 21 22  2  0  0  0  0
 21 26  1  0  0  0  0
 22 23  1  0  0  0  0
 22 60  1  0  0  0  0
 23 24  2  0  0  0  0
 23 31  1  0  0  0  0
 24 25  1  0  0  0  0
 24 61  1  0  0  0  0
 25 26  2  0  0  0  0
 25 27  1  0  0  0  0
 26 62  1  0  0  0  0
 27 28  1  0  0  0  0
 27 29  1  0  0  0  0
 27 30  1  0  0  0  0
 31 32  1  0  0  0  0
 31 33  1  0  0  0  0
 31 34  1  0  0  0  0
 35 36  1  0  0  0  0
 35 40  1  0  0  0  0
 36 37  1  0  0  0  0
 36 63  1  0  0  0  0
 36 64  1  0  0  0  0
 37 38  1  0  0  0  0
 37 65  1  0  0  0  0
 37 66  1  0  0  0  0
 38 39  1  0  0  0  0
 38 41  1  0  0  0  0
 39 40  1  0  0  0  0
 39 67  1  0  0  0  0
 39 68  1  0  0  0  0
 40 69  1  0  0  0  0
 40 70  1  0  0  0  0
 41 71  1  0  0  0  0
 41 72  1  0  0  0  0
 41 73  1  0  0  0  0
M  END
>  <DRUGBANK_ID>
DB09048

>  <COMMON_NAME>
Netupitant

>  <CAS_NUMBER>
290297-26-6

>  <UNII>
7732P08TIR

>  <SYNONYMS>
2-[3,5-Bis(trifluoromethyl)phenyl]-N,2-dimethyl-N-[4-(2-methylphenyl)-6-(4-methyl-1-piperazinyl)-3-pyridinyl]propanamide; Netupitant

$$$$
