
 OpenBabel10282417072D

 38 41  0  0  0  0  0  0  0  0999 V2000
    5.4472    1.5084    0.0000 O   0  0  0  0  0  0  0  0  0  0  0  0
    5.4472    0.6834    0.0000 C   0  0  0  0  0  0  0  0  0  0  0  0
    4.7327    0.2709    0.0000 O   0  0  0  0  0  0  0  0  0  0  0  0
    6.1616    0.2709    0.0000 C   0  0  0  0  0  0  0  0  0  0  0  0
    6.1616   -0.5541    0.0000 C   0  0  0  0  0  0  0  0  0  0  0  0
    6.8761   -0.9666    0.0000 N   0  0  0  0  0  0  0  0  0  0  0  0
    6.8761   -1.7916    0.0000 N   0  0  0  0  0  0  0  0  0  0  0  0
    7.5906   -2.2041    0.0000 C   0  0  0  0  0  0  0  0  0  0  0  0
    7.5906   -3.0291    0.0000 C   0  0  0  0  0  0  0  0  0  0  0  0
    8.2580   -3.5140    0.0000 N   0  0  0  0  0  0  0  0  0  0  0  0
    8.0031   -4.2986    0.0000 C   0  0  0  0  0  0  0  0  0  0  0  0
    8.4156   -5.0131    0.0000 C   0  0  0  0  0  0  0  0  0  0  0  0
    8.0031   -5.7276    0.0000 C   0  0  0  0  0  0  0  0  0  0  0  0
    7.1781   -5.7276    0.0000 C   0  0  0  0  0  0  0  0  0  0  0  0
    6.7656   -5.0131    0.0000 C   0  0  0  0  0  0  0  0  0  0  0  0
    7.1781   -4.2986    0.0000 C   0  0  0  0  0  0  0  0  0  0  0  0
    6.9232   -3.5140    0.0000 S   0  0  0  0  0  0  0  0  0  0  0  0
    8.4156   -6.4420    0.0000 C   0  0  0  0  0  0  0  0  0  0  0  0
    8.8281   -7.1565    0.0000 F   0  0  0  0  0  0  0  0  0  0  0  0
    7.7011   -6.8545    0.0000 F   0  0  0  0  0  0  0  0  0  0  0  0
    9.1301   -6.0295    0.0000 F   0  0  0  0  0  0  0  0  0  0  0  0
    6.1616   -2.2041    0.0000 C   0  0  0  0  0  0  0  0  0  0  0  0
    6.1616   -3.0291    0.0000 O   0  0  0  0  0  0  0  0  0  0  0  0
    5.4472   -1.7916    0.0000 C   0  0  0  0  0  0  0  0  0  0  0  0
    4.6626   -2.0465    0.0000 C   0  0  0  0  0  0  0  0  0  0  0  0
    4.1776   -1.3791    0.0000 S   0  0  0  0  0  0  0  0  0  0  0  0
    4.6626   -0.7116    0.0000 C   0  0  0  0  0  0  0  0  0  0  0  0
    5.4472   -0.9666    0.0000 C   0  0  0  0  0  0  0  0  0  0  0  0
    6.2587    1.9769    0.0000 H   0  0  0  0  0  0  0  0  0  0  0  0
    7.0883    0.8059    0.0000 H   0  0  0  0  0  0  0  0  0  0  0  0
    7.0882   -0.2641    0.0000 H   0  0  0  0  0  0  0  0  0  0  0  0
    8.5172   -1.6691    0.0000 H   0  0  0  0  0  0  0  0  0  0  0  0
    8.5172   -2.7391    0.0000 H   0  0  0  0  0  0  0  0  0  0  0  0
    9.4476   -5.0131    0.0000 H   0  0  0  0  0  0  0  0  0  0  0  0
    6.6621   -6.6213    0.0000 H   0  0  0  0  0  0  0  0  0  0  0  0
    5.7336   -5.0131    0.0000 H   0  0  0  0  0  0  0  0  0  0  0  0
    4.3437   -3.0280    0.0000 H   0  0  0  0  0  0  0  0  0  0  0  0
    4.3437    0.2699    0.0000 H   0  0  0  0  0  0  0  0  0  0  0  0
  1  2  1  0  0  0  0
  1 29  1  0  0  0  0
  2  3  2  0  0  0  0
  2  4  1  0  0  0  0
  4  5  1  0  0  0  0
  4 30  1  0  0  0  0
  4 31  1  0  0  0  0
  5  6  2  0  0  0  0
  5 28  1  0  0  0  0
  6  7  1  0  0  0  0
  7  8  1  0  0  0  0
  7 22  1  0  0  0  0
  8  9  1  0  0  0  0
  8 32  1  0  0  0  0
  8 33  1  0  0  0  0
  9 10  2  0  0  0  0
  9 17  1  0  0  0  0
 10 11  1  0  0  0  0
 11 12  2  0  0  0  0
 11 16  1  0  0  0  0
 12 13  1  0  0  0  0
 12 34  1  0  0  0  0
 13 14  2  0  0  0  0
 13 18  1  0  0  0  0
 14 15  1  0  0  0  0
 14 35  1  0  0  0  0
 15 16  2  0  0  0  0
 15 36  1  0  0  0  0
 16 17  1  0  0  0  0
 18 19  1  0  0  0  0
 18 20  1  0  0  0  0
 18 21  1  0  0  0  0
 22 23  2  0  0  0  0
 22 24  1  0  0  0  0
 24 25  2  0  0  0  0
 24 28  1  0  0  0  0
 25 26  1  0  0  0  0
 25 37  1  0  0  0  0
 26 27  1  0  0  0  0
 27 28  2  0  0  0  0
 27 38  1  0  0  0  0
M  END
>  <DRUGBANK_ID>
DB16707

>  <COMMON_NAME>
Gavorestat

>  <CAS_NUMBER>
2170729-29-8

>  <UNII>
6JLQ8K35KK

>  <SYNONYMS>
2-(4-Oxo-3-((5-(Trifluoromethyl)Benzo[D]Thiazol-2-Yl)Methyl)-3,4-Dihydrothieno[3,4-D]Pyridazin-1-Yl)Acetic Acid; AT-007; AT007; Gavorestat

$$$$
