
 OpenBabel10282417072D

 71 73  0  0  1  0  0  0  0  0999 V2000
    1.4289   -2.4750    0.0000 C   0  0  0  0  0  0  0  0  0  0  0  0
    0.7145   -2.8875    0.0000 C   0  0  1  0  0  0  0  0  0  0  0  0
    0.0000   -2.4750    0.0000 N   0  0  0  0  0  0  0  0  0  0  0  0
    0.7145   -3.7125    0.0000 C   0  0  1  0  0  0  0  0  0  0  0  0
    1.3819   -4.1974    0.0000 O   0  0  0  0  0  0  0  0  0  0  0  0
    1.1270   -4.9820    0.0000 C   0  0  1  0  0  0  0  0  0  0  0  0
    1.6119   -5.6495    0.0000 O   0  0  0  0  0  0  0  0  0  0  0  0
    2.4324   -5.5632    0.0000 C   0  0  2  0  0  0  0  0  0  0  0  0
    2.7679   -4.8096    0.0000 C   0  0  1  0  0  0  0  0  0  0  0  0
    2.2830   -4.1421    0.0000 O   0  0  0  0  0  0  0  0  0  0  0  0
    3.5884   -4.7233    0.0000 C   0  0  2  0  0  0  0  0  0  0  0  0
    3.9240   -3.9697    0.0000 N   0  0  0  0  0  0  0  0  0  0  0  0
    4.0733   -5.3908    0.0000 C   0  0  0  0  0  0  0  0  0  0  0  0
    3.7378   -6.1445    0.0000 C   0  0  2  0  0  0  0  0  0  0  0  0
    4.2227   -6.8119    0.0000 N   0  0  0  0  0  0  0  0  0  0  0  0
    2.9173   -6.2307    0.0000 C   0  0  1  0  0  0  0  0  0  0  0  0
    2.5817   -6.9844    0.0000 O   0  0  0  0  0  0  0  0  0  0  0  0
    3.0667   -7.6518    0.0000 C   0  0  1  0  0  0  0  0  0  0  0  0
    3.8871   -7.5656    0.0000 O   0  0  0  0  0  0  0  0  0  0  0  0
    4.3721   -8.2330    0.0000 C   0  0  2  0  0  0  0  0  0  0  0  0
    5.1925   -8.1468    0.0000 C   0  0  1  0  0  0  0  0  0  0  0  0
    5.5281   -7.3931    0.0000 C   0  0  0  0  0  0  0  0  0  0  0  0
    5.6775   -8.8142    0.0000 O   0  0  0  0  0  0  0  0  0  0  0  0
    4.0365   -8.9867    0.0000 C   0  0  1  0  0  0  0  0  0  0  0  0
    4.5214   -9.6541    0.0000 O   0  0  0  0  0  0  0  0  0  0  0  0
    3.2160   -9.0729    0.0000 C   0  0  2  0  0  0  0  0  0  0  0  0
    2.8805   -9.8266    0.0000 O   0  0  0  0  0  0  0  0  0  0  0  0
    2.7311   -8.4055    0.0000 C   0  0  1  0  0  0  0  0  0  0  0  0
    1.9106   -8.4917    0.0000 N   0  0  0  0  0  0  0  0  0  0  0  0
    0.3020   -4.9820    0.0000 C   0  0  2  0  0  0  0  0  0  0  0  0
   -0.1830   -5.6495    0.0000 O   0  0  0  0  0  0  0  0  0  0  0  0
    0.0470   -4.1974    0.0000 C   0  0  2  0  0  0  0  0  0  0  0  0
   -0.7376   -3.9425    0.0000 O   0  0  0  0  0  0  0  0  0  0  0  0
    2.3556   -3.0100    0.0000 H   0  0  0  0  0  0  0  0  0  0  0  0
    1.4289   -1.4050    0.0000 H   0  0  0  0  0  0  0  0  0  0  0  0
    2.3555   -1.9400    0.0000 H   0  0  0  0  0  0  0  0  0  0  0  0
    1.6412   -3.4225    0.0000 H   0  0  0  0  0  0  0  0  0  0  0  0
   -0.0000   -1.4550    0.0000 H   0  0  0  0  0  0  0  0  0  0  0  0
   -0.8833   -2.9850    0.0000 H   0  0  0  0  0  0  0  0  0  0  0  0
    1.6679   -3.2267    0.0000 H   0  0  0  0  0  0  0  0  0  0  0  0
    2.1838   -4.8146    0.0000 H   0  0  0  0  0  0  0  0  0  0  0  0
    1.8034   -4.6976    0.0000 H   0  0  0  0  0  0  0  0  0  0  0  0
    1.7038   -4.9214    0.0000 H   0  0  0  0  0  0  0  0  0  0  0  0
    2.6776   -3.2560    0.0000 H   0  0  0  0  0  0  0  0  0  0  0  0
    2.9595   -3.8576    0.0000 H   0  0  0  0  0  0  0  0  0  0  0  0
    4.9384   -3.8632    0.0000 H   0  0  0  0  0  0  0  0  0  0  0  0
    3.3245   -3.1445    0.0000 H   0  0  0  0  0  0  0  0  0  0  0  0
    5.1374   -5.2789    0.0000 H   0  0  0  0  0  0  0  0  0  0  0  0
    4.7023   -6.2564    0.0000 H   0  0  0  0  0  0  0  0  0  0  0  0
    4.8019   -6.0326    0.0000 H   0  0  0  0  0  0  0  0  0  0  0  0
    3.8078   -7.7437    0.0000 H   0  0  0  0  0  0  0  0  0  0  0  0
    5.2371   -6.7053    0.0000 H   0  0  0  0  0  0  0  0  0  0  0  0
    3.5462   -7.0964    0.0000 H   0  0  0  0  0  0  0  0  0  0  0  0
    3.5019   -6.6743    0.0000 H   0  0  0  0  0  0  0  0  0  0  0  0
    4.8073   -7.2555    0.0000 H   0  0  0  0  0  0  0  0  0  0  0  0
    6.2566   -8.0349    0.0000 H   0  0  0  0  0  0  0  0  0  0  0  0
    6.5922   -7.2813    0.0000 H   0  0  0  0  0  0  0  0  0  0  0  0
    4.8992   -6.5274    0.0000 H   0  0  0  0  0  0  0  0  0  0  0  0
    5.9633   -6.4156    0.0000 H   0  0  0  0  0  0  0  0  0  0  0  0
    5.2831   -9.7004    0.0000 H   0  0  0  0  0  0  0  0  0  0  0  0
    5.1006   -8.8749    0.0000 H   0  0  0  0  0  0  0  0  0  0  0  0
    4.1269  -10.5402    0.0000 H   0  0  0  0  0  0  0  0  0  0  0  0
    3.8449   -9.9385    0.0000 H   0  0  0  0  0  0  0  0  0  0  0  0
    1.9158   -9.9281    0.0000 H   0  0  0  0  0  0  0  0  0  0  0  0
    2.2959   -9.3830    0.0000 H   0  0  0  0  0  0  0  0  0  0  0  0
    1.3111   -7.6665    0.0000 H   0  0  0  0  0  0  0  0  0  0  0  0
    1.4957   -9.4235    0.0000 H   0  0  0  0  0  0  0  0  0  0  0  0
    0.7878   -5.9354    0.0000 H   0  0  0  0  0  0  0  0  0  0  0  0
   -1.1477   -5.5481    0.0000 H   0  0  0  0  0  0  0  0  0  0  0  0
   -0.7096   -4.9540    0.0000 H   0  0  0  0  0  0  0  0  0  0  0  0
   -0.9393   -2.9937    0.0000 H   0  0  0  0  0  0  0  0  0  0  0  0
  1 34  1  0  0  0  0
  1 35  1  0  0  0  0
  1 36  1  0  0  0  0
  2  1  1  0  0  0  0
  2  3  1  0  0  0  0
  2 37  1  1  0  0  0
  3 38  1  0  0  0  0
  3 39  1  0  0  0  0
  4  2  1  0  0  0  0
  4  5  1  0  0  0  0
  4 32  1  0  0  0  0
  4 40  1  6  0  0  0
  6  5  1  0  0  0  0
  6  7  1  0  0  0  0
  6 41  1  6  0  0  0
  8  7  1  0  0  0  0
  8  9  1  0  0  0  0
  8 16  1  0  0  0  0
  8 42  1  1  0  0  0
  9 10  1  0  0  0  0
  9 11  1  0  0  0  0
  9 43  1  6  0  0  0
 10 44  1  0  0  0  0
 11 12  1  0  0  0  0
 11 13  1  0  0  0  0
 11 45  1  1  0  0  0
 12 46  1  0  0  0  0
 12 47  1  0  0  0  0
 13 48  1  0  0  0  0
 13 49  1  0  0  0  0
 14 13  1  0  0  0  0
 14 15  1  0  0  0  0
 14 50  1  1  0  0  0
 15 51  1  0  0  0  0
 15 52  1  0  0  0  0
 16 14  1  0  0  0  0
 16 17  1  0  0  0  0
 16 53  1  6  0  0  0
 18 17  1  0  0  0  0
 18 19  1  0  0  0  0
 18 54  1  6  0  0  0
 20 19  1  0  0  0  0
 20 21  1  0  0  0  0
 20 24  1  0  0  0  0
 20 55  1  1  0  0  0
 21 22  1  0  0  0  0
 21 23  1  0  0  0  0
 21 56  1  6  0  0  0
 22 57  1  0  0  0  0
 22 58  1  0  0  0  0
 22 59  1  0  0  0  0
 23 60  1  0  0  0  0
 24 25  1  0  0  0  0
 24 26  1  0  0  0  0
 24 61  1  6  0  0  0
 25 62  1  0  0  0  0
 26 27  1  0  0  0  0
 26 28  1  0  0  0  0
 26 63  1  1  0  0  0
 27 64  1  0  0  0  0
 28 18  1  0  0  0  0
 28 29  1  0  0  0  0
 28 65  1  6  0  0  0
 29 66  1  0  0  0  0
 29 67  1  0  0  0  0
 30  6  1  0  0  0  0
 30 31  1  0  0  0  0
 30 68  1  1  0  0  0
 31 69  1  0  0  0  0
 32 30  1  0  0  0  0
 32 33  1  0  0  0  0
 32 70  1  1  0  0  0
 33 71  1  0  0  0  0
M  END
>  <DRUGBANK_ID>
DB15080

>  <COMMON_NAME>
ELX-02

>  <CAS_NUMBER>
1375073-95-2

$$$$
