
 OpenBabel10282417072D

 23 23  0  0  0  0  0  0  0  0999 V2000
    0.4221   -0.0108    0.0000 C   0  0  0  0  0  0  0  0  0  0  0  0
    0.0000   -0.7152    0.0000 C   0  0  0  0  0  0  0  0  0  0  0  0
   -0.0144    0.7226    0.0000 C   0  0  0  0  0  0  0  0  0  0  0  0
    1.2594   -0.0108    0.0000 C   0  0  0  0  0  0  0  0  0  0  0  0
   -0.8130   -0.7226    0.0000 C   0  0  0  0  0  0  0  0  0  0  0  0
   -0.8274    0.7201    0.0000 C   0  0  0  0  0  0  0  0  0  0  0  0
    1.6719   -0.7104    0.0000 C   0  0  0  0  0  0  0  0  0  0  0  0
   -1.2375   -0.0108    0.0000 C   0  0  0  0  0  0  0  0  0  0  0  0
    2.4969   -0.7104    0.0000 C   0  0  0  0  0  0  0  0  0  0  0  0
   -2.0771   -0.0108    0.0000 O   0  0  0  0  0  0  0  0  0  0  0  0
   -2.4969   -0.7226    0.0000 C   0  0  0  0  0  0  0  0  0  0  0  0
    0.5128   -1.6108    0.0000 H   0  0  0  0  0  0  0  0  0  0  0  0
    0.4943    1.6205    0.0000 H   0  0  0  0  0  0  0  0  0  0  0  0
    1.7713    0.8853    0.0000 H   0  0  0  0  0  0  0  0  0  0  0  0
   -1.3186   -1.6223    0.0000 H   0  0  0  0  0  0  0  0  0  0  0  0
   -1.3502    1.6098    0.0000 H   0  0  0  0  0  0  0  0  0  0  0  0
    1.1600   -1.6065    0.0000 H   0  0  0  0  0  0  0  0  0  0  0  0
    3.0319   -1.6370    0.0000 H   0  0  0  0  0  0  0  0  0  0  0  0
    3.0319    0.2162    0.0000 H   0  0  0  0  0  0  0  0  0  0  0  0
    3.5669   -0.7104    0.0000 H   0  0  0  0  0  0  0  0  0  0  0  0
   -3.5669   -0.7127    0.0000 H   0  0  0  0  0  0  0  0  0  0  0  0
   -1.9705   -1.6542    0.0000 H   0  0  0  0  0  0  0  0  0  0  0  0
   -3.0405   -1.6442    0.0000 H   0  0  0  0  0  0  0  0  0  0  0  0
  1  2  1  0  0  0  0
  1  3  2  0  0  0  0
  1  4  1  0  0  0  0
  2  5  2  0  0  0  0
  2 12  1  0  0  0  0
  3  6  1  0  0  0  0
  3 13  1  0  0  0  0
  4  7  2  0  0  0  0
  4 14  1  0  0  0  0
  5  8  1  0  0  0  0
  5 15  1  0  0  0  0
  6  8  2  0  0  0  0
  6 16  1  0  0  0  0
  7  9  1  0  0  0  0
  7 17  1  0  0  0  0
  8 10  1  0  0  0  0
  9 18  1  0  0  0  0
  9 19  1  0  0  0  0
  9 20  1  0  0  0  0
 10 11  1  0  0  0  0
 11 21  1  0  0  0  0
 11 22  1  0  0  0  0
 11 23  1  0  0  0  0
M  END
>  <DRUGBANK_ID>
DB15916

>  <COMMON_NAME>
Anethole

>  <CAS_NUMBER>
4180-23-8

>  <UNII>
Q3JEK5DO4K

>  <SYNONYMS>
(E)-Anethole; Anise camphor; Isoestragole; trans-Anethole

$$$$
