
 OpenBabel10282417072D

 41 40  0  0  0  0  0  0  0  0999 V2000
    0.5001   -1.2788    0.0000 C   0  0  0  0  0  0  0  0  0  0  0  0
    1.2146   -0.8663    0.0000 C   0  0  0  0  0  0  0  0  0  0  0  0
   -0.2143   -0.8663    0.0000 C   0  0  0  0  0  0  0  0  0  0  0  0
    1.2146   -0.0413    0.0000 C   0  0  0  0  0  0  0  0  0  0  0  0
   -0.2143   -0.0413    0.0000 C   0  0  0  0  0  0  0  0  0  0  0  0
    0.5001    0.3712    0.0000 C   0  0  0  0  0  0  0  0  0  0  0  0
   -0.9288    0.3713    0.0000 C   0  0  0  0  0  0  0  0  0  0  0  0
    0.5001    1.1962    0.0000 O   0  0  0  0  0  0  0  0  0  0  0  0
   -1.6433   -0.0412    0.0000 O   0  0  0  0  0  0  0  0  0  0  0  0
   -0.9288    1.1963    0.0000 O   0  0  0  0  0  0  0  0  0  0  0  0
    4.5293   -1.0725    0.0000 C   0  0  0  0  0  0  0  0  0  0  0  0
    3.8148    0.1650    0.0000 C   0  0  0  0  0  0  0  0  0  0  0  0
    5.2437    0.1650    0.0000 C   0  0  0  0  0  0  0  0  0  0  0  0
    5.2437   -1.4850    0.0000 C   0  0  0  0  0  0  0  0  0  0  0  0
    3.8148    0.9900    0.0000 C   0  0  0  0  0  0  0  0  0  0  0  0
    5.2437    0.9900    0.0000 C   0  0  0  0  0  0  0  0  0  0  0  0
    4.5293   -0.2475    0.0000 N   0  0  0  0  0  0  0  0  0  0  0  0
    5.2437   -2.3100    0.0000 O   0  0  0  0  0  0  0  0  0  0  0  0
    3.1003    1.4025    0.0000 O   0  0  0  0  0  0  0  0  0  0  0  0
    5.9582    1.4025    0.0000 O   0  0  0  0  0  0  0  0  0  0  0  0
    0.5001   -2.3108    0.0000 H   0  0  0  0  0  0  0  0  0  0  0  0
    2.1083   -1.3823    0.0000 H   0  0  0  0  0  0  0  0  0  0  0  0
   -1.1080   -1.3823    0.0000 H   0  0  0  0  0  0  0  0  0  0  0  0
    2.1083    0.4747    0.0000 H   0  0  0  0  0  0  0  0  0  0  0  0
    1.3116    1.6647    0.0000 H   0  0  0  0  0  0  0  0  0  0  0  0
   -0.1173    1.6648    0.0000 H   0  0  0  0  0  0  0  0  0  0  0  0
    3.6026   -1.6075    0.0000 H   0  0  0  0  0  0  0  0  0  0  0  0
    3.6027   -0.5375    0.0000 H   0  0  0  0  0  0  0  0  0  0  0  0
    2.8882   -0.3700    0.0000 H   0  0  0  0  0  0  0  0  0  0  0  0
    3.8148   -0.9050    0.0000 H   0  0  0  0  0  0  0  0  0  0  0  0
    6.1704   -0.3700    0.0000 H   0  0  0  0  0  0  0  0  0  0  0  0
    5.2437   -0.9050    0.0000 H   0  0  0  0  0  0  0  0  0  0  0  0
    6.1704   -0.9500    0.0000 H   0  0  0  0  0  0  0  0  0  0  0  0
    6.1703   -2.0200    0.0000 H   0  0  0  0  0  0  0  0  0  0  0  0
    4.7414    1.5250    0.0000 H   0  0  0  0  0  0  0  0  0  0  0  0
    3.8148    2.0600    0.0000 H   0  0  0  0  0  0  0  0  0  0  0  0
    4.3171    1.5250    0.0000 H   0  0  0  0  0  0  0  0  0  0  0  0
    5.2437    2.0600    0.0000 H   0  0  0  0  0  0  0  0  0  0  0  0
    4.4037   -2.7950    0.0000 H   0  0  0  0  0  0  0  0  0  0  0  0
    3.1003    2.3725    0.0000 H   0  0  0  0  0  0  0  0  0  0  0  0
    6.7982    0.9175    0.0000 H   0  0  0  0  0  0  0  0  0  0  0  0
  1 21  1  0  0  0  0
  2  1  2  0  0  0  0
  2 22  1  0  0  0  0
  3  1  1  0  0  0  0
  3 23  1  0  0  0  0
  4  2  1  0  0  0  0
  4 24  1  0  0  0  0
  5  3  2  0  0  0  0
  6  4  2  0  0  0  0
  6  5  1  0  0  0  0
  7  5  1  0  0  0  0
  8  6  1  0  0  0  0
  8 25  1  0  0  0  0
  9  7  2  0  0  0  0
 10  7  1  0  0  0  0
 10 26  1  0  0  0  0
 11 27  1  0  0  0  0
 11 28  1  0  0  0  0
 12 29  1  0  0  0  0
 12 30  1  0  0  0  0
 13 31  1  0  0  0  0
 13 32  1  0  0  0  0
 14 11  1  0  0  0  0
 14 33  1  0  0  0  0
 14 34  1  0  0  0  0
 15 12  1  0  0  0  0
 15 35  1  0  0  0  0
 15 36  1  0  0  0  0
 16 13  1  0  0  0  0
 16 37  1  0  0  0  0
 16 38  1  0  0  0  0
 17 11  1  0  0  0  0
 17 12  1  0  0  0  0
 17 13  1  0  0  0  0
 18 14  1  0  0  0  0
 18 39  1  0  0  0  0
 19 15  1  0  0  0  0
 19 40  1  0  0  0  0
 20 16  1  0  0  0  0
 20 41  1  0  0  0  0
M  END
>  <DRUGBANK_ID>
DB11079

>  <COMMON_NAME>
Trolamine salicylate

>  <CAS_NUMBER>
2174-16-5

>  <UNII>
H8O4040BHD

>  <SYNONYMS>
Trolamine salicylate

$$$$
