
 OpenBabel10282417072D

 37 36  0  0  0  0  0  0  0  0999 V2000
   -0.0287   -0.3779    0.0000 C   0  0  0  0  0  0  0  0  0  0  0  0
   -0.0179    0.4462    0.0000 C   0  0  0  0  0  0  0  0  0  0  0  0
   -0.6765    0.8962    0.0000 C   0  0  1  0  0  0  0  0  0  0  0  0
   -1.4108    0.5183    0.0000 C   0  0  0  0  0  0  0  0  0  0  0  0
    0.6730   -0.7881    0.0000 N   0  0  0  0  0  0  0  0  0  0  0  0
   -0.6226    1.7060    0.0000 N   0  0  0  0  0  0  0  0  0  0  0  0
    1.4180   -2.0623    0.0000 C   0  0  0  0  0  0  0  0  0  0  0  0
    0.6946   -1.6915    0.0000 C   0  0  2  0  0  0  0  0  0  0  0  0
   -1.3028    2.1703    0.0000 C   0  0  0  0  0  0  0  0  0  0  0  0
   -1.4684   -2.1378    0.0000 C   0  0  0  0  0  0  0  0  0  0  0  0
   -0.7953   -0.7450    0.0000 O   0  0  0  0  0  0  0  0  0  0  0  0
   -1.4000   -0.2879    0.0000 O   0  0  0  0  0  0  0  0  0  0  0  0
    1.4288   -2.9117    0.0000 O   0  0  0  0  0  0  0  0  0  0  0  0
   -1.3028    2.9801    0.0000 O   0  0  0  0  0  0  0  0  0  0  0  0
   -1.4684   -2.9801    0.0000 O   0  0  0  0  0  0  0  0  0  0  0  0
   -0.0504   -2.0623    0.0000 C   0  0  0  0  0  0  0  0  0  0  0  0
   -0.6981   -1.7276    0.0000 C   0  0  0  0  0  0  0  0  0  0  0  0
   -2.1919    0.8854    0.0000 O   0  0  0  0  0  0  0  0  0  0  0  0
    2.1919   -1.6520    0.0000 O   0  0  0  0  0  0  0  0  0  0  0  0
   -2.1595   -1.7024    0.0000 O   0  0  0  0  0  0  0  0  0  0  0  0
   -2.0587    1.8031    0.0000 C   0  0  0  0  0  0  0  0  0  0  0  0
    0.9316    0.9395    0.0000 H   0  0  0  0  0  0  0  0  0  0  0  0
    0.0464    1.5143    0.0000 H   0  0  0  0  0  0  0  0  0  0  0  0
    0.2858    1.3640    0.0000 H   0  0  0  0  0  0  0  0  0  0  0  0
    1.5210   -0.2880    0.0000 H   0  0  0  0  0  0  0  0  0  0  0  0
    0.2627    2.1366    0.0000 H   0  0  0  0  0  0  0  0  0  0  0  0
    1.6009   -1.1227    0.0000 H   0  0  0  0  0  0  0  0  0  0  0  0
   -0.0585   -3.1323    0.0000 H   0  0  0  0  0  0  0  0  0  0  0  0
   -0.9664   -2.6153    0.0000 H   0  0  0  0  0  0  0  0  0  0  0  0
   -0.7047   -0.6576    0.0000 H   0  0  0  0  0  0  0  0  0  0  0  0
    0.2141   -1.1683    0.0000 H   0  0  0  0  0  0  0  0  0  0  0  0
   -2.2708    1.8191    0.0000 H   0  0  0  0  0  0  0  0  0  0  0  0
    2.9859   -2.1495    0.0000 H   0  0  0  0  0  0  0  0  0  0  0  0
   -2.1233   -0.7661    0.0000 H   0  0  0  0  0  0  0  0  0  0  0  0
   -2.9448    2.4028    0.0000 H   0  0  0  0  0  0  0  0  0  0  0  0
   -2.1350    0.7358    0.0000 H   0  0  0  0  0  0  0  0  0  0  0  0
   -3.0211    1.3356    0.0000 H   0  0  0  0  0  0  0  0  0  0  0  0
  2  1  1  0  0  0  0
  2 22  1  0  0  0  0
  2 23  1  0  0  0  0
  3  2  1  0  0  0  0
  3  6  1  0  0  0  0
  3 24  1  6  0  0  0
  4  3  1  0  0  0  0
  5  1  1  0  0  0  0
  5 25  1  0  0  0  0
  6 26  1  0  0  0  0
  7  8  1  0  0  0  0
  8  5  1  0  0  0  0
  8 27  1  1  0  0  0
  9  6  1  0  0  0  0
 10 17  1  0  0  0  0
 11  1  2  0  0  0  0
 12  4  2  0  0  0  0
 13  7  2  0  0  0  0
 14  9  2  0  0  0  0
 15 10  2  0  0  0  0
 16  8  1  0  0  0  0
 16 28  1  0  0  0  0
 16 29  1  0  0  0  0
 17 16  1  0  0  0  0
 17 30  1  0  0  0  0
 17 31  1  0  0  0  0
 18  4  1  0  0  0  0
 18 32  1  0  0  0  0
 19  7  1  0  0  0  0
 19 33  1  0  0  0  0
 20 10  1  0  0  0  0
 20 34  1  0  0  0  0
 21  9  1  0  0  0  0
 21 35  1  0  0  0  0
 21 36  1  0  0  0  0
 21 37  1  0  0  0  0
M  END
>  <DRUGBANK_ID>
DB08835

>  <COMMON_NAME>
Spaglumic acid

>  <CAS_NUMBER>
4910-46-7

>  <UNII>
X81L78B3RB

>  <SYNONYMS>
N-Acetyl-L-Î²-aspartyl-L-glutamic acid; Spaglumic acid

$$$$
