
 OpenBabel10282417072D

 78 77  0  0  0  0  0  0  0  0999 V2000
   -4.8168    0.5051    0.0000 C   0  0  2  0  0  0  0  0  0  0  0  0
   -4.8203   -0.3297    0.0000 C   0  0  2  0  0  0  0  0  0  0  0  0
   -5.6096    0.7577    0.0000 C   0  0  2  0  0  0  0  0  0  0  0  0
   -3.9715    1.2523    0.0000 C   0  0  0  0  0  0  0  0  0  0  0  0
   -5.5991   -0.5858    0.0000 C   0  0  1  0  0  0  0  0  0  0  0  0
   -4.1013   -0.7401    0.0000 C   0  0  0  0  0  0  0  0  0  0  0  0
   -6.0937    0.0807    0.0000 C   0  0  0  0  0  0  0  0  0  0  0  0
   -5.8796    1.5679    0.0000 O   0  0  0  0  0  0  0  0  0  0  0  0
   -3.2557    0.8313    0.0000 C   0  0  0  0  0  0  0  0  0  0  0  0
   -5.8622   -1.4032    0.0000 O   0  0  0  0  0  0  0  0  0  0  0  0
   -3.3856   -0.3297    0.0000 C   0  0  0  0  0  0  0  0  0  0  0  0
   -2.4350    0.8313    0.0000 C   0  0  0  0  0  0  0  0  0  0  0  0
   -2.6700   -0.7401    0.0000 C   0  0  2  0  0  0  0  0  0  0  0  0
   -1.7228    1.2523    0.0000 C   0  0  0  0  0  0  0  0  0  0  0  0
   -1.9544   -0.3297    0.0000 C   0  0  0  0  0  0  0  0  0  0  0  0
   -2.6700   -1.5679    0.0000 O   0  0  0  0  0  0  0  0  0  0  0  0
   -1.0143    0.8418    0.0000 C   0  0  0  0  0  0  0  0  0  0  0  0
   -1.2388   -0.7401    0.0000 C   0  0  0  0  0  0  0  0  0  0  0  0
   -0.2986    1.2557    0.0000 C   0  0  0  0  0  0  0  0  0  0  0  0
   -0.5127   -0.3297    0.0000 C   0  0  0  0  0  0  0  0  0  0  0  0
    0.4133    0.8488    0.0000 C   0  0  0  0  0  0  0  0  0  0  0  0
    0.1923   -0.7401    0.0000 C   0  0  0  0  0  0  0  0  0  0  0  0
    1.1429    1.2803    0.0000 O   0  0  0  0  0  0  0  0  0  0  0  0
    0.4204    0.0070    0.0000 O   0  0  0  0  0  0  0  0  0  0  0  0
    0.9184   -0.3297    0.0000 C   0  0  0  0  0  0  0  0  0  0  0  0
    4.7081    0.0548    0.0000 C   0  0  0  0  0  0  0  0  0  0  0  0
    4.0206    0.4511    0.0000 C   0  0  0  0  0  0  0  0  0  0  0  0
    4.7081   -0.7555    0.0000 C   0  0  0  0  0  0  0  0  0  0  0  0
    5.3956    0.4407    0.0000 C   0  0  0  0  0  0  0  0  0  0  0  0
    4.6906    1.1528    0.0000 N   0  0  0  0  0  0  0  0  0  0  0  0
    3.3330    0.0548    0.0000 O   0  0  0  0  0  0  0  0  0  0  0  0
    5.3956   -1.1519    0.0000 O   0  0  0  0  0  0  0  0  0  0  0  0
    6.0937    0.0443    0.0000 O   0  0  0  0  0  0  0  0  0  0  0  0
   -3.8422    0.0634    0.0000 H   0  0  0  0  0  0  0  0  0  0  0  0
   -3.8939    0.2056    0.0000 H   0  0  0  0  0  0  0  0  0  0  0  0
   -4.8580    1.5193    0.0000 H   0  0  0  0  0  0  0  0  0  0  0  0
   -4.0742    2.3174    0.0000 H   0  0  0  0  0  0  0  0  0  0  0  0
   -3.0693    1.8276    0.0000 H   0  0  0  0  0  0  0  0  0  0  0  0
   -6.6548   -0.7600    0.0000 H   0  0  0  0  0  0  0  0  0  0  0  0
   -4.1003   -1.7721    0.0000 H   0  0  0  0  0  0  0  0  0  0  0  0
   -7.1637    0.0713    0.0000 H   0  0  0  0  0  0  0  0  0  0  0  0
   -6.5873    1.0301    0.0000 H   0  0  0  0  0  0  0  0  0  0  0  0
   -5.2360    2.2936    0.0000 H   0  0  0  0  0  0  0  0  0  0  0  0
   -3.5268   -0.1645    0.0000 H   0  0  0  0  0  0  0  0  0  0  0  0
   -6.8104   -1.6075    0.0000 H   0  0  0  0  0  0  0  0  0  0  0  0
   -3.3856    0.7023    0.0000 H   0  0  0  0  0  0  0  0  0  0  0  0
   -2.1628   -0.1642    0.0000 H   0  0  0  0  0  0  0  0  0  0  0  0
   -1.7441   -1.2764    0.0000 H   0  0  0  0  0  0  0  0  0  0  0  0
   -1.7275    2.3223    0.0000 H   0  0  0  0  0  0  0  0  0  0  0  0
   -0.7969    1.7886    0.0000 H   0  0  0  0  0  0  0  0  0  0  0  0
   -1.9544    0.7403    0.0000 H   0  0  0  0  0  0  0  0  0  0  0  0
   -1.0285    0.2066    0.0000 H   0  0  0  0  0  0  0  0  0  0  0  0
   -3.5100   -2.0529    0.0000 H   0  0  0  0  0  0  0  0  0  0  0  0
   -1.0147   -0.2282    0.0000 H   0  0  0  0  0  0  0  0  0  0  0  0
   -0.0876    0.3069    0.0000 H   0  0  0  0  0  0  0  0  0  0  0  0
   -1.2422   -1.8101    0.0000 H   0  0  0  0  0  0  0  0  0  0  0  0
   -0.3155   -1.2808    0.0000 H   0  0  0  0  0  0  0  0  0  0  0  0
   -0.3013    2.3257    0.0000 H   0  0  0  0  0  0  0  0  0  0  0  0
    0.6262    1.7939    0.0000 H   0  0  0  0  0  0  0  0  0  0  0  0
   -0.5059    0.7403    0.0000 H   0  0  0  0  0  0  0  0  0  0  0  0
    0.4166    0.2007    0.0000 H   0  0  0  0  0  0  0  0  0  0  0  0
    0.1855   -1.8101    0.0000 H   0  0  0  0  0  0  0  0  0  0  0  0
    1.1148   -1.2823    0.0000 H   0  0  0  0  0  0  0  0  0  0  0  0
    1.9592    0.8203    0.0000 H   0  0  0  0  0  0  0  0  0  0  0  0
    1.8401   -0.8732    0.0000 H   0  0  0  0  0  0  0  0  0  0  0  0
    0.9282    0.7403    0.0000 H   0  0  0  0  0  0  0  0  0  0  0  0
    1.8499    0.1968    0.0000 H   0  0  0  0  0  0  0  0  0  0  0  0
    4.0206    1.5211    0.0000 H   0  0  0  0  0  0  0  0  0  0  0  0
    3.0942    0.9865    0.0000 H   0  0  0  0  0  0  0  0  0  0  0  0
    3.7816   -1.2908    0.0000 H   0  0  0  0  0  0  0  0  0  0  0  0
    4.7086   -1.8255    0.0000 H   0  0  0  0  0  0  0  0  0  0  0  0
    5.3982    1.5107    0.0000 H   0  0  0  0  0  0  0  0  0  0  0  0
    6.3210    0.9779    0.0000 H   0  0  0  0  0  0  0  0  0  0  0  0
    5.5657    1.6768    0.0000 H   0  0  0  0  0  0  0  0  0  0  0  0
    3.7992    1.6487    0.0000 H   0  0  0  0  0  0  0  0  0  0  0  0
    2.4933    0.5404    0.0000 H   0  0  0  0  0  0  0  0  0  0  0  0
    5.3962   -2.1219    0.0000 H   0  0  0  0  0  0  0  0  0  0  0  0
    6.1007   -0.9257    0.0000 H   0  0  0  0  0  0  0  0  0  0  0  0
  1  2  1  0  0  0  0
  1  3  1  0  0  0  0
  1  4  1  0  0  0  0
  1 34  1  1  0  0  0
  2  5  1  0  0  0  0
  2  6  1  0  0  0  0
  2 35  1  6  0  0  0
  3  7  1  0  0  0  0
  3  8  1  0  0  0  0
  3 36  1  1  0  0  0
  4  9  1  0  0  0  0
  4 37  1  0  0  0  0
  4 38  1  0  0  0  0
  5  7  1  0  0  0  0
  5 10  1  0  0  0  0
  5 39  1  1  0  0  0
  6 11  2  0  0  0  0
  6 40  1  0  0  0  0
  7 41  1  0  0  0  0
  7 42  1  0  0  0  0
  8 43  1  0  0  0  0
  9 12  2  0  0  0  0
  9 44  1  0  0  0  0
 10 45  1  0  0  0  0
 11 13  1  0  0  0  0
 11 46  1  0  0  0  0
 12 14  1  0  0  0  0
 12 47  1  0  0  0  0
 13 15  1  0  0  0  0
 13 16  1  0  0  0  0
 13 48  1  1  0  0  0
 14 17  1  0  0  0  0
 14 49  1  0  0  0  0
 14 50  1  0  0  0  0
 15 18  1  0  0  0  0
 15 51  1  0  0  0  0
 15 52  1  0  0  0  0
 16 53  1  0  0  0  0
 17 19  1  0  0  0  0
 17 54  1  0  0  0  0
 17 55  1  0  0  0  0
 18 20  1  0  0  0  0
 18 56  1  0  0  0  0
 18 57  1  0  0  0  0
 19 21  1  0  0  0  0
 19 58  1  0  0  0  0
 19 59  1  0  0  0  0
 20 22  1  0  0  0  0
 20 60  1  0  0  0  0
 20 61  1  0  0  0  0
 21 23  1  0  0  0  0
 21 24  2  0  0  0  0
 22 25  1  0  0  0  0
 22 62  1  0  0  0  0
 22 63  1  0  0  0  0
 23 64  1  0  0  0  0
 25 65  1  0  0  0  0
 25 66  1  0  0  0  0
 25 67  1  0  0  0  0
 26 27  1  0  0  0  0
 26 28  1  0  0  0  0
 26 29  1  0  0  0  0
 26 30  1  0  0  0  0
 27 31  1  0  0  0  0
 27 68  1  0  0  0  0
 27 69  1  0  0  0  0
 28 32  1  0  0  0  0
 28 70  1  0  0  0  0
 28 71  1  0  0  0  0
 29 33  1  0  0  0  0
 29 72  1  0  0  0  0
 29 73  1  0  0  0  0
 30 74  1  0  0  0  0
 30 75  1  0  0  0  0
 31 76  1  0  0  0  0
 32 77  1  0  0  0  0
 33 78  1  0  0  0  0
M  END
>  <DRUGBANK_ID>
DB01160

>  <SECONDARY_ACCESSION_NUMBERS>
APRD00926

>  <COMMON_NAME>
Dinoprost tromethamine

>  <CAS_NUMBER>
38562-01-5

>  <UNII>
CT6BBQ5A68

>  <SYNONYMS>
Dinoprost trometamol; Dinoprost tromethamine; PGF2-alpha THAM; PGF2A THAM; PGF2alpha THAM; Prostaglandin F2-alpha THAM; Prostaglandin F2a tromethamine; Prostaglandin F2alpha tham; Prostin F2 Alpha

$$$$
