
 OpenBabel10282417072D

 29 30  0  0  0  0  0  0  0  0999 V2000
    1.0514    0.2406    0.0000 C   0  0  0  0  0  0  0  0  0  0  0  0
    0.4017   -0.1816    0.0000 N   0  0  0  0  0  0  0  0  0  0  0  0
   -0.3685    0.2232    0.0000 C   0  0  0  0  0  0  0  0  0  0  0  0
   -1.0581   -0.2232    0.0000 C   0  0  0  0  0  0  0  0  0  0  0  0
   -1.0581   -1.0569    0.0000 C   0  0  0  0  0  0  0  0  0  0  0  0
   -1.7189   -1.4748    0.0000 C   0  0  0  0  0  0  0  0  0  0  0  0
   -2.4894   -1.1226    0.0000 C   0  0  0  0  0  0  0  0  0  0  0  0
   -2.4894   -0.2778    0.0000 C   0  0  0  0  0  0  0  0  0  0  0  0
   -1.8240    0.1488    0.0000 C   0  0  0  0  0  0  0  0  0  0  0  0
   -1.8240    0.6440    0.0000 C   0  0  0  0  0  0  0  0  0  0  0  0
   -0.3685    1.0154    0.0000 O   0  0  0  0  0  0  0  0  0  0  0  0
    1.0514    1.0350    0.0000 C   0  0  0  0  0  0  0  0  0  0  0  0
    1.7517    1.4748    0.0000 C   0  0  0  0  0  0  0  0  0  0  0  0
    2.4894    1.0482    0.0000 C   0  0  0  0  0  0  0  0  0  0  0  0
    2.4894    0.2232    0.0000 C   0  0  0  0  0  0  0  0  0  0  0  0
    1.7476   -0.1816    0.0000 C   0  0  0  0  0  0  0  0  0  0  0  0
    0.4471   -1.1651    0.0000 H   0  0  0  0  0  0  0  0  0  0  0  0
   -0.1541   -1.5548    0.0000 H   0  0  0  0  0  0  0  0  0  0  0  0
   -1.6492   -2.5044    0.0000 H   0  0  0  0  0  0  0  0  0  0  0  0
   -3.3577   -1.6804    0.0000 H   0  0  0  0  0  0  0  0  0  0  0  0
   -3.3949    0.2173    0.0000 H   0  0  0  0  0  0  0  0  0  0  0  0
   -0.8974    1.1790    0.0000 H   0  0  0  0  0  0  0  0  0  0  0  0
   -2.7506    1.1790    0.0000 H   0  0  0  0  0  0  0  0  0  0  0  0
   -1.8240    1.7140    0.0000 H   0  0  0  0  0  0  0  0  0  0  0  0
    0.1482    1.5343    0.0000 H   0  0  0  0  0  0  0  0  0  0  0  0
    1.7329    2.5066    0.0000 H   0  0  0  0  0  0  0  0  0  0  0  0
    3.3833    1.5639    0.0000 H   0  0  0  0  0  0  0  0  0  0  0  0
    3.3769   -0.3035    0.0000 H   0  0  0  0  0  0  0  0  0  0  0  0
    1.7241   -1.2133    0.0000 H   0  0  0  0  0  0  0  0  0  0  0  0
  1  2  1  0  0  0  0
  1 12  1  0  0  0  0
  1 16  2  0  0  0  0
  2  3  1  0  0  0  0
  2 17  1  0  0  0  0
  3  4  1  0  0  0  0
  3 11  2  0  0  0  0
  4  5  1  0  0  0  0
  4  9  2  0  0  0  0
  5  6  2  0  0  0  0
  5 18  1  0  0  0  0
  6  7  1  0  0  0  0
  6 19  1  0  0  0  0
  7 20  1  0  0  0  0
  8  7  2  0  0  0  0
  8 21  1  0  0  0  0
  9  8  1  0  0  0  0
  9 10  1  0  0  0  0
 10 22  1  0  0  0  0
 10 23  1  0  0  0  0
 10 24  1  0  0  0  0
 12 13  2  0  0  0  0
 12 25  1  0  0  0  0
 13 14  1  0  0  0  0
 13 26  1  0  0  0  0
 14 27  1  0  0  0  0
 15 14  2  0  0  0  0
 15 28  1  0  0  0  0
 16 15  1  0  0  0  0
 16 29  1  0  0  0  0
M  END
>  <DRUGBANK_ID>
DB14728

>  <COMMON_NAME>
Mebenil

>  <CAS_NUMBER>
7055-03-0

>  <UNII>
B8MA40FMWG

>  <SYNONYMS>
2-Methyl-N-phenylbenzamide; 2-Methylbenzanilide; 2-Methylbenzoanilide; 2-Methylbenzoic acid anilide; o-Methylbenzanilide; o-Toluanilide

$$$$
