
 OpenBabel10282417072D

 41 42  0  0  0  0  0  0  0  0999 V2000
   -0.0031    0.4243    0.0000 C   0  0  3  0  0  0  0  0  0  0  0  0
   -0.0031   -0.3988    0.0000 C   0  0  0  0  0  0  0  0  0  0  0  0
    0.7142    0.8377    0.0000 O   0  0  0  0  0  0  0  0  0  0  0  0
   -0.7204    0.8377    0.0000 C   0  0  0  0  0  0  0  0  0  0  0  0
   -0.7238   -0.8122    0.0000 C   0  0  0  0  0  0  0  0  0  0  0  0
    0.7108   -0.8122    0.0000 C   0  0  0  0  0  0  0  0  0  0  0  0
    1.4282    0.4243    0.0000 C   0  0  0  0  0  0  0  0  0  0  0  0
   -1.4309    0.4278    0.0000 C   0  0  0  0  0  0  0  0  0  0  0  0
   -0.7238   -1.6388    0.0000 C   0  0  0  0  0  0  0  0  0  0  0  0
    0.7108   -1.6388    0.0000 C   0  0  0  0  0  0  0  0  0  0  0  0
    1.4282   -0.3988    0.0000 C   0  0  0  0  0  0  0  0  0  0  0  0
    2.1421    0.8377    0.0000 C   0  0  0  0  0  0  0  0  0  0  0  0
   -2.1484    0.8411    0.0000 N   0  0  0  0  0  0  0  0  0  0  0  0
   -0.0031   -2.0522    0.0000 C   0  0  0  0  0  0  0  0  0  0  0  0
    2.1387   -0.8122    0.0000 C   0  0  0  0  0  0  0  0  0  0  0  0
    2.8561    0.4243    0.0000 C   0  0  0  0  0  0  0  0  0  0  0  0
   -2.8624    0.4278    0.0000 C   0  0  0  0  0  0  0  0  0  0  0  0
    2.8561   -0.4023    0.0000 C   0  0  0  0  0  0  0  0  0  0  0  0
    2.1424    1.6369    0.0000 O   0  0  0  0  0  0  0  0  0  0  0  0
    2.8624    2.0522    0.0000 C   0  0  0  0  0  0  0  0  0  0  0  0
    0.9233   -0.1111    0.0000 H   0  0  0  0  0  0  0  0  0  0  0  0
   -0.7206    1.9077    0.0000 H   0  0  0  0  0  0  0  0  0  0  0  0
   -1.6470    1.3727    0.0000 H   0  0  0  0  0  0  0  0  0  0  0  0
   -1.6168   -0.2949    0.0000 H   0  0  0  0  0  0  0  0  0  0  0  0
    1.6049   -0.2968    0.0000 H   0  0  0  0  0  0  0  0  0  0  0  0
   -1.4305   -0.6422    0.0000 H   0  0  0  0  0  0  0  0  0  0  0  0
   -2.3572   -0.1078    0.0000 H   0  0  0  0  0  0  0  0  0  0  0  0
   -1.6168   -2.1561    0.0000 H   0  0  0  0  0  0  0  0  0  0  0  0
    1.6049   -2.1542    0.0000 H   0  0  0  0  0  0  0  0  0  0  0  0
    0.5336   -0.9133    0.0000 H   0  0  0  0  0  0  0  0  0  0  0  0
   -2.1495    1.8611    0.0000 H   0  0  0  0  0  0  0  0  0  0  0  0
   -0.0010   -3.0842    0.0000 H   0  0  0  0  0  0  0  0  0  0  0  0
    2.1346   -1.8442    0.0000 H   0  0  0  0  0  0  0  0  0  0  0  0
    3.7502    0.9398    0.0000 H   0  0  0  0  0  0  0  0  0  0  0  0
   -3.7896    0.9618    0.0000 H   0  0  0  0  0  0  0  0  0  0  0  0
   -2.8612   -0.6422    0.0000 H   0  0  0  0  0  0  0  0  0  0  0  0
   -3.7884   -0.1082    0.0000 H   0  0  0  0  0  0  0  0  0  0  0  0
    3.7487   -0.9203    0.0000 H   0  0  0  0  0  0  0  0  0  0  0  0
    3.7888    1.5168    0.0000 H   0  0  0  0  0  0  0  0  0  0  0  0
    2.8628    3.1222    0.0000 H   0  0  0  0  0  0  0  0  0  0  0  0
    3.7893    2.5868    0.0000 H   0  0  0  0  0  0  0  0  0  0  0  0
  1  2  1  0  0  0  0
  1  3  1  0  0  0  0
  1  4  1  0  0  0  0
  1 21  1  0  0  0  0
  2  5  1  0  0  0  0
  2  6  2  0  0  0  0
  3  7  1  0  0  0  0
  4  8  1  0  0  0  0
  4 22  1  0  0  0  0
  4 23  1  0  0  0  0
  5  9  2  0  0  0  0
  5 24  1  0  0  0  0
  6 10  1  0  0  0  0
  6 25  1  0  0  0  0
  7 11  2  0  0  0  0
  7 12  1  0  0  0  0
  8 13  1  0  0  0  0
  8 26  1  0  0  0  0
  8 27  1  0  0  0  0
  9 14  1  0  0  0  0
  9 28  1  0  0  0  0
 10 14  2  0  0  0  0
 10 29  1  0  0  0  0
 11 15  1  0  0  0  0
 11 30  1  0  0  0  0
 12 16  2  0  0  0  0
 12 19  1  0  0  0  0
 13 17  1  0  0  0  0
 13 31  1  0  0  0  0
 14 32  1  0  0  0  0
 15 18  2  0  0  0  0
 15 33  1  0  0  0  0
 16 18  1  0  0  0  0
 16 34  1  0  0  0  0
 17 35  1  0  0  0  0
 17 36  1  0  0  0  0
 17 37  1  0  0  0  0
 18 38  1  0  0  0  0
 19 20  1  0  0  0  0
 20 39  1  0  0  0  0
 20 40  1  0  0  0  0
 20 41  1  0  0  0  0
M  END
>  <DRUGBANK_ID>
DB09186

>  <COMMON_NAME>
Nisoxetine

>  <CAS_NUMBER>
53179-07-0

>  <UNII>
17NV064B2D

>  <SYNONYMS>
nisoxetina; Nisoxetine

$$$$
