
 OpenBabel10282417072D

 45 48  0  0  0  0  0  0  0  0999 V2000
   -1.4289    8.0036    0.0000 C   0  0  0  0  0  0  0  0  0  0  0  0
   -0.7145    8.4161    0.0000 C   0  0  0  0  0  0  0  0  0  0  0  0
   -0.0000    8.0036    0.0000 C   0  0  0  0  0  0  0  0  0  0  0  0
   -0.0000    7.1786    0.0000 C   0  0  0  0  0  0  0  0  0  0  0  0
   -0.7145    6.7661    0.0000 C   0  0  0  0  0  0  0  0  0  0  0  0
   -1.4289    7.1786    0.0000 C   0  0  0  0  0  0  0  0  0  0  0  0
   -2.1434    6.7661    0.0000 F   0  0  0  0  0  0  0  0  0  0  0  0
    0.7145    6.7661    0.0000 O   0  0  0  0  0  0  0  0  0  0  0  0
    0.7145    5.9411    0.0000 C   0  0  0  0  0  0  0  0  0  0  0  0
    1.4289    5.5286    0.0000 C   0  0  0  0  0  0  0  0  0  0  0  0
    1.4289    4.7036    0.0000 C   0  0  0  0  0  0  0  0  0  0  0  0
    0.7145    4.2911    0.0000 N   0  0  0  0  0  0  0  0  0  0  0  0
    0.0000    4.7036    0.0000 C   0  0  0  0  0  0  0  0  0  0  0  0
   -0.0000    5.5286    0.0000 C   0  0  0  0  0  0  0  0  0  0  0  0
    0.7145    3.4661    0.0000 C   0  0  0  0  0  0  0  0  0  0  0  0
    1.3819    2.9812    0.0000 C   0  0  0  0  0  0  0  0  0  0  0  0
    1.1270    2.1965    0.0000 C   0  0  0  0  0  0  0  0  0  0  0  0
    0.3020    2.1965    0.0000 O   0  0  0  0  0  0  0  0  0  0  0  0
    0.0470    2.9812    0.0000 N   0  0  0  0  0  0  0  0  0  0  0  0
    1.6119    1.5291    0.0000 C   0  0  0  0  0  0  0  0  0  0  0  0
    2.4369    1.5291    0.0000 N   0  0  0  0  0  0  0  0  0  0  0  0
    2.6918    0.7445    0.0000 N   0  0  0  0  0  0  0  0  0  0  0  0
    2.0244    0.2595    0.0000 N   0  0  0  0  0  0  0  0  0  0  0  0
    1.3570    0.7445    0.0000 N   0  0  0  0  0  0  0  0  0  0  0  0
    2.0244   -0.5655    0.0000 C   0  0  0  0  0  0  0  0  0  0  0  0
    1.3099   -0.9780    0.0000 C   0  0  0  0  0  0  0  0  0  0  0  0
    1.3099   -1.8030    0.0000 O   0  0  0  0  0  0  0  0  0  0  0  0
    0.5955   -0.5655    0.0000 O   0  0  0  0  0  0  0  0  0  0  0  0
    0.7145    8.4161    0.0000 Br  0  0  0  0  0  0  0  0  0  0  0  0
   -2.3226    8.5196    0.0000 H   0  0  0  0  0  0  0  0  0  0  0  0
   -0.7145    9.4481    0.0000 H   0  0  0  0  0  0  0  0  0  0  0  0
   -0.7145    5.7341    0.0000 H   0  0  0  0  0  0  0  0  0  0  0  0
    0.7145    4.8711    0.0000 H   0  0  0  0  0  0  0  0  0  0  0  0
    2.3556    6.0636    0.0000 H   0  0  0  0  0  0  0  0  0  0  0  0
    2.3555    4.9936    0.0000 H   0  0  0  0  0  0  0  0  0  0  0  0
    2.3556    4.1686    0.0000 H   0  0  0  0  0  0  0  0  0  0  0  0
    1.4289    3.6336    0.0000 H   0  0  0  0  0  0  0  0  0  0  0  0
   -0.9266    4.1686    0.0000 H   0  0  0  0  0  0  0  0  0  0  0  0
   -0.9266    5.2386    0.0000 H   0  0  0  0  0  0  0  0  0  0  0  0
   -0.9266    6.0636    0.0000 H   0  0  0  0  0  0  0  0  0  0  0  0
    0.0000    6.5986    0.0000 H   0  0  0  0  0  0  0  0  0  0  0  0
    2.3634    3.3001    0.0000 H   0  0  0  0  0  0  0  0  0  0  0  0
    2.9510   -1.1005    0.0000 H   0  0  0  0  0  0  0  0  0  0  0  0
    2.0244   -1.6355    0.0000 H   0  0  0  0  0  0  0  0  0  0  0  0
    0.5955    0.3715    0.0000 H   0  0  0  0  0  0  0  0  0  0  0  0
  1  2  2  0  0  0  0
  1  6  1  0  0  0  0
  1 30  1  0  0  0  0
  2  3  1  0  0  0  0
  2 31  1  0  0  0  0
  3  4  2  0  0  0  0
  3 29  1  0  0  0  0
  4  5  1  0  0  0  0
  4  8  1  0  0  0  0
  5  6  2  0  0  0  0
  5 32  1  0  0  0  0
  6  7  1  0  0  0  0
  8  9  1  0  0  0  0
  9 10  1  0  0  0  0
  9 14  1  0  0  0  0
  9 33  1  0  0  0  0
 10 11  1  0  0  0  0
 10 34  1  0  0  0  0
 10 35  1  0  0  0  0
 11 12  1  0  0  0  0
 11 36  1  0  0  0  0
 11 37  1  0  0  0  0
 12 13  1  0  0  0  0
 12 15  1  0  0  0  0
 13 14  1  0  0  0  0
 13 38  1  0  0  0  0
 13 39  1  0  0  0  0
 14 40  1  0  0  0  0
 14 41  1  0  0  0  0
 15 16  1  0  0  0  0
 15 19  2  0  0  0  0
 16 17  2  0  0  0  0
 16 42  1  0  0  0  0
 17 18  1  0  0  0  0
 17 20  1  0  0  0  0
 18 19  1  0  0  0  0
 20 21  1  0  0  0  0
 20 24  2  0  0  0  0
 21 22  2  0  0  0  0
 22 23  1  0  0  0  0
 23 24  1  0  0  0  0
 23 25  1  0  0  0  0
 25 26  1  0  0  0  0
 25 43  1  0  0  0  0
 25 44  1  0  0  0  0
 26 27  2  0  0  0  0
 26 28  1  0  0  0  0
 28 45  1  0  0  0  0
M  END
>  <DRUGBANK_ID>
DB13024

>  <COMMON_NAME>
MK-8245

>  <CAS_NUMBER>
1030612-90-8

>  <UNII>
537E7QE8LX

$$$$
