DBA
 OpenBabel10282417072D

 25 25  0  0  0  0  0  0  0  0999 V2000
    1.3991    1.4671    0.0000 C   0  0  0  0  0  0  0  0  0  0  0  0
    0.6846    1.0546    0.0000 C   0  0  0  0  0  0  0  0  0  0  0  0
   -0.0299   -0.1829    0.0000 C   0  0  0  0  0  0  0  0  0  0  0  0
   -0.0299   -1.0079    0.0000 C   0  0  0  0  0  0  0  0  0  0  0  0
   -0.7443   -1.4204    0.0000 C   0  0  0  0  0  0  0  0  0  0  0  0
   -1.4588   -1.0079    0.0000 C   0  0  0  0  0  0  0  0  0  0  0  0
   -1.4588   -0.1829    0.0000 C   0  0  0  0  0  0  0  0  0  0  0  0
   -0.7443    0.2296    0.0000 C   0  0  0  0  0  0  0  0  0  0  0  0
    0.6846   -1.4204    0.0000 C   0  0  0  0  0  0  0  0  0  0  0  0
   -0.7443    1.0546    0.0000 C   0  0  0  0  0  0  0  0  0  0  0  0
    1.3991    2.2921    0.0000 O   0  0  0  0  0  0  0  0  0  0  0  0
    2.1135    1.0546    0.0000 O   0  0  0  0  0  0  0  0  0  0  0  0
    0.6846    0.2296    0.0000 O   0  0  0  0  0  0  0  0  0  0  0  0
   -0.2420    1.5896    0.0000 H   0  0  0  0  0  0  0  0  0  0  0  0
   -0.2420    0.5196    0.0000 H   0  0  0  0  0  0  0  0  0  0  0  0
   -0.7443   -2.4524    0.0000 H   0  0  0  0  0  0  0  0  0  0  0  0
   -2.3525   -1.5239    0.0000 H   0  0  0  0  0  0  0  0  0  0  0  0
   -2.3525    0.3331    0.0000 H   0  0  0  0  0  0  0  0  0  0  0  0
    0.6846   -2.4904    0.0000 H   0  0  0  0  0  0  0  0  0  0  0  0
    1.6112   -0.8854    0.0000 H   0  0  0  0  0  0  0  0  0  0  0  0
    1.6113   -1.9554    0.0000 H   0  0  0  0  0  0  0  0  0  0  0  0
    0.1823    1.5896    0.0000 H   0  0  0  0  0  0  0  0  0  0  0  0
   -1.6709    1.5896    0.0000 H   0  0  0  0  0  0  0  0  0  0  0  0
   -0.7443    2.1246    0.0000 H   0  0  0  0  0  0  0  0  0  0  0  0
    2.1135    0.1176    0.0000 H   0  0  0  0  0  0  0  0  0  0  0  0
  1  2  1  0  0  0  0
  1 11  2  0  0  0  0
  1 12  1  0  0  0  0
  2 13  1  0  0  0  0
  2 14  1  0  0  0  0
  2 15  1  0  0  0  0
  3  4  2  0  0  0  0
  3  8  1  0  0  0  0
  3 13  1  0  0  0  0
  4  5  1  0  0  0  0
  4  9  1  0  0  0  0
  5  6  2  0  0  0  0
  5 16  1  0  0  0  0
  6  7  1  0  0  0  0
  6 17  1  0  0  0  0
  7  8  2  0  0  0  0
  7 18  1  0  0  0  0
  8 10  1  0  0  0  0
  9 19  1  0  0  0  0
  9 20  1  0  0  0  0
  9 21  1  0  0  0  0
 10 22  1  0  0  0  0
 10 23  1  0  0  0  0
 10 24  1  0  0  0  0
 12 25  1  0  0  0  0
M  END
>  <DRUGBANK_ID>
DB07634

>  <COMMON_NAME>
(2,6-Dimethylphenoxy)acetic acid

>  <CAS_NUMBER>
13335-71-2

>  <UNII>
8RVEL9W5CF

>  <SYNONYMS>
(2,6-Xylyloxy) acetic acid

$$$$
