DRF
 OpenBabel10282417072D

 56 59  0  0  0  0  0  0  0  0999 V2000
    1.6621   -0.8615    0.0000 O   0  0  0  0  0  0  0  0  0  0  0  0
    2.3766   -1.2740    0.0000 C   0  0  0  0  0  0  0  0  0  0  0  0
    3.0911   -0.8615    0.0000 O   0  0  0  0  0  0  0  0  0  0  0  0
    2.3766   -2.0990    0.0000 C   0  0  1  0  0  0  0  0  0  0  0  0
    3.0911   -2.5115    0.0000 O   0  0  0  0  0  0  0  0  0  0  0  0
    3.8056   -2.0990    0.0000 C   0  0  0  0  0  0  0  0  0  0  0  0
    4.5200   -2.5115    0.0000 C   0  0  0  0  0  0  0  0  0  0  0  0
    1.6621   -2.5115    0.0000 C   0  0  0  0  0  0  0  0  0  0  0  0
    0.9477   -2.0990    0.0000 C   0  0  0  0  0  0  0  0  0  0  0  0
    0.2332   -2.5115    0.0000 C   0  0  0  0  0  0  0  0  0  0  0  0
   -0.4813   -2.0990    0.0000 C   0  0  0  0  0  0  0  0  0  0  0  0
   -0.4813   -1.2740    0.0000 C   0  0  0  0  0  0  0  0  0  0  0  0
   -1.1957   -0.8615    0.0000 O   0  0  0  0  0  0  0  0  0  0  0  0
   -1.1957   -0.0365    0.0000 C   0  0  0  0  0  0  0  0  0  0  0  0
   -1.9102    0.3760    0.0000 C   0  0  0  0  0  0  0  0  0  0  0  0
   -1.9102    1.2010    0.0000 N   0  0  0  0  0  0  0  0  0  0  0  0
   -1.1957    1.6135    0.0000 C   0  0  0  0  0  0  0  0  0  0  0  0
   -1.1957    2.4385    0.0000 C   0  0  0  0  0  0  0  0  0  0  0  0
   -1.9102    2.8510    0.0000 O   0  0  0  0  0  0  0  0  0  0  0  0
   -2.6247    2.4385    0.0000 C   0  0  0  0  0  0  0  0  0  0  0  0
   -2.6247    1.6135    0.0000 C   0  0  0  0  0  0  0  0  0  0  0  0
   -3.3392    1.2010    0.0000 C   0  0  0  0  0  0  0  0  0  0  0  0
   -4.0536    1.6135    0.0000 C   0  0  0  0  0  0  0  0  0  0  0  0
   -4.0536    2.4385    0.0000 C   0  0  0  0  0  0  0  0  0  0  0  0
   -3.3392    2.8510    0.0000 C   0  0  0  0  0  0  0  0  0  0  0  0
   -0.4813    2.8510    0.0000 C   0  0  0  0  0  0  0  0  0  0  0  0
    0.2332    2.4385    0.0000 C   0  0  0  0  0  0  0  0  0  0  0  0
    0.2332    1.6135    0.0000 C   0  0  0  0  0  0  0  0  0  0  0  0
   -0.4813    1.2010    0.0000 C   0  0  0  0  0  0  0  0  0  0  0  0
    0.2332   -0.8615    0.0000 C   0  0  0  0  0  0  0  0  0  0  0  0
    0.9477   -1.2740    0.0000 C   0  0  0  0  0  0  0  0  0  0  0  0
    2.8823   -1.8071    0.0000 H   0  0  0  0  0  0  0  0  0  0  0  0
    1.6621    0.0755    0.0000 H   0  0  0  0  0  0  0  0  0  0  0  0
    3.8056   -1.0290    0.0000 H   0  0  0  0  0  0  0  0  0  0  0  0
    4.7323   -1.5640    0.0000 H   0  0  0  0  0  0  0  0  0  0  0  0
    4.5200   -3.5815    0.0000 H   0  0  0  0  0  0  0  0  0  0  0  0
    5.4467   -1.9765    0.0000 H   0  0  0  0  0  0  0  0  0  0  0  0
    5.4466   -3.0465    0.0000 H   0  0  0  0  0  0  0  0  0  0  0  0
    1.6621   -3.5815    0.0000 H   0  0  0  0  0  0  0  0  0  0  0  0
    0.7354   -3.0465    0.0000 H   0  0  0  0  0  0  0  0  0  0  0  0
    0.2332   -3.5435    0.0000 H   0  0  0  0  0  0  0  0  0  0  0  0
   -1.3750   -2.6150    0.0000 H   0  0  0  0  0  0  0  0  0  0  0  0
   -0.2691    0.4985    0.0000 H   0  0  0  0  0  0  0  0  0  0  0  0
   -1.1957    1.0335    0.0000 H   0  0  0  0  0  0  0  0  0  0  0  0
   -2.8368   -0.1590    0.0000 H   0  0  0  0  0  0  0  0  0  0  0  0
   -2.8368    0.9110    0.0000 H   0  0  0  0  0  0  0  0  0  0  0  0
   -3.3392    0.1690    0.0000 H   0  0  0  0  0  0  0  0  0  0  0  0
   -4.9473    1.0975    0.0000 H   0  0  0  0  0  0  0  0  0  0  0  0
   -4.9473    2.9545    0.0000 H   0  0  0  0  0  0  0  0  0  0  0  0
   -3.3392    3.8830    0.0000 H   0  0  0  0  0  0  0  0  0  0  0  0
   -0.4813    3.8830    0.0000 H   0  0  0  0  0  0  0  0  0  0  0  0
    1.1269    2.9545    0.0000 H   0  0  0  0  0  0  0  0  0  0  0  0
    1.1269    1.0975    0.0000 H   0  0  0  0  0  0  0  0  0  0  0  0
   -0.4813    0.1690    0.0000 H   0  0  0  0  0  0  0  0  0  0  0  0
    0.2332    0.1705    0.0000 H   0  0  0  0  0  0  0  0  0  0  0  0
    1.8414   -0.7580    0.0000 H   0  0  0  0  0  0  0  0  0  0  0  0
  1  2  1  0  0  0  0
  1 33  1  0  0  0  0
  2  3  2  0  0  0  0
  2  4  1  0  0  0  0
  4  5  1  0  0  0  0
  4  8  1  0  0  0  0
  4 32  1  6  0  0  0
  5  6  1  0  0  0  0
  6  7  1  0  0  0  0
  6 34  1  0  0  0  0
  6 35  1  0  0  0  0
  7 36  1  0  0  0  0
  7 37  1  0  0  0  0
  7 38  1  0  0  0  0
  8  9  1  0  0  0  0
  8 39  1  0  0  0  0
  8 40  1  0  0  0  0
  9 10  2  0  0  0  0
  9 31  1  0  0  0  0
 10 11  1  0  0  0  0
 10 41  1  0  0  0  0
 11 12  2  0  0  0  0
 11 42  1  0  0  0  0
 12 13  1  0  0  0  0
 12 30  1  0  0  0  0
 13 14  1  0  0  0  0
 14 15  1  0  0  0  0
 14 43  1  0  0  0  0
 14 44  1  0  0  0  0
 15 16  1  0  0  0  0
 15 45  1  0  0  0  0
 15 46  1  0  0  0  0
 16 17  1  0  0  0  0
 16 21  1  0  0  0  0
 17 18  2  0  0  0  0
 17 29  1  0  0  0  0
 18 19  1  0  0  0  0
 18 26  1  0  0  0  0
 19 20  1  0  0  0  0
 20 21  2  0  0  0  0
 20 25  1  0  0  0  0
 21 22  1  0  0  0  0
 22 23  2  0  0  0  0
 22 47  1  0  0  0  0
 23 24  1  0  0  0  0
 23 48  1  0  0  0  0
 24 25  2  0  0  0  0
 24 49  1  0  0  0  0
 25 50  1  0  0  0  0
 26 27  2  0  0  0  0
 26 51  1  0  0  0  0
 27 28  1  0  0  0  0
 27 52  1  0  0  0  0
 28 29  2  0  0  0  0
 28 53  1  0  0  0  0
 29 54  1  0  0  0  0
 30 31  2  0  0  0  0
 30 55  1  0  0  0  0
 31 56  1  0  0  0  0
M  END
>  <DRUGBANK_ID>
DB07675

>  <COMMON_NAME>
(2S)-2-ETHOXY-3-{4-[2-(10H-PHENOXAZIN-10-YL)ETHOXY]PHENYL}PROPANOIC ACID

$$$$
