
 OpenBabel10282417072D

 61 65  0  0  0  0  0  0  0  0999 V2000
    0.9920    6.1875    0.0000 C   0  0  0  0  0  0  0  0  0  0  0  0
    0.9920    5.3625    0.0000 N   0  0  0  0  0  0  0  0  0  0  0  0
    1.7064    4.9500    0.0000 C   0  0  0  0  0  0  0  0  0  0  0  0
    1.7064    4.1250    0.0000 C   0  0  0  0  0  0  0  0  0  0  0  0
    0.9920    3.7125    0.0000 N   0  0  0  0  0  0  0  0  0  0  0  0
    0.2775    4.1250    0.0000 C   0  0  0  0  0  0  0  0  0  0  0  0
    0.2775    4.9500    0.0000 C   0  0  0  0  0  0  0  0  0  0  0  0
    0.9920    2.8875    0.0000 C   0  0  0  0  0  0  0  0  0  0  0  0
    1.7064    2.4750    0.0000 C   0  0  0  0  0  0  0  0  0  0  0  0
    1.7064    1.6500    0.0000 C   0  0  0  0  0  0  0  0  0  0  0  0
    0.9920    1.2375    0.0000 C   0  0  0  0  0  0  0  0  0  0  0  0
    0.9920    0.4125    0.0000 N   0  0  0  0  0  0  0  0  0  0  0  0
    0.2775    0.0000    0.0000 C   0  0  0  0  0  0  0  0  0  0  0  0
    0.2775   -0.8250    0.0000 N   0  0  0  0  0  0  0  0  0  0  0  0
   -0.4369   -1.2375    0.0000 C   0  0  0  0  0  0  0  0  0  0  0  0
   -0.4369   -2.0625    0.0000 O   0  0  0  0  0  0  0  0  0  0  0  0
    0.2775   -2.4750    0.0000 C   0  0  0  0  0  0  0  0  0  0  0  0
    0.9920   -2.0625    0.0000 C   0  0  0  0  0  0  0  0  0  0  0  0
    1.7064   -2.4750    0.0000 C   0  0  0  0  0  0  0  0  0  0  0  0
    1.7064   -3.3000    0.0000 C   0  0  0  0  0  0  0  0  0  0  0  0
    0.9920   -3.7125    0.0000 C   0  0  0  0  0  0  0  0  0  0  0  0
    0.9920   -4.5375    0.0000 N   0  0  0  0  0  0  0  0  0  0  0  0
    1.7064   -4.9500    0.0000 C   0  0  0  0  0  0  0  0  0  0  0  0
    2.4209   -4.5375    0.0000 O   0  0  0  0  0  0  0  0  0  0  0  0
    1.7064   -5.7750    0.0000 C   0  0  0  0  0  0  0  0  0  0  0  0
    2.4209   -6.1875    0.0000 C   0  0  0  0  0  0  0  0  0  0  0  0
    0.2775   -3.3000    0.0000 C   0  0  0  0  0  0  0  0  0  0  0  0
   -1.1514   -0.8250    0.0000 C   0  0  0  0  0  0  0  0  0  0  0  0
   -1.9360   -1.0799    0.0000 S   0  0  0  0  0  0  0  0  0  0  0  0
   -2.4209   -0.4125    0.0000 C   0  0  0  0  0  0  0  0  0  0  0  0
   -1.9360    0.2549    0.0000 C   0  0  0  0  0  0  0  0  0  0  0  0
   -1.1514    0.0000    0.0000 C   0  0  0  0  0  0  0  0  0  0  0  0
   -0.4369    0.4125    0.0000 N   0  0  0  0  0  0  0  0  0  0  0  0
    0.2775    1.6500    0.0000 C   0  0  0  0  0  0  0  0  0  0  0  0
    0.2775    2.4750    0.0000 C   0  0  0  0  0  0  0  0  0  0  0  0
    1.9186    6.7225    0.0000 H   0  0  0  0  0  0  0  0  0  0  0  0
    0.0654    6.7225    0.0000 H   0  0  0  0  0  0  0  0  0  0  0  0
    0.9920    7.2575    0.0000 H   0  0  0  0  0  0  0  0  0  0  0  0
    2.6331    5.4850    0.0000 H   0  0  0  0  0  0  0  0  0  0  0  0
    2.6330    4.4150    0.0000 H   0  0  0  0  0  0  0  0  0  0  0  0
    2.6331    3.5900    0.0000 H   0  0  0  0  0  0  0  0  0  0  0  0
    1.7064    3.0550    0.0000 H   0  0  0  0  0  0  0  0  0  0  0  0
   -0.6491    3.5900    0.0000 H   0  0  0  0  0  0  0  0  0  0  0  0
   -0.6491    4.6600    0.0000 H   0  0  0  0  0  0  0  0  0  0  0  0
   -0.6491    5.4850    0.0000 H   0  0  0  0  0  0  0  0  0  0  0  0
    0.2775    6.0200    0.0000 H   0  0  0  0  0  0  0  0  0  0  0  0
    2.6001    2.9910    0.0000 H   0  0  0  0  0  0  0  0  0  0  0  0
    2.6001    1.1340    0.0000 H   0  0  0  0  0  0  0  0  0  0  0  0
    1.8446   -0.0798    0.0000 H   0  0  0  0  0  0  0  0  0  0  0  0
    0.9920   -1.0305    0.0000 H   0  0  0  0  0  0  0  0  0  0  0  0
    2.6001   -1.9590    0.0000 H   0  0  0  0  0  0  0  0  0  0  0  0
    2.6001   -3.8160    0.0000 H   0  0  0  0  0  0  0  0  0  0  0  0
    0.1394   -5.0297    0.0000 H   0  0  0  0  0  0  0  0  0  0  0  0
    0.8127   -6.2910    0.0000 H   0  0  0  0  0  0  0  0  0  0  0  0
    2.4209   -7.2195    0.0000 H   0  0  0  0  0  0  0  0  0  0  0  0
    3.3146   -5.6715    0.0000 H   0  0  0  0  0  0  0  0  0  0  0  0
   -0.6162   -3.8160    0.0000 H   0  0  0  0  0  0  0  0  0  0  0  0
   -3.4529   -0.4125    0.0000 H   0  0  0  0  0  0  0  0  0  0  0  0
   -2.2549    1.2364    0.0000 H   0  0  0  0  0  0  0  0  0  0  0  0
   -0.6162    1.1340    0.0000 H   0  0  0  0  0  0  0  0  0  0  0  0
   -0.6162    2.9910    0.0000 H   0  0  0  0  0  0  0  0  0  0  0  0
  1  2  1  0  0  0  0
  1 36  1  0  0  0  0
  1 37  1  0  0  0  0
  1 38  1  0  0  0  0
  2  3  1  0  0  0  0
  2  7  1  0  0  0  0
  3  4  1  0  0  0  0
  3 39  1  0  0  0  0
  3 40  1  0  0  0  0
  4  5  1  0  0  0  0
  4 41  1  0  0  0  0
  4 42  1  0  0  0  0
  5  6  1  0  0  0  0
  5  8  1  0  0  0  0
  6  7  1  0  0  0  0
  6 43  1  0  0  0  0
  6 44  1  0  0  0  0
  7 45  1  0  0  0  0
  7 46  1  0  0  0  0
  8  9  2  0  0  0  0
  8 35  1  0  0  0  0
  9 10  1  0  0  0  0
  9 47  1  0  0  0  0
 10 11  2  0  0  0  0
 10 48  1  0  0  0  0
 11 12  1  0  0  0  0
 11 34  1  0  0  0  0
 12 13  1  0  0  0  0
 12 49  1  0  0  0  0
 13 14  2  0  0  0  0
 13 33  1  0  0  0  0
 14 15  1  0  0  0  0
 15 16  1  0  0  0  0
 15 28  2  0  0  0  0
 16 17  1  0  0  0  0
 17 18  2  0  0  0  0
 17 27  1  0  0  0  0
 18 19  1  0  0  0  0
 18 50  1  0  0  0  0
 19 20  2  0  0  0  0
 19 51  1  0  0  0  0
 20 21  1  0  0  0  0
 20 52  1  0  0  0  0
 21 22  1  0  0  0  0
 21 27  2  0  0  0  0
 22 23  1  0  0  0  0
 22 53  1  0  0  0  0
 23 24  2  0  0  0  0
 23 25  1  0  0  0  0
 25 26  2  0  0  0  0
 25 54  1  0  0  0  0
 26 55  1  0  0  0  0
 26 56  1  0  0  0  0
 27 57  1  0  0  0  0
 28 29  1  0  0  0  0
 28 32  1  0  0  0  0
 29 30  1  0  0  0  0
 30 31  2  0  0  0  0
 30 58  1  0  0  0  0
 31 32  1  0  0  0  0
 31 59  1  0  0  0  0
 32 33  2  0  0  0  0
 34 35  2  0  0  0  0
 34 60  1  0  0  0  0
 35 61  1  0  0  0  0
M  END
>  <DRUGBANK_ID>
DB13164

>  <COMMON_NAME>
Olmutinib

>  <CAS_NUMBER>
1353550-13-6

>  <UNII>
CHL9B67L95

>  <SYNONYMS>
Olmutinib

$$$$
