
 OpenBabel10282417072D

 28 30  0  0  0  0  0  0  0  0999 V2000
   -0.0796   -0.8250    0.0000 C   0  0  0  0  0  0  0  0  0  0  0  0
   -0.7941   -1.2375    0.0000 C   0  0  0  0  0  0  0  0  0  0  0  0
   -1.5086   -0.8250    0.0000 C   0  0  0  0  0  0  0  0  0  0  0  0
   -1.5086    0.0000    0.0000 C   0  0  0  0  0  0  0  0  0  0  0  0
   -0.7941    0.4125    0.0000 C   0  0  0  0  0  0  0  0  0  0  0  0
   -0.0796    0.0000    0.0000 C   0  0  0  0  0  0  0  0  0  0  0  0
    0.6347    0.4125    0.0000 C   0  0  0  0  0  0  0  0  0  0  0  0
    0.6347    1.2375    0.0000 O   0  0  0  0  0  0  0  0  0  0  0  0
    1.3492    0.0000    0.0000 N   0  0  0  0  0  0  0  0  0  0  0  0
    2.0637    0.4125    0.0000 C   0  0  0  0  0  0  0  0  0  0  0  0
    2.7781    0.0000    0.0000 C   0  0  0  0  0  0  0  0  0  0  0  0
    2.7781   -0.8250    0.0000 O   0  0  0  0  0  0  0  0  0  0  0  0
    2.0637   -1.2375    0.0000 C   0  0  0  0  0  0  0  0  0  0  0  0
    1.3492   -0.8250    0.0000 C   0  0  0  0  0  0  0  0  0  0  0  0
   -2.2932    0.2549    0.0000 N   0  0  0  0  0  0  0  0  0  0  0  0
   -2.7781   -0.4125    0.0000 O   0  0  0  0  0  0  0  0  0  0  0  0
   -2.2932   -1.0799    0.0000 N   0  0  0  0  0  0  0  0  0  0  0  0
    0.8141   -1.3410    0.0000 H   0  0  0  0  0  0  0  0  0  0  0  0
   -0.7941   -2.2695    0.0000 H   0  0  0  0  0  0  0  0  0  0  0  0
   -0.7941    1.4445    0.0000 H   0  0  0  0  0  0  0  0  0  0  0  0
    2.0637    1.4825    0.0000 H   0  0  0  0  0  0  0  0  0  0  0  0
    2.9904    0.9475    0.0000 H   0  0  0  0  0  0  0  0  0  0  0  0
    3.7048    0.5350    0.0000 H   0  0  0  0  0  0  0  0  0  0  0  0
    3.7047   -0.5350    0.0000 H   0  0  0  0  0  0  0  0  0  0  0  0
    2.0637   -2.3075    0.0000 H   0  0  0  0  0  0  0  0  0  0  0  0
    1.1371   -1.7725    0.0000 H   0  0  0  0  0  0  0  0  0  0  0  0
    0.4226   -1.3600    0.0000 H   0  0  0  0  0  0  0  0  0  0  0  0
    0.4226   -0.2900    0.0000 H   0  0  0  0  0  0  0  0  0  0  0  0
  1  2  2  0  0  0  0
  1  6  1  0  0  0  0
  1 18  1  0  0  0  0
  2  3  1  0  0  0  0
  2 19  1  0  0  0  0
  3  4  1  0  0  0  0
  3 17  2  0  0  0  0
  4  5  1  0  0  0  0
  4 15  2  0  0  0  0
  5  6  2  0  0  0  0
  5 20  1  0  0  0  0
  6  7  1  0  0  0  0
  7  8  2  0  0  0  0
  7  9  1  0  0  0  0
  9 10  1  0  0  0  0
  9 14  1  0  0  0  0
 10 11  1  0  0  0  0
 10 21  1  0  0  0  0
 10 22  1  0  0  0  0
 11 12  1  0  0  0  0
 11 23  1  0  0  0  0
 11 24  1  0  0  0  0
 12 13  1  0  0  0  0
 13 14  1  0  0  0  0
 13 25  1  0  0  0  0
 13 26  1  0  0  0  0
 14 27  1  0  0  0  0
 14 28  1  0  0  0  0
 15 16  1  0  0  0  0
 16 17  1  0  0  0  0
M  END
>  <DRUGBANK_ID>
DB05047

>  <COMMON_NAME>
CX-717

>  <CAS_NUMBER>
867276-98-0

>  <UNII>
7I12YTA3QM

$$$$
