
 OpenBabel10282417072D

 34 33  0  0  0  0  0  0  0  0999 V2000
   -0.4125    5.0013    0.0000 C   0  0  0  0  0  0  0  0  0  0  0  0
   -0.0000    4.2868    0.0000 C   0  0  0  0  0  0  0  0  0  0  0  0
    0.8250    4.2868    0.0000 C   0  0  0  0  0  0  0  0  0  0  0  0
    1.2375    3.5724    0.0000 C   0  0  0  0  0  0  0  0  0  0  0  0
    0.8250    2.8579    0.0000 C   0  0  0  0  0  0  0  0  0  0  0  0
    1.2375    2.1434    0.0000 C   0  0  0  0  0  0  0  0  0  0  0  0
    0.8250    1.4289    0.0000 C   0  0  0  0  0  0  0  0  0  0  0  0
    2.0625    3.5724    0.0000 C   0  0  0  0  0  0  0  0  0  0  0  0
    2.4750    4.2868    0.0000 O   0  0  0  0  0  0  0  0  0  0  0  0
    2.4750    2.8579    0.0000 N   0  0  0  0  0  0  0  0  0  0  0  0
    3.3000    2.8579    0.0000 C   0  0  0  0  0  0  0  0  0  0  0  0
    3.7125    2.1434    0.0000 C   0  0  0  0  0  0  0  0  0  0  0  0
    4.5375    2.1434    0.0000 O   0  0  0  0  0  0  0  0  0  0  0  0
    3.3000    1.4289    0.0000 N   0  0  0  0  0  0  0  0  0  0  0  0
    0.1225    5.9279    0.0000 H   0  0  0  0  0  0  0  0  0  0  0  0
   -1.4825    5.0013    0.0000 H   0  0  0  0  0  0  0  0  0  0  0  0
   -0.9475    5.9280    0.0000 H   0  0  0  0  0  0  0  0  0  0  0  0
   -0.5350    3.3602    0.0000 H   0  0  0  0  0  0  0  0  0  0  0  0
    0.5350    3.3602    0.0000 H   0  0  0  0  0  0  0  0  0  0  0  0
    1.3600    5.2135    0.0000 H   0  0  0  0  0  0  0  0  0  0  0  0
    1.8950    4.2868    0.0000 H   0  0  0  0  0  0  0  0  0  0  0  0
    1.7725    2.6458    0.0000 H   0  0  0  0  0  0  0  0  0  0  0  0
   -0.2450    2.8579    0.0000 H   0  0  0  0  0  0  0  0  0  0  0  0
    0.2900    1.9313    0.0000 H   0  0  0  0  0  0  0  0  0  0  0  0
    2.3075    2.1434    0.0000 H   0  0  0  0  0  0  0  0  0  0  0  0
    1.7725    1.2168    0.0000 H   0  0  0  0  0  0  0  0  0  0  0  0
   -0.2450    1.4289    0.0000 H   0  0  0  0  0  0  0  0  0  0  0  0
    1.3600    0.5023    0.0000 H   0  0  0  0  0  0  0  0  0  0  0  0
    0.2900    0.5022    0.0000 H   0  0  0  0  0  0  0  0  0  0  0  0
    1.9827    2.0053    0.0000 H   0  0  0  0  0  0  0  0  0  0  0  0
    3.8350    3.7845    0.0000 H   0  0  0  0  0  0  0  0  0  0  0  0
    4.3700    2.8579    0.0000 H   0  0  0  0  0  0  0  0  0  0  0  0
    2.3155    1.4289    0.0000 H   0  0  0  0  0  0  0  0  0  0  0  0
    3.7923    0.5763    0.0000 H   0  0  0  0  0  0  0  0  0  0  0  0
  1  2  1  0  0  0  0
  1 15  1  0  0  0  0
  1 16  1  0  0  0  0
  1 17  1  0  0  0  0
  2  3  1  0  0  0  0
  2 18  1  0  0  0  0
  2 19  1  0  0  0  0
  3  4  1  0  0  0  0
  3 20  1  0  0  0  0
  3 21  1  0  0  0  0
  4  5  1  0  0  0  0
  4  8  1  0  0  0  0
  4 22  1  0  0  0  0
  5  6  1  0  0  0  0
  5 23  1  0  0  0  0
  5 24  1  0  0  0  0
  6  7  1  0  0  0  0
  6 25  1  0  0  0  0
  6 26  1  0  0  0  0
  7 27  1  0  0  0  0
  7 28  1  0  0  0  0
  7 29  1  0  0  0  0
  8  9  2  0  0  0  0
  8 10  1  0  0  0  0
 10 11  1  0  0  0  0
 10 30  1  0  0  0  0
 11 12  1  0  0  0  0
 11 31  1  0  0  0  0
 11 32  1  0  0  0  0
 12 13  2  0  0  0  0
 12 14  1  0  0  0  0
 14 33  1  0  0  0  0
 14 34  1  0  0  0  0
M  END
>  <DRUGBANK_ID>
DB06657

>  <COMMON_NAME>
Valrocemide

>  <CAS_NUMBER>
92262-58-3

>  <UNII>
1C7GO6OW7L

>  <SYNONYMS>
N-Valproylglycinamide; Valrocemide

$$$$
