
 OpenBabel10282417072D

122125  0  0  0  0  0  0  0  0999 V2000
   -0.3388    0.3145    0.0000 C   0  0  2  0  0  0  0  0  0  0  0  0
    0.3268   -0.0971    0.0000 C   0  0  1  0  0  0  0  0  0  0  0  0
   -1.1733    0.3145    0.0000 O   0  0  0  0  0  0  0  0  0  0  0  0
   -0.3388    1.1369    0.0000 C   0  0  0  0  0  0  0  0  0  0  0  0
    0.2418    0.9225    0.0000 C   0  0  0  0  0  0  0  0  0  0  0  0
    0.3268   -0.9437    0.0000 C   0  0  2  0  0  0  0  0  0  0  0  0
    1.0562    0.2902    0.0000 O   0  0  0  0  0  0  0  0  0  0  0  0
   -1.7660    1.1369    0.0000 C   0  0  0  0  0  0  0  0  0  0  0  0
   -1.0560    1.5516    0.0000 C   0  0  0  0  0  0  0  0  0  0  0  0
   -0.3590   -1.3586    0.0000 C   0  0  2  0  0  0  0  0  0  0  0  0
    1.0439   -1.3464    0.0000 C   0  0  0  0  0  0  0  0  0  0  0  0
    1.7491    0.7051    0.0000 C   0  0  1  0  0  0  0  0  0  0  0  0
   -1.7660    0.3145    0.0000 C   0  0  1  0  0  0  0  0  0  0  0  0
   -1.0560    2.3740    0.0000 C   0  0  0  0  0  0  0  0  0  0  0  0
    0.5442   -1.8227    0.0000 O   0  0  0  0  0  0  0  0  0  0  0  0
   -0.3590   -2.1688    0.0000 C   0  0  2  0  0  0  0  0  0  0  0  0
    1.7491    1.5395    0.0000 C   0  0  1  0  0  0  0  0  0  0  0  0
    2.4712    0.2902    0.0000 O   0  0  0  0  0  0  0  0  0  0  0  0
   -2.5036   -0.1092    0.0000 C   0  0  0  0  0  0  0  0  0  0  0  0
   -2.4712    0.7859    0.0000 C   0  0  0  0  0  0  0  0  0  0  0  0
    1.2978   -2.2174    0.0000 C   0  0  1  0  0  0  0  0  0  0  0  0
   -1.0763   -2.5763    0.0000 C   0  0  0  0  0  0  0  0  0  0  0  0
    0.3024   -2.6006    0.0000 C   0  0  0  0  0  0  0  0  0  0  0  0
    2.4590    1.9714    0.0000 C   0  0  2  0  0  0  0  0  0  0  0  0
    1.0318    1.9228    0.0000 O   0  0  0  0  0  0  0  0  0  0  0  0
    3.1641    0.7051    0.0000 C   0  0  1  0  0  0  0  0  0  0  0  0
   -2.5036   -0.9437    0.0000 C   0  0  1  0  0  0  0  0  0  0  0  0
   -3.2135    0.2902    0.0000 O   0  0  0  0  0  0  0  0  0  0  0  0
    1.2978   -3.0398    0.0000 C   0  0  0  0  0  0  0  0  0  0  0  0
    2.0150   -1.7782    0.0000 O   0  0  0  0  0  0  0  0  0  0  0  0
   -1.7742   -2.1809    0.0000 O   0  0  0  0  0  0  0  0  0  0  0  0
   -1.0763   -3.3987    0.0000 O   0  0  0  0  0  0  0  0  0  0  0  0
    3.1641    1.5638    0.0000 C   0  0  0  0  0  0  0  0  0  0  0  0
    2.4712    2.8180    0.0000 N   0  0  0  0  0  0  0  0  0  0  0  0
    3.8741    0.2780    0.0000 C   0  0  0  0  0  0  0  0  0  0  0  0
   -1.7742   -1.3707    0.0000 C   0  0  2  0  0  0  0  0  0  0  0  0
   -3.1892   -0.5362    0.0000 O   0  0  0  0  0  0  0  0  0  0  0  0
   -3.0477   -1.4151    0.0000 C   0  0  0  0  0  0  0  0  0  0  0  0
    2.0150   -3.4593    0.0000 C   0  0  2  0  0  0  0  0  0  0  0  0
    2.7130   -2.1931    0.0000 C   0  0  2  0  0  0  0  0  0  0  0  0
    3.1762    3.2449    0.0000 C   0  0  0  0  0  0  0  0  0  0  0  0
    1.7491    3.2329    0.0000 C   0  0  0  0  0  0  0  0  0  0  0  0
   -2.5884   -1.7904    0.0000 C   0  0  0  0  0  0  0  0  0  0  0  0
   -3.8944   -0.9558    0.0000 C   0  0  0  0  0  0  0  0  0  0  0  0
    2.7130   -3.0398    0.0000 C   0  0  2  0  0  0  0  0  0  0  0  0
    2.6645   -4.0643    0.0000 O   0  0  0  0  0  0  0  0  0  0  0  0
    1.3666   -4.0643    0.0000 C   0  0  0  0  0  0  0  0  0  0  0  0
    3.4302   -1.7539    0.0000 C   0  0  0  0  0  0  0  0  0  0  0  0
    3.8944    2.8495    0.0000 C   0  0  0  0  0  0  0  0  0  0  0  0
    3.1843    4.0643    0.0000 C   0  0  0  0  0  0  0  0  0  0  0  0
   -2.5884   -2.5643    0.0000 C   0  0  0  0  0  0  0  0  0  0  0  0
    3.4059   -3.4715    0.0000 O   0  0  0  0  0  0  0  0  0  0  0  0
    3.4990   -4.0643    0.0000 C   0  0  0  0  0  0  0  0  0  0  0  0
    0.3619    0.9723    0.0000 H   0  0  0  0  0  0  0  0  0  0  0  0
    0.5880    1.6716    0.0000 H   0  0  0  0  0  0  0  0  0  0  0  0
   -0.3383    2.2069    0.0000 H   0  0  0  0  0  0  0  0  0  0  0  0
    1.2814    0.6695    0.0000 H   0  0  0  0  0  0  0  0  0  0  0  0
   -0.0589    1.9494    0.0000 H   0  0  0  0  0  0  0  0  0  0  0  0
    0.9808    1.6963    0.0000 H   0  0  0  0  0  0  0  0  0  0  0  0
    1.2502   -0.4032    0.0000 H   0  0  0  0  0  0  0  0  0  0  0  0
    0.7104   -1.3215    0.0000 H   0  0  0  0  0  0  0  0  0  0  0  0
    1.0567   -2.4163    0.0000 H   0  0  0  0  0  0  0  0  0  0  0  0
    1.9641   -0.8004    0.0000 H   0  0  0  0  0  0  0  0  0  0  0  0
    1.9769   -1.8703    0.0000 H   0  0  0  0  0  0  0  0  0  0  0  0
    0.8182    1.2327    0.0000 H   0  0  0  0  0  0  0  0  0  0  0  0
   -2.2703    1.2582    0.0000 H   0  0  0  0  0  0  0  0  0  0  0  0
   -0.1294    2.9090    0.0000 H   0  0  0  0  0  0  0  0  0  0  0  0
   -1.9826    2.9090    0.0000 H   0  0  0  0  0  0  0  0  0  0  0  0
   -1.0560    3.4440    0.0000 H   0  0  0  0  0  0  0  0  0  0  0  0
    0.5820   -1.6594    0.0000 H   0  0  0  0  0  0  0  0  0  0  0  0
    0.8314    0.9894    0.0000 H   0  0  0  0  0  0  0  0  0  0  0  0
   -2.4010    1.8536    0.0000 H   0  0  0  0  0  0  0  0  0  0  0  0
   -3.4309    0.3128    0.0000 H   0  0  0  0  0  0  0  0  0  0  0  0
   -3.3608    1.3805    0.0000 H   0  0  0  0  0  0  0  0  0  0  0  0
    0.3824   -2.7713    0.0000 H   0  0  0  0  0  0  0  0  0  0  0  0
    0.2438   -3.6690    0.0000 H   0  0  0  0  0  0  0  0  0  0  0  0
    1.2570   -2.1171    0.0000 H   0  0  0  0  0  0  0  0  0  0  0  0
    1.1984   -3.1855    0.0000 H   0  0  0  0  0  0  0  0  0  0  0  0
    3.3896    2.4995    0.0000 H   0  0  0  0  0  0  0  0  0  0  0  0
    1.0000    2.8923    0.0000 H   0  0  0  0  0  0  0  0  0  0  0  0
    4.0955    1.2318    0.0000 H   0  0  0  0  0  0  0  0  0  0  0  0
    0.3696   -3.5722    0.0000 H   0  0  0  0  0  0  0  0  0  0  0  0
    0.3719   -2.5035    0.0000 H   0  0  0  0  0  0  0  0  0  0  0  0
    4.0909    2.0985    0.0000 H   0  0  0  0  0  0  0  0  0  0  0  0
    4.0907    1.0287    0.0000 H   0  0  0  0  0  0  0  0  0  0  0  0
    3.8549   -0.7918    0.0000 H   0  0  0  0  0  0  0  0  0  0  0  0
    4.8102    0.7963    0.0000 H   0  0  0  0  0  0  0  0  0  0  0  0
    4.7910   -0.2736    0.0000 H   0  0  0  0  0  0  0  0  0  0  0  0
   -2.8438   -1.3420    0.0000 H   0  0  0  0  0  0  0  0  0  0  0  0
   -4.0588   -1.0651    0.0000 H   0  0  0  0  0  0  0  0  0  0  0  0
   -2.8453   -2.4658    0.0000 H   0  0  0  0  0  0  0  0  0  0  0  0
   -3.8564   -2.1157    0.0000 H   0  0  0  0  0  0  0  0  0  0  0  0
    2.7060   -1.1231    0.0000 H   0  0  0  0  0  0  0  0  0  0  0  0
    4.1000    3.7847    0.0000 H   0  0  0  0  0  0  0  0  0  0  0  0
    1.7469    4.3029    0.0000 H   0  0  0  0  0  0  0  0  0  0  0  0
    0.8236    2.6960    0.0000 H   0  0  0  0  0  0  0  0  0  0  0  0
    0.8213    3.7660    0.0000 H   0  0  0  0  0  0  0  0  0  0  0  0
   -3.5020   -1.2335    0.0000 H   0  0  0  0  0  0  0  0  0  0  0  0
   -3.5214   -2.3143    0.0000 H   0  0  0  0  0  0  0  0  0  0  0  0
   -4.8280   -0.4330    0.0000 H   0  0  0  0  0  0  0  0  0  0  0  0
   -3.8803   -2.0257    0.0000 H   0  0  0  0  0  0  0  0  0  0  0  0
   -4.8139   -1.5029    0.0000 H   0  0  0  0  0  0  0  0  0  0  0  0
    2.7044   -4.1098    0.0000 H   0  0  0  0  0  0  0  0  0  0  0  0
    0.3433   -3.7518    0.0000 H   0  0  0  0  0  0  0  0  0  0  0  0
    1.6076   -5.1068    0.0000 H   0  0  0  0  0  0  0  0  0  0  0  0
    0.5843   -4.7943    0.0000 H   0  0  0  0  0  0  0  0  0  0  0  0
    4.3704   -2.2647    0.0000 H   0  0  0  0  0  0  0  0  0  0  0  0
    3.4025   -0.6843    0.0000 H   0  0  0  0  0  0  0  0  0  0  0  0
    4.3427   -1.1951    0.0000 H   0  0  0  0  0  0  0  0  0  0  0  0
    3.9162    1.7797    0.0000 H   0  0  0  0  0  0  0  0  0  0  0  0
    4.8100    3.4032    0.0000 H   0  0  0  0  0  0  0  0  0  0  0  0
    4.8317    2.3335    0.0000 H   0  0  0  0  0  0  0  0  0  0  0  0
    4.1162    4.5901    0.0000 H   0  0  0  0  0  0  0  0  0  0  0  0
    2.2630    4.6084    0.0000 H   0  0  0  0  0  0  0  0  0  0  0  0
    3.1949    5.1342    0.0000 H   0  0  0  0  0  0  0  0  0  0  0  0
   -3.5150   -3.0993    0.0000 H   0  0  0  0  0  0  0  0  0  0  0  0
   -1.6618   -3.0993    0.0000 H   0  0  0  0  0  0  0  0  0  0  0  0
   -2.5884   -3.6343    0.0000 H   0  0  0  0  0  0  0  0  0  0  0  0
    3.3733   -4.4410    0.0000 H   0  0  0  0  0  0  0  0  0  0  0  0
    4.0340   -4.9909    0.0000 H   0  0  0  0  0  0  0  0  0  0  0  0
    4.0340   -3.1377    0.0000 H   0  0  0  0  0  0  0  0  0  0  0  0
    4.5690   -4.0643    0.0000 H   0  0  0  0  0  0  0  0  0  0  0  0
  1  2  1  0  0  0  0
  1  3  1  0  0  0  0
  1  4  1  0  0  0  0
  1  5  1  1  0  0  0
  2  6  1  0  0  0  0
  2  7  1  0  0  0  0
  2 54  1  1  0  0  0
  3  8  1  0  0  0  0
  4  9  1  0  0  0  0
  4 55  1  0  0  0  0
  4 56  1  0  0  0  0
  5 57  1  0  0  0  0
  5 58  1  0  0  0  0
  5 59  1  0  0  0  0
  6 10  1  0  0  0  0
  6 11  1  0  0  0  0
  6 60  1  6  0  0  0
  8  9  2  0  0  0  0
  8 13  1  0  0  0  0
  9 14  1  0  0  0  0
 10 15  1  0  0  0  0
 10 16  1  0  0  0  0
 10 61  1  1  0  0  0
 11 62  1  0  0  0  0
 11 63  1  0  0  0  0
 11 64  1  0  0  0  0
 12  7  1  0  0  0  0
 12 17  1  0  0  0  0
 12 18  1  0  0  0  0
 12 65  1  6  0  0  0
 13 19  1  0  0  0  0
 13 20  1  0  0  0  0
 13 66  1  6  0  0  0
 14 67  1  0  0  0  0
 14 68  1  0  0  0  0
 14 69  1  0  0  0  0
 16 22  1  0  0  0  0
 16 23  1  0  0  0  0
 16 70  1  6  0  0  0
 17 24  1  0  0  0  0
 17 25  1  0  0  0  0
 17 71  1  1  0  0  0
 18 26  1  0  0  0  0
 19 27  1  0  0  0  0
 19 28  2  0  0  0  0
 20 72  1  0  0  0  0
 20 73  1  0  0  0  0
 20 74  1  0  0  0  0
 21 15  1  0  0  0  0
 21 29  1  0  0  0  0
 21 30  1  0  0  0  0
 21 75  1  1  0  0  0
 22 32  2  0  0  0  0
 22 31  1  0  0  0  0
 23 76  1  0  0  0  0
 23 77  1  0  0  0  0
 23 78  1  0  0  0  0
 24 33  1  0  0  0  0
 24 34  1  0  0  0  0
 24 79  1  6  0  0  0
 25 80  1  0  0  0  0
 26 35  1  0  0  0  0
 26 33  1  0  0  0  0
 26 81  1  6  0  0  0
 27 36  1  0  0  0  0
 27 37  1  1  0  0  0
 27 38  1  0  0  0  0
 29 39  1  0  0  0  0
 29 82  1  0  0  0  0
 29 83  1  0  0  0  0
 30 40  1  0  0  0  0
 31 36  1  0  0  0  0
 33 84  1  0  0  0  0
 33 85  1  0  0  0  0
 34 41  1  0  0  0  0
 34 42  1  0  0  0  0
 35 86  1  0  0  0  0
 35 87  1  0  0  0  0
 35 88  1  0  0  0  0
 36 43  1  0  0  0  0
 36 89  1  1  0  0  0
 37 44  1  0  0  0  0
 38 90  1  0  0  0  0
 38 91  1  0  0  0  0
 38 92  1  0  0  0  0
 39 45  1  0  0  0  0
 39 46  1  6  0  0  0
 39 47  1  0  0  0  0
 40 48  1  0  0  0  0
 40 45  1  0  0  0  0
 40 93  1  6  0  0  0
 41 49  1  0  0  0  0
 41 50  1  0  0  0  0
 41 94  1  0  0  0  0
 42 95  1  0  0  0  0
 42 96  1  0  0  0  0
 42 97  1  0  0  0  0
 43 51  1  0  0  0  0
 43 98  1  0  0  0  0
 43 99  1  0  0  0  0
 44100  1  0  0  0  0
 44101  1  0  0  0  0
 44102  1  0  0  0  0
 45 52  1  0  0  0  0
 45103  1  1  0  0  0
 46 53  1  0  0  0  0
 47104  1  0  0  0  0
 47105  1  0  0  0  0
 47106  1  0  0  0  0
 48107  1  0  0  0  0
 48108  1  0  0  0  0
 48109  1  0  0  0  0
 49110  1  0  0  0  0
 49111  1  0  0  0  0
 49112  1  0  0  0  0
 50113  1  0  0  0  0
 50114  1  0  0  0  0
 50115  1  0  0  0  0
 51116  1  0  0  0  0
 51117  1  0  0  0  0
 51118  1  0  0  0  0
 52119  1  0  0  0  0
 53120  1  0  0  0  0
 53121  1  0  0  0  0
 53122  1  0  0  0  0
M  END
>  <DRUGBANK_ID>
DB06587

>  <COMMON_NAME>
Mitemcinal

>  <CAS_NUMBER>
154738-42-8

>  <UNII>
6X5NRJ664L

>  <SYNONYMS>
Mitemcinal

$$$$
