672
 OpenBabel10282417072D

 30 30  0  0  0  0  0  0  0  0999 V2000
    2.4751   -3.5063    0.0000 Cl  0  0  0  0  0  0  0  0  0  0  0  0
    2.4751   -0.2063    0.0000 S   0  0  0  0  0  0  0  0  0  0  0  0
    1.6500   -0.2063    0.0000 O   0  0  0  0  0  0  0  0  0  0  0  0
    3.3001   -0.2063    0.0000 O   0  0  0  0  0  0  0  0  0  0  0  0
    3.9041    0.6188    0.0000 O   0  0  0  0  0  0  0  0  0  0  0  0
    2.4751    0.6188    0.0000 N   0  0  0  0  0  0  0  0  0  0  0  0
    3.1895    1.8563    0.0000 N   0  0  0  0  0  0  0  0  0  0  0  0
    3.9041    2.2688    0.0000 C   0  0  0  0  0  0  0  0  0  0  0  0
    2.4751   -1.0313    0.0000 C   0  0  0  0  0  0  0  0  0  0  0  0
    3.9041    3.0938    0.0000 C   0  0  0  0  0  0  0  0  0  0  0  0
    3.1895    1.0313    0.0000 C   0  0  0  0  0  0  0  0  0  0  0  0
    3.1895   -1.4438    0.0000 C   0  0  0  0  0  0  0  0  0  0  0  0
    1.7606   -1.4438    0.0000 C   0  0  0  0  0  0  0  0  0  0  0  0
    4.6185    3.5063    0.0000 C   0  0  0  0  0  0  0  0  0  0  0  0
    3.1895   -2.2688    0.0000 C   0  0  0  0  0  0  0  0  0  0  0  0
    1.7606   -2.2688    0.0000 C   0  0  0  0  0  0  0  0  0  0  0  0
    2.4751   -2.6813    0.0000 C   0  0  0  0  0  0  0  0  0  0  0  0
    1.6225    1.1110    0.0000 H   0  0  0  0  0  0  0  0  0  0  0  0
    2.3369    2.3486    0.0000 H   0  0  0  0  0  0  0  0  0  0  0  0
    4.8307    1.7338    0.0000 H   0  0  0  0  0  0  0  0  0  0  0  0
    4.8308    2.8038    0.0000 H   0  0  0  0  0  0  0  0  0  0  0  0
    2.9774    3.6288    0.0000 H   0  0  0  0  0  0  0  0  0  0  0  0
    3.9041    4.1638    0.0000 H   0  0  0  0  0  0  0  0  0  0  0  0
    4.0832   -0.9278    0.0000 H   0  0  0  0  0  0  0  0  0  0  0  0
    0.8669   -0.9278    0.0000 H   0  0  0  0  0  0  0  0  0  0  0  0
    5.5452    2.9713    0.0000 H   0  0  0  0  0  0  0  0  0  0  0  0
    4.6185    4.5763    0.0000 H   0  0  0  0  0  0  0  0  0  0  0  0
    5.5451    4.0413    0.0000 H   0  0  0  0  0  0  0  0  0  0  0  0
    4.0832   -2.7848    0.0000 H   0  0  0  0  0  0  0  0  0  0  0  0
    0.8669   -2.7848    0.0000 H   0  0  0  0  0  0  0  0  0  0  0  0
  1 17  1  0  0  0  0
  2  3  2  0  0  0  0
  2  4  2  0  0  0  0
  2  6  1  0  0  0  0
  2  9  1  0  0  0  0
  5 11  2  0  0  0  0
  6 11  1  0  0  0  0
  6 18  1  0  0  0  0
  7  8  1  0  0  0  0
  7 11  1  0  0  0  0
  7 19  1  0  0  0  0
  8 10  1  0  0  0  0
  8 20  1  0  0  0  0
  8 21  1  0  0  0  0
  9 12  2  0  0  0  0
  9 13  1  0  0  0  0
 10 14  1  0  0  0  0
 10 22  1  0  0  0  0
 10 23  1  0  0  0  0
 12 15  1  0  0  0  0
 12 24  1  0  0  0  0
 13 16  2  0  0  0  0
 13 25  1  0  0  0  0
 14 26  1  0  0  0  0
 14 27  1  0  0  0  0
 14 28  1  0  0  0  0
 15 17  2  0  0  0  0
 15 29  1  0  0  0  0
 16 17  1  0  0  0  0
 16 30  1  0  0  0  0
M  END
>  <DRUGBANK_ID>
DB00672

>  <SECONDARY_ACCESSION_NUMBERS>
APRD00029

>  <COMMON_NAME>
Chlorpropamide

>  <CAS_NUMBER>
94-20-2

>  <UNII>
WTM2C3IL2X

>  <SYNONYMS>
1-(p-chlorobenzenesulfonyl)-3-propylurea; 1-(p-chlorophenylsulfonyl)-3-propylurea; 1-propyl-3-(p-chlorobenzenesulfonyl)urea; 4-chloro-N-((propylamino)carbonyl)benzenesulfonamide; 4-chloro-N-[(propylamino)carbonyl]benzenesulfonamide; Chlorpropamid; Chlorpropamide; Chlorpropamidum; Clorpropamida; N-(4-chlorophenylsulfonyl)-N'-propylurea; N-(p-chlorobenzenesulfonyl)-N'-propylurea; n-propyl-N'-(p-chlorobenzenesulfonyl)urea; n-propyl-N'-p-chlorophenylsulfonylcarbamide

$$$$
