PM2
 OpenBabel10282417072D

 59 62  0  0  0  0  0  0  0  0999 V2000
   -0.4285   -2.8725    0.0000 C   0  0  0  0  0  0  0  0  0  0  0  0
    0.2859   -3.2850    0.0000 C   0  0  0  0  0  0  0  0  0  0  0  0
   -1.1430   -3.2850    0.0000 C   0  0  0  0  0  0  0  0  0  0  0  0
    0.2859   -4.1100    0.0000 C   0  0  0  0  0  0  0  0  0  0  0  0
   -1.1430   -4.1100    0.0000 C   0  0  0  0  0  0  0  0  0  0  0  0
   -0.4285   -4.5225    0.0000 C   0  0  0  0  0  0  0  0  0  0  0  0
    1.0004   -4.5225    0.0000 C   0  0  0  0  0  0  0  0  0  0  0  0
    1.0004   -5.3475    0.0000 N   0  0  0  0  0  0  0  0  0  0  0  0
   -1.1430   -1.6350    0.0000 C   0  0  0  0  0  0  0  0  0  0  0  0
   -1.1430   -0.8100    0.0000 C   0  0  0  0  0  0  0  0  0  0  0  0
   -0.4285    0.4275    0.0000 C   0  0  0  0  0  0  0  0  0  0  0  0
   -1.1430    0.8400    0.0000 O   0  0  0  0  0  0  0  0  0  0  0  0
   -0.4285   -2.0475    0.0000 C   0  0  0  0  0  0  0  0  0  0  0  0
   -0.4285   -0.3975    0.0000 N   0  0  0  0  0  0  0  0  0  0  0  0
    0.2859   -0.8100    0.0000 C   0  0  0  0  0  0  0  0  0  0  0  0
    0.2859   -1.6350    0.0000 C   0  0  0  0  0  0  0  0  0  0  0  0
    0.2859    0.8400    0.0000 C   0  0  0  0  0  0  0  0  0  0  0  0
    0.2859    1.6650    0.0000 C   0  0  0  0  0  0  0  0  0  0  0  0
    1.0004    0.4275    0.0000 C   0  0  0  0  0  0  0  0  0  0  0  0
    1.0004    2.0775    0.0000 C   0  0  0  0  0  0  0  0  0  0  0  0
    1.7149    0.8400    0.0000 N   0  0  0  0  0  0  0  0  0  0  0  0
    1.0004    2.9025    0.0000 C   0  0  0  0  0  0  0  0  0  0  0  0
    1.7149    1.6650    0.0000 C   0  0  0  0  0  0  0  0  0  0  0  0
    0.2859    3.3150    0.0000 C   0  0  0  0  0  0  0  0  0  0  0  0
    0.2859    4.1400    0.0000 C   0  0  0  0  0  0  0  0  0  0  0  0
   -0.4285    4.5525    0.0000 C   0  0  0  0  0  0  0  0  0  0  0  0
    1.0004    4.5525    0.0000 C   0  0  0  0  0  0  0  0  0  0  0  0
   -0.4285    5.3775    0.0000 C   0  0  0  0  0  0  0  0  0  0  0  0
    1.0004    5.3775    0.0000 C   0  0  0  0  0  0  0  0  0  0  0  0
    0.2859    5.7900    0.0000 C   0  0  0  0  0  0  0  0  0  0  0  0
    1.1796   -2.7690    0.0000 H   0  0  0  0  0  0  0  0  0  0  0  0
   -2.0367   -2.7690    0.0000 H   0  0  0  0  0  0  0  0  0  0  0  0
   -2.0367   -4.6260    0.0000 H   0  0  0  0  0  0  0  0  0  0  0  0
   -0.4285   -5.5545    0.0000 H   0  0  0  0  0  0  0  0  0  0  0  0
    1.9270   -3.9875    0.0000 H   0  0  0  0  0  0  0  0  0  0  0  0
    1.9270   -5.0575    0.0000 H   0  0  0  0  0  0  0  0  0  0  0  0
    0.1171   -5.8575    0.0000 H   0  0  0  0  0  0  0  0  0  0  0  0
    1.8837   -5.8575    0.0000 H   0  0  0  0  0  0  0  0  0  0  0  0
   -2.0696   -2.1700    0.0000 H   0  0  0  0  0  0  0  0  0  0  0  0
   -1.1430   -2.7050    0.0000 H   0  0  0  0  0  0  0  0  0  0  0  0
   -2.0696   -0.2750    0.0000 H   0  0  0  0  0  0  0  0  0  0  0  0
   -1.1430    0.2600    0.0000 H   0  0  0  0  0  0  0  0  0  0  0  0
   -0.4285   -0.9775    0.0000 H   0  0  0  0  0  0  0  0  0  0  0  0
    1.2126   -0.2750    0.0000 H   0  0  0  0  0  0  0  0  0  0  0  0
    1.2125   -1.3450    0.0000 H   0  0  0  0  0  0  0  0  0  0  0  0
    1.2126   -2.1700    0.0000 H   0  0  0  0  0  0  0  0  0  0  0  0
    1.2125   -1.1000    0.0000 H   0  0  0  0  0  0  0  0  0  0  0  0
   -0.6078    2.1810    0.0000 H   0  0  0  0  0  0  0  0  0  0  0  0
    1.0004   -0.6045    0.0000 H   0  0  0  0  0  0  0  0  0  0  0  0
    1.9270    3.4375    0.0000 H   0  0  0  0  0  0  0  0  0  0  0  0
    1.0004    3.9725    0.0000 H   0  0  0  0  0  0  0  0  0  0  0  0
    2.6086    2.1810    0.0000 H   0  0  0  0  0  0  0  0  0  0  0  0
   -0.6407    2.7800    0.0000 H   0  0  0  0  0  0  0  0  0  0  0  0
   -0.6407    3.8500    0.0000 H   0  0  0  0  0  0  0  0  0  0  0  0
   -1.3222    4.0365    0.0000 H   0  0  0  0  0  0  0  0  0  0  0  0
    1.8941    4.0365    0.0000 H   0  0  0  0  0  0  0  0  0  0  0  0
   -1.3222    5.8935    0.0000 H   0  0  0  0  0  0  0  0  0  0  0  0
    1.8941    5.8935    0.0000 H   0  0  0  0  0  0  0  0  0  0  0  0
    0.2859    6.8220    0.0000 H   0  0  0  0  0  0  0  0  0  0  0  0
  1  2  2  0  0  0  0
  1  3  1  0  0  0  0
  1 13  1  0  0  0  0
  2  4  1  0  0  0  0
  2 31  1  0  0  0  0
  3  5  2  0  0  0  0
  3 32  1  0  0  0  0
  4  6  2  0  0  0  0
  4  7  1  0  0  0  0
  5  6  1  0  0  0  0
  5 33  1  0  0  0  0
  6 34  1  0  0  0  0
  7  8  1  0  0  0  0
  7 35  1  0  0  0  0
  7 36  1  0  0  0  0
  8 37  1  0  0  0  0
  8 38  1  0  0  0  0
  9 10  1  0  0  0  0
  9 13  1  0  0  0  0
  9 39  1  0  0  0  0
  9 40  1  0  0  0  0
 10 14  1  0  0  0  0
 10 41  1  0  0  0  0
 10 42  1  0  0  0  0
 11 12  2  0  0  0  0
 11 14  1  0  0  0  0
 11 17  1  0  0  0  0
 13 16  1  0  0  0  0
 13 43  1  0  0  0  0
 14 15  1  0  0  0  0
 15 16  1  0  0  0  0
 15 44  1  0  0  0  0
 15 45  1  0  0  0  0
 16 46  1  0  0  0  0
 16 47  1  0  0  0  0
 17 18  2  0  0  0  0
 17 19  1  0  0  0  0
 18 20  1  0  0  0  0
 18 48  1  0  0  0  0
 19 21  2  0  0  0  0
 19 49  1  0  0  0  0
 20 22  1  0  0  0  0
 20 23  2  0  0  0  0
 21 23  1  0  0  0  0
 22 24  1  0  0  0  0
 22 50  1  0  0  0  0
 22 51  1  0  0  0  0
 23 52  1  0  0  0  0
 24 25  1  0  0  0  0
 24 53  1  0  0  0  0
 24 54  1  0  0  0  0
 25 26  2  0  0  0  0
 25 27  1  0  0  0  0
 26 28  1  0  0  0  0
 26 55  1  0  0  0  0
 27 29  2  0  0  0  0
 27 56  1  0  0  0  0
 28 30  2  0  0  0  0
 28 57  1  0  0  0  0
 29 30  1  0  0  0  0
 29 58  1  0  0  0  0
 30 59  1  0  0  0  0
M  END
>  <DRUGBANK_ID>
DB04764

>  <COMMON_NAME>
[4-(3-AMINOMETHYL-PHENYL)-PIPERIDIN-1-YL]-(5-PHENETHYL- PYRIDIN-3-YL)-METHANONE

$$$$
