
 OpenBabel10282417072D

 32 32  0  0  0  0  0  0  0  0999 V2000
    2.7112    4.8268    0.0000 C   0  0  0  0  0  0  0  0  0  0  0  0
    1.9967    4.4143    0.0000 C   0  0  0  0  0  0  0  0  0  0  0  0
    1.9967    3.5893    0.0000 O   0  0  0  0  0  0  0  0  0  0  0  0
    1.2822    3.1768    0.0000 C   0  0  0  0  0  0  0  0  0  0  0  0
    0.5678    3.5893    0.0000 O   0  0  0  0  0  0  0  0  0  0  0  0
    1.2822    2.3518    0.0000 C   0  0  0  0  0  0  0  0  0  0  0  0
    0.5678    1.9393    0.0000 C   0  0  0  0  0  0  0  0  0  0  0  0
    0.5678    1.1143    0.0000 C   0  0  0  0  0  0  0  0  0  0  0  0
    1.2352    0.6294    0.0000 N   0  0  0  0  0  0  0  0  0  0  0  0
    0.9803   -0.1553    0.0000 C   0  0  0  0  0  0  0  0  0  0  0  0
    0.1553   -0.1553    0.0000 C   0  0  0  0  0  0  0  0  0  0  0  0
   -0.0997    0.6294    0.0000 N   0  0  0  0  0  0  0  0  0  0  0  0
   -0.8843    0.8843    0.0000 C   0  0  0  0  0  0  0  0  0  0  0  0
   -0.3297   -0.8227    0.0000 N   0  3  0  0  0  0  0  0  0  0  0  0
    0.0059   -1.5764    0.0000 O   0  0  0  0  0  0  0  0  0  0  0  0
   -1.1501   -0.7365    0.0000 O   0  5  0  0  0  0  0  0  0  0  0  0
    1.9967    1.9393    0.0000 C   0  0  0  0  0  0  0  0  0  0  0  0
    1.9967    1.1143    0.0000 O   0  0  0  0  0  0  0  0  0  0  0  0
    2.7112    2.3518    0.0000 C   0  0  0  0  0  0  0  0  0  0  0  0
    3.6378    4.2918    0.0000 H   0  0  0  0  0  0  0  0  0  0  0  0
    2.7112    5.8968    0.0000 H   0  0  0  0  0  0  0  0  0  0  0  0
    3.6379    5.3618    0.0000 H   0  0  0  0  0  0  0  0  0  0  0  0
    1.0701    4.9493    0.0000 H   0  0  0  0  0  0  0  0  0  0  0  0
    1.0701    3.8793    0.0000 H   0  0  0  0  0  0  0  0  0  0  0  0
   -0.3259    2.4553    0.0000 H   0  0  0  0  0  0  0  0  0  0  0  0
    1.5869   -0.9902    0.0000 H   0  0  0  0  0  0  0  0  0  0  0  0
   -1.1068    1.9309    0.0000 H   0  0  0  0  0  0  0  0  0  0  0  0
   -1.6794    0.1683    0.0000 H   0  0  0  0  0  0  0  0  0  0  0  0
   -1.9019    1.2149    0.0000 H   0  0  0  0  0  0  0  0  0  0  0  0
    3.6378    1.8168    0.0000 H   0  0  0  0  0  0  0  0  0  0  0  0
    2.7112    3.4218    0.0000 H   0  0  0  0  0  0  0  0  0  0  0  0
    3.6379    2.8868    0.0000 H   0  0  0  0  0  0  0  0  0  0  0  0
  1  2  1  0  0  0  0
  1 20  1  0  0  0  0
  1 21  1  0  0  0  0
  1 22  1  0  0  0  0
  2  3  1  0  0  0  0
  2 23  1  0  0  0  0
  2 24  1  0  0  0  0
  3  4  1  0  0  0  0
  4  5  2  0  0  0  0
  4  6  1  0  0  0  0
  6  7  2  0  0  0  0
  6 17  1  0  0  0  0
  7  8  1  0  0  0  0
  7 25  1  0  0  0  0
  8  9  2  0  0  0  0
  8 12  1  0  0  0  0
  9 10  1  0  0  0  0
 10 11  2  0  0  0  0
 10 26  1  0  0  0  0
 11 12  1  0  0  0  0
 11 14  1  0  0  0  0
 12 13  1  0  0  0  0
 13 27  1  0  0  0  0
 13 28  1  0  0  0  0
 13 29  1  0  0  0  0
 14 15  2  0  0  0  0
 14 16  1  0  0  0  0
 17 18  2  0  0  0  0
 17 19  1  0  0  0  0
 19 30  1  0  0  0  0
 19 31  1  0  0  0  0
 19 32  1  0  0  0  0
M  CHG  2  14   1  16  -1
M  END
>  <DRUGBANK_ID>
DB13319

>  <COMMON_NAME>
Propenidazole

>  <CAS_NUMBER>
76448-31-2

>  <UNII>
F0O89MB7QE

>  <SYNONYMS>
Propenidazole

$$$$
