
 OpenBabel10282417072D

 31 32  0  0  1  0  0  0  0  0999 V2000
    0.7145    0.4125    0.0000 N   0  0  0  0  0  0  0  0  0  0  0  0
    0.7145   -0.4125    0.0000 C   0  0  0  0  0  0  0  0  0  0  0  0
   -0.7145   -0.4125    0.0000 C   0  0  0  0  0  0  0  0  0  0  0  0
    0.0000   -0.8250    0.0000 C   0  0  2  0  0  0  0  0  0  0  0  0
   -0.7145    0.4125    0.0000 C   0  0  0  0  0  0  0  0  0  0  0  0
    0.0000   -1.6500    0.0000 C   0  0  0  0  0  0  0  0  0  0  0  0
   -1.4289    0.8250    0.0000 C   0  0  0  0  0  0  0  0  0  0  0  0
    1.4991   -0.6674    0.0000 C   0  0  0  0  0  0  0  0  0  0  0  0
   -2.1434    0.4125    0.0000 C   0  0  0  0  0  0  0  0  0  0  0  0
    1.9840    0.0000    0.0000 N   0  0  0  0  0  0  0  0  0  0  0  0
    1.4991    0.6674    0.0000 C   0  0  0  0  0  0  0  0  0  0  0  0
   -1.4289   -0.8250    0.0000 C   0  0  0  0  0  0  0  0  0  0  0  0
   -1.4289   -1.6500    0.0000 C   0  0  0  0  0  0  0  0  0  0  0  0
   -2.1434   -0.4125    0.0000 C   0  0  0  0  0  0  0  0  0  0  0  0
   -2.8579   -0.8250    0.0000 C   0  0  0  0  0  0  0  0  0  0  0  0
   -0.9266   -1.3600    0.0000 H   0  0  0  0  0  0  0  0  0  0  0  0
    0.1792    0.9285    0.0000 H   0  0  0  0  0  0  0  0  0  0  0  0
   -0.9266   -2.1850    0.0000 H   0  0  0  0  0  0  0  0  0  0  0  0
    0.9266   -2.1850    0.0000 H   0  0  0  0  0  0  0  0  0  0  0  0
    0.0000   -2.7200    0.0000 H   0  0  0  0  0  0  0  0  0  0  0  0
   -1.4289    1.8570    0.0000 H   0  0  0  0  0  0  0  0  0  0  0  0
    1.8180   -1.6489    0.0000 H   0  0  0  0  0  0  0  0  0  0  0  0
   -3.0371    0.9285    0.0000 H   0  0  0  0  0  0  0  0  0  0  0  0
    2.9685    0.0000    0.0000 H   0  0  0  0  0  0  0  0  0  0  0  0
    1.8180    1.6489    0.0000 H   0  0  0  0  0  0  0  0  0  0  0  0
   -2.3555   -2.1850    0.0000 H   0  0  0  0  0  0  0  0  0  0  0  0
   -0.5023   -2.1850    0.0000 H   0  0  0  0  0  0  0  0  0  0  0  0
   -1.4289   -2.7200    0.0000 H   0  0  0  0  0  0  0  0  0  0  0  0
   -3.7845   -0.2900    0.0000 H   0  0  0  0  0  0  0  0  0  0  0  0
   -2.8579   -1.8950    0.0000 H   0  0  0  0  0  0  0  0  0  0  0  0
   -3.7846   -1.3600    0.0000 H   0  0  0  0  0  0  0  0  0  0  0  0
  1 11  2  0  0  0  0
  2  1  1  0  0  0  0
  2  8  2  0  0  0  0
  3 12  2  0  0  0  0
  3  5  1  0  0  0  0
  4  3  1  0  0  0  0
  4  2  1  0  0  0  0
  4  6  1  0  0  0  0
  4 16  1  6  0  0  0
  5  7  2  0  0  0  0
  5 17  1  0  0  0  0
  6 18  1  0  0  0  0
  6 19  1  0  0  0  0
  6 20  1  0  0  0  0
  7  9  1  0  0  0  0
  7 21  1  0  0  0  0
  8 10  1  0  0  0  0
  8 22  1  0  0  0  0
  9 23  1  0  0  0  0
 10 11  1  0  0  0  0
 10 24  1  0  0  0  0
 11 25  1  0  0  0  0
 12 14  1  0  0  0  0
 12 13  1  0  0  0  0
 13 26  1  0  0  0  0
 13 27  1  0  0  0  0
 13 28  1  0  0  0  0
 14  9  2  0  0  0  0
 14 15  1  0  0  0  0
 15 29  1  0  0  0  0
 15 30  1  0  0  0  0
 15 31  1  0  0  0  0
M  END
>  <DRUGBANK_ID>
DB00633

>  <SECONDARY_ACCESSION_NUMBERS>
APRD00578

>  <COMMON_NAME>
Dexmedetomidine

>  <CAS_NUMBER>
113775-47-6

>  <UNII>
67VB76HONO

>  <SYNONYMS>
(+)-4-((S)-alpha,2,3-Trimethylbenzyl)imidazole; (+)-4-((S)-α,2,3-trimethylbenzyl)imidazole; Dexmedetomidin; Dexmedetomidina; Dexmédétomidine; Dexmedetomidine; Dexmedetomidinum

$$$$
