
 OpenBabel10282417072D

 28 29  0  0  1  0  0  0  0  0999 V2000
    3.7445   -0.4772    0.0000 O   0  0  0  0  0  0  0  0  0  0  0  0
    2.8472    2.2848    0.0000 O   0  0  0  0  0  0  0  0  0  0  0  0
    3.5146    0.9748    0.0000 N   0  0  0  0  0  0  0  0  0  0  0  0
    2.4347    0.1902    0.0000 C   0  0  3  0  0  0  0  0  0  0  0  0
    2.1796    0.9748    0.0000 C   0  0  0  0  0  0  0  0  0  0  0  0
    3.2597    0.1902    0.0000 C   0  0  0  0  0  0  0  0  0  0  0  0
    2.4347   -0.6348    0.0000 C   0  0  0  0  0  0  0  0  0  0  0  0
    1.6500   -0.0647    0.0000 C   0  0  0  0  0  0  0  0  0  0  0  0
    2.8472    1.4598    0.0000 C   0  0  0  0  0  0  0  0  0  0  0  0
    3.1491   -1.0473    0.0000 C   0  0  0  0  0  0  0  0  0  0  0  0
    1.7201   -1.0473    0.0000 C   0  0  0  0  0  0  0  0  0  0  0  0
    4.2992    1.2298    0.0000 C   0  0  0  0  0  0  0  0  0  0  0  0
    3.1491   -1.8723    0.0000 C   0  0  0  0  0  0  0  0  0  0  0  0
    1.7201   -1.8723    0.0000 C   0  0  0  0  0  0  0  0  0  0  0  0
    2.4347   -2.2848    0.0000 C   0  0  0  0  0  0  0  0  0  0  0  0
    1.1619    1.3054    0.0000 H   0  0  0  0  0  0  0  0  0  0  0  0
    2.0122    2.0316    0.0000 H   0  0  0  0  0  0  0  0  0  0  0  0
    0.8549    0.6513    0.0000 H   0  0  0  0  0  0  0  0  0  0  0  0
    1.4275   -1.1113    0.0000 H   0  0  0  0  0  0  0  0  0  0  0  0
    0.6323   -0.3953    0.0000 H   0  0  0  0  0  0  0  0  0  0  0  0
    4.0428   -0.5313    0.0000 H   0  0  0  0  0  0  0  0  0  0  0  0
    0.8264   -0.5313    0.0000 H   0  0  0  0  0  0  0  0  0  0  0  0
    5.0944    0.5139    0.0000 H   0  0  0  0  0  0  0  0  0  0  0  0
    4.5216    2.2764    0.0000 H   0  0  0  0  0  0  0  0  0  0  0  0
    5.3168    1.5605    0.0000 H   0  0  0  0  0  0  0  0  0  0  0  0
    4.0428   -2.3883    0.0000 H   0  0  0  0  0  0  0  0  0  0  0  0
    0.8264   -2.3883    0.0000 H   0  0  0  0  0  0  0  0  0  0  0  0
    2.4348   -3.3168    0.0000 H   0  0  0  0  0  0  0  0  0  0  0  0
  1  6  2  0  0  0  0
  2  9  2  0  0  0  0
  3  6  1  0  0  0  0
  3  9  1  0  0  0  0
  3 12  1  0  0  0  0
  4  5  1  0  0  0  0
  4  6  1  0  0  0  0
  4  7  1  0  0  0  0
  4  8  1  0  0  0  0
  5  9  1  0  0  0  0
  5 16  1  0  0  0  0
  5 17  1  0  0  0  0
  7 10  2  0  0  0  0
  7 11  1  0  0  0  0
  8 18  1  0  0  0  0
  8 19  1  0  0  0  0
  8 20  1  0  0  0  0
 10 13  1  0  0  0  0
 10 21  1  0  0  0  0
 11 14  2  0  0  0  0
 11 22  1  0  0  0  0
 12 23  1  0  0  0  0
 12 24  1  0  0  0  0
 12 25  1  0  0  0  0
 13 15  2  0  0  0  0
 13 26  1  0  0  0  0
 14 15  1  0  0  0  0
 14 27  1  0  0  0  0
 15 28  1  0  0  0  0
M  END
>  <DRUGBANK_ID>
DB05246

>  <COMMON_NAME>
Methsuximide

>  <CAS_NUMBER>
77-41-8

>  <UNII>
0G76K8X6C0

>  <SYNONYMS>
(RS)-1,3-Dimethyl-3-phenyl-2,5-pyrrolidindion; 1,3-Dimethyl-3-phenyl-2,5-dioxopyrrolidine; 1,3-Dimethyl-3-phenyl-pyrrolidin-2,5-dione; 1,3-Dimethyl-3-phenylsuccinimide; alpha-Methyl-alpha-phenyl N-methyl succinimide; alpha-Methylphensuximide; Mesuximida; Mesuximide; Mesuximidum; Methsuximid; Methsuximide; Metosuccimmide; N-methyl-alpha-methyl-alpha-phenylsuccinimide; N,2-Dimethyl-2-phenylsuccinimide

$$$$
