
 OpenBabel10282417072D

 22 22  0  0  0  0  0  0  0  0999 V2000
    0.7145   -0.8250    0.0000 O   0  0  0  0  0  0  0  0  0  0  0  0
    0.7145    0.0000    0.0000 C   0  0  1  0  0  0  0  0  0  0  0  0
    0.0000    0.4125    0.0000 C   0  0  0  0  0  0  0  0  0  0  0  0
   -0.7145    0.0000    0.0000 C   0  0  0  0  0  0  0  0  0  0  0  0
   -0.7145   -0.8250    0.0000 C   0  0  0  0  0  0  0  0  0  0  0  0
   -1.4289   -1.2374    0.0000 C   0  0  0  0  0  0  0  0  0  0  0  0
   -2.1434   -0.8250    0.0000 C   0  0  0  0  0  0  0  0  0  0  0  0
   -2.1434    0.0000    0.0000 C   0  0  0  0  0  0  0  0  0  0  0  0
   -1.4289    0.4125    0.0000 C   0  0  0  0  0  0  0  0  0  0  0  0
    1.4289    0.4125    0.0000 C   0  0  0  0  0  0  0  0  0  0  0  0
    1.4289    1.2374    0.0000 O   0  0  0  0  0  0  0  0  0  0  0  0
    2.1434    0.0000    0.0000 O   0  0  0  0  0  0  0  0  0  0  0  0
   -0.1255   -1.3100    0.0000 H   0  0  0  0  0  0  0  0  0  0  0  0
    1.6412   -0.5350    0.0000 H   0  0  0  0  0  0  0  0  0  0  0  0
    0.0000    1.4825    0.0000 H   0  0  0  0  0  0  0  0  0  0  0  0
   -0.9266    0.9475    0.0000 H   0  0  0  0  0  0  0  0  0  0  0  0
    0.1792   -1.3410    0.0000 H   0  0  0  0  0  0  0  0  0  0  0  0
   -1.4289   -2.2694    0.0000 H   0  0  0  0  0  0  0  0  0  0  0  0
   -3.0371   -1.3411    0.0000 H   0  0  0  0  0  0  0  0  0  0  0  0
   -3.0371    0.5160    0.0000 H   0  0  0  0  0  0  0  0  0  0  0  0
   -1.4289    1.4445    0.0000 H   0  0  0  0  0  0  0  0  0  0  0  0
    2.1434   -0.9370    0.0000 H   0  0  0  0  0  0  0  0  0  0  0  0
  1 13  1  0  0  0  0
  2  1  1  0  0  0  0
  2 10  1  0  0  0  0
  2  3  1  0  0  0  0
  2 14  1  6  0  0  0
  3  4  1  0  0  0  0
  3 15  1  0  0  0  0
  3 16  1  0  0  0  0
  4  9  2  0  0  0  0
  4  5  1  0  0  0  0
  5  6  2  0  0  0  0
  5 17  1  0  0  0  0
  6  7  1  0  0  0  0
  6 18  1  0  0  0  0
  7  8  2  0  0  0  0
  7 19  1  0  0  0  0
  8  9  1  0  0  0  0
  8 20  1  0  0  0  0
  9 21  1  0  0  0  0
 10 11  2  0  0  0  0
 10 12  1  0  0  0  0
 12 22  1  0  0  0  0
M  END
>  <DRUGBANK_ID>
DB02494

>  <SECONDARY_ACCESSION_NUMBERS>
EXPT01733

>  <COMMON_NAME>
(S)-3-phenyllactic acid

>  <CAS_NUMBER>
20312-36-1

>  <UNII>
KW7SNV9X8B

>  <SYNONYMS>
alpha-hydroxy-beta-phenyl-propionic acid; L-(−)-3-phenyllactic acid; L-3-phenyllactic acid; L-beta-Phenyllactic acid; L-β-phenyllactic acid

$$$$
