
 OpenBabel10282417072D

110117  0  0  1  0  0  0  0  0999 V2000
   -3.7676   -0.1570    0.0000 C   0  0  0  0  0  0  0  0  0  0  0  0
   -3.3661    0.5637    0.0000 O   0  0  0  0  0  0  0  0  0  0  0  0
   -2.5411    0.5762    0.0000 C   0  0  0  0  0  0  0  0  0  0  0  0
   -2.1396    1.2969    0.0000 C   0  0  0  0  0  0  0  0  0  0  0  0
   -1.3147    1.3095    0.0000 C   0  0  0  0  0  0  0  0  0  0  0  0
   -0.8913    0.6013    0.0000 C   0  0  0  0  0  0  0  0  0  0  0  0
   -0.0664    0.6139    0.0000 C   0  0  0  0  0  0  0  0  0  0  0  0
    0.3569   -0.0942    0.0000 C   0  0  0  0  0  0  0  0  0  0  0  0
    1.1818   -0.0817    0.0000 C   0  0  0  0  0  0  0  0  0  0  0  0
    1.5834    0.6390    0.0000 C   0  0  0  0  0  0  0  0  0  0  0  0
    2.4083    0.6515    0.0000 C   0  0  0  0  0  0  0  0  0  0  0  0
    2.9509    1.2729    0.0000 O   0  0  0  0  0  0  0  0  0  0  0  0
    3.7096    0.9489    0.0000 C   0  0  0  0  0  0  0  0  0  0  0  0
    3.6359    0.1272    0.0000 O   0  0  0  0  0  0  0  0  0  0  0  0
    2.8316   -0.0566    0.0000 C   0  0  0  0  0  0  0  0  0  0  0  0
    2.4300   -0.7772    0.0000 C   0  0  0  0  0  0  0  0  0  0  0  0
    1.6051   -0.7898    0.0000 C   0  0  0  0  0  0  0  0  0  0  0  0
    1.2035   -1.5105    0.0000 C   0  0  0  0  0  0  0  0  0  0  0  0
    0.3786   -1.5230    0.0000 C   0  0  0  0  0  0  0  0  0  0  0  0
   -0.0447   -0.8149    0.0000 N   0  3  0  0  0  0  0  0  0  0  0  0
   -0.8696   -0.8274    0.0000 C   0  0  0  0  0  0  0  0  0  0  0  0
   -1.2929   -0.1193    0.0000 C   0  0  0  0  0  0  0  0  0  0  0  0
   -2.1178   -0.1319    0.0000 C   0  0  0  0  0  0  0  0  0  0  0  0
   -2.5194   -0.8525    0.0000 O   0  0  0  0  0  0  0  0  0  0  0  0
   -3.3443   -0.8651    0.0000 C   0  0  0  0  0  0  0  0  0  0  0  0
    9.6559    0.1285    0.0000 H   0  0  0  0  0  0  0  0  0  0  0  0
   10.1877   -0.5022    0.0000 C   0  0  2  0  0  0  0  0  0  0  0  0
   10.8391   -1.0085    0.0000 C   0  0  0  0  0  0  0  0  0  0  0  0
   11.5219   -0.5456    0.0000 C   0  0  0  0  0  0  0  0  0  0  0  0
   11.2926    0.2469    0.0000 C   0  0  2  0  0  0  0  0  0  0  0  0
   11.7990    0.8983    0.0000 C   0  0  2  0  0  0  0  0  0  0  0  0
   11.4881    1.6624    0.0000 C   0  0  0  0  0  0  0  0  0  0  0  0
   12.6162    0.7854    0.0000 C   0  0  0  0  0  0  0  0  0  0  0  0
   13.1226    1.4367    0.0000 C   0  0  0  0  0  0  0  0  0  0  0  0
   13.9398    1.3239    0.0000 C   0  0  0  0  0  0  0  0  0  0  0  0
   14.4462    1.9752    0.0000 O   0  5  0  0  0  0  0  0  0  0  0  0
   14.2507    0.5597    0.0000 O   0  0  0  0  0  0  0  0  0  0  0  0
   10.4680    0.2737    0.0000 C   0  0  2  0  0  0  0  0  0  0  0  0
   10.8279    1.0161    0.0000 C   0  0  0  0  0  0  0  0  0  0  0  0
    9.9362    0.9044    0.0000 C   0  0  0  0  0  0  0  0  0  0  0  0
    9.1241    0.7592    0.0000 C   0  0  0  0  0  0  0  0  0  0  0  0
    8.8438   -0.0167    0.0000 C   0  0  1  0  0  0  0  0  0  0  0  0
    8.5635   -0.7926    0.0000 H   0  0  0  0  0  0  0  0  0  0  0  0
    9.3756   -0.6474    0.0000 C   0  0  1  0  0  0  0  0  0  0  0  0
    9.9074   -1.2781    0.0000 H   0  0  0  0  0  0  0  0  0  0  0  0
    9.0953   -1.4233    0.0000 C   0  0  1  0  0  0  0  0  0  0  0  0
    9.6271   -2.0540    0.0000 O   0  0  0  0  0  0  0  0  0  0  0  0
    8.2832   -1.5685    0.0000 C   0  0  0  0  0  0  0  0  0  0  0  0
    7.7514   -0.9378    0.0000 C   0  0  2  0  0  0  0  0  0  0  0  0
    7.2196   -0.3071    0.0000 H   0  0  0  0  0  0  0  0  0  0  0  0
    6.9393   -1.0831    0.0000 C   0  0  0  0  0  0  0  0  0  0  0  0
    6.4075   -0.4523    0.0000 C   0  0  2  0  0  0  0  0  0  0  0  0
    5.5953   -0.5976    0.0000 O   0  0  0  0  0  0  0  0  0  0  0  0
    6.6878    0.3236    0.0000 C   0  0  0  0  0  0  0  0  0  0  0  0
    7.4999    0.4688    0.0000 C   0  0  0  0  0  0  0  0  0  0  0  0
    8.0317   -0.1619    0.0000 C   0  0  2  0  0  0  0  0  0  0  0  0
    8.3120    0.6140    0.0000 C   0  0  0  0  0  0  0  0  0  0  0  0
   -4.8375   -0.1734    0.0000 H   0  0  0  0  0  0  0  0  0  0  0  0
   -3.2185   -1.0753    0.0000 H   0  0  0  0  0  0  0  0  0  0  0  0
   -4.2883   -1.0917    0.0000 H   0  0  0  0  0  0  0  0  0  0  0  0
   -2.6692    2.1826    0.0000 H   0  0  0  0  0  0  0  0  0  0  0  0
   -0.8124    2.2110    0.0000 H   0  0  0  0  0  0  0  0  0  0  0  0
    0.4359    1.5154    0.0000 H   0  0  0  0  0  0  0  0  0  0  0  0
    1.0539    1.5248    0.0000 H   0  0  0  0  0  0  0  0  0  0  0  0
    4.6280    1.4980    0.0000 H   0  0  0  0  0  0  0  0  0  0  0  0
    4.6158    0.3799    0.0000 H   0  0  0  0  0  0  0  0  0  0  0  0
    2.9595   -1.6630    0.0000 H   0  0  0  0  0  0  0  0  0  0  0  0
    1.7525   -2.4289    0.0000 H   0  0  0  0  0  0  0  0  0  0  0  0
    0.6826   -2.4452    0.0000 H   0  0  0  0  0  0  0  0  0  0  0  0
   -0.1423   -2.4577    0.0000 H   0  0  0  0  0  0  0  0  0  0  0  0
   -0.6913   -1.5392    0.0000 H   0  0  0  0  0  0  0  0  0  0  0  0
   -1.3720   -1.7289    0.0000 H   0  0  0  0  0  0  0  0  0  0  0  0
   -3.8934    0.0533    0.0000 H   0  0  0  0  0  0  0  0  0  0  0  0
   -3.8651   -1.7998    0.0000 H   0  0  0  0  0  0  0  0  0  0  0  0
   -4.4142   -0.8814    0.0000 H   0  0  0  0  0  0  0  0  0  0  0  0
   10.8044   -2.0779    0.0000 H   0  0  0  0  0  0  0  0  0  0  0  0
   11.7762   -1.5250    0.0000 H   0  0  0  0  0  0  0  0  0  0  0  0
   12.5282   -0.9092    0.0000 H   0  0  0  0  0  0  0  0  0  0  0  0
   12.3027    0.1860    0.0000 H   0  0  0  0  0  0  0  0  0  0  0  0
   12.3434    0.0453    0.0000 H   0  0  0  0  0  0  0  0  0  0  0  0
   12.4557    1.7430    0.0000 H   0  0  0  0  0  0  0  0  0  0  0  0
   12.1448    2.5072    0.0000 H   0  0  0  0  0  0  0  0  0  0  0  0
   10.4282    1.8087    0.0000 H   0  0  0  0  0  0  0  0  0  0  0  0
   11.0848    2.6535    0.0000 H   0  0  0  0  0  0  0  0  0  0  0  0
   13.0194   -0.2057    0.0000 H   0  0  0  0  0  0  0  0  0  0  0  0
   13.6761    0.6390    0.0000 H   0  0  0  0  0  0  0  0  0  0  0  0
   12.7194    2.4278    0.0000 H   0  0  0  0  0  0  0  0  0  0  0  0
   13.7793    2.2815    0.0000 H   0  0  0  0  0  0  0  0  0  0  0  0
   11.8951    1.0933    0.0000 H   0  0  0  0  0  0  0  0  0  0  0  0
   10.2274    1.9017    0.0000 H   0  0  0  0  0  0  0  0  0  0  0  0
   11.2947    1.9789    0.0000 H   0  0  0  0  0  0  0  0  0  0  0  0
   10.2998    1.9107    0.0000 H   0  0  0  0  0  0  0  0  0  0  0  0
    9.2465    1.7224    0.0000 H   0  0  0  0  0  0  0  0  0  0  0  0
    8.4344    1.5772    0.0000 H   0  0  0  0  0  0  0  0  0  0  0  0
    8.0708    0.5709    0.0000 H   0  0  0  0  0  0  0  0  0  0  0  0
   10.1486   -1.2350    0.0000 H   0  0  0  0  0  0  0  0  0  0  0  0
    9.2975   -2.9663    0.0000 H   0  0  0  0  0  0  0  0  0  0  0  0
    7.9196   -2.5748    0.0000 H   0  0  0  0  0  0  0  0  0  0  0  0
    7.2299   -1.7568    0.0000 H   0  0  0  0  0  0  0  0  0  0  0  0
    6.5758   -2.0895    0.0000 H   0  0  0  0  0  0  0  0  0  0  0  0
    5.8860   -1.2714    0.0000 H   0  0  0  0  0  0  0  0  0  0  0  0
    6.0440   -1.4586    0.0000 H   0  0  0  0  0  0  0  0  0  0  0  0
    4.9699    0.1439    0.0000 H   0  0  0  0  0  0  0  0  0  0  0  0
    5.9981    1.1416    0.0000 H   0  0  0  0  0  0  0  0  0  0  0  0
    7.0514    1.3299    0.0000 H   0  0  0  0  0  0  0  0  0  0  0  0
    7.8635    1.4751    0.0000 H   0  0  0  0  0  0  0  0  0  0  0  0
    8.5532    0.6571    0.0000 H   0  0  0  0  0  0  0  0  0  0  0  0
    9.3653    0.8023    0.0000 H   0  0  0  0  0  0  0  0  0  0  0  0
    7.6223    1.4320    0.0000 H   0  0  0  0  0  0  0  0  0  0  0  0
    8.6756    1.6203    0.0000 H   0  0  0  0  0  0  0  0  0  0  0  0
  1  2  1  0  0  0  0
  1 58  1  0  0  0  0
  1 59  1  0  0  0  0
  1 60  1  0  0  0  0
  2  3  1  0  0  0  0
  3  4  1  0  0  0  0
  3 23  2  0  0  0  0
  4  5  2  0  0  0  0
  4 61  1  0  0  0  0
  5  6  1  0  0  0  0
  5 62  1  0  0  0  0
  6  7  2  0  0  0  0
  6 22  1  0  0  0  0
  7  8  1  0  0  0  0
  7 63  1  0  0  0  0
  8  9  1  0  0  0  0
  8 20  2  0  0  0  0
  9 10  2  0  0  0  0
  9 17  1  0  0  0  0
 10 11  1  0  0  0  0
 10 64  1  0  0  0  0
 11 12  1  0  0  0  0
 11 15  2  0  0  0  0
 12 13  1  0  0  0  0
 13 14  1  0  0  0  0
 13 65  1  0  0  0  0
 13 66  1  0  0  0  0
 14 15  1  0  0  0  0
 15 16  1  0  0  0  0
 16 17  2  0  0  0  0
 16 67  1  0  0  0  0
 17 18  1  0  0  0  0
 18 19  1  0  0  0  0
 18 68  1  0  0  0  0
 18 69  1  0  0  0  0
 19 20  1  0  0  0  0
 19 70  1  0  0  0  0
 19 71  1  0  0  0  0
 20 21  1  0  0  0  0
 21 22  2  0  0  0  0
 21 72  1  0  0  0  0
 22 23  1  0  0  0  0
 23 24  1  0  0  0  0
 24 25  1  0  0  0  0
 25 73  1  0  0  0  0
 25 74  1  0  0  0  0
 25 75  1  0  0  0  0
 27 26  1  6  0  0  0
 27 28  1  0  0  0  0
 27 38  1  0  0  0  0
 28 29  1  0  0  0  0
 28 76  1  0  0  0  0
 28 77  1  0  0  0  0
 29 78  1  0  0  0  0
 29 79  1  0  0  0  0
 30 29  1  0  0  0  0
 30 31  1  0  0  0  0
 30 80  1  6  0  0  0
 31 32  1  0  0  0  0
 31 33  1  0  0  0  0
 31 81  1  1  0  0  0
 32 82  1  0  0  0  0
 32 83  1  0  0  0  0
 32 84  1  0  0  0  0
 33 34  1  0  0  0  0
 33 85  1  0  0  0  0
 33 86  1  0  0  0  0
 34 35  1  0  0  0  0
 34 87  1  0  0  0  0
 34 88  1  0  0  0  0
 35 36  1  0  0  0  0
 35 37  2  0  0  0  0
 38 30  1  0  0  0  0
 38 39  1  1  0  0  0
 38 40  1  0  0  0  0
 39 89  1  0  0  0  0
 39 90  1  0  0  0  0
 39 91  1  0  0  0  0
 40 41  1  0  0  0  0
 40 92  1  0  0  0  0
 40 93  1  0  0  0  0
 41 94  1  0  0  0  0
 41 95  1  0  0  0  0
 42 41  1  0  0  0  0
 42 43  1  6  0  0  0
 42 56  1  0  0  0  0
 44 42  1  0  0  0  0
 44 27  1  0  0  0  0
 44 45  1  1  0  0  0
 44 46  1  0  0  0  0
 46 47  1  0  0  0  0
 46 48  1  0  0  0  0
 46 96  1  6  0  0  0
 47 97  1  0  0  0  0
 48 98  1  0  0  0  0
 48 99  1  0  0  0  0
 49 48  1  0  0  0  0
 49 50  1  1  0  0  0
 49 51  1  0  0  0  0
 51100  1  0  0  0  0
 51101  1  0  0  0  0
 52 51  1  0  0  0  0
 52 53  1  0  0  0  0
 52 54  1  0  0  0  0
 52102  1  1  0  0  0
 53103  1  0  0  0  0
 54 55  1  0  0  0  0
 54104  1  0  0  0  0
 54105  1  0  0  0  0
 55106  1  0  0  0  0
 55107  1  0  0  0  0
 56 55  1  0  0  0  0
 56 49  1  0  0  0  0
 56 57  1  1  0  0  0
 57108  1  0  0  0  0
 57109  1  0  0  0  0
 57110  1  0  0  0  0
M  CHG  2  20   1  36  -1
M  END
>  <DRUGBANK_ID>
DB18111

>  <COMMON_NAME>
Berberine ursodeoxycholate

>  <CAS_NUMBER>
1868138-66-2

>  <UNII>
VM8KQ3W8GM

>  <SYNONYMS>
9,10-dimethoxy-5,6-dihydro-2H,8H-[1,3]dioxolo[4,5-g]isoquinolino[3,2-a]isoquinolin-8-ylium 3α,7β-dihydroxy-5β-cholan-24-oate; Cholan-24-oic acid, 3,7-dihydroxy-, ion(1-), (3α,5β,7β)-, 5,6-dihydro-9,10-dimethoxybenzo[g]-1,3-benzodioxolo[5,6-a]quinolizinium (1:1)

$$$$
