
 OpenBabel10282417072D

 33 34  0  0  1  0  0  0  0  0999 V2000
    0.0000   -1.6500    0.0000 C   0  0  0  0  0  0  0  0  0  0  0  0
    0.0000   -2.4750    0.0000 C   0  0  0  0  0  0  0  0  0  0  0  0
   -0.7145   -2.8875    0.0000 C   0  0  0  0  0  0  0  0  0  0  0  0
   -1.4289   -2.4750    0.0000 C   0  0  0  0  0  0  0  0  0  0  0  0
   -1.4289   -1.6500    0.0000 C   0  0  0  0  0  0  0  0  0  0  0  0
   -0.7145   -1.2375    0.0000 C   0  0  0  0  0  0  0  0  0  0  0  0
   -0.7145   -0.4125    0.0000 C   0  0  2  0  0  0  0  0  0  0  0  0
   -1.4289   -0.0000    0.0000 C   0  0  2  0  0  0  0  0  0  0  0  0
   -2.1434   -0.4125    0.0000 C   0  0  0  0  0  0  0  0  0  0  0  0
   -2.8579   -0.0000    0.0000 C   0  0  0  0  0  0  0  0  0  0  0  0
   -2.8579    0.8250    0.0000 C   0  0  0  0  0  0  0  0  0  0  0  0
   -2.1434    1.2375    0.0000 C   0  0  0  0  0  0  0  0  0  0  0  0
   -1.4289    0.8250    0.0000 N   0  0  0  0  0  0  0  0  0  0  0  0
    0.0000    0.0000    0.0000 O   0  0  0  0  0  0  0  0  0  0  0  0
   -2.1434   -2.8875    0.0000 O   0  0  0  0  0  0  0  0  0  0  0  0
   -0.7145   -3.7125    0.0000 O   0  0  0  0  0  0  0  0  0  0  0  0
    0.8937   -1.1340    0.0000 H   0  0  0  0  0  0  0  0  0  0  0  0
    0.8937   -2.9910    0.0000 H   0  0  0  0  0  0  0  0  0  0  0  0
   -2.3226   -1.1340    0.0000 H   0  0  0  0  0  0  0  0  0  0  0  0
   -1.6412   -0.9475    0.0000 H   0  0  0  0  0  0  0  0  0  0  0  0
   -1.4289   -1.0700    0.0000 H   0  0  0  0  0  0  0  0  0  0  0  0
   -2.1434   -1.4825    0.0000 H   0  0  0  0  0  0  0  0  0  0  0  0
   -3.0700   -0.9475    0.0000 H   0  0  0  0  0  0  0  0  0  0  0  0
   -3.7845   -0.5350    0.0000 H   0  0  0  0  0  0  0  0  0  0  0  0
   -3.7845    0.5350    0.0000 H   0  0  0  0  0  0  0  0  0  0  0  0
   -3.7845    1.3600    0.0000 H   0  0  0  0  0  0  0  0  0  0  0  0
   -2.8579    1.8950    0.0000 H   0  0  0  0  0  0  0  0  0  0  0  0
   -2.1434    2.3075    0.0000 H   0  0  0  0  0  0  0  0  0  0  0  0
   -1.2168    1.7725    0.0000 H   0  0  0  0  0  0  0  0  0  0  0  0
   -0.5456    1.3350    0.0000 H   0  0  0  0  0  0  0  0  0  0  0  0
    0.8400   -0.4850    0.0000 H   0  0  0  0  0  0  0  0  0  0  0  0
   -2.9549   -2.4190    0.0000 H   0  0  0  0  0  0  0  0  0  0  0  0
   -1.5260   -4.1810    0.0000 H   0  0  0  0  0  0  0  0  0  0  0  0
  1  2  2  0  0  0  0
  1  6  1  0  0  0  0
  1 17  1  0  0  0  0
  2  3  1  0  0  0  0
  2 18  1  0  0  0  0
  3  4  2  0  0  0  0
  3 16  1  0  0  0  0
  4  5  1  0  0  0  0
  4 15  1  0  0  0  0
  5  6  2  0  0  0  0
  5 19  1  0  0  0  0
  6  7  1  0  0  0  0
  7 14  1  0  0  0  0
  7 20  1  1  0  0  0
  8  7  1  0  0  0  0
  8  9  1  0  0  0  0
  8 13  1  0  0  0  0
  8 21  1  1  0  0  0
  9 10  1  0  0  0  0
  9 22  1  0  0  0  0
  9 23  1  0  0  0  0
 10 11  1  0  0  0  0
 10 24  1  0  0  0  0
 10 25  1  0  0  0  0
 11 12  1  0  0  0  0
 11 26  1  0  0  0  0
 11 27  1  0  0  0  0
 12 13  1  0  0  0  0
 12 28  1  0  0  0  0
 12 29  1  0  0  0  0
 13 30  1  0  0  0  0
 14 31  1  0  0  0  0
 15 32  1  0  0  0  0
 16 33  1  0  0  0  0
M  END
>  <DRUGBANK_ID>
DB13559

>  <COMMON_NAME>
Rimiterol

>  <CAS_NUMBER>
32953-89-2

>  <UNII>
26GIW6ZLPH

>  <SYNONYMS>
Rimiterol

$$$$
