
 OpenBabel10282417072D

 69 72  0  0  0  0  0  0  0  0999 V2000
    0.6269    2.2550    0.0000 N   0  0  0  0  0  0  0  0  0  0  0  0
    0.6269    1.4301    0.0000 C   0  0  0  0  0  0  0  0  0  0  0  0
   -0.0876    0.1926    0.0000 C   0  0  0  0  0  0  0  0  0  0  0  0
    0.6268   -0.2199    0.0000 N   0  0  0  0  0  0  0  0  0  0  0  0
    1.3413    0.1926    0.0000 C   0  0  0  0  0  0  0  0  0  0  0  0
    1.3413    1.0176    0.0000 C   0  0  0  0  0  0  0  0  0  0  0  0
    2.1259    1.2724    0.0000 N   0  0  0  0  0  0  0  0  0  0  0  0
    2.6109    0.6049    0.0000 C   0  0  0  0  0  0  0  0  0  0  0  0
    2.1259   -0.0623    0.0000 N   0  0  0  0  0  0  0  0  0  0  0  0
    2.3809   -0.8472    0.0000 C   0  0  2  0  0  0  0  0  0  0  0  0
    1.8959   -1.5145    0.0000 O   0  0  0  0  0  0  0  0  0  0  0  0
    2.3808   -2.1821    0.0000 C   0  0  1  0  0  0  0  0  0  0  0  0
    3.1654   -1.9271    0.0000 C   0  0  1  0  0  0  0  0  0  0  0  0
    3.8329   -2.4121    0.0000 O   0  0  0  0  0  0  0  0  0  0  0  0
    3.1655   -1.1021    0.0000 C   0  0  1  0  0  0  0  0  0  0  0  0
    3.8329   -0.6172    0.0000 O   0  0  0  0  0  0  0  0  0  0  0  0
    1.3008   -2.9667    0.0000 O   0  0  0  0  0  0  0  0  0  0  0  0
    0.5863   -4.2042    0.0000 O   0  0  0  0  0  0  0  0  0  0  0  0
    0.5863   -3.3792    0.0000 P   0  0  3  0  0  0  0  0  0  0  0  0
    0.5863   -2.5542    0.0000 O   0  0  0  0  0  0  0  0  0  0  0  0
   -0.1280   -2.9667    0.0000 O   0  0  0  0  0  0  0  0  0  0  0  0
   -0.8425   -4.2042    0.0000 O   0  0  0  0  0  0  0  0  0  0  0  0
   -0.8425   -3.3792    0.0000 P   0  0  3  0  0  0  0  0  0  0  0  0
   -0.8425   -2.5345    0.0000 O   0  0  0  0  0  0  0  0  0  0  0  0
   -1.5570   -2.9667    0.0000 O   0  0  0  0  0  0  0  0  0  0  0  0
   -2.2714   -4.2042    0.0000 O   0  0  0  0  0  0  0  0  0  0  0  0
   -2.9859   -2.9667    0.0000 O   0  0  0  0  0  0  0  0  0  0  0  0
   -2.2714   -3.3792    0.0000 P   0  0  0  0  0  0  0  0  0  0  0  0
   -2.2714   -2.5542    0.0000 O   0  0  0  0  0  0  0  0  0  0  0  0
    2.1258   -2.9667    0.0000 C   0  0  0  0  0  0  0  0  0  0  0  0
   -0.8020    1.4301    0.0000 C   0  0  3  0  0  0  0  0  0  0  0  0
   -0.7204    2.2511    0.0000 O   0  0  0  0  0  0  0  0  0  0  0  0
   -1.6079    1.2539    0.0000 C   0  0  2  0  0  0  0  0  0  0  0  0
   -2.0204    0.5394    0.0000 O   0  0  0  0  0  0  0  0  0  0  0  0
   -2.0245    1.9661    0.0000 C   0  0  2  0  0  0  0  0  0  0  0  0
   -2.8495    1.9661    0.0000 O   0  0  0  0  0  0  0  0  0  0  0  0
   -1.4760    2.5822    0.0000 C   0  0  1  0  0  0  0  0  0  0  0  0
   -1.6895    3.3792    0.0000 C   0  0  0  0  0  0  0  0  0  0  0  0
   -2.4040    3.7916    0.0000 O   0  0  0  0  0  0  0  0  0  0  0  0
   -3.1184    2.5541    0.0000 O   0  0  0  0  0  0  0  0  0  0  0  0
   -3.8329    3.7916    0.0000 O   0  0  0  0  0  0  0  0  0  0  0  0
   -3.1184    3.3792    0.0000 P   0  0  0  0  0  0  0  0  0  0  0  0
   -3.1184    4.2042    0.0000 O   0  0  0  0  0  0  0  0  0  0  0  0
   -0.0875    1.0176    0.0000 N   0  0  0  0  0  0  0  0  0  0  0  0
    1.4795    2.7473    0.0000 H   0  0  0  0  0  0  0  0  0  0  0  0
   -0.9814   -0.3233    0.0000 H   0  0  0  0  0  0  0  0  0  0  0  0
    3.6429    0.6048    0.0000 H   0  0  0  0  0  0  0  0  0  0  0  0
    1.3241   -0.6797    0.0000 H   0  0  0  0  0  0  0  0  0  0  0  0
    1.3240   -2.3494    0.0000 H   0  0  0  0  0  0  0  0  0  0  0  0
    2.9980   -2.9839    0.0000 H   0  0  0  0  0  0  0  0  0  0  0  0
    3.7315   -3.3768    0.0000 H   0  0  0  0  0  0  0  0  0  0  0  0
    2.9981   -0.0453    0.0000 H   0  0  0  0  0  0  0  0  0  0  0  0
    4.7190   -1.0117    0.0000 H   0  0  0  0  0  0  0  0  0  0  0  0
    1.4263   -2.0692    0.0000 H   0  0  0  0  0  0  0  0  0  0  0  0
   -0.0025   -2.0495    0.0000 H   0  0  0  0  0  0  0  0  0  0  0  0
   -2.9859   -1.9967    0.0000 H   0  0  0  0  0  0  0  0  0  0  0  0
   -1.4314   -2.0692    0.0000 H   0  0  0  0  0  0  0  0  0  0  0  0
    2.7547   -3.8324    0.0000 H   0  0  0  0  0  0  0  0  0  0  0  0
    1.6400   -3.9201    0.0000 H   0  0  0  0  0  0  0  0  0  0  0  0
   -1.6013    2.1415    0.0000 H   0  0  0  0  0  0  0  0  0  0  0  0
   -2.6779    1.2509    0.0000 H   0  0  0  0  0  0  0  0  0  0  0  0
   -2.9904    0.5394    0.0000 H   0  0  0  0  0  0  0  0  0  0  0  0
   -2.4625    2.9424    0.0000 H   0  0  0  0  0  0  0  0  0  0  0  0
   -3.3345    2.8061    0.0000 H   0  0  0  0  0  0  0  0  0  0  0  0
   -0.6644    3.2795    0.0000 H   0  0  0  0  0  0  0  0  0  0  0  0
   -0.8406    4.0306    0.0000 H   0  0  0  0  0  0  0  0  0  0  0  0
   -1.7596    4.4469    0.0000 H   0  0  0  0  0  0  0  0  0  0  0  0
   -3.8330    4.7616    0.0000 H   0  0  0  0  0  0  0  0  0  0  0  0
   -2.2784    4.6892    0.0000 H   0  0  0  0  0  0  0  0  0  0  0  0
  1  2  2  0  0  0  0
  1 45  1  0  0  0  0
  2 44  1  0  0  0  0
  2  6  1  0  0  0  0
  3  4  2  0  0  0  0
  3 46  1  0  0  0  0
  4  5  1  0  0  0  0
  5  6  2  0  0  0  0
  5  9  1  0  0  0  0
  6  7  1  0  0  0  0
  7  8  2  0  0  0  0
  8  9  1  0  0  0  0
  8 47  1  0  0  0  0
 10  9  1  0  0  0  0
 10 11  1  0  0  0  0
 10 15  1  0  0  0  0
 10 48  1  6  0  0  0
 11 12  1  0  0  0  0
 12 30  1  0  0  0  0
 12 13  1  0  0  0  0
 12 49  1  6  0  0  0
 13 14  1  0  0  0  0
 13 15  1  0  0  0  0
 13 50  1  1  0  0  0
 14 51  1  0  0  0  0
 15 16  1  0  0  0  0
 15 52  1  1  0  0  0
 16 53  1  0  0  0  0
 17 19  1  0  0  0  0
 19 18  2  0  0  0  0
 19 21  1  0  0  0  0
 19 20  1  0  0  0  0
 20 54  1  0  0  0  0
 21 23  1  0  0  0  0
 23 22  2  0  0  0  0
 23 25  1  0  0  0  0
 23 24  1  0  0  0  0
 24 55  1  0  0  0  0
 25 28  1  0  0  0  0
 27 56  1  0  0  0  0
 28 26  2  0  0  0  0
 28 27  1  0  0  0  0
 28 29  1  0  0  0  0
 29 57  1  0  0  0  0
 30 17  1  0  0  0  0
 30 58  1  0  0  0  0
 30 59  1  0  0  0  0
 31 60  1  0  0  0  0
 32 37  1  0  0  0  0
 32 31  1  0  0  0  0
 33 31  1  0  0  0  0
 33 34  1  0  0  0  0
 33 61  1  1  0  0  0
 34 62  1  0  0  0  0
 35 33  1  0  0  0  0
 35 36  1  0  0  0  0
 35 63  1  1  0  0  0
 36 64  1  0  0  0  0
 37 35  1  0  0  0  0
 37 38  1  0  0  0  0
 37 65  1  6  0  0  0
 38 39  1  0  0  0  0
 38 66  1  0  0  0  0
 38 67  1  0  0  0  0
 39 42  1  0  0  0  0
 41 68  1  0  0  0  0
 42 40  2  0  0  0  0
 42 41  1  0  0  0  0
 42 43  1  0  0  0  0
 43 69  1  0  0  0  0
 44  3  1  0  0  0  0
 44 31  1  0  0  0  0
M  END
>  <DRUGBANK_ID>
DB01661

>  <SECONDARY_ACCESSION_NUMBERS>
EXPT02665

>  <COMMON_NAME>
1-(5-phospho-D-ribosyl)-ATP

>  <SYNONYMS>
Phosphoribosyl ATP

$$$$
