
 OpenBabel10282417072D

  8  7  0  0  0  0  0  0  0  0999 V2000
    0.8250   -0.7145    0.0000 F   0  0  0  0  0  0  0  0  0  0  0  0
   -0.8250    0.7145    0.0000 Br  0  0  0  0  0  0  0  0  0  0  0  0
   -0.8250   -0.7145    0.0000 Cl  0  0  0  0  0  0  0  0  0  0  0  0
    0.8250    0.7145    0.0000 F   0  0  0  0  0  0  0  0  0  0  0  0
    0.4125    0.0000    0.0000 C   0  0  0  0  0  0  0  0  0  0  0  0
    1.2374    0.0000    0.0000 F   0  0  0  0  0  0  0  0  0  0  0  0
   -0.4125    0.0000    0.0000 C   0  0  3  0  0  0  0  0  0  0  0  0
   -1.2374    0.0000    0.0000 H   0  0  0  0  0  0  0  0  0  0  0  0
  1  5  1  0  0  0  0
  2  7  1  0  0  0  0
  3  7  1  0  0  0  0
  4  5  1  0  0  0  0
  5  6  1  0  0  0  0
  7  5  1  0  0  0  0
  7  8  1  0  0  0  0
M  END
>  <DRUGBANK_ID>
DB01159

>  <SECONDARY_ACCESSION_NUMBERS>
APRD00598; EXPT01754; DB02330

>  <COMMON_NAME>
Halothane

>  <CAS_NUMBER>
151-67-7

>  <UNII>
UQT9G45D1P

>  <SYNONYMS>
1-bromo-1-chloro-2,2,2-trifluoroethane; 1,1,1-trifluoro-2-bromo-2-chloroethane; 1,1,1-trifluoro-2-chloro-2-bromoethane; 2-bromo-2-chloro-1,1,1-trifluoroethane; 2,2,2-trifluoro-1-chloro-1-bromoethane; Alotano; Bromochlorotrifluoroethane; Halotano; Halothane; Halothanum

$$$$
