
 OpenBabel10282417072D

 42 43  0  0  0  0  0  0  0  0999 V2000
    1.2134    0.2942    0.0000 C   0  0  0  0  0  0  0  0  0  0  0  0
    1.2134   -0.4666    0.0000 C   0  0  0  0  0  0  0  0  0  0  0  0
    1.9192    0.7487    0.0000 C   0  0  0  0  0  0  0  0  0  0  0  0
    0.4837    0.7487    0.0000 C   0  0  0  0  0  0  0  0  0  0  0  0
    1.8813   -0.9003    0.0000 C   0  0  0  0  0  0  0  0  0  0  0  0
    0.4837   -0.8865    0.0000 O   0  0  0  0  0  0  0  0  0  0  0  0
    2.6491    0.3458    0.0000 C   0  0  0  0  0  0  0  0  0  0  0  0
    1.9329    1.5921    0.0000 O   0  0  0  0  0  0  0  0  0  0  0  0
   -0.2254    0.3458    0.0000 N   0  0  0  0  0  0  0  0  0  0  0  0
    0.4837    1.6299    0.0000 O   0  0  0  0  0  0  0  0  0  0  0  0
    2.6491   -0.4767    0.0000 C   0  0  0  0  0  0  0  0  0  0  0  0
    1.8813   -1.7470    0.0000 Cl  0  0  0  0  0  0  0  0  0  0  0  0
    0.4837   -1.7126    0.0000 C   0  0  0  0  0  0  0  0  0  0  0  0
    3.3789    0.7452    0.0000 Cl  0  0  0  0  0  0  0  0  0  0  0  0
   -0.9449    0.7487    0.0000 C   0  0  0  0  0  0  0  0  0  0  0  0
   -1.6506    0.3458    0.0000 C   0  0  1  0  0  0  0  0  0  0  0  0
   -2.4218    0.6935    0.0000 N   0  0  0  0  0  0  0  0  0  0  0  0
   -1.7505   -0.4666    0.0000 C   0  0  0  0  0  0  0  0  0  0  0  0
   -2.9726    0.0843    0.0000 C   0  0  0  0  0  0  0  0  0  0  0  0
   -2.5939    1.4922    0.0000 C   0  0  0  0  0  0  0  0  0  0  0  0
   -2.5595   -0.6282    0.0000 C   0  0  0  0  0  0  0  0  0  0  0  0
   -3.3789    1.7470    0.0000 C   0  0  0  0  0  0  0  0  0  0  0  0
    2.7519    2.0474    0.0000 H   0  0  0  0  0  0  0  0  0  0  0  0
   -0.2223   -0.6387    0.0000 H   0  0  0  0  0  0  0  0  0  0  0  0
    3.5378   -1.0014    0.0000 H   0  0  0  0  0  0  0  0  0  0  0  0
   -0.4429   -2.2476    0.0000 H   0  0  0  0  0  0  0  0  0  0  0  0
    1.4103   -2.2476    0.0000 H   0  0  0  0  0  0  0  0  0  0  0  0
    0.4837   -2.7826    0.0000 H   0  0  0  0  0  0  0  0  0  0  0  0
   -0.9493    1.8187    0.0000 H   0  0  0  0  0  0  0  0  0  0  0  0
   -1.8714    1.2840    0.0000 H   0  0  0  0  0  0  0  0  0  0  0  0
   -1.7015    1.4146    0.0000 H   0  0  0  0  0  0  0  0  0  0  0  0
   -0.9661   -1.1944    0.0000 H   0  0  0  0  0  0  0  0  0  0  0  0
   -2.0415   -1.4963    0.0000 H   0  0  0  0  0  0  0  0  0  0  0  0
   -4.0367    0.1963    0.0000 H   0  0  0  0  0  0  0  0  0  0  0  0
   -3.5546   -0.8136    0.0000 H   0  0  0  0  0  0  0  0  0  0  0  0
   -1.7998    2.2094    0.0000 H   0  0  0  0  0  0  0  0  0  0  0  0
   -2.8173    2.5386    0.0000 H   0  0  0  0  0  0  0  0  0  0  0  0
   -2.9998   -1.6034    0.0000 H   0  0  0  0  0  0  0  0  0  0  0  0
   -3.6281   -0.6824    0.0000 H   0  0  0  0  0  0  0  0  0  0  0  0
   -3.6017    2.7936    0.0000 H   0  0  0  0  0  0  0  0  0  0  0  0
   -4.1738    1.0308    0.0000 H   0  0  0  0  0  0  0  0  0  0  0  0
   -4.3966    2.0773    0.0000 H   0  0  0  0  0  0  0  0  0  0  0  0
  1  2  1  0  0  0  0
  1  3  2  0  0  0  0
  1  4  1  0  0  0  0
  2  5  2  0  0  0  0
  2  6  1  0  0  0  0
  3  7  1  0  0  0  0
  3  8  1  0  0  0  0
  4  9  1  0  0  0  0
  4 10  2  0  0  0  0
  5 11  1  0  0  0  0
  5 12  1  0  0  0  0
  6 13  1  0  0  0  0
  7 14  1  0  0  0  0
  7 11  2  0  0  0  0
  8 23  1  0  0  0  0
  9 15  1  0  0  0  0
  9 24  1  0  0  0  0
 11 25  1  0  0  0  0
 13 26  1  0  0  0  0
 13 27  1  0  0  0  0
 13 28  1  0  0  0  0
 15 29  1  0  0  0  0
 15 30  1  0  0  0  0
 16 15  1  0  0  0  0
 16 17  1  0  0  0  0
 16 18  1  0  0  0  0
 16 31  1  1  0  0  0
 17 19  1  0  0  0  0
 17 20  1  0  0  0  0
 18 21  1  0  0  0  0
 18 32  1  0  0  0  0
 18 33  1  0  0  0  0
 19 21  1  0  0  0  0
 19 34  1  0  0  0  0
 19 35  1  0  0  0  0
 20 22  1  0  0  0  0
 20 36  1  0  0  0  0
 20 37  1  0  0  0  0
 21 38  1  0  0  0  0
 21 39  1  0  0  0  0
 22 40  1  0  0  0  0
 22 41  1  0  0  0  0
 22 42  1  0  0  0  0
M  END
>  <DRUGBANK_ID>
DB12518

>  <COMMON_NAME>
Raclopride

>  <CAS_NUMBER>
84225-95-6

>  <UNII>
430K3SOZ7G

>  <SYNONYMS>
Racloprida; Raclopride; Raclopridum

$$$$
