
 OpenBabel10282417072D

278284  0  0  0  0  0  0  0  0999 V2000
    2.0410   -9.4634    0.0000 C   0  0  0  0  0  0  0  0  0  0  0  0
    0.9464   -8.5449    0.0000 C   0  0  0  0  0  0  0  0  0  0  0  0
    3.8383  -10.7274    0.0000 C   0  0  0  0  0  0  0  0  0  0  0  0
    4.5528   -9.4899    0.0000 C   0  0  0  0  0  0  0  0  0  0  0  0
    2.5713   -8.8316    0.0000 C   0  0  0  0  0  0  0  0  0  0  0  0
    1.4767   -7.9129    0.0000 C   0  0  0  0  0  0  0  0  0  0  0  0
    4.5528  -11.1399    0.0000 C   0  0  0  0  0  0  0  0  0  0  0  0
    5.2672   -9.9025    0.0000 C   0  0  0  0  0  0  0  0  0  0  0  0
    2.2891   -8.0562    0.0000 C   0  0  0  0  0  0  0  0  0  0  0  0
   -3.7009   -4.3459    0.0000 C   0  0  0  0  0  0  0  0  0  0  0  0
   -3.5294   -3.5390    0.0000 C   0  0  0  0  0  0  0  0  0  0  0  0
   -2.7447   -3.2841    0.0000 C   0  0  0  0  0  0  0  0  0  0  0  0
   -2.5732   -2.4770    0.0000 C   0  0  0  0  0  0  0  0  0  0  0  0
   -3.3064   -9.9025    0.0000 C   0  0  0  0  0  0  0  0  0  0  0  0
   -5.5402   -2.6899    0.0000 C   0  0  0  0  0  0  0  0  0  0  0  0
   -1.1629  -11.9650    0.0000 C   0  0  0  0  0  0  0  0  0  0  0  0
   -1.8774  -12.3775    0.0000 C   0  0  0  0  0  0  0  0  0  0  0  0
    0.6982   -9.9522    0.0000 C   0  0  0  0  0  0  0  0  0  0  0  0
    3.1238   -9.4899    0.0000 C   0  0  0  0  0  0  0  0  0  0  0  0
    1.2285   -9.3203    0.0000 C   0  0  0  0  0  0  0  0  0  0  0  0
    3.8383   -9.9025    0.0000 C   0  0  0  0  0  0  0  0  0  0  0  0
    5.2672  -10.7274    0.0000 C   0  0  0  0  0  0  0  0  0  0  0  0
   -4.2155   -6.7669    0.0000 O   0  0  0  0  0  0  0  0  0  0  0  0
   -3.3064   -7.4274    0.0000 O   0  0  0  0  0  0  0  0  0  0  0  0
   -5.8833   -4.3039    0.0000 O   0  0  0  0  0  0  0  0  0  0  0  0
   -3.3064   -8.2525    0.0000 O   0  0  0  0  0  0  0  0  0  0  0  0
   -2.5919  -11.1399    0.0000 O   0  0  0  0  0  0  0  0  0  0  0  0
   -4.0209   -8.6650    0.0000 O   0  0  0  0  0  0  0  0  0  0  0  0
   -4.5840   -1.6280    0.0000 O   0  0  0  0  0  0  0  0  0  0  0  0
    1.9771   -7.8897    0.0000 O   0  0  0  0  0  0  0  0  0  0  0  0
    0.2659  -11.9650    0.0000 O   0  0  0  0  0  0  0  0  0  0  0  0
    3.1238  -11.1399    0.0000 O   0  0  0  0  0  0  0  0  0  0  0  0
   -1.1629  -13.6149    0.0000 O   0  0  0  0  0  0  0  0  0  0  0  0
   -3.0044   -4.9204    0.0000 C   0  0  0  0  0  0  0  0  0  0  0  0
   -2.1794   -4.9204    0.0000 C   0  0  0  0  0  0  0  0  0  0  0  0
   -1.9244   -5.7050    0.0000 C   0  0  0  0  0  0  0  0  0  0  0  0
   -1.1629   -7.0149    0.0000 C   0  0  0  0  0  0  0  0  0  0  0  0
    0.9804   -7.4274    0.0000 C   0  0  0  0  0  0  0  0  0  0  0  0
    5.9818  -11.1399    0.0000 O   0  0  0  0  0  0  0  0  0  0  0  0
   -4.0440   -5.9599    0.0000 C   0  0  0  0  0  0  0  0  0  0  0  0
   -2.5919   -7.0149    0.0000 C   0  0  0  0  0  0  0  0  0  0  0  0
   -5.0987   -4.0488    0.0000 C   0  0  0  0  0  0  0  0  0  0  0  0
   -4.0209   -9.4899    0.0000 C   0  0  0  0  0  0  0  0  0  0  0  0
   -5.3687   -1.8828    0.0000 C   0  0  0  0  0  0  0  0  0  0  0  0
   -1.8774  -13.2025    0.0000 C   0  0  0  0  0  0  0  0  0  0  0  0
   -3.2593   -5.7050    0.0000 C   0  0  3  0  0  0  0  0  0  0  0  0
   -1.8774   -7.4274    0.0000 C   0  0  3  0  0  0  0  0  0  0  0  0
   -2.5919   -9.4899    0.0000 C   0  0  3  0  0  0  0  0  0  0  0  0
   -1.1629  -11.1399    0.0000 C   0  0  3  0  0  0  0  0  0  0  0  0
    0.9804   -8.2525    0.0000 C   0  0  3  0  0  0  0  0  0  0  0  0
    0.9804  -10.7274    0.0000 C   0  0  3  0  0  0  0  0  0  0  0  0
    2.4094   -9.9025    0.0000 C   0  0  3  0  0  0  0  0  0  0  0  0
   -2.5919   -8.6650    0.0000 C   0  0  0  0  0  0  0  0  0  0  0  0
   -1.8774  -10.7274    0.0000 C   0  0  0  0  0  0  0  0  0  0  0  0
    1.6948   -8.6650    0.0000 C   0  0  0  0  0  0  0  0  0  0  0  0
    0.2659  -11.1399    0.0000 C   0  0  0  0  0  0  0  0  0  0  0  0
    2.4094  -10.7274    0.0000 C   0  0  0  0  0  0  0  0  0  0  0  0
    0.9464    6.4008    0.0000 C   0  0  0  0  0  0  0  0  0  0  0  0
    2.0410    5.4824    0.0000 C   0  0  0  0  0  0  0  0  0  0  0  0
    3.8383    4.2185    0.0000 C   0  0  0  0  0  0  0  0  0  0  0  0
    4.5528    5.4559    0.0000 C   0  0  0  0  0  0  0  0  0  0  0  0
    1.4767    7.0329    0.0000 C   0  0  0  0  0  0  0  0  0  0  0  0
    2.5713    6.1143    0.0000 C   0  0  0  0  0  0  0  0  0  0  0  0
    4.5528    3.8060    0.0000 C   0  0  0  0  0  0  0  0  0  0  0  0
    5.2672    5.0434    0.0000 C   0  0  0  0  0  0  0  0  0  0  0  0
    2.2891    6.8895    0.0000 C   0  0  0  0  0  0  0  0  0  0  0  0
   -4.4855   -4.6009    0.0000 C   0  0  3  0  0  0  0  0  0  0  0  0
   -3.7009   10.5998    0.0000 C   0  0  0  0  0  0  0  0  0  0  0  0
   -3.5294   11.4068    0.0000 C   0  0  0  0  0  0  0  0  0  0  0  0
   -2.7447   11.6617    0.0000 C   0  0  0  0  0  0  0  0  0  0  0  0
   -3.3064    5.0434    0.0000 C   0  0  0  0  0  0  0  0  0  0  0  0
   -5.5402   12.2559    0.0000 C   0  0  0  0  0  0  0  0  0  0  0  0
   -1.1629    2.9808    0.0000 C   0  0  0  0  0  0  0  0  0  0  0  0
   -1.8774    2.5684    0.0000 C   0  0  0  0  0  0  0  0  0  0  0  0
    0.6982    4.9936    0.0000 C   0  0  0  0  0  0  0  0  0  0  0  0
    3.1238    5.4559    0.0000 C   0  0  0  0  0  0  0  0  0  0  0  0
   -1.7885   -2.2222    0.0000 N   0  0  0  0  0  0  0  0  0  0  0  0
    0.2659   -8.6650    0.0000 N   0  0  0  0  0  0  0  0  0  0  0  0
   -4.6570   -5.4079    0.0000 N   0  0  0  0  0  0  0  0  0  0  0  0
   -4.9272   -3.2420    0.0000 N   0  0  0  0  0  0  0  0  0  0  0  0
    1.2285    5.6256    0.0000 C   0  0  0  0  0  0  0  0  0  0  0  0
    3.8383    5.0434    0.0000 C   0  0  0  0  0  0  0  0  0  0  0  0
    5.2672    4.2185    0.0000 C   0  0  0  0  0  0  0  0  0  0  0  0
   -3.0044   10.0254    0.0000 C   0  0  0  0  0  0  0  0  0  0  0  0
   -2.1794   10.0254    0.0000 C   0  0  0  0  0  0  0  0  0  0  0  0
   -1.9244    9.2409    0.0000 C   0  0  0  0  0  0  0  0  0  0  0  0
   -1.1629    7.9309    0.0000 C   0  0  0  0  0  0  0  0  0  0  0  0
    0.9804    7.5183    0.0000 C   0  0  0  0  0  0  0  0  0  0  0  0
   -4.2155    8.1790    0.0000 O   0  0  0  0  0  0  0  0  0  0  0  0
   -3.3064    7.5183    0.0000 O   0  0  0  0  0  0  0  0  0  0  0  0
   -5.8833   10.6419    0.0000 O   0  0  0  0  0  0  0  0  0  0  0  0
   -3.3064    6.6934    0.0000 O   0  0  0  0  0  0  0  0  0  0  0  0
   -2.5919    3.8060    0.0000 O   0  0  0  0  0  0  0  0  0  0  0  0
   -4.0209    6.2809    0.0000 O   0  0  0  0  0  0  0  0  0  0  0  0
   -4.5840   13.3179    0.0000 O   0  0  0  0  0  0  0  0  0  0  0  0
    0.2659    2.9808    0.0000 O   0  0  0  0  0  0  0  0  0  0  0  0
    1.9771    7.0562    0.0000 O   0  0  0  0  0  0  0  0  0  0  0  0
    3.1238    3.8060    0.0000 O   0  0  0  0  0  0  0  0  0  0  0  0
   -1.1629    1.3308    0.0000 O   0  0  0  0  0  0  0  0  0  0  0  0
   -4.0440    8.9859    0.0000 C   0  0  0  0  0  0  0  0  0  0  0  0
   -2.5919    7.9309    0.0000 C   0  0  0  0  0  0  0  0  0  0  0  0
   -5.0987   10.8971    0.0000 C   0  0  0  0  0  0  0  0  0  0  0  0
   -4.0209    5.4559    0.0000 C   0  0  0  0  0  0  0  0  0  0  0  0
   -5.3687   13.0629    0.0000 C   0  0  0  0  0  0  0  0  0  0  0  0
   -1.7885   12.7237    0.0000 C   0  0  0  0  0  0  0  0  0  0  0  0
   -1.8774    1.7434    0.0000 C   0  0  0  0  0  0  0  0  0  0  0  0
   -2.5919   -6.1899    0.0000 N   0  0  0  0  0  0  0  0  0  0  0  0
   -1.8774   -8.2525    0.0000 N   0  0  0  0  0  0  0  0  0  0  0  0
   -1.8774   -9.9025    0.0000 N   0  0  0  0  0  0  0  0  0  0  0  0
   -0.4486  -10.7274    0.0000 N   0  0  0  0  0  0  0  0  0  0  0  0
    1.6948   -9.4899    0.0000 N   0  0  0  0  0  0  0  0  0  0  0  0
    1.6948  -11.1399    0.0000 N   0  0  0  0  0  0  0  0  0  0  0  0
    5.9818    3.8060    0.0000 O   0  0  0  0  0  0  0  0  0  0  0  0
   -4.7352   -9.9025    0.0000 N   0  0  0  0  0  0  0  0  0  0  0  0
   -5.9818   -1.3308    0.0000 N   0  0  0  0  0  0  0  0  0  0  0  0
   -2.5919  -13.6149    0.0000 N   0  0  0  0  0  0  0  0  0  0  0  0
   -0.4486   -7.4274    0.0000 S   0  0  0  0  0  0  0  0  0  0  0  0
    0.2659   -7.0149    0.0000 S   0  0  0  0  0  0  0  0  0  0  0  0
   -4.4855   10.3450    0.0000 C   0  0  3  0  0  0  0  0  0  0  0  0
   -2.5919    6.2809    0.0000 C   0  0  0  0  0  0  0  0  0  0  0  0
   -1.8774    4.2185    0.0000 C   0  0  0  0  0  0  0  0  0  0  0  0
    0.2659    3.8060    0.0000 C   0  0  0  0  0  0  0  0  0  0  0  0
    1.6948    6.2809    0.0000 C   0  0  0  0  0  0  0  0  0  0  0  0
    2.4093    4.2185    0.0000 C   0  0  0  0  0  0  0  0  0  0  0  0
   -3.2593    9.2409    0.0000 C   0  0  3  0  0  0  0  0  0  0  0  0
   -1.8774    7.5183    0.0000 C   0  0  3  0  0  0  0  0  0  0  0  0
   -2.5919    5.4559    0.0000 C   0  0  3  0  0  0  0  0  0  0  0  0
   -1.1629    3.8060    0.0000 C   0  0  3  0  0  0  0  0  0  0  0  0
    0.9804    6.6934    0.0000 C   0  0  3  0  0  0  0  0  0  0  0  0
    0.9804    4.2185    0.0000 C   0  0  3  0  0  0  0  0  0  0  0  0
    2.4093    5.0434    0.0000 C   0  0  3  0  0  0  0  0  0  0  0  0
    0.2659    6.2809    0.0000 N   0  0  0  0  0  0  0  0  0  0  0  0
   -1.6170   13.5306    0.0000 N   0  0  0  0  0  0  0  0  0  0  0  0
   -1.1755   12.1716    0.0000 N   0  0  0  0  0  0  0  0  0  0  0  0
   -2.5732   12.4688    0.0000 N   0  0  0  0  0  0  0  0  0  0  0  0
   -4.6570    9.5379    0.0000 N   0  0  0  0  0  0  0  0  0  0  0  0
   -4.9272   11.7039    0.0000 N   0  0  0  0  0  0  0  0  0  0  0  0
   -2.5919    8.7560    0.0000 N   0  0  0  0  0  0  0  0  0  0  0  0
   -0.4486    7.5183    0.0000 S   0  0  0  0  0  0  0  0  0  0  0  0
    0.2659    7.9309    0.0000 S   0  0  0  0  0  0  0  0  0  0  0  0
   -1.8774    6.6934    0.0000 N   0  0  0  0  0  0  0  0  0  0  0  0
   -1.8774    5.0434    0.0000 N   0  0  0  0  0  0  0  0  0  0  0  0
   -0.4486    4.2185    0.0000 N   0  0  0  0  0  0  0  0  0  0  0  0
    1.6948    5.4559    0.0000 N   0  0  0  0  0  0  0  0  0  0  0  0
    1.6948    3.8060    0.0000 N   0  0  0  0  0  0  0  0  0  0  0  0
   -4.7352    5.0434    0.0000 N   0  0  0  0  0  0  0  0  0  0  0  0
   -5.9818   13.6149    0.0000 N   0  0  0  0  0  0  0  0  0  0  0  0
   -2.5919    1.3308    0.0000 N   0  0  0  0  0  0  0  0  0  0  0  0
    2.3940  -10.4332    0.0000 H   0  0  0  0  0  0  0  0  0  0  0  0
   -0.0699   -8.3656    0.0000 H   0  0  0  0  0  0  0  0  0  0  0  0
    2.9446  -11.2434    0.0000 H   0  0  0  0  0  0  0  0  0  0  0  0
    4.5528   -8.4579    0.0000 H   0  0  0  0  0  0  0  0  0  0  0  0
    3.5876   -9.0109    0.0000 H   0  0  0  0  0  0  0  0  0  0  0  0
    1.1238   -6.9431    0.0000 H   0  0  0  0  0  0  0  0  0  0  0  0
    4.5528  -12.1719    0.0000 H   0  0  0  0  0  0  0  0  0  0  0  0
    6.1610   -9.3866    0.0000 H   0  0  0  0  0  0  0  0  0  0  0  0
    2.9525   -7.2657    0.0000 H   0  0  0  0  0  0  0  0  0  0  0  0
   -2.9057   -5.0618    0.0000 H   0  0  0  0  0  0  0  0  0  0  0  0
   -2.6833   -4.0152    0.0000 H   0  0  0  0  0  0  0  0  0  0  0  0
   -4.3245   -2.8230    0.0000 H   0  0  0  0  0  0  0  0  0  0  0  0
   -3.3069   -2.4924    0.0000 H   0  0  0  0  0  0  0  0  0  0  0  0
   -1.9495   -4.0001    0.0000 H   0  0  0  0  0  0  0  0  0  0  0  0
   -1.7271   -2.9534    0.0000 H   0  0  0  0  0  0  0  0  0  0  0  0
   -3.3683   -1.7610    0.0000 H   0  0  0  0  0  0  0  0  0  0  0  0
   -3.5908   -2.8076    0.0000 H   0  0  0  0  0  0  0  0  0  0  0  0
   -3.3064  -10.9725    0.0000 H   0  0  0  0  0  0  0  0  0  0  0  0
   -4.2331  -10.4375    0.0000 H   0  0  0  0  0  0  0  0  0  0  0  0
   -6.5578   -3.0205    0.0000 H   0  0  0  0  0  0  0  0  0  0  0  0
   -6.3354   -1.9739    0.0000 H   0  0  0  0  0  0  0  0  0  0  0  0
   -0.2363  -12.5000    0.0000 H   0  0  0  0  0  0  0  0  0  0  0  0
   -1.1629  -13.0350    0.0000 H   0  0  0  0  0  0  0  0  0  0  0  0
   -2.8040  -11.8425    0.0000 H   0  0  0  0  0  0  0  0  0  0  0  0
   -2.8040  -12.9125    0.0000 H   0  0  0  0  0  0  0  0  0  0  0  0
   -0.3555   -9.7664    0.0000 H   0  0  0  0  0  0  0  0  0  0  0  0
    0.3323   -8.9467    0.0000 H   0  0  0  0  0  0  0  0  0  0  0  0
    3.1238   -8.4199    0.0000 H   0  0  0  0  0  0  0  0  0  0  0  0
    4.0505   -8.9549    0.0000 H   0  0  0  0  0  0  0  0  0  0  0  0
   -3.6333   -4.0548    0.0000 H   0  0  0  0  0  0  0  0  0  0  0  0
   -2.5186   -3.9670    0.0000 H   0  0  0  0  0  0  0  0  0  0  0  0
   -1.5505   -4.0547    0.0000 H   0  0  0  0  0  0  0  0  0  0  0  0
   -1.1226   -5.0877    0.0000 H   0  0  0  0  0  0  0  0  0  0  0  0
   -0.9068   -6.0356    0.0000 H   0  0  0  0  0  0  0  0  0  0  0  0
   -1.1678   -4.9484    0.0000 H   0  0  0  0  0  0  0  0  0  0  0  0
   -1.1628   -5.9449    0.0000 H   0  0  0  0  0  0  0  0  0  0  0  0
   -2.0895   -6.4799    0.0000 H   0  0  0  0  0  0  0  0  0  0  0  0
    1.9070   -6.8924    0.0000 H   0  0  0  0  0  0  0  0  0  0  0  0
    1.9070   -7.9624    0.0000 H   0  0  0  0  0  0  0  0  0  0  0  0
    5.9819  -12.0769    0.0000 H   0  0  0  0  0  0  0  0  0  0  0  0
   -2.2417   -5.3743    0.0000 H   0  0  0  0  0  0  0  0  0  0  0  0
   -2.8040   -7.9624    0.0000 H   0  0  0  0  0  0  0  0  0  0  0  0
   -1.6652   -8.9549    0.0000 H   0  0  0  0  0  0  0  0  0  0  0  0
   -1.1630  -10.0699    0.0000 H   0  0  0  0  0  0  0  0  0  0  0  0
    0.0538   -7.7175    0.0000 H   0  0  0  0  0  0  0  0  0  0  0  0
    0.9804  -11.7974    0.0000 H   0  0  0  0  0  0  0  0  0  0  0  0
    1.4827  -10.4375    0.0000 H   0  0  0  0  0  0  0  0  0  0  0  0
   -0.0699    6.5800    0.0000 H   0  0  0  0  0  0  0  0  0  0  0  0
    2.3940    4.5126    0.0000 H   0  0  0  0  0  0  0  0  0  0  0  0
    2.9446    3.7025    0.0000 H   0  0  0  0  0  0  0  0  0  0  0  0
    4.5528    6.4879    0.0000 H   0  0  0  0  0  0  0  0  0  0  0  0
    1.1238    8.0027    0.0000 H   0  0  0  0  0  0  0  0  0  0  0  0
    3.5876    5.9351    0.0000 H   0  0  0  0  0  0  0  0  0  0  0  0
    4.5528    2.7740    0.0000 H   0  0  0  0  0  0  0  0  0  0  0  0
    6.1609    5.5594    0.0000 H   0  0  0  0  0  0  0  0  0  0  0  0
    2.9525    7.6800    0.0000 H   0  0  0  0  0  0  0  0  0  0  0  0
   -3.6903   -5.3168    0.0000 H   0  0  0  0  0  0  0  0  0  0  0  0
   -2.9058    9.8838    0.0000 H   0  0  0  0  0  0  0  0  0  0  0  0
   -2.6833   10.9304    0.0000 H   0  0  0  0  0  0  0  0  0  0  0  0
   -4.3246   12.1228    0.0000 H   0  0  0  0  0  0  0  0  0  0  0  0
   -3.3069   12.4534    0.0000 H   0  0  0  0  0  0  0  0  0  0  0  0
   -1.9495   10.9457    0.0000 H   0  0  0  0  0  0  0  0  0  0  0  0
   -2.9672   10.6151    0.0000 H   0  0  0  0  0  0  0  0  0  0  0  0
   -3.3064    3.9734    0.0000 H   0  0  0  0  0  0  0  0  0  0  0  0
   -4.2330    4.5084    0.0000 H   0  0  0  0  0  0  0  0  0  0  0  0
   -6.5578   11.9253    0.0000 H   0  0  0  0  0  0  0  0  0  0  0  0
   -6.3354   12.9719    0.0000 H   0  0  0  0  0  0  0  0  0  0  0  0
   -0.2363    2.4457    0.0000 H   0  0  0  0  0  0  0  0  0  0  0  0
   -1.1630    1.9108    0.0000 H   0  0  0  0  0  0  0  0  0  0  0  0
   -2.8040    3.1035    0.0000 H   0  0  0  0  0  0  0  0  0  0  0  0
   -2.8041    2.0334    0.0000 H   0  0  0  0  0  0  0  0  0  0  0  0
   -0.3556    5.1793    0.0000 H   0  0  0  0  0  0  0  0  0  0  0  0
    0.3322    5.9991    0.0000 H   0  0  0  0  0  0  0  0  0  0  0  0
    3.1238    6.5259    0.0000 H   0  0  0  0  0  0  0  0  0  0  0  0
    4.0504    5.9909    0.0000 H   0  0  0  0  0  0  0  0  0  0  0  0
   -1.0306   -2.9049    0.0000 H   0  0  0  0  0  0  0  0  0  0  0  0
   -1.5762   -1.2245    0.0000 H   0  0  0  0  0  0  0  0  0  0  0  0
   -0.6174   -8.1550    0.0000 H   0  0  0  0  0  0  0  0  0  0  0  0
    0.2659   -9.6850    0.0000 H   0  0  0  0  0  0  0  0  0  0  0  0
   -5.5933   -5.7121    0.0000 H   0  0  0  0  0  0  0  0  0  0  0  0
   -3.9909   -2.9378    0.0000 H   0  0  0  0  0  0  0  0  0  0  0  0
   -3.6333   10.8910    0.0000 H   0  0  0  0  0  0  0  0  0  0  0  0
   -2.5186   10.9788    0.0000 H   0  0  0  0  0  0  0  0  0  0  0  0
   -1.5505   10.8911    0.0000 H   0  0  0  0  0  0  0  0  0  0  0  0
   -1.1226    9.8581    0.0000 H   0  0  0  0  0  0  0  0  0  0  0  0
   -0.9068    8.9103    0.0000 H   0  0  0  0  0  0  0  0  0  0  0  0
   -1.1678    9.9976    0.0000 H   0  0  0  0  0  0  0  0  0  0  0  0
   -1.1628    9.0009    0.0000 H   0  0  0  0  0  0  0  0  0  0  0  0
   -2.0896    8.4659    0.0000 H   0  0  0  0  0  0  0  0  0  0  0  0
    1.9071    8.0533    0.0000 H   0  0  0  0  0  0  0  0  0  0  0  0
    1.9070    6.9833    0.0000 H   0  0  0  0  0  0  0  0  0  0  0  0
   -1.0248   -8.7448    0.0000 H   0  0  0  0  0  0  0  0  0  0  0  0
   -1.0248   -9.4103    0.0000 H   0  0  0  0  0  0  0  0  0  0  0  0
   -0.4487   -9.7429    0.0000 H   0  0  0  0  0  0  0  0  0  0  0  0
    0.8422   -9.9821    0.0000 H   0  0  0  0  0  0  0  0  0  0  0  0
    1.6947  -12.1244    0.0000 H   0  0  0  0  0  0  0  0  0  0  0  0
    5.9819    2.8690    0.0000 H   0  0  0  0  0  0  0  0  0  0  0  0
   -5.5879   -9.4104    0.0000 H   0  0  0  0  0  0  0  0  0  0  0  0
   -4.7350  -10.8870    0.0000 H   0  0  0  0  0  0  0  0  0  0  0  0
   -5.7771   -0.3678    0.0000 H   0  0  0  0  0  0  0  0  0  0  0  0
   -6.9181   -1.6351    0.0000 H   0  0  0  0  0  0  0  0  0  0  0  0
   -3.4444  -13.1225    0.0000 H   0  0  0  0  0  0  0  0  0  0  0  0
   -2.5920  -14.5994    0.0000 H   0  0  0  0  0  0  0  0  0  0  0  0
   -3.6904    9.6290    0.0000 H   0  0  0  0  0  0  0  0  0  0  0  0
   -2.2417    9.5715    0.0000 H   0  0  0  0  0  0  0  0  0  0  0  0
   -2.8041    6.9833    0.0000 H   0  0  0  0  0  0  0  0  0  0  0  0
   -1.6653    5.9909    0.0000 H   0  0  0  0  0  0  0  0  0  0  0  0
   -1.1630    4.8760    0.0000 H   0  0  0  0  0  0  0  0  0  0  0  0
    0.0538    7.2284    0.0000 H   0  0  0  0  0  0  0  0  0  0  0  0
    0.9804    3.1485    0.0000 H   0  0  0  0  0  0  0  0  0  0  0  0
    1.4827    4.5084    0.0000 H   0  0  0  0  0  0  0  0  0  0  0  0
   -0.6174    6.7909    0.0000 H   0  0  0  0  0  0  0  0  0  0  0  0
    0.2659    5.2609    0.0000 H   0  0  0  0  0  0  0  0  0  0  0  0
   -0.6807   13.8348    0.0000 H   0  0  0  0  0  0  0  0  0  0  0  0
   -2.3486   14.1893    0.0000 H   0  0  0  0  0  0  0  0  0  0  0  0
   -1.3803   11.2086    0.0000 H   0  0  0  0  0  0  0  0  0  0  0  0
   -0.2391   12.4757    0.0000 H   0  0  0  0  0  0  0  0  0  0  0  0
   -5.5933    9.2337    0.0000 H   0  0  0  0  0  0  0  0  0  0  0  0
   -3.9909   12.0081    0.0000 H   0  0  0  0  0  0  0  0  0  0  0  0
   -1.0248    6.2011    0.0000 H   0  0  0  0  0  0  0  0  0  0  0  0
   -1.0248    5.5357    0.0000 H   0  0  0  0  0  0  0  0  0  0  0  0
   -0.4487    5.2030    0.0000 H   0  0  0  0  0  0  0  0  0  0  0  0
    0.8422    4.9636    0.0000 H   0  0  0  0  0  0  0  0  0  0  0  0
    1.6948    2.8215    0.0000 H   0  0  0  0  0  0  0  0  0  0  0  0
   -5.5879    5.5356    0.0000 H   0  0  0  0  0  0  0  0  0  0  0  0
   -4.7351    4.0589    0.0000 H   0  0  0  0  0  0  0  0  0  0  0  0
   -5.7771   14.5779    0.0000 H   0  0  0  0  0  0  0  0  0  0  0  0
   -6.9181   13.3106    0.0000 H   0  0  0  0  0  0  0  0  0  0  0  0
   -3.4445    1.8230    0.0000 H   0  0  0  0  0  0  0  0  0  0  0  0
   -2.5918    0.3463    0.0000 H   0  0  0  0  0  0  0  0  0  0  0  0
  1 20  2  0  0  0  0
  1  5  1  0  0  0  0
  1149  1  0  0  0  0
  2 20  1  0  0  0  0
  2  6  2  0  0  0  0
  2150  1  0  0  0  0
  3 21  2  0  0  0  0
  3  7  1  0  0  0  0
  3151  1  0  0  0  0
  4 21  1  0  0  0  0
  4  8  2  0  0  0  0
  4152  1  0  0  0  0
  5  9  2  0  0  0  0
  5153  1  0  0  0  0
  6  9  1  0  0  0  0
  6154  1  0  0  0  0
  7 22  2  0  0  0  0
  7155  1  0  0  0  0
  8 22  1  0  0  0  0
  8156  1  0  0  0  0
  9157  1  0  0  0  0
 10 67  1  0  0  0  0
 10 11  1  0  0  0  0
 10158  1  0  0  0  0
 10159  1  0  0  0  0
 11 12  1  0  0  0  0
 11160  1  0  0  0  0
 11161  1  0  0  0  0
 12 13  1  0  0  0  0
 12162  1  0  0  0  0
 12163  1  0  0  0  0
 13 77  1  0  0  0  0
 13164  1  0  0  0  0
 13165  1  0  0  0  0
 14 48  1  0  0  0  0
 14 43  1  0  0  0  0
 14166  1  0  0  0  0
 14167  1  0  0  0  0
 15 80  1  0  0  0  0
 15 44  1  0  0  0  0
 15168  1  0  0  0  0
 15169  1  0  0  0  0
 16 49  1  0  0  0  0
 16 17  1  0  0  0  0
 16170  1  0  0  0  0
 16171  1  0  0  0  0
 17 45  1  0  0  0  0
 17172  1  0  0  0  0
 17173  1  0  0  0  0
 18 51  1  0  0  0  0
 18 20  1  0  0  0  0
 18174  1  0  0  0  0
 18175  1  0  0  0  0
 19 52  1  0  0  0  0
 19 21  1  0  0  0  0
 19176  1  0  0  0  0
 19177  1  0  0  0  0
 22 39  1  0  0  0  0
 23 40  2  0  0  0  0
 24 41  2  0  0  0  0
 25 42  2  0  0  0  0
 26 53  2  0  0  0  0
 27 54  2  0  0  0  0
 28 43  2  0  0  0  0
 29 44  2  0  0  0  0
 30 55  2  0  0  0  0
 31 56  2  0  0  0  0
 32 57  2  0  0  0  0
 33 45  2  0  0  0  0
 34 46  1  0  0  0  0
 34 35  1  0  0  0  0
 34178  1  0  0  0  0
 34179  1  0  0  0  0
 35 36  1  0  0  0  0
 35180  1  0  0  0  0
 35181  1  0  0  0  0
 36107  1  0  0  0  0
 36182  1  0  0  0  0
 36183  1  0  0  0  0
 37117  1  0  0  0  0
 37 47  1  0  0  0  0
 37184  1  0  0  0  0
 37185  1  0  0  0  0
 38118  1  0  0  0  0
 38 50  1  0  0  0  0
 38186  1  0  0  0  0
 38187  1  0  0  0  0
 39188  1  0  0  0  0
 40 79  1  0  0  0  0
 40 46  1  0  0  0  0
 41107  1  0  0  0  0
 41 47  1  0  0  0  0
 42 80  1  0  0  0  0
 42 67  1  0  0  0  0
 43114  1  0  0  0  0
 44115  1  0  0  0  0
 45116  1  0  0  0  0
 46107  1  0  0  0  0
 46189  1  0  0  0  0
 47108  1  0  0  0  0
 47190  1  0  0  0  0
 48109  1  0  0  0  0
 48 53  1  0  0  0  0
 48191  1  0  0  0  0
 49110  1  0  0  0  0
 49 54  1  0  0  0  0
 49192  1  0  0  0  0
 50 78  1  0  0  0  0
 50 55  1  0  0  0  0
 50193  1  0  0  0  0
 51112  1  0  0  0  0
 51 56  1  0  0  0  0
 51194  1  0  0  0  0
 52111  1  0  0  0  0
 52 57  1  0  0  0  0
 52195  1  0  0  0  0
 53108  1  0  0  0  0
 54109  1  0  0  0  0
 55111  1  0  0  0  0
 56110  1  0  0  0  0
 57112  1  0  0  0  0
 58 81  2  0  0  0  0
 58 62  1  0  0  0  0
 58196  1  0  0  0  0
 59 81  1  0  0  0  0
 59 63  2  0  0  0  0
 59197  1  0  0  0  0
 60 82  2  0  0  0  0
 60 64  1  0  0  0  0
 60198  1  0  0  0  0
 61 82  1  0  0  0  0
 61 65  2  0  0  0  0
 61199  1  0  0  0  0
 62 66  2  0  0  0  0
 62200  1  0  0  0  0
 63 66  1  0  0  0  0
 63201  1  0  0  0  0
 64 83  2  0  0  0  0
 64202  1  0  0  0  0
 65 83  1  0  0  0  0
 65203  1  0  0  0  0
 66204  1  0  0  0  0
 67 79  1  0  0  0  0
 67205  1  0  0  0  0
 68119  1  0  0  0  0
 68 69  1  0  0  0  0
 68206  1  0  0  0  0
 68207  1  0  0  0  0
 69 70  1  0  0  0  0
 69208  1  0  0  0  0
 69209  1  0  0  0  0
 70135  1  0  0  0  0
 70210  1  0  0  0  0
 70211  1  0  0  0  0
 71127  1  0  0  0  0
 71103  1  0  0  0  0
 71212  1  0  0  0  0
 71213  1  0  0  0  0
 72137  1  0  0  0  0
 72104  1  0  0  0  0
 72214  1  0  0  0  0
 72215  1  0  0  0  0
 73128  1  0  0  0  0
 73 74  1  0  0  0  0
 73216  1  0  0  0  0
 73217  1  0  0  0  0
 74106  1  0  0  0  0
 74218  1  0  0  0  0
 74219  1  0  0  0  0
 75130  1  0  0  0  0
 75 81  1  0  0  0  0
 75220  1  0  0  0  0
 75221  1  0  0  0  0
 76131  1  0  0  0  0
 76 82  1  0  0  0  0
 76222  1  0  0  0  0
 76223  1  0  0  0  0
 77224  1  0  0  0  0
 77225  1  0  0  0  0
 78226  1  0  0  0  0
 78227  1  0  0  0  0
 79228  1  0  0  0  0
 80229  1  0  0  0  0
 83113  1  0  0  0  0
 84125  1  0  0  0  0
 84 85  1  0  0  0  0
 84230  1  0  0  0  0
 84231  1  0  0  0  0
 85 86  1  0  0  0  0
 85232  1  0  0  0  0
 85233  1  0  0  0  0
 86138  1  0  0  0  0
 86234  1  0  0  0  0
 86235  1  0  0  0  0
 87139  1  0  0  0  0
 87126  1  0  0  0  0
 87236  1  0  0  0  0
 87237  1  0  0  0  0
 88140  1  0  0  0  0
 88129  1  0  0  0  0
 88238  1  0  0  0  0
 88239  1  0  0  0  0
 89100  2  0  0  0  0
 90101  2  0  0  0  0
 91102  2  0  0  0  0
 92120  2  0  0  0  0
 93121  2  0  0  0  0
 94103  2  0  0  0  0
 95104  2  0  0  0  0
 96122  2  0  0  0  0
 97123  2  0  0  0  0
 98124  2  0  0  0  0
 99106  2  0  0  0  0
100136  1  0  0  0  0
100125  1  0  0  0  0
101138  1  0  0  0  0
101126  1  0  0  0  0
102137  1  0  0  0  0
102119  1  0  0  0  0
103146  1  0  0  0  0
104147  1  0  0  0  0
105135  2  0  0  0  0
105133  1  0  0  0  0
105134  1  0  0  0  0
106148  1  0  0  0  0
108240  1  0  0  0  0
109241  1  0  0  0  0
110242  1  0  0  0  0
111243  1  0  0  0  0
112244  1  0  0  0  0
113245  1  0  0  0  0
114246  1  0  0  0  0
114247  1  0  0  0  0
115248  1  0  0  0  0
115249  1  0  0  0  0
116250  1  0  0  0  0
116251  1  0  0  0  0
117118  1  0  0  0  0
119136  1  0  0  0  0
119252  1  0  0  0  0
120141  1  0  0  0  0
120127  1  0  0  0  0
121142  1  0  0  0  0
121128  1  0  0  0  0
122143  1  0  0  0  0
122130  1  0  0  0  0
123144  1  0  0  0  0
123129  1  0  0  0  0
124145  1  0  0  0  0
124131  1  0  0  0  0
125138  1  0  0  0  0
125253  1  0  0  0  0
126141  1  0  0  0  0
126254  1  0  0  0  0
127142  1  0  0  0  0
127255  1  0  0  0  0
128143  1  0  0  0  0
128256  1  0  0  0  0
129132  1  0  0  0  0
129257  1  0  0  0  0
130145  1  0  0  0  0
130258  1  0  0  0  0
131144  1  0  0  0  0
131259  1  0  0  0  0
132260  1  0  0  0  0
132261  1  0  0  0  0
133262  1  0  0  0  0
133263  1  0  0  0  0
134264  1  0  0  0  0
134265  1  0  0  0  0
136266  1  0  0  0  0
137267  1  0  0  0  0
139140  1  0  0  0  0
141268  1  0  0  0  0
142269  1  0  0  0  0
143270  1  0  0  0  0
144271  1  0  0  0  0
145272  1  0  0  0  0
146273  1  0  0  0  0
146274  1  0  0  0  0
147275  1  0  0  0  0
147276  1  0  0  0  0
148277  1  0  0  0  0
148278  1  0  0  0  0
M  END
>  <DRUGBANK_ID>
DB00067

>  <SECONDARY_ACCESSION_NUMBERS>
BTD00110; BIOD00110; DB09392

>  <COMMON_NAME>
Vasopressin

>  <CAS_NUMBER>
11000-17-2

>  <UNII>
Y87Y826H08

>  <SYNONYMS>
Vasopressin, unspecified; Vasopressina

$$$$
