
 OpenBabel10282417072D

 28 27  0  0  0  0  0  0  0  0999 V2000
    0.3566   -0.2035    0.0000 C   0  0  0  0  0  0  0  0  0  0  0  0
   -0.3579    0.2089    0.0000 C   0  0  0  0  0  0  0  0  0  0  0  0
   -1.0723   -0.2035    0.0000 C   0  0  0  0  0  0  0  0  0  0  0  0
    1.0711    0.2089    0.0000 C   0  0  0  0  0  0  0  0  0  0  0  0
   -1.7869    0.2088    0.0000 O   0  0  0  0  0  0  0  0  0  0  0  0
    1.7857   -0.2035    0.0000 O   0  0  0  0  0  0  0  0  0  0  0  0
    2.5049    0.2089    0.0000 S   0  0  0  0  0  0  0  0  0  0  0  0
   -2.5050   -0.2086    0.0000 S   0  0  0  0  0  0  0  0  0  0  0  0
   -3.2207    0.1989    0.0000 C   0  0  0  0  0  0  0  0  0  0  0  0
    3.2207   -0.2086    0.0000 C   0  0  0  0  0  0  0  0  0  0  0  0
    2.0950    0.9249    0.0000 O   0  0  0  0  0  0  0  0  0  0  0  0
    2.9201    0.9218    0.0000 O   0  0  0  0  0  0  0  0  0  0  0  0
   -2.0892   -0.9212    0.0000 O   0  0  0  0  0  0  0  0  0  0  0  0
   -2.9143   -0.9249    0.0000 O   0  0  0  0  0  0  0  0  0  0  0  0
    0.3566   -1.2735    0.0000 H   0  0  0  0  0  0  0  0  0  0  0  0
   -0.5700   -0.7386    0.0000 H   0  0  0  0  0  0  0  0  0  0  0  0
   -0.3579    1.2789    0.0000 H   0  0  0  0  0  0  0  0  0  0  0  0
    0.5687    0.7440    0.0000 H   0  0  0  0  0  0  0  0  0  0  0  0
   -1.0722   -1.2735    0.0000 H   0  0  0  0  0  0  0  0  0  0  0  0
   -1.9988   -0.7387    0.0000 H   0  0  0  0  0  0  0  0  0  0  0  0
    1.0711    1.2789    0.0000 H   0  0  0  0  0  0  0  0  0  0  0  0
    1.9977    0.7440    0.0000 H   0  0  0  0  0  0  0  0  0  0  0  0
   -3.2271    1.2689    0.0000 H   0  0  0  0  0  0  0  0  0  0  0  0
   -4.1441   -0.3417    0.0000 H   0  0  0  0  0  0  0  0  0  0  0  0
   -4.1505    0.7283    0.0000 H   0  0  0  0  0  0  0  0  0  0  0  0
    3.2160   -1.2786    0.0000 H   0  0  0  0  0  0  0  0  0  0  0  0
    4.1497    0.3223    0.0000 H   0  0  0  0  0  0  0  0  0  0  0  0
    4.1450   -0.7477    0.0000 H   0  0  0  0  0  0  0  0  0  0  0  0
  1 15  1  0  0  0  0
  1 16  1  0  0  0  0
  2  1  1  0  0  0  0
  2 17  1  0  0  0  0
  2 18  1  0  0  0  0
  3  2  1  0  0  0  0
  3  5  1  0  0  0  0
  3 19  1  0  0  0  0
  3 20  1  0  0  0  0
  4  1  1  0  0  0  0
  4  6  1  0  0  0  0
  4 21  1  0  0  0  0
  4 22  1  0  0  0  0
  5  8  1  0  0  0  0
  6  7  1  0  0  0  0
  7 10  1  0  0  0  0
  8  9  1  0  0  0  0
  9 23  1  0  0  0  0
  9 24  1  0  0  0  0
  9 25  1  0  0  0  0
 10 26  1  0  0  0  0
 10 27  1  0  0  0  0
 10 28  1  0  0  0  0
 11  7  2  0  0  0  0
 12  7  2  0  0  0  0
 13  8  2  0  0  0  0
 14  8  2  0  0  0  0
M  END
>  <DRUGBANK_ID>
DB01008

>  <SECONDARY_ACCESSION_NUMBERS>
APRD00664

>  <COMMON_NAME>
Busulfan

>  <CAS_NUMBER>
55-98-1

>  <UNII>
G1LN9045DK

>  <SYNONYMS>
1,4-Bis(methanesulfonoxy)butane; 1,4-Butanediol dimethanesulfonate; 1,4-Dimesyloxybutane; 1,4-Dimethanesulfonoxybutane; Busulfan; Busulfano; Busulfanum; Busulphan; Tetramethylene bis(methanesulfonate)

$$$$
