
 OpenBabel10282417072D

 73 79  0  0  0  0  0  0  0  0999 V2000
   -3.3064   -3.5793    0.0000 C   0  0  0  0  0  0  0  0  0  0  0  0
   -3.2378   -2.7572    0.0000 O   0  0  0  0  0  0  0  0  0  0  0  0
   -3.9155   -2.2867    0.0000 C   0  0  0  0  0  0  0  0  0  0  0  0
   -4.6618   -2.6383    0.0000 C   0  0  0  0  0  0  0  0  0  0  0  0
   -5.3395   -2.1678    0.0000 C   0  0  0  0  0  0  0  0  0  0  0  0
   -5.2709   -1.3457    0.0000 C   0  0  0  0  0  0  0  0  0  0  0  0
   -4.5246   -0.9940    0.0000 C   0  0  0  0  0  0  0  0  0  0  0  0
   -3.8469   -1.4645    0.0000 C   0  0  0  0  0  0  0  0  0  0  0  0
   -3.1006   -1.1129    0.0000 C   0  0  0  0  0  0  0  0  0  0  0  0
   -2.3775   -1.5099    0.0000 C   0  0  0  0  0  0  0  0  0  0  0  0
   -1.7764   -0.9449    0.0000 C   0  0  0  0  0  0  0  0  0  0  0  0
   -2.1280   -0.1986    0.0000 N   0  0  0  0  0  0  0  0  0  0  0  0
   -2.9464   -0.3024    0.0000 N   0  0  0  0  0  0  0  0  0  0  0  0
   -3.5115    0.2987    0.0000 C   0  0  0  0  0  0  0  0  0  0  0  0
   -4.3146    0.1099    0.0000 C   0  0  0  0  0  0  0  0  0  0  0  0
   -4.8797    0.7110    0.0000 C   0  0  0  0  0  0  0  0  0  0  0  0
   -4.6416    1.5009    0.0000 N   0  0  0  0  0  0  0  0  0  0  0  0
   -3.8385    1.6897    0.0000 C   0  0  0  0  0  0  0  0  0  0  0  0
   -3.2735    1.0886    0.0000 C   0  0  0  0  0  0  0  0  0  0  0  0
   -2.4704    1.2774    0.0000 C   0  0  0  0  0  0  0  0  0  0  0  0
   -2.2323    2.0673    0.0000 C   0  0  0  0  0  0  0  0  0  0  0  0
   -2.7974    2.6684    0.0000 C   0  0  0  0  0  0  0  0  0  0  0  0
   -3.6005    2.4796    0.0000 C   0  0  0  0  0  0  0  0  0  0  0  0
   -2.5593    3.4583    0.0000 Cl  0  0  0  0  0  0  0  0  0  0  0  0
   -0.9659   -1.0991    0.0000 C   0  0  0  0  0  0  0  0  0  0  0  0
   -0.4271   -0.4743    0.0000 O   0  0  0  0  0  0  0  0  0  0  0  0
   -0.6942   -1.8780    0.0000 N   0  0  0  0  0  0  0  0  0  0  0  0
    0.1163   -2.0322    0.0000 C   0  0  3  0  0  0  0  0  0  0  0  0
    0.8517   -1.6585    0.0000 C   0  0  3  0  0  0  0  0  0  0  0  0
    0.8517   -0.9111    0.0000 C   0  0  0  0  0  0  0  0  0  0  0  0
    1.3012   -0.1208    0.0000 C   0  0  3  0  0  0  0  0  0  0  0  0
    2.0368   -0.4945    0.0000 C   0  0  0  0  0  0  0  0  0  0  0  0
    2.0368   -1.2419    0.0000 C   0  0  3  0  0  0  0  0  0  0  0  0
    1.5873   -2.0322    0.0000 C   0  0  0  0  0  0  0  0  0  0  0  0
    1.3012   -1.6156    0.0000 C   0  0  0  0  0  0  0  0  0  0  0  0
    0.5657   -1.2419    0.0000 C   0  0  3  0  0  0  0  0  0  0  0  0
    0.5657   -0.4945    0.0000 C   0  0  0  0  0  0  0  0  0  0  0  0
    0.2323   -2.8490    0.0000 C   0  0  0  0  0  0  0  0  0  0  0  0
    0.9977   -3.1569    0.0000 O   0  0  0  0  0  0  0  0  0  0  0  0
   -0.4171   -3.3579    0.0000 O   0  0  0  0  0  0  0  0  0  0  0  0
   -4.4560   -0.1719    0.0000 O   0  0  0  0  0  0  0  0  0  0  0  0
   -5.1337    0.2986    0.0000 C   0  0  0  0  0  0  0  0  0  0  0  0
   -4.2743   -4.0354    0.0000 H   0  0  0  0  0  0  0  0  0  0  0  0
   -2.4275   -4.1895    0.0000 H   0  0  0  0  0  0  0  0  0  0  0  0
   -3.3954   -4.6456    0.0000 H   0  0  0  0  0  0  0  0  0  0  0  0
   -4.7477   -3.6667    0.0000 H   0  0  0  0  0  0  0  0  0  0  0  0
   -6.2731   -2.6077    0.0000 H   0  0  0  0  0  0  0  0  0  0  0  0
   -6.1186   -0.7572    0.0000 H   0  0  0  0  0  0  0  0  0  0  0  0
   -2.2476   -2.5337    0.0000 H   0  0  0  0  0  0  0  0  0  0  0  0
   -4.6124   -0.8782    0.0000 H   0  0  0  0  0  0  0  0  0  0  0  0
   -5.8843    0.4748    0.0000 H   0  0  0  0  0  0  0  0  0  0  0  0
   -1.7636    0.5254    0.0000 H   0  0  0  0  0  0  0  0  0  0  0  0
   -1.2277    2.3035    0.0000 H   0  0  0  0  0  0  0  0  0  0  0  0
   -4.3074    3.2315    0.0000 H   0  0  0  0  0  0  0  0  0  0  0  0
   -1.3371   -2.6236    0.0000 H   0  0  0  0  0  0  0  0  0  0  0  0
    0.8518   -2.7285    0.0000 H   0  0  0  0  0  0  0  0  0  0  0  0
   -0.1827   -0.6375    0.0000 H   0  0  0  0  0  0  0  0  0  0  0  0
    0.0039   -1.5638    0.0000 H   0  0  0  0  0  0  0  0  0  0  0  0
    0.5270   -0.8594    0.0000 H   0  0  0  0  0  0  0  0  0  0  0  0
    2.9488    0.0651    0.0000 H   0  0  0  0  0  0  0  0  0  0  0  0
    2.9705   -1.0170    0.0000 H   0  0  0  0  0  0  0  0  0  0  0  0
    1.2626   -1.9805    0.0000 H   0  0  0  0  0  0  0  0  0  0  0  0
    1.8951   -3.0570    0.0000 H   0  0  0  0  0  0  0  0  0  0  0  0
    0.7664   -2.7185    0.0000 H   0  0  0  0  0  0  0  0  0  0  0  0
    1.3012   -2.6856    0.0000 H   0  0  0  0  0  0  0  0  0  0  0  0
    0.3892   -2.1752    0.0000 H   0  0  0  0  0  0  0  0  0  0  0  0
    0.8735   -2.2667    0.0000 H   0  0  0  0  0  0  0  0  0  0  0  0
   -0.3463    0.0651    0.0000 H   0  0  0  0  0  0  0  0  0  0  0  0
   -0.3680   -1.0171    0.0000 H   0  0  0  0  0  0  0  0  0  0  0  0
   -1.2864   -3.0082    0.0000 H   0  0  0  0  0  0  0  0  0  0  0  0
   -5.0447    1.3649    0.0000 H   0  0  0  0  0  0  0  0  0  0  0  0
   -6.1016   -0.1575    0.0000 H   0  0  0  0  0  0  0  0  0  0  0  0
   -6.0126    0.9088    0.0000 H   0  0  0  0  0  0  0  0  0  0  0  0
  1  2  1  0  0  0  0
  1 43  1  0  0  0  0
  1 44  1  0  0  0  0
  1 45  1  0  0  0  0
  2  3  1  0  0  0  0
  3  4  2  0  0  0  0
  3  8  1  0  0  0  0
  4  5  1  0  0  0  0
  4 46  1  0  0  0  0
  5  6  2  0  0  0  0
  5 47  1  0  0  0  0
  6  7  1  0  0  0  0
  6 48  1  0  0  0  0
  7  8  2  0  0  0  0
  7 41  1  0  0  0  0
  8  9  1  0  0  0  0
  9 10  2  0  0  0  0
  9 13  1  0  0  0  0
 10 11  1  0  0  0  0
 10 49  1  0  0  0  0
 11 12  2  0  0  0  0
 11 25  1  0  0  0  0
 12 13  1  0  0  0  0
 13 14  1  0  0  0  0
 14 15  1  0  0  0  0
 14 19  2  0  0  0  0
 15 16  2  0  0  0  0
 15 50  1  0  0  0  0
 16 17  1  0  0  0  0
 16 51  1  0  0  0  0
 17 18  2  0  0  0  0
 18 19  1  0  0  0  0
 18 23  1  0  0  0  0
 19 20  1  0  0  0  0
 20 21  2  0  0  0  0
 20 52  1  0  0  0  0
 21 22  1  0  0  0  0
 21 53  1  0  0  0  0
 22 23  2  0  0  0  0
 22 24  1  0  0  0  0
 23 54  1  0  0  0  0
 25 26  2  0  0  0  0
 25 27  1  0  0  0  0
 27 28  1  0  0  0  0
 27 55  1  0  0  0  0
 28 29  1  0  0  0  0
 28 36  1  0  0  0  0
 28 38  1  0  0  0  0
 29 34  1  0  0  0  0
 29 30  1  0  0  0  0
 29 56  1  0  0  0  0
 30 31  1  0  0  0  0
 30 57  1  0  0  0  0
 30 58  1  0  0  0  0
 31 37  1  0  0  0  0
 31 32  1  0  0  0  0
 31 59  1  0  0  0  0
 32 33  1  0  0  0  0
 32 60  1  0  0  0  0
 32 61  1  0  0  0  0
 33 34  1  0  0  0  0
 33 35  1  0  0  0  0
 33 62  1  0  0  0  0
 34 63  1  0  0  0  0
 34 64  1  0  0  0  0
 35 36  1  0  0  0  0
 35 65  1  0  0  0  0
 35 66  1  0  0  0  0
 36 37  1  0  0  0  0
 36 67  1  0  0  0  0
 37 68  1  0  0  0  0
 37 69  1  0  0  0  0
 38 39  2  0  0  0  0
 38 40  1  0  0  0  0
 40 70  1  0  0  0  0
 41 42  1  0  0  0  0
 42 71  1  0  0  0  0
 42 72  1  0  0  0  0
 42 73  1  0  0  0  0
M  END
>  <DRUGBANK_ID>
DB06455

>  <COMMON_NAME>
Meclinertant

>  <CAS_NUMBER>
146362-70-1

>  <UNII>
5JBP4SI96H

>  <SYNONYMS>
Meclinertant; Reminertant

$$$$
