
 OpenBabel10282417072D

 84 90  0  0  1  0  0  0  0  0999 V2000
    5.0013   -3.7125    0.0000 C   0  0  0  0  0  0  0  0  0  0  0  0
    4.2868   -4.1250    0.0000 N   0  0  0  0  0  0  0  0  0  0  0  0
    4.2868   -4.9500    0.0000 C   0  0  0  0  0  0  0  0  0  0  0  0
    5.0013   -5.3625    0.0000 C   0  0  0  0  0  0  0  0  0  0  0  0
    5.0013   -6.1875    0.0000 C   0  0  0  0  0  0  0  0  0  0  0  0
    4.2868   -6.6000    0.0000 N   0  0  0  0  0  0  0  0  0  0  0  0
    3.5724   -6.1875    0.0000 C   0  0  0  0  0  0  0  0  0  0  0  0
    3.5724   -5.3625    0.0000 C   0  0  0  0  0  0  0  0  0  0  0  0
    4.2868   -7.4250    0.0000 C   0  0  0  0  0  0  0  0  0  0  0  0
    5.0013   -7.8375    0.0000 O   0  0  0  0  0  0  0  0  0  0  0  0
    3.5724   -7.8375    0.0000 C   0  0  0  0  0  0  0  0  0  0  0  0
    3.5724   -8.6625    0.0000 C   0  0  0  0  0  0  0  0  0  0  0  0
    2.8579   -9.0750    0.0000 C   0  0  0  0  0  0  0  0  0  0  0  0
    2.8579   -9.9000    0.0000 C   0  0  0  0  0  0  0  0  0  0  0  0
    2.1434  -10.3125    0.0000 C   0  0  0  0  0  0  0  0  0  0  0  0
    1.4289   -9.9000    0.0000 C   0  0  0  0  0  0  0  0  0  0  0  0
    1.4289   -9.0750    0.0000 C   0  0  0  0  0  0  0  0  0  0  0  0
    2.1434   -8.6625    0.0000 C   0  0  0  0  0  0  0  0  0  0  0  0
    2.1434   -7.8375    0.0000 C   0  0  0  0  0  0  0  0  0  0  0  0
    2.8579   -7.4250    0.0000 C   0  0  0  0  0  0  0  0  0  0  0  0
    3.5724   -3.7125    0.0000 C   0  0  0  0  0  0  0  0  0  0  0  0
    3.5724   -2.8875    0.0000 O   0  0  0  0  0  0  0  0  0  0  0  0
    2.8579   -4.1250    0.0000 C   0  0  0  0  0  0  0  0  0  0  0  0
    2.8579   -4.9500    0.0000 C   0  0  0  0  0  0  0  0  0  0  0  0
    2.1434   -5.3625    0.0000 C   0  0  0  0  0  0  0  0  0  0  0  0
    2.1434   -6.1875    0.0000 C   0  0  0  0  0  0  0  0  0  0  0  0
    1.4289   -6.6000    0.0000 C   0  0  0  0  0  0  0  0  0  0  0  0
    0.7145   -6.1875    0.0000 C   0  0  0  0  0  0  0  0  0  0  0  0
    0.7145   -5.3625    0.0000 C   0  0  0  0  0  0  0  0  0  0  0  0
    1.4289   -4.9500    0.0000 C   0  0  0  0  0  0  0  0  0  0  0  0
    1.4289   -4.1250    0.0000 C   0  0  0  0  0  0  0  0  0  0  0  0
    2.1434   -3.7125    0.0000 C   0  0  0  0  0  0  0  0  0  0  0  0
    2.1434   -2.8875    0.0000 C   0  0  0  0  0  0  0  0  0  0  0  0
    2.8579   -2.4750    0.0000 O   0  0  0  0  0  0  0  0  0  0  0  0
    1.4289   -2.4750    0.0000 C   0  0  1  0  0  0  0  0  0  0  0  0
    1.4289   -1.6500    0.0000 C   0  0  0  0  0  0  0  0  0  0  0  0
    0.7145   -1.2375    0.0000 C   0  0  0  0  0  0  0  0  0  0  0  0
    0.7145   -0.4125    0.0000 C   0  0  0  0  0  0  0  0  0  0  0  0
    1.4289    0.0000    0.0000 C   0  0  0  0  0  0  0  0  0  0  0  0
    2.1434   -0.4125    0.0000 C   0  0  0  0  0  0  0  0  0  0  0  0
    2.8579    0.0000    0.0000 C   0  0  0  0  0  0  0  0  0  0  0  0
    3.5724   -0.4125    0.0000 C   0  0  0  0  0  0  0  0  0  0  0  0
    3.5724   -1.2375    0.0000 C   0  0  0  0  0  0  0  0  0  0  0  0
    2.8579   -1.6500    0.0000 C   0  0  0  0  0  0  0  0  0  0  0  0
    2.1434   -1.2375    0.0000 C   0  0  0  0  0  0  0  0  0  0  0  0
    0.7145   -2.8875    0.0000 P   0  0  0  0  0  0  0  0  0  0  0  0
    0.0000   -3.3000    0.0000 O   0  0  0  0  0  0  0  0  0  0  0  0
    0.3020   -2.1730    0.0000 O   0  0  0  0  0  0  0  0  0  0  0  0
    1.1270   -3.6020    0.0000 O   0  0  0  0  0  0  0  0  0  0  0  0
    5.9279   -4.2475    0.0000 H   0  0  0  0  0  0  0  0  0  0  0  0
    5.0013   -2.6425    0.0000 H   0  0  0  0  0  0  0  0  0  0  0  0
    5.9280   -3.1775    0.0000 H   0  0  0  0  0  0  0  0  0  0  0  0
    4.2868   -6.0200    0.0000 H   0  0  0  0  0  0  0  0  0  0  0  0
    5.9279   -4.8275    0.0000 H   0  0  0  0  0  0  0  0  0  0  0  0
    5.9279   -5.8975    0.0000 H   0  0  0  0  0  0  0  0  0  0  0  0
    5.9279   -6.7225    0.0000 H   0  0  0  0  0  0  0  0  0  0  0  0
    5.0013   -7.2575    0.0000 H   0  0  0  0  0  0  0  0  0  0  0  0
    2.6457   -6.7225    0.0000 H   0  0  0  0  0  0  0  0  0  0  0  0
    2.6458   -5.6525    0.0000 H   0  0  0  0  0  0  0  0  0  0  0  0
    2.6457   -4.8275    0.0000 H   0  0  0  0  0  0  0  0  0  0  0  0
    3.5724   -4.2925    0.0000 H   0  0  0  0  0  0  0  0  0  0  0  0
    4.4661   -9.1785    0.0000 H   0  0  0  0  0  0  0  0  0  0  0  0
    3.7516  -10.4160    0.0000 H   0  0  0  0  0  0  0  0  0  0  0  0
    2.1434  -11.3445    0.0000 H   0  0  0  0  0  0  0  0  0  0  0  0
    0.5352  -10.4160    0.0000 H   0  0  0  0  0  0  0  0  0  0  0  0
    0.5352   -8.5590    0.0000 H   0  0  0  0  0  0  0  0  0  0  0  0
    1.2497   -7.3215    0.0000 H   0  0  0  0  0  0  0  0  0  0  0  0
    2.8579   -6.3930    0.0000 H   0  0  0  0  0  0  0  0  0  0  0  0
    3.7516   -5.4660    0.0000 H   0  0  0  0  0  0  0  0  0  0  0  0
    3.0371   -6.7035    0.0000 H   0  0  0  0  0  0  0  0  0  0  0  0
    1.4289   -7.6320    0.0000 H   0  0  0  0  0  0  0  0  0  0  0  0
   -0.1792   -6.7035    0.0000 H   0  0  0  0  0  0  0  0  0  0  0  0
   -0.1792   -4.8465    0.0000 H   0  0  0  0  0  0  0  0  0  0  0  0
    0.5352   -3.6090    0.0000 H   0  0  0  0  0  0  0  0  0  0  0  0
    1.4289   -3.5450    0.0000 H   0  0  0  0  0  0  0  0  0  0  0  0
   -0.1792   -1.7535    0.0000 H   0  0  0  0  0  0  0  0  0  0  0  0
   -0.1792    0.1035    0.0000 H   0  0  0  0  0  0  0  0  0  0  0  0
    1.4289    1.0320    0.0000 H   0  0  0  0  0  0  0  0  0  0  0  0
    2.8579    1.0320    0.0000 H   0  0  0  0  0  0  0  0  0  0  0  0
    4.4661    0.1035    0.0000 H   0  0  0  0  0  0  0  0  0  0  0  0
    4.4661   -1.7535    0.0000 H   0  0  0  0  0  0  0  0  0  0  0  0
    2.8579   -2.6820    0.0000 H   0  0  0  0  0  0  0  0  0  0  0  0
   -0.8400   -2.8150    0.0000 H   0  0  0  0  0  0  0  0  0  0  0  0
    0.7870   -1.3330    0.0000 H   0  0  0  0  0  0  0  0  0  0  0  0
  1  2  1  0  0  0  0
  1 50  1  0  0  0  0
  1 51  1  0  0  0  0
  1 52  1  0  0  0  0
  2  3  1  0  0  0  0
  2 21  1  0  0  0  0
  3  4  1  0  0  0  0
  3  8  1  0  0  0  0
  3 53  1  0  0  0  0
  4  5  1  0  0  0  0
  4 54  1  0  0  0  0
  4 55  1  0  0  0  0
  5  6  1  0  0  0  0
  5 56  1  0  0  0  0
  5 57  1  0  0  0  0
  6  7  1  0  0  0  0
  6  9  1  0  0  0  0
  7  8  1  0  0  0  0
  7 58  1  0  0  0  0
  7 59  1  0  0  0  0
  8 60  1  0  0  0  0
  8 61  1  0  0  0  0
  9 10  2  0  0  0  0
  9 11  1  0  0  0  0
 11 12  2  0  0  0  0
 11 20  1  0  0  0  0
 12 13  1  0  0  0  0
 12 62  1  0  0  0  0
 13 14  2  0  0  0  0
 13 18  1  0  0  0  0
 14 15  1  0  0  0  0
 14 63  1  0  0  0  0
 15 16  2  0  0  0  0
 15 64  1  0  0  0  0
 16 17  1  0  0  0  0
 16 65  1  0  0  0  0
 17 18  2  0  0  0  0
 17 66  1  0  0  0  0
 18 19  1  0  0  0  0
 19 20  2  0  0  0  0
 19 67  1  0  0  0  0
 20 68  1  0  0  0  0
 21 22  2  0  0  0  0
 21 23  1  0  0  0  0
 23 24  2  0  0  0  0
 23 32  1  0  0  0  0
 24 25  1  0  0  0  0
 24 69  1  0  0  0  0
 25 26  2  0  0  0  0
 25 30  1  0  0  0  0
 26 27  1  0  0  0  0
 26 70  1  0  0  0  0
 27 28  2  0  0  0  0
 27 71  1  0  0  0  0
 28 29  1  0  0  0  0
 28 72  1  0  0  0  0
 29 30  2  0  0  0  0
 29 73  1  0  0  0  0
 30 31  1  0  0  0  0
 31 32  2  0  0  0  0
 31 74  1  0  0  0  0
 32 33  1  0  0  0  0
 33 34  2  0  0  0  0
 33 35  1  0  0  0  0
 35 36  1  0  0  0  0
 35 46  1  0  0  0  0
 35 75  1  1  0  0  0
 36 37  2  0  0  0  0
 36 45  1  0  0  0  0
 37 38  1  0  0  0  0
 37 76  1  0  0  0  0
 38 39  2  0  0  0  0
 38 77  1  0  0  0  0
 39 40  1  0  0  0  0
 39 78  1  0  0  0  0
 40 41  2  0  0  0  0
 40 45  1  0  0  0  0
 41 42  1  0  0  0  0
 41 79  1  0  0  0  0
 42 43  2  0  0  0  0
 42 80  1  0  0  0  0
 43 44  1  0  0  0  0
 43 81  1  0  0  0  0
 44 45  2  0  0  0  0
 44 82  1  0  0  0  0
 46 47  1  0  0  0  0
 46 48  1  0  0  0  0
 46 49  2  0  0  0  0
 47 83  1  0  0  0  0
 48 84  1  0  0  0  0
M  END
>  <DRUGBANK_ID>
DB04016

>  <SECONDARY_ACCESSION_NUMBERS>
EXPT02424

>  <COMMON_NAME>
2-[3-({Methyl[1-(2-Naphthoyl)Piperidin-4-Yl]Amino}Carbonyl)-2-Naphthyl]-1-(1-Naphthyl)-2-Oxoethylphosphonic Acid

$$$$
