
 OpenBabel10282417072D

 58 60  0  0  0  0  0  0  0  0999 V2000
   -1.4966    1.1674    0.0000 O   0  0  0  0  0  0  0  0  0  0  0  0
    0.0428    1.5799    0.0000 O   0  0  0  0  0  0  0  0  0  0  0  0
   -0.2591   -0.9760    0.0000 O   0  0  0  0  0  0  0  0  0  0  0  0
   -3.1466   -0.2615    0.0000 O   0  0  0  0  0  0  0  0  0  0  0  0
   -2.7341    1.8818    0.0000 O   0  0  0  0  0  0  0  0  0  0  0  0
   -1.3860    2.4050    0.0000 O   0  0  0  0  0  0  0  0  0  0  0  0
    0.0428    2.4050    0.0000 O   0  0  0  0  0  0  0  0  0  0  0  0
   -4.3841    1.8818    0.0000 O   0  0  0  0  0  0  0  0  0  0  0  0
   -0.6716   -1.6904    0.0000 O   0  0  0  0  0  0  0  0  0  0  0  0
    2.9237    1.6084    0.0000 O   0  0  0  0  0  0  0  0  0  0  0  0
    4.3841    1.5998    0.0000 O   0  0  0  0  0  0  0  0  0  0  0  0
   -1.9091   -0.9760    0.0000 N   0  0  0  0  0  0  0  0  0  0  0  0
   -1.4966   -0.2615    0.0000 C   0  0  1  0  0  0  0  0  0  0  0  0
   -1.9091    0.4528    0.0000 C   0  0  2  0  0  0  0  0  0  0  0  0
   -0.6716   -0.2615    0.0000 C   0  0  2  0  0  0  0  0  0  0  0  0
   -0.2591    0.4528    0.0000 C   0  0  0  0  0  0  0  0  0  0  0  0
   -0.6716    1.1674    0.0000 C   0  0  2  0  0  0  0  0  0  0  0  0
   -2.7341    0.4528    0.0000 C   0  0  1  0  0  0  0  0  0  0  0  0
   -3.1466    1.1674    0.0000 C   0  0  1  0  0  0  0  0  0  0  0  0
   -0.6716    1.9924    0.0000 C   0  0  0  0  0  0  0  0  0  0  0  0
   -3.9716    1.1674    0.0000 C   0  0  0  0  0  0  0  0  0  0  0  0
   -1.4966   -1.6904    0.0000 C   0  0  0  0  0  0  0  0  0  0  0  0
    0.7574    1.1674    0.0000 C   0  0  0  0  0  0  0  0  0  0  0  0
   -1.9091   -2.4050    0.0000 C   0  0  0  0  0  0  0  0  0  0  0  0
    1.4718    1.5799    0.0000 C   0  0  0  0  0  0  0  0  0  0  0  0
    0.7574    0.3424    0.0000 C   0  0  0  0  0  0  0  0  0  0  0  0
    2.1863    1.1674    0.0000 C   0  0  0  0  0  0  0  0  0  0  0  0
    2.1863    0.3424    0.0000 C   0  0  0  0  0  0  0  0  0  0  0  0
    1.4718   -0.0700    0.0000 C   0  0  0  0  0  0  0  0  0  0  0  0
    2.9237   -0.0986    0.0000 C   0  0  0  0  0  0  0  0  0  0  0  0
    3.6713    0.3251    0.0000 C   0  0  0  0  0  0  0  0  0  0  0  0
    3.6713    1.1846    0.0000 C   0  0  0  0  0  0  0  0  0  0  0  0
    2.9142   -0.9236    0.0000 C   0  0  0  0  0  0  0  0  0  0  0  0
   -2.2391    1.0246    0.0000 H   0  0  0  0  0  0  0  0  0  0  0  0
   -2.4206   -0.9760    0.0000 H   0  0  0  0  0  0  0  0  0  0  0  0
   -0.7441   -1.8160    0.0000 H   0  0  0  0  0  0  0  0  0  0  0  0
   -4.1166   -0.2614    0.0000 H   0  0  0  0  0  0  0  0  0  0  0  0
   -1.7641    1.8818    0.0000 H   0  0  0  0  0  0  0  0  0  0  0  0
   -1.3859    3.3420    0.0000 H   0  0  0  0  0  0  0  0  0  0  0  0
   -3.8991    2.7219    0.0000 H   0  0  0  0  0  0  0  0  0  0  0  0
   -2.5666   -0.2616    0.0000 H   0  0  0  0  0  0  0  0  0  0  0  0
   -1.2066   -1.1881    0.0000 H   0  0  0  0  0  0  0  0  0  0  0  0
    0.8109    0.4527    0.0000 H   0  0  0  0  0  0  0  0  0  0  0  0
    0.2760    1.3794    0.0000 H   0  0  0  0  0  0  0  0  0  0  0  0
   -2.1991   -0.4739    0.0000 H   0  0  0  0  0  0  0  0  0  0  0  0
   -2.0766    1.1673    0.0000 H   0  0  0  0  0  0  0  0  0  0  0  0
   -4.5066    0.2407    0.0000 H   0  0  0  0  0  0  0  0  0  0  0  0
   -3.4366    0.2408    0.0000 H   0  0  0  0  0  0  0  0  0  0  0  0
   -2.9791   -2.4051    0.0000 H   0  0  0  0  0  0  0  0  0  0  0  0
   -1.3740   -3.3316    0.0000 H   0  0  0  0  0  0  0  0  0  0  0  0
   -2.4440   -3.3317    0.0000 H   0  0  0  0  0  0  0  0  0  0  0  0
    1.4718    2.6119    0.0000 H   0  0  0  0  0  0  0  0  0  0  0  0
   -0.1363   -0.1736    0.0000 H   0  0  0  0  0  0  0  0  0  0  0  0
    1.4718   -1.1020    0.0000 H   0  0  0  0  0  0  0  0  0  0  0  0
    4.5630   -0.1945    0.0000 H   0  0  0  0  0  0  0  0  0  0  0  0
    1.9815   -1.4479    0.0000 H   0  0  0  0  0  0  0  0  0  0  0  0
    3.8346   -1.4692    0.0000 H   0  0  0  0  0  0  0  0  0  0  0  0
    2.9019   -1.9935    0.0000 H   0  0  0  0  0  0  0  0  0  0  0  0
  1 14  1  0  0  0  0
  1 17  1  0  0  0  0
  2 23  1  0  0  0  0
  3 36  1  0  0  0  0
  4 37  1  0  0  0  0
  5 38  1  0  0  0  0
  6 20  1  0  0  0  0
  6 39  1  0  0  0  0
  7 20  2  0  0  0  0
  8 21  1  0  0  0  0
  8 40  1  0  0  0  0
  9 22  2  0  0  0  0
 10 27  1  0  0  0  0
 10 32  1  0  0  0  0
 11 32  2  0  0  0  0
 12 22  1  0  0  0  0
 12 35  1  0  0  0  0
 13 12  1  0  0  0  0
 13 14  1  0  0  0  0
 13 15  1  0  0  0  0
 13 41  1  6  0  0  0
 14 18  1  0  0  0  0
 14 34  1  1  0  0  0
 15  3  1  0  0  0  0
 15 16  1  0  0  0  0
 15 42  1  1  0  0  0
 16 17  1  0  0  0  0
 16 43  1  0  0  0  0
 16 44  1  0  0  0  0
 17  2  1  6  0  0  0
 17 20  1  0  0  0  0
 18  4  1  0  0  0  0
 18 19  1  0  0  0  0
 18 45  1  1  0  0  0
 19  5  1  0  0  0  0
 19 21  1  0  0  0  0
 19 46  1  6  0  0  0
 21 47  1  0  0  0  0
 21 48  1  0  0  0  0
 22 24  1  0  0  0  0
 23 25  2  0  0  0  0
 23 26  1  0  0  0  0
 24 49  1  0  0  0  0
 24 50  1  0  0  0  0
 24 51  1  0  0  0  0
 25 27  1  0  0  0  0
 25 52  1  0  0  0  0
 26 29  2  0  0  0  0
 26 53  1  0  0  0  0
 27 28  2  0  0  0  0
 28 29  1  0  0  0  0
 28 30  1  0  0  0  0
 29 54  1  0  0  0  0
 30 31  2  0  0  0  0
 30 33  1  0  0  0  0
 31 32  1  0  0  0  0
 31 55  1  0  0  0  0
 33 56  1  0  0  0  0
 33 57  1  0  0  0  0
 33 58  1  0  0  0  0
M  END
>  <DRUGBANK_ID>
DB01768

>  <SECONDARY_ACCESSION_NUMBERS>
EXPT02257

>  <COMMON_NAME>
Methylumbelliferyl sialic acid

>  <CAS_NUMBER>
59322-44-0

$$$$
