
 OpenBabel10282417072D

 33 34  0  0  0  0  0  0  0  0999 V2000
    1.0717   -1.8562    0.0000 C   0  0  0  0  0  0  0  0  0  0  0  0
    1.0717   -1.0312    0.0000 C   0  0  0  0  0  0  0  0  0  0  0  0
    1.7862   -0.6187    0.0000 C   0  0  0  0  0  0  0  0  0  0  0  0
    2.5006   -1.0312    0.0000 C   0  0  0  0  0  0  0  0  0  0  0  0
    2.5006   -1.8562    0.0000 C   0  0  0  0  0  0  0  0  0  0  0  0
    1.7862   -2.2687    0.0000 C   0  0  0  0  0  0  0  0  0  0  0  0
    3.2151   -0.6187    0.0000 C   0  0  0  0  0  0  0  0  0  0  0  0
    3.2151    0.2063    0.0000 O   0  0  0  0  0  0  0  0  0  0  0  0
    3.9296   -1.0312    0.0000 C   0  0  0  0  0  0  0  0  0  0  0  0
    4.6441   -0.6187    0.0000 C   0  0  0  0  0  0  0  0  0  0  0  0
    5.3585   -1.0312    0.0000 C   0  0  0  0  0  0  0  0  0  0  0  0
    5.3585   -1.8562    0.0000 C   0  0  0  0  0  0  0  0  0  0  0  0
    4.6441   -2.2687    0.0000 C   0  0  0  0  0  0  0  0  0  0  0  0
    3.9296   -1.8562    0.0000 C   0  0  0  0  0  0  0  0  0  0  0  0
    6.0730   -0.6187    0.0000 C   0  0  0  0  0  0  0  0  0  0  0  0
    6.7875   -1.0312    0.0000 C   0  0  0  0  0  0  0  0  0  0  0  0
    7.5019   -0.6187    0.0000 O   0  0  0  0  0  0  0  0  0  0  0  0
    6.7875   -1.8562    0.0000 N   0  0  0  0  0  0  0  0  0  0  0  0
    4.6441    0.2063    0.0000 N   0  0  0  0  0  0  0  0  0  0  0  0
    0.1780   -2.3722    0.0000 H   0  0  0  0  0  0  0  0  0  0  0  0
    0.1780   -0.5152    0.0000 H   0  0  0  0  0  0  0  0  0  0  0  0
    1.7862    0.4133    0.0000 H   0  0  0  0  0  0  0  0  0  0  0  0
    3.3943   -2.3722    0.0000 H   0  0  0  0  0  0  0  0  0  0  0  0
    1.7862   -3.3007    0.0000 H   0  0  0  0  0  0  0  0  0  0  0  0
    6.2522   -2.3722    0.0000 H   0  0  0  0  0  0  0  0  0  0  0  0
    4.6441   -3.3007    0.0000 H   0  0  0  0  0  0  0  0  0  0  0  0
    3.0359   -2.3722    0.0000 H   0  0  0  0  0  0  0  0  0  0  0  0
    6.0730    0.4513    0.0000 H   0  0  0  0  0  0  0  0  0  0  0  0
    6.9996   -0.0837    0.0000 H   0  0  0  0  0  0  0  0  0  0  0  0
    5.9349   -2.3485    0.0000 H   0  0  0  0  0  0  0  0  0  0  0  0
    7.6401   -2.3485    0.0000 H   0  0  0  0  0  0  0  0  0  0  0  0
    5.4967    0.6986    0.0000 H   0  0  0  0  0  0  0  0  0  0  0  0
    3.7915    0.6985    0.0000 H   0  0  0  0  0  0  0  0  0  0  0  0
  1  2  2  0  0  0  0
  1  6  1  0  0  0  0
  1 20  1  0  0  0  0
  2  3  1  0  0  0  0
  2 21  1  0  0  0  0
  3  4  2  0  0  0  0
  3 22  1  0  0  0  0
  4  5  1  0  0  0  0
  4  7  1  0  0  0  0
  5  6  2  0  0  0  0
  5 23  1  0  0  0  0
  6 24  1  0  0  0  0
  7  8  2  0  0  0  0
  7  9  1  0  0  0  0
  9 10  2  0  0  0  0
  9 14  1  0  0  0  0
 10 11  1  0  0  0  0
 10 19  1  0  0  0  0
 11 12  2  0  0  0  0
 11 15  1  0  0  0  0
 12 13  1  0  0  0  0
 12 25  1  0  0  0  0
 13 14  2  0  0  0  0
 13 26  1  0  0  0  0
 14 27  1  0  0  0  0
 15 16  1  0  0  0  0
 15 28  1  0  0  0  0
 15 29  1  0  0  0  0
 16 17  2  0  0  0  0
 16 18  1  0  0  0  0
 18 30  1  0  0  0  0
 18 31  1  0  0  0  0
 19 32  1  0  0  0  0
 19 33  1  0  0  0  0
M  END
>  <DRUGBANK_ID>
DB06802

>  <COMMON_NAME>
Nepafenac

>  <CAS_NUMBER>
78281-72-8

>  <UNII>
0J9L7J6V8C

>  <SYNONYMS>
2-amino-3-benzoylbenzeneacetamide; Nepafenac; Népafénac; Nepafenaco; Nepafenacum

$$$$
