8IP
 OpenBabel10282417072D

 37 39  0  0  0  0  0  0  0  0999 V2000
    4.4306    0.6515    0.0000 N   0  0  0  0  0  0  0  0  0  0  0  0
    4.4306   -0.1735    0.0000 C   0  0  0  0  0  0  0  0  0  0  0  0
    5.1450   -0.5860    0.0000 N   0  0  0  0  0  0  0  0  0  0  0  0
    5.1450   -1.4110    0.0000 C   0  0  0  0  0  0  0  0  0  0  0  0
    4.4306   -1.8235    0.0000 C   0  0  0  0  0  0  0  0  0  0  0  0
    3.7161   -1.4110    0.0000 C   0  0  0  0  0  0  0  0  0  0  0  0
    3.7161   -0.5860    0.0000 C   0  0  0  0  0  0  0  0  0  0  0  0
    3.0016   -0.1735    0.0000 N   0  0  0  0  0  0  0  0  0  0  0  0
    2.2872   -0.5860    0.0000 C   0  0  0  0  0  0  0  0  0  0  0  0
    1.5727   -0.1735    0.0000 C   0  0  0  0  0  0  0  0  0  0  0  0
    1.5727    0.6515    0.0000 C   0  0  0  0  0  0  0  0  0  0  0  0
    0.8582    1.0640    0.0000 C   0  0  0  0  0  0  0  0  0  0  0  0
    0.1437    0.6515    0.0000 C   0  0  0  0  0  0  0  0  0  0  0  0
    0.1437   -0.1735    0.0000 C   0  0  0  0  0  0  0  0  0  0  0  0
    0.8582   -0.5860    0.0000 C   0  0  0  0  0  0  0  0  0  0  0  0
   -0.5707   -0.5860    0.0000 C   0  0  0  0  0  0  0  0  0  0  0  0
   -1.2852   -0.1735    0.0000 C   0  0  0  0  0  0  0  0  0  0  0  0
   -1.9997   -0.5860    0.0000 C   0  0  0  0  0  0  0  0  0  0  0  0
   -1.9997   -1.4110    0.0000 C   0  0  0  0  0  0  0  0  0  0  0  0
   -1.2852   -1.8235    0.0000 N   0  0  0  0  0  0  0  0  0  0  0  0
   -0.5707   -1.4110    0.0000 C   0  0  0  0  0  0  0  0  0  0  0  0
    5.2832    1.1438    0.0000 H   0  0  0  0  0  0  0  0  0  0  0  0
    3.5780    1.1438    0.0000 H   0  0  0  0  0  0  0  0  0  0  0  0
    6.0387   -1.9270    0.0000 H   0  0  0  0  0  0  0  0  0  0  0  0
    4.4306   -2.8555    0.0000 H   0  0  0  0  0  0  0  0  0  0  0  0
    2.8224   -1.9270    0.0000 H   0  0  0  0  0  0  0  0  0  0  0  0
    3.0016    0.8110    0.0000 H   0  0  0  0  0  0  0  0  0  0  0  0
    2.2872   -1.6560    0.0000 H   0  0  0  0  0  0  0  0  0  0  0  0
    1.3606   -1.1210    0.0000 H   0  0  0  0  0  0  0  0  0  0  0  0
    2.4664    1.1675    0.0000 H   0  0  0  0  0  0  0  0  0  0  0  0
    0.8582    2.0960    0.0000 H   0  0  0  0  0  0  0  0  0  0  0  0
   -0.7500    1.1675    0.0000 H   0  0  0  0  0  0  0  0  0  0  0  0
    0.8582   -1.6180    0.0000 H   0  0  0  0  0  0  0  0  0  0  0  0
   -1.2852    0.8585    0.0000 H   0  0  0  0  0  0  0  0  0  0  0  0
   -2.8934   -0.0700    0.0000 H   0  0  0  0  0  0  0  0  0  0  0  0
   -2.8934   -1.9270    0.0000 H   0  0  0  0  0  0  0  0  0  0  0  0
    0.3230   -1.9270    0.0000 H   0  0  0  0  0  0  0  0  0  0  0  0
  1  2  1  0  0  0  0
  1 22  1  0  0  0  0
  1 23  1  0  0  0  0
  2  3  2  0  0  0  0
  2  7  1  0  0  0  0
  3  4  1  0  0  0  0
  4  5  2  0  0  0  0
  4 24  1  0  0  0  0
  5  6  1  0  0  0  0
  5 25  1  0  0  0  0
  6  7  2  0  0  0  0
  6 26  1  0  0  0  0
  7  8  1  0  0  0  0
  8  9  1  0  0  0  0
  8 27  1  0  0  0  0
  9 10  1  0  0  0  0
  9 28  1  0  0  0  0
  9 29  1  0  0  0  0
 10 15  1  0  0  0  0
 10 11  2  0  0  0  0
 11 12  1  0  0  0  0
 11 30  1  0  0  0  0
 12 13  2  0  0  0  0
 12 31  1  0  0  0  0
 13 14  1  0  0  0  0
 13 32  1  0  0  0  0
 14 16  1  0  0  0  0
 14 15  2  0  0  0  0
 15 33  1  0  0  0  0
 16 21  2  0  0  0  0
 16 17  1  0  0  0  0
 17 18  2  0  0  0  0
 17 34  1  0  0  0  0
 18 19  1  0  0  0  0
 18 35  1  0  0  0  0
 19 20  2  0  0  0  0
 19 36  1  0  0  0  0
 20 21  1  0  0  0  0
 21 37  1  0  0  0  0
M  END
>  <DRUGBANK_ID>
DB07284

>  <COMMON_NAME>
N~3~-(3-PYRIDIN-3-YLBENZYL)PYRIDINE-2,3-DIAMINE

$$$$
