
 OpenBabel10282417072D

112118  0  0  1  0  0  0  0  0999 V2000
    0.8858   -0.6564    0.0000 C   0  0  0  0  0  0  0  0  0  0  0  0
    1.4378   -1.2695    0.0000 C   0  0  0  0  0  0  0  0  0  0  0  0
    2.2448   -1.0980    0.0000 C   0  0  2  0  0  0  0  0  0  0  0  0
    2.8579   -1.6500    0.0000 C   0  0  2  0  0  0  0  0  0  0  0  0
    3.5724   -1.2375    0.0000 C   0  0  0  0  0  0  0  0  0  0  0  0
    3.5724   -0.4125    0.0000 N   0  0  0  0  0  0  0  0  0  0  0  0
    2.5803   -0.3443    0.0000 C   0  0  2  0  0  0  0  0  0  0  0  0
    2.1550    0.3626    0.0000 C   0  0  0  0  0  0  0  0  0  0  0  0
    1.3302    0.3477    0.0000 O   0  0  0  0  0  0  0  0  0  0  0  0
    2.5546    1.0844    0.0000 N   0  0  0  0  0  0  0  0  0  0  0  0
    2.1293    1.7913    0.0000 C   0  0  2  0  0  0  0  0  0  0  0  0
    1.9714    2.6011    0.0000 C   0  0  0  0  0  0  0  0  0  0  0  0
    2.7516    2.3329    0.0000 C   0  0  1  0  0  0  0  0  0  0  0  0
    3.5613    2.4908    0.0000 C   0  0  0  0  0  0  0  0  0  0  0  0
    4.1029    1.8685    0.0000 F   0  0  0  0  0  0  0  0  0  0  0  0
    3.8295    3.2710    0.0000 F   0  0  0  0  0  0  0  0  0  0  0  0
    1.3592    1.4952    0.0000 C   0  0  0  0  0  0  0  0  0  0  0  0
    1.2306    0.6803    0.0000 O   0  0  0  0  0  0  0  0  0  0  0  0
    0.7178    2.0140    0.0000 N   0  0  0  0  0  0  0  0  0  0  0  0
   -0.0523    1.7179    0.0000 S   0  0  0  0  0  0  0  0  0  0  0  0
    0.2439    0.9479    0.0000 O   0  0  0  0  0  0  0  0  0  0  0  0
   -0.3484    2.4880    0.0000 O   0  0  0  0  0  0  0  0  0  0  0  0
   -0.8223    1.4218    0.0000 C   0  0  0  0  0  0  0  0  0  0  0  0
   -1.6471    1.4070    0.0000 C   0  0  0  0  0  0  0  0  0  0  0  0
   -1.2476    2.1288    0.0000 C   0  0  0  0  0  0  0  0  0  0  0  0
   -0.6644    0.6121    0.0000 C   0  0  0  0  0  0  0  0  0  0  0  0
    4.2868   -0.0000    0.0000 C   0  0  0  0  0  0  0  0  0  0  0  0
    4.2868    0.8250    0.0000 O   0  0  0  0  0  0  0  0  0  0  0  0
    5.0013   -0.4125    0.0000 C   0  0  1  0  0  0  0  0  0  0  0  0
    5.0013   -1.2375    0.0000 N   0  0  0  0  0  0  0  0  0  0  0  0
    5.7158   -1.6500    0.0000 C   0  0  0  0  0  0  0  0  0  0  0  0
    6.4302   -1.2375    0.0000 O   0  0  0  0  0  0  0  0  0  0  0  0
    5.7158   -2.4750    0.0000 O   0  0  0  0  0  0  0  0  0  0  0  0
    6.4302   -2.8875    0.0000 C   0  0  2  0  0  0  0  0  0  0  0  0
    7.1447   -3.3000    0.0000 C   0  0  0  0  0  0  0  0  0  0  0  0
    6.4302   -3.7125    0.0000 C   0  0  1  0  0  0  0  0  0  0  0  0
    5.7158   -4.1250    0.0000 C   0  0  0  0  0  0  0  0  0  0  0  0
    5.7158   -4.9500    0.0000 C   0  0  0  0  0  0  0  0  0  0  0  0
    5.0013   -5.3625    0.0000 C   0  0  0  0  0  0  0  0  0  0  0  0
    4.2868   -4.9500    0.0000 C   0  0  0  0  0  0  0  0  0  0  0  0
    4.2868   -4.1250    0.0000 C   0  0  0  0  0  0  0  0  0  0  0  0
    3.5724   -3.7125    0.0000 C   0  0  0  0  0  0  0  0  0  0  0  0
    3.5724   -2.8875    0.0000 C   0  0  0  0  0  0  0  0  0  0  0  0
    2.9485   -2.1369    0.0000 N   0  0  0  0  0  0  0  0  0  0  0  0
    2.1434   -2.8875    0.0000 C   0  0  0  0  0  0  0  0  0  0  0  0
    1.4289   -2.4750    0.0000 C   0  0  0  0  0  0  0  0  0  0  0  0
    0.7145   -2.8875    0.0000 C   0  0  0  0  0  0  0  0  0  0  0  0
    0.7145   -3.7125    0.0000 C   0  0  0  0  0  0  0  0  0  0  0  0
    1.4289   -4.1250    0.0000 C   0  0  0  0  0  0  0  0  0  0  0  0
    2.1434   -3.7125    0.0000 C   0  0  0  0  0  0  0  0  0  0  0  0
    2.8579   -4.1250    0.0000 N   0  0  0  0  0  0  0  0  0  0  0  0
   -0.0000   -2.4750    0.0000 O   0  0  0  0  0  0  0  0  0  0  0  0
   -0.7145   -2.8875    0.0000 C   0  0  0  0  0  0  0  0  0  0  0  0
    2.8579   -2.4750    0.0000 O   0  0  0  0  0  0  0  0  0  0  0  0
    3.6934   -4.6981    0.0000 F   0  0  0  0  0  0  0  0  0  0  0  0
    3.4938   -4.3524    0.0000 F   0  0  0  0  0  0  0  0  0  0  0  0
    5.7158   -0.0000    0.0000 C   0  0  0  0  0  0  0  0  0  0  0  0
    6.4302    0.4125    0.0000 C   0  0  0  0  0  0  0  0  0  0  0  0
    6.1283   -0.7145    0.0000 C   0  0  0  0  0  0  0  0  0  0  0  0
    5.3033    0.7145    0.0000 C   0  0  0  0  0  0  0  0  0  0  0  0
    1.2165    0.3612    0.0000 H   0  0  0  0  0  0  0  0  0  0  0  0
   -0.1608   -0.8788    0.0000 H   0  0  0  0  0  0  0  0  0  0  0  0
    0.1699    0.1388    0.0000 H   0  0  0  0  0  0  0  0  0  0  0  0
    1.1071   -2.2871    0.0000 H   0  0  0  0  0  0  0  0  0  0  0  0
    2.1537   -2.0647    0.0000 H   0  0  0  0  0  0  0  0  0  0  0  0
    1.9679   -2.1315    0.0000 H   0  0  0  0  0  0  0  0  0  0  0  0
    2.9697   -0.5859    0.0000 H   0  0  0  0  0  0  0  0  0  0  0  0
    4.4990   -1.7725    0.0000 H   0  0  0  0  0  0  0  0  0  0  0  0
    4.4990   -0.7025    0.0000 H   0  0  0  0  0  0  0  0  0  0  0  0
    3.1386    0.5685    0.0000 H   0  0  0  0  0  0  0  0  0  0  0  0
    3.5389    1.1021    0.0000 H   0  0  0  0  0  0  0  0  0  0  0  0
    1.2690    3.4083    0.0000 H   0  0  0  0  0  0  0  0  0  0  0  0
    2.5693    3.4885    0.0000 H   0  0  0  0  0  0  0  0  0  0  0  0
    2.8256    3.4003    0.0000 H   0  0  0  0  0  0  0  0  0  0  0  0
    4.6115    2.6955    0.0000 H   0  0  0  0  0  0  0  0  0  0  0  0
    0.8713    2.9865    0.0000 H   0  0  0  0  0  0  0  0  0  0  0  0
   -2.5640    0.8554    0.0000 H   0  0  0  0  0  0  0  0  0  0  0  0
   -2.4172    2.1498    0.0000 H   0  0  0  0  0  0  0  0  0  0  0  0
   -1.2669    3.1986    0.0000 H   0  0  0  0  0  0  0  0  0  0  0  0
   -0.2192    2.4243    0.0000 H   0  0  0  0  0  0  0  0  0  0  0  0
   -1.4715   -0.0904    0.0000 H   0  0  0  0  0  0  0  0  0  0  0  0
    0.3475    0.2644    0.0000 H   0  0  0  0  0  0  0  0  0  0  0  0
   -0.4596   -0.4381    0.0000 H   0  0  0  0  0  0  0  0  0  0  0  0
    5.0013    0.6575    0.0000 H   0  0  0  0  0  0  0  0  0  0  0  0
    4.1487   -1.7298    0.0000 H   0  0  0  0  0  0  0  0  0  0  0  0
    6.9652   -1.9609    0.0000 H   0  0  0  0  0  0  0  0  0  0  0  0
    8.2147   -3.3000    0.0000 H   0  0  0  0  0  0  0  0  0  0  0  0
    7.4216   -4.3335    0.0000 H   0  0  0  0  0  0  0  0  0  0  0  0
    6.9652   -2.7859    0.0000 H   0  0  0  0  0  0  0  0  0  0  0  0
    4.7891   -3.5900    0.0000 H   0  0  0  0  0  0  0  0  0  0  0  0
    4.7892   -4.6600    0.0000 H   0  0  0  0  0  0  0  0  0  0  0  0
    6.6424   -5.4850    0.0000 H   0  0  0  0  0  0  0  0  0  0  0  0
    5.7158   -6.0200    0.0000 H   0  0  0  0  0  0  0  0  0  0  0  0
    5.0013   -6.4325    0.0000 H   0  0  0  0  0  0  0  0  0  0  0  0
    4.0747   -5.8975    0.0000 H   0  0  0  0  0  0  0  0  0  0  0  0
    3.3602   -5.4850    0.0000 H   0  0  0  0  0  0  0  0  0  0  0  0
    3.3602   -4.4150    0.0000 H   0  0  0  0  0  0  0  0  0  0  0  0
    1.4289   -1.4430    0.0000 H   0  0  0  0  0  0  0  0  0  0  0  0
   -0.1792   -4.2285    0.0000 H   0  0  0  0  0  0  0  0  0  0  0  0
    1.4289   -5.1570    0.0000 H   0  0  0  0  0  0  0  0  0  0  0  0
   -1.6411   -2.3525    0.0000 H   0  0  0  0  0  0  0  0  0  0  0  0
   -0.7145   -3.9575    0.0000 H   0  0  0  0  0  0  0  0  0  0  0  0
   -1.6412   -3.4225    0.0000 H   0  0  0  0  0  0  0  0  0  0  0  0
    7.3569   -0.1225    0.0000 H   0  0  0  0  0  0  0  0  0  0  0  0
    6.4302    1.4825    0.0000 H   0  0  0  0  0  0  0  0  0  0  0  0
    7.3568    0.9475    0.0000 H   0  0  0  0  0  0  0  0  0  0  0  0
    5.5933   -1.6411    0.0000 H   0  0  0  0  0  0  0  0  0  0  0  0
    7.1983   -0.7145    0.0000 H   0  0  0  0  0  0  0  0  0  0  0  0
    6.6633   -1.6412    0.0000 H   0  0  0  0  0  0  0  0  0  0  0  0
    5.8383    1.6411    0.0000 H   0  0  0  0  0  0  0  0  0  0  0  0
    4.2333    0.7145    0.0000 H   0  0  0  0  0  0  0  0  0  0  0  0
    4.7683    1.6412    0.0000 H   0  0  0  0  0  0  0  0  0  0  0  0
  1  2  1  0  0  0  0
  1 61  1  0  0  0  0
  1 62  1  0  0  0  0
  1 63  1  0  0  0  0
  2 64  1  0  0  0  0
  2 65  1  0  0  0  0
  3  2  1  0  0  0  0
  3  4  1  0  0  0  0
  3  7  1  0  0  0  0
  3 66  1  6  0  0  0
  4  5  1  0  0  0  0
  4 54  1  0  0  0  0
  4 67  1  1  0  0  0
  5  6  1  0  0  0  0
  5 68  1  0  0  0  0
  5 69  1  0  0  0  0
  6  7  1  0  0  0  0
  6 27  1  0  0  0  0
  7  8  1  0  0  0  0
  7 70  1  6  0  0  0
  8  9  2  0  0  0  0
  8 10  1  0  0  0  0
 10 71  1  0  0  0  0
 11 10  1  0  0  0  0
 11 12  1  0  0  0  0
 11 13  1  0  0  0  0
 11 17  1  1  0  0  0
 12 13  1  0  0  0  0
 12 72  1  0  0  0  0
 12 73  1  0  0  0  0
 13 14  1  0  0  0  0
 13 74  1  6  0  0  0
 14 15  1  0  0  0  0
 14 16  1  0  0  0  0
 14 75  1  0  0  0  0
 17 18  2  0  0  0  0
 17 19  1  0  0  0  0
 19 20  1  0  0  0  0
 19 76  1  0  0  0  0
 20 21  2  0  0  0  0
 20 22  2  0  0  0  0
 20 23  1  0  0  0  0
 23 24  1  0  0  0  0
 23 25  1  0  0  0  0
 23 26  1  0  0  0  0
 24 25  1  0  0  0  0
 24 77  1  0  0  0  0
 24 78  1  0  0  0  0
 25 79  1  0  0  0  0
 25 80  1  0  0  0  0
 26 81  1  0  0  0  0
 26 82  1  0  0  0  0
 26 83  1  0  0  0  0
 27 28  2  0  0  0  0
 27 29  1  0  0  0  0
 29 30  1  0  0  0  0
 29 57  1  0  0  0  0
 29 84  1  1  0  0  0
 30 31  1  0  0  0  0
 30 85  1  0  0  0  0
 31 32  2  0  0  0  0
 31 33  1  0  0  0  0
 33 34  1  0  0  0  0
 34 35  1  0  0  0  0
 34 36  1  0  0  0  0
 34 86  1  1  0  0  0
 35 87  1  0  0  0  0
 35 88  1  0  0  0  0
 36 35  1  0  0  0  0
 36 37  1  0  0  0  0
 36 89  1  6  0  0  0
 37 38  1  0  0  0  0
 37 90  1  0  0  0  0
 37 91  1  0  0  0  0
 38 39  1  0  0  0  0
 38 92  1  0  0  0  0
 38 93  1  0  0  0  0
 39 40  1  0  0  0  0
 39 94  1  0  0  0  0
 39 95  1  0  0  0  0
 40 41  1  0  0  0  0
 40 96  1  0  0  0  0
 40 97  1  0  0  0  0
 41 42  1  0  0  0  0
 41 55  1  0  0  0  0
 41 56  1  0  0  0  0
 42 43  2  0  0  0  0
 42 51  1  0  0  0  0
 43 44  1  0  0  0  0
 43 54  1  0  0  0  0
 44 45  2  0  0  0  0
 45 46  1  0  0  0  0
 45 50  1  0  0  0  0
 46 47  2  0  0  0  0
 46 98  1  0  0  0  0
 47 48  1  0  0  0  0
 47 52  1  0  0  0  0
 48 49  2  0  0  0  0
 48 99  1  0  0  0  0
 49 50  1  0  0  0  0
 49100  1  0  0  0  0
 50 51  2  0  0  0  0
 52 53  1  0  0  0  0
 53101  1  0  0  0  0
 53102  1  0  0  0  0
 53103  1  0  0  0  0
 57 58  1  0  0  0  0
 57 59  1  0  0  0  0
 57 60  1  0  0  0  0
 58104  1  0  0  0  0
 58105  1  0  0  0  0
 58106  1  0  0  0  0
 59107  1  0  0  0  0
 59108  1  0  0  0  0
 59109  1  0  0  0  0
 60110  1  0  0  0  0
 60111  1  0  0  0  0
 60112  1  0  0  0  0
M  END
>  <DRUGBANK_ID>
DB12026

>  <COMMON_NAME>
Voxilaprevir

>  <CAS_NUMBER>
1535212-07-7

>  <UNII>
0570F37359

>  <SYNONYMS>
Voxilaprevir

$$$$
