
 OpenBabel10282417072D

  3  0  0  0  0  0  0  0  0  0999 V2000
    0.0000    0.0000    0.0000 Cl  0  5  0  0  0  0  0  0  0  0  0  0
    1.0018    0.0000    0.0000 Cl  0  5  0  0  0  0  0  0  0  0  0  0
    0.0000   -1.6500    0.0000 Sn  0  2  0  0  0  0  0  0  0  0  0  0
M  CHG  3   1  -1   2  -1   3   2
M  END
>  <DRUGBANK_ID>
DB11056

>  <COMMON_NAME>
Stannous chloride

>  <CAS_NUMBER>
7772-99-8

>  <UNII>
R30H55TN67

>  <SYNONYMS>
Stannous chloride anhydrous; Stannous chloride,anhydrous; Tin dichloride

$$$$
