
 OpenBabel10282417072D

 19 18  0  0  0  0  0  0  0  0999 V2000
   -2.1420   -0.2066    0.0000 C   0  0  0  0  0  0  0  0  0  0  0  0
   -1.4280    0.2066    0.0000 C   0  0  3  0  0  0  0  0  0  0  0  0
   -0.7139   -0.2066    0.0000 C   0  0  0  0  0  0  0  0  0  0  0  0
    0.0000    0.2066    0.0000 N   0  0  0  0  0  0  0  0  0  0  0  0
    0.7139   -0.2066    0.0000 C   0  0  0  0  0  0  0  0  0  0  0  0
    1.4280    0.2066    0.0000 C   0  0  0  0  0  0  0  0  0  0  0  0
    2.1420   -0.2066    0.0000 O   0  0  0  0  0  0  0  0  0  0  0  0
   -1.4280    1.0334    0.0000 S   0  0  0  0  0  0  0  0  0  0  0  0
   -0.7139   -1.0334    0.0000 O   0  0  0  0  0  0  0  0  0  0  0  0
    1.4280    1.0334    0.0000 O   0  0  0  0  0  0  0  0  0  0  0  0
   -3.0692    0.3275    0.0000 H   0  0  0  0  0  0  0  0  0  0  0  0
   -2.1409   -1.2766    0.0000 H   0  0  0  0  0  0  0  0  0  0  0  0
   -3.0681   -0.7425    0.0000 H   0  0  0  0  0  0  0  0  0  0  0  0
   -1.4280   -0.8634    0.0000 H   0  0  0  0  0  0  0  0  0  0  0  0
    0.0000    1.1911    0.0000 H   0  0  0  0  0  0  0  0  0  0  0  0
    0.7138   -1.2766    0.0000 H   0  0  0  0  0  0  0  0  0  0  0  0
   -0.2131   -0.7411    0.0000 H   0  0  0  0  0  0  0  0  0  0  0  0
    2.1410   -1.1436    0.0000 H   0  0  0  0  0  0  0  0  0  0  0  0
   -0.2502    1.7134    0.0000 H   0  0  0  0  0  0  0  0  0  0  0  0
  1  2  1  0  0  0  0
  1 11  1  0  0  0  0
  1 12  1  0  0  0  0
  1 13  1  0  0  0  0
  2  3  1  0  0  0  0
  2  8  1  0  0  0  0
  2 14  1  0  0  0  0
  3  4  1  0  0  0  0
  3  9  2  0  0  0  0
  4  5  1  0  0  0  0
  4 15  1  0  0  0  0
  5  6  1  0  0  0  0
  5 16  1  0  0  0  0
  5 17  1  0  0  0  0
  6  7  1  0  0  0  0
  6 10  2  0  0  0  0
  7 18  1  0  0  0  0
  8 19  1  0  0  0  0
M  END
>  <DRUGBANK_ID>
DB06823

>  <COMMON_NAME>
Tiopronin

>  <CAS_NUMBER>
1953-02-2

>  <UNII>
C5W04GO61S

>  <SYNONYMS>
Tiopronin; Tiopronine; Tiopronino; Tioproninum

$$$$
