
 OpenBabel10282417072D

 62 63  0  0  0  0  0  0  0  0999 V2000
   -1.9071   -2.7118    0.0000 C   0  0  0  0  0  0  0  0  0  0  0  0
   -1.0946   -2.5685    0.0000 C   0  0  0  0  0  0  0  0  0  0  0  0
   -0.8125   -1.7933    0.0000 C   0  0  0  0  0  0  0  0  0  0  0  0
   -1.3428   -1.1613    0.0000 C   0  0  0  0  0  0  0  0  0  0  0  0
   -1.0606   -0.3860    0.0000 C   0  0  0  0  0  0  0  0  0  0  0  0
    0.0000   -1.6500    0.0000 C   0  0  0  0  0  0  0  0  0  0  0  0
    0.5303   -2.2820    0.0000 C   0  0  0  0  0  0  0  0  0  0  0  0
    1.2448   -2.6945    0.0000 C   0  0  0  0  0  0  0  0  0  0  0  0
    1.2448   -3.5195    0.0000 C   0  0  0  0  0  0  0  0  0  0  0  0
    0.5303   -3.9320    0.0000 C   0  0  0  0  0  0  0  0  0  0  0  0
   -0.1842   -3.5195    0.0000 C   0  0  0  0  0  0  0  0  0  0  0  0
   -0.1842   -2.6945    0.0000 C   0  0  0  0  0  0  0  0  0  0  0  0
    1.0606   -1.6500    0.0000 C   0  0  0  0  0  0  0  0  0  0  0  0
    0.7784   -0.8748    0.0000 O   0  0  0  0  0  0  0  0  0  0  0  0
    1.8731   -1.7933    0.0000 N   0  0  0  0  0  0  0  0  0  0  0  0
    2.4034   -1.1613    0.0000 C   0  0  0  0  0  0  0  0  0  0  0  0
    2.1212   -0.3860    0.0000 C   0  0  0  0  0  0  0  0  0  0  0  0
    2.6515    0.2460    0.0000 C   0  0  0  0  0  0  0  0  0  0  0  0
    3.4640    0.1027    0.0000 C   0  0  0  0  0  0  0  0  0  0  0  0
    3.7461   -0.6725    0.0000 C   0  0  0  0  0  0  0  0  0  0  0  0
    3.2158   -1.3045    0.0000 C   0  0  0  0  0  0  0  0  0  0  0  0
    3.4980   -2.0798    0.0000 S   0  0  0  0  0  0  0  0  0  0  0  0
    4.3105   -2.2230    0.0000 C   0  0  0  0  0  0  0  0  0  0  0  0
    4.8408   -1.5911    0.0000 O   0  0  0  0  0  0  0  0  0  0  0  0
    4.5926   -2.9983    0.0000 C   0  0  0  0  0  0  0  0  0  0  0  0
    5.4051   -3.1415    0.0000 C   0  0  0  0  0  0  0  0  0  0  0  0
    4.0623   -3.6303    0.0000 C   0  0  0  0  0  0  0  0  0  0  0  0
   -2.5949   -1.8922    0.0000 H   0  0  0  0  0  0  0  0  0  0  0  0
   -2.2730   -3.7173    0.0000 H   0  0  0  0  0  0  0  0  0  0  0  0
   -2.9608   -2.8976    0.0000 H   0  0  0  0  0  0  0  0  0  0  0  0
   -0.4068   -3.3881    0.0000 H   0  0  0  0  0  0  0  0  0  0  0  0
   -0.0409   -2.3826    0.0000 H   0  0  0  0  0  0  0  0  0  0  0  0
   -0.4466   -0.7878    0.0000 H   0  0  0  0  0  0  0  0  0  0  0  0
   -2.3965   -1.3471    0.0000 H   0  0  0  0  0  0  0  0  0  0  0  0
   -2.0306   -0.3416    0.0000 H   0  0  0  0  0  0  0  0  0  0  0  0
   -0.0069   -0.2002    0.0000 H   0  0  0  0  0  0  0  0  0  0  0  0
   -1.7484    0.4337    0.0000 H   0  0  0  0  0  0  0  0  0  0  0  0
   -0.6946    0.6195    0.0000 H   0  0  0  0  0  0  0  0  0  0  0  0
    0.3659   -0.6445    0.0000 H   0  0  0  0  0  0  0  0  0  0  0  0
    1.0537   -1.4642    0.0000 H   0  0  0  0  0  0  0  0  0  0  0  0
    2.1714   -2.1595    0.0000 H   0  0  0  0  0  0  0  0  0  0  0  0
    2.1714   -3.2295    0.0000 H   0  0  0  0  0  0  0  0  0  0  0  0
    2.1714   -4.0545    0.0000 H   0  0  0  0  0  0  0  0  0  0  0  0
    1.2448   -4.5895    0.0000 H   0  0  0  0  0  0  0  0  0  0  0  0
    0.5303   -5.0020    0.0000 H   0  0  0  0  0  0  0  0  0  0  0  0
   -0.3963   -4.4670    0.0000 H   0  0  0  0  0  0  0  0  0  0  0  0
   -1.1108   -4.0545    0.0000 H   0  0  0  0  0  0  0  0  0  0  0  0
   -1.1108   -2.9845    0.0000 H   0  0  0  0  0  0  0  0  0  0  0  0
   -1.1108   -2.1595    0.0000 H   0  0  0  0  0  0  0  0  0  0  0  0
   -0.1842   -1.6245    0.0000 H   0  0  0  0  0  0  0  0  0  0  0  0
    2.2098   -2.7184    0.0000 H   0  0  0  0  0  0  0  0  0  0  0  0
    1.1049   -0.2068    0.0000 H   0  0  0  0  0  0  0  0  0  0  0  0
    2.2986    1.2158    0.0000 H   0  0  0  0  0  0  0  0  0  0  0  0
    4.1274    0.8932    0.0000 H   0  0  0  0  0  0  0  0  0  0  0  0
    4.7624   -0.8517    0.0000 H   0  0  0  0  0  0  0  0  0  0  0  0
    4.9586   -4.0038    0.0000 H   0  0  0  0  0  0  0  0  0  0  0  0
    5.7711   -4.1469    0.0000 H   0  0  0  0  0  0  0  0  0  0  0  0
    6.0928   -2.3218    0.0000 H   0  0  0  0  0  0  0  0  0  0  0  0
    6.4589   -3.3272    0.0000 H   0  0  0  0  0  0  0  0  0  0  0  0
    3.0086   -3.4445    0.0000 H   0  0  0  0  0  0  0  0  0  0  0  0
    4.4283   -4.6358    0.0000 H   0  0  0  0  0  0  0  0  0  0  0  0
    3.3745   -4.4500    0.0000 H   0  0  0  0  0  0  0  0  0  0  0  0
  1  2  1  0  0  0  0
  1 28  1  0  0  0  0
  1 29  1  0  0  0  0
  1 30  1  0  0  0  0
  2  3  1  0  0  0  0
  2 31  1  0  0  0  0
  2 32  1  0  0  0  0
  3  4  1  0  0  0  0
  3  6  1  0  0  0  0
  3 33  1  0  0  0  0
  4  5  1  0  0  0  0
  4 34  1  0  0  0  0
  4 35  1  0  0  0  0
  5 36  1  0  0  0  0
  5 37  1  0  0  0  0
  5 38  1  0  0  0  0
  6  7  1  0  0  0  0
  6 39  1  0  0  0  0
  6 40  1  0  0  0  0
  7  8  1  0  0  0  0
  7 12  1  0  0  0  0
  7 13  1  0  0  0  0
  8  9  1  0  0  0  0
  8 41  1  0  0  0  0
  8 42  1  0  0  0  0
  9 10  1  0  0  0  0
  9 43  1  0  0  0  0
  9 44  1  0  0  0  0
 10 11  1  0  0  0  0
 10 45  1  0  0  0  0
 10 46  1  0  0  0  0
 11 12  1  0  0  0  0
 11 47  1  0  0  0  0
 11 48  1  0  0  0  0
 12 49  1  0  0  0  0
 12 50  1  0  0  0  0
 13 14  2  0  0  0  0
 13 15  1  0  0  0  0
 15 16  1  0  0  0  0
 15 51  1  0  0  0  0
 16 17  2  0  0  0  0
 16 21  1  0  0  0  0
 17 18  1  0  0  0  0
 17 52  1  0  0  0  0
 18 19  2  0  0  0  0
 18 53  1  0  0  0  0
 19 20  1  0  0  0  0
 19 54  1  0  0  0  0
 20 21  2  0  0  0  0
 20 55  1  0  0  0  0
 21 22  1  0  0  0  0
 22 23  1  0  0  0  0
 23 24  2  0  0  0  0
 23 25  1  0  0  0  0
 25 26  1  0  0  0  0
 25 27  1  0  0  0  0
 25 56  1  0  0  0  0
 26 57  1  0  0  0  0
 26 58  1  0  0  0  0
 26 59  1  0  0  0  0
 27 60  1  0  0  0  0
 27 61  1  0  0  0  0
 27 62  1  0  0  0  0
M  END
>  <DRUGBANK_ID>
DB12181

>  <COMMON_NAME>
Dalcetrapib

>  <CAS_NUMBER>
211513-37-0

>  <UNII>
3D050LIQ3H

>  <SYNONYMS>
Dalcetrapib

$$$$
