
 OpenBabel10282417072D

 63 63  0  0  0  0  0  0  0  0999 V2000
   -0.2059   -0.7138    0.0000 C   0  0  0  0  0  0  0  0  0  0  0  0
    0.5000    0.4589    0.0000 C   0  0  0  0  0  0  0  0  0  0  0  0
    1.2060   -0.7531    0.0000 C   0  0  0  0  0  0  0  0  0  0  0  0
   -0.2059    0.0471    0.0000 C   0  0  0  0  0  0  0  0  0  0  0  0
    0.5000   -1.1413    0.0000 C   0  0  0  0  0  0  0  0  0  0  0  0
    1.2060    0.0705    0.0000 C   0  0  0  0  0  0  0  0  0  0  0  0
   -0.9158   -1.1179    0.0000 N   0  0  0  0  0  0  0  0  0  0  0  0
    0.5000    1.2865    0.0000 C   0  0  0  0  0  0  0  0  0  0  0  0
    1.9082   -1.1727    0.0000 C   0  0  0  0  0  0  0  0  0  0  0  0
   -0.9158   -1.9022    0.0000 C   0  0  0  0  0  0  0  0  0  0  0  0
   -0.1823    1.6944    0.0000 N   0  0  0  0  0  0  0  0  0  0  0  0
    2.6181   -0.7531    0.0000 N   0  0  0  0  0  0  0  0  0  0  0  0
   -1.7238   -0.5530    0.0000 C   0  0  0  0  0  0  0  0  0  0  0  0
    1.2139    1.6827    0.0000 O   0  0  0  0  0  0  0  0  0  0  0  0
    1.9082   -1.9729    0.0000 O   0  0  0  0  0  0  0  0  0  0  0  0
   -0.0921   -2.4592    0.0000 O   0  0  0  0  0  0  0  0  0  0  0  0
    0.5000   -1.9533    0.0000 I   0  0  0  0  0  0  0  0  0  0  0  0
    1.9356    0.4746    0.0000 I   0  0  0  0  0  0  0  0  0  0  0  0
   -0.8570    0.4589    0.0000 I   0  0  0  0  0  0  0  0  0  0  0  0
   -2.5122   -1.0198    0.0000 C   0  0  3  0  0  0  0  0  0  0  0  0
   -0.9001    1.2983    0.0000 C   0  0  0  0  0  0  0  0  0  0  0  0
    2.6181    0.0471    0.0000 C   0  0  0  0  0  0  0  0  0  0  0  0
   -1.6179    1.8003    0.0000 C   0  0  3  0  0  0  0  0  0  0  0  0
    3.3124    0.4589    0.0000 C   0  0  3  0  0  0  0  0  0  0  0  0
   -2.5122   -1.8591    0.0000 O   0  0  0  0  0  0  0  0  0  0  0  0
   -1.6101    2.4828    0.0000 O   0  0  0  0  0  0  0  0  0  0  0  0
    4.0419    0.0705    0.0000 O   0  0  0  0  0  0  0  0  0  0  0  0
   -1.5944   -2.4828    0.0000 C   0  0  0  0  0  0  0  0  0  0  0  0
   -3.0182    2.0944    0.0000 O   0  0  0  0  0  0  0  0  0  0  0  0
    3.9713    1.6355    0.0000 O   0  0  0  0  0  0  0  0  0  0  0  0
   -3.3241    0.5060    0.0000 O   0  0  0  0  0  0  0  0  0  0  0  0
    3.3320    1.2983    0.0000 C   0  0  0  0  0  0  0  0  0  0  0  0
   -2.3514    1.3884    0.0000 C   0  0  0  0  0  0  0  0  0  0  0  0
   -3.3241   -0.4902    0.0000 C   0  0  0  0  0  0  0  0  0  0  0  0
   -4.0419    0.9413    0.0000 C   0  0  0  0  0  0  0  0  0  0  0  0
   -0.1653    2.6788    0.0000 H   0  0  0  0  0  0  0  0  0  0  0  0
    3.4732   -1.2410    0.0000 H   0  0  0  0  0  0  0  0  0  0  0  0
   -1.6834    0.5162    0.0000 H   0  0  0  0  0  0  0  0  0  0  0  0
   -2.6432   -0.0056    0.0000 H   0  0  0  0  0  0  0  0  0  0  0  0
   -1.5826   -1.5497    0.0000 H   0  0  0  0  0  0  0  0  0  0  0  0
   -0.9568    0.2298    0.0000 H   0  0  0  0  0  0  0  0  0  0  0  0
   -1.8618    0.8293    0.0000 H   0  0  0  0  0  0  0  0  0  0  0  0
    1.6883    0.5766    0.0000 H   0  0  0  0  0  0  0  0  0  0  0  0
    2.6087    1.1171    0.0000 H   0  0  0  0  0  0  0  0  0  0  0  0
   -0.6661    2.2892    0.0000 H   0  0  0  0  0  0  0  0  0  0  0  0
    3.3371   -0.6108    0.0000 H   0  0  0  0  0  0  0  0  0  0  0  0
   -3.3522   -2.3441    0.0000 H   0  0  0  0  0  0  0  0  0  0  0  0
   -0.7646    2.9582    0.0000 H   0  0  0  0  0  0  0  0  0  0  0  0
    4.0752   -0.8989    0.0000 H   0  0  0  0  0  0  0  0  0  0  0  0
   -2.6033   -2.1265    0.0000 H   0  0  0  0  0  0  0  0  0  0  0  0
   -1.3985   -3.5347    0.0000 H   0  0  0  0  0  0  0  0  0  0  0  0
   -2.4074   -3.1784    0.0000 H   0  0  0  0  0  0  0  0  0  0  0  0
   -2.7405    3.0238    0.0000 H   0  0  0  0  0  0  0  0  0  0  0  0
    4.7922    1.1187    0.0000 H   0  0  0  0  0  0  0  0  0  0  0  0
    2.4223    1.8616    0.0000 H   0  0  0  0  0  0  0  0  0  0  0  0
    2.3912    0.7886    0.0000 H   0  0  0  0  0  0  0  0  0  0  0  0
   -2.5125    0.3306    0.0000 H   0  0  0  0  0  0  0  0  0  0  0  0
   -1.4714    0.7797    0.0000 H   0  0  0  0  0  0  0  0  0  0  0  0
   -4.2650   -0.9998    0.0000 H   0  0  0  0  0  0  0  0  0  0  0  0
   -3.3677   -1.5593    0.0000 H   0  0  0  0  0  0  0  0  0  0  0  0
   -4.0189    2.0111    0.0000 H   0  0  0  0  0  0  0  0  0  0  0  0
   -4.9799    0.4264    0.0000 H   0  0  0  0  0  0  0  0  0  0  0  0
   -4.9568    1.4961    0.0000 H   0  0  0  0  0  0  0  0  0  0  0  0
  2  4  2  0  0  0  0
  2  6  1  0  0  0  0
  3  5  1  0  0  0  0
  4  1  1  0  0  0  0
  5  1  2  0  0  0  0
  6  3  2  0  0  0  0
  7  1  1  0  0  0  0
  8  2  1  0  0  0  0
  9  3  1  0  0  0  0
 10  7  1  0  0  0  0
 11  8  1  0  0  0  0
 11 36  1  0  0  0  0
 12  9  1  0  0  0  0
 12 37  1  0  0  0  0
 13  7  1  0  0  0  0
 13 38  1  0  0  0  0
 13 39  1  0  0  0  0
 14  8  2  0  0  0  0
 15  9  2  0  0  0  0
 16 10  2  0  0  0  0
 17  5  1  0  0  0  0
 18  6  1  0  0  0  0
 19  4  1  0  0  0  0
 20 13  1  0  0  0  0
 20 40  1  0  0  0  0
 21 11  1  0  0  0  0
 21 41  1  0  0  0  0
 21 42  1  0  0  0  0
 22 12  1  0  0  0  0
 22 43  1  0  0  0  0
 22 44  1  0  0  0  0
 23 21  1  0  0  0  0
 23 45  1  0  0  0  0
 24 22  1  0  0  0  0
 24 46  1  0  0  0  0
 25 20  1  0  0  0  0
 25 47  1  0  0  0  0
 26 23  1  0  0  0  0
 26 48  1  0  0  0  0
 27 24  1  0  0  0  0
 27 49  1  0  0  0  0
 28 10  1  0  0  0  0
 28 50  1  0  0  0  0
 28 51  1  0  0  0  0
 28 52  1  0  0  0  0
 29 33  1  0  0  0  0
 29 53  1  0  0  0  0
 30 32  1  0  0  0  0
 30 54  1  0  0  0  0
 31 34  1  0  0  0  0
 32 24  1  0  0  0  0
 32 55  1  0  0  0  0
 32 56  1  0  0  0  0
 33 23  1  0  0  0  0
 33 57  1  0  0  0  0
 33 58  1  0  0  0  0
 34 20  1  0  0  0  0
 34 59  1  0  0  0  0
 34 60  1  0  0  0  0
 35 31  1  0  0  0  0
 35 61  1  0  0  0  0
 35 62  1  0  0  0  0
 35 63  1  0  0  0  0
M  END
>  <DRUGBANK_ID>
DB13861

>  <COMMON_NAME>
Iopentol

>  <CAS_NUMBER>
89797-00-2

>  <UNII>
7D6XWX076T

>  <SYNONYMS>
Iopentol; Iopentolum

$$$$
