
 OpenBabel10282417072D

 57 61  0  0  0  0  0  0  0  0999 V2000
   -5.7623   11.7599    0.0000 C   0  0  0  0  0  0  0  0  0  0  0  0
   -4.9418   11.6736    0.0000 C   0  0  0  0  0  0  0  0  0  0  0  0
   -4.6062   10.9200    0.0000 C   0  0  0  0  0  0  0  0  0  0  0  0
   -4.4569   12.3411    0.0000 N   0  0  0  0  0  0  0  0  0  0  0  0
   -4.7118   13.1257    0.0000 C   0  0  0  0  0  0  0  0  0  0  0  0
   -4.0444   13.6106    0.0000 N   0  0  0  0  0  0  0  0  0  0  0  0
   -3.3769   13.1257    0.0000 N   0  0  0  0  0  0  0  0  0  0  0  0
   -3.6319   12.3411    0.0000 C   0  0  0  0  0  0  0  0  0  0  0  0
   -3.1469   11.6736    0.0000 C   0  0  0  0  0  0  0  0  0  0  0  0
   -2.3265   11.7599    0.0000 C   0  0  0  0  0  0  0  0  0  0  0  0
   -1.8415   11.0924    0.0000 C   0  0  0  0  0  0  0  0  0  0  0  0
   -2.1771   10.3388    0.0000 C   0  0  0  0  0  0  0  0  0  0  0  0
   -2.9976   10.2525    0.0000 C   0  0  0  0  0  0  0  0  0  0  0  0
   -3.3331    9.4988    0.0000 N   0  0  0  0  0  0  0  0  0  0  0  0
   -2.8482    8.8314    0.0000 C   0  0  0  0  0  0  0  0  0  0  0  0
   -2.0277    8.9176    0.0000 O   0  0  0  0  0  0  0  0  0  0  0  0
   -3.1838    8.0777    0.0000 C   0  0  0  0  0  0  0  0  0  0  0  0
   -2.6988    7.4103    0.0000 C   0  0  0  0  0  0  0  0  0  0  0  0
   -3.0344    6.6566    0.0000 C   0  0  0  0  0  0  0  0  0  0  0  0
   -2.5495    5.9892    0.0000 N   0  0  0  0  0  0  0  0  0  0  0  0
   -1.7245    5.9892    0.0000 C   0  0  0  0  0  0  0  0  0  0  0  0
   -1.4695    5.2046    0.0000 N   0  0  0  0  0  0  0  0  0  0  0  0
   -2.1370    4.7196    0.0000 C   0  0  0  0  0  0  0  0  0  0  0  0
   -2.8044    5.2046    0.0000 C   0  0  0  0  0  0  0  0  0  0  0  0
   -2.1370    3.8946    0.0000 C   0  0  0  0  0  0  0  0  0  0  0  0
   -1.7245    3.1802    0.0000 C   0  0  0  0  0  0  0  0  0  0  0  0
   -2.5495    3.1802    0.0000 C   0  0  0  0  0  0  0  0  0  0  0  0
   -3.8549    6.5704    0.0000 C   0  0  0  0  0  0  0  0  0  0  0  0
   -4.1904    5.8167    0.0000 C   0  0  0  0  0  0  0  0  0  0  0  0
   -4.3398    7.2378    0.0000 C   0  0  0  0  0  0  0  0  0  0  0  0
   -4.0042    7.9915    0.0000 C   0  0  0  0  0  0  0  0  0  0  0  0
   -4.4892    8.6589    0.0000 F   0  0  0  0  0  0  0  0  0  0  0  0
   -3.4825   10.9200    0.0000 N   0  0  0  0  0  0  0  0  0  0  0  0
   -6.1974   12.7374    0.0000 H   0  0  0  0  0  0  0  0  0  0  0  0
   -6.3913   10.8943    0.0000 H   0  0  0  0  0  0  0  0  0  0  0  0
   -6.8264   11.8718    0.0000 H   0  0  0  0  0  0  0  0  0  0  0  0
   -3.8777   11.5618    0.0000 H   0  0  0  0  0  0  0  0  0  0  0  0
   -5.2351   10.0543    0.0000 H   0  0  0  0  0  0  0  0  0  0  0  0
   -3.5421   10.8082    0.0000 H   0  0  0  0  0  0  0  0  0  0  0  0
   -4.1709    9.9425    0.0000 H   0  0  0  0  0  0  0  0  0  0  0  0
   -5.6933   13.4446    0.0000 H   0  0  0  0  0  0  0  0  0  0  0  0
   -1.9068   12.7027    0.0000 H   0  0  0  0  0  0  0  0  0  0  0  0
   -0.8152   11.2002    0.0000 H   0  0  0  0  0  0  0  0  0  0  0  0
   -1.5705    9.5039    0.0000 H   0  0  0  0  0  0  0  0  0  0  0  0
   -4.3122    9.3959    0.0000 H   0  0  0  0  0  0  0  0  0  0  0  0
   -1.6725    7.5182    0.0000 H   0  0  0  0  0  0  0  0  0  0  0  0
   -1.1179    6.8241    0.0000 H   0  0  0  0  0  0  0  0  0  0  0  0
   -3.7859    4.8857    0.0000 H   0  0  0  0  0  0  0  0  0  0  0  0
   -2.1370    2.8246    0.0000 H   0  0  0  0  0  0  0  0  0  0  0  0
   -0.7978    2.6452    0.0000 H   0  0  0  0  0  0  0  0  0  0  0  0
   -2.0014    2.1467    0.0000 H   0  0  0  0  0  0  0  0  0  0  0  0
   -3.4762    2.6452    0.0000 H   0  0  0  0  0  0  0  0  0  0  0  0
   -3.3061    3.9368    0.0000 H   0  0  0  0  0  0  0  0  0  0  0  0
   -5.2545    5.7048    0.0000 H   0  0  0  0  0  0  0  0  0  0  0  0
   -3.5614    4.9511    0.0000 H   0  0  0  0  0  0  0  0  0  0  0  0
   -4.6255    4.8392    0.0000 H   0  0  0  0  0  0  0  0  0  0  0  0
   -5.3661    7.1299    0.0000 H   0  0  0  0  0  0  0  0  0  0  0  0
  1  2  1  0  0  0  0
  1 34  1  0  0  0  0
  1 35  1  0  0  0  0
  1 36  1  0  0  0  0
  2  3  1  0  0  0  0
  2  4  1  0  0  0  0
  2 37  1  0  0  0  0
  3 38  1  0  0  0  0
  3 39  1  0  0  0  0
  3 40  1  0  0  0  0
  4  5  1  0  0  0  0
  4  8  1  0  0  0  0
  5  6  2  0  0  0  0
  5 41  1  0  0  0  0
  6  7  1  0  0  0  0
  7  8  2  0  0  0  0
  8  9  1  0  0  0  0
  9 10  2  0  0  0  0
  9 33  1  0  0  0  0
 10 11  1  0  0  0  0
 10 42  1  0  0  0  0
 11 12  2  0  0  0  0
 11 43  1  0  0  0  0
 12 13  1  0  0  0  0
 12 44  1  0  0  0  0
 13 14  1  0  0  0  0
 13 33  2  0  0  0  0
 14 15  1  0  0  0  0
 14 45  1  0  0  0  0
 15 16  2  0  0  0  0
 15 17  1  0  0  0  0
 17 18  2  0  0  0  0
 17 31  1  0  0  0  0
 18 19  1  0  0  0  0
 18 46  1  0  0  0  0
 19 20  1  0  0  0  0
 19 28  2  0  0  0  0
 20 21  1  0  0  0  0
 20 24  1  0  0  0  0
 21 22  2  0  0  0  0
 21 47  1  0  0  0  0
 22 23  1  0  0  0  0
 23 24  2  0  0  0  0
 23 25  1  0  0  0  0
 24 48  1  0  0  0  0
 25 26  1  0  0  0  0
 25 27  1  0  0  0  0
 25 49  1  0  0  0  0
 26 27  1  0  0  0  0
 26 50  1  0  0  0  0
 26 51  1  0  0  0  0
 27 52  1  0  0  0  0
 27 53  1  0  0  0  0
 28 29  1  0  0  0  0
 28 30  1  0  0  0  0
 29 54  1  0  0  0  0
 29 55  1  0  0  0  0
 29 56  1  0  0  0  0
 30 31  2  0  0  0  0
 30 57  1  0  0  0  0
 31 32  1  0  0  0  0
M  END
>  <DRUGBANK_ID>
DB14916

>  <COMMON_NAME>
Selonsertib

>  <CAS_NUMBER>
1448428-04-3

>  <UNII>
NS3988A2TC

>  <SYNONYMS>
5-(4-Cyclopropyl-1H-imidazol-1-yl)-2-fluoro-4-methyl-N-{6-[4-(propan-2-yl)-4H-1,2,4-triazol-3-yl]pyridin-2-yl}benzamide; 5-(4-Cyclopropyl-1H-imidazol-l-yl)-2-fluoro-N-(6-(4-isopropyl-4H-1,2,4-triazol-3-yl)pyridin-2-yl)-4-methylbenzamide; BENZAMIDE, 5-(4-CYCLOPROPYL-1H-IMIDAZOL-1-YL)-2-FLUORO-4-METHYL-N-(6-(4-(1-METHYLETHYL)-4H-1,2,4-TRIAZOL-3-YL)-2-PYRIDINYL); Selonsertib

$$$$
