
 OpenBabel10282417072D

 43 44  0  0  0  0  0  0  0  0999 V2000
    2.4453    0.7144    0.0000 C   0  0  0  0  0  0  0  0  0  0  0  0
    3.2703   -0.7144    0.0000 C   0  0  0  0  0  0  0  0  0  0  0  0
    8.5736    1.6500    0.0000 C   0  0  0  0  0  0  0  0  0  0  0  0
    7.8591    1.2375    0.0000 C   0  0  0  0  0  0  0  0  0  0  0  0
    0.0000    0.0000    0.0000 C   0  0  0  0  0  0  0  0  0  0  0  0
    0.7144    1.2375    0.0000 C   0  0  0  0  0  0  0  0  0  0  0  0
    0.7144   -0.4125    0.0000 C   0  0  0  0  0  0  0  0  0  0  0  0
    1.4289    0.8250    0.0000 C   0  0  0  0  0  0  0  0  0  0  0  0
    9.2881    1.2375    0.0000 C   0  0  0  0  0  0  0  0  0  0  0  0
    5.7157    0.0000    0.0000 C   0  0  0  0  0  0  0  0  0  0  0  0
    5.0012    0.4125    0.0000 C   0  0  0  0  0  0  0  0  0  0  0  0
    8.5736    0.0000    0.0000 C   0  0  0  0  0  0  0  0  0  0  0  0
    7.8591    0.4125    0.0000 C   0  0  0  0  0  0  0  0  0  0  0  0
    0.0000    0.8250    0.0000 C   0  0  0  0  0  0  0  0  0  0  0  0
    1.4289    0.0000    0.0000 C   0  0  0  0  0  0  0  0  0  0  0  0
    7.1447    0.0000    0.0000 C   0  0  0  0  0  0  0  0  0  0  0  0
    3.5723    0.4125    0.0000 C   0  0  0  0  0  0  0  0  0  0  0  0
    2.8578    0.0000    0.0000 C   0  0  0  0  0  0  0  0  0  0  0  0
   -0.7144    1.2375    0.0000 Cl  0  0  0  0  0  0  0  0  0  0  0  0
    9.2881    0.4125    0.0000 N   0  0  0  0  0  0  0  0  0  0  0  0
    7.1447   -0.8250    0.0000 O   0  0  0  0  0  0  0  0  0  0  0  0
    3.5723    1.2375    0.0000 O   0  0  0  0  0  0  0  0  0  0  0  0
    6.4302    0.4125    0.0000 O   0  0  0  0  0  0  0  0  0  0  0  0
    4.2868    0.0000    0.0000 O   0  0  0  0  0  0  0  0  0  0  0  0
    2.1434   -0.4125    0.0000 O   0  0  0  0  0  0  0  0  0  0  0  0
    2.9803    1.6411    0.0000 H   0  0  0  0  0  0  0  0  0  0  0  0
    1.3753    0.7144    0.0000 H   0  0  0  0  0  0  0  0  0  0  0  0
    1.9103    1.6410    0.0000 H   0  0  0  0  0  0  0  0  0  0  0  0
    2.7353   -1.6411    0.0000 H   0  0  0  0  0  0  0  0  0  0  0  0
    4.3403   -0.7144    0.0000 H   0  0  0  0  0  0  0  0  0  0  0  0
    3.8053   -1.6410    0.0000 H   0  0  0  0  0  0  0  0  0  0  0  0
    8.5736    2.6820    0.0000 H   0  0  0  0  0  0  0  0  0  0  0  0
    6.9654    1.7535    0.0000 H   0  0  0  0  0  0  0  0  0  0  0  0
   -0.8937   -0.5160    0.0000 H   0  0  0  0  0  0  0  0  0  0  0  0
    0.7144    2.2695    0.0000 H   0  0  0  0  0  0  0  0  0  0  0  0
    0.7144   -1.4445    0.0000 H   0  0  0  0  0  0  0  0  0  0  0  0
    2.3226    1.3410    0.0000 H   0  0  0  0  0  0  0  0  0  0  0  0
   10.1818    1.7535    0.0000 H   0  0  0  0  0  0  0  0  0  0  0  0
    5.7157   -1.0700    0.0000 H   0  0  0  0  0  0  0  0  0  0  0  0
    6.6423   -0.5350    0.0000 H   0  0  0  0  0  0  0  0  0  0  0  0
    5.0012    1.4825    0.0000 H   0  0  0  0  0  0  0  0  0  0  0  0
    4.0745    0.9475    0.0000 H   0  0  0  0  0  0  0  0  0  0  0  0
    8.5736   -1.0320    0.0000 H   0  0  0  0  0  0  0  0  0  0  0  0
  1 26  1  0  0  0  0
  1 27  1  0  0  0  0
  1 28  1  0  0  0  0
  2 29  1  0  0  0  0
  2 30  1  0  0  0  0
  2 31  1  0  0  0  0
  3 32  1  0  0  0  0
  4  3  2  0  0  0  0
  4 33  1  0  0  0  0
  5 34  1  0  0  0  0
  6 35  1  0  0  0  0
  7  5  1  0  0  0  0
  7 36  1  0  0  0  0
  8  6  2  0  0  0  0
  8 37  1  0  0  0  0
  9  3  1  0  0  0  0
  9 38  1  0  0  0  0
 10 39  1  0  0  0  0
 10 40  1  0  0  0  0
 11 10  1  0  0  0  0
 11 41  1  0  0  0  0
 11 42  1  0  0  0  0
 12 43  1  0  0  0  0
 13  4  1  0  0  0  0
 13 12  2  0  0  0  0
 14  5  2  0  0  0  0
 14  6  1  0  0  0  0
 15  7  2  0  0  0  0
 15  8  1  0  0  0  0
 16 13  1  0  0  0  0
 18  1  1  0  0  0  0
 18  2  1  0  0  0  0
 18 17  1  0  0  0  0
 19 14  1  0  0  0  0
 20  9  2  0  0  0  0
 20 12  1  0  0  0  0
 21 16  2  0  0  0  0
 22 17  2  0  0  0  0
 23 10  1  0  0  0  0
 23 16  1  0  0  0  0
 24 11  1  0  0  0  0
 24 17  1  0  0  0  0
 25 15  1  0  0  0  0
 25 18  1  0  0  0  0
M  END
>  <DRUGBANK_ID>
DB08983

>  <COMMON_NAME>
Etofibrate

>  <CAS_NUMBER>
31637-97-5

>  <UNII>
23TF67G79M

>  <SYNONYMS>
Etofibrate; Etofibrato; Etofibratum

$$$$
