3IL
 OpenBabel10282417072D

 26 27  0  0  0  0  0  0  0  0999 V2000
   -0.2404   -1.4754    0.0000 N   0  0  0  0  0  0  0  0  0  0  0  0
   -0.7254   -0.8079    0.0000 C   0  0  0  0  0  0  0  0  0  0  0  0
   -0.2404   -0.1405    0.0000 C   0  0  0  0  0  0  0  0  0  0  0  0
    1.2587    0.0171    0.0000 C   0  0  0  0  0  0  0  0  0  0  0  0
    1.9731   -0.3954    0.0000 C   0  0  0  0  0  0  0  0  0  0  0  0
    1.9731   -1.2204    0.0000 C   0  0  0  0  0  0  0  0  0  0  0  0
    1.2587   -1.6329    0.0000 C   0  0  0  0  0  0  0  0  0  0  0  0
    0.5442   -1.2204    0.0000 C   0  0  0  0  0  0  0  0  0  0  0  0
    0.5442   -0.3954    0.0000 C   0  0  0  0  0  0  0  0  0  0  0  0
   -1.5573    1.6003    0.0000 C   0  0  0  0  0  0  0  0  0  0  0  0
   -2.3642    1.7718    0.0000 O   0  0  0  0  0  0  0  0  0  0  0  0
   -1.0052    2.2134    0.0000 O   0  0  0  0  0  0  0  0  0  0  0  0
   -1.3023    0.8157    0.0000 C   0  0  1  0  0  0  0  0  0  0  0  0
   -1.8544    0.2026    0.0000 O   0  0  0  0  0  0  0  0  0  0  0  0
   -0.4954    0.6441    0.0000 C   0  0  0  0  0  0  0  0  0  0  0  0
   -1.8735    0.9371    0.0000 H   0  0  0  0  0  0  0  0  0  0  0  0
   -0.5446   -2.4117    0.0000 H   0  0  0  0  0  0  0  0  0  0  0  0
   -1.7574   -0.8079    0.0000 H   0  0  0  0  0  0  0  0  0  0  0  0
    1.2587    1.0491    0.0000 H   0  0  0  0  0  0  0  0  0  0  0  0
    2.8668    0.1206    0.0000 H   0  0  0  0  0  0  0  0  0  0  0  0
    2.8668   -1.7364    0.0000 H   0  0  0  0  0  0  0  0  0  0  0  0
    1.2587   -2.6649    0.0000 H   0  0  0  0  0  0  0  0  0  0  0  0
   -2.6538    2.6629    0.0000 H   0  0  0  0  0  0  0  0  0  0  0  0
   -2.8032    0.4043    0.0000 H   0  0  0  0  0  0  0  0  0  0  0  0
    0.2206    1.4393    0.0000 H   0  0  0  0  0  0  0  0  0  0  0  0
   -0.8260    1.6617    0.0000 H   0  0  0  0  0  0  0  0  0  0  0  0
  1  2  1  0  0  0  0
  1  8  1  0  0  0  0
  1 17  1  0  0  0  0
  2  3  2  0  0  0  0
  2 18  1  0  0  0  0
  3  9  1  0  0  0  0
  3 15  1  0  0  0  0
  4  5  2  0  0  0  0
  4  9  1  0  0  0  0
  4 19  1  0  0  0  0
  5  6  1  0  0  0  0
  5 20  1  0  0  0  0
  6  7  2  0  0  0  0
  6 21  1  0  0  0  0
  7  8  1  0  0  0  0
  7 22  1  0  0  0  0
  8  9  2  0  0  0  0
 10 11  1  0  0  0  0
 10 12  2  0  0  0  0
 10 13  1  0  0  0  0
 11 23  1  0  0  0  0
 13 14  1  0  0  0  0
 13 15  1  0  0  0  0
 13 16  1  1  0  0  0
 14 24  1  0  0  0  0
 15 25  1  0  0  0  0
 15 26  1  0  0  0  0
M  END
>  <DRUGBANK_ID>
DB07060

>  <COMMON_NAME>
3-(INDOL-3-YL) LACTATE

>  <UNII>
DJ9KH2U67F

$$$$
