4BT
 OpenBabel10282417072D

 36 36  0  0  0  0  0  0  0  0999 V2000
    1.7901    1.0539    0.0000 C   0  0  0  0  0  0  0  0  0  0  0  0
    1.0756    1.4664    0.0000 C   0  0  0  0  0  0  0  0  0  0  0  0
   -1.0678    0.2289    0.0000 C   0  0  0  0  0  0  0  0  0  0  0  0
   -1.0678    1.0539    0.0000 C   0  0  0  0  0  0  0  0  0  0  0  0
   -0.3533    1.4664    0.0000 C   0  0  0  0  0  0  0  0  0  0  0  0
    0.3612    1.0539    0.0000 C   0  0  0  0  0  0  0  0  0  0  0  0
    0.3612    0.2289    0.0000 C   0  0  0  0  0  0  0  0  0  0  0  0
   -0.3533   -0.1836    0.0000 C   0  0  0  0  0  0  0  0  0  0  0  0
   -1.7822   -0.1836    0.0000 C   0  0  0  0  0  0  0  0  0  0  0  0
   -1.7822   -1.0086    0.0000 C   0  0  0  0  0  0  0  0  0  0  0  0
   -3.2112   -2.6586    0.0000 N   0  0  0  0  0  0  0  0  0  0  0  0
   -2.4967   -2.2461    0.0000 C   0  0  0  0  0  0  0  0  0  0  0  0
   -2.4967   -1.4211    0.0000 S   0  0  0  0  0  0  0  0  0  0  0  0
   -1.7822   -2.6586    0.0000 N   0  0  0  0  0  0  0  0  0  0  0  0
    3.9335    1.4664    0.0000 N   0  0  0  0  0  0  0  0  0  0  0  0
    3.2191    1.0539    0.0000 C   0  0  0  0  0  0  0  0  0  0  0  0
    2.5046    1.4664    0.0000 S   0  0  0  0  0  0  0  0  0  0  0  0
    3.2191    0.2289    0.0000 N   0  0  0  0  0  0  0  0  0  0  0  0
    1.7901   -0.0161    0.0000 H   0  0  0  0  0  0  0  0  0  0  0  0
    2.7167    0.5189    0.0000 H   0  0  0  0  0  0  0  0  0  0  0  0
    1.0756    2.5364    0.0000 H   0  0  0  0  0  0  0  0  0  0  0  0
    0.1489    2.0014    0.0000 H   0  0  0  0  0  0  0  0  0  0  0  0
   -1.9615    1.5699    0.0000 H   0  0  0  0  0  0  0  0  0  0  0  0
   -0.3533    2.4984    0.0000 H   0  0  0  0  0  0  0  0  0  0  0  0
    1.2549   -0.2871    0.0000 H   0  0  0  0  0  0  0  0  0  0  0  0
   -0.3533   -1.2156    0.0000 H   0  0  0  0  0  0  0  0  0  0  0  0
   -2.7089    0.3514    0.0000 H   0  0  0  0  0  0  0  0  0  0  0  0
   -2.7088   -0.7186    0.0000 H   0  0  0  0  0  0  0  0  0  0  0  0
   -0.8556   -1.5436    0.0000 H   0  0  0  0  0  0  0  0  0  0  0  0
   -1.7822   -2.0786    0.0000 H   0  0  0  0  0  0  0  0  0  0  0  0
   -4.0638   -2.1663    0.0000 H   0  0  0  0  0  0  0  0  0  0  0  0
   -3.2112   -3.6431    0.0000 H   0  0  0  0  0  0  0  0  0  0  0  0
   -1.7822   -3.6431    0.0000 H   0  0  0  0  0  0  0  0  0  0  0  0
    4.7861    0.9742    0.0000 H   0  0  0  0  0  0  0  0  0  0  0  0
    3.9335    2.4509    0.0000 H   0  0  0  0  0  0  0  0  0  0  0  0
    2.3665   -0.2634    0.0000 H   0  0  0  0  0  0  0  0  0  0  0  0
  1  2  1  0  0  0  0
  1 17  1  0  0  0  0
  1 19  1  0  0  0  0
  1 20  1  0  0  0  0
  2  6  1  0  0  0  0
  2 21  1  0  0  0  0
  2 22  1  0  0  0  0
  3  4  2  0  0  0  0
  3  8  1  0  0  0  0
  3  9  1  0  0  0  0
  4  5  1  0  0  0  0
  4 23  1  0  0  0  0
  5  6  2  0  0  0  0
  5 24  1  0  0  0  0
  6  7  1  0  0  0  0
  7  8  2  0  0  0  0
  7 25  1  0  0  0  0
  8 26  1  0  0  0  0
  9 10  1  0  0  0  0
  9 27  1  0  0  0  0
  9 28  1  0  0  0  0
 10 13  1  0  0  0  0
 10 29  1  0  0  0  0
 10 30  1  0  0  0  0
 11 12  1  0  0  0  0
 11 31  1  0  0  0  0
 11 32  1  0  0  0  0
 12 13  1  0  0  0  0
 12 14  2  0  0  0  0
 14 33  1  0  0  0  0
 15 16  1  0  0  0  0
 15 34  1  0  0  0  0
 15 35  1  0  0  0  0
 16 17  1  0  0  0  0
 16 18  2  0  0  0  0
 18 36  1  0  0  0  0
M  END
>  <DRUGBANK_ID>
DB02141

>  <SECONDARY_ACCESSION_NUMBERS>
EXPT00205

>  <COMMON_NAME>
S,S'-(1,4-Phenylene-Bis(1,2-Ethanediyl))Bis-Isothiourea

$$$$
