
 OpenBabel10282417072D

 17 17  0  0  0  0  0  0  0  0999 V2000
    1.4294   -0.4132    0.0000 O   0  0  0  0  0  0  0  0  0  0  0  0
    1.4294   -1.2382    0.0000 C   0  0  0  0  0  0  0  0  0  0  0  0
   -1.4294    1.2382    0.0000 O   0  0  0  0  0  0  0  0  0  0  0  0
   -0.7144    0.8243    0.0000 C   0  0  0  0  0  0  0  0  0  0  0  0
    0.0006    1.2367    0.0000 C   0  0  0  0  0  0  0  0  0  0  0  0
    0.7144    0.8243    0.0000 C   0  0  0  0  0  0  0  0  0  0  0  0
    0.7144   -0.0007    0.0000 C   0  0  0  0  0  0  0  0  0  0  0  0
   -0.0007   -0.4132    0.0000 C   0  0  0  0  0  0  0  0  0  0  0  0
   -0.7144    0.0007    0.0000 C   0  0  0  0  0  0  0  0  0  0  0  0
    0.5028   -1.7732    0.0000 H   0  0  0  0  0  0  0  0  0  0  0  0
    2.3560   -1.7732    0.0000 H   0  0  0  0  0  0  0  0  0  0  0  0
    1.4294   -2.3082    0.0000 H   0  0  0  0  0  0  0  0  0  0  0  0
   -1.4283    2.1752    0.0000 H   0  0  0  0  0  0  0  0  0  0  0  0
    0.0010    2.2687    0.0000 H   0  0  0  0  0  0  0  0  0  0  0  0
    1.6082    1.3402    0.0000 H   0  0  0  0  0  0  0  0  0  0  0  0
   -0.0019   -1.4452    0.0000 H   0  0  0  0  0  0  0  0  0  0  0  0
   -1.6086   -0.5144    0.0000 H   0  0  0  0  0  0  0  0  0  0  0  0
  1  2  1  0  0  0  0
  1  7  1  0  0  0  0
  2 10  1  0  0  0  0
  2 11  1  0  0  0  0
  2 12  1  0  0  0  0
  3  4  1  0  0  0  0
  3 13  1  0  0  0  0
  4  5  2  0  0  0  0
  4  9  1  0  0  0  0
  5  6  1  0  0  0  0
  5 14  1  0  0  0  0
  6  7  2  0  0  0  0
  6 15  1  0  0  0  0
  7  8  1  0  0  0  0
  8  9  2  0  0  0  0
  8 16  1  0  0  0  0
  9 17  1  0  0  0  0
M  END
>  <DRUGBANK_ID>
DB09516

>  <COMMON_NAME>
Mequinol

>  <CAS_NUMBER>
150-76-5

>  <UNII>
6HT8U7K3AM

>  <SYNONYMS>
4-Methoxyphenol; Mequinol

$$$$
