
 OpenBabel10282417072D

 75 78  0  0  1  0  0  0  0  0999 V2000
   -2.0545   -1.0852    0.0000 C   0  0  0  0  0  0  0  0  0  0  0  0
   -1.5025   -0.4721    0.0000 O   0  0  0  0  0  0  0  0  0  0  0  0
   -1.7575    0.3126    0.0000 C   0  0  0  0  0  0  0  0  0  0  0  0
   -2.5644    0.4841    0.0000 C   0  0  0  0  0  0  0  0  0  0  0  0
   -2.8194    1.2687    0.0000 C   0  0  0  0  0  0  0  0  0  0  0  0
   -2.2673    1.8818    0.0000 C   0  0  0  0  0  0  0  0  0  0  0  0
   -1.4604    1.7103    0.0000 C   0  0  0  0  0  0  0  0  0  0  0  0
   -1.2054    0.9256    0.0000 C   0  0  0  0  0  0  0  0  0  0  0  0
   -0.3984    0.7541    0.0000 C   0  0  0  0  0  0  0  0  0  0  0  0
   -0.1435   -0.0305    0.0000 C   0  0  0  0  0  0  0  0  0  0  0  0
   -0.6284   -0.6979    0.0000 C   0  0  0  0  0  0  0  0  0  0  0  0
   -0.1435   -1.3654    0.0000 N   0  0  0  0  0  0  0  0  0  0  0  0
   -0.3984   -2.1500    0.0000 C   0  0  0  0  0  0  0  0  0  0  0  0
    0.6411   -1.1104    0.0000 C   0  0  0  0  0  0  0  0  0  0  0  0
    0.6411   -0.2854    0.0000 C   0  0  0  0  0  0  0  0  0  0  0  0
    1.3556    0.1271    0.0000 C   0  0  0  0  0  0  0  0  0  0  0  0
    2.0701   -0.2854    0.0000 C   0  0  0  0  0  0  0  0  0  0  0  0
    2.0701   -1.1104    0.0000 C   0  0  0  0  0  0  0  0  0  0  0  0
    1.3556   -1.5229    0.0000 C   0  0  0  0  0  0  0  0  0  0  0  0
    2.7845    0.1271    0.0000 C   0  0  0  0  0  0  0  0  0  0  0  0
    2.7845    0.9521    0.0000 O   0  0  0  0  0  0  0  0  0  0  0  0
    3.4990   -0.2854    0.0000 N   0  0  0  0  0  0  0  0  0  0  0  0
    4.2135    0.1271    0.0000 C   0  0  0  0  0  0  0  0  0  0  0  0
    4.9279   -0.2854    0.0000 C   0  0  2  0  0  0  0  0  0  0  0  0
    4.9279   -1.1104    0.0000 C   0  0  0  0  0  0  0  0  0  0  0  0
    5.6424    0.1271    0.0000 C   0  0  0  0  0  0  0  0  0  0  0  0
    6.3569   -0.2854    0.0000 C   0  0  0  0  0  0  0  0  0  0  0  0
    7.0714   -0.6979    0.0000 F   0  0  0  0  0  0  0  0  0  0  0  0
    6.7694    0.4290    0.0000 F   0  0  0  0  0  0  0  0  0  0  0  0
    5.9444   -0.9999    0.0000 F   0  0  0  0  0  0  0  0  0  0  0  0
   -3.6263    1.4402    0.0000 C   0  0  0  0  0  0  0  0  0  0  0  0
   -3.8813    2.2248    0.0000 O   0  0  0  0  0  0  0  0  0  0  0  0
   -4.1784    0.8271    0.0000 N   0  0  0  0  0  0  0  0  0  0  0  0
   -4.9853    0.9987    0.0000 S   0  0  0  0  0  0  0  0  0  0  0  0
   -4.8138    1.8056    0.0000 O   0  0  0  0  0  0  0  0  0  0  0  0
   -5.1569    0.1917    0.0000 O   0  0  0  0  0  0  0  0  0  0  0  0
   -5.7923    1.1702    0.0000 C   0  0  0  0  0  0  0  0  0  0  0  0
   -6.3443    0.5571    0.0000 C   0  0  0  0  0  0  0  0  0  0  0  0
   -7.1513    0.7286    0.0000 C   0  0  0  0  0  0  0  0  0  0  0  0
   -7.4063    1.5132    0.0000 C   0  0  0  0  0  0  0  0  0  0  0  0
   -6.8542    2.1263    0.0000 C   0  0  0  0  0  0  0  0  0  0  0  0
   -6.0472    1.9548    0.0000 C   0  0  0  0  0  0  0  0  0  0  0  0
   -5.4952    2.5679    0.0000 C   0  0  0  0  0  0  0  0  0  0  0  0
   -3.1011   -0.8628    0.0000 H   0  0  0  0  0  0  0  0  0  0  0  0
   -1.7238   -2.1028    0.0000 H   0  0  0  0  0  0  0  0  0  0  0  0
   -2.7704   -1.8804    0.0000 H   0  0  0  0  0  0  0  0  0  0  0  0
   -3.2549   -0.2829    0.0000 H   0  0  0  0  0  0  0  0  0  0  0  0
   -2.5862    2.8633    0.0000 H   0  0  0  0  0  0  0  0  0  0  0  0
   -0.7699    2.4772    0.0000 H   0  0  0  0  0  0  0  0  0  0  0  0
    0.3176    1.5493    0.0000 H   0  0  0  0  0  0  0  0  0  0  0  0
    0.6482    0.5316    0.0000 H   0  0  0  0  0  0  0  0  0  0  0  0
   -1.6604   -0.6979    0.0000 H   0  0  0  0  0  0  0  0  0  0  0  0
   -1.4450   -2.3725    0.0000 H   0  0  0  0  0  0  0  0  0  0  0  0
    0.3176   -2.9451    0.0000 H   0  0  0  0  0  0  0  0  0  0  0  0
   -0.7290   -3.1676    0.0000 H   0  0  0  0  0  0  0  0  0  0  0  0
    1.3556    1.1591    0.0000 H   0  0  0  0  0  0  0  0  0  0  0  0
    2.9638   -1.6264    0.0000 H   0  0  0  0  0  0  0  0  0  0  0  0
    1.3556   -2.5549    0.0000 H   0  0  0  0  0  0  0  0  0  0  0  0
    3.4990   -1.2699    0.0000 H   0  0  0  0  0  0  0  0  0  0  0  0
    4.2135    1.1971    0.0000 H   0  0  0  0  0  0  0  0  0  0  0  0
    5.1402    0.6621    0.0000 H   0  0  0  0  0  0  0  0  0  0  0  0
    4.0012   -0.8204    0.0000 H   0  0  0  0  0  0  0  0  0  0  0  0
    4.0013   -1.6454    0.0000 H   0  0  0  0  0  0  0  0  0  0  0  0
    5.8545   -1.6454    0.0000 H   0  0  0  0  0  0  0  0  0  0  0  0
    4.9279   -2.1804    0.0000 H   0  0  0  0  0  0  0  0  0  0  0  0
    5.6424    1.1971    0.0000 H   0  0  0  0  0  0  0  0  0  0  0  0
    6.5690    0.6621    0.0000 H   0  0  0  0  0  0  0  0  0  0  0  0
   -3.8742   -0.1092    0.0000 H   0  0  0  0  0  0  0  0  0  0  0  0
   -6.0254   -0.4244    0.0000 H   0  0  0  0  0  0  0  0  0  0  0  0
   -7.8418   -0.0384    0.0000 H   0  0  0  0  0  0  0  0  0  0  0  0
   -8.4158    1.7278    0.0000 H   0  0  0  0  0  0  0  0  0  0  0  0
   -7.1731    3.1078    0.0000 H   0  0  0  0  0  0  0  0  0  0  0  0
   -4.4486    2.3455    0.0000 H   0  0  0  0  0  0  0  0  0  0  0  0
   -5.8259    3.5855    0.0000 H   0  0  0  0  0  0  0  0  0  0  0  0
   -4.7793    3.3631    0.0000 H   0  0  0  0  0  0  0  0  0  0  0  0
  1  2  1  0  0  0  0
  1 44  1  0  0  0  0
  1 45  1  0  0  0  0
  1 46  1  0  0  0  0
  2  3  1  0  0  0  0
  3  4  2  0  0  0  0
  3  8  1  0  0  0  0
  4  5  1  0  0  0  0
  4 47  1  0  0  0  0
  5  6  2  0  0  0  0
  5 31  1  0  0  0  0
  6  7  1  0  0  0  0
  6 48  1  0  0  0  0
  7  8  2  0  0  0  0
  7 49  1  0  0  0  0
  8  9  1  0  0  0  0
  9 10  1  0  0  0  0
  9 50  1  0  0  0  0
  9 51  1  0  0  0  0
 10 11  2  0  0  0  0
 10 15  1  0  0  0  0
 11 12  1  0  0  0  0
 11 52  1  0  0  0  0
 12 13  1  0  0  0  0
 12 14  1  0  0  0  0
 13 53  1  0  0  0  0
 13 54  1  0  0  0  0
 13 55  1  0  0  0  0
 14 15  2  0  0  0  0
 14 19  1  0  0  0  0
 15 16  1  0  0  0  0
 16 17  2  0  0  0  0
 16 56  1  0  0  0  0
 17 18  1  0  0  0  0
 17 20  1  0  0  0  0
 18 19  2  0  0  0  0
 18 57  1  0  0  0  0
 19 58  1  0  0  0  0
 20 21  2  0  0  0  0
 20 22  1  0  0  0  0
 22 23  1  0  0  0  0
 22 59  1  0  0  0  0
 23 60  1  0  0  0  0
 23 61  1  0  0  0  0
 24 23  1  0  0  0  0
 24 25  1  0  0  0  0
 24 26  1  0  0  0  0
 24 62  1  6  0  0  0
 25 63  1  0  0  0  0
 25 64  1  0  0  0  0
 25 65  1  0  0  0  0
 26 27  1  0  0  0  0
 26 66  1  0  0  0  0
 26 67  1  0  0  0  0
 27 28  1  0  0  0  0
 27 29  1  0  0  0  0
 27 30  1  0  0  0  0
 31 32  2  0  0  0  0
 31 33  1  0  0  0  0
 33 34  1  0  0  0  0
 33 68  1  0  0  0  0
 34 35  2  0  0  0  0
 34 36  2  0  0  0  0
 34 37  1  0  0  0  0
 37 38  2  0  0  0  0
 37 42  1  0  0  0  0
 38 39  1  0  0  0  0
 38 69  1  0  0  0  0
 39 40  2  0  0  0  0
 39 70  1  0  0  0  0
 40 41  1  0  0  0  0
 40 71  1  0  0  0  0
 41 42  2  0  0  0  0
 41 72  1  0  0  0  0
 42 43  1  0  0  0  0
 43 73  1  0  0  0  0
 43 74  1  0  0  0  0
 43 75  1  0  0  0  0
M  END
>  <DRUGBANK_ID>
DB16227

>  <COMMON_NAME>
Masilukast

>  <CAS_NUMBER>
136564-68-6

>  <UNII>
2QJ3R1H23S

>  <SYNONYMS>
Masilukast

$$$$
