
 OpenBabel10282417072D

 27 27  0  0  0  0  0  0  0  0999 V2000
   -0.3572    0.6972    0.0000 O   0  0  0  0  0  0  0  0  0  0  0  0
   -0.3572   -1.7780    0.0000 O   0  0  0  0  0  0  0  0  0  0  0  0
   -1.7863   -0.9529    0.0000 O   0  0  0  0  0  0  0  0  0  0  0  0
    1.0717   -0.9529    0.0000 O   0  0  0  0  0  0  0  0  0  0  0  0
   -1.7863    1.5222    0.0000 O   0  0  0  0  0  0  0  0  0  0  0  0
    1.7863    0.2846    0.0000 O   0  0  0  0  0  0  0  0  0  0  0  0
    1.0717    1.5222    0.0000 N   0  0  0  0  0  0  0  0  0  0  0  0
   -0.3572   -0.9529    0.0000 C   0  0  1  0  0  0  0  0  0  0  0  0
   -1.0717   -0.5403    0.0000 C   0  0  1  0  0  0  0  0  0  0  0  0
    0.3572   -0.5403    0.0000 C   0  0  2  0  0  0  0  0  0  0  0  0
   -1.0717    0.2846    0.0000 C   0  0  1  0  0  0  0  0  0  0  0  0
    0.3572    0.2846    0.0000 C   0  0  1  0  0  0  0  0  0  0  0  0
   -1.7863    0.6972    0.0000 C   0  0  0  0  0  0  0  0  0  0  0  0
    1.0717    0.6972    0.0000 C   0  0  0  0  0  0  0  0  0  0  0  0
    1.5148    1.7780    0.0000 H   0  0  0  0  0  0  0  0  0  0  0  0
    0.6287    1.7780    0.0000 H   0  0  0  0  0  0  0  0  0  0  0  0
   -1.1972   -2.2630    0.0000 H   0  0  0  0  0  0  0  0  0  0  0  0
   -2.6264   -0.4679    0.0000 H   0  0  0  0  0  0  0  0  0  0  0  0
    1.0716   -1.9229    0.0000 H   0  0  0  0  0  0  0  0  0  0  0  0
   -0.9463    2.0072    0.0000 H   0  0  0  0  0  0  0  0  0  0  0  0
   -1.2839   -1.4879    0.0000 H   0  0  0  0  0  0  0  0  0  0  0  0
   -1.0717   -1.6103    0.0000 H   0  0  0  0  0  0  0  0  0  0  0  0
    0.3572   -1.6103    0.0000 H   0  0  0  0  0  0  0  0  0  0  0  0
   -1.0717    1.3546    0.0000 H   0  0  0  0  0  0  0  0  0  0  0  0
    0.3572    1.3546    0.0000 H   0  0  0  0  0  0  0  0  0  0  0  0
   -2.7130    0.1622    0.0000 H   0  0  0  0  0  0  0  0  0  0  0  0
   -1.7863   -0.3728    0.0000 H   0  0  0  0  0  0  0  0  0  0  0  0
  1 11  1  0  0  0  0
  1 12  1  0  0  0  0
  2 17  1  0  0  0  0
  3 18  1  0  0  0  0
  4 19  1  0  0  0  0
  5 13  1  0  0  0  0
  5 20  1  0  0  0  0
  6 14  2  0  0  0  0
  7 14  1  0  0  0  0
  7 15  1  0  0  0  0
  7 16  1  0  0  0  0
  8  2  1  0  0  0  0
  8  9  1  0  0  0  0
  8 10  1  0  0  0  0
  8 21  1  6  0  0  0
  9  3  1  0  0  0  0
  9 11  1  0  0  0  0
  9 22  1  1  0  0  0
 10  4  1  0  0  0  0
 10 12  1  0  0  0  0
 10 23  1  1  0  0  0
 11 13  1  0  0  0  0
 11 24  1  6  0  0  0
 12 14  1  0  0  0  0
 12 25  1  1  0  0  0
 13 26  1  0  0  0  0
 13 27  1  0  0  0  0
M  END
>  <DRUGBANK_ID>
DB02720

>  <SECONDARY_ACCESSION_NUMBERS>
EXPT01605

>  <COMMON_NAME>
alpha-D-glucopyranosyl-2-carboxylic acid amide

>  <CAS_NUMBER>
58825-13-1

$$$$
