
 OpenBabel10282417072D

 49 52  0  0  0  0  0  0  0  0999 V2000
    2.0701    1.1104    0.0000 C   0  0  0  0  0  0  0  0  0  0  0  0
    1.3556    0.6979    0.0000 C   0  0  0  0  0  0  0  0  0  0  0  0
    0.6411    1.1104    0.0000 C   0  0  0  0  0  0  0  0  0  0  0  0
   -0.1435    0.8555    0.0000 C   0  0  0  0  0  0  0  0  0  0  0  0
   -0.6284    1.5229    0.0000 C   0  0  0  0  0  0  0  0  0  0  0  0
   -0.1435    2.1904    0.0000 N   0  0  0  0  0  0  0  0  0  0  0  0
    0.6411    1.9354    0.0000 C   0  0  0  0  0  0  0  0  0  0  0  0
    1.3556    2.3479    0.0000 C   0  0  0  0  0  0  0  0  0  0  0  0
    2.0701    1.9354    0.0000 C   0  0  0  0  0  0  0  0  0  0  0  0
    1.3556    3.1729    0.0000 C   0  0  0  0  0  0  0  0  0  0  0  0
    0.6411    3.5854    0.0000 O   0  0  0  0  0  0  0  0  0  0  0  0
    2.0701    3.5854    0.0000 N   0  0  0  0  0  0  0  0  0  0  0  0
    2.0701    4.4104    0.0000 C   0  0  0  0  0  0  0  0  0  0  0  0
    2.7845    4.8229    0.0000 C   0  0  0  0  0  0  0  0  0  0  0  0
    3.4990    4.4104    0.0000 N   0  0  0  0  0  0  0  0  0  0  0  0
    3.4990    3.5854    0.0000 C   0  0  0  0  0  0  0  0  0  0  0  0
    2.7845    3.1729    0.0000 C   0  0  0  0  0  0  0  0  0  0  0  0
    4.2135    4.8229    0.0000 C   0  0  0  0  0  0  0  0  0  0  0  0
    4.9279    4.4104    0.0000 C   0  0  0  0  0  0  0  0  0  0  0  0
    5.6424    4.8229    0.0000 C   0  0  0  0  0  0  0  0  0  0  0  0
    5.6424    5.6479    0.0000 C   0  0  0  0  0  0  0  0  0  0  0  0
    6.3569    6.0604    0.0000 C   0  0  0  0  0  0  0  0  0  0  0  0
    7.0714    5.6479    0.0000 C   0  0  0  0  0  0  0  0  0  0  0  0
    7.0714    4.8229    0.0000 C   0  0  0  0  0  0  0  0  0  0  0  0
    6.3569    4.4104    0.0000 C   0  0  0  0  0  0  0  0  0  0  0  0
    7.7858    6.0604    0.0000 F   0  0  0  0  0  0  0  0  0  0  0  0
   -0.3984    0.0709    0.0000 C   0  0  0  0  0  0  0  0  0  0  0  0
   -0.6534   -0.7137    0.0000 N   0  0  0  0  0  0  0  0  0  0  0  0
    2.9638    0.5944    0.0000 H   0  0  0  0  0  0  0  0  0  0  0  0
    1.3556   -0.3341    0.0000 H   0  0  0  0  0  0  0  0  0  0  0  0
   -1.6604    1.5229    0.0000 H   0  0  0  0  0  0  0  0  0  0  0  0
   -0.4477    3.1267    0.0000 H   0  0  0  0  0  0  0  0  0  0  0  0
    2.9638    2.4514    0.0000 H   0  0  0  0  0  0  0  0  0  0  0  0
    1.1434    4.9454    0.0000 H   0  0  0  0  0  0  0  0  0  0  0  0
    2.0701    5.4804    0.0000 H   0  0  0  0  0  0  0  0  0  0  0  0
    2.7845    5.8929    0.0000 H   0  0  0  0  0  0  0  0  0  0  0  0
    3.7111    5.3579    0.0000 H   0  0  0  0  0  0  0  0  0  0  0  0
    4.4256    3.0504    0.0000 H   0  0  0  0  0  0  0  0  0  0  0  0
    3.4990    2.5154    0.0000 H   0  0  0  0  0  0  0  0  0  0  0  0
    2.7845    2.1029    0.0000 H   0  0  0  0  0  0  0  0  0  0  0  0
    1.8578    2.6379    0.0000 H   0  0  0  0  0  0  0  0  0  0  0  0
    4.2135    5.8929    0.0000 H   0  0  0  0  0  0  0  0  0  0  0  0
    5.1402    5.3579    0.0000 H   0  0  0  0  0  0  0  0  0  0  0  0
    4.9279    3.3404    0.0000 H   0  0  0  0  0  0  0  0  0  0  0  0
    5.8545    3.8754    0.0000 H   0  0  0  0  0  0  0  0  0  0  0  0
    4.7487    6.1639    0.0000 H   0  0  0  0  0  0  0  0  0  0  0  0
    6.3569    7.0924    0.0000 H   0  0  0  0  0  0  0  0  0  0  0  0
    7.9651    4.3069    0.0000 H   0  0  0  0  0  0  0  0  0  0  0  0
    6.3569    3.3784    0.0000 H   0  0  0  0  0  0  0  0  0  0  0  0
  1  2  1  0  0  0  0
  1  9  2  0  0  0  0
  1 29  1  0  0  0  0
  2  3  2  0  0  0  0
  2 30  1  0  0  0  0
  3  4  1  0  0  0  0
  3  7  1  0  0  0  0
  4  5  2  0  0  0  0
  4 27  1  0  0  0  0
  5  6  1  0  0  0  0
  5 31  1  0  0  0  0
  6  7  1  0  0  0  0
  6 32  1  0  0  0  0
  7  8  2  0  0  0  0
  8  9  1  0  0  0  0
  8 10  1  0  0  0  0
  9 33  1  0  0  0  0
 10 11  2  0  0  0  0
 10 12  1  0  0  0  0
 12 13  1  0  0  0  0
 12 17  1  0  0  0  0
 13 14  1  0  0  0  0
 13 34  1  0  0  0  0
 13 35  1  0  0  0  0
 14 15  1  0  0  0  0
 14 36  1  0  0  0  0
 14 37  1  0  0  0  0
 15 16  1  0  0  0  0
 15 18  1  0  0  0  0
 16 17  1  0  0  0  0
 16 38  1  0  0  0  0
 16 39  1  0  0  0  0
 17 40  1  0  0  0  0
 17 41  1  0  0  0  0
 18 19  1  0  0  0  0
 18 42  1  0  0  0  0
 18 43  1  0  0  0  0
 19 20  1  0  0  0  0
 19 44  1  0  0  0  0
 19 45  1  0  0  0  0
 20 21  2  0  0  0  0
 20 25  1  0  0  0  0
 21 22  1  0  0  0  0
 21 46  1  0  0  0  0
 22 23  2  0  0  0  0
 22 47  1  0  0  0  0
 23 24  1  0  0  0  0
 23 26  1  0  0  0  0
 24 25  2  0  0  0  0
 24 48  1  0  0  0  0
 25 49  1  0  0  0  0
 27 28  3  0  0  0  0
M  END
>  <DRUGBANK_ID>
DB13094

>  <COMMON_NAME>
Pruvanserin

>  <CAS_NUMBER>
443144-26-1

>  <UNII>
UL09X1D9EM

>  <SYNONYMS>
Pruvanserin

$$$$
