1354
 OpenBabel10282417072D

 36 37  0  0  0  0  0  0  0  0999 V2000
    3.5679   -1.0775    0.0000 O   0  0  0  0  0  0  0  0  0  0  0  0
    4.9969    1.3976    0.0000 O   0  0  0  0  0  0  0  0  0  0  0  0
    6.4258   -1.0775    0.0000 O   0  0  0  0  0  0  0  0  0  0  0  0
    4.9969   -1.0775    0.0000 N   0  0  0  0  0  0  0  0  0  0  0  0
    5.7113    0.1601    0.0000 N   0  0  0  0  0  0  0  0  0  0  0  0
    4.2823    0.1601    0.0000 C   0  0  0  0  0  0  0  0  0  0  0  0
    3.4573    0.1601    0.0000 C   0  0  0  0  0  0  0  0  0  0  0  0
    3.0994    0.9033    0.0000 C   0  0  0  0  0  0  0  0  0  0  0  0
    2.2950    1.0870    0.0000 C   0  0  0  0  0  0  0  0  0  0  0  0
    3.8698    0.8745    0.0000 C   0  0  0  0  0  0  0  0  0  0  0  0
    1.6500    0.5726    0.0000 C   0  0  0  0  0  0  0  0  0  0  0  0
    1.6500   -0.2525    0.0000 C   0  0  0  0  0  0  0  0  0  0  0  0
    3.0994   -0.5833    0.0000 C   0  0  0  0  0  0  0  0  0  0  0  0
    2.2950   -0.7669    0.0000 C   0  0  0  0  0  0  0  0  0  0  0  0
    4.2823   -0.6650    0.0000 C   0  0  0  0  0  0  0  0  0  0  0  0
    4.9969    0.5726    0.0000 C   0  0  0  0  0  0  0  0  0  0  0  0
    4.2823    1.5890    0.0000 C   0  0  0  0  0  0  0  0  0  0  0  0
    5.7113   -0.6650    0.0000 C   0  0  0  0  0  0  0  0  0  0  0  0
    4.9970   -2.0620    0.0000 H   0  0  0  0  0  0  0  0  0  0  0  0
    6.5639    0.6523    0.0000 H   0  0  0  0  0  0  0  0  0  0  0  0
    3.7666    1.7398    0.0000 H   0  0  0  0  0  0  0  0  0  0  0  0
    2.7461    1.9133    0.0000 H   0  0  0  0  0  0  0  0  0  0  0  0
    2.0570    2.1302    0.0000 H   0  0  0  0  0  0  0  0  0  0  0  0
    1.2850    1.4404    0.0000 H   0  0  0  0  0  0  0  0  0  0  0  0
    2.7998    0.8745    0.0000 H   0  0  0  0  0  0  0  0  0  0  0  0
    3.3348    1.8011    0.0000 H   0  0  0  0  0  0  0  0  0  0  0  0
    0.6860    1.0368    0.0000 H   0  0  0  0  0  0  0  0  0  0  0  0
    0.7440    0.0033    0.0000 H   0  0  0  0  0  0  0  0  0  0  0  0
    0.6860   -0.7167    0.0000 H   0  0  0  0  0  0  0  0  0  0  0  0
    1.5302   -1.3158    0.0000 H   0  0  0  0  0  0  0  0  0  0  0  0
    3.7429   -1.3901    0.0000 H   0  0  0  0  0  0  0  0  0  0  0  0
    2.0569   -1.8101    0.0000 H   0  0  0  0  0  0  0  0  0  0  0  0
    3.0516   -1.5235    0.0000 H   0  0  0  0  0  0  0  0  0  0  0  0
    5.3523    1.5890    0.0000 H   0  0  0  0  0  0  0  0  0  0  0  0
    3.7473    2.5156    0.0000 H   0  0  0  0  0  0  0  0  0  0  0  0
    4.8173    2.5157    0.0000 H   0  0  0  0  0  0  0  0  0  0  0  0
  1 15  2  0  0  0  0
  2 16  2  0  0  0  0
  3 18  2  0  0  0  0
  4 15  1  0  0  0  0
  4 18  1  0  0  0  0
  4 19  1  0  0  0  0
  5 16  1  0  0  0  0
  5 18  1  0  0  0  0
  5 20  1  0  0  0  0
  6  7  1  0  0  0  0
  6 10  1  0  0  0  0
  6 15  1  0  0  0  0
  6 16  1  0  0  0  0
  7  8  1  0  0  0  0
  7 13  2  0  0  0  0
  8  9  1  0  0  0  0
  8 21  1  0  0  0  0
  8 22  1  0  0  0  0
  9 11  1  0  0  0  0
  9 23  1  0  0  0  0
  9 24  1  0  0  0  0
 10 17  1  0  0  0  0
 10 25  1  0  0  0  0
 10 26  1  0  0  0  0
 11 12  1  0  0  0  0
 11 27  1  0  0  0  0
 11 28  1  0  0  0  0
 12 14  1  0  0  0  0
 12 29  1  0  0  0  0
 12 30  1  0  0  0  0
 13 14  1  0  0  0  0
 13 31  1  0  0  0  0
 14 32  1  0  0  0  0
 14 33  1  0  0  0  0
 17 34  1  0  0  0  0
 17 35  1  0  0  0  0
 17 36  1  0  0  0  0
M  END
>  <DRUGBANK_ID>
DB01354

>  <COMMON_NAME>
Heptabarbital

>  <CAS_NUMBER>
509-86-4

>  <UNII>
V10R70ML23

>  <SYNONYMS>
Heptabarb; Heptabarbe; Heptabarbital; Heptabarbitone; Heptabarbo; Heptabarbum

$$$$
