
 OpenBabel10282417072D

 44 47  0  0  0  0  0  0  0  0999 V2000
    4.2240    0.0229    0.0000 N   0  0  0  0  0  0  0  0  0  0  0  0
    3.8156   -0.6939    0.0000 C   0  0  0  0  0  0  0  0  0  0  0  0
    3.6613    0.6314    0.0000 C   0  0  0  0  0  0  0  0  0  0  0  0
    3.0112   -0.5313    0.0000 S   0  0  0  0  0  0  0  0  0  0  0  0
    2.9154    0.2813    0.0000 C   0  0  3  0  0  0  0  0  0  0  0  0
   -0.6356   -0.9940    0.0000 O   0  0  0  0  0  0  0  0  0  0  0  0
    0.0646   -0.5772    0.0000 C   0  0  0  0  0  0  0  0  0  0  0  0
    0.0521    0.2479    0.0000 C   0  0  0  0  0  0  0  0  0  0  0  0
    4.1657   -1.4441    0.0000 O   0  0  0  0  0  0  0  0  0  0  0  0
    2.1902    0.6856    0.0000 C   0  0  0  0  0  0  0  0  0  0  0  0
    3.8239    1.4441    0.0000 O   0  0  0  0  0  0  0  0  0  0  0  0
    0.7606    0.6689    0.0000 C   0  0  0  0  0  0  0  0  0  0  0  0
   -1.3607   -0.5939    0.0000 C   0  0  1  0  0  0  0  0  0  0  0  0
    1.4857    0.2688    0.0000 C   0  0  0  0  0  0  0  0  0  0  0  0
    0.7856   -0.9815    0.0000 C   0  0  0  0  0  0  0  0  0  0  0  0
   -0.6606    0.6481    0.0000 C   0  0  0  0  0  0  0  0  0  0  0  0
   -2.0651   -1.0190    0.0000 C   0  0  0  0  0  0  0  0  0  0  0  0
    1.4899   -0.5646    0.0000 C   0  0  0  0  0  0  0  0  0  0  0  0
   -1.3649    0.2312    0.0000 C   0  0  0  0  0  0  0  0  0  0  0  0
   -2.7861   -0.6147    0.0000 C   0  0  0  0  0  0  0  0  0  0  0  0
   -2.7903    0.2187    0.0000 C   0  0  0  0  0  0  0  0  0  0  0  0
   -3.4905   -1.0315    0.0000 C   0  0  0  0  0  0  0  0  0  0  0  0
   -4.2115   -0.6314    0.0000 C   0  0  0  0  0  0  0  0  0  0  0  0
   -3.5113    0.6189    0.0000 C   0  0  0  0  0  0  0  0  0  0  0  0
   -4.2240    0.1979    0.0000 C   0  0  0  0  0  0  0  0  0  0  0  0
    5.2021    0.1351    0.0000 H   0  0  0  0  0  0  0  0  0  0  0  0
    2.9527    1.3506    0.0000 H   0  0  0  0  0  0  0  0  0  0  0  0
    2.1765    1.7555    0.0000 H   0  0  0  0  0  0  0  0  0  0  0  0
    1.2573    1.2097    0.0000 H   0  0  0  0  0  0  0  0  0  0  0  0
    0.7441    1.7008    0.0000 H   0  0  0  0  0  0  0  0  0  0  0  0
   -1.3400   -1.6637    0.0000 H   0  0  0  0  0  0  0  0  0  0  0  0
    0.7977   -2.0134    0.0000 H   0  0  0  0  0  0  0  0  0  0  0  0
   -0.6728    1.7180    0.0000 H   0  0  0  0  0  0  0  0  0  0  0  0
   -1.5931    1.1727    0.0000 H   0  0  0  0  0  0  0  0  0  0  0  0
   -2.0480   -2.0889    0.0000 H   0  0  0  0  0  0  0  0  0  0  0  0
   -2.9840   -1.5672    0.0000 H   0  0  0  0  0  0  0  0  0  0  0  0
    2.3877   -1.0735    0.0000 H   0  0  0  0  0  0  0  0  0  0  0  0
   -2.2958    0.7588    0.0000 H   0  0  0  0  0  0  0  0  0  0  0  0
   -2.2880   -0.3098    0.0000 H   0  0  0  0  0  0  0  0  0  0  0  0
   -1.9023    0.7445    0.0000 H   0  0  0  0  0  0  0  0  0  0  0  0
   -3.4762   -2.0634    0.0000 H   0  0  0  0  0  0  0  0  0  0  0  0
   -5.0969   -1.1617    0.0000 H   0  0  0  0  0  0  0  0  0  0  0  0
   -3.5251    1.6508    0.0000 H   0  0  0  0  0  0  0  0  0  0  0  0
   -5.1241    0.7027    0.0000 H   0  0  0  0  0  0  0  0  0  0  0  0
  1 26  1  0  0  0  0
  2  1  1  0  0  0  0
  3  1  1  0  0  0  0
  4  2  1  0  0  0  0
  4  5  1  0  0  0  0
  5  3  1  0  0  0  0
  5 27  1  0  0  0  0
  6  7  1  0  0  0  0
  7 15  2  0  0  0  0
  7  8  1  0  0  0  0
  8 12  2  0  0  0  0
  9  2  2  0  0  0  0
 10  5  1  0  0  0  0
 10 28  1  0  0  0  0
 10 29  1  0  0  0  0
 11  3  2  0  0  0  0
 12 14  1  0  0  0  0
 12 30  1  0  0  0  0
 13  6  1  0  0  0  0
 13 17  1  0  0  0  0
 13 19  1  0  0  0  0
 13 31  1  6  0  0  0
 14 10  1  0  0  0  0
 15 18  1  0  0  0  0
 15 32  1  0  0  0  0
 16  8  1  0  0  0  0
 16 33  1  0  0  0  0
 16 34  1  0  0  0  0
 17 35  1  0  0  0  0
 17 36  1  0  0  0  0
 18 14  2  0  0  0  0
 18 37  1  0  0  0  0
 19 16  1  0  0  0  0
 19 38  1  0  0  0  0
 19 39  1  0  0  0  0
 20 17  1  0  0  0  0
 21 20  2  0  0  0  0
 21 40  1  0  0  0  0
 22 20  1  0  0  0  0
 22 41  1  0  0  0  0
 23 22  2  0  0  0  0
 23 42  1  0  0  0  0
 24 21  1  0  0  0  0
 24 43  1  0  0  0  0
 25 23  1  0  0  0  0
 25 24  2  0  0  0  0
 25 44  1  0  0  0  0
M  END
>  <DRUGBANK_ID>
DB14035

>  <COMMON_NAME>
Englitazone

>  <CAS_NUMBER>
109229-58-5

>  <UNII>
ZQW5577C3O

>  <SYNONYMS>
Englitazone

$$$$
