
 OpenBabel10282417072D

 75 78  0  0  0  0  0  0  0  0999 V2000
   -5.4935   -4.7333    0.0000 C   0  0  0  0  0  0  0  0  0  0  0  0
    5.4935    0.5198    0.0000 C   0  0  0  0  0  0  0  0  0  0  0  0
    4.5374   -0.5420    0.0000 C   0  0  0  0  0  0  0  0  0  0  0  0
   -0.4245    4.8196    0.0000 C   0  0  0  0  0  0  0  0  0  0  0  0
   -1.1390    3.5821    0.0000 C   0  0  0  0  0  0  0  0  0  0  0  0
   -4.6730   -4.8196    0.0000 C   0  0  0  0  0  0  0  0  0  0  0  0
   -2.8827   -3.5709    0.0000 C   0  0  0  0  0  0  0  0  0  0  0  0
   -2.0622   -3.6571    0.0000 C   0  0  0  0  0  0  0  0  0  0  0  0
   -0.7568   -3.0759    0.0000 C   0  0  0  0  0  0  0  0  0  0  0  0
   -1.9129   -2.2360    0.0000 C   0  0  0  0  0  0  0  0  0  0  0  0
   -0.2719   -2.4085    0.0000 C   0  0  0  0  0  0  0  0  0  0  0  0
   -1.4279   -1.5686    0.0000 C   0  0  0  0  0  0  0  0  0  0  0  0
    2.3550   -0.4999    0.0000 C   0  0  0  0  0  0  0  0  0  0  0  0
    1.9135    0.8590    0.0000 C   0  0  0  0  0  0  0  0  0  0  0  0
    1.0043    1.5196    0.0000 C   0  0  0  0  0  0  0  0  0  0  0  0
   -0.4245    1.5196    0.0000 C   0  0  0  0  0  0  0  0  0  0  0  0
    3.1396   -0.2449    0.0000 C   0  0  0  0  0  0  0  0  0  0  0  0
    2.6981    1.1140    0.0000 C   0  0  0  0  0  0  0  0  0  0  0  0
    1.0043    2.3446    0.0000 C   0  0  0  0  0  0  0  0  0  0  0  0
   -0.4245    2.3446    0.0000 C   0  0  0  0  0  0  0  0  0  0  0  0
   -3.3676   -4.2384    0.0000 C   0  0  0  0  0  0  0  0  0  0  0  0
    4.7089    0.2649    0.0000 C   0  0  0  0  0  0  0  0  0  0  0  0
   -0.4245    3.9946    0.0000 C   0  0  0  0  0  0  0  0  0  0  0  0
   -1.5773   -2.9897    0.0000 C   0  0  0  0  0  0  0  0  0  0  0  0
    1.7419    0.0521    0.0000 C   0  0  0  0  0  0  0  0  0  0  0  0
    0.2899    1.1071    0.0000 C   0  0  0  0  0  0  0  0  0  0  0  0
   -0.6075   -1.6548    0.0000 C   0  0  0  0  0  0  0  0  0  0  0  0
    3.3112    0.5619    0.0000 C   0  0  0  0  0  0  0  0  0  0  0  0
    0.2899    2.7571    0.0000 C   0  0  0  0  0  0  0  0  0  0  0  0
    0.9573   -0.2028    0.0000 C   0  0  0  0  0  0  0  0  0  0  0  0
    0.2899    0.2821    0.0000 C   0  0  0  0  0  0  0  0  0  0  0  0
   -0.1225   -0.9874    0.0000 C   0  0  0  0  0  0  0  0  0  0  0  0
    4.0958    0.8169    0.0000 N   0  0  0  0  0  0  0  0  0  0  0  0
    0.2899    3.5821    0.0000 N   0  0  0  0  0  0  0  0  0  0  0  0
    0.7024   -0.9874    0.0000 N   0  0  0  0  0  0  0  0  0  0  0  0
   -0.3775   -0.2028    0.0000 N   0  0  0  0  0  0  0  0  0  0  0  0
   -4.1881   -4.1521    0.0000 O   0  0  0  0  0  0  0  0  0  0  0  0
   -3.2183   -2.8172    0.0000 H   0  0  0  0  0  0  0  0  0  0  0  0
   -1.7267   -4.4108    0.0000 H   0  0  0  0  0  0  0  0  0  0  0  0
   -5.9286   -3.7558    0.0000 H   0  0  0  0  0  0  0  0  0  0  0  0
   -6.1225   -5.5989    0.0000 H   0  0  0  0  0  0  0  0  0  0  0  0
   -6.5576   -4.6214    0.0000 H   0  0  0  0  0  0  0  0  0  0  0  0
    6.2886   -0.1962    0.0000 H   0  0  0  0  0  0  0  0  0  0  0  0
    5.7160    1.5664    0.0000 H   0  0  0  0  0  0  0  0  0  0  0  0
    6.5111    0.8504    0.0000 H   0  0  0  0  0  0  0  0  0  0  0  0
    3.5198   -0.8727    0.0000 H   0  0  0  0  0  0  0  0  0  0  0  0
    5.3326   -1.2580    0.0000 H   0  0  0  0  0  0  0  0  0  0  0  0
    4.3149   -1.5886    0.0000 H   0  0  0  0  0  0  0  0  0  0  0  0
    0.5021    5.3546    0.0000 H   0  0  0  0  0  0  0  0  0  0  0  0
   -1.3511    5.3546    0.0000 H   0  0  0  0  0  0  0  0  0  0  0  0
   -0.4245    5.8896    0.0000 H   0  0  0  0  0  0  0  0  0  0  0  0
   -2.0656    4.1171    0.0000 H   0  0  0  0  0  0  0  0  0  0  0  0
   -1.1390    2.5121    0.0000 H   0  0  0  0  0  0  0  0  0  0  0  0
   -2.0657    3.0471    0.0000 H   0  0  0  0  0  0  0  0  0  0  0  0
   -4.2378   -5.7971    0.0000 H   0  0  0  0  0  0  0  0  0  0  0  0
   -3.6089   -4.9314    0.0000 H   0  0  0  0  0  0  0  0  0  0  0  0
   -0.3370   -4.0187    0.0000 H   0  0  0  0  0  0  0  0  0  0  0  0
   -2.9392   -2.1281    0.0000 H   0  0  0  0  0  0  0  0  0  0  0  0
    0.7544   -2.5164    0.0000 H   0  0  0  0  0  0  0  0  0  0  0  0
   -1.8476   -0.6258    0.0000 H   0  0  0  0  0  0  0  0  0  0  0  0
    2.1405   -1.5094    0.0000 H   0  0  0  0  0  0  0  0  0  0  0  0
    1.1466    1.5496    0.0000 H   0  0  0  0  0  0  0  0  0  0  0  0
    1.8980    1.0036    0.0000 H   0  0  0  0  0  0  0  0  0  0  0  0
   -1.3182    1.0036    0.0000 H   0  0  0  0  0  0  0  0  0  0  0  0
    3.9065   -0.9355    0.0000 H   0  0  0  0  0  0  0  0  0  0  0  0
    2.9127    2.1235    0.0000 H   0  0  0  0  0  0  0  0  0  0  0  0
    1.8980    2.8606    0.0000 H   0  0  0  0  0  0  0  0  0  0  0  0
   -1.3182    2.8606    0.0000 H   0  0  0  0  0  0  0  0  0  0  0  0
   -2.9324   -5.2159    0.0000 H   0  0  0  0  0  0  0  0  0  0  0  0
   -3.9966   -5.1040    0.0000 H   0  0  0  0  0  0  0  0  0  0  0  0
    3.6913   -0.0658    0.0000 H   0  0  0  0  0  0  0  0  0  0  0  0
   -0.4245    2.9246    0.0000 H   0  0  0  0  0  0  0  0  0  0  0  0
    4.3004    1.7799    0.0000 H   0  0  0  0  0  0  0  0  0  0  0  0
    1.1425    4.0743    0.0000 H   0  0  0  0  0  0  0  0  0  0  0  0
    1.2811   -1.7839    0.0000 H   0  0  0  0  0  0  0  0  0  0  0  0
  1 40  1  0  0  0  0
  1 41  1  0  0  0  0
  1 42  1  0  0  0  0
  2 43  1  0  0  0  0
  2 44  1  0  0  0  0
  2 45  1  0  0  0  0
  3 46  1  0  0  0  0
  3 47  1  0  0  0  0
  3 48  1  0  0  0  0
  4 49  1  0  0  0  0
  4 50  1  0  0  0  0
  4 51  1  0  0  0  0
  5 52  1  0  0  0  0
  5 53  1  0  0  0  0
  5 54  1  0  0  0  0
  6  1  1  0  0  0  0
  6 55  1  0  0  0  0
  6 56  1  0  0  0  0
  8  7  2  0  0  0  0
  9 57  1  0  0  0  0
 10 58  1  0  0  0  0
 11  9  1  0  0  0  0
 11 59  1  0  0  0  0
 12 10  2  0  0  0  0
 12 60  1  0  0  0  0
 13 61  1  0  0  0  0
 14 62  1  0  0  0  0
 15 63  1  0  0  0  0
 16 64  1  0  0  0  0
 17 13  1  0  0  0  0
 17 65  1  0  0  0  0
 18 14  2  0  0  0  0
 18 66  1  0  0  0  0
 19 15  1  0  0  0  0
 19 67  1  0  0  0  0
 20 16  2  0  0  0  0
 20 68  1  0  0  0  0
 21  7  1  0  0  0  0
 21 69  1  0  0  0  0
 21 70  1  0  0  0  0
 22  2  1  0  0  0  0
 22  3  1  0  0  0  0
 22 71  1  0  0  0  0
 23  4  1  0  0  0  0
 23  5  1  0  0  0  0
 23 72  1  0  0  0  0
 24  8  1  0  0  0  0
 24  9  2  0  0  0  0
 24 10  1  0  0  0  0
 25 13  2  0  0  0  0
 25 14  1  0  0  0  0
 26 15  2  0  0  0  0
 26 16  1  0  0  0  0
 27 11  2  0  0  0  0
 27 12  1  0  0  0  0
 28 17  2  0  0  0  0
 28 18  1  0  0  0  0
 29 19  2  0  0  0  0
 29 20  1  0  0  0  0
 30 25  1  0  0  0  0
 31 26  1  0  0  0  0
 31 30  2  0  0  0  0
 32 27  1  0  0  0  0
 33 22  1  0  0  0  0
 33 28  1  0  0  0  0
 33 73  1  0  0  0  0
 34 23  1  0  0  0  0
 34 29  1  0  0  0  0
 34 74  1  0  0  0  0
 35 30  1  0  0  0  0
 35 32  1  0  0  0  0
 35 75  1  0  0  0  0
 36 31  1  0  0  0  0
 36 32  2  0  0  0  0
 37  6  1  0  0  0  0
 37 21  1  0  0  0  0
 38  7  1  0  0  0  0
 39  8  1  0  0  0  0
M  END
>  <DRUGBANK_ID>
DB14069

>  <COMMON_NAME>
ONT-093

>  <CAS_NUMBER>
216227-54-2

>  <UNII>
PK2WD2XC83

$$$$
