
 OpenBabel10282417072D

 42 44  0  0  0  0  0  0  0  0999 V2000
    1.3222   -2.5366    0.0000 O   0  0  0  0  0  0  0  0  0  0  0  0
    2.0367   -2.9491    0.0000 C   0  0  0  0  0  0  0  0  0  0  0  0
    2.7512   -2.5366    0.0000 O   0  0  0  0  0  0  0  0  0  0  0  0
    2.0367   -3.7741    0.0000 C   0  0  0  0  0  0  0  0  0  0  0  0
    1.3693   -4.2590    0.0000 N   0  0  0  0  0  0  0  0  0  0  0  0
    1.6242   -5.0437    0.0000 N   0  0  0  0  0  0  0  0  0  0  0  0
    2.4492   -5.0437    0.0000 N   0  0  0  0  0  0  0  0  0  0  0  0
    2.7041   -4.2590    0.0000 C   0  0  0  0  0  0  0  0  0  0  0  0
    3.4888   -4.0041    0.0000 O   0  0  0  0  0  0  0  0  0  0  0  0
    4.1019   -4.5561    0.0000 C   0  0  1  0  0  0  0  0  0  0  0  0
    4.8865   -4.3012    0.0000 C   0  0  0  0  0  0  0  0  0  0  0  0
    5.4996   -4.8532    0.0000 C   0  0  0  0  0  0  0  0  0  0  0  0
    5.3281   -5.6602    0.0000 C   0  0  1  0  0  0  0  0  0  0  0  0
    4.5434   -5.9151    0.0000 C   0  0  0  0  0  0  0  0  0  0  0  0
    3.9303   -5.3631    0.0000 C   0  0  0  0  0  0  0  0  0  0  0  0
    5.9411   -6.2122    0.0000 C   0  0  0  0  0  0  0  0  0  0  0  0
    6.7258   -5.9573    0.0000 C   0  0  0  0  0  0  0  0  0  0  0  0
    7.3389   -6.5093    0.0000 C   0  0  0  0  0  0  0  0  0  0  0  0
    7.1673   -7.3163    0.0000 C   0  0  0  0  0  0  0  0  0  0  0  0
    7.7804   -7.8683    0.0000 O   0  0  0  0  0  0  0  0  0  0  0  0
    8.5651   -7.6134    0.0000 C   0  0  0  0  0  0  0  0  0  0  0  0
    9.3497   -7.3584    0.0000 F   0  0  0  0  0  0  0  0  0  0  0  0
    8.8200   -8.3980    0.0000 F   0  0  0  0  0  0  0  0  0  0  0  0
    8.3101   -6.8288    0.0000 F   0  0  0  0  0  0  0  0  0  0  0  0
    6.3827   -7.5712    0.0000 C   0  0  0  0  0  0  0  0  0  0  0  0
    5.7696   -7.0192    0.0000 C   0  0  0  0  0  0  0  0  0  0  0  0
    1.3222   -1.5996    0.0000 H   0  0  0  0  0  0  0  0  0  0  0  0
    3.0279   -5.8402    0.0000 H   0  0  0  0  0  0  0  0  0  0  0  0
    4.3244   -3.5095    0.0000 H   0  0  0  0  0  0  0  0  0  0  0  0
    5.1090   -3.2546    0.0000 H   0  0  0  0  0  0  0  0  0  0  0  0
    5.9041   -3.9705    0.0000 H   0  0  0  0  0  0  0  0  0  0  0  0
    6.5172   -4.5225    0.0000 H   0  0  0  0  0  0  0  0  0  0  0  0
    6.2948   -5.5691    0.0000 H   0  0  0  0  0  0  0  0  0  0  0  0
    6.3457   -5.3296    0.0000 H   0  0  0  0  0  0  0  0  0  0  0  0
    4.3209   -6.9617    0.0000 H   0  0  0  0  0  0  0  0  0  0  0  0
    3.5258   -6.2458    0.0000 H   0  0  0  0  0  0  0  0  0  0  0  0
    2.9127   -5.6937    0.0000 H   0  0  0  0  0  0  0  0  0  0  0  0
    3.1352   -4.6471    0.0000 H   0  0  0  0  0  0  0  0  0  0  0  0
    6.9404   -4.9479    0.0000 H   0  0  0  0  0  0  0  0  0  0  0  0
    8.3204   -6.1904    0.0000 H   0  0  0  0  0  0  0  0  0  0  0  0
    6.1681   -8.5806    0.0000 H   0  0  0  0  0  0  0  0  0  0  0  0
    4.7881   -7.3381    0.0000 H   0  0  0  0  0  0  0  0  0  0  0  0
  1  2  1  0  0  0  0
  1 27  1  0  0  0  0
  2  3  2  0  0  0  0
  2  4  1  0  0  0  0
  4  5  1  0  0  0  0
  4  8  2  0  0  0  0
  5  6  2  0  0  0  0
  6  7  1  0  0  0  0
  7  8  1  0  0  0  0
  7 28  1  0  0  0  0
  8  9  1  0  0  0  0
 10  9  1  0  0  0  0
 10 11  1  0  0  0  0
 10 15  1  0  0  0  0
 10 29  1  6  0  0  0
 11 12  1  0  0  0  0
 11 30  1  0  0  0  0
 11 31  1  0  0  0  0
 12 32  1  0  0  0  0
 12 33  1  0  0  0  0
 13 12  1  0  0  0  0
 13 14  1  0  0  0  0
 13 16  1  0  0  0  0
 13 34  1  1  0  0  0
 14 15  1  0  0  0  0
 14 35  1  0  0  0  0
 14 36  1  0  0  0  0
 15 37  1  0  0  0  0
 15 38  1  0  0  0  0
 16 17  2  0  0  0  0
 16 26  1  0  0  0  0
 17 18  1  0  0  0  0
 17 39  1  0  0  0  0
 18 19  2  0  0  0  0
 18 40  1  0  0  0  0
 19 20  1  0  0  0  0
 19 25  1  0  0  0  0
 20 21  1  0  0  0  0
 21 22  1  0  0  0  0
 21 23  1  0  0  0  0
 21 24  1  0  0  0  0
 25 26  2  0  0  0  0
 25 41  1  0  0  0  0
 26 42  1  0  0  0  0
M  END
>  <DRUGBANK_ID>
DB18067

>  <COMMON_NAME>
5-[[trans-4-[4-(trifluoromethoxy)phenyl]cyclohexyl]oxy]-1H-1,2,3-triazole-4-carboxylic acid

>  <CAS_NUMBER>
2360927-98-4

>  <UNII>
WC82E7HRU5

>  <SYNONYMS>
5-((trans-4-(4-(trifluoromethoxy)phenyl)cyclohexyl)oxy)-1h-1,2,3-triazole-4-carboxylic acid; 5-[[trans-4-[(trifluoromethoxy)phenyl]cyclohexyl]oxy]-1H-1,2,3-triazole-4-carboxylic acid

$$$$
