
 OpenBabel10282417072D

 24 25  0  0  0  0  0  0  0  0999 V2000
   -0.3704   -0.4184    0.0000 C   0  0  0  0  0  0  0  0  0  0  0  0
   -0.3704    0.4164    0.0000 C   0  0  0  0  0  0  0  0  0  0  0  0
    0.3778   -0.8330    0.0000 C   0  0  0  0  0  0  0  0  0  0  0  0
   -1.0836   -0.8330    0.0000 C   0  0  0  0  0  0  0  0  0  0  0  0
    0.3778    0.8330    0.0000 C   0  0  0  0  0  0  0  0  0  0  0  0
   -1.0836    0.8330    0.0000 C   0  0  0  0  0  0  0  0  0  0  0  0
    1.0873   -0.4184    0.0000 C   0  0  0  0  0  0  0  0  0  0  0  0
    0.3778   -1.6733    0.0000 O   0  0  0  0  0  0  0  0  0  0  0  0
   -1.7951   -0.4184    0.0000 C   0  0  0  0  0  0  0  0  0  0  0  0
    1.0873    0.4164    0.0000 C   0  0  0  0  0  0  0  0  0  0  0  0
    0.3778    1.6733    0.0000 O   0  0  0  0  0  0  0  0  0  0  0  0
   -1.7951    0.4164    0.0000 C   0  0  0  0  0  0  0  0  0  0  0  0
    1.7951   -0.8330    0.0000 C   0  0  0  0  0  0  0  0  0  0  0  0
    1.7951    0.8330    0.0000 C   0  0  0  0  0  0  0  0  0  0  0  0
   -1.0841   -1.8650    0.0000 H   0  0  0  0  0  0  0  0  0  0  0  0
   -1.0841    1.8650    0.0000 H   0  0  0  0  0  0  0  0  0  0  0  0
   -2.6899   -0.9326    0.0000 H   0  0  0  0  0  0  0  0  0  0  0  0
   -2.6904    0.9297    0.0000 H   0  0  0  0  0  0  0  0  0  0  0  0
    1.7884   -1.9030    0.0000 H   0  0  0  0  0  0  0  0  0  0  0  0
    2.7251   -0.3038    0.0000 H   0  0  0  0  0  0  0  0  0  0  0  0
    2.7184   -1.3738    0.0000 H   0  0  0  0  0  0  0  0  0  0  0  0
    2.7262    0.3058    0.0000 H   0  0  0  0  0  0  0  0  0  0  0  0
    1.7861    1.9030    0.0000 H   0  0  0  0  0  0  0  0  0  0  0  0
    2.7172    1.3758    0.0000 H   0  0  0  0  0  0  0  0  0  0  0  0
  1  2  1  0  0  0  0
  1  3  1  0  0  0  0
  1  4  2  0  0  0  0
  2  5  1  0  0  0  0
  2  6  2  0  0  0  0
  3  7  1  0  0  0  0
  3  8  2  0  0  0  0
  4  9  1  0  0  0  0
  4 15  1  0  0  0  0
  5 10  1  0  0  0  0
  5 11  2  0  0  0  0
  6 12  1  0  0  0  0
  6 16  1  0  0  0  0
  7 13  1  0  0  0  0
  7 10  2  0  0  0  0
  9 12  2  0  0  0  0
  9 17  1  0  0  0  0
 10 14  1  0  0  0  0
 12 18  1  0  0  0  0
 13 19  1  0  0  0  0
 13 20  1  0  0  0  0
 13 21  1  0  0  0  0
 14 22  1  0  0  0  0
 14 23  1  0  0  0  0
 14 24  1  0  0  0  0
M  END
>  <DRUGBANK_ID>
DB07669

>  <COMMON_NAME>
2,3-Dimethyl-1,4-naphthoquinone

>  <CAS_NUMBER>
2197-57-1

>  <UNII>
SY9IO0B44O

>  <SYNONYMS>
2,3-Dimethylnaphthoquinone

$$$$
