
 OpenBabel10282417072D

 19 20  0  0  0  0  0  0  0  0999 V2000
    5.4223   -0.0000    0.0000 C   0  0  0  0  0  0  0  0  0  0  0  0
    3.9934    0.8250    0.0000 C   0  0  0  0  0  0  0  0  0  0  0  0
    3.2789    1.2375    0.0000 C   0  0  0  0  0  0  0  0  0  0  0  0
    3.2789   -0.4125    0.0000 C   0  0  0  0  0  0  0  0  0  0  0  0
    1.2949    0.4125    0.0000 C   0  0  0  0  0  0  0  0  0  0  0  0
    3.9934    0.0000    0.0000 C   0  0  0  0  0  0  0  0  0  0  0  0
    2.5645    0.8250    0.0000 C   0  0  0  0  0  0  0  0  0  0  0  0
    2.5645    0.0000    0.0000 C   0  0  0  0  0  0  0  0  0  0  0  0
    1.7798    1.0799    0.0000 N   0  0  0  0  0  0  0  0  0  0  0  0
    1.7798   -0.2549    0.0000 N   0  0  0  0  0  0  0  0  0  0  0  0
    4.7079   -0.4125    0.0000 O   0  0  0  0  0  0  0  0  0  0  0  0
    6.3490   -0.5350    0.0000 H   0  0  0  0  0  0  0  0  0  0  0  0
    5.4223    1.0700    0.0000 H   0  0  0  0  0  0  0  0  0  0  0  0
    6.3489    0.5350    0.0000 H   0  0  0  0  0  0  0  0  0  0  0  0
    4.8871    1.3410    0.0000 H   0  0  0  0  0  0  0  0  0  0  0  0
    3.2789    2.2695    0.0000 H   0  0  0  0  0  0  0  0  0  0  0  0
    3.2789   -1.4445    0.0000 H   0  0  0  0  0  0  0  0  0  0  0  0
    0.2629    0.4125    0.0000 H   0  0  0  0  0  0  0  0  0  0  0  0
    1.4755   -1.1912    0.0000 H   0  0  0  0  0  0  0  0  0  0  0  0
  1 12  1  0  0  0  0
  1 13  1  0  0  0  0
  1 14  1  0  0  0  0
  2 15  1  0  0  0  0
  3  2  2  0  0  0  0
  3 16  1  0  0  0  0
  4 17  1  0  0  0  0
  5 18  1  0  0  0  0
  6  2  1  0  0  0  0
  6  4  2  0  0  0  0
  7  3  1  0  0  0  0
  8  4  1  0  0  0  0
  8  7  2  0  0  0  0
  9  5  2  0  0  0  0
  9  7  1  0  0  0  0
 10  5  1  0  0  0  0
 10  8  1  0  0  0  0
 10 19  1  0  0  0  0
 11  1  1  0  0  0  0
 11  6  1  0  0  0  0
M  END
>  <DRUGBANK_ID>
DB04130

>  <SECONDARY_ACCESSION_NUMBERS>
EXPT00256

>  <COMMON_NAME>
5-Methoxybenzimidazole

>  <UNII>
Y9FY4BD73M

$$$$
