
 OpenBabel10282417072D

 99103  0  0  1  0  0  0  0  0999 V2000
  -21.9310    7.2448    0.0000 C   0  0  0  0  0  0  0  0  0  0  0  0
  -22.1707    6.4554    0.0000 C   0  0  1  0  0  0  0  0  0  0  0  0
  -22.9742    6.2684    0.0000 N   0  0  0  0  0  0  0  0  0  0  0  0
  -23.2139    5.4790    0.0000 C   0  0  0  0  0  0  0  0  0  0  0  0
  -22.6502    4.8766    0.0000 C   0  0  0  0  0  0  0  0  0  0  0  0
  -21.8467    5.0637    0.0000 N   0  0  0  0  0  0  0  0  0  0  0  0
  -21.1700    4.5918    0.0000 C   0  0  0  0  0  0  0  0  0  0  0  0
  -20.5120    5.0895    0.0000 N   0  0  0  0  0  0  0  0  0  0  0  0
  -20.7821    5.8691    0.0000 C   0  0  1  0  0  0  0  0  0  0  0  0
  -20.3101    6.5457    0.0000 C   0  0  0  0  0  0  0  0  0  0  0  0
  -21.6069    5.8531    0.0000 C   0  0  2  0  0  0  0  0  0  0  0  0
  -19.7226    4.8498    0.0000 C   0  0  0  0  0  0  0  0  0  0  0  0
  -19.1203    5.4135    0.0000 C   0  0  0  0  0  0  0  0  0  0  0  0
  -18.3309    5.1738    0.0000 C   0  0  0  0  0  0  0  0  0  0  0  0
  -18.1438    4.3703    0.0000 C   0  0  0  0  0  0  0  0  0  0  0  0
  -17.3544    4.1306    0.0000 C   0  0  0  0  0  0  0  0  0  0  0  0
  -17.1674    3.3270    0.0000 C   0  0  1  0  0  0  0  0  0  0  0  0
  -17.7697    2.7633    0.0000 O   0  0  0  0  0  0  0  0  0  0  0  0
  -16.3780    3.0873    0.0000 C   0  0  1  0  0  0  0  0  0  0  0  0
  -15.7756    3.6511    0.0000 O   0  0  0  0  0  0  0  0  0  0  0  0
  -16.1909    2.2838    0.0000 C   0  0  2  0  0  0  0  0  0  0  0  0
  -16.7932    1.7200    0.0000 O   0  0  0  0  0  0  0  0  0  0  0  0
  -15.4015    2.0441    0.0000 C   0  0  0  0  0  0  0  0  0  0  0  0
  -15.2144    1.2406    0.0000 O   0  0  0  0  0  0  0  0  0  0  0  0
  -14.4250    1.0008    0.0000 C   0  0  1  0  0  0  0  0  0  0  0  0
  -13.7670    1.4985    0.0000 O   0  0  0  0  0  0  0  0  0  0  0  0
  -13.0904    1.0266    0.0000 C   0  0  2  0  0  0  0  0  0  0  0  0
  -12.3108    1.2966    0.0000 C   0  0  0  0  0  0  0  0  0  0  0  0
  -11.6872    0.7565    0.0000 O   0  0  0  0  0  0  0  0  0  0  0  0
  -10.9076    1.0266    0.0000 P   0  0  1  0  0  0  0  0  0  0  0  0
  -11.1777    1.8061    0.0000 O   0  0  0  0  0  0  0  0  0  0  0  0
  -10.6376    0.2470    0.0000 O   0  0  0  0  0  0  0  0  0  0  0  0
  -10.1281    1.2966    0.0000 O   0  0  0  0  0  0  0  0  0  0  0  0
   -9.5044    0.7565    0.0000 C   0  0  1  0  0  0  0  0  0  0  0  0
   -8.7249    1.0266    0.0000 C   0  0  0  0  0  0  0  0  0  0  0  0
   -8.1012    0.4865    0.0000 C   0  0  0  0  0  0  0  0  0  0  0  0
   -7.3217    0.7565    0.0000 C   0  0  0  0  0  0  0  0  0  0  0  0
   -6.6980    0.2165    0.0000 O   0  0  0  0  0  0  0  0  0  0  0  0
   -7.1658    1.5667    0.0000 O   0  0  0  0  0  0  0  0  0  0  0  0
   -9.6603   -0.0536    0.0000 C   0  0  0  0  0  0  0  0  0  0  0  0
   -9.0367   -0.5937    0.0000 O   0  0  0  0  0  0  0  0  0  0  0  0
  -10.4399   -0.3236    0.0000 O   0  0  0  0  0  0  0  0  0  0  0  0
  -13.3301    0.2372    0.0000 C   0  0  1  0  0  0  0  0  0  0  0  0
  -12.8324   -0.4208    0.0000 O   0  0  0  0  0  0  0  0  0  0  0  0
  -14.1550    0.2213    0.0000 C   0  0  2  0  0  0  0  0  0  0  0  0
  -14.6269   -0.4554    0.0000 O   0  0  0  0  0  0  0  0  0  0  0  0
  -18.7462    3.8065    0.0000 C   0  0  0  0  0  0  0  0  0  0  0  0
  -19.5355    4.0463    0.0000 C   0  0  0  0  0  0  0  0  0  0  0  0
  -22.8899    4.0872    0.0000 C   0  0  0  0  0  0  0  0  0  0  0  0
  -22.3261    3.4849    0.0000 O   0  0  0  0  0  0  0  0  0  0  0  0
  -23.6934    3.9002    0.0000 N   0  0  0  0  0  0  0  0  0  0  0  0
  -24.2572    4.5025    0.0000 C   0  0  0  0  0  0  0  0  0  0  0  0
  -25.0607    4.3154    0.0000 N   0  0  0  0  0  0  0  0  0  0  0  0
  -24.0174    5.2919    0.0000 N   0  0  0  0  0  0  0  0  0  0  0  0
  -20.8889    7.4875    0.0000 H   0  0  0  0  0  0  0  0  0  0  0  0
  -22.6622    8.0260    0.0000 H   0  0  0  0  0  0  0  0  0  0  0  0
  -21.6201    8.2686    0.0000 H   0  0  0  0  0  0  0  0  0  0  0  0
  -22.9019    7.2366    0.0000 H   0  0  0  0  0  0  0  0  0  0  0  0
  -23.6469    6.9872    0.0000 H   0  0  0  0  0  0  0  0  0  0  0  0
  -21.1493    3.5220    0.0000 H   0  0  0  0  0  0  0  0  0  0  0  0
  -20.2074    4.1245    0.0000 H   0  0  0  0  0  0  0  0  0  0  0  0
  -19.7222    5.7221    0.0000 H   0  0  0  0  0  0  0  0  0  0  0  0
  -19.2440    6.4543    0.0000 H   0  0  0  0  0  0  0  0  0  0  0  0
  -20.7640    7.5147    0.0000 H   0  0  0  0  0  0  0  0  0  0  0  0
  -19.6979    7.4233    0.0000 H   0  0  0  0  0  0  0  0  0  0  0  0
  -20.9614    4.9998    0.0000 H   0  0  0  0  0  0  0  0  0  0  0  0
  -19.3543    6.4186    0.0000 H   0  0  0  0  0  0  0  0  0  0  0  0
  -17.5775    5.8791    0.0000 H   0  0  0  0  0  0  0  0  0  0  0  0
  -16.5732    4.8618    0.0000 H   0  0  0  0  0  0  0  0  0  0  0  0
  -16.3306    3.8196    0.0000 H   0  0  0  0  0  0  0  0  0  0  0  0
  -18.1912    3.6380    0.0000 H   0  0  0  0  0  0  0  0  0  0  0  0
  -18.6978    3.0452    0.0000 H   0  0  0  0  0  0  0  0  0  0  0  0
  -16.6206    4.1294    0.0000 H   0  0  0  0  0  0  0  0  0  0  0  0
  -14.8475    3.3692    0.0000 H   0  0  0  0  0  0  0  0  0  0  0  0
  -17.2147    2.5947    0.0000 H   0  0  0  0  0  0  0  0  0  0  0  0
  -17.7214    2.0018    0.0000 H   0  0  0  0  0  0  0  0  0  0  0  0
  -14.6203    2.7753    0.0000 H   0  0  0  0  0  0  0  0  0  0  0  0
  -14.3777    1.7332    0.0000 H   0  0  0  0  0  0  0  0  0  0  0  0
  -14.6127    2.0542    0.0000 H   0  0  0  0  0  0  0  0  0  0  0  0
  -12.9434    2.0865    0.0000 H   0  0  0  0  0  0  0  0  0  0  0  0
  -12.1085    2.3473    0.0000 H   0  0  0  0  0  0  0  0  0  0  0  0
  -11.2997    1.6468    0.0000 H   0  0  0  0  0  0  0  0  0  0  0  0
  -10.5427    2.5394    0.0000 H   0  0  0  0  0  0  0  0  0  0  0  0
   -9.3023    1.8072    0.0000 H   0  0  0  0  0  0  0  0  0  0  0  0
   -8.5228    2.0773    0.0000 H   0  0  0  0  0  0  0  0  0  0  0  0
   -7.7139    1.3769    0.0000 H   0  0  0  0  0  0  0  0  0  0  0  0
   -8.3034   -0.5642    0.0000 H   0  0  0  0  0  0  0  0  0  0  0  0
   -7.2924   -0.2140    0.0000 H   0  0  0  0  0  0  0  0  0  0  0  0
   -6.8750   -0.7036    0.0000 H   0  0  0  0  0  0  0  0  0  0  0  0
   -9.2138   -1.5138    0.0000 H   0  0  0  0  0  0  0  0  0  0  0  0
  -12.2767    0.4250    0.0000 H   0  0  0  0  0  0  0  0  0  0  0  0
  -13.2098   -1.3144    0.0000 H   0  0  0  0  0  0  0  0  0  0  0  0
  -13.6509   -0.7225    0.0000 H   0  0  0  0  0  0  0  0  0  0  0  0
  -15.5934   -0.3727    0.0000 H   0  0  0  0  0  0  0  0  0  0  0  0
  -18.5123    2.8014    0.0000 H   0  0  0  0  0  0  0  0  0  0  0  0
  -20.2890    3.3411    0.0000 H   0  0  0  0  0  0  0  0  0  0  0  0
  -23.9795    2.9582    0.0000 H   0  0  0  0  0  0  0  0  0  0  0  0
  -25.7335    5.0341    0.0000 H   0  0  0  0  0  0  0  0  0  0  0  0
  -25.3468    3.3734    0.0000 H   0  0  0  0  0  0  0  0  0  0  0  0
  1 55  1  0  0  0  0
  1 56  1  0  0  0  0
  1 57  1  0  0  0  0
  2  1  1  0  0  0  0
  2  3  1  0  0  0  0
  2 11  1  0  0  0  0
  2 58  1  1  0  0  0
  3  4  1  0  0  0  0
  3 59  1  0  0  0  0
  4  5  2  0  0  0  0
  4 54  1  0  0  0  0
  5  6  1  0  0  0  0
  5 49  1  0  0  0  0
  6  7  1  0  0  0  0
  7  8  1  0  0  0  0
  7 60  1  0  0  0  0
  7 61  1  0  0  0  0
  8  9  1  0  0  0  0
  8 12  1  0  0  0  0
  9 10  1  0  0  0  0
  9 11  1  0  0  0  0
  9 62  1  1  0  0  0
 10 63  1  0  0  0  0
 10 64  1  0  0  0  0
 10 65  1  0  0  0  0
 11  6  1  0  0  0  0
 11 66  1  6  0  0  0
 12 13  2  0  0  0  0
 12 48  1  0  0  0  0
 13 14  1  0  0  0  0
 13 67  1  0  0  0  0
 14 15  2  0  0  0  0
 14 68  1  0  0  0  0
 15 16  1  0  0  0  0
 15 47  1  0  0  0  0
 16 17  1  0  0  0  0
 16 69  1  0  0  0  0
 16 70  1  0  0  0  0
 17 18  1  0  0  0  0
 17 19  1  0  0  0  0
 17 71  1  1  0  0  0
 18 72  1  0  0  0  0
 19 20  1  0  0  0  0
 19 21  1  0  0  0  0
 19 73  1  6  0  0  0
 20 74  1  0  0  0  0
 21 22  1  0  0  0  0
 21 23  1  0  0  0  0
 21 75  1  6  0  0  0
 22 76  1  0  0  0  0
 23 24  1  0  0  0  0
 23 77  1  0  0  0  0
 23 78  1  0  0  0  0
 25 24  1  0  0  0  0
 25 26  1  0  0  0  0
 25 45  1  0  0  0  0
 25 79  1  6  0  0  0
 26 27  1  0  0  0  0
 27 28  1  0  0  0  0
 27 43  1  0  0  0  0
 27 80  1  1  0  0  0
 28 29  1  0  0  0  0
 28 81  1  0  0  0  0
 28 82  1  0  0  0  0
 30 29  1  0  0  0  0
 30 31  1  0  0  0  0
 30 32  2  1  0  0  0
 30 33  1  0  0  0  0
 31 83  1  0  0  0  0
 34 33  1  0  0  0  0
 34 35  1  0  0  0  0
 34 40  1  0  0  0  0
 34 84  1  6  0  0  0
 35 36  1  0  0  0  0
 35 85  1  0  0  0  0
 35 86  1  0  0  0  0
 36 37  1  0  0  0  0
 36 87  1  0  0  0  0
 36 88  1  0  0  0  0
 37 38  1  0  0  0  0
 37 39  2  0  0  0  0
 38 89  1  0  0  0  0
 40 41  1  0  0  0  0
 40 42  2  0  0  0  0
 41 90  1  0  0  0  0
 43 44  1  0  0  0  0
 43 45  1  0  0  0  0
 43 91  1  6  0  0  0
 44 92  1  0  0  0  0
 45 46  1  0  0  0  0
 45 93  1  1  0  0  0
 46 94  1  0  0  0  0
 47 48  2  0  0  0  0
 47 95  1  0  0  0  0
 48 96  1  0  0  0  0
 49 50  2  0  0  0  0
 49 51  1  0  0  0  0
 51 52  1  0  0  0  0
 51 97  1  0  0  0  0
 52 53  1  0  0  0  0
 52 54  2  0  0  0  0
 53 98  1  0  0  0  0
 53 99  1  0  0  0  0
M  END
>  <DRUGBANK_ID>
DB03481

>  <SECONDARY_ACCESSION_NUMBERS>
EXPT01681

>  <COMMON_NAME>
5,10-Dimethylene Tetrahydromethanopterin

$$$$
