
 OpenBabel10282417072D

 58 59  0  0  0  0  0  0  0  0999 V2000
    2.8579    2.4750    0.0000 C   0  0  0  0  0  0  0  0  0  0  0  0
    2.1434    2.0625    0.0000 C   0  0  0  0  0  0  0  0  0  0  0  0
    8.5737    3.3000    0.0000 C   0  0  0  0  0  0  0  0  0  0  0  0
    7.8592    3.7125    0.0000 C   0  0  0  0  0  0  0  0  0  0  0  0
    8.5737    2.4750    0.0000 C   0  0  0  0  0  0  0  0  0  0  0  0
    3.5724    2.0625    0.0000 C   0  0  0  0  0  0  0  0  0  0  0  0
    1.4289    2.4750    0.0000 C   0  0  0  0  0  0  0  0  0  0  0  0
    7.1447    3.3000    0.0000 C   0  0  0  0  0  0  0  0  0  0  0  0
    7.8592    2.0625    0.0000 C   0  0  0  0  0  0  0  0  0  0  0  0
   -2.8579    2.4750    0.0000 C   0  0  0  0  0  0  0  0  0  0  0  0
   -3.5724    2.0625    0.0000 C   0  0  0  0  0  0  0  0  0  0  0  0
    6.4302    2.0625    0.0000 C   0  0  0  0  0  0  0  0  0  0  0  0
   -1.4289    2.4750    0.0000 C   0  0  0  0  0  0  0  0  0  0  0  0
    4.2868    2.4750    0.0000 C   0  0  0  0  0  0  0  0  0  0  0  0
    0.7145    2.0625    0.0000 C   0  0  0  0  0  0  0  0  0  0  0  0
    5.7158    2.4750    0.0000 C   0  0  0  0  0  0  0  0  0  0  0  0
   -0.7145    2.0625    0.0000 C   0  0  0  0  0  0  0  0  0  0  0  0
   -2.1434    1.2375    0.0000 C   0  0  0  0  0  0  0  0  0  0  0  0
    7.1447    2.4750    0.0000 C   0  0  0  0  0  0  0  0  0  0  0  0
   -2.1434    2.0625    0.0000 C   0  0  0  0  0  0  0  0  0  0  0  0
   -3.5724    1.2375    0.0000 C   0  0  0  0  0  0  0  0  0  0  0  0
   -2.8579    0.8250    0.0000 C   0  0  0  0  0  0  0  0  0  0  0  0
    5.0013    2.0625    0.0000 N   0  0  0  0  0  0  0  0  0  0  0  0
    0.0000    2.4750    0.0000 N   0  0  0  0  0  0  0  0  0  0  0  0
   -4.2868    0.8250    0.0000 O   0  0  0  0  0  0  0  0  0  0  0  0
   -2.8579    0.0000    0.0000 O   0  0  0  0  0  0  0  0  0  0  0  0
    2.8579    3.5450    0.0000 H   0  0  0  0  0  0  0  0  0  0  0  0
    3.7845    3.0100    0.0000 H   0  0  0  0  0  0  0  0  0  0  0  0
    2.1434    0.9925    0.0000 H   0  0  0  0  0  0  0  0  0  0  0  0
    1.2168    1.5275    0.0000 H   0  0  0  0  0  0  0  0  0  0  0  0
    9.4674    3.8160    0.0000 H   0  0  0  0  0  0  0  0  0  0  0  0
    7.8592    4.7445    0.0000 H   0  0  0  0  0  0  0  0  0  0  0  0
    9.4674    1.9590    0.0000 H   0  0  0  0  0  0  0  0  0  0  0  0
    3.5724    0.9925    0.0000 H   0  0  0  0  0  0  0  0  0  0  0  0
    4.4991    1.5275    0.0000 H   0  0  0  0  0  0  0  0  0  0  0  0
    1.4289    3.5450    0.0000 H   0  0  0  0  0  0  0  0  0  0  0  0
    0.5022    3.0100    0.0000 H   0  0  0  0  0  0  0  0  0  0  0  0
    6.2510    3.8160    0.0000 H   0  0  0  0  0  0  0  0  0  0  0  0
    7.8592    1.0305    0.0000 H   0  0  0  0  0  0  0  0  0  0  0  0
   -2.8579    3.5070    0.0000 H   0  0  0  0  0  0  0  0  0  0  0  0
   -4.4661    2.5785    0.0000 H   0  0  0  0  0  0  0  0  0  0  0  0
    6.4302    0.9925    0.0000 H   0  0  0  0  0  0  0  0  0  0  0  0
    7.3568    1.5275    0.0000 H   0  0  0  0  0  0  0  0  0  0  0  0
   -1.4289    3.5450    0.0000 H   0  0  0  0  0  0  0  0  0  0  0  0
   -2.3555    3.0100    0.0000 H   0  0  0  0  0  0  0  0  0  0  0  0
    4.2868    3.5450    0.0000 H   0  0  0  0  0  0  0  0  0  0  0  0
    5.2134    3.0100    0.0000 H   0  0  0  0  0  0  0  0  0  0  0  0
    0.7145    0.9925    0.0000 H   0  0  0  0  0  0  0  0  0  0  0  0
   -0.2121    1.5275    0.0000 H   0  0  0  0  0  0  0  0  0  0  0  0
    5.7158    3.5450    0.0000 H   0  0  0  0  0  0  0  0  0  0  0  0
    4.7892    3.0100    0.0000 H   0  0  0  0  0  0  0  0  0  0  0  0
   -0.7145    0.9925    0.0000 H   0  0  0  0  0  0  0  0  0  0  0  0
    0.2121    1.5275    0.0000 H   0  0  0  0  0  0  0  0  0  0  0  0
   -1.2497    0.7215    0.0000 H   0  0  0  0  0  0  0  0  0  0  0  0
    5.0013    1.0425    0.0000 H   0  0  0  0  0  0  0  0  0  0  0  0
    0.0000    3.4950    0.0000 H   0  0  0  0  0  0  0  0  0  0  0  0
   -5.0983    1.2935    0.0000 H   0  0  0  0  0  0  0  0  0  0  0  0
   -3.6694   -0.4685    0.0000 H   0  0  0  0  0  0  0  0  0  0  0  0
  1 27  1  0  0  0  0
  1 28  1  0  0  0  0
  2  1  1  0  0  0  0
  2 29  1  0  0  0  0
  2 30  1  0  0  0  0
  3 31  1  0  0  0  0
  4  3  2  0  0  0  0
  4 32  1  0  0  0  0
  5  3  1  0  0  0  0
  5 33  1  0  0  0  0
  6  1  1  0  0  0  0
  6 34  1  0  0  0  0
  6 35  1  0  0  0  0
  7  2  1  0  0  0  0
  7 36  1  0  0  0  0
  7 37  1  0  0  0  0
  8  4  1  0  0  0  0
  8 38  1  0  0  0  0
  9  5  2  0  0  0  0
  9 39  1  0  0  0  0
 10 40  1  0  0  0  0
 11 10  2  0  0  0  0
 11 41  1  0  0  0  0
 12 42  1  0  0  0  0
 12 43  1  0  0  0  0
 13 44  1  0  0  0  0
 13 45  1  0  0  0  0
 14  6  1  0  0  0  0
 14 46  1  0  0  0  0
 14 47  1  0  0  0  0
 15  7  1  0  0  0  0
 15 48  1  0  0  0  0
 15 49  1  0  0  0  0
 16 12  1  0  0  0  0
 16 50  1  0  0  0  0
 16 51  1  0  0  0  0
 17 13  1  0  0  0  0
 17 52  1  0  0  0  0
 17 53  1  0  0  0  0
 18 54  1  0  0  0  0
 19  8  2  0  0  0  0
 19  9  1  0  0  0  0
 19 12  1  0  0  0  0
 20 10  1  0  0  0  0
 20 13  1  0  0  0  0
 20 18  2  0  0  0  0
 21 11  1  0  0  0  0
 22 18  1  0  0  0  0
 22 21  2  0  0  0  0
 23 14  1  0  0  0  0
 23 16  1  0  0  0  0
 23 55  1  0  0  0  0
 24 15  1  0  0  0  0
 24 17  1  0  0  0  0
 24 56  1  0  0  0  0
 25 21  1  0  0  0  0
 25 57  1  0  0  0  0
 26 22  1  0  0  0  0
 26 58  1  0  0  0  0
M  END
>  <DRUGBANK_ID>
DB12313

>  <COMMON_NAME>
Dopexamine

>  <CAS_NUMBER>
86197-47-9

>  <UNII>
398E7Z7JB5

>  <SYNONYMS>
Dopexamine

$$$$
