
 OpenBabel10282417072D

 67 71  0  0  0  0  0  0  0  0999 V2000
   -2.6466    0.4800    0.0000 C   0  0  1  0  0  0  0  0  0  0  0  0
   -2.4533    1.2835    0.0000 C   0  0  0  0  0  0  0  0  0  0  0  0
   -1.7007    1.6383    0.0000 N   0  0  0  0  0  0  0  0  0  0  0  0
   -2.1338   -0.1752    0.0000 C   0  0  0  0  0  0  0  0  0  0  0  0
   -0.9555    1.2753    0.0000 C   0  0  0  0  0  0  0  0  0  0  0  0
   -1.3022   -0.1819    0.0000 C   0  0  0  0  0  0  0  0  0  0  0  0
   -0.7808    0.4650    0.0000 C   0  0  1  0  0  0  0  0  0  0  0  0
   -4.7881    0.0592    0.0000 C   0  0  0  0  0  0  0  0  0  0  0  0
   -4.7893   -0.7677    0.0000 C   0  0  0  0  0  0  0  0  0  0  0  0
   -4.0748   -1.1804    0.0000 C   0  0  0  0  0  0  0  0  0  0  0  0
   -3.3588   -0.7672    0.0000 C   0  0  0  0  0  0  0  0  0  0  0  0
   -3.3616    0.0628    0.0000 C   0  0  0  0  0  0  0  0  0  0  0  0
   -4.0766    0.4716    0.0000 C   0  0  0  0  0  0  0  0  0  0  0  0
   -4.0750   -2.0049    0.0000 F   0  0  0  0  0  0  0  0  0  0  0  0
   -2.6440   -1.1784    0.0000 F   0  0  0  0  0  0  0  0  0  0  0  0
   -0.0691    0.0488    0.0000 N   0  0  0  0  0  0  0  0  0  0  0  0
    0.6469    0.4576    0.0000 C   0  0  0  0  0  0  0  0  0  0  0  0
    1.3589    0.0420    0.0000 N   0  0  0  0  0  0  0  0  0  0  0  0
    0.6508    1.2822    0.0000 O   0  0  0  0  0  0  0  0  0  0  0  0
    1.3495   -0.7829    0.0000 C   0  0  0  0  0  0  0  0  0  0  0  0
    2.0574   -1.1984    0.0000 C   0  0  0  0  0  0  0  0  0  0  0  0
    2.7759   -0.7932    0.0000 C   0  0  3  0  0  0  0  0  0  0  0  0
    2.7818    0.0323    0.0000 C   0  0  0  0  0  0  0  0  0  0  0  0
    2.0693    0.4524    0.0000 C   0  0  0  0  0  0  0  0  0  0  0  0
    3.4865   -1.2115    0.0000 N   0  0  0  0  0  0  0  0  0  0  0  0
   -0.3066    1.7840    0.0000 O   0  0  0  0  0  0  0  0  0  0  0  0
   -1.6954    2.4628    0.0000 C   0  0  0  0  0  0  0  0  0  0  0  0
   -0.9787    2.8705    0.0000 C   0  0  0  0  0  0  0  0  0  0  0  0
   -0.2683    3.2907    0.0000 F   0  0  0  0  0  0  0  0  0  0  0  0
   -1.3969    3.5905    0.0000 F   0  0  0  0  0  0  0  0  0  0  0  0
   -0.2683    2.4619    0.0000 F   0  0  0  0  0  0  0  0  0  0  0  0
    4.7893   -1.4969    0.0000 N   0  0  0  0  0  0  0  0  0  0  0  0
    4.2428   -0.8795    0.0000 C   0  0  0  0  0  0  0  0  0  0  0  0
    4.3710   -2.2075    0.0000 C   0  0  0  0  0  0  0  0  0  0  0  0
    3.5700   -2.0285    0.0000 C   0  0  0  0  0  0  0  0  0  0  0  0
    3.0164   -2.6320    0.0000 C   0  0  0  0  0  0  0  0  0  0  0  0
    3.2628   -3.4147    0.0000 C   0  0  0  0  0  0  0  0  0  0  0  0
    4.0676   -3.5904    0.0000 C   0  0  0  0  0  0  0  0  0  0  0  0
    4.6175   -2.9856    0.0000 N   0  0  0  0  0  0  0  0  0  0  0  0
    4.4198   -0.0743    0.0000 O   0  0  0  0  0  0  0  0  0  0  0  0
   -3.5053    1.1184    0.0000 H   0  0  0  0  0  0  0  0  0  0  0  0
   -3.2832    1.9589    0.0000 H   0  0  0  0  0  0  0  0  0  0  0  0
   -3.4670    0.9411    0.0000 H   0  0  0  0  0  0  0  0  0  0  0  0
   -2.6063   -1.1352    0.0000 H   0  0  0  0  0  0  0  0  0  0  0  0
   -3.1981   -0.2856    0.0000 H   0  0  0  0  0  0  0  0  0  0  0  0
   -0.8443   -1.1490    0.0000 H   0  0  0  0  0  0  0  0  0  0  0  0
   -0.2397   -0.3080    0.0000 H   0  0  0  0  0  0  0  0  0  0  0  0
    0.0857    1.0928    0.0000 H   0  0  0  0  0  0  0  0  0  0  0  0
   -5.6819    0.5751    0.0000 H   0  0  0  0  0  0  0  0  0  0  0  0
   -5.6835   -1.2830    0.0000 H   0  0  0  0  0  0  0  0  0  0  0  0
   -4.0797    1.5036    0.0000 H   0  0  0  0  0  0  0  0  0  0  0  0
   -0.0742   -0.9357    0.0000 H   0  0  0  0  0  0  0  0  0  0  0  0
    0.4179   -1.3093    0.0000 H   0  0  0  0  0  0  0  0  0  0  0  0
    1.3407   -1.8529    0.0000 H   0  0  0  0  0  0  0  0  0  0  0  0
    2.0482   -2.2684    0.0000 H   0  0  0  0  0  0  0  0  0  0  0  0
    2.9790   -1.7421    0.0000 H   0  0  0  0  0  0  0  0  0  0  0  0
    1.8539   -0.2502    0.0000 H   0  0  0  0  0  0  0  0  0  0  0  0
    3.7128    0.5597    0.0000 H   0  0  0  0  0  0  0  0  0  0  0  0
    2.7911    1.1023    0.0000 H   0  0  0  0  0  0  0  0  0  0  0  0
    2.0741    1.5224    0.0000 H   0  0  0  0  0  0  0  0  0  0  0  0
    2.9996    0.9811    0.0000 H   0  0  0  0  0  0  0  0  0  0  0  0
   -2.6186    3.0037    0.0000 H   0  0  0  0  0  0  0  0  0  0  0  0
   -1.6886    3.5328    0.0000 H   0  0  0  0  0  0  0  0  0  0  0  0
    5.7692   -1.4023    0.0000 H   0  0  0  0  0  0  0  0  0  0  0  0
    2.0090   -2.4081    0.0000 H   0  0  0  0  0  0  0  0  0  0  0  0
    2.5666   -4.1765    0.0000 H   0  0  0  0  0  0  0  0  0  0  0  0
    4.3814   -4.5735    0.0000 H   0  0  0  0  0  0  0  0  0  0  0  0
  1  2  1  0  0  0  0
  1 12  1  0  0  0  0
  1  4  1  0  0  0  0
  1 41  1  6  0  0  0
  2  3  1  0  0  0  0
  2 42  1  0  0  0  0
  2 43  1  0  0  0  0
  3 27  1  0  0  0  0
  3  5  1  0  0  0  0
  4  6  1  0  0  0  0
  4 44  1  0  0  0  0
  4 45  1  0  0  0  0
  5 26  2  0  0  0  0
  5  7  1  0  0  0  0
  6  7  1  0  0  0  0
  6 46  1  0  0  0  0
  6 47  1  0  0  0  0
  7 16  1  0  0  0  0
  7 48  1  1  0  0  0
  8  9  2  0  0  0  0
  8 49  1  0  0  0  0
  9 10  1  0  0  0  0
  9 50  1  0  0  0  0
 10 11  2  0  0  0  0
 10 14  1  0  0  0  0
 11 12  1  0  0  0  0
 11 15  1  0  0  0  0
 12 13  2  0  0  0  0
 13  8  1  0  0  0  0
 13 51  1  0  0  0  0
 16 17  1  0  0  0  0
 16 52  1  0  0  0  0
 17 18  1  0  0  0  0
 17 19  2  0  0  0  0
 18 20  1  0  0  0  0
 18 24  1  0  0  0  0
 20 21  1  0  0  0  0
 20 53  1  0  0  0  0
 20 54  1  0  0  0  0
 21 22  1  0  0  0  0
 21 55  1  0  0  0  0
 21 56  1  0  0  0  0
 22 23  1  0  0  0  0
 22 25  1  0  0  0  0
 22 57  1  0  0  0  0
 23 24  1  0  0  0  0
 23 58  1  0  0  0  0
 23 59  1  0  0  0  0
 24 60  1  0  0  0  0
 24 61  1  0  0  0  0
 25 35  1  0  0  0  0
 27 28  1  0  0  0  0
 27 62  1  0  0  0  0
 27 63  1  0  0  0  0
 28 29  1  0  0  0  0
 28 30  1  0  0  0  0
 28 31  1  0  0  0  0
 32 33  1  0  0  0  0
 32 64  1  0  0  0  0
 33 25  1  0  0  0  0
 33 40  2  0  0  0  0
 34 32  1  0  0  0  0
 34 35  2  0  0  0  0
 35 36  1  0  0  0  0
 36 37  2  0  0  0  0
 36 65  1  0  0  0  0
 37 38  1  0  0  0  0
 37 66  1  0  0  0  0
 38 39  2  0  0  0  0
 38 67  1  0  0  0  0
 39 34  1  0  0  0  0
M  END
>  <DRUGBANK_ID>
DB12228

>  <SECONDARY_ACCESSION_NUMBERS>
DB05760

>  <COMMON_NAME>
Telcagepant

>  <CAS_NUMBER>
781649-09-0

>  <UNII>
D42O649ALL

>  <SYNONYMS>
Telcagepant

$$$$
