432
 OpenBabel10282417072D

 31 32  0  0  1  0  0  0  0  0999 V2000
    4.9205    1.2428    0.0000 F   0  0  0  0  0  0  0  0  0  0  0  0
    5.2224    2.3699    0.0000 F   0  0  0  0  0  0  0  0  0  0  0  0
    4.0955    2.6718    0.0000 F   0  0  0  0  0  0  0  0  0  0  0  0
    3.7465   -1.0026    0.0000 O   0  0  0  0  0  0  0  0  0  0  0  0
    2.1816   -2.4548    0.0000 O   0  0  0  0  0  0  0  0  0  0  0  0
    4.7970   -2.3685    0.0000 O   0  0  0  0  0  0  0  0  0  0  0  0
    1.6500    0.3073    0.0000 O   0  0  0  0  0  0  0  0  0  0  0  0
    3.0791    2.7824    0.0000 O   0  0  0  0  0  0  0  0  0  0  0  0
    3.0791    0.3073    0.0000 N   0  0  0  0  0  0  0  0  0  0  0  0
    2.3645    1.5448    0.0000 N   0  0  0  0  0  0  0  0  0  0  0  0
    3.0791   -0.5177    0.0000 C   0  0  1  0  0  0  0  0  0  0  0  0
    2.6665   -1.7873    0.0000 C   0  0  1  0  0  0  0  0  0  0  0  0
    2.4115   -1.0026    0.0000 C   0  0  0  0  0  0  0  0  0  0  0  0
    3.4916   -1.7873    0.0000 C   0  0  1  0  0  0  0  0  0  0  0  0
    3.9764   -2.4548    0.0000 C   0  0  0  0  0  0  0  0  0  0  0  0
    3.7935    0.7198    0.0000 C   0  0  0  0  0  0  0  0  0  0  0  0
    2.3645    0.7198    0.0000 C   0  0  0  0  0  0  0  0  0  0  0  0
    3.7935    1.5448    0.0000 C   0  0  0  0  0  0  0  0  0  0  0  0
    3.0791    1.9574    0.0000 C   0  0  0  0  0  0  0  0  0  0  0  0
    4.5080    1.9574    0.0000 C   0  0  0  0  0  0  0  0  0  0  0  0
    1.2169   -2.3535    0.0000 H   0  0  0  0  0  0  0  0  0  0  0  0
    5.3672   -3.1532    0.0000 H   0  0  0  0  0  0  0  0  0  0  0  0
    1.5119    2.0370    0.0000 H   0  0  0  0  0  0  0  0  0  0  0  0
    4.0325   -0.0319    0.0000 H   0  0  0  0  0  0  0  0  0  0  0  0
    1.6097   -1.6200    0.0000 H   0  0  0  0  0  0  0  0  0  0  0  0
    1.3939   -0.6719    0.0000 H   0  0  0  0  0  0  0  0  0  0  0  0
    1.6549   -1.7592    0.0000 H   0  0  0  0  0  0  0  0  0  0  0  0
    4.5484   -1.6200    0.0000 H   0  0  0  0  0  0  0  0  0  0  0  0
    3.5411   -3.4323    0.0000 H   0  0  0  0  0  0  0  0  0  0  0  0
    2.9122   -2.5665    0.0000 H   0  0  0  0  0  0  0  0  0  0  0  0
    4.6872    0.2038    0.0000 H   0  0  0  0  0  0  0  0  0  0  0  0
  1 20  1  0  0  0  0
  2 20  1  0  0  0  0
  3 20  1  0  0  0  0
  4 11  1  0  0  0  0
  4 14  1  0  0  0  0
  5 21  1  0  0  0  0
  6 15  1  0  0  0  0
  6 22  1  0  0  0  0
  7 17  2  0  0  0  0
  8 19  2  0  0  0  0
  9 16  1  0  0  0  0
  9 17  1  0  0  0  0
 10 17  1  0  0  0  0
 10 19  1  0  0  0  0
 10 23  1  0  0  0  0
 11  9  1  0  0  0  0
 11 13  1  0  0  0  0
 11 24  1  1  0  0  0
 12  5  1  0  0  0  0
 12 13  1  0  0  0  0
 12 14  1  0  0  0  0
 12 25  1  6  0  0  0
 13 26  1  0  0  0  0
 13 27  1  0  0  0  0
 14 15  1  0  0  0  0
 14 28  1  1  0  0  0
 15 29  1  0  0  0  0
 15 30  1  0  0  0  0
 16 18  2  0  0  0  0
 16 31  1  0  0  0  0
 18 19  1  0  0  0  0
 18 20  1  0  0  0  0
M  END
>  <DRUGBANK_ID>
DB00432

>  <SECONDARY_ACCESSION_NUMBERS>
APRD01275

>  <COMMON_NAME>
Trifluridine

>  <CAS_NUMBER>
70-00-8

>  <UNII>
RMW9V5RW38

>  <SYNONYMS>
5-(Trifluoromethyl)deoxyuridine; 5-Trifluoromethyl-2-deoxyuridine; F‚ÇÉT; TFT; Trifluoromethyldeoxyuridine; Trifluorothymidine; Trifluorothymine deoxyriboside; Trifluridin; Trifluridina; Trifluridine; Trifluridinum

$$$$
