NOQ
 OpenBabel10282417072D

 50 51  0  0  0  0  0  0  0  0999 V2000
   -2.4725    1.1537    0.0000 C   0  0  0  0  0  0  0  0  0  0  0  0
   -2.4725    1.9787    0.0000 C   0  0  0  0  0  0  0  0  0  0  0  0
   -1.7581    2.3912    0.0000 C   0  0  0  0  0  0  0  0  0  0  0  0
   -1.0436    1.9787    0.0000 C   0  0  0  0  0  0  0  0  0  0  0  0
   -1.7581    0.7412    0.0000 C   0  0  0  0  0  0  0  0  0  0  0  0
   -1.0436    1.1537    0.0000 C   0  0  0  0  0  0  0  0  0  0  0  0
   -3.1870    2.3912    0.0000 O   0  0  0  0  0  0  0  0  0  0  0  0
    3.2432   -0.4963    0.0000 C   0  0  0  0  0  0  0  0  0  0  0  0
    2.5288   -0.9088    0.0000 N   0  0  0  0  0  0  0  0  0  0  0  0
    1.8143   -0.4963    0.0000 C   0  0  0  0  0  0  0  0  0  0  0  0
    1.8143    0.3287    0.0000 O   0  0  0  0  0  0  0  0  0  0  0  0
    1.0998   -0.9088    0.0000 C   0  0  2  0  0  0  0  0  0  0  0  0
    1.0998   -1.7338    0.0000 C   0  0  0  0  0  0  0  0  0  0  0  0
    0.3853   -2.1463    0.0000 C   0  0  0  0  0  0  0  0  0  0  0  0
   -0.3291   -1.7338    0.0000 C   0  0  0  0  0  0  0  0  0  0  0  0
   -0.3291   -0.9088    0.0000 C   0  0  0  0  0  0  0  0  0  0  0  0
    0.3853   -0.4963    0.0000 C   0  0  1  0  0  0  0  0  0  0  0  0
    0.3853    0.3287    0.0000 C   0  0  0  0  0  0  0  0  0  0  0  0
   -0.3291    0.7412    0.0000 S   0  0  0  0  0  0  0  0  0  0  0  0
   -0.7416    0.0268    0.0000 O   0  0  0  0  0  0  0  0  0  0  0  0
    0.0834    1.4557    0.0000 O   0  0  0  0  0  0  0  0  0  0  0  0
   -3.9015    1.9787    0.0000 C   0  0  0  0  0  0  0  0  0  0  0  0
    3.9577   -0.9088    0.0000 C   0  0  0  0  0  0  0  0  0  0  0  0
    4.6722   -0.4963    0.0000 N   0  0  0  0  0  0  0  0  0  0  0  0
    1.6055   -1.2007    0.0000 H   0  0  0  0  0  0  0  0  0  0  0  0
    0.8910   -0.2043    0.0000 H   0  0  0  0  0  0  0  0  0  0  0  0
   -3.3662    0.6377    0.0000 H   0  0  0  0  0  0  0  0  0  0  0  0
   -1.7581    3.4232    0.0000 H   0  0  0  0  0  0  0  0  0  0  0  0
   -0.1499    2.4947    0.0000 H   0  0  0  0  0  0  0  0  0  0  0  0
   -1.7581   -0.2908    0.0000 H   0  0  0  0  0  0  0  0  0  0  0  0
    3.2432    0.5737    0.0000 H   0  0  0  0  0  0  0  0  0  0  0  0
    4.1698    0.0387    0.0000 H   0  0  0  0  0  0  0  0  0  0  0  0
    2.5288   -1.8933    0.0000 H   0  0  0  0  0  0  0  0  0  0  0  0
    2.0264   -2.2688    0.0000 H   0  0  0  0  0  0  0  0  0  0  0  0
    1.0998   -2.8038    0.0000 H   0  0  0  0  0  0  0  0  0  0  0  0
    0.3853   -3.2163    0.0000 H   0  0  0  0  0  0  0  0  0  0  0  0
   -0.5414   -2.6813    0.0000 H   0  0  0  0  0  0  0  0  0  0  0  0
   -1.2558   -2.2688    0.0000 H   0  0  0  0  0  0  0  0  0  0  0  0
   -1.2557   -1.1988    0.0000 H   0  0  0  0  0  0  0  0  0  0  0  0
   -1.2558   -0.3738    0.0000 H   0  0  0  0  0  0  0  0  0  0  0  0
   -0.3291    0.1612    0.0000 H   0  0  0  0  0  0  0  0  0  0  0  0
    1.3120    0.8637    0.0000 H   0  0  0  0  0  0  0  0  0  0  0  0
    0.3853    1.3987    0.0000 H   0  0  0  0  0  0  0  0  0  0  0  0
   -4.8281    2.5137    0.0000 H   0  0  0  0  0  0  0  0  0  0  0  0
   -3.9015    0.9087    0.0000 H   0  0  0  0  0  0  0  0  0  0  0  0
   -4.8282    1.4437    0.0000 H   0  0  0  0  0  0  0  0  0  0  0  0
    3.9577   -1.9788    0.0000 H   0  0  0  0  0  0  0  0  0  0  0  0
    4.8843   -1.4438    0.0000 H   0  0  0  0  0  0  0  0  0  0  0  0
    5.5555   -1.0063    0.0000 H   0  0  0  0  0  0  0  0  0  0  0  0
    4.6722    0.5237    0.0000 H   0  0  0  0  0  0  0  0  0  0  0  0
  1  2  2  0  0  0  0
  1  5  1  0  0  0  0
  1 27  1  0  0  0  0
  2  3  1  0  0  0  0
  2  7  1  0  0  0  0
  3  4  2  0  0  0  0
  3 28  1  0  0  0  0
  4  6  1  0  0  0  0
  4 29  1  0  0  0  0
  5  6  2  0  0  0  0
  5 30  1  0  0  0  0
  6 19  1  0  0  0  0
  7 22  1  0  0  0  0
  8  9  1  0  0  0  0
  8 23  1  0  0  0  0
  8 31  1  0  0  0  0
  8 32  1  0  0  0  0
  9 10  1  0  0  0  0
  9 33  1  0  0  0  0
 10 11  2  0  0  0  0
 12 10  1  0  0  0  0
 12 13  1  0  0  0  0
 12 17  1  0  0  0  0
 12 25  1  1  0  0  0
 13 14  1  0  0  0  0
 13 34  1  0  0  0  0
 13 35  1  0  0  0  0
 14 15  1  0  0  0  0
 14 36  1  0  0  0  0
 14 37  1  0  0  0  0
 15 16  1  0  0  0  0
 15 38  1  0  0  0  0
 15 39  1  0  0  0  0
 16 17  1  0  0  0  0
 16 40  1  0  0  0  0
 16 41  1  0  0  0  0
 17 18  1  0  0  0  0
 17 26  1  6  0  0  0
 18 19  1  0  0  0  0
 18 42  1  0  0  0  0
 18 43  1  0  0  0  0
 19 20  2  0  0  0  0
 19 21  2  0  0  0  0
 22 44  1  0  0  0  0
 22 45  1  0  0  0  0
 22 46  1  0  0  0  0
 23 24  1  0  0  0  0
 23 47  1  0  0  0  0
 23 48  1  0  0  0  0
 24 49  1  0  0  0  0
 24 50  1  0  0  0  0
M  END
>  <DRUGBANK_ID>
DB08287

>  <COMMON_NAME>
(1R,2R)-N-(2-Aminoethyl)-2-{[(4-methoxyphenyl)sulfonyl]methyl}cyclohexanecarboxamide

$$$$
