53U
 OpenBabel10282417072D

 51 53  0  0  0  0  0  0  0  0999 V2000
    2.1162   -0.7490    0.0000 C   0  0  0  0  0  0  0  0  0  0  0  0
    1.1601   -1.8109    0.0000 N   0  0  0  0  0  0  0  0  0  0  0  0
    1.3316   -1.0039    0.0000 C   0  0  1  0  0  0  0  0  0  0  0  0
    0.7185   -0.4519    0.0000 C   0  0  0  0  0  0  0  0  0  0  0  0
    0.8901    0.3551    0.0000 O   0  0  0  0  0  0  0  0  0  0  0  0
   -0.0661   -0.7068    0.0000 N   0  0  0  0  0  0  0  0  0  0  0  0
   -0.3210   -1.4914    0.0000 C   0  0  0  0  0  0  0  0  0  0  0  0
   -1.1460   -1.4914    0.0000 C   0  0  0  0  0  0  0  0  0  0  0  0
   -1.4010   -0.7068    0.0000 C   0  0  0  0  0  0  0  0  0  0  0  0
   -0.7335   -0.2219    0.0000 C   0  0  1  0  0  0  0  0  0  0  0  0
   -0.7335    0.6031    0.0000 C   0  0  0  0  0  0  0  0  0  0  0  0
   -1.4480    1.0156    0.0000 N   0  0  0  0  0  0  0  0  0  0  0  0
   -1.4480    1.8406    0.0000 C   0  0  0  0  0  0  0  0  0  0  0  0
   -2.1625    2.2531    0.0000 C   0  0  0  0  0  0  0  0  0  0  0  0
   -2.8769    1.8406    0.0000 C   0  0  0  0  0  0  0  0  0  0  0  0
   -3.5914    2.2531    0.0000 C   0  0  0  0  0  0  0  0  0  0  0  0
   -3.5914    3.0781    0.0000 C   0  0  0  0  0  0  0  0  0  0  0  0
   -2.8769    3.4906    0.0000 C   0  0  0  0  0  0  0  0  0  0  0  0
   -2.1625    3.0781    0.0000 C   0  0  0  0  0  0  0  0  0  0  0  0
   -0.0191    1.0156    0.0000 O   0  0  0  0  0  0  0  0  0  0  0  0
    2.7293   -1.3010    0.0000 C   0  0  0  0  0  0  0  0  0  0  0  0
    3.5140   -1.0461    0.0000 C   0  0  0  0  0  0  0  0  0  0  0  0
    4.1271   -1.5981    0.0000 C   0  0  0  0  0  0  0  0  0  0  0  0
    3.9555   -2.4051    0.0000 C   0  0  0  0  0  0  0  0  0  0  0  0
    3.1709   -2.6600    0.0000 C   0  0  0  0  0  0  0  0  0  0  0  0
    2.5578   -2.1080    0.0000 C   0  0  0  0  0  0  0  0  0  0  0  0
    1.7656   -1.3946    0.0000 H   0  0  0  0  0  0  0  0  0  0  0  0
   -0.2133    0.0432    0.0000 H   0  0  0  0  0  0  0  0  0  0  0  0
    2.3387    0.2976    0.0000 H   0  0  0  0  0  0  0  0  0  0  0  0
    3.1338   -0.4183    0.0000 H   0  0  0  0  0  0  0  0  0  0  0  0
    0.1900   -2.1261    0.0000 H   0  0  0  0  0  0  0  0  0  0  0  0
    1.9181   -2.4934    0.0000 H   0  0  0  0  0  0  0  0  0  0  0  0
    0.3079   -2.3570    0.0000 H   0  0  0  0  0  0  0  0  0  0  0  0
   -0.8068   -2.4448    0.0000 H   0  0  0  0  0  0  0  0  0  0  0  0
   -1.7749   -2.3571    0.0000 H   0  0  0  0  0  0  0  0  0  0  0  0
   -2.2028   -1.3241    0.0000 H   0  0  0  0  0  0  0  0  0  0  0  0
   -2.4186   -0.3762    0.0000 H   0  0  0  0  0  0  0  0  0  0  0  0
   -1.5684    0.3500    0.0000 H   0  0  0  0  0  0  0  0  0  0  0  0
   -2.3006    0.5233    0.0000 H   0  0  0  0  0  0  0  0  0  0  0  0
   -0.5214    2.3756    0.0000 H   0  0  0  0  0  0  0  0  0  0  0  0
   -1.4480    2.9106    0.0000 H   0  0  0  0  0  0  0  0  0  0  0  0
   -2.8769    0.8086    0.0000 H   0  0  0  0  0  0  0  0  0  0  0  0
   -4.4851    1.7371    0.0000 H   0  0  0  0  0  0  0  0  0  0  0  0
   -4.4851    3.5941    0.0000 H   0  0  0  0  0  0  0  0  0  0  0  0
   -2.8769    4.5226    0.0000 H   0  0  0  0  0  0  0  0  0  0  0  0
   -1.2688    3.5941    0.0000 H   0  0  0  0  0  0  0  0  0  0  0  0
    3.7286   -0.0367    0.0000 H   0  0  0  0  0  0  0  0  0  0  0  0
    5.1086   -1.2792    0.0000 H   0  0  0  0  0  0  0  0  0  0  0  0
    4.7224   -3.0957    0.0000 H   0  0  0  0  0  0  0  0  0  0  0  0
    2.9563   -3.6694    0.0000 H   0  0  0  0  0  0  0  0  0  0  0  0
    1.5763   -2.4269    0.0000 H   0  0  0  0  0  0  0  0  0  0  0  0
  1  3  1  0  0  0  0
  1 21  1  0  0  0  0
  1 29  1  0  0  0  0
  1 30  1  0  0  0  0
  2 31  1  0  0  0  0
  2 32  1  0  0  0  0
  3  2  1  0  0  0  0
  3  4  1  0  0  0  0
  3 27  1  6  0  0  0
  4  5  2  0  0  0  0
  4  6  1  0  0  0  0
  6  7  1  0  0  0  0
  6 10  1  0  0  0  0
  7  8  1  0  0  0  0
  7 33  1  0  0  0  0
  7 34  1  0  0  0  0
  8  9  1  0  0  0  0
  8 35  1  0  0  0  0
  8 36  1  0  0  0  0
  9 10  1  0  0  0  0
  9 37  1  0  0  0  0
  9 38  1  0  0  0  0
 10 11  1  0  0  0  0
 10 28  1  6  0  0  0
 11 12  1  0  0  0  0
 11 20  2  0  0  0  0
 12 13  1  0  0  0  0
 12 39  1  0  0  0  0
 13 14  1  0  0  0  0
 13 40  1  0  0  0  0
 13 41  1  0  0  0  0
 14 15  2  0  0  0  0
 14 19  1  0  0  0  0
 15 16  1  0  0  0  0
 15 42  1  0  0  0  0
 16 17  2  0  0  0  0
 16 43  1  0  0  0  0
 17 18  1  0  0  0  0
 17 44  1  0  0  0  0
 18 19  2  0  0  0  0
 18 45  1  0  0  0  0
 19 46  1  0  0  0  0
 21 22  2  0  0  0  0
 21 26  1  0  0  0  0
 22 23  1  0  0  0  0
 22 47  1  0  0  0  0
 23 24  2  0  0  0  0
 23 48  1  0  0  0  0
 24 25  1  0  0  0  0
 24 49  1  0  0  0  0
 25 26  2  0  0  0  0
 25 50  1  0  0  0  0
 26 51  1  0  0  0  0
M  END
>  <DRUGBANK_ID>
DB07143

>  <COMMON_NAME>
D-phenylalanyl-N-benzyl-L-prolinamide

$$$$
