DCQ
 OpenBabel10282417072D

 53 53  0  0  0  0  0  0  0  0999 V2000
   -4.7924   -0.5757    0.0000 O   0  0  0  0  0  0  0  0  0  0  0  0
   -4.0779   -0.1632    0.0000 C   0  0  0  0  0  0  0  0  0  0  0  0
   -4.0779    0.6618    0.0000 C   0  0  0  0  0  0  0  0  0  0  0  0
   -4.7924    1.0743    0.0000 O   0  0  0  0  0  0  0  0  0  0  0  0
   -5.5068    0.6618    0.0000 C   0  0  0  0  0  0  0  0  0  0  0  0
   -3.3634    1.0743    0.0000 C   0  0  0  0  0  0  0  0  0  0  0  0
   -3.3634    1.8993    0.0000 O   0  0  0  0  0  0  0  0  0  0  0  0
   -2.6490    2.3118    0.0000 C   0  0  0  0  0  0  0  0  0  0  0  0
   -2.6490    0.6618    0.0000 C   0  0  0  0  0  0  0  0  0  0  0  0
   -1.9345    1.0743    0.0000 O   0  0  0  0  0  0  0  0  0  0  0  0
   -3.3634   -0.5757    0.0000 C   0  0  0  0  0  0  0  0  0  0  0  0
   -3.3634   -1.4007    0.0000 C   0  0  0  0  0  0  0  0  0  0  0  0
   -2.6490   -0.1632    0.0000 C   0  0  0  0  0  0  0  0  0  0  0  0
   -1.9345   -0.5757    0.0000 C   0  0  0  0  0  0  0  0  0  0  0  0
   -1.2200   -0.1632    0.0000 C   0  0  0  0  0  0  0  0  0  0  0  0
   -0.5055   -0.5757    0.0000 C   0  0  0  0  0  0  0  0  0  0  0  0
    0.2089   -0.1632    0.0000 C   0  0  0  0  0  0  0  0  0  0  0  0
    0.9234   -0.5757    0.0000 C   0  0  0  0  0  0  0  0  0  0  0  0
    1.6379   -0.1632    0.0000 C   0  0  0  0  0  0  0  0  0  0  0  0
    2.3523   -0.5757    0.0000 C   0  0  0  0  0  0  0  0  0  0  0  0
    3.0668   -0.1632    0.0000 C   0  0  0  0  0  0  0  0  0  0  0  0
    3.7813   -0.5757    0.0000 C   0  0  0  0  0  0  0  0  0  0  0  0
    4.4958   -0.1632    0.0000 C   0  0  0  0  0  0  0  0  0  0  0  0
   -6.4335    1.1968    0.0000 H   0  0  0  0  0  0  0  0  0  0  0  0
   -5.5068   -0.4082    0.0000 H   0  0  0  0  0  0  0  0  0  0  0  0
   -6.4334    0.1268    0.0000 H   0  0  0  0  0  0  0  0  0  0  0  0
   -1.7223    1.7768    0.0000 H   0  0  0  0  0  0  0  0  0  0  0  0
   -2.6490    3.3818    0.0000 H   0  0  0  0  0  0  0  0  0  0  0  0
   -1.7224    2.8468    0.0000 H   0  0  0  0  0  0  0  0  0  0  0  0
   -4.2900   -1.9357    0.0000 H   0  0  0  0  0  0  0  0  0  0  0  0
   -2.4368   -1.9357    0.0000 H   0  0  0  0  0  0  0  0  0  0  0  0
   -3.3634   -2.4707    0.0000 H   0  0  0  0  0  0  0  0  0  0  0  0
   -1.9345   -1.6457    0.0000 H   0  0  0  0  0  0  0  0  0  0  0  0
   -1.0079   -1.1107    0.0000 H   0  0  0  0  0  0  0  0  0  0  0  0
   -1.2200    0.9068    0.0000 H   0  0  0  0  0  0  0  0  0  0  0  0
   -0.2934    0.3718    0.0000 H   0  0  0  0  0  0  0  0  0  0  0  0
   -0.5055   -1.6457    0.0000 H   0  0  0  0  0  0  0  0  0  0  0  0
    0.4212   -1.1107    0.0000 H   0  0  0  0  0  0  0  0  0  0  0  0
    0.2089    0.9068    0.0000 H   0  0  0  0  0  0  0  0  0  0  0  0
    1.1355    0.3718    0.0000 H   0  0  0  0  0  0  0  0  0  0  0  0
    0.9234   -1.6457    0.0000 H   0  0  0  0  0  0  0  0  0  0  0  0
    1.8500   -1.1107    0.0000 H   0  0  0  0  0  0  0  0  0  0  0  0
    1.6379    0.9068    0.0000 H   0  0  0  0  0  0  0  0  0  0  0  0
    2.5646    0.3718    0.0000 H   0  0  0  0  0  0  0  0  0  0  0  0
    2.3523   -1.6457    0.0000 H   0  0  0  0  0  0  0  0  0  0  0  0
    3.2789   -1.1107    0.0000 H   0  0  0  0  0  0  0  0  0  0  0  0
    3.0668    0.9068    0.0000 H   0  0  0  0  0  0  0  0  0  0  0  0
    3.9934    0.3718    0.0000 H   0  0  0  0  0  0  0  0  0  0  0  0
    3.7813   -1.6457    0.0000 H   0  0  0  0  0  0  0  0  0  0  0  0
    4.7079   -1.1107    0.0000 H   0  0  0  0  0  0  0  0  0  0  0  0
    5.4224   -0.6982    0.0000 H   0  0  0  0  0  0  0  0  0  0  0  0
    4.4958    0.9068    0.0000 H   0  0  0  0  0  0  0  0  0  0  0  0
    5.4225    0.3718    0.0000 H   0  0  0  0  0  0  0  0  0  0  0  0
  1  2  2  0  0  0  0
  2  3  1  0  0  0  0
  2 11  1  0  0  0  0
  3  4  1  0  0  0  0
  3  6  2  0  0  0  0
  4  5  1  0  0  0  0
  5 24  1  0  0  0  0
  5 25  1  0  0  0  0
  5 26  1  0  0  0  0
  6  7  1  0  0  0  0
  6  9  1  0  0  0  0
  7  8  1  0  0  0  0
  8 27  1  0  0  0  0
  8 28  1  0  0  0  0
  8 29  1  0  0  0  0
  9 10  2  0  0  0  0
  9 13  1  0  0  0  0
 11 12  1  0  0  0  0
 11 13  2  0  0  0  0
 12 30  1  0  0  0  0
 12 31  1  0  0  0  0
 12 32  1  0  0  0  0
 13 14  1  0  0  0  0
 14 15  1  0  0  0  0
 14 33  1  0  0  0  0
 14 34  1  0  0  0  0
 15 16  1  0  0  0  0
 15 35  1  0  0  0  0
 15 36  1  0  0  0  0
 16 17  1  0  0  0  0
 16 37  1  0  0  0  0
 16 38  1  0  0  0  0
 17 18  1  0  0  0  0
 17 39  1  0  0  0  0
 17 40  1  0  0  0  0
 18 19  1  0  0  0  0
 18 41  1  0  0  0  0
 18 42  1  0  0  0  0
 19 20  1  0  0  0  0
 19 43  1  0  0  0  0
 19 44  1  0  0  0  0
 20 21  1  0  0  0  0
 20 45  1  0  0  0  0
 20 46  1  0  0  0  0
 21 22  1  0  0  0  0
 21 47  1  0  0  0  0
 21 48  1  0  0  0  0
 22 23  1  0  0  0  0
 22 49  1  0  0  0  0
 22 50  1  0  0  0  0
 23 51  1  0  0  0  0
 23 52  1  0  0  0  0
 23 53  1  0  0  0  0
M  END
>  <DRUGBANK_ID>
DB07640

>  <COMMON_NAME>
2-decyl-5,6-dimethoxy-3-methylcyclohexa-2,5-diene-1,4-dione

>  <UNII>
DP8EJ59CQN

$$$$
