577
 OpenBabel10282417072D

 43 44  0  0  1  0  0  0  0  0999 V2000
    7.4006    1.4761    0.0000 O   0  0  0  0  0  0  0  0  0  0  0  0
    6.0807   -0.2624    0.0000 O   0  0  0  0  0  0  0  0  0  0  0  0
    8.7589    1.0322    0.0000 O   0  0  0  0  0  0  0  0  0  0  0  0
    3.5220   -3.5307    0.0000 O   0  0  0  0  0  0  0  0  0  0  0  0
    5.0171   -1.2167    0.0000 N   0  0  0  0  0  0  0  0  0  0  0  0
    7.9132    3.0445    0.0000 N   0  0  0  0  0  0  0  0  0  0  0  0
    3.5220   -1.0556    0.0000 N   0  0  0  0  0  0  0  0  0  0  0  0
    5.0171   -2.5446    0.0000 N   0  0  0  0  0  0  0  0  0  0  0  0
    2.8075   -2.2931    0.0000 N   0  0  0  0  0  0  0  0  0  0  0  0
    2.0930   -1.0556    0.0000 N   0  0  0  0  0  0  0  0  0  0  0  0
    9.2715    2.6005    0.0000 C   0  0  0  0  0  0  0  0  0  0  0  0
    8.4642    2.4304    0.0000 C   0  0  1  0  0  0  0  0  0  0  0  0
    9.8224    1.9865    0.0000 C   0  0  0  0  0  0  0  0  0  0  0  0
    9.5278    3.3848    0.0000 C   0  0  0  0  0  0  0  0  0  0  0  0
    8.2079    1.6462    0.0000 C   0  0  0  0  0  0  0  0  0  0  0  0
    4.2365   -1.4681    0.0000 C   0  0  0  0  0  0  0  0  0  0  0  0
    5.2734   -0.4326    0.0000 C   0  0  0  0  0  0  0  0  0  0  0  0
    7.1443    0.6919    0.0000 C   0  0  0  0  0  0  0  0  0  0  0  0
    4.2365   -2.2931    0.0000 C   0  0  0  0  0  0  0  0  0  0  0  0
    6.3370    0.5217    0.0000 C   0  0  0  0  0  0  0  0  0  0  0  0
    5.4986   -1.8806    0.0000 C   0  0  0  0  0  0  0  0  0  0  0  0
    3.5220   -2.7056    0.0000 C   0  0  0  0  0  0  0  0  0  0  0  0
    2.8075   -1.4681    0.0000 C   0  0  0  0  0  0  0  0  0  0  0  0
    8.2301    4.0140    0.0000 H   0  0  0  0  0  0  0  0  0  0  0  0
    6.9151    2.8342    0.0000 H   0  0  0  0  0  0  0  0  0  0  0  0
    3.5220   -0.0711    0.0000 H   0  0  0  0  0  0  0  0  0  0  0  0
    2.0930   -0.0711    0.0000 H   0  0  0  0  0  0  0  0  0  0  0  0
    1.2404   -1.5479    0.0000 H   0  0  0  0  0  0  0  0  0  0  0  0
   10.3185    2.8212    0.0000 H   0  0  0  0  0  0  0  0  0  0  0  0
    8.7966    3.4474    0.0000 H   0  0  0  0  0  0  0  0  0  0  0  0
    9.4900    0.9695    0.0000 H   0  0  0  0  0  0  0  0  0  0  0  0
   10.8694    2.2071    0.0000 H   0  0  0  0  0  0  0  0  0  0  0  0
   10.5370    1.1901    0.0000 H   0  0  0  0  0  0  0  0  0  0  0  0
   10.5748    3.6055    0.0000 H   0  0  0  0  0  0  0  0  0  0  0  0
    8.8132    4.1812    0.0000 H   0  0  0  0  0  0  0  0  0  0  0  0
    9.8602    4.4019    0.0000 H   0  0  0  0  0  0  0  0  0  0  0  0
    4.5588    0.3638    0.0000 H   0  0  0  0  0  0  0  0  0  0  0  0
    4.2264   -0.6532    0.0000 H   0  0  0  0  0  0  0  0  0  0  0  0
    7.8589   -0.1045    0.0000 H   0  0  0  0  0  0  0  0  0  0  0  0
    6.8119   -0.3252    0.0000 H   0  0  0  0  0  0  0  0  0  0  0  0
    5.6224    1.3181    0.0000 H   0  0  0  0  0  0  0  0  0  0  0  0
    6.6694    1.5388    0.0000 H   0  0  0  0  0  0  0  0  0  0  0  0
    6.5306   -1.8806    0.0000 H   0  0  0  0  0  0  0  0  0  0  0  0
  1 15  1  0  0  0  0
  1 18  1  0  0  0  0
  2 17  1  0  0  0  0
  2 20  1  0  0  0  0
  3 15  2  0  0  0  0
  4 22  2  0  0  0  0
  5 16  1  0  0  0  0
  5 17  1  0  0  0  0
  5 21  1  0  0  0  0
  6 24  1  0  0  0  0
  6 25  1  0  0  0  0
  7 16  1  0  0  0  0
  7 23  1  0  0  0  0
  7 26  1  0  0  0  0
  8 19  1  0  0  0  0
  8 21  2  0  0  0  0
  9 22  1  0  0  0  0
  9 23  2  0  0  0  0
 10 23  1  0  0  0  0
 10 27  1  0  0  0  0
 10 28  1  0  0  0  0
 11 12  1  0  0  0  0
 11 13  1  0  0  0  0
 11 14  1  0  0  0  0
 11 29  1  0  0  0  0
 12  6  1  0  0  0  0
 12 15  1  0  0  0  0
 12 30  1  6  0  0  0
 13 31  1  0  0  0  0
 13 32  1  0  0  0  0
 13 33  1  0  0  0  0
 14 34  1  0  0  0  0
 14 35  1  0  0  0  0
 14 36  1  0  0  0  0
 16 19  2  0  0  0  0
 17 37  1  0  0  0  0
 17 38  1  0  0  0  0
 18 20  1  0  0  0  0
 18 39  1  0  0  0  0
 18 40  1  0  0  0  0
 19 22  1  0  0  0  0
 20 41  1  0  0  0  0
 20 42  1  0  0  0  0
 21 43  1  0  0  0  0
M  END
>  <DRUGBANK_ID>
DB00577

>  <SECONDARY_ACCESSION_NUMBERS>
APRD00697

>  <COMMON_NAME>
Valaciclovir

>  <CAS_NUMBER>
124832-26-4

>  <UNII>
MZ1IW7Q79D

>  <SYNONYMS>
L-Valine ester with 9-((2-hydroxyethoxy)methyl)guanine; L-Valine, 2-((2-amino-1,6-dihydro-6-oxo-9H-purin-9-yl)methoxy)ethyl ester; Valaciclovir; Valaciclovirum; Valacyclovir

$$$$
