
 OpenBabel10282417072D

 40 39  0  0  0  0  0  0  0  0999 V2000
    6.5704    3.7934    0.0000 C   0  0  0  0  0  0  0  0  0  0  0  0
    5.8559    3.3809    0.0000 C   0  0  0  0  0  0  0  0  0  0  0  0
    5.1414    3.7934    0.0000 C   0  0  0  0  0  0  0  0  0  0  0  0
    4.4270    3.3809    0.0000 N   0  0  0  0  0  0  0  0  0  0  0  0
    3.7125    3.7934    0.0000 C   0  0  0  0  0  0  0  0  0  0  0  0
    3.7125    4.6184    0.0000 C   0  0  0  0  0  0  0  0  0  0  0  0
    4.4270    5.0309    0.0000 O   0  0  0  0  0  0  0  0  0  0  0  0
    2.9980    5.0309    0.0000 O   0  0  0  0  0  0  0  0  0  0  0  0
    4.4270    2.5559    0.0000 C   0  0  0  0  0  0  0  0  0  0  0  0
    3.7125    2.1434    0.0000 C   0  0  0  0  0  0  0  0  0  0  0  0
    2.9980    2.5559    0.0000 O   0  0  0  0  0  0  0  0  0  0  0  0
    3.7125    1.3184    0.0000 O   0  0  0  0  0  0  0  0  0  0  0  0
    5.8559    2.5559    0.0000 O   0  0  0  0  0  0  0  0  0  0  0  0
    7.2849    3.3809    0.0000 N   0  0  0  0  0  0  0  0  0  0  0  0
    7.9993    3.7934    0.0000 C   0  0  0  0  0  0  0  0  0  0  0  0
    7.9993    4.6184    0.0000 C   0  0  0  0  0  0  0  0  0  0  0  0
    8.7138    5.0309    0.0000 O   0  0  0  0  0  0  0  0  0  0  0  0
    7.2849    5.0309    0.0000 O   0  0  0  0  0  0  0  0  0  0  0  0
    7.2849    2.5559    0.0000 C   0  0  0  0  0  0  0  0  0  0  0  0
    7.9993    2.1434    0.0000 C   0  0  0  0  0  0  0  0  0  0  0  0
    8.7138    2.5559    0.0000 O   0  0  0  0  0  0  0  0  0  0  0  0
    7.9993    1.3184    0.0000 O   0  0  0  0  0  0  0  0  0  0  0  0
    6.5704    4.8634    0.0000 H   0  0  0  0  0  0  0  0  0  0  0  0
    7.4970    4.3284    0.0000 H   0  0  0  0  0  0  0  0  0  0  0  0
    4.9293    2.8459    0.0000 H   0  0  0  0  0  0  0  0  0  0  0  0
    5.1414    4.8634    0.0000 H   0  0  0  0  0  0  0  0  0  0  0  0
    4.2147    4.3284    0.0000 H   0  0  0  0  0  0  0  0  0  0  0  0
    2.7859    3.2584    0.0000 H   0  0  0  0  0  0  0  0  0  0  0  0
    2.7859    4.3284    0.0000 H   0  0  0  0  0  0  0  0  0  0  0  0
    2.9980    5.9679    0.0000 H   0  0  0  0  0  0  0  0  0  0  0  0
    5.3536    2.0209    0.0000 H   0  0  0  0  0  0  0  0  0  0  0  0
    4.4270    1.4859    0.0000 H   0  0  0  0  0  0  0  0  0  0  0  0
    2.9010    0.8499    0.0000 H   0  0  0  0  0  0  0  0  0  0  0  0
    5.0159    2.0709    0.0000 H   0  0  0  0  0  0  0  0  0  0  0  0
    8.9260    3.2584    0.0000 H   0  0  0  0  0  0  0  0  0  0  0  0
    8.9259    4.3284    0.0000 H   0  0  0  0  0  0  0  0  0  0  0  0
    7.2849    5.9679    0.0000 H   0  0  0  0  0  0  0  0  0  0  0  0
    6.3582    2.0209    0.0000 H   0  0  0  0  0  0  0  0  0  0  0  0
    7.2849    1.4859    0.0000 H   0  0  0  0  0  0  0  0  0  0  0  0
    7.1878    0.8499    0.0000 H   0  0  0  0  0  0  0  0  0  0  0  0
  1  2  1  0  0  0  0
  1 14  1  0  0  0  0
  1 23  1  0  0  0  0
  1 24  1  0  0  0  0
  2  3  1  0  0  0  0
  2 13  1  0  0  0  0
  2 25  1  0  0  0  0
  3  4  1  0  0  0  0
  3 26  1  0  0  0  0
  3 27  1  0  0  0  0
  4  5  1  0  0  0  0
  4  9  1  0  0  0  0
  5  6  1  0  0  0  0
  5 28  1  0  0  0  0
  5 29  1  0  0  0  0
  6  7  2  0  0  0  0
  6  8  1  0  0  0  0
  8 30  1  0  0  0  0
  9 10  1  0  0  0  0
  9 31  1  0  0  0  0
  9 32  1  0  0  0  0
 10 11  2  0  0  0  0
 10 12  1  0  0  0  0
 12 33  1  0  0  0  0
 13 34  1  0  0  0  0
 14 15  1  0  0  0  0
 14 19  1  0  0  0  0
 15 16  1  0  0  0  0
 15 35  1  0  0  0  0
 15 36  1  0  0  0  0
 16 17  2  0  0  0  0
 16 18  1  0  0  0  0
 18 37  1  0  0  0  0
 19 20  1  0  0  0  0
 19 38  1  0  0  0  0
 19 39  1  0  0  0  0
 20 21  2  0  0  0  0
 20 22  1  0  0  0  0
 22 40  1  0  0  0  0
M  END
>  <DRUGBANK_ID>
DB12362

>  <COMMON_NAME>
Diaminopropanol tetraacetic acid

>  <CAS_NUMBER>
3148-72-9

>  <UNII>
949B9ZMO7M

>  <SYNONYMS>
DAPT; Diaminohydroxypropanetetraacetic acid

$$$$
