PY9
 OpenBabel10282417072D

 41 43  0  0  0  0  0  0  0  0999 V2000
    0.0558   -0.4522    0.0000 N   0  0  0  0  0  0  0  0  0  0  0  0
    2.6797   -1.8534    0.0000 C   0  0  0  0  0  0  0  0  0  0  0  0
    2.8513   -1.0464    0.0000 C   0  0  0  0  0  0  0  0  0  0  0  0
    2.2382   -0.4944    0.0000 C   0  0  0  0  0  0  0  0  0  0  0  0
    0.8404   -0.1973    0.0000 C   0  0  0  0  0  0  0  0  0  0  0  0
   -0.6116    0.0327    0.0000 C   0  0  1  0  0  0  0  0  0  0  0  0
   -1.0241   -1.2368    0.0000 C   0  0  0  0  0  0  0  0  0  0  0  0
    0.1029    1.2702    0.0000 C   0  0  0  0  0  0  0  0  0  0  0  0
   -0.6116    2.5077    0.0000 C   0  0  0  0  0  0  0  0  0  0  0  0
   -1.3261    1.2702    0.0000 C   0  0  0  0  0  0  0  0  0  0  0  0
    0.1029    2.0952    0.0000 C   0  0  0  0  0  0  0  0  0  0  0  0
    1.2820   -1.5563    0.0000 C   0  0  0  0  0  0  0  0  0  0  0  0
   -1.3261    2.0952    0.0000 C   0  0  0  0  0  0  0  0  0  0  0  0
    1.8951   -2.1083    0.0000 C   0  0  0  0  0  0  0  0  0  0  0  0
    1.4535   -0.7493    0.0000 C   0  0  0  0  0  0  0  0  0  0  0  0
   -0.6116    0.8577    0.0000 C   0  0  0  0  0  0  0  0  0  0  0  0
   -1.2791   -0.4522    0.0000 C   0  0  0  0  0  0  0  0  0  0  0  0
   -0.1991   -1.2368    0.0000 C   0  0  0  0  0  0  0  0  0  0  0  0
   -2.0406    0.8577    0.0000 C   0  0  0  0  0  0  0  0  0  0  0  0
    1.0120    0.6097    0.0000 O   0  0  0  0  0  0  0  0  0  0  0  0
    3.2928   -2.4054    0.0000 O   0  0  0  0  0  0  0  0  0  0  0  0
    2.4097    0.3126    0.0000 O   0  0  0  0  0  0  0  0  0  0  0  0
   -0.0913    0.2978    0.0000 H   0  0  0  0  0  0  0  0  0  0  0  0
    3.8328   -0.7275    0.0000 H   0  0  0  0  0  0  0  0  0  0  0  0
   -1.6530   -2.1025    0.0000 H   0  0  0  0  0  0  0  0  0  0  0  0
   -0.5383   -2.1902    0.0000 H   0  0  0  0  0  0  0  0  0  0  0  0
    0.9966    0.7542    0.0000 H   0  0  0  0  0  0  0  0  0  0  0  0
   -0.6116    3.5397    0.0000 H   0  0  0  0  0  0  0  0  0  0  0  0
    0.9966    2.6112    0.0000 H   0  0  0  0  0  0  0  0  0  0  0  0
    0.3005   -1.8752    0.0000 H   0  0  0  0  0  0  0  0  0  0  0  0
   -2.2198    2.6112    0.0000 H   0  0  0  0  0  0  0  0  0  0  0  0
    1.6805   -3.1177    0.0000 H   0  0  0  0  0  0  0  0  0  0  0  0
   -2.2967   -0.1216    0.0000 H   0  0  0  0  0  0  0  0  0  0  0  0
   -2.0357   -1.2088    0.0000 H   0  0  0  0  0  0  0  0  0  0  0  0
    0.4298   -2.1024    0.0000 H   0  0  0  0  0  0  0  0  0  0  0  0
   -0.6849   -2.1902    0.0000 H   0  0  0  0  0  0  0  0  0  0  0  0
   -2.9672    1.3927    0.0000 H   0  0  0  0  0  0  0  0  0  0  0  0
   -2.0406   -0.2123    0.0000 H   0  0  0  0  0  0  0  0  0  0  0  0
   -2.9673    0.3227    0.0000 H   0  0  0  0  0  0  0  0  0  0  0  0
    3.0980   -3.3219    0.0000 H   0  0  0  0  0  0  0  0  0  0  0  0
    3.3008    0.6022    0.0000 H   0  0  0  0  0  0  0  0  0  0  0  0
  1 18  1  0  0  0  0
  1  6  1  0  0  0  0
  2 14  1  0  0  0  0
  3  2  2  0  0  0  0
  3  4  1  0  0  0  0
  3 24  1  0  0  0  0
  4 15  2  0  0  0  0
  5  1  1  0  0  0  0
  6 16  1  0  0  0  0
  6 17  1  0  0  0  0
  6 23  1  1  0  0  0
  7 17  1  0  0  0  0
  7 25  1  0  0  0  0
  7 26  1  0  0  0  0
  8 16  2  0  0  0  0
  8 11  1  0  0  0  0
  8 27  1  0  0  0  0
  9 13  1  0  0  0  0
  9 28  1  0  0  0  0
 10 13  2  0  0  0  0
 10 19  1  0  0  0  0
 11  9  2  0  0  0  0
 11 29  1  0  0  0  0
 12 30  1  0  0  0  0
 13 31  1  0  0  0  0
 14 12  2  0  0  0  0
 14 32  1  0  0  0  0
 15  5  1  0  0  0  0
 15 12  1  0  0  0  0
 16 10  1  0  0  0  0
 17 33  1  0  0  0  0
 17 34  1  0  0  0  0
 18  7  1  0  0  0  0
 18 35  1  0  0  0  0
 18 36  1  0  0  0  0
 19 37  1  0  0  0  0
 19 38  1  0  0  0  0
 19 39  1  0  0  0  0
 20  5  2  0  0  0  0
 21  2  1  0  0  0  0
 21 40  1  0  0  0  0
 22  4  1  0  0  0  0
 22 41  1  0  0  0  0
M  END
>  <DRUGBANK_ID>
DB08442

>  <COMMON_NAME>
4-{[(2R)-2-(2-methylphenyl)pyrrolidin-1-yl]carbonyl}benzene-1,3-diol

$$$$
