
 OpenBabel10282417072D

 37 38  0  0  0  0  0  0  0  0999 V2000
    0.3586    0.5920    0.0000 C   0  0  0  0  0  0  0  0  0  0  0  0
    1.0729    1.0046    0.0000 C   0  0  0  0  0  0  0  0  0  0  0  0
    1.0729    1.8296    0.0000 C   0  0  0  0  0  0  0  0  0  0  0  0
    0.3586    2.2421    0.0000 C   0  0  0  0  0  0  0  0  0  0  0  0
   -0.3658    1.8296    0.0000 C   0  0  0  0  0  0  0  0  0  0  0  0
   -0.3658    1.0046    0.0000 C   0  0  0  0  0  0  0  0  0  0  0  0
    1.7873    0.5920    0.0000 C   0  0  0  0  0  0  0  0  0  0  0  0
    2.5016    1.0046    0.0000 C   0  0  0  0  0  0  0  0  0  0  0  0
    2.5016    1.8296    0.0000 C   0  0  0  0  0  0  0  0  0  0  0  0
    1.7873    2.2421    0.0000 C   0  0  0  0  0  0  0  0  0  0  0  0
    0.3635   -0.2348    0.0000 C   0  0  0  0  0  0  0  0  0  0  0  0
   -0.3500   -0.6529    0.0000 C   0  0  1  0  0  0  0  0  0  0  0  0
   -2.5016   -0.2542    0.0000 C   0  0  0  0  0  0  0  0  0  0  0  0
   -1.7826   -0.6626    0.0000 C   0  0  0  0  0  0  0  0  0  0  0  0
   -1.0691   -0.2445    0.0000 N   0  0  0  0  0  0  0  0  0  0  0  0
   -1.7781   -1.3238    0.0000 O   0  0  0  0  0  0  0  0  0  0  0  0
    0.5079   -1.5176    0.0000 O   0  0  0  0  0  0  0  0  0  0  0  0
   -0.7278   -2.2421    0.0000 O   0  0  0  0  0  0  0  0  0  0  0  0
   -1.0581   -1.8982    0.0000 O   0  0  0  0  0  0  0  0  0  0  0  0
   -0.3444   -1.4798    0.0000 B   0  5  0  0  0  0  0  0  0  0  0  0
   -0.3538   -0.1019    0.0000 H   0  0  0  0  0  0  0  0  0  0  0  0
   -1.0728    0.3064    0.0000 H   0  0  0  0  0  0  0  0  0  0  0  0
    0.3617    3.2741    0.0000 H   0  0  0  0  0  0  0  0  0  0  0  0
   -1.2580    2.3483    0.0000 H   0  0  0  0  0  0  0  0  0  0  0  0
   -1.2580    0.4860    0.0000 H   0  0  0  0  0  0  0  0  0  0  0  0
    1.7873   -0.4400    0.0000 H   0  0  0  0  0  0  0  0  0  0  0  0
    3.3954    0.4887    0.0000 H   0  0  0  0  0  0  0  0  0  0  0  0
    3.3954    2.3456    0.0000 H   0  0  0  0  0  0  0  0  0  0  0  0
    1.7873    3.2741    0.0000 H   0  0  0  0  0  0  0  0  0  0  0  0
    1.2934   -0.7641    0.0000 H   0  0  0  0  0  0  0  0  0  0  0  0
    0.3703   -1.3048    0.0000 H   0  0  0  0  0  0  0  0  0  0  0  0
   -2.5091    0.8158    0.0000 H   0  0  0  0  0  0  0  0  0  0  0  0
   -3.4245   -0.7957    0.0000 H   0  0  0  0  0  0  0  0  0  0  0  0
   -3.4320    0.2743    0.0000 H   0  0  0  0  0  0  0  0  0  0  0  0
    0.9552   -2.3783    0.0000 H   0  0  0  0  0  0  0  0  0  0  0  0
   -1.6962   -2.2979    0.0000 H   0  0  0  0  0  0  0  0  0  0  0  0
   -1.9013   -1.4188    0.0000 H   0  0  0  0  0  0  0  0  0  0  0  0
  1  2  2  0  0  0  0
  1  6  1  0  0  0  0
  1 11  1  0  0  0  0
  2  3  1  0  0  0  0
  2  7  1  0  0  0  0
  3  4  2  0  0  0  0
  4  5  1  0  0  0  0
  4 23  1  0  0  0  0
  5  6  2  0  0  0  0
  5 24  1  0  0  0  0
  6 25  1  0  0  0  0
  7  8  2  0  0  0  0
  7 26  1  0  0  0  0
  8  9  1  0  0  0  0
  8 27  1  0  0  0  0
  9 28  1  0  0  0  0
 10  3  1  0  0  0  0
 10  9  2  0  0  0  0
 10 29  1  0  0  0  0
 11 12  1  0  0  0  0
 11 30  1  0  0  0  0
 11 31  1  0  0  0  0
 12 15  1  0  0  0  0
 12 21  1  1  0  0  0
 13 32  1  0  0  0  0
 13 33  1  0  0  0  0
 13 34  1  0  0  0  0
 14 13  1  0  0  0  0
 14 15  1  0  0  0  0
 14 16  2  0  0  0  0
 17 35  1  0  0  0  0
 18 36  1  0  0  0  0
 19 37  1  0  0  0  0
 20 12  1  0  0  0  0
 20 17  1  0  0  0  0
 20 18  1  0  0  0  0
 20 19  1  0  0  0  0
 22 15  1  0  0  0  0
M  CHG  1  20  -1
M  END
>  <DRUGBANK_ID>
DB08566

>  <COMMON_NAME>
D-1-naphthyl-2-acetamido-ethane boronic acid

$$$$
