
 OpenBabel10282417072D

 81 85  0  0  1  0  0  0  0  0999 V2000
    5.0013    9.4875    0.0000 O   0  0  0  0  0  0  0  0  0  0  0  0
    5.0013    8.6625    0.0000 C   0  0  0  0  0  0  0  0  0  0  0  0
    4.2868    8.2500    0.0000 N   0  0  0  0  0  0  0  0  0  0  0  0
    4.2868    7.4250    0.0000 C   0  0  0  0  0  0  0  0  0  0  0  0
    5.0013    7.0125    0.0000 C   0  0  0  0  0  0  0  0  0  0  0  0
    5.7158    7.4250    0.0000 C   0  0  0  0  0  0  0  0  0  0  0  0
    5.7158    8.2500    0.0000 C   0  0  0  0  0  0  0  0  0  0  0  0
    5.0013    6.1875    0.0000 C   0  0  2  0  0  0  0  0  0  0  0  0
    4.2868    5.7750    0.0000 C   0  0  0  0  0  0  0  0  0  0  0  0
    3.5724    6.1875    0.0000 C   0  0  0  0  0  0  0  0  0  0  0  0
    3.5724    7.0125    0.0000 C   0  0  0  0  0  0  0  0  0  0  0  0
    5.7158    5.7750    0.0000 N   0  0  0  0  0  0  0  0  0  0  0  0
    6.4302    6.1875    0.0000 C   0  0  0  0  0  0  0  0  0  0  0  0
    7.1447    5.7750    0.0000 C   0  0  0  0  0  0  0  0  0  0  0  0
    7.8592    6.1875    0.0000 C   0  0  0  0  0  0  0  0  0  0  0  0
    8.5737    5.7750    0.0000 C   0  0  0  0  0  0  0  0  0  0  0  0
    9.2881    6.1875    0.0000 C   0  0  0  0  0  0  0  0  0  0  0  0
   10.0026    5.7750    0.0000 C   0  0  0  0  0  0  0  0  0  0  0  0
   10.7171    6.1875    0.0000 C   0  0  0  0  0  0  0  0  0  0  0  0
   11.4315    5.7750    0.0000 C   0  0  0  0  0  0  0  0  0  0  0  0
   12.1460    6.1875    0.0000 C   0  0  0  0  0  0  0  0  0  0  0  0
   12.8605    5.7750    0.0000 C   0  0  0  0  0  0  0  0  0  0  0  0
   13.5749    6.1875    0.0000 N   0  0  0  0  0  0  0  0  0  0  0  0
   14.2894    5.7750    0.0000 C   0  0  0  0  0  0  0  0  0  0  0  0
   15.0039    6.1875    0.0000 C   0  0  0  0  0  0  0  0  0  0  0  0
   15.0039    7.0125    0.0000 C   0  0  0  0  0  0  0  0  0  0  0  0
   15.7184    7.4250    0.0000 C   0  0  0  0  0  0  0  0  0  0  0  0
   16.4328    7.0125    0.0000 C   0  0  0  0  0  0  0  0  0  0  0  0
   16.4328    6.1875    0.0000 C   0  0  0  0  0  0  0  0  0  0  0  0
   15.7184    5.7750    0.0000 C   0  0  0  0  0  0  0  0  0  0  0  0
   15.7184    4.9500    0.0000 N   0  0  0  0  0  0  0  0  0  0  0  0
   15.0039    4.5375    0.0000 C   0  0  0  0  0  0  0  0  0  0  0  0
   15.0039    3.7125    0.0000 C   0  0  0  0  0  0  0  0  0  0  0  0
   14.2894    3.3000    0.0000 C   0  0  0  0  0  0  0  0  0  0  0  0
   13.5749    3.7125    0.0000 C   0  0  0  0  0  0  0  0  0  0  0  0
   13.5749    4.5375    0.0000 C   0  0  0  0  0  0  0  0  0  0  0  0
   14.2894    4.9500    0.0000 C   0  0  0  0  0  0  0  0  0  0  0  0
    3.4342    8.7423    0.0000 H   0  0  0  0  0  0  0  0  0  0  0  0
    6.6095    6.9090    0.0000 H   0  0  0  0  0  0  0  0  0  0  0  0
    6.6095    8.7660    0.0000 H   0  0  0  0  0  0  0  0  0  0  0  0
    5.9279    6.7225    0.0000 H   0  0  0  0  0  0  0  0  0  0  0  0
    4.2868    4.7050    0.0000 H   0  0  0  0  0  0  0  0  0  0  0  0
    3.3601    5.2400    0.0000 H   0  0  0  0  0  0  0  0  0  0  0  0
    2.6457    5.6525    0.0000 H   0  0  0  0  0  0  0  0  0  0  0  0
    2.6458    6.7225    0.0000 H   0  0  0  0  0  0  0  0  0  0  0  0
    2.6457    7.5475    0.0000 H   0  0  0  0  0  0  0  0  0  0  0  0
    3.5724    8.0825    0.0000 H   0  0  0  0  0  0  0  0  0  0  0  0
    5.7158    4.7550    0.0000 H   0  0  0  0  0  0  0  0  0  0  0  0
    6.4302    7.2575    0.0000 H   0  0  0  0  0  0  0  0  0  0  0  0
    7.3568    6.7225    0.0000 H   0  0  0  0  0  0  0  0  0  0  0  0
    7.1447    4.7050    0.0000 H   0  0  0  0  0  0  0  0  0  0  0  0
    8.0713    5.2400    0.0000 H   0  0  0  0  0  0  0  0  0  0  0  0
    7.8592    7.2575    0.0000 H   0  0  0  0  0  0  0  0  0  0  0  0
    8.7858    6.7225    0.0000 H   0  0  0  0  0  0  0  0  0  0  0  0
    8.5737    4.7050    0.0000 H   0  0  0  0  0  0  0  0  0  0  0  0
    9.5004    5.2400    0.0000 H   0  0  0  0  0  0  0  0  0  0  0  0
    9.2881    7.2575    0.0000 H   0  0  0  0  0  0  0  0  0  0  0  0
   10.2147    6.7225    0.0000 H   0  0  0  0  0  0  0  0  0  0  0  0
   10.0026    4.7050    0.0000 H   0  0  0  0  0  0  0  0  0  0  0  0
   10.9292    5.2400    0.0000 H   0  0  0  0  0  0  0  0  0  0  0  0
   10.7171    7.2575    0.0000 H   0  0  0  0  0  0  0  0  0  0  0  0
   11.6438    6.7225    0.0000 H   0  0  0  0  0  0  0  0  0  0  0  0
   11.4315    4.7050    0.0000 H   0  0  0  0  0  0  0  0  0  0  0  0
   12.3581    5.2400    0.0000 H   0  0  0  0  0  0  0  0  0  0  0  0
   12.1460    7.2575    0.0000 H   0  0  0  0  0  0  0  0  0  0  0  0
   13.0726    6.7225    0.0000 H   0  0  0  0  0  0  0  0  0  0  0  0
   12.8605    4.7050    0.0000 H   0  0  0  0  0  0  0  0  0  0  0  0
   13.7872    5.2400    0.0000 H   0  0  0  0  0  0  0  0  0  0  0  0
   13.5749    7.1720    0.0000 H   0  0  0  0  0  0  0  0  0  0  0  0
   14.0773    7.5475    0.0000 H   0  0  0  0  0  0  0  0  0  0  0  0
   15.0039    8.0825    0.0000 H   0  0  0  0  0  0  0  0  0  0  0  0
   15.7184    8.4950    0.0000 H   0  0  0  0  0  0  0  0  0  0  0  0
   16.6451    7.9600    0.0000 H   0  0  0  0  0  0  0  0  0  0  0  0
   17.3595    7.5475    0.0000 H   0  0  0  0  0  0  0  0  0  0  0  0
   17.3594    6.4775    0.0000 H   0  0  0  0  0  0  0  0  0  0  0  0
   17.3595    5.6525    0.0000 H   0  0  0  0  0  0  0  0  0  0  0  0
   16.4328    5.1175    0.0000 H   0  0  0  0  0  0  0  0  0  0  0  0
   15.8976    3.1965    0.0000 H   0  0  0  0  0  0  0  0  0  0  0  0
   14.2894    2.2680    0.0000 H   0  0  0  0  0  0  0  0  0  0  0  0
   12.6812    3.1965    0.0000 H   0  0  0  0  0  0  0  0  0  0  0  0
   12.6812    5.0535    0.0000 H   0  0  0  0  0  0  0  0  0  0  0  0
  1  2  2  0  0  0  0
  2  3  1  0  0  0  0
  2  7  1  0  0  0  0
  3  4  1  0  0  0  0
  3 38  1  0  0  0  0
  4  5  2  0  0  0  0
  4 11  1  0  0  0  0
  5  6  1  0  0  0  0
  5  8  1  0  0  0  0
  6  7  2  0  0  0  0
  6 39  1  0  0  0  0
  7 40  1  0  0  0  0
  8  9  1  0  0  0  0
  8 12  1  0  0  0  0
  8 41  1  6  0  0  0
  9 10  1  0  0  0  0
  9 42  1  0  0  0  0
  9 43  1  0  0  0  0
 10 11  1  0  0  0  0
 10 44  1  0  0  0  0
 10 45  1  0  0  0  0
 11 46  1  0  0  0  0
 11 47  1  0  0  0  0
 12 13  1  0  0  0  0
 12 48  1  0  0  0  0
 13 14  1  0  0  0  0
 13 49  1  0  0  0  0
 13 50  1  0  0  0  0
 14 15  1  0  0  0  0
 14 51  1  0  0  0  0
 14 52  1  0  0  0  0
 15 16  1  0  0  0  0
 15 53  1  0  0  0  0
 15 54  1  0  0  0  0
 16 17  1  0  0  0  0
 16 55  1  0  0  0  0
 16 56  1  0  0  0  0
 17 18  1  0  0  0  0
 17 57  1  0  0  0  0
 17 58  1  0  0  0  0
 18 19  1  0  0  0  0
 18 59  1  0  0  0  0
 18 60  1  0  0  0  0
 19 20  1  0  0  0  0
 19 61  1  0  0  0  0
 19 62  1  0  0  0  0
 20 21  1  0  0  0  0
 20 63  1  0  0  0  0
 20 64  1  0  0  0  0
 21 22  1  0  0  0  0
 21 65  1  0  0  0  0
 21 66  1  0  0  0  0
 22 23  1  0  0  0  0
 22 67  1  0  0  0  0
 22 68  1  0  0  0  0
 23 24  1  0  0  0  0
 23 69  1  0  0  0  0
 24 25  2  0  0  0  0
 24 37  1  0  0  0  0
 25 26  1  0  0  0  0
 25 30  1  0  0  0  0
 26 27  1  0  0  0  0
 26 70  1  0  0  0  0
 26 71  1  0  0  0  0
 27 28  1  0  0  0  0
 27 72  1  0  0  0  0
 27 73  1  0  0  0  0
 28 29  1  0  0  0  0
 28 74  1  0  0  0  0
 28 75  1  0  0  0  0
 29 30  1  0  0  0  0
 29 76  1  0  0  0  0
 29 77  1  0  0  0  0
 30 31  2  0  0  0  0
 31 32  1  0  0  0  0
 32 33  2  0  0  0  0
 32 37  1  0  0  0  0
 33 34  1  0  0  0  0
 33 78  1  0  0  0  0
 34 35  2  0  0  0  0
 34 79  1  0  0  0  0
 35 36  1  0  0  0  0
 35 80  1  0  0  0  0
 36 37  2  0  0  0  0
 36 81  1  0  0  0  0
M  END
>  <DRUGBANK_ID>
DB04615

>  <COMMON_NAME>
(S)-tacrine(10)-hupyridone

$$$$
