
 OpenBabel10282417072D

 67 69  0  0  1  0  0  0  0  0999 V2000
    0.0000   -4.9500    0.0000 C   0  0  0  0  0  0  0  0  0  0  0  0
    0.7145   -5.3625    0.0000 C   0  0  0  0  0  0  0  0  0  0  0  0
    1.4289   -4.9500    0.0000 C   0  0  0  0  0  0  0  0  0  0  0  0
    2.1434   -5.3625    0.0000 C   0  0  0  0  0  0  0  0  0  0  0  0
    2.8579   -4.9500    0.0000 C   0  0  0  0  0  0  0  0  0  0  0  0
    3.5724   -5.3625    0.0000 C   0  0  0  0  0  0  0  0  0  0  0  0
    4.2868   -4.9500    0.0000 C   0  0  0  0  0  0  0  0  0  0  0  0
    4.2868   -4.1250    0.0000 N   0  0  0  0  0  0  0  0  0  0  0  0
    5.0013   -3.7125    0.0000 C   0  0  0  0  0  0  0  0  0  0  0  0
    5.0013   -2.8875    0.0000 C   0  0  0  0  0  0  0  0  0  0  0  0
    4.2868   -2.4750    0.0000 C   0  0  0  0  0  0  0  0  0  0  0  0
    4.2868   -1.6500    0.0000 C   0  0  0  0  0  0  0  0  0  0  0  0
    5.0013   -1.2375    0.0000 C   0  0  0  0  0  0  0  0  0  0  0  0
    5.7158   -1.6500    0.0000 C   0  0  0  0  0  0  0  0  0  0  0  0
    5.7158   -2.4750    0.0000 C   0  0  0  0  0  0  0  0  0  0  0  0
    5.0013   -5.3625    0.0000 C   0  0  0  0  0  0  0  0  0  0  0  0
    5.7158   -4.9500    0.0000 O   0  0  0  0  0  0  0  0  0  0  0  0
    5.0013   -6.1875    0.0000 C   0  0  0  0  0  0  0  0  0  0  0  0
    5.7158   -6.6000    0.0000 C   0  0  2  0  0  0  0  0  0  0  0  0
    6.4302   -6.1875    0.0000 C   0  0  0  0  0  0  0  0  0  0  0  0
    7.1447   -6.6000    0.0000 C   0  0  0  0  0  0  0  0  0  0  0  0
    7.8592   -6.1875    0.0000 C   0  0  0  0  0  0  0  0  0  0  0  0
    7.1447   -7.4250    0.0000 C   0  0  0  0  0  0  0  0  0  0  0  0
    6.4302   -7.8375    0.0000 C   0  0  0  0  0  0  0  0  0  0  0  0
    5.7158   -7.4250    0.0000 C   0  0  1  0  0  0  0  0  0  0  0  0
    5.0013   -7.8375    0.0000 C   0  0  0  0  0  0  0  0  0  0  0  0
    4.2868   -7.4250    0.0000 C   0  0  0  0  0  0  0  0  0  0  0  0
    5.0013   -8.6625    0.0000 C   0  0  0  0  0  0  0  0  0  0  0  0
    4.2868   -6.6000    0.0000 C   0  0  0  0  0  0  0  0  0  0  0  0
    3.8019   -7.2674    0.0000 O   0  0  0  0  0  0  0  0  0  0  0  0
    3.5724   -6.1875    0.0000 C   0  0  0  0  0  0  0  0  0  0  0  0
    2.8579   -6.6000    0.0000 O   0  0  0  0  0  0  0  0  0  0  0  0
   -0.0000   -3.8800    0.0000 H   0  0  0  0  0  0  0  0  0  0  0  0
   -0.9266   -5.4850    0.0000 H   0  0  0  0  0  0  0  0  0  0  0  0
   -0.9267   -4.4150    0.0000 H   0  0  0  0  0  0  0  0  0  0  0  0
    0.7145   -6.4325    0.0000 H   0  0  0  0  0  0  0  0  0  0  0  0
    1.6412   -5.8975    0.0000 H   0  0  0  0  0  0  0  0  0  0  0  0
    1.4289   -3.8800    0.0000 H   0  0  0  0  0  0  0  0  0  0  0  0
    2.3555   -4.4150    0.0000 H   0  0  0  0  0  0  0  0  0  0  0  0
    2.1434   -6.4325    0.0000 H   0  0  0  0  0  0  0  0  0  0  0  0
    3.0700   -5.8975    0.0000 H   0  0  0  0  0  0  0  0  0  0  0  0
    2.8579   -3.8800    0.0000 H   0  0  0  0  0  0  0  0  0  0  0  0
    3.7845   -4.4150    0.0000 H   0  0  0  0  0  0  0  0  0  0  0  0
    3.4342   -3.6327    0.0000 H   0  0  0  0  0  0  0  0  0  0  0  0
    5.9279   -4.2475    0.0000 H   0  0  0  0  0  0  0  0  0  0  0  0
    5.9279   -3.1775    0.0000 H   0  0  0  0  0  0  0  0  0  0  0  0
    3.3931   -2.9910    0.0000 H   0  0  0  0  0  0  0  0  0  0  0  0
    3.3931   -1.1340    0.0000 H   0  0  0  0  0  0  0  0  0  0  0  0
    5.0013   -0.2055    0.0000 H   0  0  0  0  0  0  0  0  0  0  0  0
    6.6095   -1.1340    0.0000 H   0  0  0  0  0  0  0  0  0  0  0  0
    6.6095   -2.9910    0.0000 H   0  0  0  0  0  0  0  0  0  0  0  0
    5.7158   -5.5300    0.0000 H   0  0  0  0  0  0  0  0  0  0  0  0
    6.4302   -5.1555    0.0000 H   0  0  0  0  0  0  0  0  0  0  0  0
    8.7858   -6.7225    0.0000 H   0  0  0  0  0  0  0  0  0  0  0  0
    7.8592   -5.1175    0.0000 H   0  0  0  0  0  0  0  0  0  0  0  0
    8.7859   -5.6525    0.0000 H   0  0  0  0  0  0  0  0  0  0  0  0
    8.0713   -7.9600    0.0000 H   0  0  0  0  0  0  0  0  0  0  0  0
    7.1447   -8.4950    0.0000 H   0  0  0  0  0  0  0  0  0  0  0  0
    6.4302   -8.9075    0.0000 H   0  0  0  0  0  0  0  0  0  0  0  0
    5.5035   -8.3725    0.0000 H   0  0  0  0  0  0  0  0  0  0  0  0
    5.7158   -8.4950    0.0000 H   0  0  0  0  0  0  0  0  0  0  0  0
    4.2868   -6.3550    0.0000 H   0  0  0  0  0  0  0  0  0  0  0  0
    3.3602   -7.9600    0.0000 H   0  0  0  0  0  0  0  0  0  0  0  0
    3.3601   -6.8900    0.0000 H   0  0  0  0  0  0  0  0  0  0  0  0
    4.1076   -9.1785    0.0000 H   0  0  0  0  0  0  0  0  0  0  0  0
    5.8950   -9.1785    0.0000 H   0  0  0  0  0  0  0  0  0  0  0  0
    2.8700   -7.1695    0.0000 H   0  0  0  0  0  0  0  0  0  0  0  0
  1  2  1  0  0  0  0
  1 33  1  0  0  0  0
  1 34  1  0  0  0  0
  1 35  1  0  0  0  0
  2  3  1  0  0  0  0
  2 36  1  0  0  0  0
  2 37  1  0  0  0  0
  3  4  1  0  0  0  0
  3 38  1  0  0  0  0
  3 39  1  0  0  0  0
  4  5  1  0  0  0  0
  4 40  1  0  0  0  0
  4 41  1  0  0  0  0
  5  6  1  0  0  0  0
  5 42  1  0  0  0  0
  5 43  1  0  0  0  0
  6  7  2  0  0  0  0
  6 31  1  0  0  0  0
  7  8  1  0  0  0  0
  7 16  1  0  0  0  0
  8  9  1  0  0  0  0
  8 44  1  0  0  0  0
  9 10  1  0  0  0  0
  9 45  1  0  0  0  0
  9 46  1  0  0  0  0
 10 11  2  0  0  0  0
 10 15  1  0  0  0  0
 11 12  1  0  0  0  0
 11 47  1  0  0  0  0
 12 13  2  0  0  0  0
 12 48  1  0  0  0  0
 13 14  1  0  0  0  0
 13 49  1  0  0  0  0
 14 15  2  0  0  0  0
 14 50  1  0  0  0  0
 15 51  1  0  0  0  0
 16 17  2  0  0  0  0
 16 18  1  0  0  0  0
 18 29  2  0  0  0  0
 19 18  1  0  0  0  0
 19 20  1  0  0  0  0
 19 25  1  0  0  0  0
 19 52  1  1  0  0  0
 20 21  2  0  0  0  0
 20 53  1  0  0  0  0
 21 22  1  0  0  0  0
 21 23  1  0  0  0  0
 22 54  1  0  0  0  0
 22 55  1  0  0  0  0
 22 56  1  0  0  0  0
 23 24  1  0  0  0  0
 23 57  1  0  0  0  0
 23 58  1  0  0  0  0
 24 59  1  0  0  0  0
 24 60  1  0  0  0  0
 25 24  1  0  0  0  0
 25 26  1  0  0  0  0
 25 61  1  6  0  0  0
 26 27  1  0  0  0  0
 26 28  2  0  0  0  0
 27 62  1  0  0  0  0
 27 63  1  0  0  0  0
 27 64  1  0  0  0  0
 28 65  1  0  0  0  0
 28 66  1  0  0  0  0
 29 30  1  0  0  0  0
 29 31  1  0  0  0  0
 30 67  1  0  0  0  0
 31 32  2  0  0  0  0
M  END
>  <DRUGBANK_ID>
DB18008

>  <COMMON_NAME>
Etrinabdione

>  <CAS_NUMBER>
1818428-24-8

>  <UNII>
KTJCIKNF3F

>  <SYNONYMS>
(1'r,6'r)-3-(benzylamine)-6-hydroxy-3'-methyl-4-pentyl-6'-(prop-1-en-2-yl)-(1,1'-bi(cyclohexane))-2',3,6-triene-2,5-dione; (1'r,6'r)-3-(benzylamino)-6-hydroxy-3'-methyl-4-pentyl-6'-(prop-1-en-2-yl)-(1,1'-bi(cyclohexane))-2',3,6-triene-2,5-dione; 2,5-cyclohexadiene-1,4-dione, 2-hydroxy-3-((1r,6r)-3-methyl-6-(1-methylethenyl)-2-cyclohexen-1-yl)-6-pentyl-5-((phenylmethyl)amino)-

$$$$
