
 OpenBabel10282417072D

127133  0  0  1  0  0  0  0  0999 V2000
    6.5011    1.5611    0.0000 H   0  0  0  0  0  0  0  0  0  0  0  0
    5.7339    1.2579    0.0000 C   0  0  2  0  0  0  0  0  0  0  0  0
    5.6395    2.0775    0.0000 C   0  0  0  0  0  0  0  0  0  0  0  0
    4.8826    2.4056    0.0000 C   0  0  2  0  0  0  0  0  0  0  0  0
    4.7882    3.2252    0.0000 O   0  0  0  0  0  0  0  0  0  0  0  0
    5.4509    3.7167    0.0000 C   0  0  0  0  0  0  0  0  0  0  0  0
    6.2078    3.3886    0.0000 O   0  0  0  0  0  0  0  0  0  0  0  0
    5.3565    4.5362    0.0000 O   0  0  0  0  0  0  0  0  0  0  0  0
    6.0191    5.0277    0.0000 C   0  0  0  0  0  0  0  0  0  0  0  0
    5.9248    5.8473    0.0000 C   0  0  3  0  0  0  0  0  0  0  0  0
    5.1679    6.1754    0.0000 O   0  0  0  0  0  0  0  0  0  0  0  0
    6.5874    6.3388    0.0000 C   0  0  0  0  0  0  0  0  0  0  0  0
    6.4931    7.1584    0.0000 O   0  0  0  0  0  0  0  0  0  0  0  0
    4.2200    1.9141    0.0000 C   0  0  1  0  0  0  0  0  0  0  0  0
    4.2180    2.7391    0.0000 C   0  0  0  0  0  0  0  0  0  0  0  0
    3.5418    2.4122    0.0000 C   0  0  0  0  0  0  0  0  0  0  0  0
    3.7267    3.2162    0.0000 O   0  0  0  0  0  0  0  0  0  0  0  0
    2.7001    2.2577    0.0000 C   0  0  2  0  0  0  0  0  0  0  0  0
    2.2816    2.9687    0.0000 O   0  0  0  0  0  0  0  0  0  0  0  0
    1.4567    2.9618    0.0000 C   0  0  0  0  0  0  0  0  0  0  0  0
    1.0501    2.2439    0.0000 C   0  0  0  0  0  0  0  0  0  0  0  0
    1.0382    3.6728    0.0000 O   0  0  0  0  0  0  0  0  0  0  0  0
    2.1454    1.5834    0.0000 C   0  0  0  0  0  0  0  0  0  0  0  0
    1.4166    1.1151    0.0000 C   0  0  0  0  0  0  0  0  0  0  0  0
    0.6993    1.5227    0.0000 C   0  0  0  0  0  0  0  0  0  0  0  0
    1.3880    0.2702    0.0000 C   0  0  2  0  0  0  0  0  0  0  0  0
    2.1358   -0.1240    0.0000 C   0  0  0  0  0  0  0  0  0  0  0  0
    2.9040    0.2767    0.0000 C   0  0  1  0  0  0  0  0  0  0  0  0
    3.1675   -0.5051    0.0000 O   0  0  0  0  0  0  0  0  0  0  0  0
    3.7646    0.4239    0.0000 C   0  0  1  0  0  0  0  0  0  0  0  0
    4.1794   -0.2893    0.0000 O   0  0  0  0  0  0  0  0  0  0  0  0
    3.7692   -1.0051    0.0000 C   0  0  0  0  0  0  0  0  0  0  0  0
    2.9442   -1.0077    0.0000 O   0  0  0  0  0  0  0  0  0  0  0  0
    4.1839   -1.7182    0.0000 C   0  0  0  0  0  0  0  0  0  0  0  0
    5.0089   -1.7156    0.0000 C   0  0  0  0  0  0  0  0  0  0  0  0
    5.4237   -2.4287    0.0000 C   0  0  0  0  0  0  0  0  0  0  0  0
    5.0135   -3.1445    0.0000 C   0  0  0  0  0  0  0  0  0  0  0  0
    4.1885   -3.1471    0.0000 C   0  0  0  0  0  0  0  0  0  0  0  0
    3.7737   -2.4340    0.0000 C   0  0  0  0  0  0  0  0  0  0  0  0
    4.3143    1.0945    0.0000 C   0  0  2  0  0  0  0  0  0  0  0  0
    4.5084    0.2927    0.0000 H   0  0  0  0  0  0  0  0  0  0  0  0
    5.0712    0.7664    0.0000 C   0  0  2  0  0  0  0  0  0  0  0  0
    5.5627    0.1038    0.0000 C   0  0  0  0  0  0  0  0  0  0  0  0
    6.2253    0.5953    0.0000 O   0  0  0  0  0  0  0  0  0  0  0  0
    4.5584    0.1202    0.0000 O   0  0  0  0  0  0  0  0  0  0  0  0
    4.8616   -0.6471    0.0000 C   0  0  0  0  0  0  0  0  0  0  0  0
    5.6777   -0.7681    0.0000 C   0  0  0  0  0  0  0  0  0  0  0  0
    4.3488   -1.2933    0.0000 O   0  0  0  0  0  0  0  0  0  0  0  0
    2.5824    0.9635    0.0000 C   0  0  0  0  0  0  0  0  0  0  0  0
    3.3995    1.0777    0.0000 C   0  0  0  0  0  0  0  0  0  0  0  0
    3.0868    1.6164    0.0000 C   0  0  0  0  0  0  0  0  0  0  0  0
    0.6745   -0.1439    0.0000 O   0  0  0  0  0  0  0  0  0  0  0  0
    0.6765   -0.9689    0.0000 C   0  0  0  0  0  0  0  0  0  0  0  0
    1.3919   -1.3798    0.0000 O   0  0  0  0  0  0  0  0  0  0  0  0
   -0.0370   -1.3831    0.0000 C   0  0  2  0  0  0  0  0  0  0  0  0
   -0.7525   -0.9723    0.0000 O   0  0  0  0  0  0  0  0  0  0  0  0
   -0.0351   -2.2081    0.0000 C   0  0  1  0  0  0  0  0  0  0  0  0
   -0.7486   -2.6223    0.0000 N   0  0  0  0  0  0  0  0  0  0  0  0
   -0.7467   -3.4473    0.0000 C   0  0  0  0  0  0  0  0  0  0  0  0
   -0.0313   -3.8581    0.0000 O   0  0  0  0  0  0  0  0  0  0  0  0
   -1.4602   -3.8614    0.0000 C   0  0  0  0  0  0  0  0  0  0  0  0
   -1.4583   -4.6864    0.0000 C   0  0  0  0  0  0  0  0  0  0  0  0
   -2.1718   -5.1006    0.0000 C   0  0  0  0  0  0  0  0  0  0  0  0
   -2.8872   -4.6898    0.0000 C   0  0  0  0  0  0  0  0  0  0  0  0
   -2.8891   -3.8648    0.0000 C   0  0  0  0  0  0  0  0  0  0  0  0
   -2.1756   -3.4506    0.0000 C   0  0  0  0  0  0  0  0  0  0  0  0
    0.6803   -2.6189    0.0000 C   0  0  0  0  0  0  0  0  0  0  0  0
    1.3938   -2.2048    0.0000 C   0  0  0  0  0  0  0  0  0  0  0  0
    2.1093   -2.6156    0.0000 C   0  0  0  0  0  0  0  0  0  0  0  0
    2.1112   -3.4406    0.0000 C   0  0  0  0  0  0  0  0  0  0  0  0
    1.3977   -3.8548    0.0000 C   0  0  0  0  0  0  0  0  0  0  0  0
    0.6823   -3.4439    0.0000 C   0  0  0  0  0  0  0  0  0  0  0  0
    6.4989    2.7150    0.0000 H   0  0  0  0  0  0  0  0  0  0  0  0
    5.5172    3.1405    0.0000 H   0  0  0  0  0  0  0  0  0  0  0  0
    5.7420    3.0431    0.0000 H   0  0  0  0  0  0  0  0  0  0  0  0
    7.0008    4.6022    0.0000 H   0  0  0  0  0  0  0  0  0  0  0  0
    6.8785    5.6651    0.0000 H   0  0  0  0  0  0  0  0  0  0  0  0
    5.0654    5.2099    0.0000 H   0  0  0  0  0  0  0  0  0  0  0  0
    5.0570    7.1390    0.0000 H   0  0  0  0  0  0  0  0  0  0  0  0
    7.5691    5.9133    0.0000 H   0  0  0  0  0  0  0  0  0  0  0  0
    7.4468    6.9762    0.0000 H   0  0  0  0  0  0  0  0  0  0  0  0
    7.2722    7.7362    0.0000 H   0  0  0  0  0  0  0  0  0  0  0  0
    5.1433    3.2763    0.0000 H   0  0  0  0  0  0  0  0  0  0  0  0
    3.2901    3.2719    0.0000 H   0  0  0  0  0  0  0  0  0  0  0  0
    4.2154    3.8091    0.0000 H   0  0  0  0  0  0  0  0  0  0  0  0
    3.1448    3.2309    0.0000 H   0  0  0  0  0  0  0  0  0  0  0  0
   -0.0199    2.2350    0.0000 H   0  0  0  0  0  0  0  0  0  0  0  0
    1.5927    1.3217    0.0000 H   0  0  0  0  0  0  0  0  0  0  0  0
    0.5228    1.3129    0.0000 H   0  0  0  0  0  0  0  0  0  0  0  0
    0.6920    2.5927    0.0000 H   0  0  0  0  0  0  0  0  0  0  0  0
   -0.2237    0.9814    0.0000 H   0  0  0  0  0  0  0  0  0  0  0  0
   -0.2310    2.0513    0.0000 H   0  0  0  0  0  0  0  0  0  0  0  0
    0.4699    0.8198    0.0000 H   0  0  0  0  0  0  0  0  0  0  0  0
    2.1335   -1.1940    0.0000 H   0  0  0  0  0  0  0  0  0  0  0  0
    3.0502   -0.6797    0.0000 H   0  0  0  0  0  0  0  0  0  0  0  0
    2.5264   -1.2330    0.0000 H   0  0  0  0  0  0  0  0  0  0  0  0
    3.3115   -0.5454    0.0000 H   0  0  0  0  0  0  0  0  0  0  0  0
    5.5220   -0.8202    0.0000 H   0  0  0  0  0  0  0  0  0  0  0  0
    6.4557   -2.4254    0.0000 H   0  0  0  0  0  0  0  0  0  0  0  0
    5.5323   -4.0366    0.0000 H   0  0  0  0  0  0  0  0  0  0  0  0
    3.6754   -4.0425    0.0000 H   0  0  0  0  0  0  0  0  0  0  0  0
    2.7417   -2.4373    0.0000 H   0  0  0  0  0  0  0  0  0  0  0  0
    5.4058   -0.9546    0.0000 H   0  0  0  0  0  0  0  0  0  0  0  0
    6.4805   -0.4462    0.0000 H   0  0  0  0  0  0  0  0  0  0  0  0
    6.0710   -1.7632    0.0000 H   0  0  0  0  0  0  0  0  0  0  0  0
    6.3428    0.0701    0.0000 H   0  0  0  0  0  0  0  0  0  0  0  0
    6.7361   -0.9250    0.0000 H   0  0  0  0  0  0  0  0  0  0  0  0
    4.0576    0.2340    0.0000 H   0  0  0  0  0  0  0  0  0  0  0  0
    3.8011    2.0695    0.0000 H   0  0  0  0  0  0  0  0  0  0  0  0
    4.4592    1.2258    0.0000 H   0  0  0  0  0  0  0  0  0  0  0  0
    4.1472    1.4733    0.0000 H   0  0  0  0  0  0  0  0  0  0  0  0
    2.6806    2.6063    0.0000 H   0  0  0  0  0  0  0  0  0  0  0  0
    3.7410    2.4631    0.0000 H   0  0  0  0  0  0  0  0  0  0  0  0
   -0.0396   -0.3131    0.0000 H   0  0  0  0  0  0  0  0  0  0  0  0
   -0.7548   -0.0023    0.0000 H   0  0  0  0  0  0  0  0  0  0  0  0
   -0.9630   -1.6753    0.0000 H   0  0  0  0  0  0  0  0  0  0  0  0
   -1.6024   -2.1320    0.0000 H   0  0  0  0  0  0  0  0  0  0  0  0
   -0.5634   -5.2003    0.0000 H   0  0  0  0  0  0  0  0  0  0  0  0
   -2.1694   -6.1326    0.0000 H   0  0  0  0  0  0  0  0  0  0  0  0
   -3.7797   -5.2079    0.0000 H   0  0  0  0  0  0  0  0  0  0  0  0
   -3.7840   -3.3509    0.0000 H   0  0  0  0  0  0  0  0  0  0  0  0
   -2.1780   -2.4186    0.0000 H   0  0  0  0  0  0  0  0  0  0  0  0
    1.3914   -1.1728    0.0000 H   0  0  0  0  0  0  0  0  0  0  0  0
    3.0018   -2.0975    0.0000 H   0  0  0  0  0  0  0  0  0  0  0  0
    3.0061   -3.9545    0.0000 H   0  0  0  0  0  0  0  0  0  0  0  0
    1.4001   -4.8868    0.0000 H   0  0  0  0  0  0  0  0  0  0  0  0
   -0.2102   -3.9620    0.0000 H   0  0  0  0  0  0  0  0  0  0  0  0
  2  1  1  6  0  0  0
  2  3  1  0  0  0  0
  2 44  1  0  0  0  0
  3 73  1  0  0  0  0
  3 74  1  0  0  0  0
  4  3  1  0  0  0  0
  4  5  1  0  0  0  0
  4 75  1  6  0  0  0
  5  6  1  0  0  0  0
  6  7  2  0  0  0  0
  6  8  1  0  0  0  0
  8  9  1  0  0  0  0
  9 10  1  0  0  0  0
  9 76  1  0  0  0  0
  9 77  1  0  0  0  0
 10 11  1  0  0  0  0
 10 12  1  0  0  0  0
 10 78  1  0  0  0  0
 11 79  1  0  0  0  0
 12 13  1  0  0  0  0
 12 80  1  0  0  0  0
 12 81  1  0  0  0  0
 13 82  1  0  0  0  0
 14  4  1  0  0  0  0
 14 15  1  1  0  0  0
 14 16  1  0  0  0  0
 15 83  1  0  0  0  0
 15 84  1  0  0  0  0
 15 85  1  0  0  0  0
 16 17  2  0  0  0  0
 18 16  1  0  0  0  0
 18 19  1  0  0  0  0
 18 23  1  0  0  0  0
 18 86  1  6  0  0  0
 19 20  1  0  0  0  0
 20 21  1  0  0  0  0
 20 22  2  0  0  0  0
 21 87  1  0  0  0  0
 21 88  1  0  0  0  0
 21 89  1  0  0  0  0
 23 24  2  0  0  0  0
 23 49  1  0  0  0  0
 24 25  1  0  0  0  0
 25 90  1  0  0  0  0
 25 91  1  0  0  0  0
 25 92  1  0  0  0  0
 26 24  1  0  0  0  0
 26 27  1  0  0  0  0
 26 52  1  0  0  0  0
 26 93  1  1  0  0  0
 27 94  1  0  0  0  0
 27 95  1  0  0  0  0
 28 27  1  0  0  0  0
 28 29  1  1  0  0  0
 28 49  1  0  0  0  0
 29 96  1  0  0  0  0
 30 28  1  0  0  0  0
 30 31  1  0  0  0  0
 30 97  1  1  0  0  0
 31 32  1  0  0  0  0
 32 33  2  0  0  0  0
 32 34  1  0  0  0  0
 34 35  2  0  0  0  0
 34 39  1  0  0  0  0
 35 36  1  0  0  0  0
 35 98  1  0  0  0  0
 36 37  2  0  0  0  0
 36 99  1  0  0  0  0
 37 38  1  0  0  0  0
 37100  1  0  0  0  0
 38 39  2  0  0  0  0
 38101  1  0  0  0  0
 39102  1  0  0  0  0
 40 30  1  0  0  0  0
 40 14  1  0  0  0  0
 40 41  1  6  0  0  0
 40 42  1  0  0  0  0
 42  2  1  0  0  0  0
 42 43  1  0  0  0  0
 42 45  1  6  0  0  0
 43 44  1  0  0  0  0
 43103  1  0  0  0  0
 43104  1  0  0  0  0
 45 46  1  0  0  0  0
 46 47  1  0  0  0  0
 46 48  2  0  0  0  0
 47105  1  0  0  0  0
 47106  1  0  0  0  0
 47107  1  0  0  0  0
 49 50  1  0  0  0  0
 49 51  1  0  0  0  0
 50108  1  0  0  0  0
 50109  1  0  0  0  0
 50110  1  0  0  0  0
 51111  1  0  0  0  0
 51112  1  0  0  0  0
 51113  1  0  0  0  0
 52 53  1  0  0  0  0
 53 54  2  0  0  0  0
 55 53  1  0  0  0  0
 55 56  1  0  0  0  0
 55 57  1  0  0  0  0
 55114  1  6  0  0  0
 56115  1  0  0  0  0
 57 58  1  0  0  0  0
 57 67  1  0  0  0  0
 57116  1  1  0  0  0
 58 59  1  0  0  0  0
 58117  1  0  0  0  0
 59 60  2  0  0  0  0
 59 61  1  0  0  0  0
 61 62  2  0  0  0  0
 61 66  1  0  0  0  0
 62 63  1  0  0  0  0
 62118  1  0  0  0  0
 63 64  2  0  0  0  0
 63119  1  0  0  0  0
 64 65  1  0  0  0  0
 64120  1  0  0  0  0
 65 66  2  0  0  0  0
 65121  1  0  0  0  0
 66122  1  0  0  0  0
 67 68  2  0  0  0  0
 67 72  1  0  0  0  0
 68 69  1  0  0  0  0
 68123  1  0  0  0  0
 69 70  2  0  0  0  0
 69124  1  0  0  0  0
 70 71  1  0  0  0  0
 70125  1  0  0  0  0
 71 72  2  0  0  0  0
 71126  1  0  0  0  0
 72127  1  0  0  0  0
M  END
>  <DRUGBANK_ID>
DB17223

>  <COMMON_NAME>
Paclitaxel ceribate

>  <CAS_NUMBER>
186040-50-6

>  <UNII>
B3C86E80A0

>  <SYNONYMS>
Paclitaxel ceribate; Protaxel

$$$$
