
 OpenBabel10282417072D

 76 76  0  0  1  0  0  0  0  0999 V2000
    0.7145    2.0625    0.0000 C   0  0  0  0  0  0  0  0  0  0  0  0
    0.7145    1.2375    0.0000 C   0  0  0  0  0  0  0  0  0  0  0  0
    1.4289    0.8250    0.0000 C   0  0  0  0  0  0  0  0  0  0  0  0
    1.4289   -0.0000    0.0000 C   0  0  0  0  0  0  0  0  0  0  0  0
    2.1434   -0.4125    0.0000 O   0  0  0  0  0  0  0  0  0  0  0  0
    0.7145   -0.4125    0.0000 C   0  0  0  0  0  0  0  0  0  0  0  0
    0.0000    0.0000    0.0000 C   0  0  0  0  0  0  0  0  0  0  0  0
    0.0000    0.8250    0.0000 C   0  0  0  0  0  0  0  0  0  0  0  0
   -0.7145    1.2375    0.0000 O   0  0  0  0  0  0  0  0  0  0  0  0
   -0.7145   -0.4125    0.0000 C   0  0  0  0  0  0  0  0  0  0  0  0
    0.7145   -1.2375    0.0000 C   0  0  0  0  0  0  0  0  0  0  0  0
   -0.0000   -1.6500    0.0000 C   0  0  0  0  0  0  0  0  0  0  0  0
   -0.0000   -2.4750    0.0000 C   0  0  1  0  0  0  0  0  0  0  0  0
   -0.8250   -2.4750    0.0000 C   0  0  0  0  0  0  0  0  0  0  0  0
   -0.0000   -3.3000    0.0000 C   0  0  0  0  0  0  0  0  0  0  0  0
   -0.7145   -3.7125    0.0000 C   0  0  0  0  0  0  0  0  0  0  0  0
   -0.7145   -4.5375    0.0000 C   0  0  0  0  0  0  0  0  0  0  0  0
   -1.4289   -4.9500    0.0000 C   0  0  0  0  0  0  0  0  0  0  0  0
   -2.1434   -4.5375    0.0000 C   0  0  0  0  0  0  0  0  0  0  0  0
   -1.4289   -5.7750    0.0000 C   0  0  0  0  0  0  0  0  0  0  0  0
   -2.1434   -6.1875    0.0000 C   0  0  0  0  0  0  0  0  0  0  0  0
   -2.1434   -7.0125    0.0000 C   0  0  0  0  0  0  0  0  0  0  0  0
   -2.8579   -7.4250    0.0000 C   0  0  0  0  0  0  0  0  0  0  0  0
   -3.5724   -7.0125    0.0000 C   0  0  0  0  0  0  0  0  0  0  0  0
   -2.8579   -8.2500    0.0000 C   0  0  0  0  0  0  0  0  0  0  0  0
   -3.5724   -8.6625    0.0000 C   0  0  0  0  0  0  0  0  0  0  0  0
   -3.5724   -9.4875    0.0000 C   0  0  0  0  0  0  0  0  0  0  0  0
   -4.2868   -9.9000    0.0000 C   0  0  0  0  0  0  0  0  0  0  0  0
   -4.2868  -10.7250    0.0000 C   0  0  0  0  0  0  0  0  0  0  0  0
   -5.0013   -9.4875    0.0000 C   0  0  0  0  0  0  0  0  0  0  0  0
    0.8250   -2.4750    0.0000 O   0  0  0  0  0  0  0  0  0  0  0  0
    2.1434    1.2375    0.0000 C   0  0  0  0  0  0  0  0  0  0  0  0
    1.6411    2.5975    0.0000 H   0  0  0  0  0  0  0  0  0  0  0  0
   -0.2121    2.5975    0.0000 H   0  0  0  0  0  0  0  0  0  0  0  0
    0.7145    3.1325    0.0000 H   0  0  0  0  0  0  0  0  0  0  0  0
   -1.6411    0.1225    0.0000 H   0  0  0  0  0  0  0  0  0  0  0  0
   -0.7145   -1.4825    0.0000 H   0  0  0  0  0  0  0  0  0  0  0  0
   -1.6412   -0.9475    0.0000 H   0  0  0  0  0  0  0  0  0  0  0  0
    1.6411   -1.7725    0.0000 H   0  0  0  0  0  0  0  0  0  0  0  0
    0.7145   -2.3075    0.0000 H   0  0  0  0  0  0  0  0  0  0  0  0
   -0.9266   -1.1150    0.0000 H   0  0  0  0  0  0  0  0  0  0  0  0
   -0.9266   -2.1850    0.0000 H   0  0  0  0  0  0  0  0  0  0  0  0
   -1.3600   -1.5484    0.0000 H   0  0  0  0  0  0  0  0  0  0  0  0
   -1.3600   -3.4016    0.0000 H   0  0  0  0  0  0  0  0  0  0  0  0
   -1.8950   -2.4750    0.0000 H   0  0  0  0  0  0  0  0  0  0  0  0
    0.9266   -3.8350    0.0000 H   0  0  0  0  0  0  0  0  0  0  0  0
   -0.0000   -4.3700    0.0000 H   0  0  0  0  0  0  0  0  0  0  0  0
   -1.6411   -3.1775    0.0000 H   0  0  0  0  0  0  0  0  0  0  0  0
   -1.6411   -4.2475    0.0000 H   0  0  0  0  0  0  0  0  0  0  0  0
    0.1792   -5.0535    0.0000 H   0  0  0  0  0  0  0  0  0  0  0  0
   -2.1434   -3.4675    0.0000 H   0  0  0  0  0  0  0  0  0  0  0  0
   -3.0700   -5.0725    0.0000 H   0  0  0  0  0  0  0  0  0  0  0  0
   -3.0701   -4.0025    0.0000 H   0  0  0  0  0  0  0  0  0  0  0  0
   -0.5023   -6.3100    0.0000 H   0  0  0  0  0  0  0  0  0  0  0  0
   -1.4289   -6.8450    0.0000 H   0  0  0  0  0  0  0  0  0  0  0  0
   -3.0700   -5.6525    0.0000 H   0  0  0  0  0  0  0  0  0  0  0  0
   -3.0700   -6.7225    0.0000 H   0  0  0  0  0  0  0  0  0  0  0  0
   -1.2497   -7.5285    0.0000 H   0  0  0  0  0  0  0  0  0  0  0  0
   -3.5724   -5.9425    0.0000 H   0  0  0  0  0  0  0  0  0  0  0  0
   -4.4990   -7.5475    0.0000 H   0  0  0  0  0  0  0  0  0  0  0  0
   -4.4991   -6.4775    0.0000 H   0  0  0  0  0  0  0  0  0  0  0  0
   -1.9313   -8.7850    0.0000 H   0  0  0  0  0  0  0  0  0  0  0  0
   -2.8579   -9.3200    0.0000 H   0  0  0  0  0  0  0  0  0  0  0  0
   -4.4990   -8.1275    0.0000 H   0  0  0  0  0  0  0  0  0  0  0  0
   -4.4990   -9.1975    0.0000 H   0  0  0  0  0  0  0  0  0  0  0  0
   -2.6787  -10.0035    0.0000 H   0  0  0  0  0  0  0  0  0  0  0  0
   -5.2134  -11.2600    0.0000 H   0  0  0  0  0  0  0  0  0  0  0  0
   -3.3602  -11.2600    0.0000 H   0  0  0  0  0  0  0  0  0  0  0  0
   -4.2868  -11.7950    0.0000 H   0  0  0  0  0  0  0  0  0  0  0  0
   -5.0013   -8.4175    0.0000 H   0  0  0  0  0  0  0  0  0  0  0  0
   -5.9279  -10.0225    0.0000 H   0  0  0  0  0  0  0  0  0  0  0  0
   -5.9280   -8.9525    0.0000 H   0  0  0  0  0  0  0  0  0  0  0  0
    1.3100   -3.3150    0.0000 H   0  0  0  0  0  0  0  0  0  0  0  0
    3.0700    0.7025    0.0000 H   0  0  0  0  0  0  0  0  0  0  0  0
    2.1434    2.3075    0.0000 H   0  0  0  0  0  0  0  0  0  0  0  0
    3.0701    1.7725    0.0000 H   0  0  0  0  0  0  0  0  0  0  0  0
  1  2  1  0  0  0  0
  1 33  1  0  0  0  0
  1 34  1  0  0  0  0
  1 35  1  0  0  0  0
  2  3  2  0  0  0  0
  2  8  1  0  0  0  0
  3  4  1  0  0  0  0
  3 32  1  0  0  0  0
  4  5  2  0  0  0  0
  4  6  1  0  0  0  0
  6  7  2  0  0  0  0
  6 11  1  0  0  0  0
  7  8  1  0  0  0  0
  7 10  1  0  0  0  0
  8  9  2  0  0  0  0
 10 36  1  0  0  0  0
 10 37  1  0  0  0  0
 10 38  1  0  0  0  0
 11 12  1  0  0  0  0
 11 39  1  0  0  0  0
 11 40  1  0  0  0  0
 12 13  1  0  0  0  0
 12 41  1  0  0  0  0
 12 42  1  0  0  0  0
 13 14  1  0  0  0  0
 13 15  1  0  0  0  0
 13 31  1  1  0  0  0
 14 43  1  0  0  0  0
 14 44  1  0  0  0  0
 14 45  1  0  0  0  0
 15 16  1  0  0  0  0
 15 46  1  0  0  0  0
 15 47  1  0  0  0  0
 16 17  1  0  0  0  0
 16 48  1  0  0  0  0
 16 49  1  0  0  0  0
 17 18  2  0  0  0  0
 17 50  1  0  0  0  0
 18 19  1  0  0  0  0
 18 20  1  0  0  0  0
 19 51  1  0  0  0  0
 19 52  1  0  0  0  0
 19 53  1  0  0  0  0
 20 21  1  0  0  0  0
 20 54  1  0  0  0  0
 20 55  1  0  0  0  0
 21 22  1  0  0  0  0
 21 56  1  0  0  0  0
 21 57  1  0  0  0  0
 22 23  2  0  0  0  0
 22 58  1  0  0  0  0
 23 24  1  0  0  0  0
 23 25  1  0  0  0  0
 24 59  1  0  0  0  0
 24 60  1  0  0  0  0
 24 61  1  0  0  0  0
 25 26  1  0  0  0  0
 25 62  1  0  0  0  0
 25 63  1  0  0  0  0
 26 27  1  0  0  0  0
 26 64  1  0  0  0  0
 26 65  1  0  0  0  0
 27 28  2  0  0  0  0
 27 66  1  0  0  0  0
 28 29  1  0  0  0  0
 28 30  1  0  0  0  0
 29 67  1  0  0  0  0
 29 68  1  0  0  0  0
 29 69  1  0  0  0  0
 30 70  1  0  0  0  0
 30 71  1  0  0  0  0
 30 72  1  0  0  0  0
 31 73  1  0  0  0  0
 32 74  1  0  0  0  0
 32 75  1  0  0  0  0
 32 76  1  0  0  0  0
M  END
>  <DRUGBANK_ID>
DB11917

>  <COMMON_NAME>
Vatiquinone

>  <CAS_NUMBER>
1213269-98-7

>  <UNII>
6O85FK9I0X

>  <SYNONYMS>
alpha-Tocotrienol quinone; Vatiquinone

$$$$
