
 OpenBabel10282417072D

 45 44  0  0  1  0  0  0  0  0999 V2000
   10.4743    1.0974    0.0000 C   0  0  0  0  0  0  0  0  0  0  0  0
    9.7599    1.5099    0.0000 As  0  0  0  0  0  0  0  0  0  0  0  0
    9.0454    1.0974    0.0000 C   0  0  0  0  0  0  0  0  0  0  0  0
    9.7599    2.3349    0.0000 S   0  0  0  0  0  0  0  0  0  0  0  0
    9.0454    2.7474    0.0000 C   0  0  0  0  0  0  0  0  0  0  0  0
    9.0454    3.5724    0.0000 C   0  0  1  0  0  0  0  0  0  0  0  0
    8.3309    3.9849    0.0000 C   0  0  0  0  0  0  0  0  0  0  0  0
    8.3309    4.8099    0.0000 O   0  0  0  0  0  0  0  0  0  0  0  0
    7.6164    3.5724    0.0000 N   0  0  0  0  0  0  0  0  0  0  0  0
    6.9020    3.9849    0.0000 C   0  0  0  0  0  0  0  0  0  0  0  0
    6.1875    3.5724    0.0000 C   0  0  0  0  0  0  0  0  0  0  0  0
    5.4730    3.9849    0.0000 O   0  0  0  0  0  0  0  0  0  0  0  0
    6.1875    2.7474    0.0000 O   0  0  0  0  0  0  0  0  0  0  0  0
    9.7599    3.9849    0.0000 N   0  0  0  0  0  0  0  0  0  0  0  0
   10.4743    3.5724    0.0000 C   0  0  0  0  0  0  0  0  0  0  0  0
   10.4743    2.7474    0.0000 O   0  0  0  0  0  0  0  0  0  0  0  0
   11.1888    3.9849    0.0000 C   0  0  0  0  0  0  0  0  0  0  0  0
   11.9033    3.5724    0.0000 C   0  0  0  0  0  0  0  0  0  0  0  0
   12.6177    3.9849    0.0000 C   0  0  1  0  0  0  0  0  0  0  0  0
   13.3322    3.5724    0.0000 C   0  0  0  0  0  0  0  0  0  0  0  0
   14.0467    3.9849    0.0000 O   0  0  0  0  0  0  0  0  0  0  0  0
   13.3322    2.7474    0.0000 O   0  0  0  0  0  0  0  0  0  0  0  0
   12.6177    4.8099    0.0000 N   0  0  0  0  0  0  0  0  0  0  0  0
   10.4743    0.0274    0.0000 H   0  0  0  0  0  0  0  0  0  0  0  0
   11.4010    1.6324    0.0000 H   0  0  0  0  0  0  0  0  0  0  0  0
   11.4009    0.5624    0.0000 H   0  0  0  0  0  0  0  0  0  0  0  0
    8.1188    1.6324    0.0000 H   0  0  0  0  0  0  0  0  0  0  0  0
    9.0454    0.0274    0.0000 H   0  0  0  0  0  0  0  0  0  0  0  0
    8.1187    0.5624    0.0000 H   0  0  0  0  0  0  0  0  0  0  0  0
    8.1188    2.2124    0.0000 H   0  0  0  0  0  0  0  0  0  0  0  0
    8.1188    3.2824    0.0000 H   0  0  0  0  0  0  0  0  0  0  0  0
    9.9720    3.0374    0.0000 H   0  0  0  0  0  0  0  0  0  0  0  0
    7.6164    2.5879    0.0000 H   0  0  0  0  0  0  0  0  0  0  0  0
    6.9020    5.0549    0.0000 H   0  0  0  0  0  0  0  0  0  0  0  0
    5.9754    4.5199    0.0000 H   0  0  0  0  0  0  0  0  0  0  0  0
    5.3760    2.2789    0.0000 H   0  0  0  0  0  0  0  0  0  0  0  0
    9.7599    4.9694    0.0000 H   0  0  0  0  0  0  0  0  0  0  0  0
   11.1888    5.0549    0.0000 H   0  0  0  0  0  0  0  0  0  0  0  0
   12.1154    4.5199    0.0000 H   0  0  0  0  0  0  0  0  0  0  0  0
   11.9033    2.5024    0.0000 H   0  0  0  0  0  0  0  0  0  0  0  0
   12.8300    3.0374    0.0000 H   0  0  0  0  0  0  0  0  0  0  0  0
   11.6910    4.5199    0.0000 H   0  0  0  0  0  0  0  0  0  0  0  0
   12.5207    2.2789    0.0000 H   0  0  0  0  0  0  0  0  0  0  0  0
   13.5010    5.3199    0.0000 H   0  0  0  0  0  0  0  0  0  0  0  0
   11.7344    5.3199    0.0000 H   0  0  0  0  0  0  0  0  0  0  0  0
  1  2  1  0  0  0  0
  1 24  1  0  0  0  0
  1 25  1  0  0  0  0
  1 26  1  0  0  0  0
  2  3  1  0  0  0  0
  2  4  1  0  0  0  0
  3 27  1  0  0  0  0
  3 28  1  0  0  0  0
  3 29  1  0  0  0  0
  4  5  1  0  0  0  0
  5  6  1  0  0  0  0
  5 30  1  0  0  0  0
  5 31  1  0  0  0  0
  6  7  1  0  0  0  0
  6 14  1  0  0  0  0
  6 32  1  6  0  0  0
  7  8  2  0  0  0  0
  7  9  1  0  0  0  0
  9 10  1  0  0  0  0
  9 33  1  0  0  0  0
 10 11  1  0  0  0  0
 10 34  1  0  0  0  0
 10 35  1  0  0  0  0
 11 12  2  0  0  0  0
 11 13  1  0  0  0  0
 13 36  1  0  0  0  0
 14 15  1  0  0  0  0
 14 37  1  0  0  0  0
 15 16  2  0  0  0  0
 15 17  1  0  0  0  0
 17 18  1  0  0  0  0
 17 38  1  0  0  0  0
 17 39  1  0  0  0  0
 18 19  1  0  0  0  0
 18 40  1  0  0  0  0
 18 41  1  0  0  0  0
 19 20  1  0  0  0  0
 19 23  1  0  0  0  0
 19 42  1  1  0  0  0
 20 21  2  0  0  0  0
 20 22  1  0  0  0  0
 22 43  1  0  0  0  0
 23 44  1  0  0  0  0
 23 45  1  0  0  0  0
M  END
>  <DRUGBANK_ID>
DB06179

>  <COMMON_NAME>
Darinaparsin

>  <CAS_NUMBER>
69819-86-9

>  <UNII>
9XX54M675G

>  <SYNONYMS>
Darinaparsin

$$$$
