
 OpenBabel10282417072D

 50 51  0  0  0  0  0  0  0  0999 V2000
   -0.7429    0.6059    0.0000 C   0  0  0  0  0  0  0  0  0  0  0  0
   -0.0194    0.2044    0.0000 C   0  0  0  0  0  0  0  0  0  0  0  0
    0.6878    0.6301    0.0000 C   0  0  0  0  0  0  0  0  0  0  0  0
    0.6729    1.4571    0.0000 C   0  0  0  0  0  0  0  0  0  0  0  0
   -0.0552    1.8566    0.0000 C   0  0  0  0  0  0  0  0  0  0  0  0
   -0.7594    1.4286    0.0000 C   0  0  0  0  0  0  0  0  0  0  0  0
   -0.0735    2.6815    0.0000 O   0  0  0  0  0  0  0  0  0  0  0  0
    0.6317    3.1096    0.0000 C   0  0  0  0  0  0  0  0  0  0  0  0
   -0.0049   -0.6204    0.0000 S   0  0  0  0  0  0  0  0  0  0  0  0
    0.0021   -1.4473    0.0000 N   0  0  0  0  0  0  0  0  0  0  0  0
    0.8199   -0.6096    0.0000 O   0  0  0  0  0  0  0  0  0  0  0  0
   -0.8300   -0.6293    0.0000 O   0  0  0  0  0  0  0  0  0  0  0  0
    0.7201   -1.8536    0.0000 C   0  0  0  0  0  0  0  0  0  0  0  0
    1.4311   -1.4348    0.0000 C   0  0  0  0  0  0  0  0  0  0  0  0
    2.1452   -1.8449    0.0000 C   0  0  0  0  0  0  0  0  0  0  0  0
    2.8556   -1.4269    0.0000 C   0  0  0  0  0  0  0  0  0  0  0  0
    2.8487   -0.6011    0.0000 C   0  0  0  0  0  0  0  0  0  0  0  0
    2.1257   -0.1951    0.0000 N   0  0  0  0  0  0  0  0  0  0  0  0
    1.4183   -0.6154    0.0000 C   0  0  0  0  0  0  0  0  0  0  0  0
   -0.7087   -1.8661    0.0000 C   0  0  2  0  0  0  0  0  0  0  0  0
   -0.7014   -2.6909    0.0000 C   0  0  0  0  0  0  0  0  0  0  0  0
   -1.4123   -3.1096    0.0000 C   0  0  0  0  0  0  0  0  0  0  0  0
    0.0165   -3.0973    0.0000 C   0  0  0  0  0  0  0  0  0  0  0  0
   -1.4267   -1.4598    0.0000 C   0  0  0  0  0  0  0  0  0  0  0  0
   -1.4338   -0.6348    0.0000 O   0  0  0  0  0  0  0  0  0  0  0  0
   -2.1376   -1.8784    0.0000 N   0  0  0  0  0  0  0  0  0  0  0  0
   -2.8556   -1.4721    0.0000 O   0  0  0  0  0  0  0  0  0  0  0  0
   -1.6269    0.0734    0.0000 H   0  0  0  0  0  0  0  0  0  0  0  0
    1.5907    0.1304    0.0000 H   0  0  0  0  0  0  0  0  0  0  0  0
    1.5562    1.9908    0.0000 H   0  0  0  0  0  0  0  0  0  0  0  0
   -1.6639    1.9255    0.0000 H   0  0  0  0  0  0  0  0  0  0  0  0
    1.5699    2.5951    0.0000 H   0  0  0  0  0  0  0  0  0  0  0  0
    0.6082    4.1793    0.0000 H   0  0  0  0  0  0  0  0  0  0  0  0
    1.5464    3.6649    0.0000 H   0  0  0  0  0  0  0  0  0  0  0  0
    0.7294   -2.9236    0.0000 H   0  0  0  0  0  0  0  0  0  0  0  0
    1.6514   -2.3805    0.0000 H   0  0  0  0  0  0  0  0  0  0  0  0
    2.1506   -2.8769    0.0000 H   0  0  0  0  0  0  0  0  0  0  0  0
    3.7536   -1.9355    0.0000 H   0  0  0  0  0  0  0  0  0  0  0  0
    3.7372   -0.0761    0.0000 H   0  0  0  0  0  0  0  0  0  0  0  0
    0.5174   -0.1120    0.0000 H   0  0  0  0  0  0  0  0  0  0  0  0
    0.2226   -2.3929    0.0000 H   0  0  0  0  0  0  0  0  0  0  0  0
   -0.6922   -3.7609    0.0000 H   0  0  0  0  0  0  0  0  0  0  0  0
   -2.3436   -2.5827    0.0000 H   0  0  0  0  0  0  0  0  0  0  0  0
   -1.4030   -4.1796    0.0000 H   0  0  0  0  0  0  0  0  0  0  0  0
   -2.3343   -3.6526    0.0000 H   0  0  0  0  0  0  0  0  0  0  0  0
    0.0256   -4.1673    0.0000 H   0  0  0  0  0  0  0  0  0  0  0  0
    0.9386   -2.5545    0.0000 H   0  0  0  0  0  0  0  0  0  0  0  0
    0.9477   -3.6244    0.0000 H   0  0  0  0  0  0  0  0  0  0  0  0
   -2.1291   -2.8629    0.0000 H   0  0  0  0  0  0  0  0  0  0  0  0
   -2.8640   -0.5021    0.0000 H   0  0  0  0  0  0  0  0  0  0  0  0
  1  2  2  0  0  0  0
  1 28  1  0  0  0  0
  2  9  1  0  0  0  0
  2  3  1  0  0  0  0
  3  4  2  0  0  0  0
  3 29  1  0  0  0  0
  4  5  1  0  0  0  0
  4 30  1  0  0  0  0
  5  6  2  0  0  0  0
  5  7  1  0  0  0  0
  6  1  1  0  0  0  0
  6 31  1  0  0  0  0
  7  8  1  0  0  0  0
  8 32  1  0  0  0  0
  8 33  1  0  0  0  0
  8 34  1  0  0  0  0
  9 10  1  0  0  0  0
  9 11  2  0  0  0  0
  9 12  2  0  0  0  0
 10 20  1  0  0  0  0
 10 13  1  0  0  0  0
 13 14  1  0  0  0  0
 13 35  1  0  0  0  0
 13 36  1  0  0  0  0
 14 15  2  0  0  0  0
 15 16  1  0  0  0  0
 15 37  1  0  0  0  0
 16 17  2  0  0  0  0
 16 38  1  0  0  0  0
 17 18  1  0  0  0  0
 17 39  1  0  0  0  0
 18 19  2  0  0  0  0
 19 14  1  0  0  0  0
 19 40  1  0  0  0  0
 20 21  1  0  0  0  0
 20 24  1  0  0  0  0
 20 41  1  1  0  0  0
 21 22  1  0  0  0  0
 21 23  1  0  0  0  0
 21 42  1  0  0  0  0
 22 43  1  0  0  0  0
 22 44  1  0  0  0  0
 22 45  1  0  0  0  0
 23 46  1  0  0  0  0
 23 47  1  0  0  0  0
 23 48  1  0  0  0  0
 24 25  2  0  0  0  0
 24 26  1  0  0  0  0
 26 27  1  0  0  0  0
 26 49  1  0  0  0  0
 27 50  1  0  0  0  0
M  END
>  <DRUGBANK_ID>
DB07556

>  <COMMON_NAME>
CGS-27023

>  <CAS_NUMBER>
161314-70-1

>  <UNII>
80AXY59IT2

$$$$
