RF1
 OpenBabel10282417072D

 44 46  0  0  0  0  0  0  0  0999 V2000
   -0.8433    3.7533    0.0000 C   0  0  0  0  0  0  0  0  0  0  0  0
   -0.8433    2.9283    0.0000 C   0  0  0  0  0  0  0  0  0  0  0  0
   -1.6683    2.9283    0.0000 C   0  0  0  0  0  0  0  0  0  0  0  0
   -0.0183    2.9283    0.0000 C   0  0  0  0  0  0  0  0  0  0  0  0
   -0.8433    2.1033    0.0000 O   0  0  0  0  0  0  0  0  0  0  0  0
   -0.1288    1.6908    0.0000 C   0  0  0  0  0  0  0  0  0  0  0  0
    0.5857    2.1033    0.0000 O   0  0  0  0  0  0  0  0  0  0  0  0
   -0.1288    0.8658    0.0000 N   0  0  0  0  0  0  0  0  0  0  0  0
    0.5857    0.4533    0.0000 C   0  0  0  0  0  0  0  0  0  0  0  0
    0.5857   -0.3717    0.0000 C   0  0  0  0  0  0  0  0  0  0  0  0
   -0.8433    0.4533    0.0000 C   0  0  0  0  0  0  0  0  0  0  0  0
   -0.8433   -0.3717    0.0000 C   0  0  0  0  0  0  0  0  0  0  0  0
   -0.1288   -0.7842    0.0000 C   0  0  0  0  0  0  0  0  0  0  0  0
   -0.1288   -1.6092    0.0000 C   0  0  0  0  0  0  0  0  0  0  0  0
   -0.7962   -2.0941    0.0000 N   0  0  0  0  0  0  0  0  0  0  0  0
    0.5387   -2.0941    0.0000 O   0  0  0  0  0  0  0  0  0  0  0  0
    0.2837   -2.8787    0.0000 N   0  0  0  0  0  0  0  0  0  0  0  0
   -0.5413   -2.8787    0.0000 C   0  0  0  0  0  0  0  0  0  0  0  0
   -1.0262   -3.5461    0.0000 C   0  0  0  0  0  0  0  0  0  0  0  0
   -1.8512   -3.5461    0.0000 C   0  0  0  0  0  0  0  0  0  0  0  0
   -2.1061   -4.3308    0.0000 C   0  0  0  0  0  0  0  0  0  0  0  0
   -1.4387   -4.8157    0.0000 C   0  0  0  0  0  0  0  0  0  0  0  0
   -0.7713   -4.3308    0.0000 S   0  0  0  0  0  0  0  0  0  0  0  0
    0.0833    4.2883    0.0000 H   0  0  0  0  0  0  0  0  0  0  0  0
   -1.7699    4.2883    0.0000 H   0  0  0  0  0  0  0  0  0  0  0  0
   -0.8433    4.8233    0.0000 H   0  0  0  0  0  0  0  0  0  0  0  0
   -2.2033    3.8549    0.0000 H   0  0  0  0  0  0  0  0  0  0  0  0
   -2.2033    2.0017    0.0000 H   0  0  0  0  0  0  0  0  0  0  0  0
   -2.7383    2.9283    0.0000 H   0  0  0  0  0  0  0  0  0  0  0  0
    0.5167    2.0017    0.0000 H   0  0  0  0  0  0  0  0  0  0  0  0
    0.5167    3.8549    0.0000 H   0  0  0  0  0  0  0  0  0  0  0  0
    1.0517    2.9283    0.0000 H   0  0  0  0  0  0  0  0  0  0  0  0
    1.5123    0.9883    0.0000 H   0  0  0  0  0  0  0  0  0  0  0  0
    1.5123   -0.0817    0.0000 H   0  0  0  0  0  0  0  0  0  0  0  0
    1.5123   -0.9067    0.0000 H   0  0  0  0  0  0  0  0  0  0  0  0
    0.5857   -1.4417    0.0000 H   0  0  0  0  0  0  0  0  0  0  0  0
   -1.7699    0.9883    0.0000 H   0  0  0  0  0  0  0  0  0  0  0  0
   -1.7699   -0.0817    0.0000 H   0  0  0  0  0  0  0  0  0  0  0  0
   -1.7699   -0.9067    0.0000 H   0  0  0  0  0  0  0  0  0  0  0  0
   -0.8433   -1.4417    0.0000 H   0  0  0  0  0  0  0  0  0  0  0  0
    0.7978   -1.3192    0.0000 H   0  0  0  0  0  0  0  0  0  0  0  0
   -2.4578   -2.7112    0.0000 H   0  0  0  0  0  0  0  0  0  0  0  0
   -3.0876   -4.6497    0.0000 H   0  0  0  0  0  0  0  0  0  0  0  0
   -1.4387   -5.8477    0.0000 H   0  0  0  0  0  0  0  0  0  0  0  0
  1 24  1  0  0  0  0
  1 25  1  0  0  0  0
  1 26  1  0  0  0  0
  2  1  1  0  0  0  0
  2  3  1  0  0  0  0
  3 27  1  0  0  0  0
  3 28  1  0  0  0  0
  3 29  1  0  0  0  0
  4  2  1  0  0  0  0
  4 30  1  0  0  0  0
  4 31  1  0  0  0  0
  4 32  1  0  0  0  0
  5  2  1  0  0  0  0
  6  5  1  0  0  0  0
  6  8  1  0  0  0  0
  7  6  2  0  0  0  0
  8  9  1  0  0  0  0
  9 33  1  0  0  0  0
  9 34  1  0  0  0  0
 10  9  1  0  0  0  0
 10 35  1  0  0  0  0
 10 36  1  0  0  0  0
 11  8  1  0  0  0  0
 11 37  1  0  0  0  0
 11 38  1  0  0  0  0
 12 11  1  0  0  0  0
 12 13  1  0  0  0  0
 12 39  1  0  0  0  0
 12 40  1  0  0  0  0
 13 10  1  0  0  0  0
 13 41  1  0  0  0  0
 14 13  1  0  0  0  0
 14 16  1  0  0  0  0
 15 14  2  0  0  0  0
 15 18  1  0  0  0  0
 17 16  1  0  0  0  0
 18 17  2  0  0  0  0
 19 18  1  0  0  0  0
 19 23  1  0  0  0  0
 20 19  2  0  0  0  0
 20 42  1  0  0  0  0
 21 20  1  0  0  0  0
 21 22  2  0  0  0  0
 21 43  1  0  0  0  0
 22 23  1  0  0  0  0
 22 44  1  0  0  0  0
M  END
>  <DRUGBANK_ID>
DB08469

>  <COMMON_NAME>
tert-butyl 4-(3-thiophen-2-yl-1,2,4-oxadiazol-5-yl)piperidine-1-carboxylate

$$$$
