
 OpenBabel10282417072D

 47 46  0  0  0  0  0  0  0  0999 V2000
    4.2970   -0.2104    0.0000 C   0  0  0  0  0  0  0  0  0  0  0  0
    3.5838   -0.6230    0.0000 C   0  0  0  0  0  0  0  0  0  0  0  0
    3.5838   -1.4480    0.0000 C   0  0  0  0  0  0  0  0  0  0  0  0
    2.8618   -0.2104    0.0000 C   0  0  2  0  0  0  0  0  0  0  0  0
    2.8618    0.6230    0.0000 C   0  0  0  0  0  0  0  0  0  0  0  0
    2.1485    1.0355    0.0000 O   0  0  0  0  0  0  0  0  0  0  0  0
    3.5838    1.0355    0.0000 O   0  0  0  0  0  0  0  0  0  0  0  0
    2.1485   -0.6230    0.0000 N   0  0  0  0  0  0  0  0  0  0  0  0
    1.4352   -0.2104    0.0000 C   0  0  0  0  0  0  0  0  0  0  0  0
    0.7133   -0.6230    0.0000 C   0  0  3  0  0  0  0  0  0  0  0  0
    0.7133   -1.4480    0.0000 C   0  0  0  0  0  0  0  0  0  0  0  0
    0.0000   -1.8605    0.0000 S   0  0  0  0  0  0  0  0  0  0  0  0
    0.0000   -0.2104    0.0000 N   0  0  0  0  0  0  0  0  0  0  0  0
    0.0000    0.6230    0.0000 C   0  0  0  0  0  0  0  0  0  0  0  0
   -0.7132    1.0355    0.0000 C   0  0  0  0  0  0  0  0  0  0  0  0
   -1.4352    0.6230    0.0000 C   0  0  0  0  0  0  0  0  0  0  0  0
   -2.1485    1.0355    0.0000 C   0  0  0  0  0  0  0  0  0  0  0  0
   -2.8617    0.6230    0.0000 C   0  0  3  0  0  0  0  0  0  0  0  0
   -3.5838    1.0355    0.0000 C   0  0  0  0  0  0  0  0  0  0  0  0
   -4.2970    0.6230    0.0000 O   0  0  0  0  0  0  0  0  0  0  0  0
   -3.5838    1.8605    0.0000 O   0  0  0  0  0  0  0  0  0  0  0  0
   -2.8617   -0.2104    0.0000 N   0  0  0  0  0  0  0  0  0  0  0  0
    0.7133    1.0355    0.0000 O   0  0  0  0  0  0  0  0  0  0  0  0
    1.4352    0.6230    0.0000 O   0  0  0  0  0  0  0  0  0  0  0  0
    3.5838    0.2104    0.0000 H   0  0  0  0  0  0  0  0  0  0  0  0
    5.1912   -0.7256    0.0000 H   0  0  0  0  0  0  0  0  0  0  0  0
    4.2961    0.8216    0.0000 H   0  0  0  0  0  0  0  0  0  0  0  0
    2.6572   -1.9830    0.0000 H   0  0  0  0  0  0  0  0  0  0  0  0
    4.5104   -1.9830    0.0000 H   0  0  0  0  0  0  0  0  0  0  0  0
    3.5838   -2.5180    0.0000 H   0  0  0  0  0  0  0  0  0  0  0  0
    4.3931    0.5633    0.0000 H   0  0  0  0  0  0  0  0  0  0  0  0
    1.6388   -1.1600    0.0000 H   0  0  0  0  0  0  0  0  0  0  0  0
    1.6401   -1.9827    0.0000 H   0  0  0  0  0  0  0  0  0  0  0  0
    0.7139   -2.5180    0.0000 H   0  0  0  0  0  0  0  0  0  0  0  0
   -1.1783   -1.1813    0.0000 H   0  0  0  0  0  0  0  0  0  0  0  0
   -0.7104    2.1055    0.0000 H   0  0  0  0  0  0  0  0  0  0  0  0
   -1.6379    1.5738    0.0000 H   0  0  0  0  0  0  0  0  0  0  0  0
   -1.4380   -0.4470    0.0000 H   0  0  0  0  0  0  0  0  0  0  0  0
   -2.3627    0.0895    0.0000 H   0  0  0  0  0  0  0  0  0  0  0  0
   -2.1485    2.1055    0.0000 H   0  0  0  0  0  0  0  0  0  0  0  0
   -3.0754    1.5701    0.0000 H   0  0  0  0  0  0  0  0  0  0  0  0
   -2.8646    1.6930    0.0000 H   0  0  0  0  0  0  0  0  0  0  0  0
   -2.7723    2.3290    0.0000 H   0  0  0  0  0  0  0  0  0  0  0  0
   -3.7450   -0.7204    0.0000 H   0  0  0  0  0  0  0  0  0  0  0  0
   -1.9784   -0.7204    0.0000 H   0  0  0  0  0  0  0  0  0  0  0  0
    1.5251    0.5676    0.0000 H   0  0  0  0  0  0  0  0  0  0  0  0
    2.2467    1.0915    0.0000 H   0  0  0  0  0  0  0  0  0  0  0  0
  1  2  2  0  0  0  0
  1 26  1  0  0  0  0
  1 27  1  0  0  0  0
  2  3  1  0  0  0  0
  2  4  1  0  0  0  0
  3 28  1  0  0  0  0
  3 29  1  0  0  0  0
  3 30  1  0  0  0  0
  4  5  1  0  0  0  0
  4  8  1  0  0  0  0
  4 25  1  6  0  0  0
  5  6  2  0  0  0  0
  5  7  1  0  0  0  0
  7 31  1  0  0  0  0
  8  9  2  3  0  0  0
  9 10  1  0  0  0  0
  9 24  1  0  0  0  0
 10 11  1  0  0  0  0
 10 13  1  0  0  0  0
 10 32  1  0  0  0  0
 11 12  1  0  0  0  0
 11 33  1  0  0  0  0
 11 34  1  0  0  0  0
 12 35  1  0  0  0  0
 13 14  2  3  0  0  0
 14 15  1  0  0  0  0
 14 23  1  0  0  0  0
 15 16  1  0  0  0  0
 15 36  1  0  0  0  0
 15 37  1  0  0  0  0
 16 17  1  0  0  0  0
 16 38  1  0  0  0  0
 16 39  1  0  0  0  0
 17 18  1  0  0  0  0
 17 40  1  0  0  0  0
 17 41  1  0  0  0  0
 18 19  1  0  0  0  0
 18 22  1  0  0  0  0
 18 42  1  0  0  0  0
 19 20  2  0  0  0  0
 19 21  1  0  0  0  0
 21 43  1  0  0  0  0
 22 44  1  0  0  0  0
 22 45  1  0  0  0  0
 23 46  1  0  0  0  0
 24 47  1  0  0  0  0
M  END
>  <DRUGBANK_ID>
DB02582

>  <SECONDARY_ACCESSION_NUMBERS>
EXPT00870

>  <COMMON_NAME>
(6Z)-6-{[(1Z)-1-{[(1R)-1-Carboxy-2-methyl-2-propen-1-yl]imino}-1-hydroxy-3-sulfanyl-2-propanyl]imino}-6-hydroxynorleucine

$$$$
