
 OpenBabel10282417072D

 42 43  0  0  0  0  0  0  0  0999 V2000
    3.6184   -1.0852    0.0000 C   0  0  0  0  0  0  0  0  0  0  0  0
    0.0058    2.0279    0.0000 C   0  0  0  0  0  0  0  0  0  0  0  0
    3.0053   -1.6372    0.0000 C   0  0  0  0  0  0  0  0  0  0  0  0
    1.2645   -2.7954    0.0000 C   0  0  0  0  0  0  0  0  0  0  0  0
    1.9790   -2.3829    0.0000 C   0  0  0  0  0  0  0  0  0  0  0  0
    0.5501   -2.3829    0.0000 C   0  0  0  0  0  0  0  0  0  0  0  0
   -0.2126   -0.1539    0.0000 C   0  0  0  0  0  0  0  0  0  0  0  0
    1.9790   -1.5579    0.0000 C   0  0  0  0  0  0  0  0  0  0  0  0
    0.5501   -1.5579    0.0000 C   0  0  0  0  0  0  0  0  0  0  0  0
    0.4858   -0.5929    0.0000 C   0  0  0  0  0  0  0  0  0  0  0  0
    1.5370    0.4582    0.0000 C   0  0  0  0  0  0  0  0  0  0  0  0
   -0.3050    0.6658    0.0000 C   0  0  0  0  0  0  0  0  0  0  0  0
    1.0981    1.1568    0.0000 C   0  0  0  0  0  0  0  0  0  0  0  0
    1.2645   -1.1454    0.0000 C   0  0  0  0  0  0  0  0  0  0  0  0
    2.0492   -0.5753    0.0000 C   0  0  0  0  0  0  0  0  0  0  0  0
    1.2645   -0.3204    0.0000 C   0  0  3  0  0  0  0  0  0  0  0  0
    0.2783    1.2491    0.0000 N   0  0  0  0  0  0  0  0  0  0  0  0
    2.6623   -0.0233    0.0000 O   0  0  0  0  0  0  0  0  0  0  0  0
    2.2207   -1.3823    0.0000 O   0  0  0  0  0  0  0  0  0  0  0  0
    4.6360   -1.4159    0.0000 H   0  0  0  0  0  0  0  0  0  0  0  0
    3.3960   -0.0386    0.0000 H   0  0  0  0  0  0  0  0  0  0  0  0
    4.4136   -0.3693    0.0000 H   0  0  0  0  0  0  0  0  0  0  0  0
    0.7038    2.8389    0.0000 H   0  0  0  0  0  0  0  0  0  0  0  0
   -1.0455    2.2268    0.0000 H   0  0  0  0  0  0  0  0  0  0  0  0
   -0.3476    3.0379    0.0000 H   0  0  0  0  0  0  0  0  0  0  0  0
    3.2278   -2.6838    0.0000 H   0  0  0  0  0  0  0  0  0  0  0  0
    2.2101   -2.3532    0.0000 H   0  0  0  0  0  0  0  0  0  0  0  0
    1.2645   -3.8274    0.0000 H   0  0  0  0  0  0  0  0  0  0  0  0
    2.8727   -2.8989    0.0000 H   0  0  0  0  0  0  0  0  0  0  0  0
   -0.3436   -2.8989    0.0000 H   0  0  0  0  0  0  0  0  0  0  0  0
   -1.1186   -0.7231    0.0000 H   0  0  0  0  0  0  0  0  0  0  0  0
   -1.1766    0.3104    0.0000 H   0  0  0  0  0  0  0  0  0  0  0  0
    2.8727   -1.0419    0.0000 H   0  0  0  0  0  0  0  0  0  0  0  0
   -0.3436   -1.0419    0.0000 H   0  0  0  0  0  0  0  0  0  0  0  0
    0.3659   -1.6562    0.0000 H   0  0  0  0  0  0  0  0  0  0  0  0
    1.3223   -1.2601    0.0000 H   0  0  0  0  0  0  0  0  0  0  0  0
    2.6003    0.5779    0.0000 H   0  0  0  0  0  0  0  0  0  0  0  0
    2.2041   -0.3784    0.0000 H   0  0  0  0  0  0  0  0  0  0  0  0
   -1.3150    1.0192    0.0000 H   0  0  0  0  0  0  0  0  0  0  0  0
   -0.5431    1.7090    0.0000 H   0  0  0  0  0  0  0  0  0  0  0  0
    1.6674    2.0628    0.0000 H   0  0  0  0  0  0  0  0  0  0  0  0
    0.6338    2.1208    0.0000 H   0  0  0  0  0  0  0  0  0  0  0  0
  1 20  1  0  0  0  0
  1 21  1  0  0  0  0
  1 22  1  0  0  0  0
  2 23  1  0  0  0  0
  2 24  1  0  0  0  0
  2 25  1  0  0  0  0
  3  1  1  0  0  0  0
  3 26  1  0  0  0  0
  3 27  1  0  0  0  0
  4 28  1  0  0  0  0
  5  4  2  0  0  0  0
  5 29  1  0  0  0  0
  6  4  1  0  0  0  0
  6 30  1  0  0  0  0
  7 31  1  0  0  0  0
  7 32  1  0  0  0  0
  8  5  1  0  0  0  0
  8 33  1  0  0  0  0
  9  6  2  0  0  0  0
  9 34  1  0  0  0  0
 10  7  1  0  0  0  0
 10 35  1  0  0  0  0
 10 36  1  0  0  0  0
 11 37  1  0  0  0  0
 11 38  1  0  0  0  0
 12  7  1  0  0  0  0
 12 39  1  0  0  0  0
 12 40  1  0  0  0  0
 13 11  1  0  0  0  0
 13 41  1  0  0  0  0
 13 42  1  0  0  0  0
 14  8  2  0  0  0  0
 14  9  1  0  0  0  0
 16 10  1  0  0  0  0
 16 11  1  0  0  0  0
 16 14  1  0  0  0  0
 16 15  1  0  0  0  0
 17  2  1  0  0  0  0
 17 12  1  0  0  0  0
 17 13  1  0  0  0  0
 18 15  2  0  0  0  0
 19  3  1  0  0  0  0
 19 15  1  0  0  0  0
M  END
>  <DRUGBANK_ID>
DB08988

>  <COMMON_NAME>
Ethoheptazine

>  <CAS_NUMBER>
77-15-6

>  <UNII>
3A4G3A848U

>  <SYNONYMS>
Ethoheptazin; Ethoheptazine; Ethoheptazinum; Etoheptazina

$$$$
