N-Acetyl-L-alanine.mol
 OpenBabel10282417072D

 18 17  0  0  0  0  0  0  0  0999 V2000
   -1.0717    0.2062    0.0000 C   0  0  0  0  0  0  0  0  0  0  0  0
    0.3572    0.2063    0.0000 N   0  0  0  0  0  0  0  0  0  0  0  0
   -0.3572   -0.2062    0.0000 C   0  0  1  0  0  0  0  0  0  0  0  0
   -0.3572   -1.0313    0.0000 C   0  0  0  0  0  0  0  0  0  0  0  0
   -1.0717    1.0313    0.0000 O   0  0  0  0  0  0  0  0  0  0  0  0
   -1.7862   -0.2062    0.0000 O   0  0  0  0  0  0  0  0  0  0  0  0
    1.0717   -0.2062    0.0000 C   0  0  0  0  0  0  0  0  0  0  0  0
    1.0717   -1.0312    0.0000 O   0  0  0  0  0  0  0  0  0  0  0  0
    1.7862    0.2063    0.0000 C   0  0  0  0  0  0  0  0  0  0  0  0
    0.3572    1.1908    0.0000 H   0  0  0  0  0  0  0  0  0  0  0  0
    0.5695   -0.7412    0.0000 H   0  0  0  0  0  0  0  0  0  0  0  0
   -1.2838   -1.5663    0.0000 H   0  0  0  0  0  0  0  0  0  0  0  0
    0.5694   -1.5663    0.0000 H   0  0  0  0  0  0  0  0  0  0  0  0
   -0.3572   -2.1013    0.0000 H   0  0  0  0  0  0  0  0  0  0  0  0
   -2.5976    0.2624    0.0000 H   0  0  0  0  0  0  0  0  0  0  0  0
    2.7128   -0.3287    0.0000 H   0  0  0  0  0  0  0  0  0  0  0  0
    1.7862    1.2763    0.0000 H   0  0  0  0  0  0  0  0  0  0  0  0
    2.7129    0.7413    0.0000 H   0  0  0  0  0  0  0  0  0  0  0  0
  1  3  1  0  0  0  0
  1  5  2  0  0  0  0
  1  6  1  0  0  0  0
  2  3  1  0  0  0  0
  2  7  1  0  0  0  0
  2 10  1  0  0  0  0
  3  4  1  0  0  0  0
  3 11  1  6  0  0  0
  4 12  1  0  0  0  0
  4 13  1  0  0  0  0
  4 14  1  0  0  0  0
  6 15  1  0  0  0  0
  7  8  2  0  0  0  0
  7  9  1  0  0  0  0
  9 16  1  0  0  0  0
  9 17  1  0  0  0  0
  9 18  1  0  0  0  0
M  END
>  <DRUGBANK_ID>
DB02518

>  <SECONDARY_ACCESSION_NUMBERS>
EXPT00596

>  <COMMON_NAME>
N-Acetylalanine

>  <CAS_NUMBER>
97-69-8

>  <UNII>
26C4VY6Z0M

>  <SYNONYMS>
(S)-2-(acetylamino)propanoic acid; 2-acetamidopropionic acid; Ac-Ala-OH; Acetylalanine; L-N-Acetylalanine; N-acetyl-L-alanine; N-acetyl-L-Î±-alanine; N-Acetyl-S-alanine; s-(-)-n-acetylalanine

$$$$
