
 OpenBabel10282417072D

 26 25  0  0  0  0  0  0  0  0999 V2000
    2.2836    2.1434    0.0000 C   0  0  0  0  0  0  0  0  0  0  0  0
    2.9980    2.5559    0.0000 C   0  0  0  0  0  0  0  0  0  0  0  0
    3.7125    2.1434    0.0000 O   0  0  0  0  0  0  0  0  0  0  0  0
    4.4270    2.5559    0.0000 C   0  0  0  0  0  0  0  0  0  0  0  0
    5.1414    2.1434    0.0000 C   0  0  0  0  0  0  0  0  0  0  0  0
    5.8559    2.5559    0.0000 O   0  0  0  0  0  0  0  0  0  0  0  0
    6.5704    2.1434    0.0000 C   0  0  0  0  0  0  0  0  0  0  0  0
    7.2849    2.5559    0.0000 C   0  0  0  0  0  0  0  0  0  0  0  0
    7.9993    2.1434    0.0000 O   0  0  0  0  0  0  0  0  0  0  0  0
    8.7138    2.5559    0.0000 C   0  0  0  0  0  0  0  0  0  0  0  0
    1.3569    2.6784    0.0000 H   0  0  0  0  0  0  0  0  0  0  0  0
    2.2836    1.0734    0.0000 H   0  0  0  0  0  0  0  0  0  0  0  0
    1.3570    1.6084    0.0000 H   0  0  0  0  0  0  0  0  0  0  0  0
    2.9980    3.6259    0.0000 H   0  0  0  0  0  0  0  0  0  0  0  0
    3.9246    3.0909    0.0000 H   0  0  0  0  0  0  0  0  0  0  0  0
    4.4270    3.6259    0.0000 H   0  0  0  0  0  0  0  0  0  0  0  0
    5.3537    3.0909    0.0000 H   0  0  0  0  0  0  0  0  0  0  0  0
    5.1414    1.0734    0.0000 H   0  0  0  0  0  0  0  0  0  0  0  0
    6.0680    1.6084    0.0000 H   0  0  0  0  0  0  0  0  0  0  0  0
    6.5704    1.0734    0.0000 H   0  0  0  0  0  0  0  0  0  0  0  0
    7.4970    1.6084    0.0000 H   0  0  0  0  0  0  0  0  0  0  0  0
    7.2849    3.6259    0.0000 H   0  0  0  0  0  0  0  0  0  0  0  0
    8.2116    3.0909    0.0000 H   0  0  0  0  0  0  0  0  0  0  0  0
    9.6404    2.0209    0.0000 H   0  0  0  0  0  0  0  0  0  0  0  0
    8.7138    3.6259    0.0000 H   0  0  0  0  0  0  0  0  0  0  0  0
    9.6405    3.0909    0.0000 H   0  0  0  0  0  0  0  0  0  0  0  0
  1  2  1  0  0  0  0
  1 11  1  0  0  0  0
  1 12  1  0  0  0  0
  1 13  1  0  0  0  0
  2  3  1  0  0  0  0
  2 14  1  0  0  0  0
  2 15  1  0  0  0  0
  3  4  1  0  0  0  0
  4  5  1  0  0  0  0
  4 16  1  0  0  0  0
  4 17  1  0  0  0  0
  5  6  1  0  0  0  0
  5 18  1  0  0  0  0
  5 19  1  0  0  0  0
  6  7  1  0  0  0  0
  7  8  1  0  0  0  0
  7 20  1  0  0  0  0
  7 21  1  0  0  0  0
  8  9  1  0  0  0  0
  8 22  1  0  0  0  0
  8 23  1  0  0  0  0
  9 10  1  0  0  0  0
 10 24  1  0  0  0  0
 10 25  1  0  0  0  0
 10 26  1  0  0  0  0
M  END
>  <DRUGBANK_ID>
DB03508

>  <SECONDARY_ACCESSION_NUMBERS>
EXPT02148

>  <COMMON_NAME>
Diethylene glycol ethyl methyl ether

>  <CAS_NUMBER>
1002-67-1

>  <UNII>
LF64ICW5Y3

>  <SYNONYMS>
1-ethoxy-2-(2-methoxyethoxy)ethane

$$$$
