
 OpenBabel10282417072D

 47 49  0  0  0  0  0  0  0  0999 V2000
    1.0438    1.8076    0.0000 S   0  0  0  0  0  0  0  0  0  0  0  0
   -1.0438    0.3524    0.0000 O   0  0  0  0  0  0  0  0  0  0  0  0
   -3.1406    0.7681    0.0000 O   0  0  0  0  0  0  0  0  0  0  0  0
   -2.0832    2.2142    0.0000 O   0  0  0  0  0  0  0  0  0  0  0  0
    0.3750    1.3194    0.0000 O   0  0  0  0  0  0  0  0  0  0  0  0
    0.5558    2.4763    0.0000 O   0  0  0  0  0  0  0  0  0  0  0  0
    1.5228    1.1388    0.0000 O   0  0  0  0  0  0  0  0  0  0  0  0
    2.5441    1.1296    0.0000 O   0  0  0  0  0  0  0  0  0  0  0  0
   -2.0923   -0.6869    0.0000 N   0  0  0  0  0  0  0  0  0  0  0  0
   -2.0923   -2.0154    0.0000 N   0  0  0  0  0  0  0  0  0  0  0  0
   -3.5835   -0.5242    0.0000 N   0  0  0  0  0  0  0  0  0  0  0  0
    1.7126    2.2865    0.0000 N   0  0  0  0  0  0  0  0  0  0  0  0
   -4.2974   -1.7623    0.0000 N   0  0  0  0  0  0  0  0  0  0  0  0
   -3.5835   -3.0005    0.0000 N   0  0  0  0  0  0  0  0  0  0  0  0
    3.8817    2.0967    0.0000 N   0  0  0  0  0  0  0  0  0  0  0  0
   -2.3182    0.7681    0.0000 C   0  0  2  0  0  0  0  0  0  0  0  0
   -1.8301    1.4369    0.0000 C   0  0  1  0  0  0  0  0  0  0  0  0
   -1.8301    0.0994    0.0000 C   0  0  1  0  0  0  0  0  0  0  0  0
   -1.0438    1.1749    0.0000 C   0  0  1  0  0  0  0  0  0  0  0  0
   -0.3750    1.6629    0.0000 C   0  0  0  0  0  0  0  0  0  0  0  0
   -2.8695   -0.9400    0.0000 C   0  0  0  0  0  0  0  0  0  0  0  0
   -1.6041   -1.3466    0.0000 C   0  0  0  0  0  0  0  0  0  0  0  0
   -2.8695   -1.7623    0.0000 C   0  0  0  0  0  0  0  0  0  0  0  0
   -3.5835   -2.1690    0.0000 C   0  0  0  0  0  0  0  0  0  0  0  0
   -4.2974   -0.9400    0.0000 C   0  0  0  0  0  0  0  0  0  0  0  0
    2.4627    1.9521    0.0000 C   0  0  0  0  0  0  0  0  0  0  0  0
    3.1316    2.4402    0.0000 C   0  0  2  0  0  0  0  0  0  0  0  0
    3.0503    3.2536    0.0000 C   0  0  0  0  0  0  0  0  0  0  0  0
    1.6584    2.8017    0.0000 H   0  0  0  0  0  0  0  0  0  0  0  0
   -3.1406   -3.2536    0.0000 H   0  0  0  0  0  0  0  0  0  0  0  0
   -4.0264   -3.2536    0.0000 H   0  0  0  0  0  0  0  0  0  0  0  0
    3.9359    1.5907    0.0000 H   0  0  0  0  0  0  0  0  0  0  0  0
    4.2974    2.4040    0.0000 H   0  0  0  0  0  0  0  0  0  0  0  0
   -3.6256    1.6081    0.0000 H   0  0  0  0  0  0  0  0  0  0  0  0
   -1.4346    2.9355    0.0000 H   0  0  0  0  0  0  0  0  0  0  0  0
   -2.8030    1.7220    0.0000 H   0  0  0  0  0  0  0  0  0  0  0  0
   -2.8868    1.6051    0.0000 H   0  0  0  0  0  0  0  0  0  0  0  0
   -1.0775   -0.6612    0.0000 H   0  0  0  0  0  0  0  0  0  0  0  0
   -0.0899    0.6901    0.0000 H   0  0  0  0  0  0  0  0  0  0  0  0
   -0.4823    2.7275    0.0000 H   0  0  0  0  0  0  0  0  0  0  0  0
   -1.3520    2.0992    0.0000 H   0  0  0  0  0  0  0  0  0  0  0  0
   -0.5721   -1.3432    0.0000 H   0  0  0  0  0  0  0  0  0  0  0  0
   -5.1921   -0.4257    0.0000 H   0  0  0  0  0  0  0  0  0  0  0  0
    3.2389    1.3756    0.0000 H   0  0  0  0  0  0  0  0  0  0  0  0
    3.9191    3.8781    0.0000 H   0  0  0  0  0  0  0  0  0  0  0  0
    2.0750    3.6938    0.0000 H   0  0  0  0  0  0  0  0  0  0  0  0
    2.9439    4.3183    0.0000 H   0  0  0  0  0  0  0  0  0  0  0  0
  1  5  1  0  0  0  0
  1  6  2  0  0  0  0
  1  7  2  0  0  0  0
  1 12  1  0  0  0  0
  2 18  1  0  0  0  0
  2 19  1  0  0  0  0
  3 34  1  0  0  0  0
  4 35  1  0  0  0  0
  5 20  1  0  0  0  0
  8 26  2  0  0  0  0
  9 21  1  0  0  0  0
  9 22  1  0  0  0  0
 10 22  2  0  0  0  0
 10 23  1  0  0  0  0
 11 21  2  0  0  0  0
 11 25  1  0  0  0  0
 12 26  1  0  0  0  0
 12 29  1  0  0  0  0
 13 24  1  0  0  0  0
 13 25  2  0  0  0  0
 14 24  1  0  0  0  0
 14 30  1  0  0  0  0
 14 31  1  0  0  0  0
 15 32  1  0  0  0  0
 15 33  1  0  0  0  0
 16  3  1  0  0  0  0
 16 17  1  0  0  0  0
 16 18  1  0  0  0  0
 16 36  1  1  0  0  0
 17  4  1  0  0  0  0
 17 19  1  0  0  0  0
 17 37  1  1  0  0  0
 18  9  1  0  0  0  0
 18 38  1  6  0  0  0
 19 20  1  0  0  0  0
 19 39  1  6  0  0  0
 20 40  1  0  0  0  0
 20 41  1  0  0  0  0
 21 23  1  0  0  0  0
 22 42  1  0  0  0  0
 23 24  2  0  0  0  0
 25 43  1  0  0  0  0
 26 27  1  0  0  0  0
 27 15  1  0  0  0  0
 27 28  1  0  0  0  0
 27 44  1  1  0  0  0
 28 45  1  0  0  0  0
 28 46  1  0  0  0  0
 28 47  1  0  0  0  0
M  END
>  <DRUGBANK_ID>
DB03376

>  <SECONDARY_ACCESSION_NUMBERS>
EXPT00374

>  <COMMON_NAME>
5'-O-(N-(Alanyl)sulfamoyl)adenosine

>  <CAS_NUMBER>
112921-04-7

>  <UNII>
48GG0U2X78

>  <SYNONYMS>
Ala-SA; AlaSA

$$$$
