
 OpenBabel10282417072D

 22 22  0  0  1  0  0  0  0  0999 V2000
    1.4289   -0.0000    0.0000 C   0  0  0  0  0  0  0  0  0  0  0  0
    0.0000   -0.0000    0.0000 C   0  0  0  0  0  0  0  0  0  0  0  0
    1.4289    0.8250    0.0000 C   0  0  0  0  0  0  0  0  0  0  0  0
    0.0000    0.8250    0.0000 C   0  0  2  0  0  0  0  0  0  0  0  0
    0.7145    1.2375    0.0000 C   0  0  2  0  0  0  0  0  0  0  0  0
    1.1018   -1.1409    0.0000 C   0  0  0  0  0  0  0  0  0  0  0  0
    0.7145   -0.4125    0.0000 C   0  0  2  0  0  0  0  0  0  0  0  0
    2.1434    1.2375    0.0000 F   0  0  0  0  0  0  0  0  0  0  0  0
   -0.7145    1.2375    0.0000 O   0  0  0  0  0  0  0  0  0  0  0  0
    0.7145    2.0625    0.0000 O   0  0  0  0  0  0  0  0  0  0  0  0
    1.9263   -1.1697    0.0000 O   0  0  0  0  0  0  0  0  0  0  0  0
    0.6646   -1.8406    0.0000 O   0  0  0  0  0  0  0  0  0  0  0  0
    0.3272   -1.1409    0.0000 O   0  0  0  0  0  0  0  0  0  0  0  0
   -0.7145    0.4125    0.0000 H   0  0  0  0  0  0  0  0  0  0  0  0
    1.4289    1.6500    0.0000 H   0  0  0  0  0  0  0  0  0  0  0  0
    2.3226   -0.5160    0.0000 H   0  0  0  0  0  0  0  0  0  0  0  0
   -0.9266   -0.5350    0.0000 H   0  0  0  0  0  0  0  0  0  0  0  0
    0.0000   -1.0700    0.0000 H   0  0  0  0  0  0  0  0  0  0  0  0
   -0.7145    2.2075    0.0000 H   0  0  0  0  0  0  0  0  0  0  0  0
    1.5545    2.5475    0.0000 H   0  0  0  0  0  0  0  0  0  0  0  0
   -0.2718   -1.8079    0.0000 H   0  0  0  0  0  0  0  0  0  0  0  0
   -0.6422   -1.1747    0.0000 H   0  0  0  0  0  0  0  0  0  0  0  0
  1 16  1  0  0  0  0
  2 17  1  0  0  0  0
  2 18  1  0  0  0  0
  3  1  2  0  0  0  0
  4  2  1  0  0  0  0
  4  9  1  0  0  0  0
  4 14  1  6  0  0  0
  5  3  1  0  0  0  0
  5  4  1  0  0  0  0
  5 10  1  0  0  0  0
  5 15  1  1  0  0  0
  7  1  1  0  0  0  0
  7  2  1  0  0  0  0
  7  6  1  1  0  0  0
  7 13  1  0  0  0  0
  8  3  1  0  0  0  0
  9 19  1  0  0  0  0
 10 20  1  0  0  0  0
 11  6  2  0  0  0  0
 12  6  1  0  0  0  0
 12 21  1  0  0  0  0
 13 22  1  0  0  0  0
M  END
>  <DRUGBANK_ID>
DB02786

>  <SECONDARY_ACCESSION_NUMBERS>
EXPT01387

>  <COMMON_NAME>
2-Anhydro-3-Fluoro-Quinic Acid

$$$$
