686
 OpenBabel10282417072D

 53 54  0  0  1  0  0  0  0  0999 V2000
    4.2365    1.2375    0.0000 S   0  0  0  0  0  0  0  0  0  0  0  0
    8.5234    1.2375    0.0000 S   0  0  0  0  0  0  0  0  0  0  0  0
    9.9524   -0.4125    0.0000 S   0  0  0  0  0  0  0  0  0  0  0  0
    2.8075   -0.4125    0.0000 S   0  0  0  0  0  0  0  0  0  0  0  0
    6.3799    0.0000    0.0000 O   0  0  0  0  0  0  0  0  0  0  0  0
    7.0944   -1.2375    0.0000 O   0  0  0  0  0  0  0  0  0  0  0  0
    4.9509   -1.6500    0.0000 O   0  0  0  0  0  0  0  0  0  0  0  0
    4.9509    0.8250    0.0000 O   0  0  0  0  0  0  0  0  0  0  0  0
    7.8089    0.8250    0.0000 O   0  0  0  0  0  0  0  0  0  0  0  0
    9.2379    0.0000    0.0000 O   0  0  0  0  0  0  0  0  0  0  0  0
    3.5220    0.0000    0.0000 O   0  0  0  0  0  0  0  0  0  0  0  0
    9.2379   -1.6500    0.0000 O   0  0  0  0  0  0  0  0  0  0  0  0
    3.5220   -1.6500    0.0000 O   0  0  0  0  0  0  0  0  0  0  0  0
    3.5220    1.6500    0.0000 O   0  0  0  0  0  0  0  0  0  0  0  0
    9.2379    1.6500    0.0000 O   0  0  0  0  0  0  0  0  0  0  0  0
   10.6668   -0.8250    0.0000 O   0  0  0  0  0  0  0  0  0  0  0  0
    2.0930   -0.8250    0.0000 O   0  0  0  0  0  0  0  0  0  0  0  0
    3.8240    0.5231    0.0000 O   0  0  0  0  0  0  0  0  0  0  0  0
    4.6490    1.9520    0.0000 O   0  0  0  0  0  0  0  0  0  0  0  0
    8.9359    0.5231    0.0000 O   0  0  0  0  0  0  0  0  0  0  0  0
    8.1109    1.9520    0.0000 O   0  0  0  0  0  0  0  0  0  0  0  0
   10.3649    0.3020    0.0000 O   0  0  0  0  0  0  0  0  0  0  0  0
    9.5398   -1.1270    0.0000 O   0  0  0  0  0  0  0  0  0  0  0  0
    2.3950    0.3020    0.0000 O   0  0  0  0  0  0  0  0  0  0  0  0
    3.2200   -1.1270    0.0000 O   0  0  0  0  0  0  0  0  0  0  0  0
    5.6655   -0.4125    0.0000 C   0  0  1  0  0  0  0  0  0  0  0  0
    4.9509    0.0000    0.0000 C   0  0  1  0  0  0  0  0  0  0  0  0
    7.8089    0.0000    0.0000 C   0  0  1  0  0  0  0  0  0  0  0  0
    7.0944   -0.4125    0.0000 C   0  0  2  0  0  0  0  0  0  0  0  0
    8.5234   -0.4125    0.0000 C   0  0  2  0  0  0  0  0  0  0  0  0
    4.2365   -0.4125    0.0000 C   0  0  2  0  0  0  0  0  0  0  0  0
    8.5234   -1.2375    0.0000 C   0  0  1  0  0  0  0  0  0  0  0  0
    5.6655   -1.2375    0.0000 C   0  0  0  0  0  0  0  0  0  0  0  0
    4.2365   -1.2375    0.0000 C   0  0  1  0  0  0  0  0  0  0  0  0
    7.8089   -1.6500    0.0000 C   0  0  0  0  0  0  0  0  0  0  0  0
    9.2379   -2.6200    0.0000 H   0  0  0  0  0  0  0  0  0  0  0  0
    2.6820   -1.1650    0.0000 H   0  0  0  0  0  0  0  0  0  0  0  0
    3.5220    2.6200    0.0000 H   0  0  0  0  0  0  0  0  0  0  0  0
   10.0779    1.1650    0.0000 H   0  0  0  0  0  0  0  0  0  0  0  0
   10.6668   -1.7950    0.0000 H   0  0  0  0  0  0  0  0  0  0  0  0
    1.2530   -0.3400    0.0000 H   0  0  0  0  0  0  0  0  0  0  0  0
    5.6654    0.6575    0.0000 H   0  0  0  0  0  0  0  0  0  0  0  0
    5.8775    0.5350    0.0000 H   0  0  0  0  0  0  0  0  0  0  0  0
    6.8823    0.5350    0.0000 H   0  0  0  0  0  0  0  0  0  0  0  0
    6.1678   -0.9475    0.0000 H   0  0  0  0  0  0  0  0  0  0  0  0
    8.5234    0.6575    0.0000 H   0  0  0  0  0  0  0  0  0  0  0  0
    4.2365    0.6575    0.0000 H   0  0  0  0  0  0  0  0  0  0  0  0
    9.4500   -0.7025    0.0000 H   0  0  0  0  0  0  0  0  0  0  0  0
    6.5921   -1.7725    0.0000 H   0  0  0  0  0  0  0  0  0  0  0  0
    6.5922   -0.7025    0.0000 H   0  0  0  0  0  0  0  0  0  0  0  0
    4.2365   -2.3075    0.0000 H   0  0  0  0  0  0  0  0  0  0  0  0
    7.8089   -2.7200    0.0000 H   0  0  0  0  0  0  0  0  0  0  0  0
    8.7355   -2.1850    0.0000 H   0  0  0  0  0  0  0  0  0  0  0  0
  1  8  1  0  0  0  0
  1 14  1  0  0  0  0
  1 18  2  0  0  0  0
  1 19  2  0  0  0  0
  2  9  1  0  0  0  0
  2 15  1  0  0  0  0
  2 20  2  0  0  0  0
  2 21  2  0  0  0  0
  3 10  1  0  0  0  0
  3 16  1  0  0  0  0
  3 22  2  0  0  0  0
  3 23  2  0  0  0  0
  4 11  1  0  0  0  0
  4 17  1  0  0  0  0
  4 24  2  0  0  0  0
  4 25  2  0  0  0  0
  6 29  1  0  0  0  0
  6 35  1  0  0  0  0
  7 33  1  0  0  0  0
  7 34  1  0  0  0  0
 12 36  1  0  0  0  0
 13 37  1  0  0  0  0
 14 38  1  0  0  0  0
 15 39  1  0  0  0  0
 16 40  1  0  0  0  0
 17 41  1  0  0  0  0
 26  5  1  0  0  0  0
 26 27  1  0  0  0  0
 26 33  1  0  0  0  0
 26 42  1  1  0  0  0
 27  8  1  0  0  0  0
 27 31  1  0  0  0  0
 27 43  1  6  0  0  0
 28  9  1  0  0  0  0
 28 29  1  0  0  0  0
 28 30  1  0  0  0  0
 28 44  1  1  0  0  0
 29  5  1  0  0  0  0
 29 45  1  6  0  0  0
 30 10  1  0  0  0  0
 30 32  1  0  0  0  0
 30 46  1  6  0  0  0
 31 11  1  0  0  0  0
 31 34  1  0  0  0  0
 31 47  1  1  0  0  0
 32 12  1  0  0  0  0
 32 35  1  0  0  0  0
 32 48  1  1  0  0  0
 33 49  1  0  0  0  0
 33 50  1  0  0  0  0
 34 13  1  0  0  0  0
 34 51  1  6  0  0  0
 35 52  1  0  0  0  0
 35 53  1  0  0  0  0
M  END
>  <DRUGBANK_ID>
DB00686

>  <SECONDARY_ACCESSION_NUMBERS>
APRD01175

>  <COMMON_NAME>
Pentosan polysulfate

>  <CAS_NUMBER>
37300-21-3

>  <UNII>
F59P8B75R4

>  <SYNONYMS>
Pentosan polysulfate; Pentosan sulfuric polyester; Pentosane polysulfate; Pentosani polysulfas; Pentosano polisulfato; Pentosanpolysulfat

$$$$
