
 OpenBabel10282417072D

 46 47  0  0  0  0  0  0  0  0999 V2000
    4.5080   -1.0313    0.0000 O   0  0  0  0  0  0  0  0  0  0  0  0
    3.0791   -2.6813    0.0000 N   0  0  0  0  0  0  0  0  0  0  0  0
    3.7935   -2.2688    0.0000 C   0  0  0  0  0  0  0  0  0  0  0  0
    2.3645   -2.2688    0.0000 C   0  0  0  0  0  0  0  0  0  0  0  0
    3.0791   -3.5063    0.0000 C   0  0  0  0  0  0  0  0  0  0  0  0
    3.7935   -1.4438    0.0000 C   0  0  0  0  0  0  0  0  0  0  0  0
    1.6500   -2.6813    0.0000 C   0  0  0  0  0  0  0  0  0  0  0  0
    2.3645   -3.9188    0.0000 C   0  0  0  0  0  0  0  0  0  0  0  0
    4.5080    1.4438    0.0000 C   0  0  0  0  0  0  0  0  0  0  0  0
    4.5080    2.2688    0.0000 C   0  0  0  0  0  0  0  0  0  0  0  0
    4.5080   -0.2063    0.0000 C   0  0  0  0  0  0  0  0  0  0  0  0
    5.2224    2.6813    0.0000 C   0  0  0  0  0  0  0  0  0  0  0  0
    5.2224    1.0313    0.0000 C   0  0  0  0  0  0  0  0  0  0  0  0
    3.7935    1.0313    0.0000 C   0  0  0  0  0  0  0  0  0  0  0  0
    5.2224    0.2063    0.0000 C   0  0  0  0  0  0  0  0  0  0  0  0
    3.7935    0.2063    0.0000 C   0  0  0  0  0  0  0  0  0  0  0  0
    5.9370    2.2688    0.0000 C   0  0  0  0  0  0  0  0  0  0  0  0
    5.2224    3.5063    0.0000 C   0  0  0  0  0  0  0  0  0  0  0  0
    6.6515    2.6813    0.0000 C   0  0  0  0  0  0  0  0  0  0  0  0
    5.9370    3.9188    0.0000 C   0  0  0  0  0  0  0  0  0  0  0  0
    6.6515    3.5063    0.0000 C   0  0  0  0  0  0  0  0  0  0  0  0
    4.7202   -2.8038    0.0000 H   0  0  0  0  0  0  0  0  0  0  0  0
    4.7201   -1.7338    0.0000 H   0  0  0  0  0  0  0  0  0  0  0  0
    2.3645   -1.1988    0.0000 H   0  0  0  0  0  0  0  0  0  0  0  0
    1.4378   -1.7338    0.0000 H   0  0  0  0  0  0  0  0  0  0  0  0
    4.0057   -4.0413    0.0000 H   0  0  0  0  0  0  0  0  0  0  0  0
    3.0790   -4.5763    0.0000 H   0  0  0  0  0  0  0  0  0  0  0  0
    2.8669   -0.9088    0.0000 H   0  0  0  0  0  0  0  0  0  0  0  0
    2.8669   -1.9788    0.0000 H   0  0  0  0  0  0  0  0  0  0  0  0
    0.7234   -2.1463    0.0000 H   0  0  0  0  0  0  0  0  0  0  0  0
    1.6500   -3.7513    0.0000 H   0  0  0  0  0  0  0  0  0  0  0  0
    0.7233   -3.2163    0.0000 H   0  0  0  0  0  0  0  0  0  0  0  0
    1.4379   -3.3837    0.0000 H   0  0  0  0  0  0  0  0  0  0  0  0
    2.3644   -4.9888    0.0000 H   0  0  0  0  0  0  0  0  0  0  0  0
    1.4378   -4.4537    0.0000 H   0  0  0  0  0  0  0  0  0  0  0  0
    3.5813    2.8038    0.0000 H   0  0  0  0  0  0  0  0  0  0  0  0
    4.5080    3.3388    0.0000 H   0  0  0  0  0  0  0  0  0  0  0  0
    6.1161    1.5473    0.0000 H   0  0  0  0  0  0  0  0  0  0  0  0
    2.8998    1.5473    0.0000 H   0  0  0  0  0  0  0  0  0  0  0  0
    6.1162   -0.3096    0.0000 H   0  0  0  0  0  0  0  0  0  0  0  0
    2.8997   -0.3097    0.0000 H   0  0  0  0  0  0  0  0  0  0  0  0
    5.9370    1.2368    0.0000 H   0  0  0  0  0  0  0  0  0  0  0  0
    4.3287    4.0223    0.0000 H   0  0  0  0  0  0  0  0  0  0  0  0
    7.5452    2.1653    0.0000 H   0  0  0  0  0  0  0  0  0  0  0  0
    5.9370    4.9508    0.0000 H   0  0  0  0  0  0  0  0  0  0  0  0
    7.5452    4.0223    0.0000 H   0  0  0  0  0  0  0  0  0  0  0  0
  1  6  1  0  0  0  0
  1 11  1  0  0  0  0
  2  3  1  0  0  0  0
  2  4  1  0  0  0  0
  2  5  1  0  0  0  0
  3  6  1  0  0  0  0
  3 22  1  0  0  0  0
  3 23  1  0  0  0  0
  4  7  1  0  0  0  0
  4 24  1  0  0  0  0
  4 25  1  0  0  0  0
  5  8  1  0  0  0  0
  5 26  1  0  0  0  0
  5 27  1  0  0  0  0
  6 28  1  0  0  0  0
  6 29  1  0  0  0  0
  7 30  1  0  0  0  0
  7 31  1  0  0  0  0
  7 32  1  0  0  0  0
  8 33  1  0  0  0  0
  8 34  1  0  0  0  0
  8 35  1  0  0  0  0
  9 10  1  0  0  0  0
  9 13  2  0  0  0  0
  9 14  1  0  0  0  0
 10 12  1  0  0  0  0
 10 36  1  0  0  0  0
 10 37  1  0  0  0  0
 11 15  2  0  0  0  0
 11 16  1  0  0  0  0
 12 17  2  0  0  0  0
 12 18  1  0  0  0  0
 13 15  1  0  0  0  0
 13 38  1  0  0  0  0
 14 16  2  0  0  0  0
 14 39  1  0  0  0  0
 15 40  1  0  0  0  0
 16 41  1  0  0  0  0
 17 19  1  0  0  0  0
 17 42  1  0  0  0  0
 18 20  2  0  0  0  0
 18 43  1  0  0  0  0
 19 21  2  0  0  0  0
 19 44  1  0  0  0  0
 20 21  1  0  0  0  0
 20 45  1  0  0  0  0
 21 46  1  0  0  0  0
M  END
>  <DRUGBANK_ID>
DB04905

>  <COMMON_NAME>
Tesmilifene

>  <CAS_NUMBER>
98774-23-3

>  <UNII>
I43T3ID6G2

>  <SYNONYMS>
N,N-diethyl-2-((4-phenylmethyl)phenoxy)ethanamine; Tesmilifene

$$$$
