
 OpenBabel10282417072D

199202  0  0  1  0  0  0  0  0999 V2000
   -4.2868   -4.9500    0.0000 C   0  0  0  0  0  0  0  0  0  0  0  0
   -5.0013   -4.5375    0.0000 C   0  0  0  0  0  0  0  0  0  0  0  0
   -5.0013   -3.7125    0.0000 C   0  0  1  0  0  0  0  0  0  0  0  0
   -4.2868   -3.3000    0.0000 C   0  0  0  0  0  0  0  0  0  0  0  0
   -4.2868   -2.4750    0.0000 C   0  0  2  0  0  0  0  0  0  0  0  0
   -5.0013   -2.0625    0.0000 C   0  0  0  0  0  0  0  0  0  0  0  0
   -5.7158   -2.4750    0.0000 C   0  0  1  0  0  0  0  0  0  0  0  0
   -6.4302   -2.0625    0.0000 O   0  0  0  0  0  0  0  0  0  0  0  0
   -6.4302   -1.2375    0.0000 C   0  0  2  0  0  0  0  0  0  0  0  0
   -5.7158   -0.8250    0.0000 O   0  0  0  0  0  0  0  0  0  0  0  0
   -5.7158   -0.0000    0.0000 C   0  0  2  0  0  0  0  0  0  0  0  0
   -5.0013    0.4125    0.0000 C   0  0  0  0  0  0  0  0  0  0  0  0
   -5.0013    1.2375    0.0000 O   0  0  0  0  0  0  0  0  0  0  0  0
   -6.4302    0.4125    0.0000 C   0  0  2  0  0  0  0  0  0  0  0  0
   -6.4302    1.2375    0.0000 O   0  0  0  0  0  0  0  0  0  0  0  0
   -7.1447    0.0000    0.0000 C   0  0  2  0  0  0  0  0  0  0  0  0
   -7.8592    0.4125    0.0000 O   0  0  0  0  0  0  0  0  0  0  0  0
   -7.8592    1.2375    0.0000 C   0  0  1  0  0  0  0  0  0  0  0  0
   -7.1447    1.6500    0.0000 C   0  0  0  0  0  0  0  0  0  0  0  0
   -7.1447    2.4750    0.0000 C   0  0  0  0  0  0  0  0  0  0  0  0
   -7.8592    2.8875    0.0000 C   0  0  0  0  0  0  0  0  0  0  0  0
   -7.8592    3.7125    0.0000 C   0  0  0  0  0  0  0  0  0  0  0  0
   -7.1447    4.1250    0.0000 C   0  0  0  0  0  0  0  0  0  0  0  0
   -6.4302    3.7125    0.0000 C   0  0  0  0  0  0  0  0  0  0  0  0
   -6.4302    2.8875    0.0000 C   0  0  0  0  0  0  0  0  0  0  0  0
   -8.5737    1.6500    0.0000 C   0  0  0  0  0  0  0  0  0  0  0  0
   -8.5737    2.4750    0.0000 O   0  0  0  0  0  0  0  0  0  0  0  0
   -9.2881    1.2375    0.0000 O   0  0  0  0  0  0  0  0  0  0  0  0
   -7.1447   -0.8250    0.0000 C   0  0  1  0  0  0  0  0  0  0  0  0
   -7.8592   -1.2375    0.0000 N   0  0  0  0  0  0  0  0  0  0  0  0
   -8.5737   -0.8250    0.0000 C   0  0  0  0  0  0  0  0  0  0  0  0
   -9.2881   -1.2375    0.0000 C   0  0  0  0  0  0  0  0  0  0  0  0
   -8.5737    0.0000    0.0000 O   0  0  0  0  0  0  0  0  0  0  0  0
   -5.7158   -3.3000    0.0000 C   0  0  2  0  0  0  0  0  0  0  0  0
   -6.4302   -3.7125    0.0000 O   0  0  0  0  0  0  0  0  0  0  0  0
   -6.4302   -4.5375    0.0000 C   0  0  2  0  0  0  0  0  0  0  0  0
   -5.7158   -4.9500    0.0000 O   0  0  0  0  0  0  0  0  0  0  0  0
   -5.7158   -5.7750    0.0000 C   0  0  1  0  0  0  0  0  0  0  0  0
   -5.0013   -6.1875    0.0000 C   0  0  0  0  0  0  0  0  0  0  0  0
   -6.4302   -6.1875    0.0000 C   0  0  1  0  0  0  0  0  0  0  0  0
   -6.4302   -7.0125    0.0000 O   0  0  0  0  0  0  0  0  0  0  0  0
   -7.1447   -5.7750    0.0000 C   0  0  1  0  0  0  0  0  0  0  0  0
   -7.8592   -6.1875    0.0000 O   0  0  0  0  0  0  0  0  0  0  0  0
   -7.1447   -4.9500    0.0000 C   0  0  2  0  0  0  0  0  0  0  0  0
   -7.8592   -4.5375    0.0000 O   0  0  0  0  0  0  0  0  0  0  0  0
   -3.5724   -2.0625    0.0000 C   0  0  0  0  0  0  0  0  0  0  0  0
   -3.5724   -1.2375    0.0000 O   0  0  0  0  0  0  0  0  0  0  0  0
   -2.8579   -2.4750    0.0000 N   0  0  0  0  0  0  0  0  0  0  0  0
   -2.1434   -2.0625    0.0000 C   0  0  0  0  0  0  0  0  0  0  0  0
   -1.4289   -2.4750    0.0000 C   0  0  0  0  0  0  0  0  0  0  0  0
   -0.7145   -2.0625    0.0000 N   0  0  0  0  0  0  0  0  0  0  0  0
    0.0000   -2.4750    0.0000 C   0  0  0  0  0  0  0  0  0  0  0  0
    0.0000   -3.3000    0.0000 O   0  0  0  0  0  0  0  0  0  0  0  0
    0.7145   -2.0625    0.0000 C   0  0  0  0  0  0  0  0  0  0  0  0
    1.4289   -2.4750    0.0000 C   0  0  0  0  0  0  0  0  0  0  0  0
    2.1434   -2.0625    0.0000 O   0  0  0  0  0  0  0  0  0  0  0  0
    2.8579   -2.4750    0.0000 C   0  0  0  0  0  0  0  0  0  0  0  0
    3.5724   -2.0625    0.0000 C   0  0  0  0  0  0  0  0  0  0  0  0
    4.2868   -2.4750    0.0000 O   0  0  0  0  0  0  0  0  0  0  0  0
    5.0013   -2.0625    0.0000 C   0  0  0  0  0  0  0  0  0  0  0  0
    5.7158   -2.4750    0.0000 C   0  0  0  0  0  0  0  0  0  0  0  0
    6.4302   -2.0625    0.0000 O   0  0  0  0  0  0  0  0  0  0  0  0
    7.1447   -2.4750    0.0000 C   0  0  0  0  0  0  0  0  0  0  0  0
    7.8592   -2.0625    0.0000 C   0  0  0  0  0  0  0  0  0  0  0  0
    8.5737   -2.4750    0.0000 O   0  0  0  0  0  0  0  0  0  0  0  0
    9.2881   -2.0625    0.0000 C   0  0  0  0  0  0  0  0  0  0  0  0
   10.0026   -2.4750    0.0000 C   0  0  0  0  0  0  0  0  0  0  0  0
   10.7171   -2.0625    0.0000 O   0  0  0  0  0  0  0  0  0  0  0  0
   11.4315   -2.4750    0.0000 C   0  0  0  0  0  0  0  0  0  0  0  0
   12.1460   -2.0625    0.0000 C   0  0  0  0  0  0  0  0  0  0  0  0
   12.8605   -2.4750    0.0000 O   0  0  0  0  0  0  0  0  0  0  0  0
   13.5749   -2.0625    0.0000 C   0  0  0  0  0  0  0  0  0  0  0  0
   14.2894   -2.4750    0.0000 C   0  0  0  0  0  0  0  0  0  0  0  0
   15.0039   -2.0625    0.0000 O   0  0  0  0  0  0  0  0  0  0  0  0
   15.7184   -2.4750    0.0000 C   0  0  0  0  0  0  0  0  0  0  0  0
   16.4328   -2.0625    0.0000 C   0  0  0  0  0  0  0  0  0  0  0  0
   17.1473   -2.4750    0.0000 O   0  0  0  0  0  0  0  0  0  0  0  0
   17.8618   -2.0625    0.0000 C   0  0  0  0  0  0  0  0  0  0  0  0
   18.5762   -2.4750    0.0000 C   0  0  0  0  0  0  0  0  0  0  0  0
   19.2907   -2.0625    0.0000 O   0  0  0  0  0  0  0  0  0  0  0  0
   20.0052   -2.4750    0.0000 C   0  0  0  0  0  0  0  0  0  0  0  0
   20.7197   -2.0625    0.0000 C   0  0  0  0  0  0  0  0  0  0  0  0
   21.4341   -2.4750    0.0000 O   0  0  0  0  0  0  0  0  0  0  0  0
   22.1486   -2.0625    0.0000 C   0  0  0  0  0  0  0  0  0  0  0  0
   22.8631   -2.4750    0.0000 C   0  0  0  0  0  0  0  0  0  0  0  0
   23.5775   -2.0625    0.0000 O   0  0  0  0  0  0  0  0  0  0  0  0
   24.2920   -2.4750    0.0000 C   0  0  0  0  0  0  0  0  0  0  0  0
   25.0065   -2.0625    0.0000 C   0  0  0  0  0  0  0  0  0  0  0  0
   25.7210   -2.4750    0.0000 O   0  0  0  0  0  0  0  0  0  0  0  0
   26.4354   -2.0625    0.0000 C   0  0  0  0  0  0  0  0  0  0  0  0
   -4.2868   -6.0200    0.0000 H   0  0  0  0  0  0  0  0  0  0  0  0
   -3.3602   -4.4150    0.0000 H   0  0  0  0  0  0  0  0  0  0  0  0
   -3.3601   -5.4850    0.0000 H   0  0  0  0  0  0  0  0  0  0  0  0
   -5.9279   -5.0725    0.0000 H   0  0  0  0  0  0  0  0  0  0  0  0
   -5.9279   -4.0025    0.0000 H   0  0  0  0  0  0  0  0  0  0  0  0
   -4.0747   -4.2475    0.0000 H   0  0  0  0  0  0  0  0  0  0  0  0
   -3.3602   -3.8350    0.0000 H   0  0  0  0  0  0  0  0  0  0  0  0
   -3.3602   -2.7650    0.0000 H   0  0  0  0  0  0  0  0  0  0  0  0
   -3.3601   -3.0100    0.0000 H   0  0  0  0  0  0  0  0  0  0  0  0
   -5.0013   -0.9925    0.0000 H   0  0  0  0  0  0  0  0  0  0  0  0
   -5.9279   -1.5275    0.0000 H   0  0  0  0  0  0  0  0  0  0  0  0
   -5.7158   -1.4050    0.0000 H   0  0  0  0  0  0  0  0  0  0  0  0
   -5.5035   -1.7725    0.0000 H   0  0  0  0  0  0  0  0  0  0  0  0
   -4.7892   -0.5350    0.0000 H   0  0  0  0  0  0  0  0  0  0  0  0
   -4.0747   -0.1225    0.0000 H   0  0  0  0  0  0  0  0  0  0  0  0
   -4.0747    0.9475    0.0000 H   0  0  0  0  0  0  0  0  0  0  0  0
   -4.1613    1.7225    0.0000 H   0  0  0  0  0  0  0  0  0  0  0  0
   -5.5035    0.9475    0.0000 H   0  0  0  0  0  0  0  0  0  0  0  0
   -5.5902    1.7225    0.0000 H   0  0  0  0  0  0  0  0  0  0  0  0
   -7.1447    1.0700    0.0000 H   0  0  0  0  0  0  0  0  0  0  0  0
   -6.9326    0.7025    0.0000 H   0  0  0  0  0  0  0  0  0  0  0  0
   -6.2181    1.1150    0.0000 H   0  0  0  0  0  0  0  0  0  0  0  0
   -6.2181    2.1850    0.0000 H   0  0  0  0  0  0  0  0  0  0  0  0
   -7.1447    3.5450    0.0000 H   0  0  0  0  0  0  0  0  0  0  0  0
   -8.7858    2.3525    0.0000 H   0  0  0  0  0  0  0  0  0  0  0  0
   -8.7858    3.4225    0.0000 H   0  0  0  0  0  0  0  0  0  0  0  0
   -8.7858    4.2475    0.0000 H   0  0  0  0  0  0  0  0  0  0  0  0
   -7.8592    4.7825    0.0000 H   0  0  0  0  0  0  0  0  0  0  0  0
   -7.1447    5.1950    0.0000 H   0  0  0  0  0  0  0  0  0  0  0  0
   -6.2181    4.6600    0.0000 H   0  0  0  0  0  0  0  0  0  0  0  0
   -5.5036    4.2475    0.0000 H   0  0  0  0  0  0  0  0  0  0  0  0
   -5.5036    3.1775    0.0000 H   0  0  0  0  0  0  0  0  0  0  0  0
   -5.5036    2.3525    0.0000 H   0  0  0  0  0  0  0  0  0  0  0  0
   -6.4302    1.8175    0.0000 H   0  0  0  0  0  0  0  0  0  0  0  0
   -7.7622    2.9435    0.0000 H   0  0  0  0  0  0  0  0  0  0  0  0
   -8.0713   -0.2900    0.0000 H   0  0  0  0  0  0  0  0  0  0  0  0
   -7.8592   -2.2220    0.0000 H   0  0  0  0  0  0  0  0  0  0  0  0
  -10.2148   -0.7025    0.0000 H   0  0  0  0  0  0  0  0  0  0  0  0
   -9.2881   -2.3075    0.0000 H   0  0  0  0  0  0  0  0  0  0  0  0
  -10.2147   -1.7725    0.0000 H   0  0  0  0  0  0  0  0  0  0  0  0
   -6.6425   -2.7650    0.0000 H   0  0  0  0  0  0  0  0  0  0  0  0
   -5.5035   -4.0025    0.0000 H   0  0  0  0  0  0  0  0  0  0  0  0
   -4.7892   -5.2400    0.0000 H   0  0  0  0  0  0  0  0  0  0  0  0
   -5.0013   -7.2575    0.0000 H   0  0  0  0  0  0  0  0  0  0  0  0
   -4.0747   -5.6525    0.0000 H   0  0  0  0  0  0  0  0  0  0  0  0
   -4.0746   -6.7225    0.0000 H   0  0  0  0  0  0  0  0  0  0  0  0
   -5.5035   -6.7225    0.0000 H   0  0  0  0  0  0  0  0  0  0  0  0
   -7.2702   -7.4975    0.0000 H   0  0  0  0  0  0  0  0  0  0  0  0
   -7.1447   -6.8450    0.0000 H   0  0  0  0  0  0  0  0  0  0  0  0
   -8.6992   -5.7025    0.0000 H   0  0  0  0  0  0  0  0  0  0  0  0
   -8.0713   -5.4850    0.0000 H   0  0  0  0  0  0  0  0  0  0  0  0
   -7.8592   -3.5675    0.0000 H   0  0  0  0  0  0  0  0  0  0  0  0
   -2.8579   -3.4595    0.0000 H   0  0  0  0  0  0  0  0  0  0  0  0
   -2.1434   -0.9925    0.0000 H   0  0  0  0  0  0  0  0  0  0  0  0
   -1.2168   -1.5275    0.0000 H   0  0  0  0  0  0  0  0  0  0  0  0
   -1.4289   -3.5450    0.0000 H   0  0  0  0  0  0  0  0  0  0  0  0
   -0.5022   -3.0100    0.0000 H   0  0  0  0  0  0  0  0  0  0  0  0
   -0.7145   -1.0780    0.0000 H   0  0  0  0  0  0  0  0  0  0  0  0
    0.7145   -0.9925    0.0000 H   0  0  0  0  0  0  0  0  0  0  0  0
    1.6412   -1.5275    0.0000 H   0  0  0  0  0  0  0  0  0  0  0  0
    1.4289   -3.5450    0.0000 H   0  0  0  0  0  0  0  0  0  0  0  0
    2.3555   -3.0100    0.0000 H   0  0  0  0  0  0  0  0  0  0  0  0
    2.8579   -3.5450    0.0000 H   0  0  0  0  0  0  0  0  0  0  0  0
    3.7845   -3.0100    0.0000 H   0  0  0  0  0  0  0  0  0  0  0  0
    3.5724   -0.9925    0.0000 H   0  0  0  0  0  0  0  0  0  0  0  0
    4.4991   -1.5275    0.0000 H   0  0  0  0  0  0  0  0  0  0  0  0
    5.0013   -0.9925    0.0000 H   0  0  0  0  0  0  0  0  0  0  0  0
    5.9279   -1.5275    0.0000 H   0  0  0  0  0  0  0  0  0  0  0  0
    5.7158   -3.5450    0.0000 H   0  0  0  0  0  0  0  0  0  0  0  0
    6.6425   -3.0100    0.0000 H   0  0  0  0  0  0  0  0  0  0  0  0
    7.1447   -3.5450    0.0000 H   0  0  0  0  0  0  0  0  0  0  0  0
    8.0713   -3.0100    0.0000 H   0  0  0  0  0  0  0  0  0  0  0  0
    7.8592   -0.9925    0.0000 H   0  0  0  0  0  0  0  0  0  0  0  0
    8.7858   -1.5275    0.0000 H   0  0  0  0  0  0  0  0  0  0  0  0
    9.2881   -0.9925    0.0000 H   0  0  0  0  0  0  0  0  0  0  0  0
   10.2147   -1.5275    0.0000 H   0  0  0  0  0  0  0  0  0  0  0  0
   10.0026   -3.5450    0.0000 H   0  0  0  0  0  0  0  0  0  0  0  0
   10.9292   -3.0100    0.0000 H   0  0  0  0  0  0  0  0  0  0  0  0
   11.4315   -3.5450    0.0000 H   0  0  0  0  0  0  0  0  0  0  0  0
   12.3581   -3.0100    0.0000 H   0  0  0  0  0  0  0  0  0  0  0  0
   12.1460   -0.9925    0.0000 H   0  0  0  0  0  0  0  0  0  0  0  0
   13.0726   -1.5275    0.0000 H   0  0  0  0  0  0  0  0  0  0  0  0
   13.5749   -0.9925    0.0000 H   0  0  0  0  0  0  0  0  0  0  0  0
   14.5015   -1.5275    0.0000 H   0  0  0  0  0  0  0  0  0  0  0  0
   14.2894   -3.5450    0.0000 H   0  0  0  0  0  0  0  0  0  0  0  0
   15.2160   -3.0100    0.0000 H   0  0  0  0  0  0  0  0  0  0  0  0
   15.7184   -3.5450    0.0000 H   0  0  0  0  0  0  0  0  0  0  0  0
   16.6451   -3.0100    0.0000 H   0  0  0  0  0  0  0  0  0  0  0  0
   16.4328   -0.9925    0.0000 H   0  0  0  0  0  0  0  0  0  0  0  0
   17.3594   -1.5275    0.0000 H   0  0  0  0  0  0  0  0  0  0  0  0
   17.8618   -0.9925    0.0000 H   0  0  0  0  0  0  0  0  0  0  0  0
   18.7885   -1.5275    0.0000 H   0  0  0  0  0  0  0  0  0  0  0  0
   18.5762   -3.5450    0.0000 H   0  0  0  0  0  0  0  0  0  0  0  0
   19.5028   -3.0100    0.0000 H   0  0  0  0  0  0  0  0  0  0  0  0
   20.0052   -3.5450    0.0000 H   0  0  0  0  0  0  0  0  0  0  0  0
   20.9318   -3.0100    0.0000 H   0  0  0  0  0  0  0  0  0  0  0  0
   20.7197   -0.9925    0.0000 H   0  0  0  0  0  0  0  0  0  0  0  0
   21.6464   -1.5275    0.0000 H   0  0  0  0  0  0  0  0  0  0  0  0
   22.1486   -0.9925    0.0000 H   0  0  0  0  0  0  0  0  0  0  0  0
   23.0752   -1.5275    0.0000 H   0  0  0  0  0  0  0  0  0  0  0  0
   22.8631   -3.5450    0.0000 H   0  0  0  0  0  0  0  0  0  0  0  0
   23.7898   -3.0100    0.0000 H   0  0  0  0  0  0  0  0  0  0  0  0
   24.2920   -3.5450    0.0000 H   0  0  0  0  0  0  0  0  0  0  0  0
   25.2186   -3.0100    0.0000 H   0  0  0  0  0  0  0  0  0  0  0  0
   25.0065   -0.9925    0.0000 H   0  0  0  0  0  0  0  0  0  0  0  0
   25.9331   -1.5275    0.0000 H   0  0  0  0  0  0  0  0  0  0  0  0
   27.3621   -2.5975    0.0000 H   0  0  0  0  0  0  0  0  0  0  0  0
   26.4354   -0.9925    0.0000 H   0  0  0  0  0  0  0  0  0  0  0  0
   27.3620   -1.5275    0.0000 H   0  0  0  0  0  0  0  0  0  0  0  0
  1  2  1  0  0  0  0
  1 91  1  0  0  0  0
  1 92  1  0  0  0  0
  1 93  1  0  0  0  0
  2 94  1  0  0  0  0
  2 95  1  0  0  0  0
  3  2  1  0  0  0  0
  3  4  1  0  0  0  0
  3 96  1  1  0  0  0
  4 97  1  0  0  0  0
  4 98  1  0  0  0  0
  5  4  1  0  0  0  0
  5  6  1  0  0  0  0
  5 46  1  0  0  0  0
  5 99  1  1  0  0  0
  6100  1  0  0  0  0
  6101  1  0  0  0  0
  7  6  1  0  0  0  0
  7  8  1  0  0  0  0
  7102  1  1  0  0  0
  9  8  1  0  0  0  0
  9 10  1  0  0  0  0
  9103  1  6  0  0  0
 11 10  1  0  0  0  0
 11 12  1  0  0  0  0
 11104  1  6  0  0  0
 12 13  1  0  0  0  0
 12105  1  0  0  0  0
 12106  1  0  0  0  0
 13107  1  0  0  0  0
 14 11  1  0  0  0  0
 14 15  1  0  0  0  0
 14 16  1  0  0  0  0
 14108  1  6  0  0  0
 15109  1  0  0  0  0
 16 17  1  0  0  0  0
 16 29  1  0  0  0  0
 16110  1  6  0  0  0
 18 17  1  0  0  0  0
 18 19  1  0  0  0  0
 18 26  1  0  0  0  0
 18111  1  1  0  0  0
 19 20  1  0  0  0  0
 19112  1  0  0  0  0
 19113  1  0  0  0  0
 20 21  1  0  0  0  0
 20 25  1  0  0  0  0
 20114  1  0  0  0  0
 21 22  1  0  0  0  0
 21115  1  0  0  0  0
 21116  1  0  0  0  0
 22 23  1  0  0  0  0
 22117  1  0  0  0  0
 22118  1  0  0  0  0
 23 24  1  0  0  0  0
 23119  1  0  0  0  0
 23120  1  0  0  0  0
 24 25  1  0  0  0  0
 24121  1  0  0  0  0
 24122  1  0  0  0  0
 25123  1  0  0  0  0
 25124  1  0  0  0  0
 26 27  1  0  0  0  0
 26 28  2  0  0  0  0
 27125  1  0  0  0  0
 29  9  1  0  0  0  0
 29 30  1  0  0  0  0
 29126  1  1  0  0  0
 30 31  1  0  0  0  0
 30127  1  0  0  0  0
 31 32  1  0  0  0  0
 31 33  2  0  0  0  0
 32128  1  0  0  0  0
 32129  1  0  0  0  0
 32130  1  0  0  0  0
 34  7  1  0  0  0  0
 34  3  1  0  0  0  0
 34 35  1  0  0  0  0
 34131  1  6  0  0  0
 36 35  1  0  0  0  0
 36 37  1  0  0  0  0
 36132  1  1  0  0  0
 38 37  1  0  0  0  0
 38 39  1  0  0  0  0
 38133  1  6  0  0  0
 39134  1  0  0  0  0
 39135  1  0  0  0  0
 39136  1  0  0  0  0
 40 38  1  0  0  0  0
 40 41  1  0  0  0  0
 40 42  1  0  0  0  0
 40137  1  6  0  0  0
 41138  1  0  0  0  0
 42 43  1  0  0  0  0
 42 44  1  0  0  0  0
 42139  1  6  0  0  0
 43140  1  0  0  0  0
 44 36  1  0  0  0  0
 44 45  1  0  0  0  0
 44141  1  1  0  0  0
 45142  1  0  0  0  0
 46 47  2  0  0  0  0
 46 48  1  0  0  0  0
 48 49  1  0  0  0  0
 48143  1  0  0  0  0
 49 50  1  0  0  0  0
 49144  1  0  0  0  0
 49145  1  0  0  0  0
 50 51  1  0  0  0  0
 50146  1  0  0  0  0
 50147  1  0  0  0  0
 51 52  1  0  0  0  0
 51148  1  0  0  0  0
 52 53  2  0  0  0  0
 52 54  1  0  0  0  0
 54 55  1  0  0  0  0
 54149  1  0  0  0  0
 54150  1  0  0  0  0
 55 56  1  0  0  0  0
 55151  1  0  0  0  0
 55152  1  0  0  0  0
 56 57  1  0  0  0  0
 57 58  1  0  0  0  0
 57153  1  0  0  0  0
 57154  1  0  0  0  0
 58 59  1  0  0  0  0
 58155  1  0  0  0  0
 58156  1  0  0  0  0
 59 60  1  0  0  0  0
 60 61  1  0  0  0  0
 60157  1  0  0  0  0
 60158  1  0  0  0  0
 61 62  1  0  0  0  0
 61159  1  0  0  0  0
 61160  1  0  0  0  0
 62 63  1  0  0  0  0
 63 64  1  0  0  0  0
 63161  1  0  0  0  0
 63162  1  0  0  0  0
 64 65  1  0  0  0  0
 64163  1  0  0  0  0
 64164  1  0  0  0  0
 65 66  1  0  0  0  0
 66 67  1  0  0  0  0
 66165  1  0  0  0  0
 66166  1  0  0  0  0
 67 68  1  0  0  0  0
 67167  1  0  0  0  0
 67168  1  0  0  0  0
 68 69  1  0  0  0  0
 69 70  1  0  0  0  0
 69169  1  0  0  0  0
 69170  1  0  0  0  0
 70 71  1  0  0  0  0
 70171  1  0  0  0  0
 70172  1  0  0  0  0
 71 72  1  0  0  0  0
 72 73  1  0  0  0  0
 72173  1  0  0  0  0
 72174  1  0  0  0  0
 73 74  1  0  0  0  0
 73175  1  0  0  0  0
 73176  1  0  0  0  0
 74 75  1  0  0  0  0
 75 76  1  0  0  0  0
 75177  1  0  0  0  0
 75178  1  0  0  0  0
 76 77  1  0  0  0  0
 76179  1  0  0  0  0
 76180  1  0  0  0  0
 77 78  1  0  0  0  0
 78 79  1  0  0  0  0
 78181  1  0  0  0  0
 78182  1  0  0  0  0
 79 80  1  0  0  0  0
 79183  1  0  0  0  0
 79184  1  0  0  0  0
 80 81  1  0  0  0  0
 81 82  1  0  0  0  0
 81185  1  0  0  0  0
 81186  1  0  0  0  0
 82 83  1  0  0  0  0
 82187  1  0  0  0  0
 82188  1  0  0  0  0
 83 84  1  0  0  0  0
 84 85  1  0  0  0  0
 84189  1  0  0  0  0
 84190  1  0  0  0  0
 85 86  1  0  0  0  0
 85191  1  0  0  0  0
 85192  1  0  0  0  0
 86 87  1  0  0  0  0
 87 88  1  0  0  0  0
 87193  1  0  0  0  0
 87194  1  0  0  0  0
 88 89  1  0  0  0  0
 88195  1  0  0  0  0
 88196  1  0  0  0  0
 89 90  1  0  0  0  0
 90197  1  0  0  0  0
 90198  1  0  0  0  0
 90199  1  0  0  0  0
M  END
>  <DRUGBANK_ID>
DB14829

>  <COMMON_NAME>
Uproleselan

>  <CAS_NUMBER>
1983970-12-2

>  <UNII>
PE952ANF83

$$$$
