
 OpenBabel10282417072D

 39 40  0  0  0  0  0  0  0  0999 V2000
   -0.5242    0.5115    0.0000 C   0  0  2  0  0  0  0  0  0  0  0  0
   -0.5242   -0.3134    0.0000 C   0  0  2  0  0  0  0  0  0  0  0  0
   -1.3492    0.5115    0.0000 C   0  0  0  0  0  0  0  0  0  0  0  0
    0.1902    0.9240    0.0000 C   0  0  0  0  0  0  0  0  0  0  0  0
   -1.3492   -0.3134    0.0000 C   0  0  0  0  0  0  0  0  0  0  0  0
    0.1902   -0.7260    0.0000 C   0  0  0  0  0  0  0  0  0  0  0  0
   -1.3492    1.3365    0.0000 C   0  0  0  0  0  0  0  0  0  0  0  0
   -2.1742    0.5115    0.0000 C   0  0  0  0  0  0  0  0  0  0  0  0
    0.9047    0.5115    0.0000 C   0  0  0  0  0  0  0  0  0  0  0  0
    0.9047   -0.3134    0.0000 C   0  0  0  0  0  0  0  0  0  0  0  0
    0.1902   -1.5510    0.0000 C   0  0  0  0  0  0  0  0  0  0  0  0
    1.6893    0.7664    0.0000 C   0  0  0  0  0  0  0  0  0  0  0  0
    1.6893   -0.5684    0.0000 C   0  0  0  0  0  0  0  0  0  0  0  0
    2.1742    0.0990    0.0000 C   0  0  0  0  0  0  0  0  0  0  0  0
    1.9442    1.5510    0.0000 C   0  0  0  0  0  0  0  0  0  0  0  0
   -0.7377    1.3083    0.0000 H   0  0  0  0  0  0  0  0  0  0  0  0
   -0.7377   -1.1103    0.0000 H   0  0  0  0  0  0  0  0  0  0  0  0
    0.1902    1.9940    0.0000 H   0  0  0  0  0  0  0  0  0  0  0  0
    1.1168    1.4590    0.0000 H   0  0  0  0  0  0  0  0  0  0  0  0
   -2.1058   -1.0700    0.0000 H   0  0  0  0  0  0  0  0  0  0  0  0
   -2.3378    0.0961    0.0000 H   0  0  0  0  0  0  0  0  0  0  0  0
   -0.4226    1.8715    0.0000 H   0  0  0  0  0  0  0  0  0  0  0  0
   -2.2758    1.8715    0.0000 H   0  0  0  0  0  0  0  0  0  0  0  0
   -1.3492    2.4065    0.0000 H   0  0  0  0  0  0  0  0  0  0  0  0
   -2.7092    1.4381    0.0000 H   0  0  0  0  0  0  0  0  0  0  0  0
   -2.7092   -0.4151    0.0000 H   0  0  0  0  0  0  0  0  0  0  0  0
   -3.2442    0.5115    0.0000 H   0  0  0  0  0  0  0  0  0  0  0  0
    0.7928   -0.5526    0.0000 H   0  0  0  0  0  0  0  0  0  0  0  0
    1.7362   -0.1619    0.0000 H   0  0  0  0  0  0  0  0  0  0  0  0
    0.7928    0.7507    0.0000 H   0  0  0  0  0  0  0  0  0  0  0  0
    1.7363    0.3599    0.0000 H   0  0  0  0  0  0  0  0  0  0  0  0
   -0.7035   -2.0670    0.0000 H   0  0  0  0  0  0  0  0  0  0  0  0
    1.0839   -2.0670    0.0000 H   0  0  0  0  0  0  0  0  0  0  0  0
    2.0199   -1.5860    0.0000 H   0  0  0  0  0  0  0  0  0  0  0  0
    2.7461   -0.7358    0.0000 H   0  0  0  0  0  0  0  0  0  0  0  0
    3.2062    0.0990    0.0000 H   0  0  0  0  0  0  0  0  0  0  0  0
    2.9908    1.7735    0.0000 H   0  0  0  0  0  0  0  0  0  0  0  0
    1.2282    2.3461    0.0000 H   0  0  0  0  0  0  0  0  0  0  0  0
    2.2748    2.5686    0.0000 H   0  0  0  0  0  0  0  0  0  0  0  0
  1  2  1  0  0  0  0
  1  3  1  0  0  0  0
  1  4  1  0  0  0  0
  1 16  1  1  0  0  0
  2  5  1  0  0  0  0
  2  6  1  0  0  0  0
  2 17  1  6  0  0  0
  3  7  1  0  0  0  0
  3  8  1  0  0  0  0
  3  5  1  0  0  0  0
  4  9  1  0  0  0  0
  4 18  1  0  0  0  0
  4 19  1  0  0  0  0
  5 20  1  0  0  0  0
  5 21  1  0  0  0  0
  6 10  1  0  0  0  0
  6 11  2  0  0  0  0
  7 22  1  0  0  0  0
  7 23  1  0  0  0  0
  7 24  1  0  0  0  0
  8 25  1  0  0  0  0
  8 26  1  0  0  0  0
  8 27  1  0  0  0  0
  9 12  1  0  0  0  0
  9 28  1  0  0  0  0
  9 29  1  0  0  0  0
 10 13  1  0  0  0  0
 10 30  1  0  0  0  0
 10 31  1  0  0  0  0
 11 32  1  0  0  0  0
 11 33  1  0  0  0  0
 12 14  2  0  0  0  0
 12 15  1  0  0  0  0
 13 14  1  0  0  0  0
 13 34  1  0  0  0  0
 13 35  1  0  0  0  0
 14 36  1  0  0  0  0
 15 37  1  0  0  0  0
 15 38  1  0  0  0  0
 15 39  1  0  0  0  0
M  END
>  <DRUGBANK_ID>
DB16854

>  <COMMON_NAME>
Caryophyllene

>  <CAS_NUMBER>
87-44-5

>  <UNII>
NRY8I0KNIR

>  <SYNONYMS>
Beta-Caryophyllene; Î²-Caryophyllene

$$$$
