
 OpenBabel10282417072D

 43 42  0  0  0  0  0  0  0  0999 V2000
   -0.5001    1.3613    0.0000 C   0  0  0  0  0  0  0  0  0  0  0  0
   -0.5001    0.5363    0.0000 C   0  0  0  0  0  0  0  0  0  0  0  0
    0.2143    0.1237    0.0000 C   0  0  0  0  0  0  0  0  0  0  0  0
    0.2143   -0.7013    0.0000 C   0  0  0  0  0  0  0  0  0  0  0  0
    0.9288   -1.1138    0.0000 O   0  0  0  0  0  0  0  0  0  0  0  0
   -0.5001   -1.1137    0.0000 C   0  0  0  0  0  0  0  0  0  0  0  0
   -1.2146   -0.7012    0.0000 C   0  0  0  0  0  0  0  0  0  0  0  0
   -1.2146    0.1238    0.0000 O   0  0  0  0  0  0  0  0  0  0  0  0
    0.9288    0.5362    0.0000 O   0  5  0  0  0  0  0  0  0  0  0  0
    4.2435    1.4667    0.0000 C   0  0  0  0  0  0  0  0  0  0  0  0
    4.2435    0.6417    0.0000 C   0  0  0  0  0  0  0  0  0  0  0  0
    4.9579    0.2292    0.0000 C   0  0  0  0  0  0  0  0  0  0  0  0
    4.9579   -0.5958    0.0000 C   0  0  0  0  0  0  0  0  0  0  0  0
    5.6724   -1.0083    0.0000 O   0  0  0  0  0  0  0  0  0  0  0  0
    4.2435   -1.0083    0.0000 C   0  0  0  0  0  0  0  0  0  0  0  0
    3.5290   -0.5958    0.0000 C   0  0  0  0  0  0  0  0  0  0  0  0
    3.5290    0.2292    0.0000 O   0  0  0  0  0  0  0  0  0  0  0  0
    5.6724    0.6417    0.0000 O   0  5  0  0  0  0  0  0  0  0  0  0
   -0.3175   -2.7638    0.0000 C   0  0  0  0  0  0  0  0  0  0  0  0
   -0.3175   -3.5888    0.0000 C   0  0  0  0  0  0  0  0  0  0  0  0
    0.3969   -4.0013    0.0000 C   0  0  0  0  0  0  0  0  0  0  0  0
    0.3969   -4.8263    0.0000 C   0  0  0  0  0  0  0  0  0  0  0  0
    1.1114   -5.2388    0.0000 O   0  0  0  0  0  0  0  0  0  0  0  0
   -0.3175   -5.2388    0.0000 C   0  0  0  0  0  0  0  0  0  0  0  0
   -1.0320   -4.8263    0.0000 C   0  0  0  0  0  0  0  0  0  0  0  0
   -1.0320   -4.0013    0.0000 O   0  0  0  0  0  0  0  0  0  0  0  0
    1.1114   -3.5888    0.0000 O   0  5  0  0  0  0  0  0  0  0  0  0
    1.6433    0.9487    0.0000 Ga  0  1  0  0  0  0  0  0  0  0  0  0
    0.4265    1.8963    0.0000 H   0  0  0  0  0  0  0  0  0  0  0  0
   -1.4267    1.8963    0.0000 H   0  0  0  0  0  0  0  0  0  0  0  0
   -0.5001    2.4313    0.0000 H   0  0  0  0  0  0  0  0  0  0  0  0
   -0.5001   -2.1457    0.0000 H   0  0  0  0  0  0  0  0  0  0  0  0
   -2.1083   -1.2172    0.0000 H   0  0  0  0  0  0  0  0  0  0  0  0
    5.1701    2.0017    0.0000 H   0  0  0  0  0  0  0  0  0  0  0  0
    3.3169    2.0017    0.0000 H   0  0  0  0  0  0  0  0  0  0  0  0
    4.2435    2.5367    0.0000 H   0  0  0  0  0  0  0  0  0  0  0  0
    4.2435   -2.0403    0.0000 H   0  0  0  0  0  0  0  0  0  0  0  0
    2.6353   -1.1118    0.0000 H   0  0  0  0  0  0  0  0  0  0  0  0
    0.6091   -2.2288    0.0000 H   0  0  0  0  0  0  0  0  0  0  0  0
   -1.2441   -2.2288    0.0000 H   0  0  0  0  0  0  0  0  0  0  0  0
   -0.3175   -1.6938    0.0000 H   0  0  0  0  0  0  0  0  0  0  0  0
   -0.3175   -6.2708    0.0000 H   0  0  0  0  0  0  0  0  0  0  0  0
   -1.9257   -5.3423    0.0000 H   0  0  0  0  0  0  0  0  0  0  0  0
  1  2  1  0  0  0  0
  1 29  1  0  0  0  0
  1 30  1  0  0  0  0
  1 31  1  0  0  0  0
  2  3  2  0  0  0  0
  2  8  1  0  0  0  0
  3  4  1  0  0  0  0
  3  9  1  0  0  0  0
  4  5  2  0  0  0  0
  4  6  1  0  0  0  0
  6  7  2  0  0  0  0
  6 32  1  0  0  0  0
  7  8  1  0  0  0  0
  7 33  1  0  0  0  0
 10 11  1  0  0  0  0
 10 34  1  0  0  0  0
 10 35  1  0  0  0  0
 10 36  1  0  0  0  0
 11 12  2  0  0  0  0
 11 17  1  0  0  0  0
 12 13  1  0  0  0  0
 12 18  1  0  0  0  0
 13 14  2  0  0  0  0
 13 15  1  0  0  0  0
 15 16  2  0  0  0  0
 15 37  1  0  0  0  0
 16 17  1  0  0  0  0
 16 38  1  0  0  0  0
 19 20  1  0  0  0  0
 19 39  1  0  0  0  0
 19 40  1  0  0  0  0
 19 41  1  0  0  0  0
 20 21  2  0  0  0  0
 20 26  1  0  0  0  0
 21 22  1  0  0  0  0
 21 27  1  0  0  0  0
 22 23  2  0  0  0  0
 22 24  1  0  0  0  0
 24 25  2  0  0  0  0
 24 42  1  0  0  0  0
 25 26  1  0  0  0  0
 25 43  1  0  0  0  0
M  CHG  4   9  -1  18  -1  27  -1  28   3
M  END
>  <DRUGBANK_ID>
DB05420

>  <COMMON_NAME>
Gallium maltolate

>  <CAS_NUMBER>
108560-70-9

>  <UNII>
17LEI49C2G

$$$$
