
 OpenBabel10282417072D

 41 43  0  0  0  0  0  0  0  0999 V2000
    1.4893    0.6203    0.0000 C   0  0  2  0  0  0  0  0  0  0  0  0
    1.4893   -0.2047    0.0000 N   0  0  0  0  0  0  0  0  0  0  0  0
    2.2039   -0.6173    0.0000 C   0  0  0  0  0  0  0  0  0  0  0  0
    2.9185   -0.2047    0.0000 C   0  0  0  0  0  0  0  0  0  0  0  0
    2.9185    0.6203    0.0000 C   0  0  0  0  0  0  0  0  0  0  0  0
    2.2039    1.0328    0.0000 S   0  0  0  0  0  0  0  0  0  0  0  0
    0.6642    0.6203    0.0000 C   0  0  1  0  0  0  0  0  0  0  0  0
    0.6642   -0.2047    0.0000 C   0  0  0  0  0  0  0  0  0  0  0  0
   -0.0503    1.0328    0.0000 N   0  0  0  0  0  0  0  0  0  0  0  0
   -0.7650    0.6203    0.0000 C   0  0  0  0  0  0  0  0  0  0  0  0
   -0.7650   -0.2047    0.0000 O   0  0  0  0  0  0  0  0  0  0  0  0
   -0.0503   -0.6173    0.0000 O   0  0  0  0  0  0  0  0  0  0  0  0
   -1.4796    1.0328    0.0000 C   0  0  1  0  0  0  0  0  0  0  0  0
    3.6329   -0.6175    0.0000 C   0  0  0  0  0  0  0  0  0  0  0  0
    2.2039   -1.4423    0.0000 C   0  0  0  0  0  0  0  0  0  0  0  0
    1.4794   -1.8606    0.0000 O   0  0  0  0  0  0  0  0  0  0  0  0
    2.9085   -1.8491    0.0000 O   0  0  0  0  0  0  0  0  0  0  0  0
   -2.2056    0.6134    0.0000 C   0  0  0  0  0  0  0  0  0  0  0  0
   -2.9193    1.0254    0.0000 C   0  0  0  0  0  0  0  0  0  0  0  0
   -3.6329    0.6134    0.0000 C   0  0  0  0  0  0  0  0  0  0  0  0
   -3.6329   -0.2106    0.0000 C   0  0  0  0  0  0  0  0  0  0  0  0
   -2.9193   -0.6227    0.0000 C   0  0  0  0  0  0  0  0  0  0  0  0
   -2.2056   -0.2106    0.0000 C   0  0  0  0  0  0  0  0  0  0  0  0
   -1.4796    1.8606    0.0000 N   0  0  0  0  0  0  0  0  0  0  0  0
    1.4893    1.4463    0.0000 H   0  0  0  0  0  0  0  0  0  0  0  0
    3.8451    1.1553    0.0000 H   0  0  0  0  0  0  0  0  0  0  0  0
    2.9184    1.6903    0.0000 H   0  0  0  0  0  0  0  0  0  0  0  0
    0.9411    1.6538    0.0000 H   0  0  0  0  0  0  0  0  0  0  0  0
   -0.0502    2.0173    0.0000 H   0  0  0  0  0  0  0  0  0  0  0  0
   -0.5530    1.5678    0.0000 H   0  0  0  0  0  0  0  0  0  0  0  0
    3.6325   -1.6875    0.0000 H   0  0  0  0  0  0  0  0  0  0  0  0
    4.5597   -0.0828    0.0000 H   0  0  0  0  0  0  0  0  0  0  0  0
    4.5594   -1.1528    0.0000 H   0  0  0  0  0  0  0  0  0  0  0  0
    2.9085   -2.7861    0.0000 H   0  0  0  0  0  0  0  0  0  0  0  0
   -2.9193    2.0574    0.0000 H   0  0  0  0  0  0  0  0  0  0  0  0
   -4.5266    1.1294    0.0000 H   0  0  0  0  0  0  0  0  0  0  0  0
   -4.5267   -0.7266    0.0000 H   0  0  0  0  0  0  0  0  0  0  0  0
   -2.9193   -1.6547    0.0000 H   0  0  0  0  0  0  0  0  0  0  0  0
   -1.3118   -0.7266    0.0000 H   0  0  0  0  0  0  0  0  0  0  0  0
   -0.5963    2.3706    0.0000 H   0  0  0  0  0  0  0  0  0  0  0  0
   -2.3629    2.3706    0.0000 H   0  0  0  0  0  0  0  0  0  0  0  0
  1  2  1  0  0  0  0
  1  6  1  0  0  0  0
  1  7  1  0  0  0  0
  1 25  1  6  0  0  0
  2  3  1  0  0  0  0
  2  8  1  0  0  0  0
  3  4  2  0  0  0  0
  3 15  1  0  0  0  0
  4  5  1  0  0  0  0
  4 14  1  0  0  0  0
  5  6  1  0  0  0  0
  5 26  1  0  0  0  0
  5 27  1  0  0  0  0
  7  8  1  0  0  0  0
  7  9  1  0  0  0  0
  7 28  1  6  0  0  0
  8 12  2  0  0  0  0
  9 10  1  0  0  0  0
  9 29  1  0  0  0  0
 10 11  2  0  0  0  0
 10 13  1  0  0  0  0
 13 18  1  0  0  0  0
 13 24  1  0  0  0  0
 13 30  1  6  0  0  0
 14 31  1  0  0  0  0
 14 32  1  0  0  0  0
 14 33  1  0  0  0  0
 15 16  2  0  0  0  0
 15 17  1  0  0  0  0
 17 34  1  0  0  0  0
 18 19  2  0  0  0  0
 18 23  1  0  0  0  0
 19 20  1  0  0  0  0
 19 35  1  0  0  0  0
 20 21  2  0  0  0  0
 20 36  1  0  0  0  0
 21 22  1  0  0  0  0
 21 37  1  0  0  0  0
 22 23  2  0  0  0  0
 22 38  1  0  0  0  0
 23 39  1  0  0  0  0
 24 40  1  0  0  0  0
 24 41  1  0  0  0  0
M  END
>  <DRUGBANK_ID>
DB00567

>  <SECONDARY_ACCESSION_NUMBERS>
APRD00250

>  <COMMON_NAME>
Cephalexin

>  <CAS_NUMBER>
15686-71-2

>  <UNII>
5SFF1W6677

>  <SYNONYMS>
(6R,7R)-7-{[(2R)-2-amino-2-phenylacetyl]amino}-3-methyl-8-oxo-5-thia-1-azabicyclo[4.2.0]oct-2-ene-2-carboxylic acid; 7-(D-alpha-Aminophenylacetamido)desacetoxycephalosporanic acid; 7-beta-(D-alpha-Amino-alpha-phenylacetylamino)-3-methyl-3-cephem-4-carboxylic acid; Anhydrous cefalexin; Anhydrous cephalexin; Cefalexin; Cefalexin anhydrous; Cefalexina; CÃ©falexine; Cefalexinum; Cephalexin anhydrous

$$$$
