
 OpenBabel10282417072D

 74 77  0  0  0  0  0  0  0  0999 V2000
   -5.0013    3.7125    0.0000 C   0  0  0  0  0  0  0  0  0  0  0  0
   -5.7158    4.1250    0.0000 C   0  0  0  0  0  0  0  0  0  0  0  0
   -6.4302    3.7125    0.0000 C   0  0  0  0  0  0  0  0  0  0  0  0
   -7.1447    4.1250    0.0000 C   0  0  0  0  0  0  0  0  0  0  0  0
   -7.8592    3.7125    0.0000 N   0  0  0  0  0  0  0  0  0  0  0  0
   -7.1447    4.9500    0.0000 C   0  0  0  0  0  0  0  0  0  0  0  0
   -7.8592    5.3625    0.0000 C   0  0  0  0  0  0  0  0  0  0  0  0
   -7.8592    6.1875    0.0000 C   0  0  0  0  0  0  0  0  0  0  0  0
   -7.1447    6.6000    0.0000 C   0  0  0  0  0  0  0  0  0  0  0  0
   -6.4302    6.1875    0.0000 C   0  0  0  0  0  0  0  0  0  0  0  0
   -6.4302    5.3625    0.0000 C   0  0  0  0  0  0  0  0  0  0  0  0
   -5.7158    4.9500    0.0000 N   0  3  0  0  0  0  0  0  0  0  0  0
   -5.0013    5.3625    0.0000 C   0  0  0  0  0  0  0  0  0  0  0  0
   -4.2868    4.9500    0.0000 C   0  0  0  0  0  0  0  0  0  0  0  0
   -3.5724    5.3625    0.0000 C   0  0  0  0  0  0  0  0  0  0  0  0
   -2.8579    4.9500    0.0000 C   0  0  0  0  0  0  0  0  0  0  0  0
   -2.1434    5.3625    0.0000 C   0  0  0  0  0  0  0  0  0  0  0  0
   -1.4289    4.9500    0.0000 C   0  0  0  0  0  0  0  0  0  0  0  0
   -0.7145    5.3625    0.0000 C   0  0  0  0  0  0  0  0  0  0  0  0
    0.0000    4.9500    0.0000 C   0  0  0  0  0  0  0  0  0  0  0  0
    0.7145    5.3625    0.0000 C   0  0  0  0  0  0  0  0  0  0  0  0
    1.4289    4.9500    0.0000 C   0  0  0  0  0  0  0  0  0  0  0  0
    2.1434    5.3625    0.0000 N   0  3  0  0  0  0  0  0  0  0  0  0
    2.8579    4.9500    0.0000 C   0  0  0  0  0  0  0  0  0  0  0  0
    2.8579    4.1250    0.0000 C   0  0  0  0  0  0  0  0  0  0  0  0
    3.5724    5.3625    0.0000 C   0  0  0  0  0  0  0  0  0  0  0  0
    3.5724    6.1875    0.0000 C   0  0  0  0  0  0  0  0  0  0  0  0
    4.2868    6.6000    0.0000 N   0  0  0  0  0  0  0  0  0  0  0  0
    2.8579    6.6000    0.0000 C   0  0  0  0  0  0  0  0  0  0  0  0
    2.1434    6.1875    0.0000 C   0  0  0  0  0  0  0  0  0  0  0  0
    1.4289    6.6000    0.0000 C   0  0  0  0  0  0  0  0  0  0  0  0
    1.4289    7.4250    0.0000 C   0  0  0  0  0  0  0  0  0  0  0  0
    2.1434    7.8375    0.0000 C   0  0  0  0  0  0  0  0  0  0  0  0
    2.8579    7.4250    0.0000 C   0  0  0  0  0  0  0  0  0  0  0  0
   -5.0013    2.6425    0.0000 H   0  0  0  0  0  0  0  0  0  0  0  0
   -4.0747    4.2475    0.0000 H   0  0  0  0  0  0  0  0  0  0  0  0
   -4.0746    3.1775    0.0000 H   0  0  0  0  0  0  0  0  0  0  0  0
   -6.4302    2.6805    0.0000 H   0  0  0  0  0  0  0  0  0  0  0  0
   -8.7118    4.2048    0.0000 H   0  0  0  0  0  0  0  0  0  0  0  0
   -7.8592    2.7280    0.0000 H   0  0  0  0  0  0  0  0  0  0  0  0
   -8.7529    4.8465    0.0000 H   0  0  0  0  0  0  0  0  0  0  0  0
   -8.7529    6.7035    0.0000 H   0  0  0  0  0  0  0  0  0  0  0  0
   -7.1447    7.6320    0.0000 H   0  0  0  0  0  0  0  0  0  0  0  0
   -5.5365    6.7035    0.0000 H   0  0  0  0  0  0  0  0  0  0  0  0
   -5.0013    6.4325    0.0000 H   0  0  0  0  0  0  0  0  0  0  0  0
   -4.0747    5.8975    0.0000 H   0  0  0  0  0  0  0  0  0  0  0  0
   -4.2868    3.8800    0.0000 H   0  0  0  0  0  0  0  0  0  0  0  0
   -3.3601    4.4150    0.0000 H   0  0  0  0  0  0  0  0  0  0  0  0
   -3.5724    6.4325    0.0000 H   0  0  0  0  0  0  0  0  0  0  0  0
   -2.6458    5.8975    0.0000 H   0  0  0  0  0  0  0  0  0  0  0  0
   -2.8579    3.8800    0.0000 H   0  0  0  0  0  0  0  0  0  0  0  0
   -1.9313    4.4150    0.0000 H   0  0  0  0  0  0  0  0  0  0  0  0
   -2.1434    6.4325    0.0000 H   0  0  0  0  0  0  0  0  0  0  0  0
   -1.2168    5.8975    0.0000 H   0  0  0  0  0  0  0  0  0  0  0  0
   -1.4289    3.8800    0.0000 H   0  0  0  0  0  0  0  0  0  0  0  0
   -0.5022    4.4150    0.0000 H   0  0  0  0  0  0  0  0  0  0  0  0
   -0.7145    6.4325    0.0000 H   0  0  0  0  0  0  0  0  0  0  0  0
    0.2121    5.8975    0.0000 H   0  0  0  0  0  0  0  0  0  0  0  0
    0.0000    3.8800    0.0000 H   0  0  0  0  0  0  0  0  0  0  0  0
    0.9266    4.4150    0.0000 H   0  0  0  0  0  0  0  0  0  0  0  0
    0.7145    6.4325    0.0000 H   0  0  0  0  0  0  0  0  0  0  0  0
    1.6412    5.8975    0.0000 H   0  0  0  0  0  0  0  0  0  0  0  0
    1.4289    3.8800    0.0000 H   0  0  0  0  0  0  0  0  0  0  0  0
    2.3555    4.4150    0.0000 H   0  0  0  0  0  0  0  0  0  0  0  0
    1.9313    3.5900    0.0000 H   0  0  0  0  0  0  0  0  0  0  0  0
    3.7845    3.5900    0.0000 H   0  0  0  0  0  0  0  0  0  0  0  0
    2.8579    3.0550    0.0000 H   0  0  0  0  0  0  0  0  0  0  0  0
    4.4661    4.8465    0.0000 H   0  0  0  0  0  0  0  0  0  0  0  0
    5.1394    6.1078    0.0000 H   0  0  0  0  0  0  0  0  0  0  0  0
    4.2868    7.5845    0.0000 H   0  0  0  0  0  0  0  0  0  0  0  0
    0.5352    6.0840    0.0000 H   0  0  0  0  0  0  0  0  0  0  0  0
    0.5352    7.9410    0.0000 H   0  0  0  0  0  0  0  0  0  0  0  0
    2.1434    8.8695    0.0000 H   0  0  0  0  0  0  0  0  0  0  0  0
    3.7516    7.9410    0.0000 H   0  0  0  0  0  0  0  0  0  0  0  0
  1  2  1  0  0  0  0
  1 35  1  0  0  0  0
  1 36  1  0  0  0  0
  1 37  1  0  0  0  0
  2  3  2  0  0  0  0
  2 12  1  0  0  0  0
  3  4  1  0  0  0  0
  3 38  1  0  0  0  0
  4  5  1  0  0  0  0
  4  6  2  0  0  0  0
  5 39  1  0  0  0  0
  5 40  1  0  0  0  0
  6  7  1  0  0  0  0
  6 11  1  0  0  0  0
  7  8  2  0  0  0  0
  7 41  1  0  0  0  0
  8  9  1  0  0  0  0
  8 42  1  0  0  0  0
  9 10  2  0  0  0  0
  9 43  1  0  0  0  0
 10 11  1  0  0  0  0
 10 44  1  0  0  0  0
 11 12  2  0  0  0  0
 12 13  1  0  0  0  0
 13 14  1  0  0  0  0
 13 45  1  0  0  0  0
 13 46  1  0  0  0  0
 14 15  1  0  0  0  0
 14 47  1  0  0  0  0
 14 48  1  0  0  0  0
 15 16  1  0  0  0  0
 15 49  1  0  0  0  0
 15 50  1  0  0  0  0
 16 17  1  0  0  0  0
 16 51  1  0  0  0  0
 16 52  1  0  0  0  0
 17 18  1  0  0  0  0
 17 53  1  0  0  0  0
 17 54  1  0  0  0  0
 18 19  1  0  0  0  0
 18 55  1  0  0  0  0
 18 56  1  0  0  0  0
 19 20  1  0  0  0  0
 19 57  1  0  0  0  0
 19 58  1  0  0  0  0
 20 21  1  0  0  0  0
 20 59  1  0  0  0  0
 20 60  1  0  0  0  0
 21 22  1  0  0  0  0
 21 61  1  0  0  0  0
 21 62  1  0  0  0  0
 22 23  1  0  0  0  0
 22 63  1  0  0  0  0
 22 64  1  0  0  0  0
 23 24  2  0  0  0  0
 23 30  1  0  0  0  0
 24 25  1  0  0  0  0
 24 26  1  0  0  0  0
 25 65  1  0  0  0  0
 25 66  1  0  0  0  0
 25 67  1  0  0  0  0
 26 27  2  0  0  0  0
 26 68  1  0  0  0  0
 27 28  1  0  0  0  0
 27 29  1  0  0  0  0
 28 69  1  0  0  0  0
 28 70  1  0  0  0  0
 29 30  2  0  0  0  0
 29 34  1  0  0  0  0
 30 31  1  0  0  0  0
 31 32  2  0  0  0  0
 31 71  1  0  0  0  0
 32 33  1  0  0  0  0
 32 72  1  0  0  0  0
 33 34  2  0  0  0  0
 33 73  1  0  0  0  0
 34 74  1  0  0  0  0
M  CHG  2  12   1  23   1
M  END
>  <DRUGBANK_ID>
DB04209

>  <SECONDARY_ACCESSION_NUMBERS>
EXPT01162; DB11615

>  <COMMON_NAME>
Dequalinium

>  <CAS_NUMBER>
6707-58-0

>  <UNII>
E7QC7V26B8

>  <SYNONYMS>
1,1'-(1,10-Decanediyl)bis(4-amino-2-methylquinolinium) dichloride; 1,1'-Decamethylenebis(4-aminoquinaldinium chloride); Decamethylenebis(4-aminoquinaldinium chloride)

$$$$
