AO1
 OpenBabel10282417072D

 50 51  0  0  0  0  0  0  0  0999 V2000
   -5.0064   -0.4218    0.0000 C   0  0  0  0  0  0  0  0  0  0  0  0
   -4.2920   -0.0093    0.0000 C   0  0  0  0  0  0  0  0  0  0  0  0
   -3.5775   -0.4218    0.0000 S   0  0  0  0  0  0  0  0  0  0  0  0
   -2.8630   -0.0093    0.0000 C   0  0  0  0  0  0  0  0  0  0  0  0
   -2.1486   -0.4218    0.0000 C   0  0  0  0  0  0  0  0  0  0  0  0
   -1.4341   -0.0093    0.0000 C   0  0  1  0  0  0  0  0  0  0  0  0
   -0.7196   -0.4218    0.0000 C   0  0  1  0  0  0  0  0  0  0  0  0
   -0.0052   -0.0093    0.0000 C   0  0  0  0  0  0  0  0  0  0  0  0
    0.7093   -0.4218    0.0000 N   0  0  0  0  0  0  0  0  0  0  0  0
    1.4238   -0.0093    0.0000 C   0  0  2  0  0  0  0  0  0  0  0  0
    2.1383   -0.4218    0.0000 C   0  0  0  0  0  0  0  0  0  0  0  0
   -0.0052    0.8157    0.0000 O   0  0  0  0  0  0  0  0  0  0  0  0
    1.4238    0.8157    0.0000 C   0  0  0  0  0  0  0  0  0  0  0  0
    2.1383   -1.2468    0.0000 C   0  0  0  0  0  0  0  0  0  0  0  0
    2.8527   -1.6593    0.0000 C   0  0  0  0  0  0  0  0  0  0  0  0
    3.5672   -1.2468    0.0000 C   0  0  0  0  0  0  0  0  0  0  0  0
    3.5672   -0.4218    0.0000 C   0  0  0  0  0  0  0  0  0  0  0  0
    2.8527   -0.0093    0.0000 C   0  0  0  0  0  0  0  0  0  0  0  0
    4.2817   -0.0093    0.0000 C   0  0  0  0  0  0  0  0  0  0  0  0
    4.2817    0.8157    0.0000 C   0  0  0  0  0  0  0  0  0  0  0  0
    3.5672    1.2282    0.0000 C   0  0  0  0  0  0  0  0  0  0  0  0
    2.8527    0.8157    0.0000 C   0  0  0  0  0  0  0  0  0  0  0  0
   -0.7196   -1.2468    0.0000 O   0  0  0  0  0  0  0  0  0  0  0  0
   -1.4341    0.8157    0.0000 N   0  0  0  0  0  0  0  0  0  0  0  0
   -1.4341   -0.5933    0.0000 H   0  0  0  0  0  0  0  0  0  0  0  0
   -0.7196    0.1621    0.0000 H   0  0  0  0  0  0  0  0  0  0  0  0
    1.4238   -0.5933    0.0000 H   0  0  0  0  0  0  0  0  0  0  0  0
   -5.9331    0.1132    0.0000 H   0  0  0  0  0  0  0  0  0  0  0  0
   -5.0064   -1.4918    0.0000 H   0  0  0  0  0  0  0  0  0  0  0  0
   -5.9330   -0.9568    0.0000 H   0  0  0  0  0  0  0  0  0  0  0  0
   -4.2920    1.0607    0.0000 H   0  0  0  0  0  0  0  0  0  0  0  0
   -3.3654    0.5257    0.0000 H   0  0  0  0  0  0  0  0  0  0  0  0
   -2.8630    1.0607    0.0000 H   0  0  0  0  0  0  0  0  0  0  0  0
   -1.9363    0.5257    0.0000 H   0  0  0  0  0  0  0  0  0  0  0  0
   -2.1486   -1.4918    0.0000 H   0  0  0  0  0  0  0  0  0  0  0  0
   -1.2220   -0.9568    0.0000 H   0  0  0  0  0  0  0  0  0  0  0  0
    0.7093   -1.4063    0.0000 H   0  0  0  0  0  0  0  0  0  0  0  0
    2.3504    1.3507    0.0000 H   0  0  0  0  0  0  0  0  0  0  0  0
    0.4972    1.3507    0.0000 H   0  0  0  0  0  0  0  0  0  0  0  0
    1.4238    1.8857    0.0000 H   0  0  0  0  0  0  0  0  0  0  0  0
    1.2446   -1.7628    0.0000 H   0  0  0  0  0  0  0  0  0  0  0  0
    2.8527   -2.6913    0.0000 H   0  0  0  0  0  0  0  0  0  0  0  0
    4.4609   -1.7628    0.0000 H   0  0  0  0  0  0  0  0  0  0  0  0
    5.1754   -0.5253    0.0000 H   0  0  0  0  0  0  0  0  0  0  0  0
    5.1754    1.3317    0.0000 H   0  0  0  0  0  0  0  0  0  0  0  0
    3.5672    2.2602    0.0000 H   0  0  0  0  0  0  0  0  0  0  0  0
    1.9590    1.3317    0.0000 H   0  0  0  0  0  0  0  0  0  0  0  0
   -1.5596   -1.7318    0.0000 H   0  0  0  0  0  0  0  0  0  0  0  0
   -0.5508    1.3257    0.0000 H   0  0  0  0  0  0  0  0  0  0  0  0
   -2.3174    1.3257    0.0000 H   0  0  0  0  0  0  0  0  0  0  0  0
  1  2  1  0  0  0  0
  1 28  1  0  0  0  0
  1 29  1  0  0  0  0
  1 30  1  0  0  0  0
  2  3  1  0  0  0  0
  2 31  1  0  0  0  0
  2 32  1  0  0  0  0
  3  4  1  0  0  0  0
  4  5  1  0  0  0  0
  4 33  1  0  0  0  0
  4 34  1  0  0  0  0
  5  6  1  0  0  0  0
  5 35  1  0  0  0  0
  5 36  1  0  0  0  0
  6  7  1  0  0  0  0
  6 24  1  0  0  0  0
  6 25  1  1  0  0  0
  7  8  1  0  0  0  0
  7 23  1  0  0  0  0
  7 26  1  6  0  0  0
  8  9  1  0  0  0  0
  8 12  2  0  0  0  0
  9 10  1  0  0  0  0
  9 37  1  0  0  0  0
 10 11  1  0  0  0  0
 10 13  1  0  0  0  0
 10 27  1  6  0  0  0
 11 14  1  0  0  0  0
 11 18  2  0  0  0  0
 13 38  1  0  0  0  0
 13 39  1  0  0  0  0
 13 40  1  0  0  0  0
 14 15  2  0  0  0  0
 14 41  1  0  0  0  0
 15 16  1  0  0  0  0
 15 42  1  0  0  0  0
 16 17  2  0  0  0  0
 16 43  1  0  0  0  0
 17 18  1  0  0  0  0
 17 19  1  0  0  0  0
 18 22  1  0  0  0  0
 19 20  2  0  0  0  0
 19 44  1  0  0  0  0
 20 21  1  0  0  0  0
 20 45  1  0  0  0  0
 21 22  2  0  0  0  0
 21 46  1  0  0  0  0
 22 47  1  0  0  0  0
 23 48  1  0  0  0  0
 24 49  1  0  0  0  0
 24 50  1  0  0  0  0
M  END
>  <DRUGBANK_ID>
DB04108

>  <SECONDARY_ACCESSION_NUMBERS>
EXPT00526

>  <COMMON_NAME>
(2s,3r)-3-Amino-2-Hydroxy-5-(Ethylsulfanyl)Pentanoyl-((S)-(-)-(1-Naphthyl)Ethyl)Amide

$$$$
