454
 OpenBabel10282417072D

 39 40  0  0  0  0  0  0  0  0999 V2000
    2.8876    1.0154    0.0000 O   0  0  0  0  0  0  0  0  0  0  0  0
    3.8558    1.8279    0.0000 O   0  0  0  0  0  0  0  0  0  0  0  0
    4.1251   -1.3491    0.0000 N   0  0  0  0  0  0  0  0  0  0  0  0
    4.1251    0.3010    0.0000 C   0  0  0  0  0  0  0  0  0  0  0  0
    4.8396   -0.1115    0.0000 C   0  0  0  0  0  0  0  0  0  0  0  0
    3.4106   -0.1115    0.0000 C   0  0  0  0  0  0  0  0  0  0  0  0
    4.8396   -0.9366    0.0000 C   0  0  0  0  0  0  0  0  0  0  0  0
    3.4106   -0.9366    0.0000 C   0  0  0  0  0  0  0  0  0  0  0  0
    4.7571    0.8313    0.0000 C   0  0  0  0  0  0  0  0  0  0  0  0
    3.7126    1.0154    0.0000 C   0  0  0  0  0  0  0  0  0  0  0  0
    4.1251   -2.1741    0.0000 C   0  0  0  0  0  0  0  0  0  0  0  0
    4.6138    1.6438    0.0000 C   0  0  0  0  0  0  0  0  0  0  0  0
    5.5323    0.5491    0.0000 C   0  0  0  0  0  0  0  0  0  0  0  0
    5.2458    2.1741    0.0000 C   0  0  0  0  0  0  0  0  0  0  0  0
    6.1644    1.0795    0.0000 C   0  0  0  0  0  0  0  0  0  0  0  0
    6.0211    1.8919    0.0000 C   0  0  0  0  0  0  0  0  0  0  0  0
    2.4751    1.7300    0.0000 C   0  0  0  0  0  0  0  0  0  0  0  0
    1.6500    1.7300    0.0000 C   0  0  0  0  0  0  0  0  0  0  0  0
    5.7662    0.4235    0.0000 H   0  0  0  0  0  0  0  0  0  0  0  0
    5.7662   -0.6465    0.0000 H   0  0  0  0  0  0  0  0  0  0  0  0
    2.4840    0.4235    0.0000 H   0  0  0  0  0  0  0  0  0  0  0  0
    2.4840   -0.6465    0.0000 H   0  0  0  0  0  0  0  0  0  0  0  0
    5.7662   -1.4716    0.0000 H   0  0  0  0  0  0  0  0  0  0  0  0
    5.7662   -0.4016    0.0000 H   0  0  0  0  0  0  0  0  0  0  0  0
    2.4840   -1.4716    0.0000 H   0  0  0  0  0  0  0  0  0  0  0  0
    2.4840   -0.4016    0.0000 H   0  0  0  0  0  0  0  0  0  0  0  0
    3.1985   -2.7091    0.0000 H   0  0  0  0  0  0  0  0  0  0  0  0
    5.0517   -2.7091    0.0000 H   0  0  0  0  0  0  0  0  0  0  0  0
    4.1251   -3.2441    0.0000 H   0  0  0  0  0  0  0  0  0  0  0  0
    3.6440    1.9967    0.0000 H   0  0  0  0  0  0  0  0  0  0  0  0
    5.7115   -0.4672    0.0000 H   0  0  0  0  0  0  0  0  0  0  0  0
    5.0666    3.1904    0.0000 H   0  0  0  0  0  0  0  0  0  0  0  0
    7.1342    0.7266    0.0000 H   0  0  0  0  0  0  0  0  0  0  0  0
    6.8116    2.5553    0.0000 H   0  0  0  0  0  0  0  0  0  0  0  0
    3.0101    2.6566    0.0000 H   0  0  0  0  0  0  0  0  0  0  0  0
    1.9401    2.6567    0.0000 H   0  0  0  0  0  0  0  0  0  0  0  0
    1.1150    2.6566    0.0000 H   0  0  0  0  0  0  0  0  0  0  0  0
    1.1150    0.8034    0.0000 H   0  0  0  0  0  0  0  0  0  0  0  0
    0.5800    1.7300    0.0000 H   0  0  0  0  0  0  0  0  0  0  0  0
  1 10  1  0  0  0  0
  1 17  1  0  0  0  0
  2 10  2  0  0  0  0
  3  7  1  0  0  0  0
  3  8  1  0  0  0  0
  3 11  1  0  0  0  0
  4  5  1  0  0  0  0
  4  6  1  0  0  0  0
  4  9  1  0  0  0  0
  4 10  1  0  0  0  0
  5  7  1  0  0  0  0
  5 19  1  0  0  0  0
  5 20  1  0  0  0  0
  6  8  1  0  0  0  0
  6 21  1  0  0  0  0
  6 22  1  0  0  0  0
  7 23  1  0  0  0  0
  7 24  1  0  0  0  0
  8 25  1  0  0  0  0
  8 26  1  0  0  0  0
  9 12  2  0  0  0  0
  9 13  1  0  0  0  0
 11 27  1  0  0  0  0
 11 28  1  0  0  0  0
 11 29  1  0  0  0  0
 12 14  1  0  0  0  0
 12 30  1  0  0  0  0
 13 15  2  0  0  0  0
 13 31  1  0  0  0  0
 14 16  2  0  0  0  0
 14 32  1  0  0  0  0
 15 16  1  0  0  0  0
 15 33  1  0  0  0  0
 16 34  1  0  0  0  0
 17 18  1  0  0  0  0
 17 35  1  0  0  0  0
 17 36  1  0  0  0  0
 18 37  1  0  0  0  0
 18 38  1  0  0  0  0
 18 39  1  0  0  0  0
M  END
>  <DRUGBANK_ID>
DB00454

>  <SECONDARY_ACCESSION_NUMBERS>
APRD00074

>  <COMMON_NAME>
Meperidine

>  <CAS_NUMBER>
57-42-1

>  <UNII>
9E338QE28F

>  <SYNONYMS>
Isonipecaïne; Meperidina; Pethidin; Pethidine; Péthidine; Pethidinum; Petidina; Petydyna

$$$$
