
 OpenBabel10282417072D

106107  0  0  0  0  0  0  0  0999 V2000
   -2.1433   -0.6174    0.0000 C   0  0  0  0  0  0  0  0  0  0  0  0
   -2.8574   -1.0305    0.0000 C   0  0  0  0  0  0  0  0  0  0  0  0
   -3.5715   -0.6174    0.0000 C   0  0  0  0  0  0  0  0  0  0  0  0
   -3.5715    0.2089    0.0000 C   0  0  0  0  0  0  0  0  0  0  0  0
   -2.8574    0.6176    0.0000 C   0  0  0  0  0  0  0  0  0  0  0  0
   -2.1433    0.2089    0.0000 C   0  0  0  0  0  0  0  0  0  0  0  0
   -1.4292    0.6176    0.0000 I   0  0  0  0  0  0  0  0  0  0  0  0
   -2.8574    1.4440    0.0000 C   0  0  0  0  0  0  0  0  0  0  0  0
   -3.5715    1.8572    0.0000 N   0  0  0  0  0  0  0  0  0  0  0  0
   -3.5715    2.6835    0.0000 C   0  0  0  0  0  0  0  0  0  0  0  0
   -4.2856    3.0967    0.0000 C   0  0  3  0  0  0  0  0  0  0  0  0
   -4.2856    3.9184    0.0000 C   0  0  0  0  0  0  0  0  0  0  0  0
   -4.9997    4.3318    0.0000 O   0  0  0  0  0  0  0  0  0  0  0  0
   -4.9997    2.6835    0.0000 O   0  0  0  0  0  0  0  0  0  0  0  0
   -2.1433    1.8572    0.0000 O   0  0  0  0  0  0  0  0  0  0  0  0
   -4.2856    0.6176    0.0000 I   0  0  0  0  0  0  0  0  0  0  0  0
   -4.2856   -1.0305    0.0000 C   0  0  0  0  0  0  0  0  0  0  0  0
   -4.9997   -0.6173    0.0000 O   0  0  0  0  0  0  0  0  0  0  0  0
   -2.8574   -1.8569    0.0000 I   0  0  0  0  0  0  0  0  0  0  0  0
   -1.4292   -1.0305    0.0000 N   0  0  0  0  0  0  0  0  0  0  0  0
   -0.7151   -0.6174    0.0000 C   0  0  0  0  0  0  0  0  0  0  0  0
    0.0033   -1.0305    0.0000 C   0  0  3  0  0  0  0  0  0  0  0  0
    0.7173   -0.6174    0.0000 C   0  0  0  0  0  0  0  0  0  0  0  0
    1.4314   -1.0305    0.0000 N   0  0  0  0  0  0  0  0  0  0  0  0
    2.1456   -0.6174    0.0000 C   0  0  0  0  0  0  0  0  0  0  0  0
    2.1456    0.2089    0.0000 C   0  0  0  0  0  0  0  0  0  0  0  0
    2.8597    0.6176    0.0000 C   0  0  0  0  0  0  0  0  0  0  0  0
    3.5738    0.2089    0.0000 C   0  0  0  0  0  0  0  0  0  0  0  0
    3.5738   -0.6174    0.0000 C   0  0  0  0  0  0  0  0  0  0  0  0
    2.8597   -1.0305    0.0000 C   0  0  0  0  0  0  0  0  0  0  0  0
    2.8597   -1.8569    0.0000 I   0  0  0  0  0  0  0  0  0  0  0  0
    4.2879   -1.0305    0.0000 C   0  0  0  0  0  0  0  0  0  0  0  0
    4.2879    0.6176    0.0000 I   0  0  0  0  0  0  0  0  0  0  0  0
    2.8597    1.4440    0.0000 C   0  0  0  0  0  0  0  0  0  0  0  0
    3.5738    1.8572    0.0000 N   0  0  0  0  0  0  0  0  0  0  0  0
    3.5738    2.6835    0.0000 C   0  0  0  0  0  0  0  0  0  0  0  0
    4.2879    3.0967    0.0000 C   0  0  3  0  0  0  0  0  0  0  0  0
    4.2879    3.9184    0.0000 C   0  0  0  0  0  0  0  0  0  0  0  0
    5.0019    4.3318    0.0000 O   0  0  0  0  0  0  0  0  0  0  0  0
    5.0019    2.6835    0.0000 O   0  0  0  0  0  0  0  0  0  0  0  0
    2.1456    1.8572    0.0000 O   0  0  0  0  0  0  0  0  0  0  0  0
    1.4314    0.6176    0.0000 I   0  0  0  0  0  0  0  0  0  0  0  0
    1.4314   -1.8569    0.0000 C   0  0  0  0  0  0  0  0  0  0  0  0
    0.7173   -2.2657    0.0000 O   0  0  0  0  0  0  0  0  0  0  0  0
    2.1456   -2.2657    0.0000 C   0  0  0  0  0  0  0  0  0  0  0  0
    0.0033   -1.8569    0.0000 O   0  0  0  0  0  0  0  0  0  0  0  0
   -1.4292   -1.8569    0.0000 C   0  0  0  0  0  0  0  0  0  0  0  0
   -0.7151   -2.2657    0.0000 O   0  0  0  0  0  0  0  0  0  0  0  0
   -2.1433   -2.2657    0.0000 C   0  0  0  0  0  0  0  0  0  0  0  0
   -4.2856   -1.8555    0.0000 N   0  0  0  0  0  0  0  0  0  0  0  0
   -5.0001   -2.2681    0.0000 C   0  0  0  0  0  0  0  0  0  0  0  0
   -5.0001   -3.0930    0.0000 C   0  0  3  0  0  0  0  0  0  0  0  0
   -5.7147   -3.5056    0.0000 C   0  0  0  0  0  0  0  0  0  0  0  0
   -4.2857   -3.5056    0.0000 O   0  0  0  0  0  0  0  0  0  0  0  0
   -5.7147   -4.3305    0.0000 O   0  0  0  0  0  0  0  0  0  0  0  0
    4.2872   -1.8555    0.0000 N   0  0  0  0  0  0  0  0  0  0  0  0
    5.0027   -0.6186    0.0000 O   0  0  0  0  0  0  0  0  0  0  0  0
    5.0013   -2.2686    0.0000 C   0  0  0  0  0  0  0  0  0  0  0  0
    5.0006   -3.0936    0.0000 C   0  0  3  0  0  0  0  0  0  0  0  0
    5.7147   -3.5068    0.0000 C   0  0  0  0  0  0  0  0  0  0  0  0
    5.7140   -4.3318    0.0000 O   0  0  0  0  0  0  0  0  0  0  0  0
    4.2858   -3.5056    0.0000 O   0  0  0  0  0  0  0  0  0  0  0  0
   -4.4243    1.3654    0.0000 H   0  0  0  0  0  0  0  0  0  0  0  0
   -2.6446    3.2181    0.0000 H   0  0  0  0  0  0  0  0  0  0  0  0
   -3.5707    3.7535    0.0000 H   0  0  0  0  0  0  0  0  0  0  0  0
   -3.3587    3.6313    0.0000 H   0  0  0  0  0  0  0  0  0  0  0  0
   -3.3586    4.4529    0.0000 H   0  0  0  0  0  0  0  0  0  0  0  0
   -4.2847    4.9884    0.0000 H   0  0  0  0  0  0  0  0  0  0  0  0
   -4.9986    5.3018    0.0000 H   0  0  0  0  0  0  0  0  0  0  0  0
   -5.8402    3.1677    0.0000 H   0  0  0  0  0  0  0  0  0  0  0  0
   -0.7165    0.4526    0.0000 H   0  0  0  0  0  0  0  0  0  0  0  0
    0.2107   -0.0810    0.0000 H   0  0  0  0  0  0  0  0  0  0  0  0
    0.0019    0.0395    0.0000 H   0  0  0  0  0  0  0  0  0  0  0  0
    0.7173    0.4526    0.0000 H   0  0  0  0  0  0  0  0  0  0  0  0
    1.6442   -0.0828    0.0000 H   0  0  0  0  0  0  0  0  0  0  0  0
    4.4266    1.3654    0.0000 H   0  0  0  0  0  0  0  0  0  0  0  0
    2.6469    3.2181    0.0000 H   0  0  0  0  0  0  0  0  0  0  0  0
    3.5730    3.7535    0.0000 H   0  0  0  0  0  0  0  0  0  0  0  0
    3.3610    3.6313    0.0000 H   0  0  0  0  0  0  0  0  0  0  0  0
    3.3609    4.4528    0.0000 H   0  0  0  0  0  0  0  0  0  0  0  0
    4.2869    4.9884    0.0000 H   0  0  0  0  0  0  0  0  0  0  0  0
    5.8425    3.8478    0.0000 H   0  0  0  0  0  0  0  0  0  0  0  0
    5.0009    1.7135    0.0000 H   0  0  0  0  0  0  0  0  0  0  0  0
    2.1496   -3.3357    0.0000 H   0  0  0  0  0  0  0  0  0  0  0  0
    3.0702   -1.7272    0.0000 H   0  0  0  0  0  0  0  0  0  0  0  0
    3.0742   -2.7972    0.0000 H   0  0  0  0  0  0  0  0  0  0  0  0
   -0.8367   -2.3419    0.0000 H   0  0  0  0  0  0  0  0  0  0  0  0
   -3.0680   -1.7273    0.0000 H   0  0  0  0  0  0  0  0  0  0  0  0
   -2.1472   -3.3357    0.0000 H   0  0  0  0  0  0  0  0  0  0  0  0
   -3.0719   -2.7973    0.0000 H   0  0  0  0  0  0  0  0  0  0  0  0
   -3.4330   -2.3477    0.0000 H   0  0  0  0  0  0  0  0  0  0  0  0
   -5.9268   -1.7331    0.0000 H   0  0  0  0  0  0  0  0  0  0  0  0
   -5.9267   -2.8031    0.0000 H   0  0  0  0  0  0  0  0  0  0  0  0
   -5.9268   -2.5580    0.0000 H   0  0  0  0  0  0  0  0  0  0  0  0
   -6.6414   -2.9706    0.0000 H   0  0  0  0  0  0  0  0  0  0  0  0
   -6.6413   -4.0406    0.0000 H   0  0  0  0  0  0  0  0  0  0  0  0
   -4.2858   -4.4756    0.0000 H   0  0  0  0  0  0  0  0  0  0  0  0
   -6.5547   -4.8155    0.0000 H   0  0  0  0  0  0  0  0  0  0  0  0
    3.4342   -2.3470    0.0000 H   0  0  0  0  0  0  0  0  0  0  0  0
    5.9284   -1.7344    0.0000 H   0  0  0  0  0  0  0  0  0  0  0  0
    5.9275   -2.8044    0.0000 H   0  0  0  0  0  0  0  0  0  0  0  0
    5.9277   -2.5594    0.0000 H   0  0  0  0  0  0  0  0  0  0  0  0
    6.6418   -2.9726    0.0000 H   0  0  0  0  0  0  0  0  0  0  0  0
    6.6409   -4.0426    0.0000 H   0  0  0  0  0  0  0  0  0  0  0  0
    4.8735   -4.8161    0.0000 H   0  0  0  0  0  0  0  0  0  0  0  0
    3.4461   -3.0200    0.0000 H   0  0  0  0  0  0  0  0  0  0  0  0
  1  2  1  0  0  0  0
  1  6  2  0  0  0  0
  1 20  1  0  0  0  0
  2  3  2  0  0  0  0
  2 19  1  0  0  0  0
  3  4  1  0  0  0  0
  3 17  1  0  0  0  0
  4 16  1  0  0  0  0
  5  4  2  0  0  0  0
  5  8  1  0  0  0  0
  6  5  1  0  0  0  0
  6  7  1  0  0  0  0
  8  9  1  0  0  0  0
  8 15  2  0  0  0  0
  9 10  1  0  0  0  0
  9 63  1  0  0  0  0
 10 11  1  0  0  0  0
 10 64  1  0  0  0  0
 10 65  1  0  0  0  0
 11 12  1  0  0  0  0
 11 14  1  0  0  0  0
 11 66  1  0  0  0  0
 12 13  1  0  0  0  0
 12 67  1  0  0  0  0
 12 68  1  0  0  0  0
 13 69  1  0  0  0  0
 14 70  1  0  0  0  0
 17 18  2  0  0  0  0
 17 50  1  0  0  0  0
 20 21  1  0  0  0  0
 20 47  1  0  0  0  0
 21 22  1  0  0  0  0
 21 71  1  0  0  0  0
 21 72  1  0  0  0  0
 22 23  1  0  0  0  0
 22 46  1  0  0  0  0
 22 73  1  0  0  0  0
 23 24  1  0  0  0  0
 23 74  1  0  0  0  0
 23 75  1  0  0  0  0
 24 25  1  0  0  0  0
 24 43  1  0  0  0  0
 25 26  1  0  0  0  0
 25 30  2  0  0  0  0
 26 27  2  0  0  0  0
 26 42  1  0  0  0  0
 27 28  1  0  0  0  0
 27 34  1  0  0  0  0
 28 33  1  0  0  0  0
 29 28  2  0  0  0  0
 29 32  1  0  0  0  0
 30 29  1  0  0  0  0
 30 31  1  0  0  0  0
 32 56  1  0  0  0  0
 32 57  2  0  0  0  0
 34 35  1  0  0  0  0
 34 41  2  0  0  0  0
 35 36  1  0  0  0  0
 35 76  1  0  0  0  0
 36 37  1  0  0  0  0
 36 77  1  0  0  0  0
 36 78  1  0  0  0  0
 37 38  1  0  0  0  0
 37 40  1  0  0  0  0
 37 79  1  0  0  0  0
 38 39  1  0  0  0  0
 38 80  1  0  0  0  0
 38 81  1  0  0  0  0
 39 82  1  0  0  0  0
 40 83  1  0  0  0  0
 43 44  2  0  0  0  0
 43 45  1  0  0  0  0
 45 84  1  0  0  0  0
 45 85  1  0  0  0  0
 45 86  1  0  0  0  0
 46 87  1  0  0  0  0
 47 48  2  0  0  0  0
 47 49  1  0  0  0  0
 49 88  1  0  0  0  0
 49 89  1  0  0  0  0
 49 90  1  0  0  0  0
 50 51  1  0  0  0  0
 50 91  1  0  0  0  0
 51 52  1  0  0  0  0
 51 92  1  0  0  0  0
 51 93  1  0  0  0  0
 52 53  1  0  0  0  0
 52 54  1  0  0  0  0
 52 94  1  0  0  0  0
 53 55  1  0  0  0  0
 53 95  1  0  0  0  0
 53 96  1  0  0  0  0
 54 97  1  0  0  0  0
 55 98  1  0  0  0  0
 56 58  1  0  0  0  0
 56 99  1  0  0  0  0
 58 59  1  0  0  0  0
 58100  1  0  0  0  0
 58101  1  0  0  0  0
 59 60  1  0  0  0  0
 59 62  1  0  0  0  0
 59102  1  0  0  0  0
 60 61  1  0  0  0  0
 60103  1  0  0  0  0
 60104  1  0  0  0  0
 61105  1  0  0  0  0
 62106  1  0  0  0  0
M  END
>  <DRUGBANK_ID>
DB01249

>  <COMMON_NAME>
Iodixanol

>  <CAS_NUMBER>
92339-11-2

>  <UNII>
HW8W27HTXX

>  <SYNONYMS>
5,5'-((2-hydroxytrimethylene)bis(acetylimino))bis(N,N'-bis(2,3-dihydroxypropyl)-2,4,6-triiodoisophthalamide); Indixanol; Iodixanol; Iodixanolum

$$$$
