ZYX
 OpenBabel10282417072D

 25 25  0  0  0  0  0  0  0  0999 V2000
    1.9519   -0.2718    0.0000 C   0  0  0  0  0  0  0  0  0  0  0  0
    1.2375    0.1407    0.0000 C   0  0  0  0  0  0  0  0  0  0  0  0
    0.5230   -0.2718    0.0000 C   0  0  0  0  0  0  0  0  0  0  0  0
    0.5230   -1.0968    0.0000 C   0  0  0  0  0  0  0  0  0  0  0  0
    1.2375   -1.5093    0.0000 C   0  0  0  0  0  0  0  0  0  0  0  0
    1.9519   -1.0968    0.0000 C   0  0  0  0  0  0  0  0  0  0  0  0
    2.6664    0.1407    0.0000 S   0  0  0  0  0  0  0  0  0  0  0  0
    3.3809    0.5532    0.0000 O   0  0  0  0  0  0  0  0  0  0  0  0
    2.2539    0.8552    0.0000 O   0  0  0  0  0  0  0  0  0  0  0  0
    3.0789   -0.5737    0.0000 N   0  0  0  0  0  0  0  0  0  0  0  0
   -0.1915   -1.5093    0.0000 C   0  0  0  0  0  0  0  0  0  0  0  0
   -0.9060   -1.0968    0.0000 C   0  0  0  0  0  0  0  0  0  0  0  0
   -1.6204   -1.5093    0.0000 N   0  0  0  0  0  0  0  0  0  0  0  0
    1.2375    1.1727    0.0000 H   0  0  0  0  0  0  0  0  0  0  0  0
   -0.3707    0.2442    0.0000 H   0  0  0  0  0  0  0  0  0  0  0  0
    1.2375   -2.5413    0.0000 H   0  0  0  0  0  0  0  0  0  0  0  0
    2.8456   -1.6128    0.0000 H   0  0  0  0  0  0  0  0  0  0  0  0
    2.5689   -1.4571    0.0000 H   0  0  0  0  0  0  0  0  0  0  0  0
    4.0989   -0.5737    0.0000 H   0  0  0  0  0  0  0  0  0  0  0  0
   -0.1915   -2.5793    0.0000 H   0  0  0  0  0  0  0  0  0  0  0  0
   -1.1181   -2.0443    0.0000 H   0  0  0  0  0  0  0  0  0  0  0  0
   -0.9060   -0.0268    0.0000 H   0  0  0  0  0  0  0  0  0  0  0  0
   -1.8327   -0.5618    0.0000 H   0  0  0  0  0  0  0  0  0  0  0  0
   -2.5038   -0.9993    0.0000 H   0  0  0  0  0  0  0  0  0  0  0  0
   -1.6204   -2.5293    0.0000 H   0  0  0  0  0  0  0  0  0  0  0  0
  1  6  2  0  0  0  0
  1  2  1  0  0  0  0
  1  7  1  0  0  0  0
  2  3  2  0  0  0  0
  2 14  1  0  0  0  0
  3  4  1  0  0  0  0
  3 15  1  0  0  0  0
  4 11  1  0  0  0  0
  4  5  2  0  0  0  0
  5  6  1  0  0  0  0
  5 16  1  0  0  0  0
  6 17  1  0  0  0  0
  7 10  1  0  0  0  0
  7  8  2  0  0  0  0
  7  9  2  0  0  0  0
 10 18  1  0  0  0  0
 10 19  1  0  0  0  0
 11 12  1  0  0  0  0
 11 20  1  0  0  0  0
 11 21  1  0  0  0  0
 12 13  1  0  0  0  0
 12 22  1  0  0  0  0
 12 23  1  0  0  0  0
 13 24  1  0  0  0  0
 13 25  1  0  0  0  0
M  END
>  <DRUGBANK_ID>
DB08782

>  <COMMON_NAME>
4-(2-AMINOETHYL)BENZENESULFONAMIDE

>  <UNII>
WIA59Y34CJ

$$$$
