Thymol
 OpenBabel10282417072D
Marvin  09140623232D
 25 25  0  0  0  0  0  0  0  0999 V2000
   -0.1299   -0.3750    0.0000 C   0  0  0  0  0  0  0  0  0  0  0  0
    0.5846    0.0375    0.0000 C   0  0  0  0  0  0  0  0  0  0  0  0
   -0.8444    0.0375    0.0000 C   0  0  0  0  0  0  0  0  0  0  0  0
   -0.1299   -1.2000    0.0000 C   0  0  0  0  0  0  0  0  0  0  0  0
    0.5846    0.8625    0.0000 C   0  0  0  0  0  0  0  0  0  0  0  0
    1.2990   -0.3750    0.0000 O   0  0  0  0  0  0  0  0  0  0  0  0
   -0.8444    0.8625    0.0000 C   0  0  0  0  0  0  0  0  0  0  0  0
   -0.8444   -1.6125    0.0000 C   0  0  0  0  0  0  0  0  0  0  0  0
    0.5846   -1.6125    0.0000 C   0  0  0  0  0  0  0  0  0  0  0  0
   -0.1299    1.2750    0.0000 C   0  0  0  0  0  0  0  0  0  0  0  0
   -0.1299    2.1000    0.0000 C   0  0  0  0  0  0  0  0  0  0  0  0
   -1.7381   -0.4785    0.0000 H   0  0  0  0  0  0  0  0  0  0  0  0
   -0.1299   -2.2700    0.0000 H   0  0  0  0  0  0  0  0  0  0  0  0
    1.4783    1.3785    0.0000 H   0  0  0  0  0  0  0  0  0  0  0  0
    1.2990   -1.3120    0.0000 H   0  0  0  0  0  0  0  0  0  0  0  0
   -1.7381    1.3785    0.0000 H   0  0  0  0  0  0  0  0  0  0  0  0
   -1.7710   -1.0775    0.0000 H   0  0  0  0  0  0  0  0  0  0  0  0
   -0.8444   -2.6825    0.0000 H   0  0  0  0  0  0  0  0  0  0  0  0
   -1.7711   -2.1475    0.0000 H   0  0  0  0  0  0  0  0  0  0  0  0
    0.5846   -2.6825    0.0000 H   0  0  0  0  0  0  0  0  0  0  0  0
    1.5112   -1.0775    0.0000 H   0  0  0  0  0  0  0  0  0  0  0  0
    1.5113   -2.1475    0.0000 H   0  0  0  0  0  0  0  0  0  0  0  0
    0.7967    2.6350    0.0000 H   0  0  0  0  0  0  0  0  0  0  0  0
   -1.0565    2.6350    0.0000 H   0  0  0  0  0  0  0  0  0  0  0  0
   -0.1299    3.1700    0.0000 H   0  0  0  0  0  0  0  0  0  0  0  0
  1  2  2  0  0  0  0
  1  3  1  0  0  0  0
  1  4  1  0  0  0  0
  2  5  1  0  0  0  0
  2  6  1  0  0  0  0
  3  7  2  0  0  0  0
  3 12  1  0  0  0  0
  4  8  1  0  0  0  0
  4  9  1  0  0  0  0
  4 13  1  0  0  0  0
  5 10  2  0  0  0  0
  5 14  1  0  0  0  0
  6 15  1  0  0  0  0
  7 10  1  0  0  0  0
  7 16  1  0  0  0  0
  8 17  1  0  0  0  0
  8 18  1  0  0  0  0
  8 19  1  0  0  0  0
  9 20  1  0  0  0  0
  9 21  1  0  0  0  0
  9 22  1  0  0  0  0
 10 11  1  0  0  0  0
 11 23  1  0  0  0  0
 11 24  1  0  0  0  0
 11 25  1  0  0  0  0
M  END
>  <DRUGBANK_ID>
DB02513

>  <SECONDARY_ACCESSION_NUMBERS>
EXPT01913

>  <COMMON_NAME>
Thymol

>  <CAS_NUMBER>
89-83-8

>  <UNII>
3J50XA376E

>  <SYNONYMS>
2-isopropyl-5-methylphenol; 5-Methyl-2-(1-Methylethyl)Phenol; IPMP

$$$$
