490
 OpenBabel10282417072D

 59 62  0  0  0  0  0  0  0  0999 V2000
    9.0752   -1.7862    0.0000 O   0  0  0  0  0  0  0  0  0  0  0  0
    9.0752    1.0717    0.0000 O   0  0  0  0  0  0  0  0  0  0  0  0
    9.0752   -0.3572    0.0000 N   0  0  0  0  0  0  0  0  0  0  0  0
    5.7751    1.0717    0.0000 N   0  0  0  0  0  0  0  0  0  0  0  0
    4.1251    1.0717    0.0000 N   0  0  0  0  0  0  0  0  0  0  0  0
    2.8876    0.3572    0.0000 N   0  0  0  0  0  0  0  0  0  0  0  0
    2.8876    1.7862    0.0000 N   0  0  0  0  0  0  0  0  0  0  0  0
   10.7252   -0.3572    0.0000 C   0  0  0  0  0  0  0  0  0  0  0  0
   11.2102   -1.0247    0.0000 C   0  0  0  0  0  0  0  0  0  0  0  0
   11.2102    0.3102    0.0000 C   0  0  0  0  0  0  0  0  0  0  0  0
   11.9948   -0.7697    0.0000 C   0  0  0  0  0  0  0  0  0  0  0  0
   11.9948    0.0553    0.0000 C   0  0  0  0  0  0  0  0  0  0  0  0
   10.3127   -1.0717    0.0000 C   0  0  0  0  0  0  0  0  0  0  0  0
   10.3127    0.3572    0.0000 C   0  0  0  0  0  0  0  0  0  0  0  0
    9.4877   -1.0717    0.0000 C   0  0  0  0  0  0  0  0  0  0  0  0
    9.4877    0.3572    0.0000 C   0  0  0  0  0  0  0  0  0  0  0  0
    8.2502   -0.3572    0.0000 C   0  0  0  0  0  0  0  0  0  0  0  0
    7.8377    0.3572    0.0000 C   0  0  0  0  0  0  0  0  0  0  0  0
    7.0127    0.3572    0.0000 C   0  0  0  0  0  0  0  0  0  0  0  0
    6.6001    1.0717    0.0000 C   0  0  0  0  0  0  0  0  0  0  0  0
    5.3626    0.3572    0.0000 C   0  0  0  0  0  0  0  0  0  0  0  0
    5.3626    1.7862    0.0000 C   0  0  0  0  0  0  0  0  0  0  0  0
    4.5376    0.3572    0.0000 C   0  0  0  0  0  0  0  0  0  0  0  0
    4.5376    1.7862    0.0000 C   0  0  0  0  0  0  0  0  0  0  0  0
    3.3001    1.0717    0.0000 C   0  0  0  0  0  0  0  0  0  0  0  0
    2.0625    0.3572    0.0000 C   0  0  0  0  0  0  0  0  0  0  0  0
    2.0625    1.7862    0.0000 C   0  0  0  0  0  0  0  0  0  0  0  0
    1.6500    1.0717    0.0000 C   0  0  0  0  0  0  0  0  0  0  0  0
   10.8796   -2.0423    0.0000 H   0  0  0  0  0  0  0  0  0  0  0  0
   11.9669   -1.7813    0.0000 H   0  0  0  0  0  0  0  0  0  0  0  0
   10.8796    1.3278    0.0000 H   0  0  0  0  0  0  0  0  0  0  0  0
   11.9668    1.0668    0.0000 H   0  0  0  0  0  0  0  0  0  0  0  0
   12.8605   -1.3986    0.0000 H   0  0  0  0  0  0  0  0  0  0  0  0
   12.9482   -0.2839    0.0000 H   0  0  0  0  0  0  0  0  0  0  0  0
   12.8604    0.6842    0.0000 H   0  0  0  0  0  0  0  0  0  0  0  0
   12.9482   -0.4305    0.0000 H   0  0  0  0  0  0  0  0  0  0  0  0
   10.8477   -1.9983    0.0000 H   0  0  0  0  0  0  0  0  0  0  0  0
    9.7777   -1.9983    0.0000 H   0  0  0  0  0  0  0  0  0  0  0  0
   10.8477    1.2839    0.0000 H   0  0  0  0  0  0  0  0  0  0  0  0
    9.7777    1.2838    0.0000 H   0  0  0  0  0  0  0  0  0  0  0  0
    7.7152   -1.2839    0.0000 H   0  0  0  0  0  0  0  0  0  0  0  0
    7.1802   -0.3572    0.0000 H   0  0  0  0  0  0  0  0  0  0  0  0
    8.3727    1.2839    0.0000 H   0  0  0  0  0  0  0  0  0  0  0  0
    7.3027    1.2838    0.0000 H   0  0  0  0  0  0  0  0  0  0  0  0
    6.4777   -0.5695    0.0000 H   0  0  0  0  0  0  0  0  0  0  0  0
    5.9427    0.3571    0.0000 H   0  0  0  0  0  0  0  0  0  0  0  0
    7.1351    1.9984    0.0000 H   0  0  0  0  0  0  0  0  0  0  0  0
    7.6701    1.0718    0.0000 H   0  0  0  0  0  0  0  0  0  0  0  0
    5.8976   -0.5694    0.0000 H   0  0  0  0  0  0  0  0  0  0  0  0
    4.8276   -0.5694    0.0000 H   0  0  0  0  0  0  0  0  0  0  0  0
    5.8976    2.7128    0.0000 H   0  0  0  0  0  0  0  0  0  0  0  0
    4.8276    2.7128    0.0000 H   0  0  0  0  0  0  0  0  0  0  0  0
    4.0026   -0.5694    0.0000 H   0  0  0  0  0  0  0  0  0  0  0  0
    5.0726   -0.5694    0.0000 H   0  0  0  0  0  0  0  0  0  0  0  0
    4.0026    2.7128    0.0000 H   0  0  0  0  0  0  0  0  0  0  0  0
    5.0726    2.7128    0.0000 H   0  0  0  0  0  0  0  0  0  0  0  0
    1.5465   -0.5365    0.0000 H   0  0  0  0  0  0  0  0  0  0  0  0
    1.5465    2.6799    0.0000 H   0  0  0  0  0  0  0  0  0  0  0  0
    0.6180    1.0717    0.0000 H   0  0  0  0  0  0  0  0  0  0  0  0
  1 15  2  0  0  0  0
  2 16  2  0  0  0  0
  3 15  1  0  0  0  0
  3 16  1  0  0  0  0
  3 17  1  0  0  0  0
  4 20  1  0  0  0  0
  4 21  1  0  0  0  0
  4 22  1  0  0  0  0
  5 23  1  0  0  0  0
  5 24  1  0  0  0  0
  5 25  1  0  0  0  0
  6 25  2  0  0  0  0
  6 26  1  0  0  0  0
  7 25  1  0  0  0  0
  7 27  2  0  0  0  0
  8  9  1  0  0  0  0
  8 10  1  0  0  0  0
  8 13  1  0  0  0  0
  8 14  1  0  0  0  0
  9 11  1  0  0  0  0
  9 29  1  0  0  0  0
  9 30  1  0  0  0  0
 10 12  1  0  0  0  0
 10 31  1  0  0  0  0
 10 32  1  0  0  0  0
 11 12  1  0  0  0  0
 11 33  1  0  0  0  0
 11 34  1  0  0  0  0
 12 35  1  0  0  0  0
 12 36  1  0  0  0  0
 13 15  1  0  0  0  0
 13 37  1  0  0  0  0
 13 38  1  0  0  0  0
 14 16  1  0  0  0  0
 14 39  1  0  0  0  0
 14 40  1  0  0  0  0
 17 18  1  0  0  0  0
 17 41  1  0  0  0  0
 17 42  1  0  0  0  0
 18 19  1  0  0  0  0
 18 43  1  0  0  0  0
 18 44  1  0  0  0  0
 19 20  1  0  0  0  0
 19 45  1  0  0  0  0
 19 46  1  0  0  0  0
 20 47  1  0  0  0  0
 20 48  1  0  0  0  0
 21 23  1  0  0  0  0
 21 49  1  0  0  0  0
 21 50  1  0  0  0  0
 22 24  1  0  0  0  0
 22 51  1  0  0  0  0
 22 52  1  0  0  0  0
 23 53  1  0  0  0  0
 23 54  1  0  0  0  0
 24 55  1  0  0  0  0
 24 56  1  0  0  0  0
 26 28  2  0  0  0  0
 26 57  1  0  0  0  0
 27 28  1  0  0  0  0
 27 58  1  0  0  0  0
 28 59  1  0  0  0  0
M  END
>  <DRUGBANK_ID>
DB00490

>  <SECONDARY_ACCESSION_NUMBERS>
APRD00222

>  <COMMON_NAME>
Buspirone

>  <CAS_NUMBER>
36505-84-7

>  <UNII>
TK65WKS8HL

>  <SYNONYMS>
8-(4-(4-(2-Pyrimidinyl)-1-piperizinyl)butyl)-8-azaspiro(4,5)decane-7,9-dione; Buspiron; Buspirona; Buspirone; Buspironum

$$$$
