
 OpenBabel10282417072D

 66 70  0  0  0  0  0  0  0  0999 V2000
    1.8684    0.0986    0.0000 C   0  0  2  0  0  0  0  0  0  0  0  0
    2.6707    0.3774    0.0000 C   0  0  1  0  0  0  0  0  0  0  0  0
   -0.2638   -1.9264    0.0000 C   0  0  0  0  0  0  0  0  0  0  0  0
    1.8684   -0.6907    0.0000 C   0  0  2  0  0  0  0  0  0  0  0  0
    1.1390   -1.0768    0.0000 C   0  0  1  0  0  0  0  0  0  0  0  0
    0.4525   -0.6907    0.0000 C   0  0  1  0  0  0  0  0  0  0  0  0
   -0.2638   -1.1026    0.0000 C   0  0  1  0  0  0  0  0  0  0  0  0
   -0.9846   -2.3253    0.0000 C   0  0  0  0  0  0  0  0  0  0  0  0
    3.6747    0.9052    0.0000 C   0  0  0  0  0  0  0  0  0  0  0  0
    0.4525   -2.3339    0.0000 C   0  0  0  0  0  0  0  0  0  0  0  0
   -1.7054   -1.9264    0.0000 C   0  0  0  0  0  0  0  0  0  0  0  0
    1.1519    0.5191    0.0000 C   0  0  0  0  0  0  0  0  0  0  0  0
    1.1519   -1.9264    0.0000 C   0  0  0  0  0  0  0  0  0  0  0  0
    2.7222    1.3814    0.0000 O   0  0  0  0  0  0  0  0  0  0  0  0
    0.4396    0.0986    0.0000 C   0  0  0  0  0  0  0  0  0  0  0  0
    2.7222   -0.9224    0.0000 C   0  0  0  0  0  0  0  0  0  0  0  0
    4.4726    1.2913    0.0000 C   0  0  0  0  0  0  0  0  0  0  0  0
   -0.9846   -0.6864    0.0000 C   0  0  0  0  0  0  0  0  0  0  0  0
    1.7955    1.5617    0.0000 C   0  0  0  0  0  0  0  0  0  0  0  0
    3.1426   -0.3303    0.0000 C   0  0  0  0  0  0  0  0  0  0  0  0
   -2.4433   -2.3339    0.0000 O   0  0  0  0  0  0  0  0  0  0  0  0
    1.0747    1.0468    0.0000 O   0  0  0  0  0  0  0  0  0  0  0  0
   -1.7054   -1.1026    0.0000 C   0  0  0  0  0  0  0  0  0  0  0  0
    1.8684    0.8923    0.0000 C   0  0  0  0  0  0  0  0  0  0  0  0
   -3.1598   -1.9006    0.0000 C   0  0  0  0  0  0  0  0  0  0  0  0
    1.6282    2.3339    0.0000 C   0  0  0  0  0  0  0  0  0  0  0  0
   -3.9450   -2.2352    0.0000 C   0  0  0  0  0  0  0  0  0  0  0  0
   -3.2113   -1.0854    0.0000 C   0  0  0  0  0  0  0  0  0  0  0  0
   -4.4726   -1.6046    0.0000 C   0  0  0  0  0  0  0  0  0  0  0  0
   -4.0350   -0.9052    0.0000 C   0  0  0  0  0  0  0  0  0  0  0  0
    2.4089   -1.5274    0.0000 H   0  0  0  0  0  0  0  0  0  0  0  0
    1.1390   -0.2616    0.0000 H   0  0  0  0  0  0  0  0  0  0  0  0
    0.4568   -1.5015    0.0000 H   0  0  0  0  0  0  0  0  0  0  0  0
   -0.2638   -0.2874    0.0000 H   0  0  0  0  0  0  0  0  0  0  0  0
   -0.9846   -3.3573    0.0000 H   0  0  0  0  0  0  0  0  0  0  0  0
    0.4578   -3.3659    0.0000 H   0  0  0  0  0  0  0  0  0  0  0  0
    1.1505    1.5891    0.0000 H   0  0  0  0  0  0  0  0  0  0  0  0
    0.2223    1.0490    0.0000 H   0  0  0  0  0  0  0  0  0  0  0  0
    2.0836   -2.4525    0.0000 H   0  0  0  0  0  0  0  0  0  0  0  0
    2.0719   -1.3800    0.0000 H   0  0  0  0  0  0  0  0  0  0  0  0
   -0.4939    0.6215    0.0000 H   0  0  0  0  0  0  0  0  0  0  0  0
    0.4275    1.1685    0.0000 H   0  0  0  0  0  0  0  0  0  0  0  0
    3.0833   -1.9296    0.0000 H   0  0  0  0  0  0  0  0  0  0  0  0
    3.7822   -1.0681    0.0000 H   0  0  0  0  0  0  0  0  0  0  0  0
    5.3673    1.7243    0.0000 H   0  0  0  0  0  0  0  0  0  0  0  0
   -0.9846    0.3836    0.0000 H   0  0  0  0  0  0  0  0  0  0  0  0
   -1.9113   -0.1514    0.0000 H   0  0  0  0  0  0  0  0  0  0  0  0
    4.2125   -0.3460    0.0000 H   0  0  0  0  0  0  0  0  0  0  0  0
    3.6266   -1.2846    0.0000 H   0  0  0  0  0  0  0  0  0  0  0  0
   -2.6321   -0.5676    0.0000 H   0  0  0  0  0  0  0  0  0  0  0  0
   -1.7054   -0.0326    0.0000 H   0  0  0  0  0  0  0  0  0  0  0  0
    2.7950    1.4273    0.0000 H   0  0  0  0  0  0  0  0  0  0  0  0
    0.9418    1.4273    0.0000 H   0  0  0  0  0  0  0  0  0  0  0  0
    1.8684    1.9623    0.0000 H   0  0  0  0  0  0  0  0  0  0  0  0
   -4.0706   -1.3391    0.0000 H   0  0  0  0  0  0  0  0  0  0  0  0
    2.4206    3.0530    0.0000 H   0  0  0  0  0  0  0  0  0  0  0  0
    0.6093    2.6606    0.0000 H   0  0  0  0  0  0  0  0  0  0  0  0
    1.4016    3.3796    0.0000 H   0  0  0  0  0  0  0  0  0  0  0  0
   -4.1948   -3.2756    0.0000 H   0  0  0  0  0  0  0  0  0  0  0  0
   -4.9867   -2.4797    0.0000 H   0  0  0  0  0  0  0  0  0  0  0  0
   -2.3993   -0.3885    0.0000 H   0  0  0  0  0  0  0  0  0  0  0  0
   -3.4728   -0.0479    0.0000 H   0  0  0  0  0  0  0  0  0  0  0  0
   -5.5401   -1.6782    0.0000 H   0  0  0  0  0  0  0  0  0  0  0  0
   -5.0230   -0.6870    0.0000 H   0  0  0  0  0  0  0  0  0  0  0  0
   -4.4499    0.0811    0.0000 H   0  0  0  0  0  0  0  0  0  0  0  0
   -5.1015   -0.8192    0.0000 H   0  0  0  0  0  0  0  0  0  0  0  0
  1 24  1  1  0  0  0
  2  1  1  0  0  0  0
  2  9  1  6  0  0  0
  2 14  1  0  0  0  0
  3  7  1  0  0  0  0
  4  1  1  0  0  0  0
  4 31  1  6  0  0  0
  5  4  1  0  0  0  0
  5 32  1  1  0  0  0
  5  6  1  0  0  0  0
  6 15  1  0  0  0  0
  6 33  1  6  0  0  0
  7  6  1  0  0  0  0
  7 34  1  1  0  0  0
  8  3  1  0  0  0  0
  8 11  2  0  0  0  0
  8 35  1  0  0  0  0
 10 13  1  0  0  0  0
 10  3  2  0  0  0  0
 10 36  1  0  0  0  0
 11 23  1  0  0  0  0
 12  1  1  0  0  0  0
 12 37  1  0  0  0  0
 12 38  1  0  0  0  0
 13  5  1  0  0  0  0
 13 39  1  0  0  0  0
 13 40  1  0  0  0  0
 15 12  1  0  0  0  0
 15 41  1  0  0  0  0
 15 42  1  0  0  0  0
 16  4  1  0  0  0  0
 16 43  1  0  0  0  0
 16 44  1  0  0  0  0
 17  9  3  0  0  0  0
 17 45  1  0  0  0  0
 18  7  1  0  0  0  0
 18 46  1  0  0  0  0
 18 47  1  0  0  0  0
 19 14  1  0  0  0  0
 20  2  1  0  0  0  0
 20 16  1  0  0  0  0
 20 48  1  0  0  0  0
 20 49  1  0  0  0  0
 21 11  1  0  0  0  0
 22 19  2  0  0  0  0
 23 18  1  0  0  0  0
 23 50  1  0  0  0  0
 23 51  1  0  0  0  0
 24 52  1  0  0  0  0
 24 53  1  0  0  0  0
 24 54  1  0  0  0  0
 25 21  1  0  0  0  0
 25 55  1  0  0  0  0
 26 19  1  0  0  0  0
 26 56  1  0  0  0  0
 26 57  1  0  0  0  0
 26 58  1  0  0  0  0
 27 25  1  0  0  0  0
 27 59  1  0  0  0  0
 27 60  1  0  0  0  0
 28 25  1  0  0  0  0
 28 61  1  0  0  0  0
 28 62  1  0  0  0  0
 29 27  1  0  0  0  0
 29 30  1  0  0  0  0
 29 63  1  0  0  0  0
 29 64  1  0  0  0  0
 30 28  1  0  0  0  0
 30 65  1  0  0  0  0
 30 66  1  0  0  0  0
M  END
>  <DRUGBANK_ID>
DB14679

>  <COMMON_NAME>
Quingestanol acetate

>  <CAS_NUMBER>
3000-39-3

>  <UNII>
M33GGZ63KG

>  <SYNONYMS>
Norethindrone acetate 3-cyclopentyl enol ether; Quingestanol acetate

$$$$
