
 OpenBabel10282417072D

 25 25  0  0  0  0  0  0  0  0999 V2000
    0.3573   -0.4125    0.0000 C   0  0  1  0  0  0  0  0  0  0  0  0
    0.3573   -1.2375    0.0000 O   0  0  0  0  0  0  0  0  0  0  0  0
   -0.3572    0.0000    0.0000 C   0  0  1  0  0  0  0  0  0  0  0  0
   -1.0716   -0.4125    0.0000 O   0  0  0  0  0  0  0  0  0  0  0  0
   -0.3572    0.8250    0.0000 C   0  0  2  0  0  0  0  0  0  0  0  0
    1.0718    0.8250    0.0000 C   0  0  2  0  0  0  0  0  0  0  0  0
    1.7860    1.2374    0.0000 O   0  0  0  0  0  0  0  0  0  0  0  0
    1.7860   -0.4125    0.0000 N   0  0  0  0  0  0  0  0  0  0  0  0
    0.3573    1.2374    0.0000 O   0  0  0  0  0  0  0  0  0  0  0  0
    1.0718    0.0000    0.0000 C   0  0  2  0  0  0  0  0  0  0  0  0
   -1.0716    1.2374    0.0000 C   0  0  0  0  0  0  0  0  0  0  0  0
   -1.7861    0.8250    0.0000 O   0  0  0  0  0  0  0  0  0  0  0  0
   -0.5693   -0.9475    0.0000 H   0  0  0  0  0  0  0  0  0  0  0  0
   -0.4827   -1.7225    0.0000 H   0  0  0  0  0  0  0  0  0  0  0  0
   -1.2839    0.5350    0.0000 H   0  0  0  0  0  0  0  0  0  0  0  0
   -1.9117    0.0725    0.0000 H   0  0  0  0  0  0  0  0  0  0  0  0
   -1.2838    0.2900    0.0000 H   0  0  0  0  0  0  0  0  0  0  0  0
    1.0717    1.8950    0.0000 H   0  0  0  0  0  0  0  0  0  0  0  0
    2.6261    0.7524    0.0000 H   0  0  0  0  0  0  0  0  0  0  0  0
    1.7858   -1.4325    0.0000 H   0  0  0  0  0  0  0  0  0  0  0  0
    2.6694    0.0974    0.0000 H   0  0  0  0  0  0  0  0  0  0  0  0
    1.0717   -1.0700    0.0000 H   0  0  0  0  0  0  0  0  0  0  0  0
   -1.0716    2.3074    0.0000 H   0  0  0  0  0  0  0  0  0  0  0  0
   -1.9982    1.7725    0.0000 H   0  0  0  0  0  0  0  0  0  0  0  0
   -2.6261    1.3101    0.0000 H   0  0  0  0  0  0  0  0  0  0  0  0
  1 10  1  0  0  0  0
  1  2  1  0  0  0  0
  1 13  1  6  0  0  0
  2 14  1  0  0  0  0
  3  1  1  0  0  0  0
  3  4  1  0  0  0  0
  3 15  1  6  0  0  0
  4 16  1  0  0  0  0
  5  3  1  0  0  0  0
  5  9  1  0  0  0  0
  5 11  1  0  0  0  0
  5 17  1  6  0  0  0
  6 10  1  0  0  0  0
  6  7  1  0  0  0  0
  6 18  1  6  0  0  0
  7 19  1  0  0  0  0
  8 20  1  0  0  0  0
  8 21  1  0  0  0  0
  9  6  1  0  0  0  0
 10  8  1  0  0  0  0
 10 22  1  1  0  0  0
 11 12  1  0  0  0  0
 11 23  1  0  0  0  0
 11 24  1  0  0  0  0
 12 25  1  0  0  0  0
M  END
>  <DRUGBANK_ID>
DB02678

>  <SECONDARY_ACCESSION_NUMBERS>
EXPT00074

>  <COMMON_NAME>
beta-D-Galactosamine

>  <CAS_NUMBER>
14196-86-2

>  <UNII>
K8YZM765ZS

>  <SYNONYMS>
2-amino-2-deoxy-beta-D-galactopyranose; 2-amino-2-deoxy-β-D-galactopyranose; 2-deoxy-2-aminogalactose; β-D-galactosamine; β-galactosylamine

$$$$
