
 OpenBabel10282417072D

 25 25  0  0  0  0  0  0  0  0999 V2000
   -1.7846    0.4079    0.0000 C   0  0  0  0  0  0  0  0  0  0  0  0
   -1.7857   -0.4193    0.0000 C   0  0  0  0  0  0  0  0  0  0  0  0
   -1.0709   -0.8322    0.0000 C   0  0  0  0  0  0  0  0  0  0  0  0
   -0.3545   -0.4188    0.0000 C   0  0  0  0  0  0  0  0  0  0  0  0
   -0.3573    0.4115    0.0000 C   0  0  0  0  0  0  0  0  0  0  0  0
   -1.0727    0.8207    0.0000 C   0  0  0  0  0  0  0  0  0  0  0  0
   -2.4991    0.8202    0.0000 O   0  0  0  0  0  0  0  0  0  0  0  0
   -2.5005   -0.8313    0.0000 O   0  0  0  0  0  0  0  0  0  0  0  0
    0.3556    0.8268    0.0000 C   0  0  0  0  0  0  0  0  0  0  0  0
    1.0716    0.4169    0.0000 C   0  0  0  0  0  0  0  0  0  0  0  0
    1.7845    0.8322    0.0000 N   0  0  0  0  0  0  0  0  0  0  0  0
    2.5005    0.4223    0.0000 C   0  0  0  0  0  0  0  0  0  0  0  0
   -1.0711   -1.8642    0.0000 H   0  0  0  0  0  0  0  0  0  0  0  0
    0.5400   -0.9334    0.0000 H   0  0  0  0  0  0  0  0  0  0  0  0
   -1.0757    1.8527    0.0000 H   0  0  0  0  0  0  0  0  0  0  0  0
   -2.4993    1.7572    0.0000 H   0  0  0  0  0  0  0  0  0  0  0  0
   -3.3116   -0.3622    0.0000 H   0  0  0  0  0  0  0  0  0  0  0  0
    0.3516    1.8968    0.0000 H   0  0  0  0  0  0  0  0  0  0  0  0
    1.2803    1.3652    0.0000 H   0  0  0  0  0  0  0  0  0  0  0  0
    1.0756   -0.6531    0.0000 H   0  0  0  0  0  0  0  0  0  0  0  0
    2.0003   -0.1145    0.0000 H   0  0  0  0  0  0  0  0  0  0  0  0
    1.7807    1.8522    0.0000 H   0  0  0  0  0  0  0  0  0  0  0  0
    2.5044   -0.6477    0.0000 H   0  0  0  0  0  0  0  0  0  0  0  0
    3.4252    0.9607    0.0000 H   0  0  0  0  0  0  0  0  0  0  0  0
    3.4291   -0.1093    0.0000 H   0  0  0  0  0  0  0  0  0  0  0  0
  1  7  1  0  0  0  0
  1  2  2  0  0  0  0
  2  3  1  0  0  0  0
  2  8  1  0  0  0  0
  3  4  2  0  0  0  0
  3 13  1  0  0  0  0
  4  5  1  0  0  0  0
  4 14  1  0  0  0  0
  5  9  1  0  0  0  0
  5  6  2  0  0  0  0
  6  1  1  0  0  0  0
  6 15  1  0  0  0  0
  7 16  1  0  0  0  0
  8 17  1  0  0  0  0
  9 10  1  0  0  0  0
  9 18  1  0  0  0  0
  9 19  1  0  0  0  0
 10 11  1  0  0  0  0
 10 20  1  0  0  0  0
 10 21  1  0  0  0  0
 11 12  1  0  0  0  0
 11 22  1  0  0  0  0
 12 23  1  0  0  0  0
 12 24  1  0  0  0  0
 12 25  1  0  0  0  0
M  END
>  <DRUGBANK_ID>
DB13917

>  <COMMON_NAME>
Deoxyepinephrine

>  <CAS_NUMBER>
501-15-5

>  <UNII>
R7339QLN1C

>  <SYNONYMS>
1-(3,4-dihydroxyphenyl)-2-methylaminoethane; 3,4-dihydroxy-N-methylphenethylamine; 4-(2-methylamino-ethyl)-benzene-1,2-diol; 4-(2-methylaminoethyl)pyrocatechol; Deoxyephinephrine; Desoxyepinephrine; Epinin; Epinine; Epyamine; N-methyl-3,4-dihydroxyphenethylamine; N-methyldopamine

$$$$
