LS5
 OpenBabel10282417072D

 40 42  0  0  0  0  0  0  0  0999 V2000
    0.5995   -3.0758    0.0000 N   0  0  0  0  0  0  0  0  0  0  0  0
    0.1146   -2.4084    0.0000 C   0  0  0  0  0  0  0  0  0  0  0  0
    0.5995   -1.7409    0.0000 C   0  0  0  0  0  0  0  0  0  0  0  0
    2.0986   -1.5834    0.0000 C   0  0  0  0  0  0  0  0  0  0  0  0
    2.8131   -1.9959    0.0000 C   0  0  0  0  0  0  0  0  0  0  0  0
    2.8131   -2.8209    0.0000 C   0  0  0  0  0  0  0  0  0  0  0  0
    2.0986   -3.2334    0.0000 C   0  0  0  0  0  0  0  0  0  0  0  0
    1.3841   -2.8209    0.0000 C   0  0  0  0  0  0  0  0  0  0  0  0
    1.3841   -1.9959    0.0000 C   0  0  0  0  0  0  0  0  0  0  0  0
   -0.7104   -2.4084    0.0000 O   0  0  0  0  0  0  0  0  0  0  0  0
    0.3445   -0.9563    0.0000 C   0  0  0  0  0  0  0  0  0  0  0  0
   -0.4624   -0.7848    0.0000 N   0  0  0  0  0  0  0  0  0  0  0  0
   -0.7174   -0.0002    0.0000 C   0  0  0  0  0  0  0  0  0  0  0  0
   -1.5243    0.1714    0.0000 C   0  0  0  0  0  0  0  0  0  0  0  0
   -1.7793    0.9560    0.0000 C   0  0  0  0  0  0  0  0  0  0  0  0
   -1.2272    1.5691    0.0000 C   0  0  0  0  0  0  0  0  0  0  0  0
   -0.4203    1.3975    0.0000 C   0  0  0  0  0  0  0  0  0  0  0  0
   -0.1653    0.6129    0.0000 C   0  0  0  0  0  0  0  0  0  0  0  0
   -1.4822    2.3537    0.0000 S   0  0  0  0  0  0  0  0  0  0  0  0
   -0.6976    2.6086    0.0000 O   0  0  0  0  0  0  0  0  0  0  0  0
   -2.2668    2.0987    0.0000 O   0  0  0  0  0  0  0  0  0  0  0  0
   -1.7371    3.1383    0.0000 N   0  0  0  0  0  0  0  0  0  0  0  0
   -1.1851    3.7514    0.0000 C   0  0  0  0  0  0  0  0  0  0  0  0
   -1.4400    4.5360    0.0000 N   0  0  0  0  0  0  0  0  0  0  0  0
   -0.3781    3.5799    0.0000 N   0  0  0  0  0  0  0  0  0  0  0  0
    0.2953   -4.0121    0.0000 H   0  0  0  0  0  0  0  0  0  0  0  0
    2.0986   -0.5514    0.0000 H   0  0  0  0  0  0  0  0  0  0  0  0
    3.7068   -1.4799    0.0000 H   0  0  0  0  0  0  0  0  0  0  0  0
    3.7068   -3.3369    0.0000 H   0  0  0  0  0  0  0  0  0  0  0  0
    2.0986   -4.2654    0.0000 H   0  0  0  0  0  0  0  0  0  0  0  0
    1.0350   -0.1893    0.0000 H   0  0  0  0  0  0  0  0  0  0  0  0
   -1.1211   -1.5165    0.0000 H   0  0  0  0  0  0  0  0  0  0  0  0
   -2.2149   -0.5955    0.0000 H   0  0  0  0  0  0  0  0  0  0  0  0
   -2.7888    1.1706    0.0000 H   0  0  0  0  0  0  0  0  0  0  0  0
    0.2703    2.1644    0.0000 H   0  0  0  0  0  0  0  0  0  0  0  0
    0.8442    0.3983    0.0000 H   0  0  0  0  0  0  0  0  0  0  0  0
   -2.7001    3.3430    0.0000 H   0  0  0  0  0  0  0  0  0  0  0  0
   -0.7812    5.2676    0.0000 H   0  0  0  0  0  0  0  0  0  0  0  0
   -0.0738    2.6436    0.0000 H   0  0  0  0  0  0  0  0  0  0  0  0
    0.2806    4.3116    0.0000 H   0  0  0  0  0  0  0  0  0  0  0  0
  1  2  1  0  0  0  0
  1  8  1  0  0  0  0
  1 26  1  0  0  0  0
  2  3  1  0  0  0  0
  2 10  2  0  0  0  0
  3  9  1  0  0  0  0
  3 11  2  0  0  0  0
  4  5  2  0  0  0  0
  4  9  1  0  0  0  0
  4 27  1  0  0  0  0
  5  6  1  0  0  0  0
  5 28  1  0  0  0  0
  6  7  2  0  0  0  0
  6 29  1  0  0  0  0
  7  8  1  0  0  0  0
  7 30  1  0  0  0  0
  8  9  2  0  0  0  0
 11 12  1  0  0  0  0
 11 31  1  0  0  0  0
 12 13  1  0  0  0  0
 12 32  1  0  0  0  0
 13 14  2  0  0  0  0
 13 18  1  0  0  0  0
 14 15  1  0  0  0  0
 14 33  1  0  0  0  0
 15 16  2  0  0  0  0
 15 34  1  0  0  0  0
 16 17  1  0  0  0  0
 16 19  1  0  0  0  0
 17 18  2  0  0  0  0
 17 35  1  0  0  0  0
 18 36  1  0  0  0  0
 19 20  2  0  0  0  0
 19 21  2  0  0  0  0
 19 22  1  0  0  0  0
 22 23  1  0  0  0  0
 22 37  1  0  0  0  0
 23 24  2  0  0  0  0
 23 25  1  0  0  0  0
 24 38  1  0  0  0  0
 25 39  1  0  0  0  0
 25 40  1  0  0  0  0
M  END
>  <DRUGBANK_ID>
DB08126

>  <COMMON_NAME>
3-{[4-([amino(imino)methyl]aminosulfonyl)anilino]methylene}-2-oxo-2,3-dihydro-1H-indole

$$$$
