
 OpenBabel10282417072D

 43 44  0  0  0  0  0  0  0  0999 V2000
    2.6265    0.1645    0.0000 S   0  0  0  0  0  0  0  0  0  0  0  0
   -2.7525    0.9346    0.0000 P   0  0  0  0  0  0  0  0  0  0  0  0
    0.1849    2.1147    0.0000 O   0  0  0  0  0  0  0  0  0  0  0  0
   -1.9679    1.1896    0.0000 O   0  0  0  0  0  0  0  0  0  0  0  0
   -0.5159   -1.3253    0.0000 O   0  0  0  0  0  0  0  0  0  0  0  0
    1.6109   -1.0896    0.0000 O   0  0  0  0  0  0  0  0  0  0  0  0
    1.8029    2.3144    0.0000 O   0  0  0  0  0  0  0  0  0  0  0  0
    0.4227    2.6843    0.0000 O   0  0  0  0  0  0  0  0  0  0  0  0
    2.0601   -1.7815    0.0000 O   0  0  0  0  0  0  0  0  0  0  0  0
   -3.5371    0.6797    0.0000 O   0  0  0  0  0  0  0  0  0  0  0  0
   -3.0074    1.7193    0.0000 O   0  0  0  0  0  0  0  0  0  0  0  0
   -2.4975    0.1501    0.0000 O   0  0  0  0  0  0  0  0  0  0  0  0
   -1.9136   -1.6224    0.0000 O   0  0  0  0  0  0  0  0  0  0  0  0
   -2.1554   -0.5953    0.0000 N   0  0  0  0  0  0  0  0  0  0  0  0
    3.2585   -1.0033    0.0000 N   0  0  0  0  0  0  0  0  0  0  0  0
    0.7925    1.3040    0.0000 C   0  0  1  0  0  0  0  0  0  0  0  0
    0.5791    0.5072    0.0000 C   0  0  2  0  0  0  0  0  0  0  0  0
   -1.3548    0.6376    0.0000 C   0  0  1  0  0  0  0  0  0  0  0  0
   -1.4410   -0.1828    0.0000 C   0  0  2  0  0  0  0  0  0  0  0  0
   -0.6873   -0.5183    0.0000 C   0  0  1  0  0  0  0  0  0  0  0  0
    1.9853   -0.3546    0.0000 C   0  0  2  0  0  0  0  0  0  0  0  0
    2.3309    0.9347    0.0000 C   0  0  0  0  0  0  0  0  0  0  0  0
    1.0060    2.1009    0.0000 C   0  0  0  0  0  0  0  0  0  0  0  0
    2.4346   -1.0464    0.0000 C   0  0  0  0  0  0  0  0  0  0  0  0
   -1.1289   -1.8773    0.0000 C   0  0  0  0  0  0  0  0  0  0  0  0
   -0.9574   -2.6843    0.0000 C   0  0  0  0  0  0  0  0  0  0  0  0
    0.4082   -0.1302    0.0000 H   0  0  0  0  0  0  0  0  0  0  0  0
   -2.5984   -0.3395    0.0000 H   0  0  0  0  0  0  0  0  0  0  0  0
   -2.1554   -1.1067    0.0000 H   0  0  0  0  0  0  0  0  0  0  0  0
    3.5371   -1.4322    0.0000 H   0  0  0  0  0  0  0  0  0  0  0  0
    3.4907   -0.5475    0.0000 H   0  0  0  0  0  0  0  0  0  0  0  0
    0.6422   -1.1405    0.0000 H   0  0  0  0  0  0  0  0  0  0  0  0
    2.4654    1.6518    0.0000 H   0  0  0  0  0  0  0  0  0  0  0  0
   -4.2579    1.3288    0.0000 H   0  0  0  0  0  0  0  0  0  0  0  0
   -2.3583    2.4401    0.0000 H   0  0  0  0  0  0  0  0  0  0  0  0
   -1.1254    1.6827    0.0000 H   0  0  0  0  0  0  0  0  0  0  0  0
   -2.3384    0.3999    0.0000 H   0  0  0  0  0  0  0  0  0  0  0  0
    0.3213   -0.8756    0.0000 H   0  0  0  0  0  0  0  0  0  0  0  0
    3.0364    1.7392    0.0000 H   0  0  0  0  0  0  0  0  0  0  0  0
    2.0069    1.9545    0.0000 H   0  0  0  0  0  0  0  0  0  0  0  0
   -1.7526   -3.4002    0.0000 H   0  0  0  0  0  0  0  0  0  0  0  0
    0.0602   -3.0150    0.0000 H   0  0  0  0  0  0  0  0  0  0  0  0
   -0.7350   -3.7309    0.0000 H   0  0  0  0  0  0  0  0  0  0  0  0
  1 21  1  0  0  0  0
  1 22  1  0  0  0  0
  2  4  1  0  0  0  0
  2 10  1  0  0  0  0
  2 11  1  0  0  0  0
  2 12  2  0  0  0  0
  3 16  1  0  0  0  0
  3 17  1  0  0  0  0
  5 25  1  0  0  0  0
  6 32  1  0  0  0  0
  7 23  1  0  0  0  0
  7 33  1  0  0  0  0
  8 23  2  0  0  0  0
  9 24  2  0  0  0  0
 10 34  1  0  0  0  0
 11 35  1  0  0  0  0
 13 25  2  0  0  0  0
 14 28  1  0  0  0  0
 14 29  1  0  0  0  0
 15 24  1  0  0  0  0
 15 30  1  0  0  0  0
 15 31  1  0  0  0  0
 16 18  1  0  0  0  0
 16 22  1  0  0  0  0
 16 23  1  1  0  0  0
 17 20  1  0  0  0  0
 17 21  1  0  0  0  0
 17 27  1  6  0  0  0
 18  4  1  0  0  0  0
 18 19  1  0  0  0  0
 18 36  1  6  0  0  0
 19 14  1  0  0  0  0
 19 20  1  0  0  0  0
 19 37  1  1  0  0  0
 20  5  1  0  0  0  0
 20 38  1  1  0  0  0
 21  6  1  6  0  0  0
 21 24  1  0  0  0  0
 22 39  1  0  0  0  0
 22 40  1  0  0  0  0
 25 26  1  0  0  0  0
 26 41  1  0  0  0  0
 26 42  1  0  0  0  0
 26 43  1  0  0  0  0
M  END
>  <DRUGBANK_ID>
DB04788

>  <COMMON_NAME>
Tagetitoxin

>  <CAS_NUMBER>
87913-21-1

>  <SYNONYMS>
(1R,4R,5R,6R,7S,8R)-6-Acetoxy-7-amino-4-carbamoyl-4-hydroxy-8-(phosphonooxy)-9-oxa-3-thiabicyclo[3.3.1]nonane-1-carboxylic acid

$$$$
