
 OpenBabel10282417072D

 29 29  0  0  0  0  0  0  0  0999 V2000
    3.2458    0.3231    0.0000 C   0  0  0  0  0  0  0  0  0  0  0  0
    2.5312    0.7467    0.0000 C   0  0  0  0  0  0  0  0  0  0  0  0
   -3.2458   -1.5994    0.0000 C   0  0  0  0  0  0  0  0  0  0  0  0
    1.1225    1.5994    0.0000 O   0  0  0  0  0  0  0  0  0  0  0  0
    1.8042    0.3544    0.0000 O   0  0  0  0  0  0  0  0  0  0  0  0
   -3.2263   -0.7747    0.0000 O   0  0  0  0  0  0  0  0  0  0  0  0
    1.1008    0.7670    0.0000 C   0  0  0  0  0  0  0  0  0  0  0  0
   -2.5023   -0.3792    0.0000 C   0  0  0  0  0  0  0  0  0  0  0  0
    0.3722    0.3798    0.0000 C   0  0  0  0  0  0  0  0  0  0  0  0
   -1.7981   -0.8057    0.0000 C   0  0  0  0  0  0  0  0  0  0  0  0
   -2.4808    0.4335    0.0000 C   0  0  0  0  0  0  0  0  0  0  0  0
   -0.3350    0.7970    0.0000 C   0  0  0  0  0  0  0  0  0  0  0  0
   -1.0665   -0.4093    0.0000 C   0  0  0  0  0  0  0  0  0  0  0  0
   -1.7573    0.8389    0.0000 C   0  0  0  0  0  0  0  0  0  0  0  0
   -1.0491    0.4081    0.0000 C   0  0  0  0  0  0  0  0  0  0  0  0
    3.2335   -0.7468    0.0000 H   0  0  0  0  0  0  0  0  0  0  0  0
    4.1785    0.8474    0.0000 H   0  0  0  0  0  0  0  0  0  0  0  0
    4.1662   -0.2225    0.0000 H   0  0  0  0  0  0  0  0  0  0  0  0
    2.5527    1.8165    0.0000 H   0  0  0  0  0  0  0  0  0  0  0  0
    1.6179    1.3042    0.0000 H   0  0  0  0  0  0  0  0  0  0  0  0
   -4.1848   -2.1123    0.0000 H   0  0  0  0  0  0  0  0  0  0  0  0
   -2.3321   -2.1562    0.0000 H   0  0  0  0  0  0  0  0  0  0  0  0
   -3.2711   -2.6691    0.0000 H   0  0  0  0  0  0  0  0  0  0  0  0
    0.3492   -0.6519    0.0000 H   0  0  0  0  0  0  0  0  0  0  0  0
   -1.8229   -1.8374    0.0000 H   0  0  0  0  0  0  0  0  0  0  0  0
   -3.3642    0.9670    0.0000 H   0  0  0  0  0  0  0  0  0  0  0  0
   -0.3173    1.8288    0.0000 H   0  0  0  0  0  0  0  0  0  0  0  0
   -0.1855   -0.9467    0.0000 H   0  0  0  0  0  0  0  0  0  0  0  0
   -1.7388    1.8707    0.0000 H   0  0  0  0  0  0  0  0  0  0  0  0
  1 16  1  0  0  0  0
  1 17  1  0  0  0  0
  1 18  1  0  0  0  0
  2  1  1  0  0  0  0
  2 19  1  0  0  0  0
  2 20  1  0  0  0  0
  3 21  1  0  0  0  0
  3 22  1  0  0  0  0
  3 23  1  0  0  0  0
  5  2  1  0  0  0  0
  6  3  1  0  0  0  0
  7  4  2  0  0  0  0
  7  5  1  0  0  0  0
  8  6  1  0  0  0  0
  9  7  1  0  0  0  0
  9 24  1  0  0  0  0
 10  8  1  0  0  0  0
 10 25  1  0  0  0  0
 11  8  2  0  0  0  0
 11 26  1  0  0  0  0
 12  9  2  0  0  0  0
 12 27  1  0  0  0  0
 13 10  2  0  0  0  0
 13 28  1  0  0  0  0
 14 11  1  0  0  0  0
 14 29  1  0  0  0  0
 15 12  1  0  0  0  0
 15 13  1  0  0  0  0
 15 14  2  0  0  0  0
M  END
>  <DRUGBANK_ID>
DB16440

>  <COMMON_NAME>
Ethyl methoxycinnamate

>  <CAS_NUMBER>
24393-56-4

>  <UNII>
SD418S06XD

>  <SYNONYMS>
Ethyl (E)-4-methoxycinnamate; Ethyl (E)-p-methoxycinnamate; Ethyl methoxycinnamate; Ethyl trans-p-methoxycinnamate

$$$$
