
 OpenBabel10282417072D

 49 51  0  0  0  0  0  0  0  0999 V2000
    3.1564    0.0553    0.0000 C   0  0  0  0  0  0  0  0  0  0  0  0
    2.3314    0.0553    0.0000 C   0  0  1  0  0  0  0  0  0  0  0  0
    1.9189   -0.6592    0.0000 N   0  0  0  0  0  0  0  0  0  0  0  0
    2.3314   -1.3736    0.0000 C   0  0  0  0  0  0  0  0  0  0  0  0
    3.1564   -1.3736    0.0000 C   0  0  0  0  0  0  0  0  0  0  0  0
    3.5689   -0.6592    0.0000 S   0  0  0  0  0  0  0  0  0  0  0  0
    1.9189    0.7698    0.0000 C   0  0  0  0  0  0  0  0  0  0  0  0
    1.0939    0.7698    0.0000 N   0  0  0  0  0  0  0  0  0  0  0  0
    1.0939   -0.6592    0.0000 S   0  0  0  0  0  0  0  0  0  0  0  0
    1.0939   -1.4842    0.0000 O   0  0  0  0  0  0  0  0  0  0  0  0
    1.0939    0.1657    0.0000 O   0  0  0  0  0  0  0  0  0  0  0  0
    0.2689   -0.6592    0.0000 C   0  0  0  0  0  0  0  0  0  0  0  0
   -0.1435   -1.3736    0.0000 C   0  0  0  0  0  0  0  0  0  0  0  0
   -0.9685   -1.3736    0.0000 C   0  0  0  0  0  0  0  0  0  0  0  0
   -1.3810   -0.6592    0.0000 C   0  0  0  0  0  0  0  0  0  0  0  0
   -0.9685    0.0553    0.0000 C   0  0  0  0  0  0  0  0  0  0  0  0
   -0.1435    0.0553    0.0000 C   0  0  0  0  0  0  0  0  0  0  0  0
   -2.2060   -0.6592    0.0000 O   0  0  0  0  0  0  0  0  0  0  0  0
   -2.6185    1.4842    0.0000 C   0  0  0  0  0  0  0  0  0  0  0  0
   -2.2060    0.7698    0.0000 C   0  0  0  0  0  0  0  0  0  0  0  0
   -2.6185    0.0553    0.0000 C   0  0  0  0  0  0  0  0  0  0  0  0
   -3.4435    0.0553    0.0000 C   0  0  0  0  0  0  0  0  0  0  0  0
   -3.8560    0.7698    0.0000 C   0  0  0  0  0  0  0  0  0  0  0  0
   -3.4435    1.4842    0.0000 N   0  0  0  0  0  0  0  0  0  0  0  0
    0.6814    1.4842    0.0000 O   0  0  0  0  0  0  0  0  0  0  0  0
    3.8561    0.4924    0.0000 C   0  0  0  0  0  0  0  0  0  0  0  0
    3.1852    0.8798    0.0000 C   0  0  0  0  0  0  0  0  0  0  0  0
    2.3314    1.4842    0.0000 O   0  0  0  0  0  0  0  0  0  0  0  0
    1.2614    0.0553    0.0000 H   0  0  0  0  0  0  0  0  0  0  0  0
    1.7964   -2.3003    0.0000 H   0  0  0  0  0  0  0  0  0  0  0  0
    2.8664   -2.3002    0.0000 H   0  0  0  0  0  0  0  0  0  0  0  0
    3.6914   -2.3003    0.0000 H   0  0  0  0  0  0  0  0  0  0  0  0
    4.2264   -1.3736    0.0000 H   0  0  0  0  0  0  0  0  0  0  0  0
    0.6017   -0.0828    0.0000 H   0  0  0  0  0  0  0  0  0  0  0  0
    0.3725   -2.2673    0.0000 H   0  0  0  0  0  0  0  0  0  0  0  0
   -1.4845   -2.2673    0.0000 H   0  0  0  0  0  0  0  0  0  0  0  0
   -1.4845    0.9490    0.0000 H   0  0  0  0  0  0  0  0  0  0  0  0
    0.3726    0.9490    0.0000 H   0  0  0  0  0  0  0  0  0  0  0  0
   -2.1025    2.3779    0.0000 H   0  0  0  0  0  0  0  0  0  0  0  0
   -1.1740    0.7698    0.0000 H   0  0  0  0  0  0  0  0  0  0  0  0
   -3.9595   -0.8384    0.0000 H   0  0  0  0  0  0  0  0  0  0  0  0
   -4.8880    0.7698    0.0000 H   0  0  0  0  0  0  0  0  0  0  0  0
    1.1664    2.3243    0.0000 H   0  0  0  0  0  0  0  0  0  0  0  0
    4.8008   -0.0101    0.0000 H   0  0  0  0  0  0  0  0  0  0  0  0
    3.8189    1.5618    0.0000 H   0  0  0  0  0  0  0  0  0  0  0  0
    4.7636    1.0593    0.0000 H   0  0  0  0  0  0  0  0  0  0  0  0
    4.1300    1.3821    0.0000 H   0  0  0  0  0  0  0  0  0  0  0  0
    2.2778    1.4468    0.0000 H   0  0  0  0  0  0  0  0  0  0  0  0
    3.2226    1.9491    0.0000 H   0  0  0  0  0  0  0  0  0  0  0  0
  1  6  1  0  0  0  0
  1  2  1  0  0  0  0
  1 26  1  0  0  0  0
  1 27  1  0  0  0  0
  2  3  1  0  0  0  0
  2  7  1  0  0  0  0
  2 29  1  6  0  0  0
  3  4  1  0  0  0  0
  3  9  1  0  0  0  0
  4  5  1  0  0  0  0
  4 30  1  0  0  0  0
  4 31  1  0  0  0  0
  5  6  1  0  0  0  0
  5 32  1  0  0  0  0
  5 33  1  0  0  0  0
  7  8  1  0  0  0  0
  7 28  2  0  0  0  0
  8 25  1  0  0  0  0
  8 34  1  0  0  0  0
  9 10  2  0  0  0  0
  9 11  2  0  0  0  0
  9 12  1  0  0  0  0
 12 13  1  0  0  0  0
 12 17  2  0  0  0  0
 13 14  2  0  0  0  0
 13 35  1  0  0  0  0
 14 15  1  0  0  0  0
 14 36  1  0  0  0  0
 15 16  2  0  0  0  0
 15 18  1  0  0  0  0
 16 17  1  0  0  0  0
 16 37  1  0  0  0  0
 17 38  1  0  0  0  0
 18 21  1  0  0  0  0
 19 20  2  0  0  0  0
 19 24  1  0  0  0  0
 19 39  1  0  0  0  0
 20 21  1  0  0  0  0
 20 40  1  0  0  0  0
 21 22  2  0  0  0  0
 22 23  1  0  0  0  0
 22 41  1  0  0  0  0
 23 24  2  0  0  0  0
 23 42  1  0  0  0  0
 25 43  1  0  0  0  0
 26 44  1  0  0  0  0
 26 45  1  0  0  0  0
 26 46  1  0  0  0  0
 27 47  1  0  0  0  0
 27 48  1  0  0  0  0
 27 49  1  0  0  0  0
M  END
>  <DRUGBANK_ID>
DB05100

>  <COMMON_NAME>
Prinomastat

>  <CAS_NUMBER>
192329-42-3

>  <UNII>
10T6626FRK

>  <SYNONYMS>
Prinomastat; Prinomastatum

$$$$
