
 OpenBabel10282417072D

 59 61  0  0  1  0  0  0  0  0999 V2000
    2.5270   -1.3919    0.0000 H   0  0  0  0  0  0  0  0  0  0  0  0
    1.7065   -1.3057    0.0000 C   0  0  1  0  0  0  0  0  0  0  0  0
    1.8780   -2.1127    0.0000 C   0  0  0  0  0  0  0  0  0  0  0  0
    1.1635   -2.5252    0.0000 C   0  0  1  0  0  0  0  0  0  0  0  0
    1.0773   -3.3457    0.0000 O   0  0  0  0  0  0  0  0  0  0  0  0
    0.5504   -1.9731    0.0000 C   0  0  2  0  0  0  0  0  0  0  0  0
   -0.2565   -2.1447    0.0000 C   0  0  0  0  0  0  0  0  0  0  0  0
   -0.8086   -1.5316    0.0000 C   0  0  0  0  0  0  0  0  0  0  0  0
   -1.6155   -1.7031    0.0000 C   0  0  1  0  0  0  0  0  0  0  0  0
   -2.1676   -1.0900    0.0000 O   0  0  0  0  0  0  0  0  0  0  0  0
   -1.8705   -2.4877    0.0000 C   0  0  1  0  0  0  0  0  0  0  0  0
   -2.6774   -2.6593    0.0000 C   0  0  0  0  0  0  0  0  0  0  0  0
   -1.3184   -3.1008    0.0000 C   0  0  0  0  0  0  0  0  0  0  0  0
   -1.5734   -3.8854    0.0000 C   0  0  0  0  0  0  0  0  0  0  0  0
   -1.8283   -4.6701    0.0000 C   0  0  0  0  0  0  0  0  0  0  0  0
   -2.0833   -5.4547    0.0000 C   0  0  0  0  0  0  0  0  0  0  0  0
    0.8860   -1.2195    0.0000 C   0  0  1  0  0  0  0  0  0  0  0  0
    0.0655   -1.1332    0.0000 H   0  0  0  0  0  0  0  0  0  0  0  0
    0.7145   -0.4125    0.0000 C   0  0  0  0  0  0  0  0  0  0  0  0
   -0.0000    0.0000    0.0000 C   0  0  0  0  0  0  0  0  0  0  0  0
   -0.0000    0.8250    0.0000 C   0  0  0  0  0  0  0  0  0  0  0  0
    0.7145    1.2375    0.0000 C   0  0  0  0  0  0  0  0  0  0  0  0
    1.4289    0.8250    0.0000 C   0  0  0  0  0  0  0  0  0  0  0  0
    2.1434    1.2375    0.0000 C   0  0  0  0  0  0  0  0  0  0  0  0
    2.8579    0.8250    0.0000 C   0  0  0  0  0  0  0  0  0  0  0  0
    3.5724    1.2375    0.0000 C   0  0  0  0  0  0  0  0  0  0  0  0
    4.2868    0.8250    0.0000 C   0  0  0  0  0  0  0  0  0  0  0  0
    5.0013    1.2375    0.0000 O   0  0  0  0  0  0  0  0  0  0  0  0
    4.2868    0.0000    0.0000 O   0  0  0  0  0  0  0  0  0  0  0  0
    1.4289    0.0000    0.0000 C   0  0  0  0  0  0  0  0  0  0  0  0
    2.0420   -0.5520    0.0000 O   0  0  0  0  0  0  0  0  0  0  0  0
    2.8555   -2.5479    0.0000 H   0  0  0  0  0  0  0  0  0  0  0  0
    1.9340   -3.1812    0.0000 H   0  0  0  0  0  0  0  0  0  0  0  0
    2.0609   -3.1080    0.0000 H   0  0  0  0  0  0  0  0  0  0  0  0
    0.1912   -3.7403    0.0000 H   0  0  0  0  0  0  0  0  0  0  0  0
    0.2735   -3.0066    0.0000 H   0  0  0  0  0  0  0  0  0  0  0  0
   -0.5753   -3.1262    0.0000 H   0  0  0  0  0  0  0  0  0  0  0  0
   -0.4897   -0.5501    0.0000 H   0  0  0  0  0  0  0  0  0  0  0  0
   -1.2849   -0.6855    0.0000 H   0  0  0  0  0  0  0  0  0  0  0  0
   -1.8679   -0.1675    0.0000 H   0  0  0  0  0  0  0  0  0  0  0  0
   -2.5865   -1.6925    0.0000 H   0  0  0  0  0  0  0  0  0  0  0  0
   -3.3935   -1.8642    0.0000 H   0  0  0  0  0  0  0  0  0  0  0  0
   -3.0079   -3.6770    0.0000 H   0  0  0  0  0  0  0  0  0  0  0  0
   -3.7240   -2.8819    0.0000 H   0  0  0  0  0  0  0  0  0  0  0  0
   -0.2718   -2.8783    0.0000 H   0  0  0  0  0  0  0  0  0  0  0  0
   -0.6025   -3.8960    0.0000 H   0  0  0  0  0  0  0  0  0  0  0  0
   -3.1299   -5.6771    0.0000 H   0  0  0  0  0  0  0  0  0  0  0  0
   -1.3674   -6.2499    0.0000 H   0  0  0  0  0  0  0  0  0  0  0  0
   -2.4140   -6.4723    0.0000 H   0  0  0  0  0  0  0  0  0  0  0  0
   -0.8937   -0.5160    0.0000 H   0  0  0  0  0  0  0  0  0  0  0  0
   -0.8937    1.3410    0.0000 H   0  0  0  0  0  0  0  0  0  0  0  0
    0.7145    2.2695    0.0000 H   0  0  0  0  0  0  0  0  0  0  0  0
    2.1434    2.3075    0.0000 H   0  0  0  0  0  0  0  0  0  0  0  0
    3.0700    1.7725    0.0000 H   0  0  0  0  0  0  0  0  0  0  0  0
    2.8579   -0.2450    0.0000 H   0  0  0  0  0  0  0  0  0  0  0  0
    3.7845    0.2900    0.0000 H   0  0  0  0  0  0  0  0  0  0  0  0
    3.5724    2.3075    0.0000 H   0  0  0  0  0  0  0  0  0  0  0  0
    4.4991    1.7725    0.0000 H   0  0  0  0  0  0  0  0  0  0  0  0
    5.8128    0.7690    0.0000 H   0  0  0  0  0  0  0  0  0  0  0  0
  2  1  1  6  0  0  0
  2  3  1  0  0  0  0
  2 31  1  0  0  0  0
  3 32  1  0  0  0  0
  3 33  1  0  0  0  0
  4  3  1  0  0  0  0
  4  5  1  0  0  0  0
  4 34  1  6  0  0  0
  5 35  1  0  0  0  0
  6  4  1  0  0  0  0
  6  7  1  0  0  0  0
  6 17  1  0  0  0  0
  6 36  1  1  0  0  0
  7  8  2  0  0  0  0
  7 37  1  0  0  0  0
  8 38  1  0  0  0  0
  9  8  1  0  0  0  0
  9 10  1  0  0  0  0
  9 11  1  0  0  0  0
  9 39  1  1  0  0  0
 10 40  1  0  0  0  0
 11 12  1  0  0  0  0
 11 13  1  0  0  0  0
 11 41  1  1  0  0  0
 12 42  1  0  0  0  0
 12 43  1  0  0  0  0
 12 44  1  0  0  0  0
 13 14  1  0  0  0  0
 13 45  1  0  0  0  0
 13 46  1  0  0  0  0
 14 15  3  0  0  0  0
 15 16  1  0  0  0  0
 16 47  1  0  0  0  0
 16 48  1  0  0  0  0
 16 49  1  0  0  0  0
 17  2  1  0  0  0  0
 17 18  1  6  0  0  0
 17 19  1  0  0  0  0
 19 20  2  0  0  0  0
 19 30  1  0  0  0  0
 20 21  1  0  0  0  0
 20 50  1  0  0  0  0
 21 22  2  0  0  0  0
 21 51  1  0  0  0  0
 22 23  1  0  0  0  0
 22 52  1  0  0  0  0
 23 24  1  0  0  0  0
 23 30  2  0  0  0  0
 24 25  1  0  0  0  0
 24 53  1  0  0  0  0
 24 54  1  0  0  0  0
 25 26  1  0  0  0  0
 25 55  1  0  0  0  0
 25 56  1  0  0  0  0
 26 27  1  0  0  0  0
 26 57  1  0  0  0  0
 26 58  1  0  0  0  0
 27 28  1  0  0  0  0
 27 29  2  0  0  0  0
 28 59  1  0  0  0  0
 30 31  1  0  0  0  0
M  END
>  <DRUGBANK_ID>
DB18464

>  <COMMON_NAME>
Esuberaprost

>  <CAS_NUMBER>
94132-88-4

>  <UNII>
1JSN1I7582

>  <SYNONYMS>
(+)-4-((1r,2r,3as,8bs)-2-hydroxy-1-((1e,3s,4s)-3-hydroxy-4-methyl-oct-1-en-6-yn-1-yl)-2,3,3a,8b-tetrahydro-1h-cyclopenta(b)(1)benzofuran-5-yl)butanoic acid; 1h-cyclopenta(b)benzofuran-5-butanoic acid, 2,3,3a,8b-tetrahydro-2-hydroxy-1-((1e,3s,4s)-3-hydroxy-4-methyl-1-octen-6-ynyl)-, (1r,2r,3as,8bs)-; Aps-314d free acid; Beraprost, (+)-

$$$$
