216
 OpenBabel10282417072D

 60 62  0  0  0  0  0  0  0  0999 V2000
   -1.2509   -1.1250    0.0000 O   0  0  0  0  0  0  0  0  0  0  0  0
    1.6099    0.8255    0.0000 O   0  0  0  0  0  0  0  0  0  0  0  0
    0.4803    1.8735    0.0000 O   0  0  0  0  0  0  0  0  0  0  0  0
    0.0986   -0.7634    0.0000 N   0  0  0  0  0  0  0  0  0  0  0  0
   -0.9911    0.2478    0.0000 N   0  0  0  0  0  0  0  0  0  0  0  0
   -0.6897   -0.5202    0.0000 C   0  0  0  0  0  0  0  0  0  0  0  0
    0.7803   -0.2986    0.0000 C   0  0  1  0  0  0  0  0  0  0  0  0
    0.8419    0.5241    0.0000 C   0  0  1  0  0  0  0  0  0  0  0  0
    0.2371    1.0852    0.0000 C   0  0  2  0  0  0  0  0  0  0  0  0
   -0.5786    0.9622    0.0000 C   0  0  1  0  0  0  0  0  0  0  0  0
    0.2216   -1.5792    0.0000 C   0  0  0  0  0  0  0  0  0  0  0  0
   -0.4234   -2.0935    0.0000 C   0  0  0  0  0  0  0  0  0  0  0  0
   -1.1914   -1.7921    0.0000 C   0  0  0  0  0  0  0  0  0  0  0  0
    1.4947   -0.7111    0.0000 C   0  0  0  0  0  0  0  0  0  0  0  0
    1.4947   -1.5361    0.0000 C   0  0  0  0  0  0  0  0  0  0  0  0
    2.2092   -1.9486    0.0000 C   0  0  0  0  0  0  0  0  0  0  0  0
    2.2092   -2.7736    0.0000 C   0  0  0  0  0  0  0  0  0  0  0  0
    1.4947   -3.1861    0.0000 C   0  0  0  0  0  0  0  0  0  0  0  0
    0.7803   -2.7736    0.0000 C   0  0  0  0  0  0  0  0  0  0  0  0
    0.7803   -1.9486    0.0000 C   0  0  0  0  0  0  0  0  0  0  0  0
   -1.0434    1.6439    0.0000 C   0  0  0  0  0  0  0  0  0  0  0  0
   -0.6854    2.3872    0.0000 C   0  0  0  0  0  0  0  0  0  0  0  0
   -1.1502    3.0688    0.0000 C   0  0  0  0  0  0  0  0  0  0  0  0
   -0.7922    3.8121    0.0000 C   0  0  0  0  0  0  0  0  0  0  0  0
    0.0305    3.8738    0.0000 C   0  0  0  0  0  0  0  0  0  0  0  0
    0.4952    3.1921    0.0000 C   0  0  0  0  0  0  0  0  0  0  0  0
    0.1373    2.4488    0.0000 C   0  0  0  0  0  0  0  0  0  0  0  0
   -1.8138    0.3094    0.0000 C   0  0  0  0  0  0  0  0  0  0  0  0
   -2.2786   -0.3722    0.0000 C   0  0  0  0  0  0  0  0  0  0  0  0
   -1.9206   -1.1155    0.0000 C   0  0  0  0  0  0  0  0  0  0  0  0
    0.8021   -0.8822    0.0000 H   0  0  0  0  0  0  0  0  0  0  0  0
    1.3117    0.1773    0.0000 H   0  0  0  0  0  0  0  0  0  0  0  0
    0.8012    1.2363    0.0000 H   0  0  0  0  0  0  0  0  0  0  0  0
   -1.1622    0.9404    0.0000 H   0  0  0  0  0  0  0  0  0  0  0  0
    2.3683    0.2207    0.0000 H   0  0  0  0  0  0  0  0  0  0  0  0
    1.4260    2.0893    0.0000 H   0  0  0  0  0  0  0  0  0  0  0  0
    1.2176   -1.9701    0.0000 H   0  0  0  0  0  0  0  0  0  0  0  0
    0.3810   -2.6373    0.0000 H   0  0  0  0  0  0  0  0  0  0  0  0
   -0.2696   -3.1140    0.0000 H   0  0  0  0  0  0  0  0  0  0  0  0
   -1.3452   -0.7716    0.0000 H   0  0  0  0  0  0  0  0  0  0  0  0
   -1.9982   -2.4356    0.0000 H   0  0  0  0  0  0  0  0  0  0  0  0
    2.4214   -0.1761    0.0000 H   0  0  0  0  0  0  0  0  0  0  0  0
    2.4213   -1.2461    0.0000 H   0  0  0  0  0  0  0  0  0  0  0  0
    3.1029   -1.4326    0.0000 H   0  0  0  0  0  0  0  0  0  0  0  0
    3.1029   -3.2896    0.0000 H   0  0  0  0  0  0  0  0  0  0  0  0
    1.4947   -4.2181    0.0000 H   0  0  0  0  0  0  0  0  0  0  0  0
   -0.1134   -3.2896    0.0000 H   0  0  0  0  0  0  0  0  0  0  0  0
   -0.1134   -1.4326    0.0000 H   0  0  0  0  0  0  0  0  0  0  0  0
   -2.1104    1.5640    0.0000 H   0  0  0  0  0  0  0  0  0  0  0  0
   -1.6461    2.5280    0.0000 H   0  0  0  0  0  0  0  0  0  0  0  0
   -2.1793    2.9917    0.0000 H   0  0  0  0  0  0  0  0  0  0  0  0
   -1.3735    4.6648    0.0000 H   0  0  0  0  0  0  0  0  0  0  0  0
    0.4783    4.8036    0.0000 H   0  0  0  0  0  0  0  0  0  0  0  0
    1.5243    3.2692    0.0000 H   0  0  0  0  0  0  0  0  0  0  0  0
    0.7186    1.5961    0.0000 H   0  0  0  0  0  0  0  0  0  0  0  0
   -2.2780    1.2734    0.0000 H   0  0  0  0  0  0  0  0  0  0  0  0
   -2.8808    0.3894    0.0000 H   0  0  0  0  0  0  0  0  0  0  0  0
   -3.3077   -0.2951    0.0000 H   0  0  0  0  0  0  0  0  0  0  0  0
   -2.5019   -1.9682    0.0000 H   0  0  0  0  0  0  0  0  0  0  0  0
   -0.8915   -1.1926    0.0000 H   0  0  0  0  0  0  0  0  0  0  0  0
  1  6  2  0  0  0  0
  2 35  1  0  0  0  0
  3 36  1  0  0  0  0
  4  6  1  0  0  0  0
  4  7  1  0  0  0  0
  4 11  1  0  0  0  0
  5  6  1  0  0  0  0
  5 10  1  0  0  0  0
  5 28  1  0  0  0  0
  7  8  1  0  0  0  0
  7 14  1  0  0  0  0
  7 31  1  6  0  0  0
  8  2  1  0  0  0  0
  8  9  1  0  0  0  0
  8 32  1  6  0  0  0
  9  3  1  0  0  0  0
  9 10  1  0  0  0  0
  9 33  1  1  0  0  0
 10 21  1  0  0  0  0
 10 34  1  1  0  0  0
 11 12  1  0  0  0  0
 11 37  1  0  0  0  0
 11 38  1  0  0  0  0
 12 13  2  0  0  0  0
 12 39  1  0  0  0  0
 13 40  1  0  0  0  0
 13 41  1  0  0  0  0
 14 15  1  0  0  0  0
 14 42  1  0  0  0  0
 14 43  1  0  0  0  0
 15 16  2  0  0  0  0
 15 20  1  0  0  0  0
 16 17  1  0  0  0  0
 16 44  1  0  0  0  0
 17 18  2  0  0  0  0
 17 45  1  0  0  0  0
 18 19  1  0  0  0  0
 18 46  1  0  0  0  0
 19 20  2  0  0  0  0
 19 47  1  0  0  0  0
 20 48  1  0  0  0  0
 21 22  1  0  0  0  0
 21 49  1  0  0  0  0
 21 50  1  0  0  0  0
 22 23  2  0  0  0  0
 22 27  1  0  0  0  0
 23 24  1  0  0  0  0
 23 51  1  0  0  0  0
 24 25  2  0  0  0  0
 24 52  1  0  0  0  0
 25 26  1  0  0  0  0
 25 53  1  0  0  0  0
 26 27  2  0  0  0  0
 26 54  1  0  0  0  0
 27 55  1  0  0  0  0
 28 29  1  0  0  0  0
 28 56  1  0  0  0  0
 28 57  1  0  0  0  0
 29 30  2  0  0  0  0
 29 58  1  0  0  0  0
 30 59  1  0  0  0  0
 30 60  1  0  0  0  0
M  END
>  <DRUGBANK_ID>
DB06910

>  <COMMON_NAME>
[4-R-(4-ALPHA,6-BETA,7-BETA]-HEXAHYDRO-5,6-DI(HYDROXY)-1,3-DI(ALLYL)-4,7-BISPHENYLMETHYL)-2H-1,3-DIAZEPINONE

$$$$
