
 OpenBabel10282417072D

 46 48  0  0  1  0  0  0  0  0999 V2000
    2.4350    1.0263    0.0000 N   0  0  0  0  0  0  0  0  0  0  0  0
    1.9125   -0.3522    0.0000 C   0  0  1  0  0  0  0  0  0  0  0  0
    1.6512    1.2838    0.0000 C   0  0  0  0  0  0  0  0  0  0  0  0
    2.9160    1.6966    0.0000 C   0  0  0  0  0  0  0  0  0  0  0  0
    1.6625   -1.1247    0.0000 C   0  0  1  0  0  0  0  0  0  0  0  0
    1.2308    0.1401    0.0000 O   0  0  0  0  0  0  0  0  0  0  0  0
    1.6549    2.1055    0.0000 C   0  0  0  0  0  0  0  0  0  0  0  0
    0.9278    0.8710    0.0000 N   0  0  0  0  0  0  0  0  0  0  0  0
    2.4388    2.3518    0.0000 N   0  0  0  0  0  0  0  0  0  0  0  0
    0.8255   -1.1247    0.0000 C   0  0  1  0  0  0  0  0  0  0  0  0
    2.1510   -1.7875    0.0000 O   0  0  0  0  0  0  0  0  0  0  0  0
    0.5643   -0.3408    0.0000 C   0  0  1  0  0  0  0  0  0  0  0  0
    0.9392    2.5297    0.0000 C   0  0  0  0  0  0  0  0  0  0  0  0
    0.2310    1.3216    0.0000 C   0  0  0  0  0  0  0  0  0  0  0  0
    0.3522   -1.7951    0.0000 O   0  0  0  0  0  0  0  0  0  0  0  0
   -0.2196   -0.0985    0.0000 C   0  0  0  0  0  0  0  0  0  0  0  0
    0.2159    2.1170    0.0000 N   0  0  0  0  0  0  0  0  0  0  0  0
    0.9429    3.3515    0.0000 N   0  0  0  0  0  0  0  0  0  0  0  0
    0.3522   -2.6169    0.0000 P   0  0  0  0  0  0  0  0  0  0  0  0
   -1.0452   -0.0985    0.0000 O   0  0  0  0  0  0  0  0  0  0  0  0
    0.3522   -3.4424    0.0000 O   0  0  0  0  0  0  0  0  0  0  0  0
    1.1740   -2.6169    0.0000 O   0  0  0  0  0  0  0  0  0  0  0  0
   -0.4733   -2.6169    0.0000 O   0  0  0  0  0  0  0  0  0  0  0  0
   -1.8670   -0.0985    0.0000 P   0  0  3  0  0  0  0  0  0  0  0  0
   -2.6925   -0.0985    0.0000 O   0  0  0  0  0  0  0  0  0  0  0  0
   -1.8670   -0.9202    0.0000 O   0  0  0  0  0  0  0  0  0  0  0  0
   -1.8670    0.7271    0.0000 O   0  0  0  0  0  0  0  0  0  0  0  0
   -3.5144   -0.0985    0.0000 S   0  0  0  0  0  0  0  0  0  0  0  0
   -3.5144   -0.9202    0.0000 O   0  0  0  0  0  0  0  0  0  0  0  0
   -4.3399   -0.0985    0.0000 O   0  0  0  0  0  0  0  0  0  0  0  0
   -3.5144    0.7271    0.0000 O   0  0  0  0  0  0  0  0  0  0  0  0
    2.9221   -0.7067    0.0000 H   0  0  0  0  0  0  0  0  0  0  0  0
    3.9480    1.7002    0.0000 H   0  0  0  0  0  0  0  0  0  0  0  0
    2.7186   -0.9531    0.0000 H   0  0  0  0  0  0  0  0  0  0  0  0
    1.3177   -2.0748    0.0000 H   0  0  0  0  0  0  0  0  0  0  0  0
    1.7625   -2.6763    0.0000 H   0  0  0  0  0  0  0  0  0  0  0  0
    0.3911    0.7151    0.0000 H   0  0  0  0  0  0  0  0  0  0  0  0
   -0.6707    0.8197    0.0000 H   0  0  0  0  0  0  0  0  0  0  0  0
   -0.0598    0.9595    0.0000 H   0  0  0  0  0  0  0  0  0  0  0  0
   -0.9174    0.7126    0.0000 H   0  0  0  0  0  0  0  0  0  0  0  0
    1.7977    3.8399    0.0000 H   0  0  0  0  0  0  0  0  0  0  0  0
    0.0925    3.8476    0.0000 H   0  0  0  0  0  0  0  0  0  0  0  0
   -0.4878   -3.9274    0.0000 H   0  0  0  0  0  0  0  0  0  0  0  0
    1.6590   -3.4569    0.0000 H   0  0  0  0  0  0  0  0  0  0  0  0
   -2.7070   -1.4052    0.0000 H   0  0  0  0  0  0  0  0  0  0  0  0
   -4.3544   -1.4052    0.0000 H   0  0  0  0  0  0  0  0  0  0  0  0
  1  3  1  0  0  0  0
  1  4  1  0  0  0  0
  2  1  1  0  0  0  0
  2  5  1  0  0  0  0
  2  6  1  0  0  0  0
  2 32  1  6  0  0  0
  3  7  2  0  0  0  0
  3  8  1  0  0  0  0
  4  9  2  0  0  0  0
  4 33  1  0  0  0  0
  5 10  1  0  0  0  0
  5 11  1  0  0  0  0
  5 34  1  1  0  0  0
  6 12  1  0  0  0  0
  7 13  1  0  0  0  0
  7  9  1  0  0  0  0
  8 14  2  0  0  0  0
 10 15  1  0  0  0  0
 10 12  1  0  0  0  0
 10 35  1  1  0  0  0
 11 36  1  0  0  0  0
 12 16  1  0  0  0  0
 12 37  1  6  0  0  0
 13 17  2  0  0  0  0
 13 18  1  0  0  0  0
 14 17  1  0  0  0  0
 14 38  1  0  0  0  0
 15 19  1  0  0  0  0
 16 20  1  0  0  0  0
 16 39  1  0  0  0  0
 16 40  1  0  0  0  0
 18 41  1  0  0  0  0
 18 42  1  0  0  0  0
 19 21  1  0  0  0  0
 19 22  1  0  0  0  0
 19 23  2  0  0  0  0
 20 24  1  0  0  0  0
 21 43  1  0  0  0  0
 22 44  1  0  0  0  0
 24 25  1  0  0  0  0
 24 26  1  0  0  0  0
 24 27  2  0  0  0  0
 25 28  1  0  0  0  0
 26 45  1  0  0  0  0
 28 29  1  0  0  0  0
 28 30  2  0  0  0  0
 28 31  2  0  0  0  0
 29 46  1  0  0  0  0
M  END
>  <DRUGBANK_ID>
DB02902

>  <SECONDARY_ACCESSION_NUMBERS>
EXPT02647

>  <COMMON_NAME>
3'-phospho-5'-adenylyl sulfate

>  <CAS_NUMBER>
482-67-7

>  <UNII>
5TH3ERG159

>  <SYNONYMS>
3'-phosphoadenosine 5'-phosphosulfate; 3'-phosphoadenylyl sulfate; PAPS

$$$$
