1116
 OpenBabel10282417072D

 51 55  0  0  1  0  0  0  0  0999 V2000
    2.9779    1.7856    0.0000 S   0  3  3  0  0  0  0  0  0  0  0  0
    4.9509   -0.9300    0.0000 O   0  0  0  0  0  0  0  0  0  0  0  0
    3.6458   -0.2633    0.0000 N   0  0  0  0  0  0  0  0  0  0  0  0
    4.7200    0.5172    0.0000 N   0  0  0  0  0  0  0  0  0  0  0  0
    3.3904    0.5160    0.0000 C   0  0  3  0  0  0  0  0  0  0  0  0
    2.7228    1.0010    0.0000 C   0  0  3  0  0  0  0  0  0  0  0  0
    4.0578    1.0010    0.0000 C   0  0  3  0  0  0  0  0  0  0  0  0
    3.8029    1.7856    0.0000 C   0  0  0  0  0  0  0  0  0  0  0  0
    1.9028    1.0031    0.0000 C   0  0  0  0  0  0  0  0  0  0  0  0
    2.3131    2.2660    0.0000 C   0  0  0  0  0  0  0  0  0  0  0  0
    1.6500    1.7833    0.0000 C   0  0  0  0  0  0  0  0  0  0  0  0
    4.4659   -0.2625    0.0000 C   0  0  0  0  0  0  0  0  0  0  0  0
    3.1620   -0.9315    0.0000 C   0  0  0  0  0  0  0  0  0  0  0  0
    5.5051    0.7708    0.0000 C   0  0  0  0  0  0  0  0  0  0  0  0
    3.4988   -1.6847    0.0000 C   0  0  0  0  0  0  0  0  0  0  0  0
    5.6780    1.5775    0.0000 C   0  0  0  0  0  0  0  0  0  0  0  0
    4.3195   -1.7695    0.0000 C   0  0  0  0  0  0  0  0  0  0  0  0
    3.0151   -2.3529    0.0000 C   0  0  0  0  0  0  0  0  0  0  0  0
    5.0659    2.1306    0.0000 C   0  0  0  0  0  0  0  0  0  0  0  0
    6.4631    1.8310    0.0000 C   0  0  0  0  0  0  0  0  0  0  0  0
    4.6564   -2.5225    0.0000 C   0  0  0  0  0  0  0  0  0  0  0  0
    3.3520   -3.1060    0.0000 C   0  0  0  0  0  0  0  0  0  0  0  0
    5.2388    2.9373    0.0000 C   0  0  0  0  0  0  0  0  0  0  0  0
    6.6360    2.6377    0.0000 C   0  0  0  0  0  0  0  0  0  0  0  0
    4.1726   -3.1909    0.0000 C   0  0  0  0  0  0  0  0  0  0  0  0
    6.0239    3.1909    0.0000 C   0  0  0  0  0  0  0  0  0  0  0  0
    2.5256   -0.1140    0.0000 H   0  0  0  0  0  0  0  0  0  0  0  0
    3.7405    1.3316    0.0000 H   0  0  0  0  0  0  0  0  0  0  0  0
    4.0564   -0.0690    0.0000 H   0  0  0  0  0  0  0  0  0  0  0  0
    4.4318    2.6512    0.0000 H   0  0  0  0  0  0  0  0  0  0  0  0
    4.8597    1.6182    0.0000 H   0  0  0  0  0  0  0  0  0  0  0  0
    1.2724    0.1385    0.0000 H   0  0  0  0  0  0  0  0  0  0  0  0
    0.8462    1.1718    0.0000 H   0  0  0  0  0  0  0  0  0  0  0  0
    2.3112    3.3360    0.0000 H   0  0  0  0  0  0  0  0  0  0  0  0
    1.3591    2.7505    0.0000 H   0  0  0  0  0  0  0  0  0  0  0  0
    0.6324    2.1139    0.0000 H   0  0  0  0  0  0  0  0  0  0  0  0
    1.4821    2.8400    0.0000 H   0  0  0  0  0  0  0  0  0  0  0  0
    2.0977   -0.8214    0.0000 H   0  0  0  0  0  0  0  0  0  0  0  0
    2.5345   -1.7982    0.0000 H   0  0  0  0  0  0  0  0  0  0  0  0
    6.2990    0.0535    0.0000 H   0  0  0  0  0  0  0  0  0  0  0  0
    6.5233    1.0997    0.0000 H   0  0  0  0  0  0  0  0  0  0  0  0
    4.9246   -0.9335    0.0000 H   0  0  0  0  0  0  0  0  0  0  0  0
    1.9886   -2.2468    0.0000 H   0  0  0  0  0  0  0  0  0  0  0  0
    4.0839    1.8134    0.0000 H   0  0  0  0  0  0  0  0  0  0  0  0
    7.2288    1.1391    0.0000 H   0  0  0  0  0  0  0  0  0  0  0  0
    5.6829   -2.6285    0.0000 H   0  0  0  0  0  0  0  0  0  0  0  0
    2.7468   -3.9419    0.0000 H   0  0  0  0  0  0  0  0  0  0  0  0
    4.4731    3.6292    0.0000 H   0  0  0  0  0  0  0  0  0  0  0  0
    7.6181    2.9549    0.0000 H   0  0  0  0  0  0  0  0  0  0  0  0
    4.5940   -4.1330    0.0000 H   0  0  0  0  0  0  0  0  0  0  0  0
    6.2403    4.2000    0.0000 H   0  0  0  0  0  0  0  0  0  0  0  0
  1  6  1  0  0  0  0
  1  8  1  0  0  0  0
  1 10  1  0  0  0  0
  2 12  2  0  0  0  0
  3  5  1  0  0  0  0
  3 12  1  0  0  0  0
  3 13  1  0  0  0  0
  4  7  1  0  0  0  0
  4 12  1  0  0  0  0
  4 14  1  0  0  0  0
  5  6  1  0  0  0  0
  5  7  1  0  0  0  0
  5 27  1  0  0  0  0
  6  9  1  0  0  0  0
  6 28  1  0  0  0  0
  7  8  1  0  0  0  0
  7 29  1  0  0  0  0
  8 30  1  0  0  0  0
  8 31  1  0  0  0  0
  9 11  1  0  0  0  0
  9 32  1  0  0  0  0
  9 33  1  0  0  0  0
 10 11  1  0  0  0  0
 10 34  1  0  0  0  0
 10 35  1  0  0  0  0
 11 36  1  0  0  0  0
 11 37  1  0  0  0  0
 13 15  1  0  0  0  0
 13 38  1  0  0  0  0
 13 39  1  0  0  0  0
 14 16  1  0  0  0  0
 14 40  1  0  0  0  0
 14 41  1  0  0  0  0
 15 17  2  0  0  0  0
 15 18  1  0  0  0  0
 16 19  2  0  0  0  0
 16 20  1  0  0  0  0
 17 21  1  0  0  0  0
 17 42  1  0  0  0  0
 18 22  2  0  0  0  0
 18 43  1  0  0  0  0
 19 23  1  0  0  0  0
 19 44  1  0  0  0  0
 20 24  2  0  0  0  0
 20 45  1  0  0  0  0
 21 25  2  0  0  0  0
 21 46  1  0  0  0  0
 22 25  1  0  0  0  0
 22 47  1  0  0  0  0
 23 26  2  0  0  0  0
 23 48  1  0  0  0  0
 24 26  1  0  0  0  0
 24 49  1  0  0  0  0
 25 50  1  0  0  0  0
 26 51  1  0  0  0  0
M  CHG  1   1   1
M  END
>  <DRUGBANK_ID>
DB01116

>  <SECONDARY_ACCESSION_NUMBERS>
APRD00044

>  <COMMON_NAME>
Trimethaphan

>  <CAS_NUMBER>
7187-66-8

>  <UNII>
6G8X656T45

>  <SYNONYMS>
Thimethaphan; Trimetaphan; Trimetaphanum

$$$$
