
 OpenBabel10282417072D

 27 29  0  0  1  0  0  0  0  0999 V2000
    0.0422    2.1823    0.0000 C   0  0  0  0  0  0  0  0  0  0  0  0
    0.2971    1.3977    0.0000 C   0  0  0  0  0  0  0  0  0  0  0  0
   -0.2549    0.7846    0.0000 C   0  0  0  0  0  0  0  0  0  0  0  0
   -1.0619    0.9561    0.0000 C   0  0  0  0  0  0  0  0  0  0  0  0
   -1.3168    1.7408    0.0000 C   0  0  0  0  0  0  0  0  0  0  0  0
   -0.7648    2.3539    0.0000 C   0  0  0  0  0  0  0  0  0  0  0  0
   -1.0198    3.1385    0.0000 C   0  0  0  0  0  0  0  0  0  0  0  0
   -1.2747    3.9231    0.0000 N   0  0  0  0  0  0  0  0  0  0  0  0
   -1.6139    0.3431    0.0000 F   0  0  0  0  0  0  0  0  0  0  0  0
   -0.0000   -0.0000    0.0000 C   0  0  1  0  0  0  0  0  0  0  0  0
   -0.4849   -0.6674    0.0000 C   0  0  0  0  0  0  0  0  0  0  0  0
   -0.0000   -1.3349    0.0000 C   0  0  0  0  0  0  0  0  0  0  0  0
    0.7846   -1.0799    0.0000 C   0  0  0  0  0  0  0  0  0  0  0  0
    0.7846   -0.2549    0.0000 N   0  0  0  0  0  0  0  0  0  0  0  0
    1.5692    0.0000    0.0000 C   0  0  0  0  0  0  0  0  0  0  0  0
    2.0542   -0.6674    0.0000 N   0  0  0  0  0  0  0  0  0  0  0  0
    1.5692   -1.3349    0.0000 C   0  0  0  0  0  0  0  0  0  0  0  0
    0.7328    2.9492    0.0000 H   0  0  0  0  0  0  0  0  0  0  0  0
    1.3065    1.1831    0.0000 H   0  0  0  0  0  0  0  0  0  0  0  0
   -2.3262    1.9554    0.0000 H   0  0  0  0  0  0  0  0  0  0  0  0
   -1.0568    0.1674    0.0000 H   0  0  0  0  0  0  0  0  0  0  0  0
   -1.5549   -0.6674    0.0000 H   0  0  0  0  0  0  0  0  0  0  0  0
   -0.9707   -1.6208    0.0000 H   0  0  0  0  0  0  0  0  0  0  0  0
   -0.3306   -2.3525    0.0000 H   0  0  0  0  0  0  0  0  0  0  0  0
    0.7566   -2.0915    0.0000 H   0  0  0  0  0  0  0  0  0  0  0  0
    1.8881    0.9815    0.0000 H   0  0  0  0  0  0  0  0  0  0  0  0
    1.8881   -2.3164    0.0000 H   0  0  0  0  0  0  0  0  0  0  0  0
  1  2  2  0  0  0  0
  1  6  1  0  0  0  0
  1 18  1  0  0  0  0
  2  3  1  0  0  0  0
  2 19  1  0  0  0  0
  3  4  2  0  0  0  0
  4  5  1  0  0  0  0
  4  9  1  0  0  0  0
  5  6  2  0  0  0  0
  5 20  1  0  0  0  0
  6  7  1  0  0  0  0
  7  8  3  0  0  0  0
 10  3  1  0  0  0  0
 10 11  1  0  0  0  0
 10 14  1  0  0  0  0
 10 21  1  1  0  0  0
 11 12  1  0  0  0  0
 11 22  1  0  0  0  0
 11 23  1  0  0  0  0
 12 13  1  0  0  0  0
 12 24  1  0  0  0  0
 12 25  1  0  0  0  0
 13 14  1  0  0  0  0
 13 17  2  0  0  0  0
 14 15  1  0  0  0  0
 15 16  2  0  0  0  0
 15 26  1  0  0  0  0
 16 17  1  0  0  0  0
 17 27  1  0  0  0  0
M  END
>  <DRUGBANK_ID>
DB11837

>  <COMMON_NAME>
Osilodrostat

>  <CAS_NUMBER>
928134-65-0

>  <UNII>
5YL4IQ1078

>  <SYNONYMS>
Osilodrostat

$$$$
