
 OpenBabel10282417072D

 53 52  0  0  0  0  0  0  0  0999 V2000
    2.8579    1.0312    0.0000 C   0  0  0  0  0  0  0  0  0  0  0  0
    2.1434    0.6188    0.0000 C   0  0  0  0  0  0  0  0  0  0  0  0
    2.8579    1.8563    0.0000 O   0  0  0  0  0  0  0  0  0  0  0  0
    1.4288    1.0312    0.0000 C   0  0  0  0  0  0  0  0  0  0  0  0
    0.7143    0.6188    0.0000 C   0  0  0  0  0  0  0  0  0  0  0  0
    0.0000    1.0312    0.0000 C   0  0  0  0  0  0  0  0  0  0  0  0
   -0.7145    0.6188    0.0000 C   0  0  0  0  0  0  0  0  0  0  0  0
    3.5724    0.6188    0.0000 O   0  0  0  0  0  0  0  0  0  0  0  0
   -1.4290    1.0312    0.0000 C   0  0  0  0  0  0  0  0  0  0  0  0
   -2.1434    0.6186    0.0000 C   0  0  0  0  0  0  0  0  0  0  0  0
   -2.1434   -0.2063    0.0000 C   0  0  2  0  0  0  0  0  0  0  0  0
   -2.8579   -0.6188    0.0000 O   0  0  0  0  0  0  0  0  0  0  0  0
   -1.4290   -0.6188    0.0000 C   0  0  0  0  0  0  0  0  0  0  0  0
   -0.7145   -0.2063    0.0000 C   0  0  0  0  0  0  0  0  0  0  0  0
    0.0000   -0.6188    0.0000 C   0  0  0  0  0  0  0  0  0  0  0  0
    0.0000   -1.4438    0.0000 C   0  0  0  0  0  0  0  0  0  0  0  0
   -0.7145   -1.8563    0.0000 C   0  0  0  0  0  0  0  0  0  0  0  0
   -1.4290   -1.4438    0.0000 C   0  0  0  0  0  0  0  0  0  0  0  0
   -2.1434   -1.8563    0.0000 C   0  0  0  0  0  0  0  0  0  0  0  0
   -2.8579   -1.4438    0.0000 C   0  0  0  0  0  0  0  0  0  0  0  0
   -3.5724   -1.8563    0.0000 C   0  0  0  0  0  0  0  0  0  0  0  0
    2.1434   -0.4512    0.0000 H   0  0  0  0  0  0  0  0  0  0  0  0
    1.2168    0.0837    0.0000 H   0  0  0  0  0  0  0  0  0  0  0  0
    1.4288    2.1012    0.0000 H   0  0  0  0  0  0  0  0  0  0  0  0
    0.5022    1.5662    0.0000 H   0  0  0  0  0  0  0  0  0  0  0  0
    0.7142   -0.4512    0.0000 H   0  0  0  0  0  0  0  0  0  0  0  0
   -0.2124    0.0838    0.0000 H   0  0  0  0  0  0  0  0  0  0  0  0
    0.0001    2.1012    0.0000 H   0  0  0  0  0  0  0  0  0  0  0  0
   -0.9266    1.5663    0.0000 H   0  0  0  0  0  0  0  0  0  0  0  0
   -0.7145   -0.4512    0.0000 H   0  0  0  0  0  0  0  0  0  0  0  0
   -1.6411    0.0837    0.0000 H   0  0  0  0  0  0  0  0  0  0  0  0
    3.5725   -0.3182    0.0000 H   0  0  0  0  0  0  0  0  0  0  0  0
   -1.4291    2.1012    0.0000 H   0  0  0  0  0  0  0  0  0  0  0  0
   -2.3557    1.5661    0.0000 H   0  0  0  0  0  0  0  0  0  0  0  0
   -3.0701    1.1535    0.0000 H   0  0  0  0  0  0  0  0  0  0  0  0
   -3.0700    0.0836    0.0000 H   0  0  0  0  0  0  0  0  0  0  0  0
   -3.0700    0.3287    0.0000 H   0  0  0  0  0  0  0  0  0  0  0  0
   -3.6979   -0.1338    0.0000 H   0  0  0  0  0  0  0  0  0  0  0  0
   -1.4290   -1.6508    0.0000 H   0  0  0  0  0  0  0  0  0  0  0  0
   -0.7145    0.8257    0.0000 H   0  0  0  0  0  0  0  0  0  0  0  0
    0.8937   -0.1028    0.0000 H   0  0  0  0  0  0  0  0  0  0  0  0
    0.8937   -1.9598    0.0000 H   0  0  0  0  0  0  0  0  0  0  0  0
   -0.7145   -2.9263    0.0000 H   0  0  0  0  0  0  0  0  0  0  0  0
   -1.6411   -2.3913    0.0000 H   0  0  0  0  0  0  0  0  0  0  0  0
   -1.4290   -0.3738    0.0000 H   0  0  0  0  0  0  0  0  0  0  0  0
   -2.3557   -0.9088    0.0000 H   0  0  0  0  0  0  0  0  0  0  0  0
   -2.1434   -2.9263    0.0000 H   0  0  0  0  0  0  0  0  0  0  0  0
   -3.0700   -2.3913    0.0000 H   0  0  0  0  0  0  0  0  0  0  0  0
   -2.8579   -0.3738    0.0000 H   0  0  0  0  0  0  0  0  0  0  0  0
   -3.7845   -0.9088    0.0000 H   0  0  0  0  0  0  0  0  0  0  0  0
   -4.4990   -1.3213    0.0000 H   0  0  0  0  0  0  0  0  0  0  0  0
   -3.5724   -2.9263    0.0000 H   0  0  0  0  0  0  0  0  0  0  0  0
   -4.4991   -2.3913    0.0000 H   0  0  0  0  0  0  0  0  0  0  0  0
  1  2  1  0  0  0  0
  1  3  2  0  0  0  0
  1  8  1  0  0  0  0
  2  4  1  0  0  0  0
  2 22  1  0  0  0  0
  2 23  1  0  0  0  0
  4  5  1  0  0  0  0
  4 24  1  0  0  0  0
  4 25  1  0  0  0  0
  5  6  1  0  0  0  0
  5 26  1  0  0  0  0
  5 27  1  0  0  0  0
  6  7  1  0  0  0  0
  6 28  1  0  0  0  0
  6 29  1  0  0  0  0
  7  9  1  0  0  0  0
  7 30  1  0  0  0  0
  7 31  1  0  0  0  0
  8 32  1  0  0  0  0
  9 10  1  0  0  0  0
  9 33  1  0  0  0  0
  9 34  1  0  0  0  0
 10 11  1  0  0  0  0
 10 35  1  0  0  0  0
 10 36  1  0  0  0  0
 11 12  1  0  0  0  0
 11 13  1  0  0  0  0
 11 37  1  6  0  0  0
 12 38  1  0  0  0  0
 13 14  2  0  0  0  0
 13 39  1  0  0  0  0
 14 15  1  0  0  0  0
 14 40  1  0  0  0  0
 15 16  2  0  0  0  0
 15 41  1  0  0  0  0
 16 17  1  0  0  0  0
 16 42  1  0  0  0  0
 17 18  1  0  0  0  0
 17 43  1  0  0  0  0
 17 44  1  0  0  0  0
 18 19  1  0  0  0  0
 18 45  1  0  0  0  0
 18 46  1  0  0  0  0
 19 20  1  0  0  0  0
 19 47  1  0  0  0  0
 19 48  1  0  0  0  0
 20 21  1  0  0  0  0
 20 49  1  0  0  0  0
 20 50  1  0  0  0  0
 21 51  1  0  0  0  0
 21 52  1  0  0  0  0
 21 53  1  0  0  0  0
M  END
>  <DRUGBANK_ID>
DB07302

>  <COMMON_NAME>
9(S)-HODE

>  <CAS_NUMBER>
73543-67-6

>  <UNII>
42KE04U9BM

>  <SYNONYMS>
(9S,10E,12Z)-9-hydroxyoctadeca-10,12-dienoic acid; 9S-Hode; alpha-Dimorphecolic acid

$$$$
