
 OpenBabel10282417072D

 63 67  0  0  1  0  0  0  0  0999 V2000
    4.7812    1.3646    0.0000 C   0  0  0  0  0  0  0  0  0  0  0  0
    4.0668    0.9521    0.0000 C   0  0  0  0  0  0  0  0  0  0  0  0
    4.0668    0.1271    0.0000 C   0  0  0  0  0  0  0  0  0  0  0  0
    3.3523   -0.2854    0.0000 C   0  0  0  0  0  0  0  0  0  0  0  0
    2.6378    0.1271    0.0000 C   0  0  0  0  0  0  0  0  0  0  0  0
    2.6378    0.9521    0.0000 C   0  0  0  0  0  0  0  0  0  0  0  0
    3.3523    1.3646    0.0000 C   0  0  0  0  0  0  0  0  0  0  0  0
    3.3523    2.1896    0.0000 O   0  0  0  0  0  0  0  0  0  0  0  0
    2.6378    2.6021    0.0000 C   0  0  2  0  0  0  0  0  0  0  0  0
    1.9233    2.1896    0.0000 C   0  0  0  0  0  0  0  0  0  0  0  0
    1.2089    2.6021    0.0000 C   0  0  0  0  0  0  0  0  0  0  0  0
    0.4944    2.1896    0.0000 C   0  0  0  0  0  0  0  0  0  0  0  0
   -0.2201    2.6021    0.0000 C   0  0  0  0  0  0  0  0  0  0  0  0
   -0.2201    3.4271    0.0000 C   0  0  0  0  0  0  0  0  0  0  0  0
    0.4944    3.8396    0.0000 C   0  0  0  0  0  0  0  0  0  0  0  0
    1.2089    3.4271    0.0000 C   0  0  0  0  0  0  0  0  0  0  0  0
    2.6378    3.4271    0.0000 C   0  0  0  0  0  0  0  0  0  0  0  0
    1.9233    3.8396    0.0000 O   0  0  0  0  0  0  0  0  0  0  0  0
    3.3523    3.8396    0.0000 O   0  0  0  0  0  0  0  0  0  0  0  0
    1.9233    1.3646    0.0000 C   0  0  0  0  0  0  0  0  0  0  0  0
    3.3523   -1.1104    0.0000 C   0  0  0  0  0  0  0  0  0  0  0  0
    4.0668   -1.5229    0.0000 C   0  0  0  0  0  0  0  0  0  0  0  0
    4.7812   -1.1104    0.0000 C   0  0  0  0  0  0  0  0  0  0  0  0
    5.4957   -1.5229    0.0000 C   0  0  0  0  0  0  0  0  0  0  0  0
    5.4957   -2.3479    0.0000 C   0  0  0  0  0  0  0  0  0  0  0  0
    4.7812   -2.7604    0.0000 C   0  0  0  0  0  0  0  0  0  0  0  0
    4.0668   -2.3479    0.0000 C   0  0  0  0  0  0  0  0  0  0  0  0
    3.3523   -2.7604    0.0000 C   0  0  0  0  0  0  0  0  0  0  0  0
    2.6378   -2.3479    0.0000 C   0  0  0  0  0  0  0  0  0  0  0  0
    2.6378   -1.5229    0.0000 C   0  0  0  0  0  0  0  0  0  0  0  0
    1.8532   -1.2680    0.0000 C   0  0  0  0  0  0  0  0  0  0  0  0
    1.3683   -1.9354    0.0000 C   0  0  0  0  0  0  0  0  0  0  0  0
    1.8532   -2.6029    0.0000 S   0  0  0  0  0  0  0  0  0  0  0  0
    0.5433   -1.9354    0.0000 C   0  0  0  0  0  0  0  0  0  0  0  0
    1.5983   -0.4834    0.0000 C   0  0  0  0  0  0  0  0  0  0  0  0
    3.3523   -3.5854    0.0000 Br  0  0  0  0  0  0  0  0  0  0  0  0
    5.7079    0.8296    0.0000 H   0  0  0  0  0  0  0  0  0  0  0  0
    4.7812    2.4346    0.0000 H   0  0  0  0  0  0  0  0  0  0  0  0
    5.7078    1.8996    0.0000 H   0  0  0  0  0  0  0  0  0  0  0  0
    4.9605   -0.3889    0.0000 H   0  0  0  0  0  0  0  0  0  0  0  0
    1.7441   -0.3889    0.0000 H   0  0  0  0  0  0  0  0  0  0  0  0
    2.6378    1.5321    0.0000 H   0  0  0  0  0  0  0  0  0  0  0  0
    1.9233    1.1196    0.0000 H   0  0  0  0  0  0  0  0  0  0  0  0
    0.9966    1.6546    0.0000 H   0  0  0  0  0  0  0  0  0  0  0  0
    0.4944    1.1576    0.0000 H   0  0  0  0  0  0  0  0  0  0  0  0
   -1.1138    2.0861    0.0000 H   0  0  0  0  0  0  0  0  0  0  0  0
   -1.1138    3.9431    0.0000 H   0  0  0  0  0  0  0  0  0  0  0  0
    0.4944    4.8716    0.0000 H   0  0  0  0  0  0  0  0  0  0  0  0
    2.1026    3.9431    0.0000 H   0  0  0  0  0  0  0  0  0  0  0  0
    4.1638    3.3711    0.0000 H   0  0  0  0  0  0  0  0  0  0  0  0
    1.9233    2.4346    0.0000 H   0  0  0  0  0  0  0  0  0  0  0  0
    0.9967    0.8296    0.0000 H   0  0  0  0  0  0  0  0  0  0  0  0
    0.9966    1.8996    0.0000 H   0  0  0  0  0  0  0  0  0  0  0  0
    4.7812   -0.0784    0.0000 H   0  0  0  0  0  0  0  0  0  0  0  0
    6.3894   -1.0069    0.0000 H   0  0  0  0  0  0  0  0  0  0  0  0
    6.3894   -2.8639    0.0000 H   0  0  0  0  0  0  0  0  0  0  0  0
    4.7812   -3.7924    0.0000 H   0  0  0  0  0  0  0  0  0  0  0  0
    0.0083   -1.0088    0.0000 H   0  0  0  0  0  0  0  0  0  0  0  0
    0.0083   -2.8620    0.0000 H   0  0  0  0  0  0  0  0  0  0  0  0
   -0.5267   -1.9354    0.0000 H   0  0  0  0  0  0  0  0  0  0  0  0
    2.3143    0.3117    0.0000 H   0  0  0  0  0  0  0  0  0  0  0  0
    0.5517   -0.2609    0.0000 H   0  0  0  0  0  0  0  0  0  0  0  0
    1.2677    0.5342    0.0000 H   0  0  0  0  0  0  0  0  0  0  0  0
  1  2  1  0  0  0  0
  1 37  1  0  0  0  0
  1 38  1  0  0  0  0
  1 39  1  0  0  0  0
  2  3  2  0  0  0  0
  2  7  1  0  0  0  0
  3  4  1  0  0  0  0
  3 40  1  0  0  0  0
  4  5  2  0  0  0  0
  4 21  1  0  0  0  0
  5  6  1  0  0  0  0
  5 41  1  0  0  0  0
  6  7  2  0  0  0  0
  6 20  1  0  0  0  0
  7  8  1  0  0  0  0
  9  8  1  0  0  0  0
  9 10  1  0  0  0  0
  9 17  1  0  0  0  0
  9 42  1  1  0  0  0
 10 11  1  0  0  0  0
 10 43  1  0  0  0  0
 10 44  1  0  0  0  0
 11 12  2  0  0  0  0
 11 16  1  0  0  0  0
 12 13  1  0  0  0  0
 12 45  1  0  0  0  0
 13 14  2  0  0  0  0
 13 46  1  0  0  0  0
 14 15  1  0  0  0  0
 14 47  1  0  0  0  0
 15 16  2  0  0  0  0
 15 48  1  0  0  0  0
 16 49  1  0  0  0  0
 17 18  2  0  0  0  0
 17 19  1  0  0  0  0
 19 50  1  0  0  0  0
 20 51  1  0  0  0  0
 20 52  1  0  0  0  0
 20 53  1  0  0  0  0
 21 22  1  0  0  0  0
 21 30  2  0  0  0  0
 22 23  2  0  0  0  0
 22 27  1  0  0  0  0
 23 24  1  0  0  0  0
 23 54  1  0  0  0  0
 24 25  2  0  0  0  0
 24 55  1  0  0  0  0
 25 26  1  0  0  0  0
 25 56  1  0  0  0  0
 26 27  2  0  0  0  0
 26 57  1  0  0  0  0
 27 28  1  0  0  0  0
 28 29  2  0  0  0  0
 28 36  1  0  0  0  0
 29 30  1  0  0  0  0
 29 33  1  0  0  0  0
 30 31  1  0  0  0  0
 31 32  2  0  0  0  0
 31 35  1  0  0  0  0
 32 33  1  0  0  0  0
 32 34  1  0  0  0  0
 34 58  1  0  0  0  0
 34 59  1  0  0  0  0
 34 60  1  0  0  0  0
 35 61  1  0  0  0  0
 35 62  1  0  0  0  0
 35 63  1  0  0  0  0
M  END
>  <DRUGBANK_ID>
DB06521

>  <COMMON_NAME>
Ertiprotafib

>  <CAS_NUMBER>
251303-04-5

>  <UNII>
5TPM2EB426

>  <SYNONYMS>
Ertiprotafib

$$$$
