
 OpenBabel10282417072D

123125  0  0  0  0  0  0  0  0999 V2000
   -2.0168    2.6606    0.0000 C   0  0  0  0  0  0  0  0  0  0  0  0
   -1.6043    3.3751    0.0000 C   0  0  0  0  0  0  0  0  0  0  0  0
   -0.7793    3.3751    0.0000 C   0  0  0  0  0  0  0  0  0  0  0  0
   -0.3668    4.0896    0.0000 C   0  0  0  0  0  0  0  0  0  0  0  0
   -2.8418    2.6606    0.0000 O   0  0  0  0  0  0  0  0  0  0  0  0
   -1.6043    1.9461    0.0000 O   0  0  0  0  0  0  0  0  0  0  0  0
   -0.7793    4.8041    0.0000 O   0  0  0  0  0  0  0  0  0  0  0  0
    0.4581    4.0896    0.0000 N   0  0  0  0  0  0  0  0  0  0  0  0
    0.8707    4.8041    0.0000 C   0  0  0  0  0  0  0  0  0  0  0  0
    1.6911    4.8904    0.0000 C   0  0  0  0  0  0  0  0  0  0  0  0
    1.8626    5.6973    0.0000 C   0  0  0  0  0  0  0  0  0  0  0  0
    1.1482    6.1099    0.0000 C   0  0  0  0  0  0  0  0  0  0  0  0
    0.5350    5.5578    0.0000 C   0  0  0  0  0  0  0  0  0  0  0  0
   -0.2718    5.7293    0.0000 O   0  0  0  0  0  0  0  0  0  0  0  0
    2.2432    4.2772    0.0000 O   0  0  0  0  0  0  0  0  0  0  0  0
   -2.0168   -0.1972    0.0000 C   0  0  1  0  0  0  0  0  0  0  0  0
   -1.6043    0.5171    0.0000 C   0  0  0  0  0  0  0  0  0  0  0  0
   -2.0168    1.2317    0.0000 C   0  0  2  0  0  0  0  0  0  0  0  0
   -2.8418    1.2317    0.0000 C   0  0  1  0  0  0  0  0  0  0  0  0
   -3.2543    0.5171    0.0000 C   0  0  2  0  0  0  0  0  0  0  0  0
   -2.8418   -0.1972    0.0000 O   0  0  0  0  0  0  0  0  0  0  0  0
   -4.0794    0.5171    0.0000 C   0  0  0  0  0  0  0  0  0  0  0  0
   -4.4919   -0.1972    0.0000 C   0  0  0  0  0  0  0  0  0  0  0  0
   -4.4919    1.2317    0.0000 C   0  0  0  0  0  0  0  0  0  0  0  0
   -3.2543    1.9461    0.0000 C   0  0  0  0  0  0  0  0  0  0  0  0
   -2.1602   -1.0097    0.0000 C   0  0  2  0  0  0  0  0  0  0  0  0
   -1.5281   -1.5400    0.0000 C   0  0  1  0  0  0  0  0  0  0  0  0
   -0.7529   -1.2579    0.0000 C   0  0  2  0  0  0  0  0  0  0  0  0
   -0.6096   -0.4453    0.0000 C   0  0  0  0  0  0  0  0  0  0  0  0
   -2.9354   -1.2919    0.0000 C   0  0  0  0  0  0  0  0  0  0  0  0
    0.7122   -1.4309    0.0000 O   0  0  0  0  0  0  0  0  0  0  0  0
    0.0765   -1.9516    0.0000 C   0  0  3  0  0  0  0  0  0  0  0  0
   -0.3359   -2.6662    0.0000 C   0  0  2  0  0  0  0  0  0  0  0  0
   -0.4178   -3.4908    0.0000 C   0  0  0  0  0  0  0  0  0  0  0  0
   -0.1870   -4.2827    0.0000 C   0  0  0  0  0  0  0  0  0  0  0  0
    0.3337   -4.9184    0.0000 C   0  0  0  0  0  0  0  0  0  0  0  0
    1.0482   -5.3309    0.0000 C   0  0  0  0  0  0  0  0  0  0  0  0
    1.8727   -5.4128    0.0000 C   0  0  0  0  0  0  0  0  0  0  0  0
    2.6490   -5.1906    0.0000 C   0  0  1  0  0  0  0  0  0  0  0  0
    3.3003   -4.6611    0.0000 C   0  0  1  0  0  0  0  0  0  0  0  0
    3.7129   -3.9467    0.0000 C   0  0  1  0  0  0  0  0  0  0  0  0
    3.7949   -3.1221    0.0000 C   0  0  0  0  0  0  0  0  0  0  0  0
    3.5727   -2.3459    0.0000 C   0  0  0  0  0  0  0  0  0  0  0  0
    3.0431   -1.6945    0.0000 C   0  0  0  0  0  0  0  0  0  0  0  0
    2.3287   -1.2820    0.0000 C   0  0  0  0  0  0  0  0  0  0  0  0
    1.5041   -1.2000    0.0000 C   0  0  0  0  0  0  0  0  0  0  0  0
    1.4322   -0.3781    0.0000 O   0  0  0  0  0  0  0  0  0  0  0  0
    4.2871   -1.9333    0.0000 C   0  0  0  0  0  0  0  0  0  0  0  0
    4.4919   -4.1903    0.0000 C   0  0  0  0  0  0  0  0  0  0  0  0
    3.0615   -5.9051    0.0000 C   0  0  0  0  0  0  0  0  0  0  0  0
    0.8046   -6.1099    0.0000 C   0  0  0  0  0  0  0  0  0  0  0  0
    2.5724   -0.5029    0.0000 O   0  0  0  0  0  0  0  0  0  0  0  0
    3.3778   -0.3244    0.0000 C   0  0  0  0  0  0  0  0  0  0  0  0
   -1.1149   -2.4225    0.0000 O   0  0  0  0  0  0  0  0  0  0  0  0
   -1.6983   -3.0058    0.0000 C   0  0  0  0  0  0  0  0  0  0  0  0
    3.9402   -5.1959    0.0000 O   0  0  0  0  0  0  0  0  0  0  0  0
   -1.6714   -2.3525    0.0000 O   0  0  0  0  0  0  0  0  0  0  0  0
   -1.2416   -0.4794    0.0000 O   0  0  0  0  0  0  0  0  0  0  0  0
   -2.1203    4.2688    0.0000 H   0  0  0  0  0  0  0  0  0  0  0  0
   -0.2633    2.4814    0.0000 H   0  0  0  0  0  0  0  0  0  0  0  0
    0.9503    3.2370    0.0000 H   0  0  0  0  0  0  0  0  0  0  0  0
    2.8401    6.1324    0.0000 H   0  0  0  0  0  0  0  0  0  0  0  0
    1.9187    6.7658    0.0000 H   0  0  0  0  0  0  0  0  0  0  0  0
    1.0364    7.1740    0.0000 H   0  0  0  0  0  0  0  0  0  0  0  0
    0.1493    6.4934    0.0000 H   0  0  0  0  0  0  0  0  0  0  0  0
    1.9536    3.3861    0.0000 H   0  0  0  0  0  0  0  0  0  0  0  0
   -0.5343    0.5170    0.0000 H   0  0  0  0  0  0  0  0  0  0  0  0
   -1.0692    1.4437    0.0000 H   0  0  0  0  0  0  0  0  0  0  0  0
   -0.9468    1.2316    0.0000 H   0  0  0  0  0  0  0  0  0  0  0  0
   -2.3068    2.1584    0.0000 H   0  0  0  0  0  0  0  0  0  0  0  0
   -3.7893    1.4437    0.0000 H   0  0  0  0  0  0  0  0  0  0  0  0
   -3.5444    1.4437    0.0000 H   0  0  0  0  0  0  0  0  0  0  0  0
   -5.5619   -0.1971    0.0000 H   0  0  0  0  0  0  0  0  0  0  0  0
   -3.9570   -1.1239    0.0000 H   0  0  0  0  0  0  0  0  0  0  0  0
   -5.0270   -1.1238    0.0000 H   0  0  0  0  0  0  0  0  0  0  0  0
   -3.9568    2.1583    0.0000 H   0  0  0  0  0  0  0  0  0  0  0  0
   -5.5619    1.2318    0.0000 H   0  0  0  0  0  0  0  0  0  0  0  0
   -5.0268    2.1584    0.0000 H   0  0  0  0  0  0  0  0  0  0  0  0
   -2.7193    2.8728    0.0000 H   0  0  0  0  0  0  0  0  0  0  0  0
   -4.3243    1.9461    0.0000 H   0  0  0  0  0  0  0  0  0  0  0  0
   -3.7893    2.8727    0.0000 H   0  0  0  0  0  0  0  0  0  0  0  0
   -2.3459   -2.0635    0.0000 H   0  0  0  0  0  0  0  0  0  0  0  0
   -2.5336   -1.9060    0.0000 H   0  0  0  0  0  0  0  0  0  0  0  0
   -1.5725   -0.5701    0.0000 H   0  0  0  0  0  0  0  0  0  0  0  0
    0.3959   -0.0794    0.0000 H   0  0  0  0  0  0  0  0  0  0  0  0
   -1.4293    0.2425    0.0000 H   0  0  0  0  0  0  0  0  0  0  0  0
   -0.4238    0.6084    0.0000 H   0  0  0  0  0  0  0  0  0  0  0  0
   -3.7551   -0.6042    0.0000 H   0  0  0  0  0  0  0  0  0  0  0  0
   -3.1211   -2.3457    0.0000 H   0  0  0  0  0  0  0  0  0  0  0  0
   -3.9409   -1.6579    0.0000 H   0  0  0  0  0  0  0  0  0  0  0  0
    0.8921   -2.6442    0.0000 H   0  0  0  0  0  0  0  0  0  0  0  0
   -0.7249   -1.6694    0.0000 H   0  0  0  0  0  0  0  0  0  0  0  0
   -1.4454   -3.5859    0.0000 H   0  0  0  0  0  0  0  0  0  0  0  0
   -1.1000   -4.7638    0.0000 H   0  0  0  0  0  0  0  0  0  0  0  0
   -0.3343   -5.7050    0.0000 H   0  0  0  0  0  0  0  0  0  0  0  0
    1.9687   -6.4785    0.0000 H   0  0  0  0  0  0  0  0  0  0  0  0
    2.7552   -6.0179    0.0000 H   0  0  0  0  0  0  0  0  0  0  0  0
    2.2479   -6.1826    0.0000 H   0  0  0  0  0  0  0  0  0  0  0  0
    3.2930   -5.7311    0.0000 H   0  0  0  0  0  0  0  0  0  0  0  0
    4.1018   -4.9435    0.0000 H   0  0  0  0  0  0  0  0  0  0  0  0
    4.8227   -3.0295    0.0000 H   0  0  0  0  0  0  0  0  0  0  0  0
    3.7126   -0.9091    0.0000 H   0  0  0  0  0  0  0  0  0  0  0  0
    5.2138   -2.4682    0.0000 H   0  0  0  0  0  0  0  0  0  0  0  0
    4.2869   -0.8633    0.0000 H   0  0  0  0  0  0  0  0  0  0  0  0
    5.2137   -1.3982    0.0000 H   0  0  0  0  0  0  0  0  0  0  0  0
    4.7260   -5.2344    0.0000 H   0  0  0  0  0  0  0  0  0  0  0  0
    5.2791   -3.4656    0.0000 H   0  0  0  0  0  0  0  0  0  0  0  0
    5.5131   -4.5096    0.0000 H   0  0  0  0  0  0  0  0  0  0  0  0
    2.5265   -6.8317    0.0000 H   0  0  0  0  0  0  0  0  0  0  0  0
    4.1315   -5.9051    0.0000 H   0  0  0  0  0  0  0  0  0  0  0  0
    3.5965   -6.8318    0.0000 H   0  0  0  0  0  0  0  0  0  0  0  0
   -0.2395   -6.3440    0.0000 H   0  0  0  0  0  0  0  0  0  0  0  0
    1.5293   -6.8971    0.0000 H   0  0  0  0  0  0  0  0  0  0  0  0
    0.4853   -7.1311    0.0000 H   0  0  0  0  0  0  0  0  0  0  0  0
    4.1006   -1.1133    0.0000 H   0  0  0  0  0  0  0  0  0  0  0  0
    3.6996    0.6961    0.0000 H   0  0  0  0  0  0  0  0  0  0  0  0
    4.4225   -0.0929    0.0000 H   0  0  0  0  0  0  0  0  0  0  0  0
   -2.7318   -2.7288    0.0000 H   0  0  0  0  0  0  0  0  0  0  0  0
   -1.4215   -4.0394    0.0000 H   0  0  0  0  0  0  0  0  0  0  0  0
   -2.4550   -3.7623    0.0000 H   0  0  0  0  0  0  0  0  0  0  0  0
    3.7736   -6.1515    0.0000 H   0  0  0  0  0  0  0  0  0  0  0  0
   -2.5829   -2.6842    0.0000 H   0  0  0  0  0  0  0  0  0  0  0  0
   -1.0732   -1.4347    0.0000 H   0  0  0  0  0  0  0  0  0  0  0  0
  1  2  1  0  0  0  0
  1  5  2  0  0  0  0
  1  6  1  0  0  0  0
  2  3  2  0  0  0  0
  2 59  1  0  0  0  0
  3  4  1  0  0  0  0
  3 60  1  0  0  0  0
  4  7  2  0  0  0  0
  4  8  1  0  0  0  0
  8  9  1  0  0  0  0
  8 61  1  0  0  0  0
  9 10  2  0  0  0  0
  9 13  1  0  0  0  0
 10 11  1  0  0  0  0
 10 15  1  0  0  0  0
 11 12  1  0  0  0  0
 11 62  1  0  0  0  0
 11 63  1  0  0  0  0
 12 13  1  0  0  0  0
 12 64  1  0  0  0  0
 12 65  1  0  0  0  0
 13 14  2  0  0  0  0
 15 66  1  0  0  0  0
 16 17  1  0  0  0  0
 16 21  1  0  0  0  0
 16 26  1  0  0  0  0
 16 58  1  1  0  0  0
 17 18  1  0  0  0  0
 17 67  1  0  0  0  0
 17 68  1  0  0  0  0
 18 19  1  0  0  0  0
 18  6  1  0  0  0  0
 18 69  1  1  0  0  0
 19 20  1  0  0  0  0
 19 25  1  0  0  0  0
 19 70  1  6  0  0  0
 20 21  1  0  0  0  0
 20 22  1  0  0  0  0
 20 71  1  1  0  0  0
 22 23  1  0  0  0  0
 22 24  1  0  0  0  0
 22 72  1  0  0  0  0
 23 73  1  0  0  0  0
 23 74  1  0  0  0  0
 23 75  1  0  0  0  0
 24 76  1  0  0  0  0
 24 77  1  0  0  0  0
 24 78  1  0  0  0  0
 25 79  1  0  0  0  0
 25 80  1  0  0  0  0
 25 81  1  0  0  0  0
 26 27  1  0  0  0  0
 26 30  1  0  0  0  0
 26 82  1  1  0  0  0
 27 28  1  0  0  0  0
 27 57  1  0  0  0  0
 27 83  1  6  0  0  0
 28 29  1  0  0  0  0
 28 32  1  0  0  0  0
 28 84  1  1  0  0  0
 29 85  1  0  0  0  0
 29 86  1  0  0  0  0
 29 87  1  0  0  0  0
 30 88  1  0  0  0  0
 30 89  1  0  0  0  0
 30 90  1  0  0  0  0
 31 32  1  0  0  0  0
 31 46  1  0  0  0  0
 32 33  1  0  0  0  0
 32 91  1  0  0  0  0
 33 34  1  0  0  0  0
 33 54  1  0  0  0  0
 33 92  1  1  0  0  0
 34 35  2  0  0  0  0
 34 93  1  0  0  0  0
 35 36  1  0  0  0  0
 35 94  1  0  0  0  0
 36 37  2  0  0  0  0
 36 95  1  0  0  0  0
 37 38  1  0  0  0  0
 37 51  1  0  0  0  0
 38 39  1  0  0  0  0
 38 96  1  0  0  0  0
 38 97  1  0  0  0  0
 39 40  1  0  0  0  0
 39 50  1  0  0  0  0
 39 98  1  6  0  0  0
 40 41  1  0  0  0  0
 40 56  1  0  0  0  0
 40 99  1  6  0  0  0
 41 42  1  0  0  0  0
 41 49  1  0  0  0  0
 41100  1  6  0  0  0
 42 43  2  0  0  0  0
 42101  1  0  0  0  0
 43 44  1  0  0  0  0
 43 48  1  0  0  0  0
 44 45  2  0  0  0  0
 44102  1  0  0  0  0
 45 46  1  0  0  0  0
 45 52  1  0  0  0  0
 46 47  2  0  0  0  0
 48103  1  0  0  0  0
 48104  1  0  0  0  0
 48105  1  0  0  0  0
 49106  1  0  0  0  0
 49107  1  0  0  0  0
 49108  1  0  0  0  0
 50109  1  0  0  0  0
 50110  1  0  0  0  0
 50111  1  0  0  0  0
 51112  1  0  0  0  0
 51113  1  0  0  0  0
 51114  1  0  0  0  0
 52 53  1  0  0  0  0
 53115  1  0  0  0  0
 53116  1  0  0  0  0
 53117  1  0  0  0  0
 54 55  1  0  0  0  0
 55118  1  0  0  0  0
 55119  1  0  0  0  0
 55120  1  0  0  0  0
 56121  1  0  0  0  0
 57122  1  0  0  0  0
 58123  1  0  0  0  0
M  END
>  <DRUGBANK_ID>
DB06734

>  <COMMON_NAME>
Bafilomycin B1

>  <CAS_NUMBER>
88899-56-3

>  <SYNONYMS>
Setamycin

$$$$
