
 OpenBabel10282417072D

 39 40  0  0  0  0  0  0  0  0999 V2000
    1.1038    0.0789    0.0000 N   0  0  0  0  0  0  0  0  0  0  0  0
   -1.0489   -0.3931    0.0000 C   0  0  0  0  0  0  0  0  0  0  0  0
   -1.0270   -1.2237    0.0000 C   0  0  0  0  0  0  0  0  0  0  0  0
   -0.2947   -1.6200    0.0000 C   0  0  0  0  0  0  0  0  0  0  0  0
    0.3935   -1.1863    0.0000 C   0  0  0  0  0  0  0  0  0  0  0  0
    0.3935   -0.3552    0.0000 C   0  0  0  0  0  0  0  0  0  0  0  0
   -0.3379    0.0192    0.0000 C   0  0  0  0  0  0  0  0  0  0  0  0
   -0.3598    0.8497    0.0000 O   0  0  0  0  0  0  0  0  0  0  0  0
   -1.1139    1.2453    0.0000 C   0  0  0  0  0  0  0  0  0  0  0  0
   -1.7373   -1.6580    0.0000 N   0  3  0  0  0  0  0  0  0  0  0  0
    1.8285   -0.3153    0.0000 S   0  0  0  0  0  0  0  0  0  0  0  0
    2.5429    0.0971    0.0000 C   0  0  0  0  0  0  0  0  0  0  0  0
    1.4159   -1.0299    0.0000 O   0  0  0  0  0  0  0  0  0  0  0  0
    2.2409   -1.0299    0.0000 O   0  0  0  0  0  0  0  0  0  0  0  0
   -1.8284    2.4828    0.0000 C   0  0  0  0  0  0  0  0  0  0  0  0
   -2.5429    2.0703    0.0000 C   0  0  0  0  0  0  0  0  0  0  0  0
   -2.5429    1.2453    0.0000 C   0  0  0  0  0  0  0  0  0  0  0  0
   -1.8284    0.8327    0.0000 C   0  0  0  0  0  0  0  0  0  0  0  0
   -1.1139    2.0703    0.0000 C   0  0  0  0  0  0  0  0  0  0  0  0
   -1.7165   -2.4828    0.0000 O   0  0  0  0  0  0  0  0  0  0  0  0
   -2.4619   -1.2637    0.0000 O   0  5  0  0  0  0  0  0  0  0  0  0
    1.0790    1.0631    0.0000 H   0  0  0  0  0  0  0  0  0  0  0  0
   -1.9498    0.1102    0.0000 H   0  0  0  0  0  0  0  0  0  0  0  0
   -0.2605   -2.6514    0.0000 H   0  0  0  0  0  0  0  0  0  0  0  0
    1.2971   -1.6849    0.0000 H   0  0  0  0  0  0  0  0  0  0  0  0
   -2.0406    1.7803    0.0000 H   0  0  0  0  0  0  0  0  0  0  0  0
    3.4695   -0.4380    0.0000 H   0  0  0  0  0  0  0  0  0  0  0  0
    2.5430    1.1671    0.0000 H   0  0  0  0  0  0  0  0  0  0  0  0
    3.4696    0.6320    0.0000 H   0  0  0  0  0  0  0  0  0  0  0  0
   -1.8284    3.5528    0.0000 H   0  0  0  0  0  0  0  0  0  0  0  0
   -0.9018    3.0178    0.0000 H   0  0  0  0  0  0  0  0  0  0  0  0
   -3.4695    2.6053    0.0000 H   0  0  0  0  0  0  0  0  0  0  0  0
   -3.4695    1.5353    0.0000 H   0  0  0  0  0  0  0  0  0  0  0  0
   -3.4696    0.7103    0.0000 H   0  0  0  0  0  0  0  0  0  0  0  0
   -2.5430    0.1753    0.0000 H   0  0  0  0  0  0  0  0  0  0  0  0
   -1.8284   -0.2373    0.0000 H   0  0  0  0  0  0  0  0  0  0  0  0
   -2.7551    0.2977    0.0000 H   0  0  0  0  0  0  0  0  0  0  0  0
   -0.1873    2.6053    0.0000 H   0  0  0  0  0  0  0  0  0  0  0  0
   -1.1139    3.1403    0.0000 H   0  0  0  0  0  0  0  0  0  0  0  0
  1 11  1  0  0  0  0
  1 22  1  0  0  0  0
  2 23  1  0  0  0  0
  3  2  1  0  0  0  0
  4  3  2  0  0  0  0
  4 24  1  0  0  0  0
  5  4  1  0  0  0  0
  5 25  1  0  0  0  0
  6  1  1  0  0  0  0
  6  5  2  0  0  0  0
  7  2  2  0  0  0  0
  7  6  1  0  0  0  0
  8  7  1  0  0  0  0
  9  8  1  0  0  0  0
  9 19  1  0  0  0  0
  9 26  1  0  0  0  0
 10  3  1  0  0  0  0
 10 20  2  0  0  0  0
 10 21  1  0  0  0  0
 11 12  1  0  0  0  0
 11 13  2  0  0  0  0
 12 27  1  0  0  0  0
 12 28  1  0  0  0  0
 12 29  1  0  0  0  0
 14 11  2  0  0  0  0
 15 16  1  0  0  0  0
 15 19  1  0  0  0  0
 15 30  1  0  0  0  0
 15 31  1  0  0  0  0
 16 17  1  0  0  0  0
 16 32  1  0  0  0  0
 16 33  1  0  0  0  0
 17 18  1  0  0  0  0
 17 34  1  0  0  0  0
 17 35  1  0  0  0  0
 18  9  1  0  0  0  0
 18 36  1  0  0  0  0
 18 37  1  0  0  0  0
 19 38  1  0  0  0  0
 19 39  1  0  0  0  0
M  CHG  2  10   1  21  -1
M  END
>  <DRUGBANK_ID>
DB14060

>  <COMMON_NAME>
NS-398

>  <CAS_NUMBER>
123653-11-2

>  <UNII>
9SP55KM2KS

>  <SYNONYMS>
N-(2-Cyclohexyloxy-4-nitrophenyl)methanesulfonamide

$$$$
