
 OpenBabel10282417072D

227230  0  0  0  0  0  0  0  0999 V2000
    5.3819    2.4771    0.0000 N   0  0  0  0  0  0  0  0  0  0  0  0
    6.1666    2.2221    0.0000 C   0  0  2  0  0  0  0  0  0  0  0  0
    6.3380    1.4151    0.0000 C   0  0  0  0  0  0  0  0  0  0  0  0
    5.7250    0.8631    0.0000 N   0  0  0  0  0  0  0  0  0  0  0  0
    5.8965    0.0561    0.0000 C   0  0  2  0  0  0  0  0  0  0  0  0
    5.2834   -0.4958    0.0000 C   0  0  0  0  0  0  0  0  0  0  0  0
    5.4549   -1.3027    0.0000 N   0  0  0  0  0  0  0  0  0  0  0  0
    4.8418   -1.8548    0.0000 C   0  0  2  0  0  0  0  0  0  0  0  0
    4.0572   -1.5998    0.0000 C   0  0  0  0  0  0  0  0  0  0  0  0
    3.8857   -0.7928    0.0000 N   0  0  0  0  0  0  0  0  0  0  0  0
    3.1011   -0.5379    0.0000 C   0  0  2  0  0  0  0  0  0  0  0  0
    2.4880   -1.0899    0.0000 C   0  0  0  0  0  0  0  0  0  0  0  0
    2.6595   -1.8969    0.0000 N   0  0  0  0  0  0  0  0  0  0  0  0
    2.0464   -2.4489    0.0000 C   0  0  2  0  0  0  0  0  0  0  0  0
    1.2618   -2.1940    0.0000 C   0  0  0  0  0  0  0  0  0  0  0  0
    0.6487   -2.7460    0.0000 N   0  0  0  0  0  0  0  0  0  0  0  0
    0.7349   -3.5665    0.0000 C   0  0  0  0  0  0  0  0  0  0  0  0
   -0.0186   -3.9021    0.0000 C   0  0  0  0  0  0  0  0  0  0  0  0
   -0.5707   -3.2889    0.0000 C   0  0  0  0  0  0  0  0  0  0  0  0
   -0.1581   -2.5745    0.0000 C   0  0  1  0  0  0  0  0  0  0  0  0
   -0.4937   -1.8208    0.0000 C   0  0  0  0  0  0  0  0  0  0  0  0
   -0.0088   -1.1533    0.0000 N   0  0  0  0  0  0  0  0  0  0  0  0
   -0.3443   -0.3997    0.0000 C   0  0  2  0  0  0  0  0  0  0  0  0
   -1.1648   -0.3135    0.0000 C   0  0  0  0  0  0  0  0  0  0  0  0
   -1.5003    0.4401    0.0000 N   0  0  0  0  0  0  0  0  0  0  0  0
   -2.3208    0.5264    0.0000 C   0  0  2  0  0  0  0  0  0  0  0  0
   -2.6564    1.2800    0.0000 C   0  0  0  0  0  0  0  0  0  0  0  0
   -2.1715    1.9475    0.0000 N   0  0  0  0  0  0  0  0  0  0  0  0
   -2.5070    2.7011    0.0000 C   0  0  2  0  0  0  0  0  0  0  0  0
   -3.3275    2.7874    0.0000 C   0  0  0  0  0  0  0  0  0  0  0  0
   -3.6630    3.5410    0.0000 N   0  0  0  0  0  0  0  0  0  0  0  0
   -4.4835    3.6273    0.0000 C   0  0  2  0  0  0  0  0  0  0  0  0
   -4.9684    2.9599    0.0000 C   0  0  0  0  0  0  0  0  0  0  0  0
   -5.7889    3.0460    0.0000 N   0  0  0  0  0  0  0  0  0  0  0  0
   -6.2739    2.3786    0.0000 C   0  0  2  0  0  0  0  0  0  0  0  0
   -5.9383    1.6250    0.0000 C   0  0  0  0  0  0  0  0  0  0  0  0
   -6.4232    0.9575    0.0000 N   0  0  0  0  0  0  0  0  0  0  0  0
   -7.2482    0.9575    0.0000 C   0  0  0  0  0  0  0  0  0  0  0  0
   -7.5031    0.1729    0.0000 C   0  0  0  0  0  0  0  0  0  0  0  0
   -6.8357   -0.3119    0.0000 C   0  0  0  0  0  0  0  0  0  0  0  0
   -6.1682    0.1729    0.0000 C   0  0  1  0  0  0  0  0  0  0  0  0
   -5.3836   -0.0819    0.0000 C   0  0  0  0  0  0  0  0  0  0  0  0
   -5.2121   -0.8889    0.0000 N   0  0  0  0  0  0  0  0  0  0  0  0
   -4.4275   -1.1438    0.0000 C   0  0  2  0  0  0  0  0  0  0  0  0
   -3.8144   -0.5918    0.0000 C   0  0  0  0  0  0  0  0  0  0  0  0
   -3.9859    0.2151    0.0000 O   0  0  0  0  0  0  0  0  0  0  0  0
   -3.0298   -0.8467    0.0000 O   0  0  0  0  0  0  0  0  0  0  0  0
   -4.2560   -1.9508    0.0000 C   0  0  0  0  0  0  0  0  0  0  0  0
   -4.8690   -2.5028    0.0000 C   0  0  0  0  0  0  0  0  0  0  0  0
   -4.6975   -3.3098    0.0000 C   0  0  0  0  0  0  0  0  0  0  0  0
   -5.3106   -3.8618    0.0000 N   0  0  0  0  0  0  0  0  0  0  0  0
   -5.1391   -4.6688    0.0000 C   0  0  0  0  0  0  0  0  0  0  0  0
   -4.3545   -4.9237    0.0000 N   0  0  0  0  0  0  0  0  0  0  0  0
   -5.7522   -5.2208    0.0000 N   0  0  0  0  0  0  0  0  0  0  0  0
   -4.7706    0.4700    0.0000 O   0  0  0  0  0  0  0  0  0  0  0  0
   -5.1178    1.5388    0.0000 O   0  0  0  0  0  0  0  0  0  0  0  0
   -7.0943    2.4649    0.0000 C   0  0  0  0  0  0  0  0  0  0  0  0
   -7.4299    3.2185    0.0000 C   0  0  0  0  0  0  0  0  0  0  0  0
   -8.2503    3.3048    0.0000 C   0  0  0  0  0  0  0  0  0  0  0  0
   -6.9450    3.8860    0.0000 C   0  0  0  0  0  0  0  0  0  0  0  0
   -4.6329    2.2062    0.0000 O   0  0  0  0  0  0  0  0  0  0  0  0
   -4.8190    4.3809    0.0000 C   0  0  0  0  0  0  0  0  0  0  0  0
   -5.6396    4.4672    0.0000 C   0  0  0  0  0  0  0  0  0  0  0  0
   -6.1244    3.7997    0.0000 O   0  0  0  0  0  0  0  0  0  0  0  0
   -5.9751    5.2208    0.0000 O   0  0  0  0  0  0  0  0  0  0  0  0
   -3.8124    2.1199    0.0000 O   0  0  0  0  0  0  0  0  0  0  0  0
   -2.0221    3.3685    0.0000 C   0  0  0  0  0  0  0  0  0  0  0  0
   -2.3577    4.1222    0.0000 C   0  0  0  0  0  0  0  0  0  0  0  0
   -1.2016    3.2823    0.0000 C   0  0  0  0  0  0  0  0  0  0  0  0
   -3.4769    1.3662    0.0000 O   0  0  0  0  0  0  0  0  0  0  0  0
   -2.8058   -0.1410    0.0000 C   0  0  0  0  0  0  0  0  0  0  0  0
   -2.4702   -0.8946    0.0000 C   0  0  0  0  0  0  0  0  0  0  0  0
   -2.9551   -1.5621    0.0000 C   0  0  0  0  0  0  0  0  0  0  0  0
   -2.6195   -2.3158    0.0000 C   0  0  0  0  0  0  0  0  0  0  0  0
   -3.1045   -2.9832    0.0000 N   0  0  0  0  0  0  0  0  0  0  0  0
   -1.6498   -0.9809    0.0000 O   0  0  0  0  0  0  0  0  0  0  0  0
    0.1405    0.2676    0.0000 C   0  0  0  0  0  0  0  0  0  0  0  0
    0.9610    0.1814    0.0000 O   0  0  0  0  0  0  0  0  0  0  0  0
   -1.3142   -1.7346    0.0000 O   0  0  0  0  0  0  0  0  0  0  0  0
    1.0903   -1.3870    0.0000 O   0  0  0  0  0  0  0  0  0  0  0  0
    2.2179   -3.2559    0.0000 C   0  0  0  0  0  0  0  0  0  0  0  0
    3.0025   -3.5108    0.0000 C   0  0  0  0  0  0  0  0  0  0  0  0
    3.2575   -4.2954    0.0000 C   0  0  0  0  0  0  0  0  0  0  0  0
    4.0825   -4.2954    0.0000 N   0  0  0  0  0  0  0  0  0  0  0  0
    4.3374   -3.5108    0.0000 C   0  0  0  0  0  0  0  0  0  0  0  0
    3.6700   -3.0259    0.0000 N   0  0  0  0  0  0  0  0  0  0  0  0
    1.7034   -0.8350    0.0000 O   0  0  0  0  0  0  0  0  0  0  0  0
    2.9295    0.2690    0.0000 C   0  0  0  0  0  0  0  0  0  0  0  0
    3.5427    0.8210    0.0000 C   0  0  0  0  0  0  0  0  0  0  0  0
    3.3711    1.6280    0.0000 C   0  0  0  0  0  0  0  0  0  0  0  0
    4.3273    0.5660    0.0000 C   0  0  0  0  0  0  0  0  0  0  0  0
    3.4441   -2.1518    0.0000 O   0  0  0  0  0  0  0  0  0  0  0  0
    5.0134   -2.6617    0.0000 C   0  0  0  0  0  0  0  0  0  0  0  0
    5.7980   -2.9167    0.0000 C   0  0  0  0  0  0  0  0  0  0  0  0
    6.4110   -2.3646    0.0000 C   0  0  0  0  0  0  0  0  0  0  0  0
    7.1957   -2.6195    0.0000 C   0  0  0  0  0  0  0  0  0  0  0  0
    7.3672   -3.4265    0.0000 C   0  0  0  0  0  0  0  0  0  0  0  0
    6.7541   -3.9785    0.0000 C   0  0  0  0  0  0  0  0  0  0  0  0
    5.9695   -3.7236    0.0000 C   0  0  0  0  0  0  0  0  0  0  0  0
    4.4988   -0.2408    0.0000 O   0  0  0  0  0  0  0  0  0  0  0  0
    6.6811   -0.1987    0.0000 C   0  0  0  0  0  0  0  0  0  0  0  0
    6.8526   -1.0056    0.0000 C   0  0  0  0  0  0  0  0  0  0  0  0
    7.6372   -1.2606    0.0000 C   0  0  0  0  0  0  0  0  0  0  0  0
    8.2503   -0.7085    0.0000 O   0  0  0  0  0  0  0  0  0  0  0  0
    7.8088   -2.0675    0.0000 O   0  0  0  0  0  0  0  0  0  0  0  0
    7.1227    1.1602    0.0000 O   0  0  0  0  0  0  0  0  0  0  0  0
    6.7796    2.7741    0.0000 C   0  0  0  0  0  0  0  0  0  0  0  0
    6.6082    3.5811    0.0000 C   0  0  0  0  0  0  0  0  0  0  0  0
    5.8235    3.8360    0.0000 C   0  0  0  0  0  0  0  0  0  0  0  0
    5.6520    4.6430    0.0000 C   0  0  0  0  0  0  0  0  0  0  0  0
    4.8674    4.8980    0.0000 N   0  0  0  0  0  0  0  0  0  0  0  0
    5.1699    3.4748    0.0000 H   0  0  0  0  0  0  0  0  0  0  0  0
    4.6239    1.7946    0.0000 H   0  0  0  0  0  0  0  0  0  0  0  0
    5.3714    1.5062    0.0000 H   0  0  0  0  0  0  0  0  0  0  0  0
    4.7887    1.1673    0.0000 H   0  0  0  0  0  0  0  0  0  0  0  0
    6.6916    0.7721    0.0000 H   0  0  0  0  0  0  0  0  0  0  0  0
    6.3912   -1.6069    0.0000 H   0  0  0  0  0  0  0  0  0  0  0  0
    5.8595   -2.1854    0.0000 H   0  0  0  0  0  0  0  0  0  0  0  0
    4.6173   -0.1340    0.0000 H   0  0  0  0  0  0  0  0  0  0  0  0
    3.3236   -1.5845    0.0000 H   0  0  0  0  0  0  0  0  0  0  0  0
    3.5958   -2.2012    0.0000 H   0  0  0  0  0  0  0  0  0  0  0  0
    3.0640   -2.7796    0.0000 H   0  0  0  0  0  0  0  0  0  0  0  0
    1.6616   -4.1015    0.0000 H   0  0  0  0  0  0  0  0  0  0  0  0
    0.6790   -4.6350    0.0000 H   0  0  0  0  0  0  0  0  0  0  0  0
   -0.2410   -4.9487    0.0000 H   0  0  0  0  0  0  0  0  0  0  0  0
   -1.0521   -4.1791    0.0000 H   0  0  0  0  0  0  0  0  0  0  0  0
   -1.6348   -3.4007    0.0000 H   0  0  0  0  0  0  0  0  0  0  0  0
   -1.1534   -2.3915    0.0000 H   0  0  0  0  0  0  0  0  0  0  0  0
   -1.2266   -2.5184    0.0000 H   0  0  0  0  0  0  0  0  0  0  0  0
    0.9703   -1.2562    0.0000 H   0  0  0  0  0  0  0  0  0  0  0  0
   -0.9732   -1.2654    0.0000 H   0  0  0  0  0  0  0  0  0  0  0  0
   -0.9216    1.2365    0.0000 H   0  0  0  0  0  0  0  0  0  0  0  0
   -1.8857   -0.4511    0.0000 H   0  0  0  0  0  0  0  0  0  0  0  0
   -1.1924    1.8446    0.0000 H   0  0  0  0  0  0  0  0  0  0  0  0
   -3.1360    1.8355    0.0000 H   0  0  0  0  0  0  0  0  0  0  0  0
   -3.0843    4.3374    0.0000 H   0  0  0  0  0  0  0  0  0  0  0  0
   -4.0483    2.6498    0.0000 H   0  0  0  0  0  0  0  0  0  0  0  0
   -6.1894    3.9454    0.0000 H   0  0  0  0  0  0  0  0  0  0  0  0
   -5.2098    2.2667    0.0000 H   0  0  0  0  0  0  0  0  0  0  0  0
   -7.8771    1.8231    0.0000 H   0  0  0  0  0  0  0  0  0  0  0  0
   -8.3050    0.7901    0.0000 H   0  0  0  0  0  0  0  0  0  0  0  0
   -8.5207   -0.1578    0.0000 H   0  0  0  0  0  0  0  0  0  0  0  0
   -7.6704   -0.8839    0.0000 H   0  0  0  0  0  0  0  0  0  0  0  0
   -6.8357   -1.3819    0.0000 H   0  0  0  0  0  0  0  0  0  0  0  0
   -5.8824   -0.7978    0.0000 H   0  0  0  0  0  0  0  0  0  0  0  0
   -6.0008   -0.8839    0.0000 H   0  0  0  0  0  0  0  0  0  0  0  0
   -5.9437   -1.5477    0.0000 H   0  0  0  0  0  0  0  0  0  0  0  0
   -5.2227   -1.8598    0.0000 H   0  0  0  0  0  0  0  0  0  0  0  0
   -2.8350   -1.7632    0.0000 H   0  0  0  0  0  0  0  0  0  0  0  0
   -3.2384   -2.2814    0.0000 H   0  0  0  0  0  0  0  0  0  0  0  0
   -4.0335   -2.9974    0.0000 H   0  0  0  0  0  0  0  0  0  0  0  0
   -5.8866   -2.1722    0.0000 H   0  0  0  0  0  0  0  0  0  0  0  0
   -5.6642   -3.2188    0.0000 H   0  0  0  0  0  0  0  0  0  0  0  0
   -3.6799   -3.6405    0.0000 H   0  0  0  0  0  0  0  0  0  0  0  0
   -4.4751   -4.3564    0.0000 H   0  0  0  0  0  0  0  0  0  0  0  0
   -6.2469   -3.5575    0.0000 H   0  0  0  0  0  0  0  0  0  0  0  0
   -4.1498   -5.8867    0.0000 H   0  0  0  0  0  0  0  0  0  0  0  0
   -6.6885   -4.9165    0.0000 H   0  0  0  0  0  0  0  0  0  0  0  0
   -5.5475   -6.1838    0.0000 H   0  0  0  0  0  0  0  0  0  0  0  0
   -7.7232    1.5993    0.0000 H   0  0  0  0  0  0  0  0  0  0  0  0
   -8.1584    2.5767    0.0000 H   0  0  0  0  0  0  0  0  0  0  0  0
   -7.8651    4.1960    0.0000 H   0  0  0  0  0  0  0  0  0  0  0  0
   -8.6854    4.2823    0.0000 H   0  0  0  0  0  0  0  0  0  0  0  0
   -8.8793    2.4392    0.0000 H   0  0  0  0  0  0  0  0  0  0  0  0
   -9.3144    3.4167    0.0000 H   0  0  0  0  0  0  0  0  0  0  0  0
   -5.8809    3.7742    0.0000 H   0  0  0  0  0  0  0  0  0  0  0  0
   -7.3803    4.8635    0.0000 H   0  0  0  0  0  0  0  0  0  0  0  0
   -6.3161    4.7517    0.0000 H   0  0  0  0  0  0  0  0  0  0  0  0
   -4.1900    5.2465    0.0000 H   0  0  0  0  0  0  0  0  0  0  0  0
   -5.2542    5.3584    0.0000 H   0  0  0  0  0  0  0  0  0  0  0  0
   -5.4243    5.9788    0.0000 H   0  0  0  0  0  0  0  0  0  0  0  0
   -1.3932    4.2342    0.0000 H   0  0  0  0  0  0  0  0  0  0  0  0
   -1.7288    4.9879    0.0000 H   0  0  0  0  0  0  0  0  0  0  0  0
   -3.4218    4.2340    0.0000 H   0  0  0  0  0  0  0  0  0  0  0  0
   -2.7929    5.0997    0.0000 H   0  0  0  0  0  0  0  0  0  0  0  0
   -0.7663    2.3048    0.0000 H   0  0  0  0  0  0  0  0  0  0  0  0
   -0.5727    4.1480    0.0000 H   0  0  0  0  0  0  0  0  0  0  0  0
   -0.1375    3.1705    0.0000 H   0  0  0  0  0  0  0  0  0  0  0  0
   -3.8699   -0.0291    0.0000 H   0  0  0  0  0  0  0  0  0  0  0  0
   -3.4347   -1.0067    0.0000 H   0  0  0  0  0  0  0  0  0  0  0  0
   -1.4061   -1.0064    0.0000 H   0  0  0  0  0  0  0  0  0  0  0  0
   -2.0349   -1.8721    0.0000 H   0  0  0  0  0  0  0  0  0  0  0  0
   -4.0192   -1.4503    0.0000 H   0  0  0  0  0  0  0  0  0  0  0  0
   -3.5840   -2.4278    0.0000 H   0  0  0  0  0  0  0  0  0  0  0  0
   -1.5554   -2.4277    0.0000 H   0  0  0  0  0  0  0  0  0  0  0  0
   -2.1844   -3.2933    0.0000 H   0  0  0  0  0  0  0  0  0  0  0  0
   -4.1189   -2.8765    0.0000 H   0  0  0  0  0  0  0  0  0  0  0  0
   -2.6897   -3.9151    0.0000 H   0  0  0  0  0  0  0  0  0  0  0  0
   -0.2947    1.2451    0.0000 H   0  0  0  0  0  0  0  0  0  0  0  0
    0.7694    1.1333    0.0000 H   0  0  0  0  0  0  0  0  0  0  0  0
    1.3556   -0.7047    0.0000 H   0  0  0  0  0  0  0  0  0  0  0  0
    1.4227   -3.9719    0.0000 H   0  0  0  0  0  0  0  0  0  0  0  0
    2.4404   -4.3025    0.0000 H   0  0  0  0  0  0  0  0  0  0  0  0
    2.6509   -5.1303    0.0000 H   0  0  0  0  0  0  0  0  0  0  0  0
    5.3189   -3.1919    0.0000 H   0  0  0  0  0  0  0  0  0  0  0  0
    3.6700   -2.0414    0.0000 H   0  0  0  0  0  0  0  0  0  0  0  0
    1.9119    0.5997    0.0000 H   0  0  0  0  0  0  0  0  0  0  0  0
    2.7071    1.3156    0.0000 H   0  0  0  0  0  0  0  0  0  0  0  0
    4.3379    1.5370    0.0000 H   0  0  0  0  0  0  0  0  0  0  0  0
    4.1662    2.3440    0.0000 H   0  0  0  0  0  0  0  0  0  0  0  0
    2.3534    1.9586    0.0000 H   0  0  0  0  0  0  0  0  0  0  0  0
    3.1486    2.6746    0.0000 H   0  0  0  0  0  0  0  0  0  0  0  0
    4.5497   -0.4806    0.0000 H   0  0  0  0  0  0  0  0  0  0  0  0
    5.1225    1.2819    0.0000 H   0  0  0  0  0  0  0  0  0  0  0  0
    5.3449    0.2353    0.0000 H   0  0  0  0  0  0  0  0  0  0  0  0
    4.2182   -3.3777    0.0000 H   0  0  0  0  0  0  0  0  0  0  0  0
    5.2358   -3.7083    0.0000 H   0  0  0  0  0  0  0  0  0  0  0  0
    6.1963   -1.3552    0.0000 H   0  0  0  0  0  0  0  0  0  0  0  0
    7.9626   -1.9289    0.0000 H   0  0  0  0  0  0  0  0  0  0  0  0
    8.3487   -3.7454    0.0000 H   0  0  0  0  0  0  0  0  0  0  0  0
    6.9687   -4.9879    0.0000 H   0  0  0  0  0  0  0  0  0  0  0  0
    5.2026   -4.4142    0.0000 H   0  0  0  0  0  0  0  0  0  0  0  0
    7.4762    0.5173    0.0000 H   0  0  0  0  0  0  0  0  0  0  0  0
    7.6987   -0.5293    0.0000 H   0  0  0  0  0  0  0  0  0  0  0  0
    6.0574   -1.7215    0.0000 H   0  0  0  0  0  0  0  0  0  0  0  0
    7.0750   -2.0522    0.0000 H   0  0  0  0  0  0  0  0  0  0  0  0
    7.1125   -2.6945    0.0000 H   0  0  0  0  0  0  0  0  0  0  0  0
    7.7972    2.4434    0.0000 H   0  0  0  0  0  0  0  0  0  0  0  0
    7.5748    3.4900    0.0000 H   0  0  0  0  0  0  0  0  0  0  0  0
    7.4034    4.2970    0.0000 H   0  0  0  0  0  0  0  0  0  0  0  0
    6.3857    4.6277    0.0000 H   0  0  0  0  0  0  0  0  0  0  0  0
    5.0283    3.1200    0.0000 H   0  0  0  0  0  0  0  0  0  0  0  0
    4.8059    4.1667    0.0000 H   0  0  0  0  0  0  0  0  0  0  0  0
    6.4472    5.3589    0.0000 H   0  0  0  0  0  0  0  0  0  0  0  0
    5.4296    5.6896    0.0000 H   0  0  0  0  0  0  0  0  0  0  0  0
    4.6554    5.8957    0.0000 H   0  0  0  0  0  0  0  0  0  0  0  0
    4.1093    4.2155    0.0000 H   0  0  0  0  0  0  0  0  0  0  0  0
  1112  1  0  0  0  0
  1113  1  0  0  0  0
  2  1  1  0  0  0  0
  2  3  1  0  0  0  0
  2107  1  0  0  0  0
  2114  1  6  0  0  0
  3  4  1  0  0  0  0
  3106  2  0  0  0  0
  4  5  1  0  0  0  0
  4115  1  0  0  0  0
  5  6  1  0  0  0  0
  5101  1  0  0  0  0
  5116  1  6  0  0  0
  6  7  1  0  0  0  0
  6100  2  0  0  0  0
  7  8  1  0  0  0  0
  7117  1  0  0  0  0
  8  9  1  0  0  0  0
  8 93  1  0  0  0  0
  8118  1  6  0  0  0
  9 10  1  0  0  0  0
  9 92  2  0  0  0  0
 10 11  1  0  0  0  0
 10119  1  0  0  0  0
 11 12  1  0  0  0  0
 11 88  1  0  0  0  0
 11120  1  1  0  0  0
 12 13  1  0  0  0  0
 12 87  2  0  0  0  0
 13 14  1  0  0  0  0
 13121  1  0  0  0  0
 14 15  1  0  0  0  0
 14 81  1  0  0  0  0
 14122  1  6  0  0  0
 15 16  1  0  0  0  0
 15 80  2  0  0  0  0
 16 17  1  0  0  0  0
 16 20  1  0  0  0  0
 17 18  1  0  0  0  0
 17123  1  0  0  0  0
 17124  1  0  0  0  0
 18 19  1  0  0  0  0
 18125  1  0  0  0  0
 18126  1  0  0  0  0
 19 20  1  0  0  0  0
 19127  1  0  0  0  0
 19128  1  0  0  0  0
 20 21  1  0  0  0  0
 20129  1  6  0  0  0
 21 22  1  0  0  0  0
 21 79  2  0  0  0  0
 22 23  1  0  0  0  0
 22130  1  0  0  0  0
 23 24  1  0  0  0  0
 23 77  1  0  0  0  0
 23131  1  1  0  0  0
 24 25  1  0  0  0  0
 24 76  2  0  0  0  0
 25 26  1  0  0  0  0
 25132  1  0  0  0  0
 26 27  1  0  0  0  0
 26 71  1  0  0  0  0
 26133  1  6  0  0  0
 27 28  1  0  0  0  0
 27 70  2  0  0  0  0
 28 29  1  0  0  0  0
 28134  1  0  0  0  0
 29 30  1  0  0  0  0
 29 67  1  0  0  0  0
 29135  1  1  0  0  0
 30 31  1  0  0  0  0
 30 66  2  0  0  0  0
 31 32  1  0  0  0  0
 31136  1  0  0  0  0
 32 33  1  0  0  0  0
 32 62  1  0  0  0  0
 32137  1  1  0  0  0
 33 34  1  0  0  0  0
 33 61  2  0  0  0  0
 34 35  1  0  0  0  0
 34138  1  0  0  0  0
 35 36  1  0  0  0  0
 35 57  1  0  0  0  0
 35139  1  1  0  0  0
 36 37  1  0  0  0  0
 36 56  2  0  0  0  0
 37 38  1  0  0  0  0
 37 41  1  0  0  0  0
 38 39  1  0  0  0  0
 38140  1  0  0  0  0
 38141  1  0  0  0  0
 39 40  1  0  0  0  0
 39142  1  0  0  0  0
 39143  1  0  0  0  0
 40 41  1  0  0  0  0
 40144  1  0  0  0  0
 40145  1  0  0  0  0
 41 42  1  0  0  0  0
 41146  1  1  0  0  0
 42 43  1  0  0  0  0
 42 55  2  0  0  0  0
 43 44  1  0  0  0  0
 43147  1  0  0  0  0
 44 45  1  0  0  0  0
 44 48  1  0  0  0  0
 44148  1  1  0  0  0
 45 46  2  0  0  0  0
 45 47  1  0  0  0  0
 47149  1  0  0  0  0
 48 49  1  0  0  0  0
 48150  1  0  0  0  0
 48151  1  0  0  0  0
 49 50  1  0  0  0  0
 49152  1  0  0  0  0
 49153  1  0  0  0  0
 50 51  1  0  0  0  0
 50154  1  0  0  0  0
 50155  1  0  0  0  0
 51 52  1  0  0  0  0
 51156  1  0  0  0  0
 52 53  2  0  0  0  0
 52 54  1  0  0  0  0
 53157  1  0  0  0  0
 54158  1  0  0  0  0
 54159  1  0  0  0  0
 57 58  1  0  0  0  0
 57160  1  0  0  0  0
 57161  1  0  0  0  0
 58 59  1  0  0  0  0
 58 60  1  0  0  0  0
 58162  1  0  0  0  0
 59163  1  0  0  0  0
 59164  1  0  0  0  0
 59165  1  0  0  0  0
 60166  1  0  0  0  0
 60167  1  0  0  0  0
 60168  1  0  0  0  0
 62 63  1  0  0  0  0
 62169  1  0  0  0  0
 62170  1  0  0  0  0
 63 64  2  0  0  0  0
 63 65  1  0  0  0  0
 65171  1  0  0  0  0
 67 68  1  0  0  0  0
 67 69  1  0  0  0  0
 67172  1  0  0  0  0
 68173  1  0  0  0  0
 68174  1  0  0  0  0
 68175  1  0  0  0  0
 69176  1  0  0  0  0
 69177  1  0  0  0  0
 69178  1  0  0  0  0
 71 72  1  0  0  0  0
 71179  1  0  0  0  0
 71180  1  0  0  0  0
 72 73  1  0  0  0  0
 72181  1  0  0  0  0
 72182  1  0  0  0  0
 73 74  1  0  0  0  0
 73183  1  0  0  0  0
 73184  1  0  0  0  0
 74 75  1  0  0  0  0
 74185  1  0  0  0  0
 74186  1  0  0  0  0
 75187  1  0  0  0  0
 75188  1  0  0  0  0
 77 78  1  0  0  0  0
 77189  1  0  0  0  0
 77190  1  0  0  0  0
 78191  1  0  0  0  0
 81 82  1  0  0  0  0
 81192  1  0  0  0  0
 81193  1  0  0  0  0
 82 83  2  0  0  0  0
 82 86  1  0  0  0  0
 83 84  1  0  0  0  0
 83194  1  0  0  0  0
 84 85  2  0  0  0  0
 85 86  1  0  0  0  0
 85195  1  0  0  0  0
 86196  1  0  0  0  0
 88 89  1  0  0  0  0
 88197  1  0  0  0  0
 88198  1  0  0  0  0
 89 90  1  0  0  0  0
 89 91  1  0  0  0  0
 89199  1  0  0  0  0
 90200  1  0  0  0  0
 90201  1  0  0  0  0
 90202  1  0  0  0  0
 91203  1  0  0  0  0
 91204  1  0  0  0  0
 91205  1  0  0  0  0
 93 94  1  0  0  0  0
 93206  1  0  0  0  0
 93207  1  0  0  0  0
 94 95  2  0  0  0  0
 94 99  1  0  0  0  0
 95 96  1  0  0  0  0
 95208  1  0  0  0  0
 96 97  2  0  0  0  0
 96209  1  0  0  0  0
 97 98  1  0  0  0  0
 97210  1  0  0  0  0
 98 99  2  0  0  0  0
 98211  1  0  0  0  0
 99212  1  0  0  0  0
101102  1  0  0  0  0
101213  1  0  0  0  0
101214  1  0  0  0  0
102103  1  0  0  0  0
102215  1  0  0  0  0
102216  1  0  0  0  0
103104  2  0  0  0  0
103105  1  0  0  0  0
105217  1  0  0  0  0
107108  1  0  0  0  0
107218  1  0  0  0  0
107219  1  0  0  0  0
108109  1  0  0  0  0
108220  1  0  0  0  0
108221  1  0  0  0  0
109110  1  0  0  0  0
109222  1  0  0  0  0
109223  1  0  0  0  0
110111  1  0  0  0  0
110224  1  0  0  0  0
110225  1  0  0  0  0
111226  1  0  0  0  0
111227  1  0  0  0  0
M  END
>  <DRUGBANK_ID>
DB15366

>  <COMMON_NAME>
SOR-C13

>  <CAS_NUMBER>
1187852-48-7

>  <UNII>
C79B5A73C4

>  <SYNONYMS>
H-Lys-Glu-Phe-Leu-His-Pro-Ser-Lys-Val-Asp-Leu-Pro-Arg-OH

$$$$
