
 OpenBabel10282417072D

 19 20  0  0  0  0  0  0  0  0999 V2000
    0.4534   -0.5108    0.0000 C   0  0  0  0  0  0  0  0  0  0  0  0
    0.4383    0.3140    0.0000 C   0  0  0  0  0  0  0  0  0  0  0  0
   -0.2595   -0.9482    0.0000 N   0  0  0  0  0  0  0  0  0  0  0  0
   -1.0031    0.2641    0.0000 N   0  0  0  0  0  0  0  0  0  0  0  0
    1.2212    0.5978    0.0000 N   0  0  0  0  0  0  0  0  0  0  0  0
   -0.2899    0.7015    0.0000 C   0  0  0  0  0  0  0  0  0  0  0  0
   -0.9879   -0.5606    0.0000 C   0  0  0  0  0  0  0  0  0  0  0  0
    1.2342   -0.7435    0.0000 N   0  0  0  0  0  0  0  0  0  0  0  0
    1.7010   -0.0646    0.0000 C   0  0  0  0  0  0  0  0  0  0  0  0
   -0.3052    1.5263    0.0000 O   0  0  0  0  0  0  0  0  0  0  0  0
   -1.7010   -0.9981    0.0000 N   0  0  0  0  0  0  0  0  0  0  0  0
    1.5180   -1.5263    0.0000 C   0  0  0  0  0  0  0  0  0  0  0  0
   -1.8666    0.7371    0.0000 H   0  0  0  0  0  0  0  0  0  0  0  0
    2.7329   -0.0519    0.0000 H   0  0  0  0  0  0  0  0  0  0  0  0
   -2.5664   -0.5288    0.0000 H   0  0  0  0  0  0  0  0  0  0  0  0
   -1.6747   -1.9822    0.0000 H   0  0  0  0  0  0  0  0  0  0  0  0
    0.8292   -2.3451    0.0000 H   0  0  0  0  0  0  0  0  0  0  0  0
    2.5715   -1.7134    0.0000 H   0  0  0  0  0  0  0  0  0  0  0  0
    1.8827   -2.5322    0.0000 H   0  0  0  0  0  0  0  0  0  0  0  0
  2  1  2  0  0  0  0
  3  1  1  0  0  0  0
  4  7  1  0  0  0  0
  4 13  1  0  0  0  0
  5  2  1  0  0  0  0
  5  9  2  0  0  0  0
  6  2  1  0  0  0  0
  6  4  1  0  0  0  0
  7  3  2  0  0  0  0
  8  1  1  0  0  0  0
  9  8  1  0  0  0  0
  9 14  1  0  0  0  0
 10  6  2  0  0  0  0
 11  7  1  0  0  0  0
 11 15  1  0  0  0  0
 11 16  1  0  0  0  0
 12  8  1  0  0  0  0
 12 17  1  0  0  0  0
 12 18  1  0  0  0  0
 12 19  1  0  0  0  0
M  END
>  <DRUGBANK_ID>
DB02489

>  <SECONDARY_ACCESSION_NUMBERS>
EXPT00360

>  <COMMON_NAME>
9-Methylguanine

>  <CAS_NUMBER>
5502-78-3

>  <UNII>
397W61ZHWY

$$$$
