
 OpenBabel10282417072D

  3  0  0  0  0  0  0  0  0  0999 V2000
   -0.4125    0.0000    0.0000 Mg  0  2  0  0  0  0  0  0  0  0  0  0
    0.4125   -0.8250    0.0000 Cl  0  5  0  0  0  0  0  0  0  0  0  0
    0.4125    0.8250    0.0000 Cl  0  5  0  0  0  0  0  0  0  0  0  0
M  CHG  3   1   2   2  -1   3  -1
M  END
>  <DRUGBANK_ID>
DB09407

>  <COMMON_NAME>
Magnesium chloride

>  <CAS_NUMBER>
7786-30-3

>  <UNII>
59XN63C8VM

>  <SYNONYMS>
Anhydrous magnesium chloride; Magnesium chloride anhydrous

$$$$
