
 OpenBabel10282417072D

 63 64  0  0  0  0  0  0  0  0999 V2000
    5.6655   -3.0938    0.0000 O   0  0  0  0  0  0  0  0  0  0  0  0
    4.2365   -0.6188    0.0000 O   0  0  0  0  0  0  0  0  0  0  0  0
    9.2379    3.0938    0.0000 O   0  0  0  0  0  0  0  0  0  0  0  0
    4.9509    0.6188    0.0000 O   0  0  0  0  0  0  0  0  0  0  0  0
    2.0930   -1.0313    0.0000 O   0  0  0  0  0  0  0  0  0  0  0  0
    2.8075    0.2063    0.0000 O   0  0  0  0  0  0  0  0  0  0  0  0
    5.6655   -0.6188    0.0000 C   0  0  0  0  0  0  0  0  0  0  0  0
    4.9509   -1.0313    0.0000 C   0  0  0  0  0  0  0  0  0  0  0  0
    5.6655   -2.2688    0.0000 C   0  0  0  0  0  0  0  0  0  0  0  0
    4.9509   -1.8563    0.0000 C   0  0  0  0  0  0  0  0  0  0  0  0
    6.3799   -1.0313    0.0000 C   0  0  0  0  0  0  0  0  0  0  0  0
    6.3799   -1.8563    0.0000 C   0  0  0  0  0  0  0  0  0  0  0  0
    5.6655    0.2063    0.0000 C   0  0  0  0  0  0  0  0  0  0  0  0
    7.0944    1.8563    0.0000 C   0  0  0  0  0  0  0  0  0  0  0  0
    6.3799   -3.5063    0.0000 C   0  0  0  0  0  0  0  0  0  0  0  0
    6.3799    0.6188    0.0000 C   0  0  0  0  0  0  0  0  0  0  0  0
    6.3799    1.4438    0.0000 C   0  0  0  0  0  0  0  0  0  0  0  0
    8.5234    2.6813    0.0000 C   0  0  0  0  0  0  0  0  0  0  0  0
    7.0944    2.6813    0.0000 C   0  0  0  0  0  0  0  0  0  0  0  0
    7.8089    1.4438    0.0000 C   0  0  0  0  0  0  0  0  0  0  0  0
    7.8089    3.0938    0.0000 C   0  0  0  0  0  0  0  0  0  0  0  0
    8.5234    1.8563    0.0000 C   0  0  0  0  0  0  0  0  0  0  0  0
    6.3799   -4.3313    0.0000 C   0  0  0  0  0  0  0  0  0  0  0  0
    7.0944   -4.7439    0.0000 C   0  0  0  0  0  0  0  0  0  0  0  0
    9.2379    3.9188    0.0000 C   0  0  0  0  0  0  0  0  0  0  0  0
    3.5220   -1.0313    0.0000 C   0  0  0  0  0  0  0  0  0  0  0  0
    9.9524    4.3313    0.0000 C   0  0  0  0  0  0  0  0  0  0  0  0
    9.9524    5.1564    0.0000 C   0  0  0  0  0  0  0  0  0  0  0  0
    7.0944   -5.5689    0.0000 C   0  0  0  0  0  0  0  0  0  0  0  0
    7.8089   -4.3313    0.0000 C   0  0  0  0  0  0  0  0  0  0  0  0
   10.6668    5.5689    0.0000 C   0  0  0  0  0  0  0  0  0  0  0  0
    9.2379    5.5689    0.0000 C   0  0  0  0  0  0  0  0  0  0  0  0
    2.8075   -0.6188    0.0000 C   0  0  0  0  0  0  0  0  0  0  0  0
    1.2815   -0.5628    0.0000 H   0  0  0  0  0  0  0  0  0  0  0  0
    4.0572   -2.3723    0.0000 H   0  0  0  0  0  0  0  0  0  0  0  0
    7.2736   -0.5153    0.0000 H   0  0  0  0  0  0  0  0  0  0  0  0
    7.2736   -2.3723    0.0000 H   0  0  0  0  0  0  0  0  0  0  0  0
    7.3066   -2.9713    0.0000 H   0  0  0  0  0  0  0  0  0  0  0  0
    7.3065   -4.0413    0.0000 H   0  0  0  0  0  0  0  0  0  0  0  0
    7.2736    0.1028    0.0000 H   0  0  0  0  0  0  0  0  0  0  0  0
    5.4862    1.9598    0.0000 H   0  0  0  0  0  0  0  0  0  0  0  0
    6.2007    3.1973    0.0000 H   0  0  0  0  0  0  0  0  0  0  0  0
    7.8089    0.4118    0.0000 H   0  0  0  0  0  0  0  0  0  0  0  0
    7.8089    4.1258    0.0000 H   0  0  0  0  0  0  0  0  0  0  0  0
    9.4171    1.3403    0.0000 H   0  0  0  0  0  0  0  0  0  0  0  0
    5.4861   -4.8473    0.0000 H   0  0  0  0  0  0  0  0  0  0  0  0
    8.3113    4.4538    0.0000 H   0  0  0  0  0  0  0  0  0  0  0  0
    9.2379    4.9888    0.0000 H   0  0  0  0  0  0  0  0  0  0  0  0
    3.5220   -2.1013    0.0000 H   0  0  0  0  0  0  0  0  0  0  0  0
    2.5954   -1.5663    0.0000 H   0  0  0  0  0  0  0  0  0  0  0  0
   10.8461    3.8153    0.0000 H   0  0  0  0  0  0  0  0  0  0  0  0
    6.1678   -6.1039    0.0000 H   0  0  0  0  0  0  0  0  0  0  0  0
    8.0210   -6.1039    0.0000 H   0  0  0  0  0  0  0  0  0  0  0  0
    7.0944   -6.6389    0.0000 H   0  0  0  0  0  0  0  0  0  0  0  0
    8.7356   -4.8662    0.0000 H   0  0  0  0  0  0  0  0  0  0  0  0
    7.8088   -3.2613    0.0000 H   0  0  0  0  0  0  0  0  0  0  0  0
    8.7355   -3.7962    0.0000 H   0  0  0  0  0  0  0  0  0  0  0  0
   11.5935    5.0339    0.0000 H   0  0  0  0  0  0  0  0  0  0  0  0
   10.6668    6.6389    0.0000 H   0  0  0  0  0  0  0  0  0  0  0  0
   11.5934    6.1039    0.0000 H   0  0  0  0  0  0  0  0  0  0  0  0
    9.2379    6.6389    0.0000 H   0  0  0  0  0  0  0  0  0  0  0  0
    8.3113    5.0339    0.0000 H   0  0  0  0  0  0  0  0  0  0  0  0
    8.3112    6.1039    0.0000 H   0  0  0  0  0  0  0  0  0  0  0  0
  1  9  1  0  0  0  0
  1 15  1  0  0  0  0
  2  8  1  0  0  0  0
  2 26  1  0  0  0  0
  3 18  1  0  0  0  0
  3 25  1  0  0  0  0
  4 13  2  0  0  0  0
  5 33  1  0  0  0  0
  5 34  1  0  0  0  0
  6 33  2  0  0  0  0
  7  8  2  0  0  0  0
  7 11  1  0  0  0  0
  7 13  1  0  0  0  0
  8 10  1  0  0  0  0
  9 10  2  0  0  0  0
  9 12  1  0  0  0  0
 10 35  1  0  0  0  0
 11 12  2  0  0  0  0
 11 36  1  0  0  0  0
 12 37  1  0  0  0  0
 13 16  1  0  0  0  0
 14 17  1  0  0  0  0
 14 19  2  0  0  0  0
 14 20  1  0  0  0  0
 15 23  1  0  0  0  0
 15 38  1  0  0  0  0
 15 39  1  0  0  0  0
 16 17  2  0  0  0  0
 16 40  1  0  0  0  0
 17 41  1  0  0  0  0
 18 21  2  0  0  0  0
 18 22  1  0  0  0  0
 19 21  1  0  0  0  0
 19 42  1  0  0  0  0
 20 22  2  0  0  0  0
 20 43  1  0  0  0  0
 21 44  1  0  0  0  0
 22 45  1  0  0  0  0
 23 24  2  0  0  0  0
 23 46  1  0  0  0  0
 24 29  1  0  0  0  0
 24 30  1  0  0  0  0
 25 27  1  0  0  0  0
 25 47  1  0  0  0  0
 25 48  1  0  0  0  0
 26 33  1  0  0  0  0
 26 49  1  0  0  0  0
 26 50  1  0  0  0  0
 27 28  2  0  0  0  0
 27 51  1  0  0  0  0
 28 31  1  0  0  0  0
 28 32  1  0  0  0  0
 29 52  1  0  0  0  0
 29 53  1  0  0  0  0
 29 54  1  0  0  0  0
 30 55  1  0  0  0  0
 30 56  1  0  0  0  0
 30 57  1  0  0  0  0
 31 58  1  0  0  0  0
 31 59  1  0  0  0  0
 31 60  1  0  0  0  0
 32 61  1  0  0  0  0
 32 62  1  0  0  0  0
 32 63  1  0  0  0  0
M  END
>  <DRUGBANK_ID>
DB05197

>  <COMMON_NAME>
Sofalcone

>  <CAS_NUMBER>
64506-49-6

>  <UNII>
2B668TJX8E

>  <SYNONYMS>
Sofalcone

$$$$
