
 OpenBabel10282417072D

 72 74  0  0  1  0  0  0  0  0999 V2000
    4.7812    4.4104    0.0000 C   0  0  0  0  0  0  0  0  0  0  0  0
    1.4358   -0.5422    0.0000 C   0  0  0  0  0  0  0  0  0  0  0  0
   -1.4950   -2.6260    0.0000 C   0  0  0  0  0  0  0  0  0  0  0  0
   -0.4554   -2.0964    0.0000 C   0  0  0  0  0  0  0  0  0  0  0  0
    1.8371    0.2900    0.0000 C   0  0  0  0  0  0  0  0  0  0  0  0
    3.3523    1.1104    0.0000 C   0  0  0  0  0  0  0  0  0  0  0  0
    3.3523    1.9354    0.0000 C   0  0  0  0  0  0  0  0  0  0  0  0
    2.6378    3.1729    0.0000 C   0  0  0  0  0  0  0  0  0  0  0  0
    3.3523    3.5854    0.0000 C   0  0  0  0  0  0  0  0  0  0  0  0
    0.6538    1.5229    0.0000 C   0  0  0  0  0  0  0  0  0  0  0  0
    1.1387    2.1904    0.0000 C   0  0  0  0  0  0  0  0  0  0  0  0
    2.6378    0.6979    0.0000 C   0  0  0  0  0  0  0  0  0  0  0  0
   -0.9851   -1.0568    0.0000 C   0  0  0  0  0  0  0  0  0  0  0  0
   -0.1781   -0.8853    0.0000 C   0  0  0  0  0  0  0  0  0  0  0  0
    2.6378    4.8229    0.0000 C   0  0  0  0  0  0  0  0  0  0  0  0
    3.3523    6.0604    0.0000 C   0  0  0  0  0  0  0  0  0  0  0  0
    4.0668    4.8229    0.0000 C   0  0  0  0  0  0  0  0  0  0  0  0
    0.8838    0.0709    0.0000 C   0  0  1  0  0  0  0  0  0  0  0  0
    2.6378    2.3479    0.0000 C   0  0  0  0  0  0  0  0  0  0  0  0
    3.3523    4.4104    0.0000 C   0  0  0  0  0  0  0  0  0  0  0  0
    2.6378    5.6479    0.0000 C   0  0  2  0  0  0  0  0  0  0  0  0
    1.1387    0.8555    0.0000 C   0  0  2  0  0  0  0  0  0  0  0  0
    1.9233    1.9354    0.0000 C   0  0  1  0  0  0  0  0  0  0  0  0
    4.0668    5.6479    0.0000 C   0  0  1  0  0  0  0  0  0  0  0  0
   -1.2400   -1.8414    0.0000 C   0  0  0  0  0  0  0  0  0  0  0  0
    1.9233    1.1104    0.0000 C   0  0  1  0  0  0  0  0  0  0  0  0
    1.9233    6.0604    0.0000 O   0  0  0  0  0  0  0  0  0  0  0  0
    4.7812    6.0604    0.0000 O   0  0  0  0  0  0  0  0  0  0  0  0
   -2.0247   -1.5865    0.0000 O   0  0  0  0  0  0  0  0  0  0  0  0
    0.0768   -0.1006    0.0000 O   0  0  0  0  0  0  0  0  0  0  0  0
    1.9233    3.5854    0.0000 H   0  0  0  0  0  0  0  0  0  0  0  0
    4.0668    3.1729    0.0000 H   0  0  0  0  0  0  0  0  0  0  0  0
    1.7008   -0.0439    0.0000 H   0  0  0  0  0  0  0  0  0  0  0  0
    1.9233    5.2354    0.0000 H   0  0  0  0  0  0  0  0  0  0  0  0
    0.3239    0.7264    0.0000 H   0  0  0  0  0  0  0  0  0  0  0  0
    1.8371    2.7559    0.0000 H   0  0  0  0  0  0  0  0  0  0  0  0
    4.0668    6.4729    0.0000 H   0  0  0  0  0  0  0  0  0  0  0  0
    4.7812    3.3784    0.0000 H   0  0  0  0  0  0  0  0  0  0  0  0
    5.6750    4.9264    0.0000 H   0  0  0  0  0  0  0  0  0  0  0  0
    1.1051   -1.5598    0.0000 H   0  0  0  0  0  0  0  0  0  0  0  0
    2.4824   -0.3198    0.0000 H   0  0  0  0  0  0  0  0  0  0  0  0
    2.1517   -1.3374    0.0000 H   0  0  0  0  0  0  0  0  0  0  0  0
   -2.5416   -2.8484    0.0000 H   0  0  0  0  0  0  0  0  0  0  0  0
   -0.7791   -3.4212    0.0000 H   0  0  0  0  0  0  0  0  0  0  0  0
   -1.8257   -3.6436    0.0000 H   0  0  0  0  0  0  0  0  0  0  0  0
   -0.2330   -3.1430    0.0000 H   0  0  0  0  0  0  0  0  0  0  0  0
    0.3398   -1.3805    0.0000 H   0  0  0  0  0  0  0  0  0  0  0  0
    0.5622   -2.4271    0.0000 H   0  0  0  0  0  0  0  0  0  0  0  0
    0.8596   -0.1452    0.0000 H   0  0  0  0  0  0  0  0  0  0  0  0
    2.7028   -0.3389    0.0000 H   0  0  0  0  0  0  0  0  0  0  0  0
    1.7253   -0.7741    0.0000 H   0  0  0  0  0  0  0  0  0  0  0  0
    4.2789    0.5754    0.0000 H   0  0  0  0  0  0  0  0  0  0  0  0
    3.3523    0.0404    0.0000 H   0  0  0  0  0  0  0  0  0  0  0  0
    4.2789    2.4704    0.0000 H   0  0  0  0  0  0  0  0  0  0  0  0
    3.3523    3.0054    0.0000 H   0  0  0  0  0  0  0  0  0  0  0  0
   -0.4162    1.5229    0.0000 H   0  0  0  0  0  0  0  0  0  0  0  0
    0.1680    0.5695    0.0000 H   0  0  0  0  0  0  0  0  0  0  0  0
    0.8081    3.2080    0.0000 H   0  0  0  0  0  0  0  0  0  0  0  0
    1.8953    2.9470    0.0000 H   0  0  0  0  0  0  0  0  0  0  0  0
    2.6378   -0.3721    0.0000 H   0  0  0  0  0  0  0  0  0  0  0  0
    1.7112    0.1629    0.0000 H   0  0  0  0  0  0  0  0  0  0  0  0
   -1.7011   -0.2616    0.0000 H   0  0  0  0  0  0  0  0  0  0  0  0
   -2.0317   -1.2793    0.0000 H   0  0  0  0  0  0  0  0  0  0  0  0
    0.5379   -1.6805    0.0000 H   0  0  0  0  0  0  0  0  0  0  0  0
    0.8685   -0.6628    0.0000 H   0  0  0  0  0  0  0  0  0  0  0  0
    1.7112    4.2879    0.0000 H   0  0  0  0  0  0  0  0  0  0  0  0
    1.7112    5.3579    0.0000 H   0  0  0  0  0  0  0  0  0  0  0  0
    3.3523    7.1304    0.0000 H   0  0  0  0  0  0  0  0  0  0  0  0
    4.2789    6.5954    0.0000 H   0  0  0  0  0  0  0  0  0  0  0  0
    1.9233    7.0304    0.0000 H   0  0  0  0  0  0  0  0  0  0  0  0
    5.6213    5.5754    0.0000 H   0  0  0  0  0  0  0  0  0  0  0  0
   -2.2264   -0.6377    0.0000 H   0  0  0  0  0  0  0  0  0  0  0  0
  1 38  1  0  0  0  0
  1 39  1  0  0  0  0
  2 40  1  0  0  0  0
  2 41  1  0  0  0  0
  2 42  1  0  0  0  0
  3 43  1  0  0  0  0
  3 44  1  0  0  0  0
  3 45  1  0  0  0  0
  4 46  1  0  0  0  0
  4 47  1  0  0  0  0
  4 48  1  0  0  0  0
  5 49  1  0  0  0  0
  5 50  1  0  0  0  0
  5 51  1  0  0  0  0
  6 52  1  0  0  0  0
  6 53  1  0  0  0  0
  7  6  1  0  0  0  0
  7 54  1  0  0  0  0
  7 55  1  0  0  0  0
  9  8  1  0  0  0  0
 10 56  1  0  0  0  0
 10 57  1  0  0  0  0
 11 10  1  0  0  0  0
 11 58  1  0  0  0  0
 11 59  1  0  0  0  0
 12  6  1  0  0  0  0
 12 60  1  0  0  0  0
 12 61  1  0  0  0  0
 13 62  1  0  0  0  0
 13 63  1  0  0  0  0
 14 13  1  0  0  0  0
 14 64  1  0  0  0  0
 14 65  1  0  0  0  0
 15 66  1  0  0  0  0
 15 67  1  0  0  0  0
 16 68  1  0  0  0  0
 16 69  1  0  0  0  0
 17  1  2  0  0  0  0
 18  2  1  0  0  0  0
 18 33  1  1  0  0  0
 19  7  1  0  0  0  0
 19  8  2  0  0  0  0
 20  9  2  0  0  0  0
 20 15  1  0  0  0  0
 20 17  1  0  0  0  0
 21 15  1  0  0  0  0
 21 16  1  0  0  0  0
 21 27  1  0  0  0  0
 21 34  1  6  0  0  0
 22 10  1  0  0  0  0
 22 18  1  0  0  0  0
 22 35  1  6  0  0  0
 23 11  1  0  0  0  0
 23 19  1  0  0  0  0
 23 36  1  6  0  0  0
 24 16  1  0  0  0  0
 24 17  1  0  0  0  0
 24 28  1  0  0  0  0
 24 37  1  1  0  0  0
 25  3  1  0  0  0  0
 25  4  1  0  0  0  0
 25 13  1  0  0  0  0
 26  5  1  1  0  0  0
 26 12  1  0  0  0  0
 26 22  1  0  0  0  0
 26 23  1  0  0  0  0
 27 70  1  0  0  0  0
 28 71  1  0  0  0  0
 29 25  1  0  0  0  0
 29 72  1  0  0  0  0
 30 14  1  0  0  0  0
 30 18  1  0  0  0  0
 31  8  1  0  0  0  0
 32  9  1  0  0  0  0
M  END
>  <DRUGBANK_ID>
DB06272

>  <COMMON_NAME>
Maxacalcitol

>  <CAS_NUMBER>
103909-75-7

>  <UNII>
N2UJM5NBF6

>  <SYNONYMS>
Maxacalcitol

$$$$
