77A
 OpenBabel10282417072D

 48 49  0  0  0  0  0  0  0  0999 V2000
   -3.4446    0.8049    0.0000 N   0  0  0  0  0  0  0  0  0  0  0  0
   -4.1591    0.3924    0.0000 C   0  0  0  0  0  0  0  0  0  0  0  0
   -4.1591   -0.4326    0.0000 C   0  0  0  0  0  0  0  0  0  0  0  0
   -4.8736   -0.8451    0.0000 C   0  0  0  0  0  0  0  0  0  0  0  0
   -5.5880   -0.4326    0.0000 C   0  0  0  0  0  0  0  0  0  0  0  0
   -5.5880    0.3924    0.0000 C   0  0  0  0  0  0  0  0  0  0  0  0
   -4.8736    0.8049    0.0000 C   0  0  0  0  0  0  0  0  0  0  0  0
   -4.8736    1.6299    0.0000 O   0  0  0  0  0  0  0  0  0  0  0  0
   -5.5880    2.0424    0.0000 C   0  0  0  0  0  0  0  0  0  0  0  0
   -4.8736   -1.6701    0.0000 Cl  0  0  0  0  0  0  0  0  0  0  0  0
   -2.7301    0.3924    0.0000 C   0  0  0  0  0  0  0  0  0  0  0  0
   -2.7301   -0.4326    0.0000 O   0  0  0  0  0  0  0  0  0  0  0  0
   -2.0157    0.8049    0.0000 N   0  0  0  0  0  0  0  0  0  0  0  0
   -1.3012    0.3924    0.0000 C   0  0  0  0  0  0  0  0  0  0  0  0
   -0.5867    0.8049    0.0000 N   0  0  0  0  0  0  0  0  0  0  0  0
    0.1277    0.3924    0.0000 C   0  0  0  0  0  0  0  0  0  0  0  0
    0.1277   -0.4326    0.0000 C   0  0  0  0  0  0  0  0  0  0  0  0
   -0.5867   -0.8451    0.0000 N   0  0  0  0  0  0  0  0  0  0  0  0
   -1.3012   -0.4326    0.0000 C   0  0  0  0  0  0  0  0  0  0  0  0
    0.8422    0.8049    0.0000 O   0  0  0  0  0  0  0  0  0  0  0  0
    1.5567    0.3924    0.0000 C   0  0  2  0  0  0  0  0  0  0  0  0
    2.2712    0.8049    0.0000 C   0  0  0  0  0  0  0  0  0  0  0  0
    2.9856    0.3924    0.0000 N   0  0  0  0  0  0  0  0  0  0  0  0
    3.7001    0.8049    0.0000 C   0  0  0  0  0  0  0  0  0  0  0  0
    1.5567   -0.4326    0.0000 C   0  0  0  0  0  0  0  0  0  0  0  0
    2.9856   -0.4326    0.0000 C   0  0  0  0  0  0  0  0  0  0  0  0
    1.0510    0.1004    0.0000 H   0  0  0  0  0  0  0  0  0  0  0  0
   -3.4446    1.7894    0.0000 H   0  0  0  0  0  0  0  0  0  0  0  0
   -3.2654   -0.9486    0.0000 H   0  0  0  0  0  0  0  0  0  0  0  0
   -6.4817   -0.9486    0.0000 H   0  0  0  0  0  0  0  0  0  0  0  0
   -6.4817    0.9084    0.0000 H   0  0  0  0  0  0  0  0  0  0  0  0
   -5.5880    3.1124    0.0000 H   0  0  0  0  0  0  0  0  0  0  0  0
   -6.5147    1.5074    0.0000 H   0  0  0  0  0  0  0  0  0  0  0  0
   -6.5146    2.5774    0.0000 H   0  0  0  0  0  0  0  0  0  0  0  0
   -2.0157    1.7894    0.0000 H   0  0  0  0  0  0  0  0  0  0  0  0
    1.0214   -0.9486    0.0000 H   0  0  0  0  0  0  0  0  0  0  0  0
   -2.1949   -0.9486    0.0000 H   0  0  0  0  0  0  0  0  0  0  0  0
    2.2712    1.8749    0.0000 H   0  0  0  0  0  0  0  0  0  0  0  0
    3.1979    1.3399    0.0000 H   0  0  0  0  0  0  0  0  0  0  0  0
    4.6267    0.2699    0.0000 H   0  0  0  0  0  0  0  0  0  0  0  0
    3.7001    1.8749    0.0000 H   0  0  0  0  0  0  0  0  0  0  0  0
    4.6268    1.3399    0.0000 H   0  0  0  0  0  0  0  0  0  0  0  0
    0.6301   -0.9676    0.0000 H   0  0  0  0  0  0  0  0  0  0  0  0
    2.4833   -0.9676    0.0000 H   0  0  0  0  0  0  0  0  0  0  0  0
    1.5567   -1.5026    0.0000 H   0  0  0  0  0  0  0  0  0  0  0  0
    2.0590   -0.9676    0.0000 H   0  0  0  0  0  0  0  0  0  0  0  0
    3.9122   -0.9676    0.0000 H   0  0  0  0  0  0  0  0  0  0  0  0
    2.9856   -1.5026    0.0000 H   0  0  0  0  0  0  0  0  0  0  0  0
  1 11  1  0  0  0  0
  1  2  1  0  0  0  0
  1 28  1  0  0  0  0
  2  3  1  0  0  0  0
  2  7  2  0  0  0  0
  3  4  2  0  0  0  0
  3 29  1  0  0  0  0
  4 10  1  0  0  0  0
  4  5  1  0  0  0  0
  5  6  2  0  0  0  0
  5 30  1  0  0  0  0
  6  7  1  0  0  0  0
  6 31  1  0  0  0  0
  7  8  1  0  0  0  0
  8  9  1  0  0  0  0
  9 32  1  0  0  0  0
  9 33  1  0  0  0  0
  9 34  1  0  0  0  0
 11 12  2  0  0  0  0
 11 13  1  0  0  0  0
 13 14  1  0  0  0  0
 13 35  1  0  0  0  0
 14 15  2  0  0  0  0
 14 19  1  0  0  0  0
 15 16  1  0  0  0  0
 16 20  1  0  0  0  0
 16 17  2  0  0  0  0
 17 18  1  0  0  0  0
 17 36  1  0  0  0  0
 18 19  2  0  0  0  0
 19 37  1  0  0  0  0
 20 21  1  0  0  0  0
 21 25  1  0  0  0  0
 21 22  1  0  0  0  0
 21 27  1  1  0  0  0
 22 23  1  0  0  0  0
 22 38  1  0  0  0  0
 22 39  1  0  0  0  0
 23 26  1  0  0  0  0
 23 24  1  0  0  0  0
 24 40  1  0  0  0  0
 24 41  1  0  0  0  0
 24 42  1  0  0  0  0
 25 43  1  0  0  0  0
 25 44  1  0  0  0  0
 25 45  1  0  0  0  0
 26 46  1  0  0  0  0
 26 47  1  0  0  0  0
 26 48  1  0  0  0  0
M  END
>  <DRUGBANK_ID>
DB07228

>  <COMMON_NAME>
1-(5-CHLORO-2-METHOXYPHENYL)-3-{6-[2-(DIMETHYLAMINO)-1-METHYLETHOXY]PYRAZIN-2-YL}UREA

$$$$
