DMC
 OpenBabel10282417072D

 37 37  0  0  0  0  0  0  0  0999 V2000
    2.6147    2.8666    0.0000 O   0  0  0  0  0  0  0  0  0  0  0  0
    2.6147    2.0416    0.0000 C   0  0  0  0  0  0  0  0  0  0  0  0
    1.9002    1.6291    0.0000 C   0  0  0  0  0  0  0  0  0  0  0  0
    1.9002    0.8041    0.0000 C   0  0  0  0  0  0  0  0  0  0  0  0
    1.1858    2.0416    0.0000 C   0  0  0  0  0  0  0  0  0  0  0  0
    1.1858    0.3916    0.0000 C   0  0  0  0  0  0  0  0  0  0  0  0
    1.1858   -0.4334    0.0000 C   0  0  0  0  0  0  0  0  0  0  0  0
    0.4713   -0.8459    0.0000 C   0  0  0  0  0  0  0  0  0  0  0  0
   -0.2432   -0.4334    0.0000 C   0  0  0  0  0  0  0  0  0  0  0  0
   -0.2432    0.3916    0.0000 C   0  0  0  0  0  0  0  0  0  0  0  0
    0.4713    0.8041    0.0000 C   0  0  0  0  0  0  0  0  0  0  0  0
    1.9002   -0.8459    0.0000 O   0  0  0  0  0  0  0  0  0  0  0  0
   -0.9576   -0.8459    0.0000 N   0  0  0  0  0  0  0  0  0  0  0  0
   -1.6721   -0.4334    0.0000 C   0  0  0  0  0  0  0  0  0  0  0  0
   -0.9576   -1.6709    0.0000 C   0  0  0  0  0  0  0  0  0  0  0  0
   -2.3866   -0.8459    0.0000 C   0  0  0  0  0  0  0  0  0  0  0  0
   -1.6721   -2.0834    0.0000 C   0  0  0  0  0  0  0  0  0  0  0  0
    3.3292    1.6291    0.0000 O   0  0  0  0  0  0  0  0  0  0  0  0
    2.7939    0.2881    0.0000 H   0  0  0  0  0  0  0  0  0  0  0  0
    1.1858    3.1116    0.0000 H   0  0  0  0  0  0  0  0  0  0  0  0
    0.2591    1.5066    0.0000 H   0  0  0  0  0  0  0  0  0  0  0  0
    0.2592    2.5766    0.0000 H   0  0  0  0  0  0  0  0  0  0  0  0
    0.4713   -1.8779    0.0000 H   0  0  0  0  0  0  0  0  0  0  0  0
   -1.1369    0.9076    0.0000 H   0  0  0  0  0  0  0  0  0  0  0  0
    0.4713    1.8361    0.0000 H   0  0  0  0  0  0  0  0  0  0  0  0
    1.9002   -1.7829    0.0000 H   0  0  0  0  0  0  0  0  0  0  0  0
   -1.6721    0.6366    0.0000 H   0  0  0  0  0  0  0  0  0  0  0  0
   -2.5987    0.1016    0.0000 H   0  0  0  0  0  0  0  0  0  0  0  0
   -0.0310   -2.2059    0.0000 H   0  0  0  0  0  0  0  0  0  0  0  0
   -0.9576   -2.7409    0.0000 H   0  0  0  0  0  0  0  0  0  0  0  0
   -3.3132   -0.3109    0.0000 H   0  0  0  0  0  0  0  0  0  0  0  0
   -2.3866   -1.9159    0.0000 H   0  0  0  0  0  0  0  0  0  0  0  0
   -3.3133   -1.3809    0.0000 H   0  0  0  0  0  0  0  0  0  0  0  0
   -2.5987   -1.5484    0.0000 H   0  0  0  0  0  0  0  0  0  0  0  0
   -1.6721   -3.1534    0.0000 H   0  0  0  0  0  0  0  0  0  0  0  0
   -2.5988   -2.6184    0.0000 H   0  0  0  0  0  0  0  0  0  0  0  0
    3.3292    0.6921    0.0000 H   0  0  0  0  0  0  0  0  0  0  0  0
  1  2  2  0  0  0  0
  2  3  1  0  0  0  0
  2 18  1  0  0  0  0
  3  4  2  0  0  0  0
  3  5  1  0  0  0  0
  4  6  1  0  0  0  0
  4 19  1  0  0  0  0
  5 20  1  0  0  0  0
  5 21  1  0  0  0  0
  5 22  1  0  0  0  0
  6  7  2  0  0  0  0
  6 11  1  0  0  0  0
  7  8  1  0  0  0  0
  7 12  1  0  0  0  0
  8  9  2  0  0  0  0
  8 23  1  0  0  0  0
  9 10  1  0  0  0  0
  9 13  1  0  0  0  0
 10 11  2  0  0  0  0
 10 24  1  0  0  0  0
 11 25  1  0  0  0  0
 12 26  1  0  0  0  0
 13 14  1  0  0  0  0
 13 15  1  0  0  0  0
 14 16  1  0  0  0  0
 14 27  1  0  0  0  0
 14 28  1  0  0  0  0
 15 17  1  0  0  0  0
 15 29  1  0  0  0  0
 15 30  1  0  0  0  0
 16 31  1  0  0  0  0
 16 32  1  0  0  0  0
 16 33  1  0  0  0  0
 17 34  1  0  0  0  0
 17 35  1  0  0  0  0
 17 36  1  0  0  0  0
 18 37  1  0  0  0  0
M  END
>  <DRUGBANK_ID>
DB07668

>  <COMMON_NAME>
alpha-Methyl-2-hydroxy-4-diethylaminocinnamic acid

>  <CAS_NUMBER>
125769-41-7

>  <UNII>
GLA35OJ8JH

>  <SYNONYMS>
3-(4-diethylamino-2-hydroxy-phenyl)-2-methyl-propionic acid; alpha-MHDAC

$$$$
