Untitled Document-1
 OpenBabel10282417072D

 19 18  0  0  0  0  0  0  0  0999 V2000
    0.7145   -0.2063    0.0000 C   0  0  1  0  0  0  0  0  0  0  0  0
    0.7145   -1.0313    0.0000 N   0  0  0  0  0  0  0  0  0  0  0  0
    0.0000    0.2062    0.0000 C   0  0  0  0  0  0  0  0  0  0  0  0
   -0.7145   -0.2063    0.0000 O   0  0  0  0  0  0  0  0  0  0  0  0
   -1.4289    0.2062    0.0000 C   0  0  0  0  0  0  0  0  0  0  0  0
   -1.4289    1.0313    0.0000 O   0  0  0  0  0  0  0  0  0  0  0  0
   -2.1434   -0.2063    0.0000 C   0  0  0  0  0  0  0  0  0  0  0  0
    1.4289    0.2062    0.0000 C   0  0  0  0  0  0  0  0  0  0  0  0
    1.4289    1.0312    0.0000 O   0  0  0  0  0  0  0  0  0  0  0  0
    2.1434   -0.2063    0.0000 O   0  0  0  0  0  0  0  0  0  0  0  0
   -0.2121   -0.7413    0.0000 H   0  0  0  0  0  0  0  0  0  0  0  0
   -0.1688   -1.5413    0.0000 H   0  0  0  0  0  0  0  0  0  0  0  0
    1.5978   -1.5413    0.0000 H   0  0  0  0  0  0  0  0  0  0  0  0
    0.0000    1.2762    0.0000 H   0  0  0  0  0  0  0  0  0  0  0  0
   -0.9266    0.7412    0.0000 H   0  0  0  0  0  0  0  0  0  0  0  0
   -3.0700    0.3287    0.0000 H   0  0  0  0  0  0  0  0  0  0  0  0
   -2.1434   -1.2763    0.0000 H   0  0  0  0  0  0  0  0  0  0  0  0
   -3.0701   -0.7413    0.0000 H   0  0  0  0  0  0  0  0  0  0  0  0
    2.1434   -1.1433    0.0000 H   0  0  0  0  0  0  0  0  0  0  0  0
  1  2  1  0  0  0  0
  1  3  1  0  0  0  0
  1  8  1  0  0  0  0
  1 11  1  6  0  0  0
  2 12  1  0  0  0  0
  2 13  1  0  0  0  0
  3  4  1  0  0  0  0
  3 14  1  0  0  0  0
  3 15  1  0  0  0  0
  4  5  1  0  0  0  0
  5  6  2  0  0  0  0
  5  7  1  0  0  0  0
  7 16  1  0  0  0  0
  7 17  1  0  0  0  0
  7 18  1  0  0  0  0
  8  9  2  0  0  0  0
  8 10  1  0  0  0  0
 10 19  1  0  0  0  0
M  END
>  <DRUGBANK_ID>
DB01837

>  <SECONDARY_ACCESSION_NUMBERS>
EXPT02411

>  <COMMON_NAME>
O-acetyl-L-serine

>  <CAS_NUMBER>
5147-00-2

>  <UNII>
G05L7T7ZEQ

>  <SYNONYMS>
L-Serine, acetate (ester); O3-acetyl-L-serine

$$$$
