P5C
 OpenBabel10282417072D

 49 51  0  0  0  0  0  0  0  0999 V2000
   -1.2917   -0.1365    0.0000 C   0  0  0  0  0  0  0  0  0  0  0  0
   -2.0062   -1.3740    0.0000 C   0  0  0  0  0  0  0  0  0  0  0  0
   -0.5772   -0.5490    0.0000 N   0  0  0  0  0  0  0  0  0  0  0  0
   -1.2917   -1.7865    0.0000 C   0  0  0  0  0  0  0  0  0  0  0  0
   -0.5772   -1.3740    0.0000 C   0  0  0  0  0  0  0  0  0  0  0  0
   -1.2917   -2.6115    0.0000 C   0  0  0  0  0  0  0  0  0  0  0  0
    0.8517   -1.3740    0.0000 C   0  0  0  0  0  0  0  0  0  0  0  0
    0.8517   -0.5490    0.0000 C   0  0  0  0  0  0  0  0  0  0  0  0
    2.2807   -0.5490    0.0000 C   0  0  0  0  0  0  0  0  0  0  0  0
    2.2807   -1.3740    0.0000 C   0  0  0  0  0  0  0  0  0  0  0  0
    1.5662   -0.1365    0.0000 C   0  0  0  0  0  0  0  0  0  0  0  0
    1.5662   -1.7865    0.0000 C   0  0  0  0  0  0  0  0  0  0  0  0
    2.9951   -1.7865    0.0000 C   0  0  0  0  0  0  0  0  0  0  0  0
   -2.0062   -3.0240    0.0000 O   0  0  0  0  0  0  0  0  0  0  0  0
   -0.5772   -3.0240    0.0000 N   0  0  0  0  0  0  0  0  0  0  0  0
    0.1373   -1.7865    0.0000 N   0  0  0  0  0  0  0  0  0  0  0  0
   -2.0062   -0.5490    0.0000 N   0  0  0  0  0  0  0  0  0  0  0  0
   -1.2917    0.6885    0.0000 N   0  0  0  0  0  0  0  0  0  0  0  0
   -0.5772    1.1010    0.0000 C   0  0  1  0  0  0  0  0  0  0  0  0
   -0.5772    1.9260    0.0000 C   0  0  1  0  0  0  0  0  0  0  0  0
   -1.2917    2.3385    0.0000 N   0  0  0  0  0  0  0  0  0  0  0  0
    0.1373    2.3385    0.0000 C   0  0  0  0  0  0  0  0  0  0  0  0
    0.8517    1.9260    0.0000 C   0  0  0  0  0  0  0  0  0  0  0  0
    0.8517    1.1010    0.0000 C   0  0  0  0  0  0  0  0  0  0  0  0
    0.1373    0.6885    0.0000 C   0  0  0  0  0  0  0  0  0  0  0  0
   -1.1523    1.2024    0.0000 H   0  0  0  0  0  0  0  0  0  0  0  0
   -1.1523    1.8246    0.0000 H   0  0  0  0  0  0  0  0  0  0  0  0
   -2.8999   -1.8900    0.0000 H   0  0  0  0  0  0  0  0  0  0  0  0
   -0.0420   -0.0330    0.0000 H   0  0  0  0  0  0  0  0  0  0  0  0
    3.1744   -0.0330    0.0000 H   0  0  0  0  0  0  0  0  0  0  0  0
    1.5662    0.8955    0.0000 H   0  0  0  0  0  0  0  0  0  0  0  0
    1.5662   -2.8185    0.0000 H   0  0  0  0  0  0  0  0  0  0  0  0
    2.9951   -2.8565    0.0000 H   0  0  0  0  0  0  0  0  0  0  0  0
    3.9218   -1.2515    0.0000 H   0  0  0  0  0  0  0  0  0  0  0  0
    3.9217   -2.3215    0.0000 H   0  0  0  0  0  0  0  0  0  0  0  0
   -0.5772   -4.0085    0.0000 H   0  0  0  0  0  0  0  0  0  0  0  0
    0.2754   -2.5317    0.0000 H   0  0  0  0  0  0  0  0  0  0  0  0
    0.1373   -2.7710    0.0000 H   0  0  0  0  0  0  0  0  0  0  0  0
   -2.1443    1.1808    0.0000 H   0  0  0  0  0  0  0  0  0  0  0  0
   -1.2917    3.3585    0.0000 H   0  0  0  0  0  0  0  0  0  0  0  0
   -2.1750    1.8285    0.0000 H   0  0  0  0  0  0  0  0  0  0  0  0
    0.1373    3.4085    0.0000 H   0  0  0  0  0  0  0  0  0  0  0  0
    1.0640    2.8735    0.0000 H   0  0  0  0  0  0  0  0  0  0  0  0
    1.7784    2.4610    0.0000 H   0  0  0  0  0  0  0  0  0  0  0  0
    1.7783    1.3910    0.0000 H   0  0  0  0  0  0  0  0  0  0  0  0
    1.7784    0.5660    0.0000 H   0  0  0  0  0  0  0  0  0  0  0  0
    0.8517    0.0310    0.0000 H   0  0  0  0  0  0  0  0  0  0  0  0
    0.1373   -0.3815    0.0000 H   0  0  0  0  0  0  0  0  0  0  0  0
    1.0640    0.1535    0.0000 H   0  0  0  0  0  0  0  0  0  0  0  0
  1  3  2  0  0  0  0
  1 17  1  0  0  0  0
  1 18  1  0  0  0  0
  2  4  1  0  0  0  0
  2 17  2  0  0  0  0
  2 28  1  0  0  0  0
  3  5  1  0  0  0  0
  4  5  2  0  0  0  0
  4  6  1  0  0  0  0
  5 16  1  0  0  0  0
  6 14  2  0  0  0  0
  6 15  1  0  0  0  0
  7  8  2  0  0  0  0
  7 12  1  0  0  0  0
  7 16  1  0  0  0  0
  8 11  1  0  0  0  0
  8 29  1  0  0  0  0
  9 10  1  0  0  0  0
  9 11  2  0  0  0  0
  9 30  1  0  0  0  0
 10 12  2  0  0  0  0
 10 13  1  0  0  0  0
 11 31  1  0  0  0  0
 12 32  1  0  0  0  0
 13 33  1  0  0  0  0
 13 34  1  0  0  0  0
 13 35  1  0  0  0  0
 15 36  1  0  0  0  0
 15 37  1  0  0  0  0
 16 38  1  0  0  0  0
 18 39  1  0  0  0  0
 19 18  1  0  0  0  0
 19 20  1  0  0  0  0
 19 25  1  0  0  0  0
 19 26  1  6  0  0  0
 20 21  1  0  0  0  0
 20 22  1  0  0  0  0
 20 27  1  6  0  0  0
 21 40  1  0  0  0  0
 21 41  1  0  0  0  0
 22 23  1  0  0  0  0
 22 42  1  0  0  0  0
 22 43  1  0  0  0  0
 23 24  1  0  0  0  0
 23 44  1  0  0  0  0
 23 45  1  0  0  0  0
 24 25  1  0  0  0  0
 24 46  1  0  0  0  0
 24 47  1  0  0  0  0
 25 48  1  0  0  0  0
 25 49  1  0  0  0  0
M  END
>  <DRUGBANK_ID>
DB08361

>  <COMMON_NAME>
2-{[(1R,2S)-2-aminocyclohexyl]amino}-4-[(3-methylphenyl)amino]pyrimidine-5-carboxamide

$$$$
