
 OpenBabel10282417072D

 57 60  0  0  0  0  0  0  0  0999 V2000
   -5.8855    3.0364    0.0000 C   0  0  0  0  0  0  0  0  0  0  0  0
   -5.2724    2.4844    0.0000 C   0  0  0  0  0  0  0  0  0  0  0  0
   -4.4878    2.7393    0.0000 N   0  0  0  0  0  0  0  0  0  0  0  0
   -4.3162    3.5463    0.0000 C   0  0  0  0  0  0  0  0  0  0  0  0
   -4.9293    4.0983    0.0000 C   0  0  0  0  0  0  0  0  0  0  0  0
   -3.8747    2.1873    0.0000 C   0  0  0  0  0  0  0  0  0  0  0  0
   -3.0900    2.4422    0.0000 C   0  0  0  0  0  0  0  0  0  0  0  0
   -2.4769    1.8902    0.0000 N   0  0  0  0  0  0  0  0  0  0  0  0
   -2.6485    1.0832    0.0000 C   0  0  0  0  0  0  0  0  0  0  0  0
   -2.0354    0.5312    0.0000 C   0  0  0  0  0  0  0  0  0  0  0  0
   -1.2508    0.7861    0.0000 C   0  0  0  0  0  0  0  0  0  0  0  0
   -1.0792    1.5931    0.0000 C   0  0  0  0  0  0  0  0  0  0  0  0
   -0.2587    1.6793    0.0000 C   0  0  0  0  0  0  0  0  0  0  0  0
    0.0768    0.9256    0.0000 C   0  0  0  0  0  0  0  0  0  0  0  0
   -0.5363    0.3736    0.0000 N   0  0  0  0  0  0  0  0  0  0  0  0
    0.8838    0.7541    0.0000 C   0  0  0  0  0  0  0  0  0  0  0  0
    1.1387   -0.0305    0.0000 C   0  0  0  0  0  0  0  0  0  0  0  0
    1.9233   -0.2854    0.0000 C   0  0  0  0  0  0  0  0  0  0  0  0
    2.6378    0.1271    0.0000 C   0  0  0  0  0  0  0  0  0  0  0  0
    3.3523   -0.2854    0.0000 C   0  0  0  0  0  0  0  0  0  0  0  0
    3.3523   -1.1104    0.0000 C   0  0  0  0  0  0  0  0  0  0  0  0
    2.6378   -1.5229    0.0000 C   0  0  0  0  0  0  0  0  0  0  0  0
    1.9233   -1.1104    0.0000 C   0  0  0  0  0  0  0  0  0  0  0  0
    1.1387   -1.3654    0.0000 N   0  0  0  0  0  0  0  0  0  0  0  0
    0.6538   -0.6979    0.0000 C   0  0  0  0  0  0  0  0  0  0  0  0
   -0.1712   -0.6979    0.0000 O   0  0  0  0  0  0  0  0  0  0  0  0
    4.0668    0.1271    0.0000 F   0  0  0  0  0  0  0  0  0  0  0  0
    0.1538    2.3938    0.0000 C   0  0  0  0  0  0  0  0  0  0  0  0
   -1.6923    2.1451    0.0000 C   0  0  0  0  0  0  0  0  0  0  0  0
   -1.5208    2.9521    0.0000 O   0  0  0  0  0  0  0  0  0  0  0  0
   -5.6631    4.0830    0.0000 H   0  0  0  0  0  0  0  0  0  0  0  0
   -6.9031    2.7057    0.0000 H   0  0  0  0  0  0  0  0  0  0  0  0
   -6.6807    3.7523    0.0000 H   0  0  0  0  0  0  0  0  0  0  0  0
   -5.4949    1.4378    0.0000 H   0  0  0  0  0  0  0  0  0  0  0  0
   -4.4772    1.7684    0.0000 H   0  0  0  0  0  0  0  0  0  0  0  0
   -3.2986    3.8769    0.0000 H   0  0  0  0  0  0  0  0  0  0  0  0
   -4.0937    4.5929    0.0000 H   0  0  0  0  0  0  0  0  0  0  0  0
   -4.7069    5.1449    0.0000 H   0  0  0  0  0  0  0  0  0  0  0  0
   -5.9469    3.7676    0.0000 H   0  0  0  0  0  0  0  0  0  0  0  0
   -5.7245    4.8142    0.0000 H   0  0  0  0  0  0  0  0  0  0  0  0
   -4.0972    1.1407    0.0000 H   0  0  0  0  0  0  0  0  0  0  0  0
   -3.0796    1.4713    0.0000 H   0  0  0  0  0  0  0  0  0  0  0  0
   -2.8675    3.4888    0.0000 H   0  0  0  0  0  0  0  0  0  0  0  0
   -2.0724    2.7729    0.0000 H   0  0  0  0  0  0  0  0  0  0  0  0
   -3.6661    0.7526    0.0000 H   0  0  0  0  0  0  0  0  0  0  0  0
   -2.8710    0.0366    0.0000 H   0  0  0  0  0  0  0  0  0  0  0  0
   -2.2579   -0.5154    0.0000 H   0  0  0  0  0  0  0  0  0  0  0  0
   -1.2402   -0.1848    0.0000 H   0  0  0  0  0  0  0  0  0  0  0  0
   -0.4334   -0.6055    0.0000 H   0  0  0  0  0  0  0  0  0  0  0  0
    1.5743    1.5210    0.0000 H   0  0  0  0  0  0  0  0  0  0  0  0
    2.6378    1.1591    0.0000 H   0  0  0  0  0  0  0  0  0  0  0  0
    4.2460   -1.6264    0.0000 H   0  0  0  0  0  0  0  0  0  0  0  0
    2.6378   -2.5549    0.0000 H   0  0  0  0  0  0  0  0  0  0  0  0
    0.8345   -2.3017    0.0000 H   0  0  0  0  0  0  0  0  0  0  0  0
    1.2238    2.3938    0.0000 H   0  0  0  0  0  0  0  0  0  0  0  0
   -0.3812    3.3204    0.0000 H   0  0  0  0  0  0  0  0  0  0  0  0
    0.6888    3.3205    0.0000 H   0  0  0  0  0  0  0  0  0  0  0  0
  1  2  1  0  0  0  0
  1 31  1  0  0  0  0
  1 32  1  0  0  0  0
  1 33  1  0  0  0  0
  2  3  1  0  0  0  0
  2 34  1  0  0  0  0
  2 35  1  0  0  0  0
  3  4  1  0  0  0  0
  3  6  1  0  0  0  0
  4  5  1  0  0  0  0
  4 36  1  0  0  0  0
  4 37  1  0  0  0  0
  5 38  1  0  0  0  0
  5 39  1  0  0  0  0
  5 40  1  0  0  0  0
  6  7  1  0  0  0  0
  6 41  1  0  0  0  0
  6 42  1  0  0  0  0
  7  8  1  0  0  0  0
  7 43  1  0  0  0  0
  7 44  1  0  0  0  0
  8  9  1  0  0  0  0
  8 29  1  0  0  0  0
  9 10  1  0  0  0  0
  9 45  1  0  0  0  0
  9 46  1  0  0  0  0
 10 11  1  0  0  0  0
 10 47  1  0  0  0  0
 10 48  1  0  0  0  0
 11 12  2  0  0  0  0
 11 15  1  0  0  0  0
 12 13  1  0  0  0  0
 12 29  1  0  0  0  0
 13 14  2  0  0  0  0
 13 28  1  0  0  0  0
 14 15  1  0  0  0  0
 14 16  1  0  0  0  0
 15 49  1  0  0  0  0
 16 17  2  0  0  0  0
 16 50  1  0  0  0  0
 17 18  1  0  0  0  0
 17 25  1  0  0  0  0
 18 19  2  0  0  0  0
 18 23  1  0  0  0  0
 19 20  1  0  0  0  0
 19 51  1  0  0  0  0
 20 21  2  0  0  0  0
 20 27  1  0  0  0  0
 21 22  1  0  0  0  0
 21 52  1  0  0  0  0
 22 23  2  0  0  0  0
 22 53  1  0  0  0  0
 23 24  1  0  0  0  0
 24 25  1  0  0  0  0
 24 54  1  0  0  0  0
 25 26  2  0  0  0  0
 28 55  1  0  0  0  0
 28 56  1  0  0  0  0
 28 57  1  0  0  0  0
 29 30  2  0  0  0  0
M  END
>  <DRUGBANK_ID>
DB11741

>  <COMMON_NAME>
Famitinib

>  <CAS_NUMBER>
1044040-56-3

>  <UNII>
768FW21J3L

$$$$
