
 OpenBabel10282417072D

 57 60  0  0  0  0  0  0  0  0999 V2000
   -1.6493   -0.2259    0.0000 C   0  0  0  0  0  0  0  0  0  0  0  0
   -2.3726   -0.6226    0.0000 C   0  0  0  0  0  0  0  0  0  0  0  0
   -2.3726   -1.4626    0.0000 C   0  0  2  0  0  0  0  0  0  0  0  0
   -1.6493   -1.8749    0.0000 C   0  0  0  0  0  0  0  0  0  0  0  0
   -0.9493   -1.4626    0.0000 C   0  0  2  0  0  0  0  0  0  0  0  0
   -0.2337   -1.8749    0.0000 C   0  0  0  0  0  0  0  0  0  0  0  0
    0.4973   -1.4626    0.0000 C   0  0  0  0  0  0  0  0  0  0  0  0
    0.4973   -0.6226    0.0000 C   0  0  2  0  0  0  0  0  0  0  0  0
   -0.2337   -0.2259    0.0000 C   0  0  1  0  0  0  0  0  0  0  0  0
   -0.9493   -0.6226    0.0000 C   0  0  1  0  0  0  0  0  0  0  0  0
   -0.2337    0.5829    0.0000 C   0  0  0  0  0  0  0  0  0  0  0  0
    0.4973    1.0029    0.0000 C   0  0  0  0  0  0  0  0  0  0  0  0
    1.1973    0.5829    0.0000 C   0  0  1  0  0  0  0  0  0  0  0  0
    1.1973   -0.2259    0.0000 C   0  0  1  0  0  0  0  0  0  0  0  0
    1.9830   -0.4826    0.0000 C   0  0  0  0  0  0  0  0  0  0  0  0
    2.4497    0.1707    0.0000 C   0  0  0  0  0  0  0  0  0  0  0  0
    1.9830    0.8318    0.0000 C   0  0  2  0  0  0  0  0  0  0  0  0
    1.1973    1.4307    0.0000 C   0  0  0  0  0  0  0  0  0  0  0  0
   -0.9493    0.1862    0.0000 C   0  0  0  0  0  0  0  0  0  0  0  0
    2.2474    1.6174    0.0000 C   0  0  0  0  0  0  0  0  0  0  0  0
    3.0564    1.7807    0.0000 C   0  0  0  0  0  0  0  0  0  0  0  0
    1.1973   -1.0582    0.0000 H   0  0  0  0  0  0  0  0  0  0  0  0
    0.5052    0.1940    0.0000 H   0  0  0  0  0  0  0  0  0  0  0  0
   -0.2337   -1.0582    0.0000 H   0  0  0  0  0  0  0  0  0  0  0  0
    2.8075    1.1273    0.0000 H   0  0  0  0  0  0  0  0  0  0  0  0
   -3.0564   -1.8914    0.0000 O   0  0  0  0  0  0  0  0  0  0  0  0
   -0.9452   -2.1818    0.0000 H   0  0  0  0  0  0  0  0  0  0  0  0
    1.7781    2.1818    0.0000 O   0  0  0  0  0  0  0  0  0  0  0  0
   -1.6418    0.8441    0.0000 H   0  0  0  0  0  0  0  0  0  0  0  0
   -2.5681    0.3224    0.0000 H   0  0  0  0  0  0  0  0  0  0  0  0
   -3.2933   -0.0775    0.0000 H   0  0  0  0  0  0  0  0  0  0  0  0
   -3.3022   -1.1525    0.0000 H   0  0  0  0  0  0  0  0  0  0  0  0
   -2.3501   -2.5324    0.0000 H   0  0  0  0  0  0  0  0  0  0  0  0
   -1.6417   -2.9449    0.0000 H   0  0  0  0  0  0  0  0  0  0  0  0
   -2.5726   -2.4157    0.0000 H   0  0  0  0  0  0  0  0  0  0  0  0
   -0.2386   -2.9449    0.0000 H   0  0  0  0  0  0  0  0  0  0  0  0
   -1.1613   -2.4082    0.0000 H   0  0  0  0  0  0  0  0  0  0  0  0
    1.4212   -2.0023    0.0000 H   0  0  0  0  0  0  0  0  0  0  0  0
    0.4892   -2.5326    0.0000 H   0  0  0  0  0  0  0  0  0  0  0  0
   -1.1598    1.1189    0.0000 H   0  0  0  0  0  0  0  0  0  0  0  0
   -0.2320    1.6529    0.0000 H   0  0  0  0  0  0  0  0  0  0  0  0
    0.5074    2.0729    0.0000 H   0  0  0  0  0  0  0  0  0  0  0  0
   -0.4262    1.5432    0.0000 H   0  0  0  0  0  0  0  0  0  0  0  0
    2.3169   -1.4992    0.0000 H   0  0  0  0  0  0  0  0  0  0  0  0
    3.0407   -0.6441    0.0000 H   0  0  0  0  0  0  0  0  0  0  0  0
    3.5197    0.1677    0.0000 H   0  0  0  0  0  0  0  0  0  0  0  0
    2.9380   -0.7814    0.0000 H   0  0  0  0  0  0  0  0  0  0  0  0
    2.1239    1.9657    0.0000 H   0  0  0  0  0  0  0  0  0  0  0  0
    0.2707    1.9657    0.0000 H   0  0  0  0  0  0  0  0  0  0  0  0
    1.1973    2.5007    0.0000 H   0  0  0  0  0  0  0  0  0  0  0  0
   -0.0227    0.7212    0.0000 H   0  0  0  0  0  0  0  0  0  0  0  0
   -1.8759    0.7212    0.0000 H   0  0  0  0  0  0  0  0  0  0  0  0
   -0.9493    1.2562    0.0000 H   0  0  0  0  0  0  0  0  0  0  0  0
    3.7642    0.9782    0.0000 H   0  0  0  0  0  0  0  0  0  0  0  0
    3.3975    2.7949    0.0000 H   0  0  0  0  0  0  0  0  0  0  0  0
    4.1052    1.9924    0.0000 H   0  0  0  0  0  0  0  0  0  0  0  0
   -3.9136   -1.4374    0.0000 H   0  0  0  0  0  0  0  0  0  0  0  0
  1 10  1  0  0  0  0
  1 29  1  0  0  0  0
  1 30  1  0  0  0  0
  2  1  1  0  0  0  0
  2 31  1  0  0  0  0
  2 32  1  0  0  0  0
  3  4  1  0  0  0  0
  3  2  1  0  0  0  0
  3 26  1  0  0  0  0
  3 33  1  1  0  0  0
  4  5  1  0  0  0  0
  4 34  1  0  0  0  0
  4 35  1  0  0  0  0
  5 10  1  0  0  0  0
  5 27  1  6  0  0  0
  6  7  1  0  0  0  0
  6  5  1  0  0  0  0
  6 36  1  0  0  0  0
  6 37  1  0  0  0  0
  7  8  1  0  0  0  0
  7 38  1  0  0  0  0
  7 39  1  0  0  0  0
  8 14  1  0  0  0  0
  8  9  1  0  0  0  0
  8 23  1  1  0  0  0
  9 24  1  6  0  0  0
 10  9  1  0  0  0  0
 10 19  1  1  0  0  0
 11  9  1  0  0  0  0
 11 12  1  0  0  0  0
 11 40  1  0  0  0  0
 11 41  1  0  0  0  0
 12 13  1  0  0  0  0
 12 42  1  0  0  0  0
 12 43  1  0  0  0  0
 13 18  1  1  0  0  0
 14 13  1  0  0  0  0
 14 22  1  6  0  0  0
 15 14  1  0  0  0  0
 15 44  1  0  0  0  0
 15 45  1  0  0  0  0
 16 17  1  0  0  0  0
 16 15  1  0  0  0  0
 16 46  1  0  0  0  0
 16 47  1  0  0  0  0
 17 13  1  0  0  0  0
 17 20  1  0  0  0  0
 17 25  1  6  0  0  0
 18 48  1  0  0  0  0
 18 49  1  0  0  0  0
 18 50  1  0  0  0  0
 19 51  1  0  0  0  0
 19 52  1  0  0  0  0
 19 53  1  0  0  0  0
 21 20  1  0  0  0  0
 21 54  1  0  0  0  0
 21 55  1  0  0  0  0
 21 56  1  0  0  0  0
 26 57  1  0  0  0  0
 28 20  2  0  0  0  0
M  END
>  <DRUGBANK_ID>
DB11859

>  <COMMON_NAME>
Brexanolone

>  <CAS_NUMBER>
516-54-1

>  <UNII>
S39XZ5QV8Y

>  <SYNONYMS>
3alpha-OH DHP; allopregnan-3Î±-ol-20-one; Allopregnanolone; Brexanolone

$$$$
