
 OpenBabel10282417072D

 88 87  0  0  1  0  0  0  0  0999 V2000
   11.6605    7.5572    0.0000 C   0  0  0  0  0  0  0  0  0  0  0  0
   12.3750    7.1447    0.0000 C   0  0  0  0  0  0  0  0  0  0  0  0
   12.3750    6.3197    0.0000 C   0  0  0  0  0  0  0  0  0  0  0  0
   13.0895    7.5572    0.0000 C   0  0  0  0  0  0  0  0  0  0  0  0
   13.8039    7.1447    0.0000 C   0  0  1  0  0  0  0  0  0  0  0  0
   13.8039    6.3197    0.0000 C   0  0  0  0  0  0  0  0  0  0  0  0
   14.5184    5.9072    0.0000 O   0  0  0  0  0  0  0  0  0  0  0  0
   13.0895    5.9072    0.0000 O   0  0  0  0  0  0  0  0  0  0  0  0
   14.5184    7.5572    0.0000 N   0  0  0  0  0  0  0  0  0  0  0  0
   15.2329    7.1447    0.0000 C   0  0  0  0  0  0  0  0  0  0  0  0
   15.2329    6.3197    0.0000 O   0  0  0  0  0  0  0  0  0  0  0  0
   15.9474    7.5572    0.0000 C   0  0  2  0  0  0  0  0  0  0  0  0
   15.9474    8.3822    0.0000 C   0  0  0  0  0  0  0  0  0  0  0  0
   16.6618    8.7947    0.0000 C   0  0  0  0  0  0  0  0  0  0  0  0
   16.6618    9.6197    0.0000 C   0  0  0  0  0  0  0  0  0  0  0  0
   15.9474   10.0322    0.0000 O   0  0  0  0  0  0  0  0  0  0  0  0
   17.3763   10.0322    0.0000 O   0  0  0  0  0  0  0  0  0  0  0  0
   16.6618    7.1447    0.0000 N   0  0  0  0  0  0  0  0  0  0  0  0
   17.3763    7.5572    0.0000 C   0  0  0  0  0  0  0  0  0  0  0  0
   17.3763    8.3822    0.0000 O   0  0  0  0  0  0  0  0  0  0  0  0
   18.0908    7.1447    0.0000 C   0  0  2  0  0  0  0  0  0  0  0  0
   18.0908    6.3197    0.0000 C   0  0  0  0  0  0  0  0  0  0  0  0
   17.3763    5.9072    0.0000 S   0  0  0  0  0  0  0  0  0  0  0  0
   18.8052    7.5572    0.0000 N   0  0  0  0  0  0  0  0  0  0  0  0
   19.5197    7.1447    0.0000 C   0  0  0  0  0  0  0  0  0  0  0  0
   19.5197    6.3197    0.0000 O   0  0  0  0  0  0  0  0  0  0  0  0
   20.2342    7.5572    0.0000 C   0  0  0  0  0  0  0  0  0  0  0  0
   20.9487    7.1447    0.0000 N   0  0  0  0  0  0  0  0  0  0  0  0
   21.6631    7.5572    0.0000 C   0  0  0  0  0  0  0  0  0  0  0  0
   21.6631    8.3822    0.0000 O   0  0  0  0  0  0  0  0  0  0  0  0
   22.3776    7.1447    0.0000 C   0  0  2  0  0  0  0  0  0  0  0  0
   22.3776    6.3197    0.0000 C   0  0  0  0  0  0  0  0  0  0  0  0
   21.6631    5.9072    0.0000 C   0  0  0  0  0  0  0  0  0  0  0  0
   21.6631    5.0822    0.0000 O   0  0  0  0  0  0  0  0  0  0  0  0
   20.9487    6.3197    0.0000 O   0  0  0  0  0  0  0  0  0  0  0  0
   23.0921    7.5572    0.0000 N   0  0  0  0  0  0  0  0  0  0  0  0
   23.8065    7.1447    0.0000 C   0  0  0  0  0  0  0  0  0  0  0  0
   23.8065    6.3197    0.0000 O   0  0  0  0  0  0  0  0  0  0  0  0
   24.5210    7.5572    0.0000 C   0  0  2  0  0  0  0  0  0  0  0  0
   25.2355    7.1447    0.0000 C   0  0  0  0  0  0  0  0  0  0  0  0
   25.9499    7.5572    0.0000 C   0  0  0  0  0  0  0  0  0  0  0  0
   26.6644    7.1447    0.0000 S   0  0  0  0  0  0  0  0  0  0  0  0
   27.3789    7.5572    0.0000 C   0  0  0  0  0  0  0  0  0  0  0  0
   24.5210    8.3822    0.0000 N   0  0  0  0  0  0  0  0  0  0  0  0
   23.8065    8.7947    0.0000 C   0  0  0  0  0  0  0  0  0  0  0  0
   23.8065    9.6197    0.0000 O   0  0  0  0  0  0  0  0  0  0  0  0
   11.6605    8.6272    0.0000 H   0  0  0  0  0  0  0  0  0  0  0  0
   10.7339    7.0222    0.0000 H   0  0  0  0  0  0  0  0  0  0  0  0
   10.7338    8.0922    0.0000 H   0  0  0  0  0  0  0  0  0  0  0  0
   13.3016    6.6097    0.0000 H   0  0  0  0  0  0  0  0  0  0  0  0
   11.4484    5.7847    0.0000 H   0  0  0  0  0  0  0  0  0  0  0  0
   13.3016    5.7847    0.0000 H   0  0  0  0  0  0  0  0  0  0  0  0
   12.3750    5.2497    0.0000 H   0  0  0  0  0  0  0  0  0  0  0  0
   13.0895    8.6272    0.0000 H   0  0  0  0  0  0  0  0  0  0  0  0
   14.0162    8.0922    0.0000 H   0  0  0  0  0  0  0  0  0  0  0  0
   13.8039    8.2147    0.0000 H   0  0  0  0  0  0  0  0  0  0  0  0
   12.2780    6.3757    0.0000 H   0  0  0  0  0  0  0  0  0  0  0  0
   14.5184    8.5417    0.0000 H   0  0  0  0  0  0  0  0  0  0  0  0
   15.9474    6.4872    0.0000 H   0  0  0  0  0  0  0  0  0  0  0  0
   15.0207    8.9172    0.0000 H   0  0  0  0  0  0  0  0  0  0  0  0
   15.9474    9.4522    0.0000 H   0  0  0  0  0  0  0  0  0  0  0  0
   17.5885    8.2597    0.0000 H   0  0  0  0  0  0  0  0  0  0  0  0
   17.5884    9.3297    0.0000 H   0  0  0  0  0  0  0  0  0  0  0  0
   18.1878    9.5637    0.0000 H   0  0  0  0  0  0  0  0  0  0  0  0
   16.6618    6.1602    0.0000 H   0  0  0  0  0  0  0  0  0  0  0  0
   18.0908    8.2147    0.0000 H   0  0  0  0  0  0  0  0  0  0  0  0
   19.0174    5.7847    0.0000 H   0  0  0  0  0  0  0  0  0  0  0  0
   18.0908    5.2497    0.0000 H   0  0  0  0  0  0  0  0  0  0  0  0
   16.1985    6.5872    0.0000 H   0  0  0  0  0  0  0  0  0  0  0  0
   18.8052    8.5417    0.0000 H   0  0  0  0  0  0  0  0  0  0  0  0
   20.2342    8.6272    0.0000 H   0  0  0  0  0  0  0  0  0  0  0  0
   21.1608    8.0922    0.0000 H   0  0  0  0  0  0  0  0  0  0  0  0
   20.9487    6.1602    0.0000 H   0  0  0  0  0  0  0  0  0  0  0  0
   22.3776    8.2147    0.0000 H   0  0  0  0  0  0  0  0  0  0  0  0
   23.3042    5.7847    0.0000 H   0  0  0  0  0  0  0  0  0  0  0  0
   22.3776    5.2497    0.0000 H   0  0  0  0  0  0  0  0  0  0  0  0
   20.9487    7.2567    0.0000 H   0  0  0  0  0  0  0  0  0  0  0  0
   23.0921    8.5417    0.0000 H   0  0  0  0  0  0  0  0  0  0  0  0
   23.5944    8.0922    0.0000 H   0  0  0  0  0  0  0  0  0  0  0  0
   25.2355    6.0747    0.0000 H   0  0  0  0  0  0  0  0  0  0  0  0
   26.1622    6.6097    0.0000 H   0  0  0  0  0  0  0  0  0  0  0  0
   25.9499    8.6272    0.0000 H   0  0  0  0  0  0  0  0  0  0  0  0
   26.8765    8.0922    0.0000 H   0  0  0  0  0  0  0  0  0  0  0  0
   28.3055    7.0222    0.0000 H   0  0  0  0  0  0  0  0  0  0  0  0
   27.3789    8.6272    0.0000 H   0  0  0  0  0  0  0  0  0  0  0  0
   28.3056    8.0922    0.0000 H   0  0  0  0  0  0  0  0  0  0  0  0
   25.3736    8.8745    0.0000 H   0  0  0  0  0  0  0  0  0  0  0  0
   22.9128    8.2787    0.0000 H   0  0  0  0  0  0  0  0  0  0  0  0
  1  2  1  0  0  0  0
  1 47  1  0  0  0  0
  1 48  1  0  0  0  0
  1 49  1  0  0  0  0
  2  3  1  0  0  0  0
  2  4  1  0  0  0  0
  2 50  1  0  0  0  0
  3 51  1  0  0  0  0
  3 52  1  0  0  0  0
  3 53  1  0  0  0  0
  4  5  1  0  0  0  0
  4 54  1  0  0  0  0
  4 55  1  0  0  0  0
  5  6  1  0  0  0  0
  5  9  1  0  0  0  0
  5 56  1  1  0  0  0
  6  7  2  0  0  0  0
  6  8  1  0  0  0  0
  8 57  1  0  0  0  0
  9 10  1  0  0  0  0
  9 58  1  0  0  0  0
 10 11  2  0  0  0  0
 10 12  1  0  0  0  0
 12 13  1  0  0  0  0
 12 18  1  0  0  0  0
 12 59  1  1  0  0  0
 13 14  1  0  0  0  0
 13 60  1  0  0  0  0
 13 61  1  0  0  0  0
 14 15  1  0  0  0  0
 14 62  1  0  0  0  0
 14 63  1  0  0  0  0
 15 16  2  0  0  0  0
 15 17  1  0  0  0  0
 17 64  1  0  0  0  0
 18 19  1  0  0  0  0
 18 65  1  0  0  0  0
 19 20  2  0  0  0  0
 19 21  1  0  0  0  0
 21 22  1  0  0  0  0
 21 24  1  0  0  0  0
 21 66  1  6  0  0  0
 22 23  1  0  0  0  0
 22 67  1  0  0  0  0
 22 68  1  0  0  0  0
 23 69  1  0  0  0  0
 24 25  1  0  0  0  0
 24 70  1  0  0  0  0
 25 26  2  0  0  0  0
 25 27  1  0  0  0  0
 27 28  1  0  0  0  0
 27 71  1  0  0  0  0
 27 72  1  0  0  0  0
 28 29  1  0  0  0  0
 28 73  1  0  0  0  0
 29 30  2  0  0  0  0
 29 31  1  0  0  0  0
 31 32  1  0  0  0  0
 31 36  1  0  0  0  0
 31 74  1  6  0  0  0
 32 33  1  0  0  0  0
 32 75  1  0  0  0  0
 32 76  1  0  0  0  0
 33 34  2  0  0  0  0
 33 35  1  0  0  0  0
 35 77  1  0  0  0  0
 36 37  1  0  0  0  0
 36 78  1  0  0  0  0
 37 38  2  0  0  0  0
 37 39  1  0  0  0  0
 39 40  1  0  0  0  0
 39 44  1  0  0  0  0
 39 79  1  6  0  0  0
 40 41  1  0  0  0  0
 40 80  1  0  0  0  0
 40 81  1  0  0  0  0
 41 42  1  0  0  0  0
 41 82  1  0  0  0  0
 41 83  1  0  0  0  0
 42 43  1  0  0  0  0
 43 84  1  0  0  0  0
 43 85  1  0  0  0  0
 43 86  1  0  0  0  0
 44 45  1  0  0  0  0
 44 87  1  0  0  0  0
 45 46  2  0  0  0  0
 45 88  1  0  0  0  0
M  END
>  <DRUGBANK_ID>
DB13034

>  <COMMON_NAME>
Foxy-5

>  <CAS_NUMBER>
881188-51-8

>  <UNII>
CBZ9UL0ARB

$$$$
