
 OpenBabel10282417072D

183194  0  0  0  0  0  0  0  0999 V2000
   -0.3218    2.2434    0.0000 Co  0  7  0  0  0  0  0  0  0  0  0  0
   -1.0291    0.5413    0.0000 C   0  0  0  0  0  0  0  0  0  0  0  0
   -1.1410    1.3449    0.0000 N   0  0  0  0  0  0  0  0  0  0  0  0
   -1.1410    3.0429    0.0000 N   0  3  0  0  0  0  0  0  0  0  0  0
   -1.0291    3.8464    0.0000 C   0  0  0  0  0  0  0  0  0  0  0  0
   -1.7415    4.2233    0.0000 C   0  0  2  0  0  0  0  0  0  0  0  0
    0.4120    3.8464    0.0000 C   0  0  0  0  0  0  0  0  0  0  0  0
    0.5364    3.0429    0.0000 N   0  3  0  0  0  0  0  0  0  0  0  0
    1.3605    2.8938    0.0000 C   0  0  0  0  0  0  0  0  0  0  0  0
    1.7747    2.1938    0.0000 C   0  0  0  0  0  0  0  0  0  0  0  0
    1.3605    1.4897    0.0000 C   0  0  0  0  0  0  0  0  0  0  0  0
    0.5364    1.3449    0.0000 N   0  3  0  0  0  0  0  0  0  0  0  0
    0.4120    0.5413    0.0000 C   0  0  0  0  0  0  0  0  0  0  0  0
    1.1493    0.1603    0.0000 C   0  0  1  0  0  0  0  0  0  0  0  0
    1.2717   -0.6555    0.0000 C   0  0  0  0  0  0  0  0  0  0  0  0
    2.0394   -0.9574    0.0000 C   0  0  0  0  0  0  0  0  0  0  0  0
    2.1618   -1.7733    0.0000 C   0  0  0  0  0  0  0  0  0  0  0  0
    1.7415    0.7401    0.0000 C   0  0  0  0  0  0  0  0  0  0  0  0
    2.3797    0.2172    0.0000 C   0  0  0  0  0  0  0  0  0  0  0  0
    2.5134    1.0313    0.0000 C   0  0  0  0  0  0  0  0  0  0  0  0
    1.9001    4.5651    0.0000 C   0  0  0  0  0  0  0  0  0  0  0  0
   -0.2919    4.2563    0.0000 C   0  0  0  0  0  0  0  0  0  0  0  0
   -0.2919    5.0814    0.0000 C   0  0  0  0  0  0  0  0  0  0  0  0
   -0.2919    0.1271    0.0000 C   0  0  0  0  0  0  0  0  0  0  0  0
   -0.2919   -0.6978    0.0000 C   0  0  0  0  0  0  0  0  0  0  0  0
   -1.9527    1.4897    0.0000 C   0  0  1  0  0  0  0  0  0  0  0  0
   -2.7496    1.7032    0.0000 H   0  0  0  0  0  0  0  0  0  0  0  0
   -1.9527    2.9186    0.0000 C   0  0  2  0  0  0  0  0  0  0  0  0
   -2.7496    2.7051    0.0000 C   0  0  0  0  0  0  0  0  0  0  0  0
   -1.7415   -0.6646    0.0000 C   0  0  0  0  0  0  0  0  0  0  0  0
    1.7415    3.6434    0.0000 C   0  0  1  0  0  0  0  0  0  0  0  0
    2.4560    4.0559    0.0000 C   0  0  0  0  0  0  0  0  0  0  0  0
    3.1705    3.6434    0.0000 C   0  0  0  0  0  0  0  0  0  0  0  0
    3.8849    4.0559    0.0000 C   0  0  0  0  0  0  0  0  0  0  0  0
    3.8849    4.8809    0.0000 O   0  0  0  0  0  0  0  0  0  0  0  0
    4.5994    3.6434    0.0000 N   0  0  0  0  0  0  0  0  0  0  0  0
    1.1493    5.0483    0.0000 C   0  0  0  0  0  0  0  0  0  0  0  0
    1.8639    5.4607    0.0000 C   0  0  0  0  0  0  0  0  0  0  0  0
    1.8639    6.2857    0.0000 O   0  0  0  0  0  0  0  0  0  0  0  0
    2.5783    5.0483    0.0000 N   0  0  0  0  0  0  0  0  0  0  0  0
    1.1493    4.2233    0.0000 C   0  0  2  0  0  0  0  0  0  0  0  0
   -3.0481    3.2309    0.0000 C   0  0  0  0  0  0  0  0  0  0  0  0
   -3.7625    3.6434    0.0000 C   0  0  0  0  0  0  0  0  0  0  0  0
   -3.7625    4.4684    0.0000 O   0  0  0  0  0  0  0  0  0  0  0  0
   -4.4772    3.2309    0.0000 N   0  0  0  0  0  0  0  0  0  0  0  0
   -2.3337    0.7401    0.0000 C   0  0  2  0  0  0  0  0  0  0  0  0
   -3.0481    0.3276    0.0000 C   0  0  0  0  0  0  0  0  0  0  0  0
   -3.7625    0.7401    0.0000 C   0  0  0  0  0  0  0  0  0  0  0  0
   -3.7625    1.5651    0.0000 O   0  0  0  0  0  0  0  0  0  0  0  0
   -4.4772    0.3276    0.0000 N   0  0  0  0  0  0  0  0  0  0  0  0
    1.3208   -3.2803    0.0000 C   0  0  0  0  0  0  0  0  0  0  0  0
    0.0000   -3.0876    0.0000 C   0  0  0  0  0  0  0  0  0  0  0  0
    0.9553   -4.0199    0.0000 C   0  0  0  0  0  0  0  0  0  0  0  0
    0.7303   -2.7041    0.0000 N   0  3  0  0  0  0  0  0  0  0  0  0
    0.1389   -3.9009    0.0000 N   0  0  0  0  0  0  0  0  0  0  0  0
   -0.4379   -4.4925    0.0000 C   0  0  1  0  0  0  0  0  0  0  0  0
   -0.6928   -5.2771    0.0000 O   0  0  0  0  0  0  0  0  0  0  0  0
   -1.5178   -5.2771    0.0000 C   0  0  2  0  0  0  0  0  0  0  0  0
   -2.0027   -5.9446    0.0000 C   0  0  0  0  0  0  0  0  0  0  0  0
   -1.6672   -6.6983    0.0000 O   0  0  0  0  0  0  0  0  0  0  0  0
   -1.1053   -4.0076    0.0000 C   0  0  2  0  0  0  0  0  0  0  0  0
   -1.1053   -3.1826    0.0000 O   0  0  0  0  0  0  0  0  0  0  0  0
   -1.7727   -4.4925    0.0000 C   0  0  2  0  0  0  0  0  0  0  0  0
   -2.5574   -4.2376    0.0000 O   0  0  0  0  0  0  0  0  0  0  0  0
   -2.4560   -1.0771    0.0000 C   0  0  0  0  0  0  0  0  0  0  0  0
   -3.1703   -1.4896    0.0000 C   0  0  0  0  0  0  0  0  0  0  0  0
   -3.8849   -1.0771    0.0000 O   0  0  0  0  0  0  0  0  0  0  0  0
   -3.1703   -2.3146    0.0000 N   0  0  0  0  0  0  0  0  0  0  0  0
   -3.8849   -2.7271    0.0000 C   0  0  0  0  0  0  0  0  0  0  0  0
   -2.4560   -0.2521    0.0000 C   0  0  0  0  0  0  0  0  0  0  0  0
   -1.7415    0.1603    0.0000 C   0  0  1  0  0  0  0  0  0  0  0  0
   -3.8849   -3.5521    0.0000 C   0  0  2  0  0  0  0  0  0  0  0  0
   -3.1705   -3.9647    0.0000 O   0  0  0  0  0  0  0  0  0  0  0  0
   -4.5994   -3.9647    0.0000 C   0  0  0  0  0  0  0  0  0  0  0  0
   -3.9955   -4.7897    0.0000 O   0  0  0  0  0  0  0  0  0  0  0  0
   -3.1705   -4.7897    0.0000 P   0  0  3  0  0  0  0  0  0  0  0  0
   -2.7580   -5.5042    0.0000 O   0  5  0  0  0  0  0  0  0  0  0  0
    1.5163   -2.2872    0.0000 O   0  0  0  0  0  0  0  0  0  0  0  0
    2.9295   -2.0754    0.0000 N   0  0  0  0  0  0  0  0  0  0  0  0
   -2.3337    3.6434    0.0000 C   0  0  1  0  0  0  0  0  0  0  0  0
   -2.9846    4.1373    0.0000 C   0  0  0  0  0  0  0  0  0  0  0  0
    1.4130   -4.7064    0.0000 C   0  0  0  0  0  0  0  0  0  0  0  0
    2.6018   -3.9134    0.0000 C   0  0  0  0  0  0  0  0  0  0  0  0
   -1.7483    5.0483    0.0000 C   0  0  0  0  0  0  0  0  0  0  0  0
   -2.4659    5.4553    0.0000 C   0  0  0  0  0  0  0  0  0  0  0  0
   -2.4723    6.2803    0.0000 C   0  0  0  0  0  0  0  0  0  0  0  0
   -3.1900    6.6871    0.0000 O   0  0  0  0  0  0  0  0  0  0  0  0
   -1.7610    6.6983    0.0000 N   0  0  0  0  0  0  0  0  0  0  0  0
    2.2364   -4.6530    0.0000 C   0  0  0  0  0  0  0  0  0  0  0  0
    2.1441   -3.2271    0.0000 C   0  0  0  0  0  0  0  0  0  0  0  0
    2.6941   -5.3395    0.0000 C   0  0  0  0  0  0  0  0  0  0  0  0
    3.4250   -3.8603    0.0000 C   0  0  0  0  0  0  0  0  0  0  0  0
   -0.3206    3.3121    0.0000 C   0  0  0  0  0  0  0  0  0  0  0  0
   -0.8272    4.7791    0.0000 H   0  0  0  0  0  0  0  0  0  0  0  0
    2.8067    2.1951    0.0000 H   0  0  0  0  0  0  0  0  0  0  0  0
    0.2793   -0.4626    0.0000 H   0  0  0  0  0  0  0  0  0  0  0  0
    0.4347   -1.3221    0.0000 H   0  0  0  0  0  0  0  0  0  0  0  0
    1.4305   -1.7137    0.0000 H   0  0  0  0  0  0  0  0  0  0  0  0
    2.8764   -0.2908    0.0000 H   0  0  0  0  0  0  0  0  0  0  0  0
    3.0352   -1.3490    0.0000 H   0  0  0  0  0  0  0  0  0  0  0  0
    2.2062   -0.8386    0.0000 H   0  0  0  0  0  0  0  0  0  0  0  0
    3.3808    0.5949    0.0000 H   0  0  0  0  0  0  0  0  0  0  0  0
    3.2074   -0.4609    0.0000 H   0  0  0  0  0  0  0  0  0  0  0  0
    3.3410    0.3531    0.0000 H   0  0  0  0  0  0  0  0  0  0  0  0
    2.6869    2.0871    0.0000 H   0  0  0  0  0  0  0  0  0  0  0  0
    3.5145    1.4090    0.0000 H   0  0  0  0  0  0  0  0  0  0  0  0
    2.7710    3.9434    0.0000 H   0  0  0  0  0  0  0  0  0  0  0  0
    2.0031    5.6301    0.0000 H   0  0  0  0  0  0  0  0  0  0  0  0
    2.8739    5.0084    0.0000 H   0  0  0  0  0  0  0  0  0  0  0  0
    0.6347    5.6164    0.0000 H   0  0  0  0  0  0  0  0  0  0  0  0
   -1.2185    5.6164    0.0000 H   0  0  0  0  0  0  0  0  0  0  0  0
   -0.2919    6.1514    0.0000 H   0  0  0  0  0  0  0  0  0  0  0  0
   -1.2185   -1.2328    0.0000 H   0  0  0  0  0  0  0  0  0  0  0  0
    0.6347   -1.2328    0.0000 H   0  0  0  0  0  0  0  0  0  0  0  0
   -0.2919   -1.7678    0.0000 H   0  0  0  0  0  0  0  0  0  0  0  0
   -3.5062    3.4617    0.0000 H   0  0  0  0  0  0  0  0  0  0  0  0
   -3.0266    1.6716    0.0000 H   0  0  0  0  0  0  0  0  0  0  0  0
   -3.7831    2.4282    0.0000 H   0  0  0  0  0  0  0  0  0  0  0  0
   -2.6681   -1.1996    0.0000 H   0  0  0  0  0  0  0  0  0  0  0  0
   -0.8149   -1.1996    0.0000 H   0  0  0  0  0  0  0  0  0  0  0  0
   -1.7415   -1.7346    0.0000 H   0  0  0  0  0  0  0  0  0  0  0  0
    2.5180    2.9072    0.0000 H   0  0  0  0  0  0  0  0  0  0  0  0
    2.4560    5.1259    0.0000 H   0  0  0  0  0  0  0  0  0  0  0  0
    3.3826    4.5909    0.0000 H   0  0  0  0  0  0  0  0  0  0  0  0
    3.1705    2.5734    0.0000 H   0  0  0  0  0  0  0  0  0  0  0  0
    4.0972    3.1084    0.0000 H   0  0  0  0  0  0  0  0  0  0  0  0
    4.5994    2.6589    0.0000 H   0  0  0  0  0  0  0  0  0  0  0  0
    5.4520    4.1357    0.0000 H   0  0  0  0  0  0  0  0  0  0  0  0
    0.2227    5.5834    0.0000 H   0  0  0  0  0  0  0  0  0  0  0  0
    0.2226    4.5133    0.0000 H   0  0  0  0  0  0  0  0  0  0  0  0
    2.5784    4.0638    0.0000 H   0  0  0  0  0  0  0  0  0  0  0  0
    3.4309    5.5406    0.0000 H   0  0  0  0  0  0  0  0  0  0  0  0
   -3.0481    2.1609    0.0000 H   0  0  0  0  0  0  0  0  0  0  0  0
   -3.9748    2.6959    0.0000 H   0  0  0  0  0  0  0  0  0  0  0  0
   -5.3297    3.7233    0.0000 H   0  0  0  0  0  0  0  0  0  0  0  0
   -4.4773    2.2464    0.0000 H   0  0  0  0  0  0  0  0  0  0  0  0
   -3.1102    1.4762    0.0000 H   0  0  0  0  0  0  0  0  0  0  0  0
   -3.0481   -0.7424    0.0000 H   0  0  0  0  0  0  0  0  0  0  0  0
   -3.9748   -0.2074    0.0000 H   0  0  0  0  0  0  0  0  0  0  0  0
   -5.3297    0.8200    0.0000 H   0  0  0  0  0  0  0  0  0  0  0  0
   -4.4773   -0.6569    0.0000 H   0  0  0  0  0  0  0  0  0  0  0  0
   -0.9252   -2.6303    0.0000 H   0  0  0  0  0  0  0  0  0  0  0  0
   -0.5286   -3.4264    0.0000 H   0  0  0  0  0  0  0  0  0  0  0  0
   -1.0320   -6.2305    0.0000 H   0  0  0  0  0  0  0  0  0  0  0  0
   -3.0668   -5.8327    0.0000 H   0  0  0  0  0  0  0  0  0  0  0  0
   -2.6317   -6.8102    0.0000 H   0  0  0  0  0  0  0  0  0  0  0  0
   -2.2374   -7.4830    0.0000 H   0  0  0  0  0  0  0  0  0  0  0  0
   -0.1519   -3.5218    0.0000 H   0  0  0  0  0  0  0  0  0  0  0  0
   -0.2653   -2.6976    0.0000 H   0  0  0  0  0  0  0  0  0  0  0  0
   -2.5293   -5.2491    0.0000 H   0  0  0  0  0  0  0  0  0  0  0  0
   -1.5293   -1.6121    0.0000 H   0  0  0  0  0  0  0  0  0  0  0  0
   -2.4559   -2.1471    0.0000 H   0  0  0  0  0  0  0  0  0  0  0  0
   -2.3177   -2.8069    0.0000 H   0  0  0  0  0  0  0  0  0  0  0  0
   -4.8115   -2.1921    0.0000 H   0  0  0  0  0  0  0  0  0  0  0  0
   -4.8116   -3.2621    0.0000 H   0  0  0  0  0  0  0  0  0  0  0  0
   -3.3826    0.2830    0.0000 H   0  0  0  0  0  0  0  0  0  0  0  0
   -2.4559    0.8179    0.0000 H   0  0  0  0  0  0  0  0  0  0  0  0
   -4.8116   -3.0171    0.0000 H   0  0  0  0  0  0  0  0  0  0  0  0
   -5.5261   -3.4298    0.0000 H   0  0  0  0  0  0  0  0  0  0  0  0
   -4.5993   -5.0347    0.0000 H   0  0  0  0  0  0  0  0  0  0  0  0
   -5.5260   -4.4998    0.0000 H   0  0  0  0  0  0  0  0  0  0  0  0
    3.0754   -3.0490    0.0000 H   0  0  0  0  0  0  0  0  0  0  0  0
    3.6998   -1.4623    0.0000 H   0  0  0  0  0  0  0  0  0  0  0  0
   -2.8507    5.1989    0.0000 H   0  0  0  0  0  0  0  0  0  0  0  0
   -3.9709    3.7225    0.0000 H   0  0  0  0  0  0  0  0  0  0  0  0
   -3.8370    4.7841    0.0000 H   0  0  0  0  0  0  0  0  0  0  0  0
    0.9558   -5.6316    0.0000 H   0  0  0  0  0  0  0  0  0  0  0  0
   -0.8259    5.5907    0.0000 H   0  0  0  0  0  0  0  0  0  0  0  0
   -1.7567    6.1183    0.0000 H   0  0  0  0  0  0  0  0  0  0  0  0
   -3.3884    4.9132    0.0000 H   0  0  0  0  0  0  0  0  0  0  0  0
   -3.3967    5.9831    0.0000 H   0  0  0  0  0  0  0  0  0  0  0  0
   -0.9046    6.2126    0.0000 H   0  0  0  0  0  0  0  0  0  0  0  0
   -1.7686    7.6828    0.0000 H   0  0  0  0  0  0  0  0  0  0  0  0
    2.6014   -2.3019    0.0000 H   0  0  0  0  0  0  0  0  0  0  0  0
    2.2199   -6.2987    0.0000 H   0  0  0  0  0  0  0  0  0  0  0  0
    3.7619   -5.2706    0.0000 H   0  0  0  0  0  0  0  0  0  0  0  0
    3.2877   -6.2298    0.0000 H   0  0  0  0  0  0  0  0  0  0  0  0
    4.0185   -4.7506    0.0000 H   0  0  0  0  0  0  0  0  0  0  0  0
    3.8992   -2.9011    0.0000 H   0  0  0  0  0  0  0  0  0  0  0  0
    4.4928   -3.7914    0.0000 H   0  0  0  0  0  0  0  0  0  0  0  0
    0.6066    3.8461    0.0000 H   0  0  0  0  0  0  0  0  0  0  0  0
   -1.2466    3.8481    0.0000 H   0  0  0  0  0  0  0  0  0  0  0  0
   -0.3194    4.3821    0.0000 H   0  0  0  0  0  0  0  0  0  0  0  0
  1 93  1  0  0  0  0
  1 54  1  0  0  0  0
  2  3  1  0  0  0  0
  3  1  1  0  0  0  0
  4  5  2  0  0  0  0
  4  1  1  0  0  0  0
  5 22  1  0  0  0  0
  6  5  1  0  0  0  0
  6 84  1  0  0  0  0
  6 94  1  1  0  0  0
  7  8  1  0  0  0  0
  8  9  2  0  0  0  0
  8  1  1  0  0  0  0
  9 10  1  0  0  0  0
 10 11  2  0  0  0  0
 10 95  1  0  0  0  0
 11 12  1  0  0  0  0
 11 18  1  0  0  0  0
 12 13  2  0  0  0  0
 12  1  1  0  0  0  0
 13 14  1  0  0  0  0
 14 15  1  0  0  0  0
 14 18  1  0  0  0  0
 14 96  1  1  0  0  0
 15 16  1  0  0  0  0
 15 97  1  0  0  0  0
 15 98  1  0  0  0  0
 16 17  1  0  0  0  0
 16 99  1  0  0  0  0
 16100  1  0  0  0  0
 17 78  2  0  0  0  0
 17 79  1  0  0  0  0
 18 19  1  0  0  0  0
 18 20  1  0  0  0  0
 19101  1  0  0  0  0
 19102  1  0  0  0  0
 19103  1  0  0  0  0
 20104  1  0  0  0  0
 20105  1  0  0  0  0
 20106  1  0  0  0  0
 21107  1  0  0  0  0
 21108  1  0  0  0  0
 21109  1  0  0  0  0
 22  7  2  0  0  0  0
 22 23  1  0  0  0  0
 23110  1  0  0  0  0
 23111  1  0  0  0  0
 23112  1  0  0  0  0
 24  2  2  0  0  0  0
 24 13  1  0  0  0  0
 24 25  1  0  0  0  0
 25113  1  0  0  0  0
 25114  1  0  0  0  0
 25115  1  0  0  0  0
 26  3  1  0  0  0  0
 26 46  1  0  0  0  0
 26 28  1  0  0  0  0
 26 27  1  1  0  0  0
 28  4  1  0  0  0  0
 28 80  1  0  0  0  0
 28 29  1  6  0  0  0
 29116  1  0  0  0  0
 29117  1  0  0  0  0
 29118  1  0  0  0  0
 30119  1  0  0  0  0
 30120  1  0  0  0  0
 30121  1  0  0  0  0
 31  9  1  0  0  0  0
 31 41  1  0  0  0  0
 31 32  1  0  0  0  0
 31122  1  1  0  0  0
 32 33  1  0  0  0  0
 32123  1  0  0  0  0
 32124  1  0  0  0  0
 33 34  1  0  0  0  0
 33125  1  0  0  0  0
 33126  1  0  0  0  0
 34 35  2  0  0  0  0
 34 36  1  0  0  0  0
 36127  1  0  0  0  0
 36128  1  0  0  0  0
 37 38  1  0  0  0  0
 37129  1  0  0  0  0
 37130  1  0  0  0  0
 38 40  1  0  0  0  0
 38 39  2  0  0  0  0
 40131  1  0  0  0  0
 40132  1  0  0  0  0
 41  7  1  0  0  0  0
 41 21  1  6  0  0  0
 41 37  1  0  0  0  0
 42 43  1  0  0  0  0
 42133  1  0  0  0  0
 42134  1  0  0  0  0
 43 44  2  0  0  0  0
 43 45  1  0  0  0  0
 45135  1  0  0  0  0
 45136  1  0  0  0  0
 46 71  1  0  0  0  0
 46 47  1  0  0  0  0
 46137  1  6  0  0  0
 47 48  1  0  0  0  0
 47138  1  0  0  0  0
 47139  1  0  0  0  0
 48 49  2  0  0  0  0
 48 50  1  0  0  0  0
 50140  1  0  0  0  0
 50141  1  0  0  0  0
 51 54  1  0  0  0  0
 51 53  1  0  0  0  0
 52 55  1  0  0  0  0
 52 54  2  0  0  0  0
 52142  1  0  0  0  0
 53 82  2  0  0  0  0
 55 53  1  0  0  0  0
 56 55  1  0  0  0  0
 56 61  1  0  0  0  0
 56 57  1  0  0  0  0
 56143  1  6  0  0  0
 58 57  1  0  0  0  0
 58 59  1  0  0  0  0
 58144  1  1  0  0  0
 59 60  1  0  0  0  0
 59145  1  0  0  0  0
 59146  1  0  0  0  0
 60147  1  0  0  0  0
 61 63  1  0  0  0  0
 61 62  1  0  0  0  0
 61148  1  6  0  0  0
 62149  1  0  0  0  0
 63 58  1  0  0  0  0
 63 64  1  0  0  0  0
 63150  1  6  0  0  0
 65 66  1  0  0  0  0
 65151  1  0  0  0  0
 65152  1  0  0  0  0
 66 67  2  0  0  0  0
 66 68  1  0  0  0  0
 68153  1  0  0  0  0
 69 68  1  0  0  0  0
 69154  1  0  0  0  0
 69155  1  0  0  0  0
 70 65  1  0  0  0  0
 70156  1  0  0  0  0
 70157  1  0  0  0  0
 71  2  1  0  0  0  0
 71 30  1  1  0  0  0
 71 70  1  0  0  0  0
 72 69  1  0  0  0  0
 72 73  1  0  0  0  0
 72 74  1  0  0  0  0
 72158  1  1  0  0  0
 74159  1  0  0  0  0
 74160  1  0  0  0  0
 74161  1  0  0  0  0
 76 64  1  0  0  0  0
 76 73  1  0  0  0  0
 76 75  2  0  0  0  0
 76 77  1  0  0  0  0
 79162  1  0  0  0  0
 79163  1  0  0  0  0
 80  6  1  0  0  0  0
 80 42  1  1  0  0  0
 80 81  1  0  0  0  0
 81164  1  0  0  0  0
 81165  1  0  0  0  0
 81166  1  0  0  0  0
 82 89  1  0  0  0  0
 82167  1  0  0  0  0
 83 92  1  0  0  0  0
 84 85  1  0  0  0  0
 84168  1  0  0  0  0
 84169  1  0  0  0  0
 85 86  1  0  0  0  0
 85170  1  0  0  0  0
 85171  1  0  0  0  0
 86 88  1  0  0  0  0
 86 87  2  0  0  0  0
 88172  1  0  0  0  0
 88173  1  0  0  0  0
 89 83  2  0  0  0  0
 89 91  1  0  0  0  0
 90 51  2  0  0  0  0
 90 83  1  0  0  0  0
 90174  1  0  0  0  0
 91175  1  0  0  0  0
 91176  1  0  0  0  0
 91177  1  0  0  0  0
 92178  1  0  0  0  0
 92179  1  0  0  0  0
 92180  1  0  0  0  0
 93181  1  0  0  0  0
 93182  1  0  0  0  0
 93183  1  0  0  0  0
M  CHG  6   1  -3   4   1   8   1  12   1  54   1  77  -1
M  END
>  <DRUGBANK_ID>
DB03614

>  <SECONDARY_ACCESSION_NUMBERS>
EXPT00979

>  <COMMON_NAME>
Mecobalamin

>  <CAS_NUMBER>
13422-55-4

>  <UNII>
BR1SN1JS2W

>  <SYNONYMS>
Co-methylcobalamin; MeCbl; Mecobalamin; Mecobalamina; Mecobalaminum; Methyl vitamin B12; Methyl(III)cobalamin; Methylcobalamin

$$$$
