HST
 OpenBabel10282417072D

 45 45  0  0  0  0  0  0  0  0999 V2000
    1.7429   -1.7767    0.0000 N   0  0  0  0  0  0  0  0  0  0  0  0
    2.2950   -2.3898    0.0000 N   0  0  0  0  0  0  0  0  0  0  0  0
    1.8825   -3.1043    0.0000 N   0  0  0  0  0  0  0  0  0  0  0  0
    0.9893   -2.1123    0.0000 C   0  0  0  0  0  0  0  0  0  0  0  0
    1.0755   -2.9327    0.0000 C   0  0  0  0  0  0  0  0  0  0  0  0
    0.4624   -3.4848    0.0000 C   0  0  0  0  0  0  0  0  0  0  0  0
    0.6339   -4.2917    0.0000 O   0  0  0  0  0  0  0  0  0  0  0  0
   -0.3222   -3.2298    0.0000 O   0  0  0  0  0  0  0  0  0  0  0  0
    0.2748   -1.6998    0.0000 S   0  0  0  0  0  0  0  0  0  0  0  0
   -1.8686    2.0127    0.0000 C   0  0  0  0  0  0  0  0  0  0  0  0
   -1.1541    1.6002    0.0000 C   0  0  0  0  0  0  0  0  0  0  0  0
   -1.1541    0.7752    0.0000 C   0  0  0  0  0  0  0  0  0  0  0  0
   -0.4397    0.3627    0.0000 C   0  0  0  0  0  0  0  0  0  0  0  0
   -0.4397   -0.4623    0.0000 C   0  0  0  0  0  0  0  0  0  0  0  0
    0.2748   -0.8748    0.0000 C   0  0  0  0  0  0  0  0  0  0  0  0
    0.9893   -0.4623    0.0000 C   0  0  0  0  0  0  0  0  0  0  0  0
    0.9893    0.3627    0.0000 C   0  0  0  0  0  0  0  0  0  0  0  0
    1.7037    0.7752    0.0000 C   0  0  0  0  0  0  0  0  0  0  0  0
    1.7037    1.6002    0.0000 C   0  0  0  0  0  0  0  0  0  0  0  0
    2.4182    2.0127    0.0000 C   0  0  0  0  0  0  0  0  0  0  0  0
    1.9475   -0.8137    0.0000 H   0  0  0  0  0  0  0  0  0  0  0  0
   -0.5169   -2.3133    0.0000 H   0  0  0  0  0  0  0  0  0  0  0  0
   -1.8686    3.0827    0.0000 H   0  0  0  0  0  0  0  0  0  0  0  0
   -2.7952    1.4777    0.0000 H   0  0  0  0  0  0  0  0  0  0  0  0
   -2.7953    2.5477    0.0000 H   0  0  0  0  0  0  0  0  0  0  0  0
   -0.2275    2.1352    0.0000 H   0  0  0  0  0  0  0  0  0  0  0  0
   -0.2275    1.0652    0.0000 H   0  0  0  0  0  0  0  0  0  0  0  0
   -2.0808    0.2402    0.0000 H   0  0  0  0  0  0  0  0  0  0  0  0
   -1.1541   -0.2948    0.0000 H   0  0  0  0  0  0  0  0  0  0  0  0
    0.4870    0.8977    0.0000 H   0  0  0  0  0  0  0  0  0  0  0  0
    0.4869   -0.1723    0.0000 H   0  0  0  0  0  0  0  0  0  0  0  0
   -1.3663   -0.9973    0.0000 H   0  0  0  0  0  0  0  0  0  0  0  0
   -0.4397   -1.5323    0.0000 H   0  0  0  0  0  0  0  0  0  0  0  0
    0.2748    0.1952    0.0000 H   0  0  0  0  0  0  0  0  0  0  0  0
    1.9159   -0.9973    0.0000 H   0  0  0  0  0  0  0  0  0  0  0  0
    1.9159    0.0727    0.0000 H   0  0  0  0  0  0  0  0  0  0  0  0
    0.0626    0.8977    0.0000 H   0  0  0  0  0  0  0  0  0  0  0  0
    0.9893    1.4327    0.0000 H   0  0  0  0  0  0  0  0  0  0  0  0
    2.6304    0.2402    0.0000 H   0  0  0  0  0  0  0  0  0  0  0  0
    2.6303    1.3102    0.0000 H   0  0  0  0  0  0  0  0  0  0  0  0
    0.7771    2.1352    0.0000 H   0  0  0  0  0  0  0  0  0  0  0  0
    1.7037    2.6702    0.0000 H   0  0  0  0  0  0  0  0  0  0  0  0
    3.3448    1.4777    0.0000 H   0  0  0  0  0  0  0  0  0  0  0  0
    2.4182    3.0827    0.0000 H   0  0  0  0  0  0  0  0  0  0  0  0
    3.3449    2.5477    0.0000 H   0  0  0  0  0  0  0  0  0  0  0  0
  1  2  1  0  0  0  0
  1  4  1  0  0  0  0
  1 21  1  0  0  0  0
  2  3  2  0  0  0  0
  3  5  1  0  0  0  0
  4  5  2  0  0  0  0
  4  9  1  0  0  0  0
  5  6  1  0  0  0  0
  6  7  2  0  0  0  0
  6  8  1  0  0  0  0
  8 22  1  0  0  0  0
  9 15  1  0  0  0  0
 10 11  1  0  0  0  0
 10 23  1  0  0  0  0
 10 24  1  0  0  0  0
 10 25  1  0  0  0  0
 11 12  1  0  0  0  0
 11 26  1  0  0  0  0
 11 27  1  0  0  0  0
 12 13  1  0  0  0  0
 12 28  1  0  0  0  0
 12 29  1  0  0  0  0
 13 14  1  0  0  0  0
 13 30  1  0  0  0  0
 13 31  1  0  0  0  0
 14 15  1  0  0  0  0
 14 32  1  0  0  0  0
 14 33  1  0  0  0  0
 15 16  1  0  0  0  0
 15 34  1  0  0  0  0
 16 17  1  0  0  0  0
 16 35  1  0  0  0  0
 16 36  1  0  0  0  0
 17 18  1  0  0  0  0
 17 37  1  0  0  0  0
 17 38  1  0  0  0  0
 18 19  1  0  0  0  0
 18 39  1  0  0  0  0
 18 40  1  0  0  0  0
 19 20  1  0  0  0  0
 19 41  1  0  0  0  0
 19 42  1  0  0  0  0
 20 43  1  0  0  0  0
 20 44  1  0  0  0  0
 20 45  1  0  0  0  0
M  END
>  <DRUGBANK_ID>
DB04374

>  <SECONDARY_ACCESSION_NUMBERS>
EXPT01787

>  <COMMON_NAME>
4-Carboxy-5-(1-Pentyl)Hexylsulfanyl-1,2,3-Triazole

>  <UNII>
QUK2CK0JPA

$$$$
