SCF
 OpenBabel10282417072D

 38 41  0  0  0  0  0  0  0  0999 V2000
   -1.8063    1.3496    0.0000 C   0  0  0  0  0  0  0  0  0  0  0  0
   -1.0217    1.0946    0.0000 C   0  0  0  0  0  0  0  0  0  0  0  0
   -1.0217    0.2696    0.0000 N   0  0  0  0  0  0  0  0  0  0  0  0
   -1.8063    0.0147    0.0000 N   0  0  0  0  0  0  0  0  0  0  0  0
   -2.2913    0.6821    0.0000 C   0  0  0  0  0  0  0  0  0  0  0  0
   -0.3072    1.5071    0.0000 N   0  0  0  0  0  0  0  0  0  0  0  0
    0.4072    1.0946    0.0000 C   0  0  0  0  0  0  0  0  0  0  0  0
    0.4072    0.2696    0.0000 C   0  0  0  0  0  0  0  0  0  0  0  0
   -0.3072   -0.1429    0.0000 C   0  0  0  0  0  0  0  0  0  0  0  0
   -0.3072   -0.9679    0.0000 N   0  0  0  0  0  0  0  0  0  0  0  0
    1.1217    1.5071    0.0000 C   0  0  0  0  0  0  0  0  0  0  0  0
   -1.0217   -1.3804    0.0000 C   0  0  0  0  0  0  0  0  0  0  0  0
   -1.0217   -2.2054    0.0000 C   0  0  0  0  0  0  0  0  0  0  0  0
   -0.3072   -2.6179    0.0000 C   0  0  0  0  0  0  0  0  0  0  0  0
   -0.3072   -3.4429    0.0000 C   0  0  0  0  0  0  0  0  0  0  0  0
   -1.0217   -3.8554    0.0000 N   0  0  0  0  0  0  0  0  0  0  0  0
   -1.7362   -3.4429    0.0000 C   0  0  0  0  0  0  0  0  0  0  0  0
   -1.7362   -2.6179    0.0000 C   0  0  0  0  0  0  0  0  0  0  0  0
    1.8362    1.0946    0.0000 C   0  0  0  0  0  0  0  0  0  0  0  0
    2.5506    1.5071    0.0000 C   0  0  0  0  0  0  0  0  0  0  0  0
    2.5506    2.3321    0.0000 C   0  0  0  0  0  0  0  0  0  0  0  0
    1.8362    2.7446    0.0000 C   0  0  0  0  0  0  0  0  0  0  0  0
    1.1217    2.3321    0.0000 C   0  0  0  0  0  0  0  0  0  0  0  0
    0.4072    2.7446    0.0000 F   0  0  0  0  0  0  0  0  0  0  0  0
   -2.1252    2.3311    0.0000 H   0  0  0  0  0  0  0  0  0  0  0  0
   -3.3233    0.6821    0.0000 H   0  0  0  0  0  0  0  0  0  0  0  0
    1.3009   -0.2464    0.0000 H   0  0  0  0  0  0  0  0  0  0  0  0
    0.5454   -1.4602    0.0000 H   0  0  0  0  0  0  0  0  0  0  0  0
   -1.9483   -0.8454    0.0000 H   0  0  0  0  0  0  0  0  0  0  0  0
   -1.9483   -1.9154    0.0000 H   0  0  0  0  0  0  0  0  0  0  0  0
    0.5865   -2.1019    0.0000 H   0  0  0  0  0  0  0  0  0  0  0  0
    0.5865   -3.9589    0.0000 H   0  0  0  0  0  0  0  0  0  0  0  0
   -2.6299   -3.9589    0.0000 H   0  0  0  0  0  0  0  0  0  0  0  0
   -2.6299   -2.1019    0.0000 H   0  0  0  0  0  0  0  0  0  0  0  0
    1.8362    0.0626    0.0000 H   0  0  0  0  0  0  0  0  0  0  0  0
    3.4443    0.9911    0.0000 H   0  0  0  0  0  0  0  0  0  0  0  0
    3.4443    2.8481    0.0000 H   0  0  0  0  0  0  0  0  0  0  0  0
    1.8362    3.7766    0.0000 H   0  0  0  0  0  0  0  0  0  0  0  0
  1  2  2  0  0  0  0
  1 25  1  0  0  0  0
  2  6  1  0  0  0  0
  3  9  1  0  0  0  0
  3  2  1  0  0  0  0
  4  5  2  0  0  0  0
  4  3  1  0  0  0  0
  5  1  1  0  0  0  0
  5 26  1  0  0  0  0
  7  6  2  0  0  0  0
  7 11  1  0  0  0  0
  8  7  1  0  0  0  0
  8 27  1  0  0  0  0
  9  8  2  0  0  0  0
 10 12  1  0  0  0  0
 10  9  1  0  0  0  0
 10 28  1  0  0  0  0
 11 23  1  0  0  0  0
 12 29  1  0  0  0  0
 12 30  1  0  0  0  0
 13 14  1  0  0  0  0
 13 12  1  0  0  0  0
 14 31  1  0  0  0  0
 15 14  2  0  0  0  0
 15 32  1  0  0  0  0
 16 15  1  0  0  0  0
 17 16  2  0  0  0  0
 17 18  1  0  0  0  0
 17 33  1  0  0  0  0
 18 13  2  0  0  0  0
 18 34  1  0  0  0  0
 19 11  2  0  0  0  0
 19 20  1  0  0  0  0
 19 35  1  0  0  0  0
 20 21  2  0  0  0  0
 20 36  1  0  0  0  0
 21 22  1  0  0  0  0
 21 37  1  0  0  0  0
 22 38  1  0  0  0  0
 23 24  1  0  0  0  0
 23 22  2  0  0  0  0
M  END
>  <DRUGBANK_ID>
DB08534

>  <COMMON_NAME>
5-(2-fluorophenyl)-N-(pyridin-4-ylmethyl)pyrazolo[1,5-a]pyrimidin-7-amine

$$$$
