
 OpenBabel10282417072D

 45 46  0  0  0  0  0  0  0  0999 V2000
    7.8591   -2.8875    0.0000 C   0  0  0  0  0  0  0  0  0  0  0  0
    2.1434   -2.8875    0.0000 C   0  0  0  0  0  0  0  0  0  0  0  0
    2.1434   -3.7125    0.0000 C   0  0  0  0  0  0  0  0  0  0  0  0
    2.8578   -2.4750    0.0000 C   0  0  0  0  0  0  0  0  0  0  0  0
   10.0025   -2.4750    0.0000 C   0  0  0  0  0  0  0  0  0  0  0  0
    9.2881   -2.8875    0.0000 C   0  0  0  0  0  0  0  0  0  0  0  0
    2.8578   -4.1250    0.0000 C   0  0  0  0  0  0  0  0  0  0  0  0
    3.5723   -2.8875    0.0000 C   0  0  0  0  0  0  0  0  0  0  0  0
   10.7170   -2.8875    0.0000 C   0  0  0  0  0  0  0  0  0  0  0  0
    6.4302   -3.7125    0.0000 C   0  0  0  0  0  0  0  0  0  0  0  0
    5.7157   -4.1250    0.0000 C   0  0  0  0  0  0  0  0  0  0  0  0
    8.5736   -4.1250    0.0000 C   0  0  0  0  0  0  0  0  0  0  0  0
   10.0025   -4.1250    0.0000 C   0  0  0  0  0  0  0  0  0  0  0  0
    7.8591   -3.7125    0.0000 C   0  0  3  0  0  0  0  0  0  0  0  0
    9.2881   -3.7125    0.0000 C   0  0  0  0  0  0  0  0  0  0  0  0
    3.5723   -3.7125    0.0000 C   0  0  0  0  0  0  0  0  0  0  0  0
   10.7170   -3.7125    0.0000 C   0  0  0  0  0  0  0  0  0  0  0  0
    4.2868   -4.1250    0.0000 C   0  0  0  0  0  0  0  0  0  0  0  0
   11.4315   -4.1250    0.0000 C   0  0  0  0  0  0  0  0  0  0  0  0
   12.1460   -4.5375    0.0000 F   0  0  0  0  0  0  0  0  0  0  0  0
   11.0190   -4.8394    0.0000 F   0  0  0  0  0  0  0  0  0  0  0  0
   11.8440   -3.4105    0.0000 F   0  0  0  0  0  0  0  0  0  0  0  0
    7.1447   -4.1250    0.0000 N   0  0  0  0  0  0  0  0  0  0  0  0
    4.2868   -4.9500    0.0000 O   0  0  0  0  0  0  0  0  0  0  0  0
    5.0012   -3.7125    0.0000 O   0  0  0  0  0  0  0  0  0  0  0  0
    8.7857   -2.3525    0.0000 H   0  0  0  0  0  0  0  0  0  0  0  0
    6.9325   -2.3525    0.0000 H   0  0  0  0  0  0  0  0  0  0  0  0
    7.8591   -1.8175    0.0000 H   0  0  0  0  0  0  0  0  0  0  0  0
    1.2497   -2.3715    0.0000 H   0  0  0  0  0  0  0  0  0  0  0  0
    1.2497   -4.2285    0.0000 H   0  0  0  0  0  0  0  0  0  0  0  0
    2.8578   -1.4430    0.0000 H   0  0  0  0  0  0  0  0  0  0  0  0
   10.0025   -1.4430    0.0000 H   0  0  0  0  0  0  0  0  0  0  0  0
    8.3944   -2.3715    0.0000 H   0  0  0  0  0  0  0  0  0  0  0  0
    2.8578   -5.1570    0.0000 H   0  0  0  0  0  0  0  0  0  0  0  0
    4.4660   -2.3715    0.0000 H   0  0  0  0  0  0  0  0  0  0  0  0
   11.6107   -2.3715    0.0000 H   0  0  0  0  0  0  0  0  0  0  0  0
    6.4302   -2.6425    0.0000 H   0  0  0  0  0  0  0  0  0  0  0  0
    7.3568   -3.1775    0.0000 H   0  0  0  0  0  0  0  0  0  0  0  0
    5.7157   -5.1950    0.0000 H   0  0  0  0  0  0  0  0  0  0  0  0
    4.7891   -4.6600    0.0000 H   0  0  0  0  0  0  0  0  0  0  0  0
    8.5736   -5.1950    0.0000 H   0  0  0  0  0  0  0  0  0  0  0  0
    9.5002   -4.6600    0.0000 H   0  0  0  0  0  0  0  0  0  0  0  0
   10.0025   -5.1570    0.0000 H   0  0  0  0  0  0  0  0  0  0  0  0
    8.7857   -3.1775    0.0000 H   0  0  0  0  0  0  0  0  0  0  0  0
    7.1447   -5.1450    0.0000 H   0  0  0  0  0  0  0  0  0  0  0  0
  1 26  1  0  0  0  0
  1 27  1  0  0  0  0
  1 28  1  0  0  0  0
  2 29  1  0  0  0  0
  3  2  2  0  0  0  0
  3 30  1  0  0  0  0
  4  2  1  0  0  0  0
  4 31  1  0  0  0  0
  5 32  1  0  0  0  0
  6  5  2  0  0  0  0
  6 33  1  0  0  0  0
  7  3  1  0  0  0  0
  7 34  1  0  0  0  0
  8  4  2  0  0  0  0
  8 35  1  0  0  0  0
  9  5  1  0  0  0  0
  9 36  1  0  0  0  0
 10 37  1  0  0  0  0
 10 38  1  0  0  0  0
 11 10  1  0  0  0  0
 11 39  1  0  0  0  0
 11 40  1  0  0  0  0
 12 41  1  0  0  0  0
 12 42  1  0  0  0  0
 13 43  1  0  0  0  0
 14  1  1  0  0  0  0
 14 12  1  0  0  0  0
 14 44  1  0  0  0  0
 15  6  1  0  0  0  0
 15 12  1  0  0  0  0
 15 13  2  0  0  0  0
 16  7  2  0  0  0  0
 16  8  1  0  0  0  0
 17  9  2  0  0  0  0
 17 13  1  0  0  0  0
 18 16  1  0  0  0  0
 19 17  1  0  0  0  0
 20 19  1  0  0  0  0
 21 19  1  0  0  0  0
 22 19  1  0  0  0  0
 23 10  1  0  0  0  0
 23 14  1  0  0  0  0
 23 45  1  0  0  0  0
 24 18  2  0  0  0  0
 25 11  1  0  0  0  0
 25 18  1  0  0  0  0
M  END
>  <DRUGBANK_ID>
DB09022

>  <COMMON_NAME>
Benfluorex

>  <CAS_NUMBER>
23602-78-0

>  <UNII>
403FO0NQG3

>  <SYNONYMS>
Benfluorex; Benfluorexum

$$$$
