
 OpenBabel10282417072D

 72 75  0  0  1  0  0  0  0  0999 V2000
   -0.8476   -0.6241    0.0000 C   0  0  0  0  0  0  0  0  0  0  0  0
   -0.5655    0.1511    0.0000 C   0  0  0  0  0  0  0  0  0  0  0  0
    0.2470    0.2944    0.0000 C   0  0  0  0  0  0  0  0  0  0  0  0
    0.5292    1.0696    0.0000 C   0  0  0  0  0  0  0  0  0  0  0  0
    1.3416    1.2129    0.0000 S   0  0  0  0  0  0  0  0  0  0  0  0
    1.8719    0.5809    0.0000 C   0  0  0  0  0  0  0  0  0  0  0  0
    2.6844    0.7241    0.0000 C   0  0  0  0  0  0  0  0  0  0  0  0
    2.9666    1.4994    0.0000 O   0  0  0  0  0  0  0  0  0  0  0  0
    3.2147    0.0922    0.0000 C   0  0  0  0  0  0  0  0  0  0  0  0
    2.9325   -0.6831    0.0000 C   0  0  2  0  0  0  0  0  0  0  0  0
    3.7450   -0.8263    0.0000 C   0  0  0  0  0  0  0  0  0  0  0  0
    4.2753   -0.1944    0.0000 C   0  0  0  0  0  0  0  0  0  0  0  0
    5.0878   -0.3376    0.0000 C   0  0  0  0  0  0  0  0  0  0  0  0
    5.6181    0.2944    0.0000 C   0  0  0  0  0  0  0  0  0  0  0  0
    6.4305    0.1511    0.0000 C   0  0  0  0  0  0  0  0  0  0  0  0
    6.7127   -0.6241    0.0000 C   0  0  0  0  0  0  0  0  0  0  0  0
    7.5252   -0.7674    0.0000 O   0  0  0  0  0  0  0  0  0  0  0  0
    6.1824   -1.2561    0.0000 C   0  0  0  0  0  0  0  0  0  0  0  0
    5.3699   -1.1129    0.0000 C   0  0  0  0  0  0  0  0  0  0  0  0
    2.1201   -0.8263    0.0000 O   0  0  0  0  0  0  0  0  0  0  0  0
    1.5898   -0.1944    0.0000 C   0  0  0  0  0  0  0  0  0  0  0  0
    0.7773   -0.3376    0.0000 O   0  0  0  0  0  0  0  0  0  0  0  0
    2.9325   -1.5081    0.0000 C   0  0  0  0  0  0  0  0  0  0  0  0
    3.6000   -1.9930    0.0000 C   0  0  0  0  0  0  0  0  0  0  0  0
    3.3450   -2.7776    0.0000 C   0  0  0  0  0  0  0  0  0  0  0  0
    2.5200   -2.7776    0.0000 C   0  0  0  0  0  0  0  0  0  0  0  0
    2.2651   -1.9930    0.0000 C   0  0  0  0  0  0  0  0  0  0  0  0
   -0.0011    1.7016    0.0000 C   0  0  0  0  0  0  0  0  0  0  0  0
   -0.8136    1.5583    0.0000 C   0  0  0  0  0  0  0  0  0  0  0  0
   -1.0958    0.7831    0.0000 C   0  0  0  0  0  0  0  0  0  0  0  0
   -1.9082    0.6398    0.0000 N   0  0  0  0  0  0  0  0  0  0  0  0
    0.2810    2.4768    0.0000 C   0  0  0  0  0  0  0  0  0  0  0  0
    0.5632    3.2521    0.0000 C   0  0  0  0  0  0  0  0  0  0  0  0
   -0.4942    2.7590    0.0000 C   0  0  0  0  0  0  0  0  0  0  0  0
    1.0563    2.1947    0.0000 C   0  0  0  0  0  0  0  0  0  0  0  0
   -1.9013   -0.8100    0.0000 H   0  0  0  0  0  0  0  0  0  0  0  0
   -0.1598   -1.4437    0.0000 H   0  0  0  0  0  0  0  0  0  0  0  0
   -1.2135   -1.6296    0.0000 H   0  0  0  0  0  0  0  0  0  0  0  0
    0.9104   -0.4962    0.0000 H   0  0  0  0  0  0  0  0  0  0  0  0
    3.8894    1.6621    0.0000 H   0  0  0  0  0  0  0  0  0  0  0  0
    4.2684    0.2780    0.0000 H   0  0  0  0  0  0  0  0  0  0  0  0
    3.9025   -0.7275    0.0000 H   0  0  0  0  0  0  0  0  0  0  0  0
    4.1110   -1.8318    0.0000 H   0  0  0  0  0  0  0  0  0  0  0  0
    4.7987   -1.0121    0.0000 H   0  0  0  0  0  0  0  0  0  0  0  0
    3.9093    0.8111    0.0000 H   0  0  0  0  0  0  0  0  0  0  0  0
    4.9630    0.6253    0.0000 H   0  0  0  0  0  0  0  0  0  0  0  0
    5.2652    1.2642    0.0000 H   0  0  0  0  0  0  0  0  0  0  0  0
    7.0939    0.9417    0.0000 H   0  0  0  0  0  0  0  0  0  0  0  0
    7.8456   -1.6479    0.0000 H   0  0  0  0  0  0  0  0  0  0  0  0
    6.5354   -2.2258    0.0000 H   0  0  0  0  0  0  0  0  0  0  0  0
    4.7065   -1.9035    0.0000 H   0  0  0  0  0  0  0  0  0  0  0  0
    2.9325   -2.5781    0.0000 H   0  0  0  0  0  0  0  0  0  0  0  0
    4.6176   -1.6624    0.0000 H   0  0  0  0  0  0  0  0  0  0  0  0
    4.3566   -2.7496    0.0000 H   0  0  0  0  0  0  0  0  0  0  0  0
    3.9739   -3.6433    0.0000 H   0  0  0  0  0  0  0  0  0  0  0  0
    2.8592   -3.7310    0.0000 H   0  0  0  0  0  0  0  0  0  0  0  0
    1.8911   -3.6432    0.0000 H   0  0  0  0  0  0  0  0  0  0  0  0
    1.4632   -2.6102    0.0000 H   0  0  0  0  0  0  0  0  0  0  0  0
    1.2475   -1.6623    0.0000 H   0  0  0  0  0  0  0  0  0  0  0  0
    2.0977   -0.9362    0.0000 H   0  0  0  0  0  0  0  0  0  0  0  0
   -1.4770    2.3489    0.0000 H   0  0  0  0  0  0  0  0  0  0  0  0
   -2.5411    1.3939    0.0000 H   0  0  0  0  0  0  0  0  0  0  0  0
   -2.2449   -0.2853    0.0000 H   0  0  0  0  0  0  0  0  0  0  0  0
    1.6169    3.4379    0.0000 H   0  0  0  0  0  0  0  0  0  0  0  0
   -0.1246    4.0718    0.0000 H   0  0  0  0  0  0  0  0  0  0  0  0
    0.9292    4.2576    0.0000 H   0  0  0  0  0  0  0  0  0  0  0  0
   -0.6799    3.8128    0.0000 H   0  0  0  0  0  0  0  0  0  0  0  0
   -1.3139    2.0713    0.0000 H   0  0  0  0  0  0  0  0  0  0  0  0
   -1.4997    3.1250    0.0000 H   0  0  0  0  0  0  0  0  0  0  0  0
    1.2422    1.1410    0.0000 H   0  0  0  0  0  0  0  0  0  0  0  0
    1.8759    2.8826    0.0000 H   0  0  0  0  0  0  0  0  0  0  0  0
    2.0618    1.8288    0.0000 H   0  0  0  0  0  0  0  0  0  0  0  0
  1  2  1  0  0  0  0
  1 36  1  0  0  0  0
  1 37  1  0  0  0  0
  1 38  1  0  0  0  0
  2  3  2  0  0  0  0
  2 30  1  0  0  0  0
  3  4  1  0  0  0  0
  3 39  1  0  0  0  0
  4  5  1  0  0  0  0
  4 28  2  0  0  0  0
  5  6  1  0  0  0  0
  6  7  2  0  0  0  0
  6 21  1  0  0  0  0
  7  8  1  0  0  0  0
  7  9  1  0  0  0  0
  8 40  1  0  0  0  0
  9 10  1  0  0  0  0
  9 41  1  0  0  0  0
  9 42  1  0  0  0  0
 10 11  1  6  0  0  0
 10 20  1  0  0  0  0
 10 23  1  0  0  0  0
 11 12  1  0  0  0  0
 11 43  1  0  0  0  0
 11 44  1  0  0  0  0
 12 13  1  0  0  0  0
 12 45  1  0  0  0  0
 12 46  1  0  0  0  0
 13 14  2  0  0  0  0
 13 19  1  0  0  0  0
 14 15  1  0  0  0  0
 14 47  1  0  0  0  0
 15 16  2  0  0  0  0
 15 48  1  0  0  0  0
 16 17  1  0  0  0  0
 16 18  1  0  0  0  0
 17 49  1  0  0  0  0
 18 19  2  0  0  0  0
 18 50  1  0  0  0  0
 19 51  1  0  0  0  0
 20 21  1  0  0  0  0
 21 22  2  0  0  0  0
 23 24  1  0  0  0  0
 23 27  1  0  0  0  0
 23 52  1  0  0  0  0
 24 25  1  0  0  0  0
 24 53  1  0  0  0  0
 24 54  1  0  0  0  0
 25 26  1  0  0  0  0
 25 55  1  0  0  0  0
 25 56  1  0  0  0  0
 26 27  1  0  0  0  0
 26 57  1  0  0  0  0
 26 58  1  0  0  0  0
 27 59  1  0  0  0  0
 27 60  1  0  0  0  0
 28 29  1  0  0  0  0
 28 32  1  0  0  0  0
 29 30  2  0  0  0  0
 29 61  1  0  0  0  0
 30 31  1  0  0  0  0
 31 62  1  0  0  0  0
 31 63  1  0  0  0  0
 32 33  1  0  0  0  0
 32 34  1  0  0  0  0
 32 35  1  0  0  0  0
 33 64  1  0  0  0  0
 33 65  1  0  0  0  0
 33 66  1  0  0  0  0
 34 67  1  0  0  0  0
 34 68  1  0  0  0  0
 34 69  1  0  0  0  0
 35 70  1  0  0  0  0
 35 71  1  0  0  0  0
 35 72  1  0  0  0  0
M  END
>  <DRUGBANK_ID>
DB04298

>  <SECONDARY_ACCESSION_NUMBERS>
EXPT02340

>  <COMMON_NAME>
3-(4-Amino-2-Tert-Butyl-5-Methyl-Phenylsulfanyl)-6-Cyclopentyl-4-Hydroxy-6-[2-(4-Hydroxy-Phenyl)-Ethyl]-5,6-Dihydro-Pyran-2-One

$$$$
