PCB
 OpenBabel10282417072D

 34 35  0  0  0  0  0  0  0  0999 V2000
    0.3525   -0.4127    0.0000 C   0  0  0  0  0  0  0  0  0  0  0  0
    1.0670   -0.8252    0.0000 C   0  0  0  0  0  0  0  0  0  0  0  0
    1.7815   -0.4127    0.0000 Cl  0  0  0  0  0  0  0  0  0  0  0  0
    1.0670   -1.6502    0.0000 C   0  0  0  0  0  0  0  0  0  0  0  0
    0.3525   -2.0627    0.0000 C   0  0  0  0  0  0  0  0  0  0  0  0
   -0.3620   -1.6502    0.0000 C   0  0  0  0  0  0  0  0  0  0  0  0
   -1.0764   -2.0627    0.0000 Cl  0  0  0  0  0  0  0  0  0  0  0  0
   -0.3620   -0.8252    0.0000 C   0  0  0  0  0  0  0  0  0  0  0  0
    0.3525   -2.8877    0.0000 S   0  0  0  0  0  0  0  0  0  0  0  0
    0.3525   -3.7127    0.0000 O   0  0  0  0  0  0  0  0  0  0  0  0
    1.1775   -2.8877    0.0000 O   0  0  0  0  0  0  0  0  0  0  0  0
   -0.4725   -2.8877    0.0000 C   0  0  0  0  0  0  0  0  0  0  0  0
    0.3525    0.4123    0.0000 C   0  0  0  0  0  0  0  0  0  0  0  0
   -0.3620    0.8248    0.0000 C   0  0  0  0  0  0  0  0  0  0  0  0
   -1.0764    0.4123    0.0000 Cl  0  0  0  0  0  0  0  0  0  0  0  0
   -0.3620    1.6498    0.0000 C   0  0  0  0  0  0  0  0  0  0  0  0
    0.3525    2.0623    0.0000 C   0  0  0  0  0  0  0  0  0  0  0  0
    1.0670    1.6498    0.0000 C   0  0  0  0  0  0  0  0  0  0  0  0
    1.7815    2.0623    0.0000 Cl  0  0  0  0  0  0  0  0  0  0  0  0
    1.0670    0.8248    0.0000 C   0  0  0  0  0  0  0  0  0  0  0  0
    0.3525    2.8873    0.0000 S   0  0  0  0  0  0  0  0  0  0  0  0
    0.3525    3.7123    0.0000 O   0  0  0  0  0  0  0  0  0  0  0  0
    1.1775    2.8873    0.0000 O   0  0  0  0  0  0  0  0  0  0  0  0
   -0.4725    2.8873    0.0000 C   0  0  0  0  0  0  0  0  0  0  0  0
    1.9607   -2.1662    0.0000 H   0  0  0  0  0  0  0  0  0  0  0  0
   -1.2557   -0.3092    0.0000 H   0  0  0  0  0  0  0  0  0  0  0  0
   -1.0075   -1.9611    0.0000 H   0  0  0  0  0  0  0  0  0  0  0  0
   -1.0075   -3.8143    0.0000 H   0  0  0  0  0  0  0  0  0  0  0  0
   -1.5425   -2.8877    0.0000 H   0  0  0  0  0  0  0  0  0  0  0  0
   -1.2557    2.1658    0.0000 H   0  0  0  0  0  0  0  0  0  0  0  0
    1.9607    0.3088    0.0000 H   0  0  0  0  0  0  0  0  0  0  0  0
   -1.0075    3.8139    0.0000 H   0  0  0  0  0  0  0  0  0  0  0  0
   -1.0075    1.9607    0.0000 H   0  0  0  0  0  0  0  0  0  0  0  0
   -1.5425    2.8873    0.0000 H   0  0  0  0  0  0  0  0  0  0  0  0
  1  2  2  0  0  0  0
  1  8  1  0  0  0  0
  1 13  1  0  0  0  0
  2  3  1  0  0  0  0
  2  4  1  0  0  0  0
  4  5  2  0  0  0  0
  4 25  1  0  0  0  0
  5  6  1  0  0  0  0
  5  9  1  0  0  0  0
  6  7  1  0  0  0  0
  6  8  2  0  0  0  0
  8 26  1  0  0  0  0
  9 10  2  0  0  0  0
  9 11  2  0  0  0  0
  9 12  1  0  0  0  0
 12 27  1  0  0  0  0
 12 28  1  0  0  0  0
 12 29  1  0  0  0  0
 13 14  2  0  0  0  0
 13 20  1  0  0  0  0
 14 15  1  0  0  0  0
 14 16  1  0  0  0  0
 16 17  2  0  0  0  0
 16 30  1  0  0  0  0
 17 18  1  0  0  0  0
 17 21  1  0  0  0  0
 18 19  1  0  0  0  0
 18 20  2  0  0  0  0
 20 31  1  0  0  0  0
 21 22  2  0  0  0  0
 21 23  2  0  0  0  0
 21 24  1  0  0  0  0
 24 32  1  0  0  0  0
 24 33  1  0  0  0  0
 24 34  1  0  0  0  0
M  END
>  <DRUGBANK_ID>
DB08373

>  <COMMON_NAME>
4,4'-BIS([H]METHYLSULFONYL)-2,2',5,5'-TETRACHLOROBIPHENYL

>  <UNII>
RX2C8QLH24

$$$$
