
 OpenBabel10282417072D

 65 66  0  0  0  0  0  0  0  0999 V2000
   -2.3983   -0.6292    0.0000 S   0  0  0  0  0  0  0  0  0  0  0  0
    2.1040   -3.1546    0.0000 S   0  0  0  0  0  0  0  0  0  0  0  0
    0.4595    1.8457    0.0000 O   0  0  0  0  0  0  0  0  0  0  0  0
   -0.2548    0.6082    0.0000 O   0  0  0  0  0  0  0  0  0  0  0  0
   -2.3983    0.1957    0.0000 O   0  0  0  0  0  0  0  0  0  0  0  0
    2.8838    2.8307    0.0000 O   0  0  0  0  0  0  0  0  0  0  0  0
   -2.3983    1.8457    0.0000 O   0  0  0  0  0  0  0  0  0  0  0  0
    3.2233   -0.3986    0.0000 O   0  0  0  0  0  0  0  0  0  0  0  0
   -0.2548   -1.0417    0.0000 O   0  0  0  0  0  0  0  0  0  0  0  0
   -2.3983    2.6707    0.0000 O   0  0  0  0  0  0  0  0  0  0  0  0
   -2.3983   -1.4542    0.0000 O   0  0  0  0  0  0  0  0  0  0  0  0
   -3.2233   -0.6292    0.0000 O   0  0  0  0  0  0  0  0  0  0  0  0
   -1.5733   -0.6292    0.0000 O   0  0  0  0  0  0  0  0  0  0  0  0
    2.4396   -3.9082    0.0000 O   0  0  0  0  0  0  0  0  0  0  0  0
    1.3504   -3.4901    0.0000 O   0  0  0  0  0  0  0  0  0  0  0  0
    2.8577   -2.8190    0.0000 O   0  0  0  0  0  0  0  0  0  0  0  0
    2.4797    1.1557    0.0000 N   0  3  0  0  0  0  0  0  0  0  0  0
   -0.9693    2.6707    0.0000 N   0  0  0  0  0  0  0  0  0  0  0  0
    1.9179   -0.9798    0.0000 N   0  0  0  0  0  0  0  0  0  0  0  0
    1.1740    1.4332    0.0000 C   0  0  2  0  0  0  0  0  0  0  0  0
    1.9277    1.7688    0.0000 C   0  0  1  0  0  0  0  0  0  0  0  0
    2.0672    0.4412    0.0000 C   0  0  1  0  0  0  0  0  0  0  0  0
    1.2603    0.6128    0.0000 C   0  0  0  0  0  0  0  0  0  0  0  0
   -0.2548    1.4332    0.0000 C   0  0  2  0  0  0  0  0  0  0  0  0
   -0.9693    1.8457    0.0000 C   0  0  1  0  0  0  0  0  0  0  0  0
    2.0992    2.5758    0.0000 C   0  0  0  0  0  0  0  0  0  0  0  0
   -1.6838    1.4332    0.0000 C   0  0  2  0  0  0  0  0  0  0  0  0
   -1.6838    0.6082    0.0000 C   0  0  1  0  0  0  0  0  0  0  0  0
   -0.9693    0.1957    0.0000 C   0  0  1  0  0  0  0  0  0  0  0  0
    2.4027   -0.3124    0.0000 C   0  0  0  0  0  0  0  0  0  0  0  0
   -0.9693   -0.6292    0.0000 C   0  0  0  0  0  0  0  0  0  0  0  0
    2.2534   -1.7334    0.0000 C   0  0  0  0  0  0  0  0  0  0  0  0
   -1.6838    3.0832    0.0000 C   0  0  0  0  0  0  0  0  0  0  0  0
    1.7685   -2.4009    0.0000 C   0  0  0  0  0  0  0  0  0  0  0  0
   -1.6838    3.9082    0.0000 C   0  0  0  0  0  0  0  0  0  0  0  0
    2.9226    0.8999    0.0000 H   0  0  0  0  0  0  0  0  0  0  0  0
    2.8599    1.4980    0.0000 H   0  0  0  0  0  0  0  0  0  0  0  0
   -0.5263    2.9265    0.0000 H   0  0  0  0  0  0  0  0  0  0  0  0
    1.4092   -0.9263    0.0000 H   0  0  0  0  0  0  0  0  0  0  0  0
    3.6046    2.1816    0.0000 H   0  0  0  0  0  0  0  0  0  0  0  0
   -2.3983    2.8157    0.0000 H   0  0  0  0  0  0  0  0  0  0  0  0
   -0.2548   -2.0117    0.0000 H   0  0  0  0  0  0  0  0  0  0  0  0
   -3.2383   -1.9392    0.0000 H   0  0  0  0  0  0  0  0  0  0  0  0
    1.8695   -4.6930    0.0000 H   0  0  0  0  0  0  0  0  0  0  0  0
    1.2300    2.5017    0.0000 H   0  0  0  0  0  0  0  0  0  0  0  0
    2.9612    2.0457    0.0000 H   0  0  0  0  0  0  0  0  0  0  0  0
    3.1357    0.3852    0.0000 H   0  0  0  0  0  0  0  0  0  0  0  0
    0.4651   -0.1032    0.0000 H   0  0  0  0  0  0  0  0  0  0  0  0
    1.5372   -0.4208    0.0000 H   0  0  0  0  0  0  0  0  0  0  0  0
    0.6719    0.8982    0.0000 H   0  0  0  0  0  0  0  0  0  0  0  0
   -0.0427    2.3807    0.0000 H   0  0  0  0  0  0  0  0  0  0  0  0
    1.3040    3.2918    0.0000 H   0  0  0  0  0  0  0  0  0  0  0  0
    1.0816    2.2451    0.0000 H   0  0  0  0  0  0  0  0  0  0  0  0
   -1.6838    2.5032    0.0000 H   0  0  0  0  0  0  0  0  0  0  0  0
   -2.6104    1.1432    0.0000 H   0  0  0  0  0  0  0  0  0  0  0  0
   -0.0427   -0.3393    0.0000 H   0  0  0  0  0  0  0  0  0  0  0  0
   -1.8959   -1.1642    0.0000 H   0  0  0  0  0  0  0  0  0  0  0  0
   -1.8959   -0.0942    0.0000 H   0  0  0  0  0  0  0  0  0  0  0  0
    3.3175   -1.8452    0.0000 H   0  0  0  0  0  0  0  0  0  0  0  0
    2.6886   -2.7109    0.0000 H   0  0  0  0  0  0  0  0  0  0  0  0
    0.7044   -2.2890    0.0000 H   0  0  0  0  0  0  0  0  0  0  0  0
    1.3333   -1.4234    0.0000 H   0  0  0  0  0  0  0  0  0  0  0  0
   -0.7572    4.4432    0.0000 H   0  0  0  0  0  0  0  0  0  0  0  0
   -2.6104    4.4432    0.0000 H   0  0  0  0  0  0  0  0  0  0  0  0
   -1.6838    4.9782    0.0000 H   0  0  0  0  0  0  0  0  0  0  0  0
  1  5  1  0  0  0  0
  1 11  1  0  0  0  0
  1 12  2  0  0  0  0
  1 13  2  0  0  0  0
  2 14  1  0  0  0  0
  2 15  2  0  0  0  0
  2 16  2  0  0  0  0
  2 34  1  0  0  0  0
  4 24  1  0  0  0  0
  4 29  1  0  0  0  0
  6 26  1  0  0  0  0
  6 40  1  0  0  0  0
  7 41  1  0  0  0  0
  8 30  2  0  0  0  0
  9 31  1  0  0  0  0
  9 42  1  0  0  0  0
 10 33  2  0  0  0  0
 11 43  1  0  0  0  0
 14 44  1  0  0  0  0
 17 21  1  0  0  0  0
 17 22  1  0  0  0  0
 17 36  1  0  0  0  0
 17 37  1  0  0  0  0
 18 33  1  0  0  0  0
 18 38  1  0  0  0  0
 19 30  1  0  0  0  0
 19 32  1  0  0  0  0
 19 39  1  0  0  0  0
 20  3  1  0  0  0  0
 20 21  1  0  0  0  0
 20 23  1  0  0  0  0
 20 45  1  1  0  0  0
 21 26  1  0  0  0  0
 21 46  1  6  0  0  0
 22 23  1  0  0  0  0
 22 30  1  0  0  0  0
 22 47  1  1  0  0  0
 23 48  1  0  0  0  0
 23 49  1  0  0  0  0
 24  3  1  0  0  0  0
 24 25  1  0  0  0  0
 24 50  1  1  0  0  0
 25 18  1  0  0  0  0
 25 27  1  0  0  0  0
 25 51  1  6  0  0  0
 26 52  1  0  0  0  0
 26 53  1  0  0  0  0
 27  7  1  0  0  0  0
 27 28  1  0  0  0  0
 27 54  1  1  0  0  0
 28  5  1  0  0  0  0
 28 29  1  0  0  0  0
 28 55  1  6  0  0  0
 29 31  1  0  0  0  0
 29 56  1  1  0  0  0
 31 57  1  0  0  0  0
 31 58  1  0  0  0  0
 32 34  1  0  0  0  0
 32 59  1  0  0  0  0
 32 60  1  0  0  0  0
 33 35  1  0  0  0  0
 34 61  1  0  0  0  0
 34 62  1  0  0  0  0
 35 63  1  0  0  0  0
 35 64  1  0  0  0  0
 35 65  1  0  0  0  0
M  CHG  1  17   1
M  END
>  <DRUGBANK_ID>
DB02595

>  <SECONDARY_ACCESSION_NUMBERS>
EXPT00715

>  <COMMON_NAME>
(2R,3S,5S)-2-(Hydroxymethyl)-5-[(2-sulfoethyl)carbamoyl]-3-pyrrolidiniumyl 2-acetamido-2-deoxy-4-O-sulfo-beta-D-glucopyranoside

>  <CAS_NUMBER>
92953-54-3

$$$$
