FIH
 OpenBabel10282417072D

 40 42  0  0  0  0  0  0  0  0999 V2000
   -2.0893   -1.5142    0.0000 C   0  0  0  0  0  0  0  0  0  0  0  0
   -2.9098   -1.4280    0.0000 C   0  0  0  0  0  0  0  0  0  0  0  0
   -3.2453   -0.6743    0.0000 C   0  0  0  0  0  0  0  0  0  0  0  0
   -2.7604   -0.0069    0.0000 C   0  0  0  0  0  0  0  0  0  0  0  0
   -1.9399   -0.0931    0.0000 C   0  0  0  0  0  0  0  0  0  0  0  0
   -1.6044   -0.8468    0.0000 C   0  0  0  0  0  0  0  0  0  0  0  0
   -1.0425    1.8439    0.0000 C   0  0  0  0  0  0  0  0  0  0  0  0
   -0.3751    1.3589    0.0000 C   0  0  0  0  0  0  0  0  0  0  0  0
   -0.6300    0.5743    0.0000 C   0  0  0  0  0  0  0  0  0  0  0  0
   -1.4550    0.5743    0.0000 C   0  0  0  0  0  0  0  0  0  0  0  0
   -1.7099    1.3589    0.0000 S   0  0  0  0  0  0  0  0  0  0  0  0
   -3.3947   -2.0954    0.0000 F   0  0  0  0  0  0  0  0  0  0  0  0
   -1.0425    2.6689    0.0000 C   0  0  0  0  0  0  0  0  0  0  0  0
   -1.7570    3.0814    0.0000 O   0  0  0  0  0  0  0  0  0  0  0  0
   -0.3280    3.0814    0.0000 O   0  0  0  0  0  0  0  0  0  0  0  0
    0.4096    1.6139    0.0000 N   0  0  0  0  0  0  0  0  0  0  0  0
    1.0227    1.0619    0.0000 S   0  0  0  0  0  0  0  0  0  0  0  0
    1.4642   -0.2972    0.0000 C   0  0  0  0  0  0  0  0  0  0  0  0
    1.6358    0.5098    0.0000 C   0  0  0  0  0  0  0  0  0  0  0  0
    2.4204    0.7648    0.0000 C   0  0  0  0  0  0  0  0  0  0  0  0
    3.0335    0.2127    0.0000 C   0  0  0  0  0  0  0  0  0  0  0  0
    2.8619   -0.5942    0.0000 C   0  0  0  0  0  0  0  0  0  0  0  0
    2.0773   -0.8492    0.0000 C   0  0  0  0  0  0  0  0  0  0  0  0
    3.4750   -1.1463    0.0000 C   0  0  0  0  0  0  0  0  0  0  0  0
    0.4706    0.4488    0.0000 O   0  0  0  0  0  0  0  0  0  0  0  0
    1.5747    1.6749    0.0000 O   0  0  0  0  0  0  0  0  0  0  0  0
   -1.6695   -2.4570    0.0000 H   0  0  0  0  0  0  0  0  0  0  0  0
   -4.2716   -0.5664    0.0000 H   0  0  0  0  0  0  0  0  0  0  0  0
   -3.1802    0.9359    0.0000 H   0  0  0  0  0  0  0  0  0  0  0  0
   -0.5781   -0.9547    0.0000 H   0  0  0  0  0  0  0  0  0  0  0  0
   -0.0234   -0.2606    0.0000 H   0  0  0  0  0  0  0  0  0  0  0  0
   -1.7570    4.0184    0.0000 H   0  0  0  0  0  0  0  0  0  0  0  0
    0.6143    2.5769    0.0000 H   0  0  0  0  0  0  0  0  0  0  0  0
    0.4827   -0.6161    0.0000 H   0  0  0  0  0  0  0  0  0  0  0  0
    2.6350    1.7743    0.0000 H   0  0  0  0  0  0  0  0  0  0  0  0
    4.0150    0.5315    0.0000 H   0  0  0  0  0  0  0  0  0  0  0  0
    1.8628   -1.8587    0.0000 H   0  0  0  0  0  0  0  0  0  0  0  0
    3.2525   -2.1929    0.0000 H   0  0  0  0  0  0  0  0  0  0  0  0
    4.4926   -0.8157    0.0000 H   0  0  0  0  0  0  0  0  0  0  0  0
    4.2701   -1.8623    0.0000 H   0  0  0  0  0  0  0  0  0  0  0  0
  1  2  1  0  0  0  0
  1  6  2  0  0  0  0
  1 27  1  0  0  0  0
  2  3  2  0  0  0  0
  2 12  1  0  0  0  0
  3  4  1  0  0  0  0
  3 28  1  0  0  0  0
  4  5  2  0  0  0  0
  4 29  1  0  0  0  0
  5  6  1  0  0  0  0
  5 10  1  0  0  0  0
  6 30  1  0  0  0  0
  7  8  2  0  0  0  0
  7 11  1  0  0  0  0
  7 13  1  0  0  0  0
  8  9  1  0  0  0  0
  8 16  1  0  0  0  0
  9 10  2  0  0  0  0
  9 31  1  0  0  0  0
 10 11  1  0  0  0  0
 13 14  1  0  0  0  0
 13 15  2  0  0  0  0
 14 32  1  0  0  0  0
 16 17  1  0  0  0  0
 16 33  1  0  0  0  0
 17 19  1  0  0  0  0
 17 25  2  0  0  0  0
 17 26  2  0  0  0  0
 18 19  1  0  0  0  0
 18 23  2  0  0  0  0
 18 34  1  0  0  0  0
 19 20  2  0  0  0  0
 20 21  1  0  0  0  0
 20 35  1  0  0  0  0
 21 22  2  0  0  0  0
 21 36  1  0  0  0  0
 22 23  1  0  0  0  0
 22 24  1  0  0  0  0
 23 37  1  0  0  0  0
 24 38  1  0  0  0  0
 24 39  1  0  0  0  0
 24 40  1  0  0  0  0
M  END
>  <DRUGBANK_ID>
DB07770

>  <COMMON_NAME>
5-(4-FLUOROPHENYL)-3-{[(4-METHYLPHENYL)SULFONYL]AMINO}THIOPHENE-2-CARBOXYLIC ACID

$$$$
