NNN
 OpenBabel10282417072D

 52 54  0  0  0  0  0  0  0  0999 V2000
    2.1433   -2.9028    0.0000 O   0  0  0  0  0  0  0  0  0  0  0  0
    2.1433   -2.0778    0.0000 C   0  0  0  0  0  0  0  0  0  0  0  0
    1.4288   -1.6653    0.0000 C   0  0  1  0  0  0  0  0  0  0  0  0
    0.7143   -2.0778    0.0000 C   0  0  0  0  0  0  0  0  0  0  0  0
   -0.0001   -1.6653    0.0000 C   0  0  0  0  0  0  0  0  0  0  0  0
    1.4288   -0.8403    0.0000 N   0  0  0  0  0  0  0  0  0  0  0  0
    0.7143   -0.4278    0.0000 C   0  0  0  0  0  0  0  0  0  0  0  0
    0.7143    0.3972    0.0000 N   0  0  0  0  0  0  0  0  0  0  0  0
   -0.0001    0.8097    0.0000 C   0  0  0  0  0  0  0  0  0  0  0  0
   -0.7146    0.3972    0.0000 N   0  0  0  0  0  0  0  0  0  0  0  0
   -1.4992    0.6521    0.0000 N   0  0  0  0  0  0  0  0  0  0  0  0
   -1.9841   -0.0153    0.0000 C   0  0  0  0  0  0  0  0  0  0  0  0
   -1.4992   -0.6828    0.0000 C   0  0  0  0  0  0  0  0  0  0  0  0
   -1.7542   -1.4674    0.0000 C   0  0  0  0  0  0  0  0  0  0  0  0
   -1.2021   -2.0805    0.0000 C   0  0  0  0  0  0  0  0  0  0  0  0
   -2.5611   -1.6389    0.0000 C   0  0  0  0  0  0  0  0  0  0  0  0
   -0.7146   -0.4278    0.0000 C   0  0  0  0  0  0  0  0  0  0  0  0
   -0.0001   -0.8403    0.0000 N   0  0  0  0  0  0  0  0  0  0  0  0
   -0.0001    1.6347    0.0000 N   0  0  0  0  0  0  0  0  0  0  0  0
    0.7143    2.0472    0.0000 C   0  0  0  0  0  0  0  0  0  0  0  0
    0.7143    2.8722    0.0000 C   0  0  0  0  0  0  0  0  0  0  0  0
    1.4288    3.2847    0.0000 C   0  0  0  0  0  0  0  0  0  0  0  0
    1.4288    4.1097    0.0000 C   0  0  0  0  0  0  0  0  0  0  0  0
    0.7143    4.5222    0.0000 C   0  0  0  0  0  0  0  0  0  0  0  0
   -0.0001    4.1097    0.0000 C   0  0  0  0  0  0  0  0  0  0  0  0
   -0.0001    3.2847    0.0000 C   0  0  0  0  0  0  0  0  0  0  0  0
    1.4288   -2.2493    0.0000 H   0  0  0  0  0  0  0  0  0  0  0  0
    1.3033   -3.3878    0.0000 H   0  0  0  0  0  0  0  0  0  0  0  0
    3.0699   -1.5428    0.0000 H   0  0  0  0  0  0  0  0  0  0  0  0
    2.1433   -1.0078    0.0000 H   0  0  0  0  0  0  0  0  0  0  0  0
    0.7143   -3.1478    0.0000 H   0  0  0  0  0  0  0  0  0  0  0  0
   -0.2124   -2.6128    0.0000 H   0  0  0  0  0  0  0  0  0  0  0  0
   -0.0001   -0.5953    0.0000 H   0  0  0  0  0  0  0  0  0  0  0  0
   -0.9268   -2.2003    0.0000 H   0  0  0  0  0  0  0  0  0  0  0  0
   -0.9267   -1.1303    0.0000 H   0  0  0  0  0  0  0  0  0  0  0  0
    2.2814   -0.3480    0.0000 H   0  0  0  0  0  0  0  0  0  0  0  0
   -3.0161   -0.0153    0.0000 H   0  0  0  0  0  0  0  0  0  0  0  0
   -2.0848   -2.4850    0.0000 H   0  0  0  0  0  0  0  0  0  0  0  0
   -1.5327   -3.0981    0.0000 H   0  0  0  0  0  0  0  0  0  0  0  0
   -0.1555   -1.8580    0.0000 H   0  0  0  0  0  0  0  0  0  0  0  0
   -0.4861   -2.8756    0.0000 H   0  0  0  0  0  0  0  0  0  0  0  0
   -3.2771   -0.8437    0.0000 H   0  0  0  0  0  0  0  0  0  0  0  0
   -2.8918   -2.6565    0.0000 H   0  0  0  0  0  0  0  0  0  0  0  0
   -3.6077   -1.8614    0.0000 H   0  0  0  0  0  0  0  0  0  0  0  0
   -0.8527    2.1269    0.0000 H   0  0  0  0  0  0  0  0  0  0  0  0
    1.6410    1.5122    0.0000 H   0  0  0  0  0  0  0  0  0  0  0  0
    1.6409    2.5822    0.0000 H   0  0  0  0  0  0  0  0  0  0  0  0
    2.3225    2.7687    0.0000 H   0  0  0  0  0  0  0  0  0  0  0  0
    2.3225    4.6257    0.0000 H   0  0  0  0  0  0  0  0  0  0  0  0
    0.7143    5.5542    0.0000 H   0  0  0  0  0  0  0  0  0  0  0  0
   -0.8938    4.6257    0.0000 H   0  0  0  0  0  0  0  0  0  0  0  0
   -0.8938    2.7687    0.0000 H   0  0  0  0  0  0  0  0  0  0  0  0
  1  2  1  0  0  0  0
  1 28  1  0  0  0  0
  2  3  1  0  0  0  0
  2 29  1  0  0  0  0
  2 30  1  0  0  0  0
  3  4  1  0  0  0  0
  3 27  1  6  0  0  0
  3  6  1  0  0  0  0
  4  5  1  0  0  0  0
  4 31  1  0  0  0  0
  4 32  1  0  0  0  0
  5 33  1  0  0  0  0
  5 34  1  0  0  0  0
  5 35  1  0  0  0  0
  6 36  1  0  0  0  0
  7  6  1  0  0  0  0
  7 18  2  0  0  0  0
  8  7  1  0  0  0  0
  9  8  2  0  0  0  0
  9 10  1  0  0  0  0
 10 17  1  0  0  0  0
 11 10  1  0  0  0  0
 11 12  2  0  0  0  0
 12 13  1  0  0  0  0
 12 37  1  0  0  0  0
 13 17  2  0  0  0  0
 13 14  1  0  0  0  0
 14 15  1  0  0  0  0
 14 38  1  0  0  0  0
 15 39  1  0  0  0  0
 15 40  1  0  0  0  0
 15 41  1  0  0  0  0
 16 14  1  0  0  0  0
 16 42  1  0  0  0  0
 16 43  1  0  0  0  0
 16 44  1  0  0  0  0
 17 18  1  0  0  0  0
 19  9  1  0  0  0  0
 19 20  1  0  0  0  0
 19 45  1  0  0  0  0
 20 46  1  0  0  0  0
 20 47  1  0  0  0  0
 21 20  1  0  0  0  0
 21 26  1  0  0  0  0
 22 21  2  0  0  0  0
 22 48  1  0  0  0  0
 23 22  1  0  0  0  0
 23 24  2  0  0  0  0
 23 49  1  0  0  0  0
 24 25  1  0  0  0  0
 24 50  1  0  0  0  0
 25 26  2  0  0  0  0
 25 51  1  0  0  0  0
 26 52  1  0  0  0  0
M  END
>  <DRUGBANK_ID>
DB08285

>  <COMMON_NAME>
(2R)-2-{[4-(benzylamino)-8-(1-methylethyl)pyrazolo[1,5-a][1,3,5]triazin-2-yl]amino}butan-1-ol

$$$$
