
 OpenBabel10282417072D

 56 57  0  0  0  0  0  0  0  0999 V2000
   -3.5724   -5.3625    0.0000 C   0  0  0  0  0  0  0  0  0  0  0  0
   -2.8579   -5.7750    0.0000 C   0  0  0  0  0  0  0  0  0  0  0  0
   -2.1434   -5.3625    0.0000 O   0  0  0  0  0  0  0  0  0  0  0  0
   -1.4289   -5.7750    0.0000 C   0  0  0  0  0  0  0  0  0  0  0  0
   -1.4289   -6.6000    0.0000 O   0  0  0  0  0  0  0  0  0  0  0  0
   -0.7145   -5.3625    0.0000 C   0  0  0  0  0  0  0  0  0  0  0  0
    0.0000   -5.7750    0.0000 N   0  0  0  0  0  0  0  0  0  0  0  0
    0.7145   -5.3625    0.0000 C   0  0  0  0  0  0  0  0  0  0  0  0
    1.4289   -5.7750    0.0000 C   0  0  0  0  0  0  0  0  0  0  0  0
    1.4289   -6.6000    0.0000 N   0  0  0  0  0  0  0  0  0  0  0  0
    0.7145   -7.0125    0.0000 C   0  0  0  0  0  0  0  0  0  0  0  0
    0.0000   -6.6000    0.0000 C   0  0  0  0  0  0  0  0  0  0  0  0
    2.1434   -7.0125    0.0000 C   0  0  0  0  0  0  0  0  0  0  0  0
    2.1434   -7.8375    0.0000 O   0  0  0  0  0  0  0  0  0  0  0  0
    2.8579   -6.6000    0.0000 C   0  0  0  0  0  0  0  0  0  0  0  0
    2.8579   -5.7750    0.0000 C   0  0  0  0  0  0  0  0  0  0  0  0
    3.5724   -5.3625    0.0000 C   0  0  0  0  0  0  0  0  0  0  0  0
    3.5724   -4.5375    0.0000 C   0  0  0  0  0  0  0  0  0  0  0  0
    4.2868   -4.1250    0.0000 C   0  0  0  0  0  0  0  0  0  0  0  0
    5.0013   -4.5375    0.0000 C   0  0  0  0  0  0  0  0  0  0  0  0
    5.0013   -5.3625    0.0000 C   0  0  0  0  0  0  0  0  0  0  0  0
    4.2868   -5.7750    0.0000 C   0  0  0  0  0  0  0  0  0  0  0  0
    5.7158   -5.7750    0.0000 O   0  0  0  0  0  0  0  0  0  0  0  0
    5.7158   -6.6000    0.0000 C   0  0  0  0  0  0  0  0  0  0  0  0
    5.7158   -4.1250    0.0000 O   0  0  0  0  0  0  0  0  0  0  0  0
    5.7158   -3.3000    0.0000 C   0  0  0  0  0  0  0  0  0  0  0  0
    4.2868   -3.3000    0.0000 O   0  0  0  0  0  0  0  0  0  0  0  0
    5.0013   -2.8875    0.0000 C   0  0  0  0  0  0  0  0  0  0  0  0
   -3.5724   -4.2925    0.0000 H   0  0  0  0  0  0  0  0  0  0  0  0
   -4.4990   -5.8975    0.0000 H   0  0  0  0  0  0  0  0  0  0  0  0
   -4.4991   -4.8275    0.0000 H   0  0  0  0  0  0  0  0  0  0  0  0
   -2.8579   -6.8450    0.0000 H   0  0  0  0  0  0  0  0  0  0  0  0
   -1.9313   -6.3100    0.0000 H   0  0  0  0  0  0  0  0  0  0  0  0
   -0.7145   -4.2925    0.0000 H   0  0  0  0  0  0  0  0  0  0  0  0
    0.2121   -4.8275    0.0000 H   0  0  0  0  0  0  0  0  0  0  0  0
    0.7145   -4.2925    0.0000 H   0  0  0  0  0  0  0  0  0  0  0  0
    1.6412   -4.8275    0.0000 H   0  0  0  0  0  0  0  0  0  0  0  0
    2.3556   -5.2400    0.0000 H   0  0  0  0  0  0  0  0  0  0  0  0
    2.3555   -6.3100    0.0000 H   0  0  0  0  0  0  0  0  0  0  0  0
    0.7145   -8.0825    0.0000 H   0  0  0  0  0  0  0  0  0  0  0  0
   -0.2121   -7.5475    0.0000 H   0  0  0  0  0  0  0  0  0  0  0  0
   -0.9266   -7.1350    0.0000 H   0  0  0  0  0  0  0  0  0  0  0  0
   -0.9266   -6.0650    0.0000 H   0  0  0  0  0  0  0  0  0  0  0  0
    3.7516   -7.1160    0.0000 H   0  0  0  0  0  0  0  0  0  0  0  0
    1.9642   -5.2590    0.0000 H   0  0  0  0  0  0  0  0  0  0  0  0
    2.6787   -4.0215    0.0000 H   0  0  0  0  0  0  0  0  0  0  0  0
    4.2868   -6.8070    0.0000 H   0  0  0  0  0  0  0  0  0  0  0  0
    4.7892   -7.1350    0.0000 H   0  0  0  0  0  0  0  0  0  0  0  0
    6.6424   -7.1350    0.0000 H   0  0  0  0  0  0  0  0  0  0  0  0
    5.7158   -7.6700    0.0000 H   0  0  0  0  0  0  0  0  0  0  0  0
    6.6424   -2.7650    0.0000 H   0  0  0  0  0  0  0  0  0  0  0  0
    4.7892   -2.7650    0.0000 H   0  0  0  0  0  0  0  0  0  0  0  0
    5.7158   -2.2300    0.0000 H   0  0  0  0  0  0  0  0  0  0  0  0
    5.9279   -3.4225    0.0000 H   0  0  0  0  0  0  0  0  0  0  0  0
    5.0013   -1.8175    0.0000 H   0  0  0  0  0  0  0  0  0  0  0  0
    5.9280   -2.3525    0.0000 H   0  0  0  0  0  0  0  0  0  0  0  0
  1  2  1  0  0  0  0
  1 29  1  0  0  0  0
  1 30  1  0  0  0  0
  1 31  1  0  0  0  0
  2  3  1  0  0  0  0
  2 32  1  0  0  0  0
  2 33  1  0  0  0  0
  3  4  1  0  0  0  0
  4  5  2  0  0  0  0
  4  6  1  0  0  0  0
  6  7  1  0  0  0  0
  6 34  1  0  0  0  0
  6 35  1  0  0  0  0
  7  8  1  0  0  0  0
  7 12  1  0  0  0  0
  8  9  1  0  0  0  0
  8 36  1  0  0  0  0
  8 37  1  0  0  0  0
  9 10  1  0  0  0  0
  9 38  1  0  0  0  0
  9 39  1  0  0  0  0
 10 11  1  0  0  0  0
 10 13  1  0  0  0  0
 11 12  1  0  0  0  0
 11 40  1  0  0  0  0
 11 41  1  0  0  0  0
 12 42  1  0  0  0  0
 12 43  1  0  0  0  0
 13 14  2  0  0  0  0
 13 15  1  0  0  0  0
 15 16  2  0  0  0  0
 15 44  1  0  0  0  0
 16 17  1  0  0  0  0
 16 45  1  0  0  0  0
 17 18  2  0  0  0  0
 17 22  1  0  0  0  0
 18 19  1  0  0  0  0
 18 46  1  0  0  0  0
 19 20  2  0  0  0  0
 19 27  1  0  0  0  0
 20 21  1  0  0  0  0
 20 25  1  0  0  0  0
 21 22  2  0  0  0  0
 21 23  1  0  0  0  0
 22 47  1  0  0  0  0
 23 24  1  0  0  0  0
 24 48  1  0  0  0  0
 24 49  1  0  0  0  0
 24 50  1  0  0  0  0
 25 26  1  0  0  0  0
 26 51  1  0  0  0  0
 26 52  1  0  0  0  0
 26 53  1  0  0  0  0
 27 28  1  0  0  0  0
 28 54  1  0  0  0  0
 28 55  1  0  0  0  0
 28 56  1  0  0  0  0
M  END
>  <DRUGBANK_ID>
DB13342

>  <COMMON_NAME>
Cinepazet

>  <CAS_NUMBER>
23887-41-4

>  <UNII>
0LC95WWE9Q

>  <SYNONYMS>
Cinepazet

$$$$
