BHG
 OpenBabel10282417072D

 42 42  0  0  0  0  0  0  0  0999 V2000
   -0.5339    0.1729    0.0000 C   0  0  1  0  0  0  0  0  0  0  0  0
    0.1805    0.5854    0.0000 O   0  0  0  0  0  0  0  0  0  0  0  0
   -0.5339   -0.6521    0.0000 C   0  0  2  0  0  0  0  0  0  0  0  0
    0.1805   -1.0646    0.0000 O   0  0  0  0  0  0  0  0  0  0  0  0
   -1.2484   -1.0646    0.0000 C   0  0  1  0  0  0  0  0  0  0  0  0
   -1.2484   -1.8896    0.0000 O   0  0  0  0  0  0  0  0  0  0  0  0
   -1.9629   -0.6521    0.0000 C   0  0  1  0  0  0  0  0  0  0  0  0
   -2.6774   -1.0646    0.0000 O   0  0  0  0  0  0  0  0  0  0  0  0
   -1.9629    0.1729    0.0000 C   0  0  2  0  0  0  0  0  0  0  0  0
   -1.2484    0.5854    0.0000 O   0  0  0  0  0  0  0  0  0  0  0  0
   -2.6774    0.5854    0.0000 C   0  0  0  0  0  0  0  0  0  0  0  0
   -2.6774    1.4104    0.0000 O   0  0  0  0  0  0  0  0  0  0  0  0
    0.8950    0.1729    0.0000 C   0  0  0  0  0  0  0  0  0  0  0  0
    1.6095    0.5854    0.0000 C   0  0  0  0  0  0  0  0  0  0  0  0
    2.3239    0.1729    0.0000 C   0  0  0  0  0  0  0  0  0  0  0  0
    3.0384    0.5854    0.0000 C   0  0  0  0  0  0  0  0  0  0  0  0
    3.7529    0.1729    0.0000 C   0  0  0  0  0  0  0  0  0  0  0  0
    4.4674    0.5854    0.0000 C   0  0  0  0  0  0  0  0  0  0  0  0
    0.0411    0.0715    0.0000 H   0  0  0  0  0  0  0  0  0  0  0  0
    0.0411   -0.5507    0.0000 H   0  0  0  0  0  0  0  0  0  0  0  0
   -0.7427   -1.3566    0.0000 H   0  0  0  0  0  0  0  0  0  0  0  0
   -1.9629   -1.2361    0.0000 H   0  0  0  0  0  0  0  0  0  0  0  0
   -2.4686   -0.1191    0.0000 H   0  0  0  0  0  0  0  0  0  0  0  0
    0.1805   -2.0346    0.0000 H   0  0  0  0  0  0  0  0  0  0  0  0
   -2.0884   -2.3746    0.0000 H   0  0  0  0  0  0  0  0  0  0  0  0
   -3.5174   -0.5796    0.0000 H   0  0  0  0  0  0  0  0  0  0  0  0
   -3.6040    0.0504    0.0000 H   0  0  0  0  0  0  0  0  0  0  0  0
   -3.6040    1.1204    0.0000 H   0  0  0  0  0  0  0  0  0  0  0  0
   -1.8374    1.8954    0.0000 H   0  0  0  0  0  0  0  0  0  0  0  0
    0.8950   -0.8971    0.0000 H   0  0  0  0  0  0  0  0  0  0  0  0
    1.8216   -0.3621    0.0000 H   0  0  0  0  0  0  0  0  0  0  0  0
    1.6095    1.6554    0.0000 H   0  0  0  0  0  0  0  0  0  0  0  0
    2.5362    1.1204    0.0000 H   0  0  0  0  0  0  0  0  0  0  0  0
    2.3239   -0.8971    0.0000 H   0  0  0  0  0  0  0  0  0  0  0  0
    3.2505   -0.3621    0.0000 H   0  0  0  0  0  0  0  0  0  0  0  0
    3.0384    1.6554    0.0000 H   0  0  0  0  0  0  0  0  0  0  0  0
    3.9650    1.1204    0.0000 H   0  0  0  0  0  0  0  0  0  0  0  0
    3.7529   -0.8971    0.0000 H   0  0  0  0  0  0  0  0  0  0  0  0
    4.6795   -0.3621    0.0000 H   0  0  0  0  0  0  0  0  0  0  0  0
    5.3940    0.0504    0.0000 H   0  0  0  0  0  0  0  0  0  0  0  0
    4.4674    1.6554    0.0000 H   0  0  0  0  0  0  0  0  0  0  0  0
    5.3941    1.1204    0.0000 H   0  0  0  0  0  0  0  0  0  0  0  0
  1  2  1  0  0  0  0
  1  3  1  0  0  0  0
  1 10  1  0  0  0  0
  1 19  1  6  0  0  0
  2 13  1  0  0  0  0
  3  4  1  0  0  0  0
  3  5  1  0  0  0  0
  3 20  1  1  0  0  0
  4 24  1  0  0  0  0
  5  6  1  0  0  0  0
  5  7  1  0  0  0  0
  5 21  1  6  0  0  0
  6 25  1  0  0  0  0
  7  8  1  0  0  0  0
  7  9  1  0  0  0  0
  7 22  1  6  0  0  0
  8 26  1  0  0  0  0
  9 10  1  0  0  0  0
  9 11  1  0  0  0  0
  9 23  1  6  0  0  0
 11 12  1  0  0  0  0
 11 27  1  0  0  0  0
 11 28  1  0  0  0  0
 12 29  1  0  0  0  0
 13 14  1  0  0  0  0
 13 30  1  0  0  0  0
 13 31  1  0  0  0  0
 14 15  1  0  0  0  0
 14 32  1  0  0  0  0
 14 33  1  0  0  0  0
 15 16  1  0  0  0  0
 15 34  1  0  0  0  0
 15 35  1  0  0  0  0
 16 17  1  0  0  0  0
 16 36  1  0  0  0  0
 16 37  1  0  0  0  0
 17 18  1  0  0  0  0
 17 38  1  0  0  0  0
 17 39  1  0  0  0  0
 18 40  1  0  0  0  0
 18 41  1  0  0  0  0
 18 42  1  0  0  0  0
M  END
>  <DRUGBANK_ID>
DB04141

>  <SECONDARY_ACCESSION_NUMBERS>
EXPT00697

>  <COMMON_NAME>
2-Hexyloxy-6-Hydroxymethyl-Tetrahydro-Pyran-3,4,5-Triol

$$$$
