
 OpenBabel10282417072D

 54 55  0  0  0  0  0  0  0  0999 V2000
    2.1434    4.1250    0.0000 O   0  0  0  0  0  0  0  0  0  0  0  0
    0.7145    4.1250    0.0000 O   0  0  0  0  0  0  0  0  0  0  0  0
   -2.1434   -4.1250    0.0000 O   0  0  0  0  0  0  0  0  0  0  0  0
   -0.7145   -4.1250    0.0000 O   0  0  0  0  0  0  0  0  0  0  0  0
    1.4289    2.0625    0.0000 O   0  0  0  0  0  0  0  0  0  0  0  0
   -1.4289   -2.0625    0.0000 O   0  0  0  0  0  0  0  0  0  0  0  0
    2.6664    5.2520    0.0000 O   0  0  0  0  0  0  0  0  0  0  0  0
   -2.6664   -5.2520    0.0000 O   0  0  0  0  0  0  0  0  0  0  0  0
    1.4289    5.9665    0.0000 O   0  0  0  0  0  0  0  0  0  0  0  0
   -1.4289   -5.9665    0.0000 O   0  0  0  0  0  0  0  0  0  0  0  0
    0.0000    2.0625    0.0000 O   0  0  0  0  0  0  0  0  0  0  0  0
    0.0000   -2.0625    0.0000 O   0  0  0  0  0  0  0  0  0  0  0  0
    0.7145    0.8250    0.0000 N   0  0  0  0  0  0  0  0  0  0  0  0
   -0.7145   -0.8250    0.0000 N   0  0  0  0  0  0  0  0  0  0  0  0
    1.4289    2.8875    0.0000 C   0  0  3  0  0  0  0  0  0  0  0  0
   -1.4289   -2.8875    0.0000 C   0  0  3  0  0  0  0  0  0  0  0  0
    1.4289    4.5375    0.0000 C   0  0  3  0  0  0  0  0  0  0  0  0
   -1.4289   -4.5375    0.0000 C   0  0  3  0  0  0  0  0  0  0  0  0
    2.1434    3.3000    0.0000 C   0  0  0  0  0  0  0  0  0  0  0  0
    0.7145    3.3000    0.0000 C   0  0  0  0  0  0  0  0  0  0  0  0
   -2.1434   -3.3000    0.0000 C   0  0  0  0  0  0  0  0  0  0  0  0
   -0.7145   -3.3000    0.0000 C   0  0  0  0  0  0  0  0  0  0  0  0
    1.0164    5.2520    0.0000 C   0  0  0  0  0  0  0  0  0  0  0  0
   -1.0164   -5.2520    0.0000 C   0  0  0  0  0  0  0  0  0  0  0  0
    1.8414    5.2520    0.0000 C   0  0  0  0  0  0  0  0  0  0  0  0
   -1.8414   -5.2520    0.0000 C   0  0  0  0  0  0  0  0  0  0  0  0
    0.7145    1.6500    0.0000 C   0  0  0  0  0  0  0  0  0  0  0  0
   -0.7145   -1.6500    0.0000 C   0  0  0  0  0  0  0  0  0  0  0  0
    0.0000    0.4125    0.0000 C   0  0  0  0  0  0  0  0  0  0  0  0
    0.0000   -0.4125    0.0000 C   0  0  0  0  0  0  0  0  0  0  0  0
    3.1349    4.4405    0.0000 H   0  0  0  0  0  0  0  0  0  0  0  0
   -3.1349   -4.4405    0.0000 H   0  0  0  0  0  0  0  0  0  0  0  0
    1.5671    0.3327    0.0000 H   0  0  0  0  0  0  0  0  0  0  0  0
   -1.5671   -0.3327    0.0000 H   0  0  0  0  0  0  0  0  0  0  0  0
    2.3555    2.3525    0.0000 H   0  0  0  0  0  0  0  0  0  0  0  0
   -2.3555   -2.3525    0.0000 H   0  0  0  0  0  0  0  0  0  0  0  0
    3.0700    2.7650    0.0000 H   0  0  0  0  0  0  0  0  0  0  0  0
    2.1434    2.2300    0.0000 H   0  0  0  0  0  0  0  0  0  0  0  0
   -0.2122    2.7650    0.0000 H   0  0  0  0  0  0  0  0  0  0  0  0
    0.7145    2.2300    0.0000 H   0  0  0  0  0  0  0  0  0  0  0  0
   -3.0700   -2.7650    0.0000 H   0  0  0  0  0  0  0  0  0  0  0  0
   -2.1434   -2.2300    0.0000 H   0  0  0  0  0  0  0  0  0  0  0  0
    0.2122   -2.7650    0.0000 H   0  0  0  0  0  0  0  0  0  0  0  0
   -0.7145   -2.2300    0.0000 H   0  0  0  0  0  0  0  0  0  0  0  0
    1.5514    6.1786    0.0000 H   0  0  0  0  0  0  0  0  0  0  0  0
   -0.0536    5.2520    0.0000 H   0  0  0  0  0  0  0  0  0  0  0  0
    0.4814    6.1787    0.0000 H   0  0  0  0  0  0  0  0  0  0  0  0
   -1.5514   -6.1786    0.0000 H   0  0  0  0  0  0  0  0  0  0  0  0
    0.0536   -5.2520    0.0000 H   0  0  0  0  0  0  0  0  0  0  0  0
   -0.4814   -6.1787    0.0000 H   0  0  0  0  0  0  0  0  0  0  0  0
   -0.9266    0.9475    0.0000 H   0  0  0  0  0  0  0  0  0  0  0  0
   -0.9266   -0.1225    0.0000 H   0  0  0  0  0  0  0  0  0  0  0  0
    0.9266   -0.9475    0.0000 H   0  0  0  0  0  0  0  0  0  0  0  0
    0.9266    0.1225    0.0000 H   0  0  0  0  0  0  0  0  0  0  0  0
  1 17  1  0  0  0  0
  1 19  1  0  0  0  0
  2 17  1  0  0  0  0
  2 20  1  0  0  0  0
  3 18  1  0  0  0  0
  3 21  1  0  0  0  0
  4 18  1  0  0  0  0
  4 22  1  0  0  0  0
  5 15  1  0  0  0  0
  5 27  1  0  0  0  0
  6 16  1  0  0  0  0
  6 28  1  0  0  0  0
  7 25  1  0  0  0  0
  7 31  1  0  0  0  0
  8 26  1  0  0  0  0
  8 32  1  0  0  0  0
  9 25  2  0  0  0  0
 10 26  2  0  0  0  0
 11 27  2  0  0  0  0
 12 28  2  0  0  0  0
 13 27  1  0  0  0  0
 13 29  1  0  0  0  0
 13 33  1  0  0  0  0
 14 28  1  0  0  0  0
 14 30  1  0  0  0  0
 14 34  1  0  0  0  0
 15 19  1  0  0  0  0
 15 20  1  0  0  0  0
 15 35  1  0  0  0  0
 16 21  1  0  0  0  0
 16 22  1  0  0  0  0
 16 36  1  0  0  0  0
 17 23  1  0  0  0  0
 17 25  1  0  0  0  0
 18 24  1  0  0  0  0
 18 26  1  0  0  0  0
 19 37  1  0  0  0  0
 19 38  1  0  0  0  0
 20 39  1  0  0  0  0
 20 40  1  0  0  0  0
 21 41  1  0  0  0  0
 21 42  1  0  0  0  0
 22 43  1  0  0  0  0
 22 44  1  0  0  0  0
 23 45  1  0  0  0  0
 23 46  1  0  0  0  0
 23 47  1  0  0  0  0
 24 48  1  0  0  0  0
 24 49  1  0  0  0  0
 24 50  1  0  0  0  0
 29 30  1  0  0  0  0
 29 51  1  0  0  0  0
 29 52  1  0  0  0  0
 30 53  1  0  0  0  0
 30 54  1  0  0  0  0
M  END
>  <DRUGBANK_ID>
DB07579

>  <COMMON_NAME>
Bis-1,2-{[(Z)-2-carboxy-2-methyl-1,3-dioxane]-5-yloxycarbamoyl}-ethane

$$$$
