
 OpenBabel10282417072D

 17 16  0  0  0  0  0  0  0  0999 V2000
    2.8875   -0.7145    0.0000 C   0  0  0  0  0  0  0  0  0  0  0  0
    2.0625   -0.7145    0.0000 C   0  0  0  0  0  0  0  0  0  0  0  0
    2.0625    0.1105    0.0000 C   0  0  0  0  0  0  0  0  0  0  0  0
    2.0625   -1.5395    0.0000 C   0  0  0  0  0  0  0  0  0  0  0  0
    1.2375   -0.7145    0.0000 O   0  0  0  0  0  0  0  0  0  0  0  0
    0.8250    0.0000    0.0000 C   0  0  0  0  0  0  0  0  0  0  0  0
    0.0000    0.0000    0.0000 O   0  0  0  0  0  0  0  0  0  0  0  0
    3.4225   -1.6411    0.0000 H   0  0  0  0  0  0  0  0  0  0  0  0
    3.4225    0.2121    0.0000 H   0  0  0  0  0  0  0  0  0  0  0  0
    3.9575   -0.7145    0.0000 H   0  0  0  0  0  0  0  0  0  0  0  0
    2.9891    0.6455    0.0000 H   0  0  0  0  0  0  0  0  0  0  0  0
    1.1359    0.6455    0.0000 H   0  0  0  0  0  0  0  0  0  0  0  0
    2.0625    1.1805    0.0000 H   0  0  0  0  0  0  0  0  0  0  0  0
    1.1359   -2.0745    0.0000 H   0  0  0  0  0  0  0  0  0  0  0  0
    2.9891   -2.0745    0.0000 H   0  0  0  0  0  0  0  0  0  0  0  0
    2.0625   -2.6095    0.0000 H   0  0  0  0  0  0  0  0  0  0  0  0
    1.3410    0.8937    0.0000 H   0  0  0  0  0  0  0  0  0  0  0  0
  1  2  1  0  0  0  0
  1  8  1  0  0  0  0
  1  9  1  0  0  0  0
  1 10  1  0  0  0  0
  2  3  1  0  0  0  0
  2  4  1  0  0  0  0
  2  5  1  0  0  0  0
  3 11  1  0  0  0  0
  3 12  1  0  0  0  0
  3 13  1  0  0  0  0
  4 14  1  0  0  0  0
  4 15  1  0  0  0  0
  4 16  1  0  0  0  0
  5  6  1  0  0  0  0
  6  7  2  0  0  0  0
  6 17  1  0  0  0  0
M  END
>  <DRUGBANK_ID>
DB02768

>  <SECONDARY_ACCESSION_NUMBERS>
EXPT00736

>  <COMMON_NAME>
Tert-Butyloxycarbonyl Group

>  <UNII>
J5BC8DA85J

$$$$
