382
 OpenBabel10282417072D

 29 31  0  0  0  0  0  0  0  0999 V2000
    3.6958   -1.2972    0.0000 N   0  0  0  0  0  0  0  0  0  0  0  0
    3.6958    1.0790    0.0000 N   0  0  0  0  0  0  0  0  0  0  0  0
    1.5842   -0.0926    0.0000 C   0  0  0  0  0  0  0  0  0  0  0  0
    2.3019    0.3145    0.0000 C   0  0  0  0  0  0  0  0  0  0  0  0
    1.5842   -0.9176    0.0000 C   0  0  0  0  0  0  0  0  0  0  0  0
    3.0099   -0.1091    0.0000 C   0  0  0  0  0  0  0  0  0  0  0  0
    2.3019   -1.3246    0.0000 C   0  0  0  0  0  0  0  0  0  0  0  0
    3.0099   -0.9011    0.0000 C   0  0  0  0  0  0  0  0  0  0  0  0
    3.6958    0.2870    0.0000 C   0  0  0  0  0  0  0  0  0  0  0  0
    4.3819   -0.1091    0.0000 C   0  0  0  0  0  0  0  0  0  0  0  0
    4.3819   -0.9011    0.0000 C   0  0  0  0  0  0  0  0  0  0  0  0
    5.0899    0.3145    0.0000 C   0  0  0  0  0  0  0  0  0  0  0  0
    5.0899   -1.3246    0.0000 C   0  0  0  0  0  0  0  0  0  0  0  0
    5.8076   -0.0926    0.0000 C   0  0  0  0  0  0  0  0  0  0  0  0
    5.8076   -0.9176    0.0000 C   0  0  0  0  0  0  0  0  0  0  0  0
    4.5484    1.5713    0.0000 H   0  0  0  0  0  0  0  0  0  0  0  0
    2.8432    1.5713    0.0000 H   0  0  0  0  0  0  0  0  0  0  0  0
    0.6596    0.4459    0.0000 H   0  0  0  0  0  0  0  0  0  0  0  0
    0.6565   -0.6258    0.0000 H   0  0  0  0  0  0  0  0  0  0  0  0
    2.3143    1.3844    0.0000 H   0  0  0  0  0  0  0  0  0  0  0  0
    3.2357    0.8369    0.0000 H   0  0  0  0  0  0  0  0  0  0  0  0
    0.6596   -1.4562    0.0000 H   0  0  0  0  0  0  0  0  0  0  0  0
    1.5904   -1.9876    0.0000 H   0  0  0  0  0  0  0  0  0  0  0  0
    2.3143   -2.3945    0.0000 H   0  0  0  0  0  0  0  0  0  0  0  0
    3.2357   -1.8470    0.0000 H   0  0  0  0  0  0  0  0  0  0  0  0
    5.0779    1.3464    0.0000 H   0  0  0  0  0  0  0  0  0  0  0  0
    5.0779   -2.3565    0.0000 H   0  0  0  0  0  0  0  0  0  0  0  0
    6.6994    0.4268    0.0000 H   0  0  0  0  0  0  0  0  0  0  0  0
    6.6993   -1.4371    0.0000 H   0  0  0  0  0  0  0  0  0  0  0  0
  1  8  2  0  0  0  0
  1 11  1  0  0  0  0
  2  9  1  0  0  0  0
  2 16  1  0  0  0  0
  2 17  1  0  0  0  0
  3  4  1  0  0  0  0
  3  5  1  0  0  0  0
  3 18  1  0  0  0  0
  3 19  1  0  0  0  0
  4  6  1  0  0  0  0
  4 20  1  0  0  0  0
  4 21  1  0  0  0  0
  5  7  1  0  0  0  0
  5 22  1  0  0  0  0
  5 23  1  0  0  0  0
  6  8  1  0  0  0  0
  6  9  2  0  0  0  0
  7  8  1  0  0  0  0
  7 24  1  0  0  0  0
  7 25  1  0  0  0  0
  9 10  1  0  0  0  0
 10 11  1  0  0  0  0
 10 12  2  0  0  0  0
 11 13  2  0  0  0  0
 12 14  1  0  0  0  0
 12 26  1  0  0  0  0
 13 15  1  0  0  0  0
 13 27  1  0  0  0  0
 14 15  2  0  0  0  0
 14 28  1  0  0  0  0
 15 29  1  0  0  0  0
M  END
>  <DRUGBANK_ID>
DB00382

>  <SECONDARY_ACCESSION_NUMBERS>
APRD00690

>  <COMMON_NAME>
Tacrine

>  <CAS_NUMBER>
321-64-2

>  <UNII>
4VX7YNB537

>  <SYNONYMS>
1,2,3,4-tetrahydro-9-acridinamine; 1,2,3,4-tetrahydro-9-aminoacridine; 1,2,3,4-tetrahydroacridin-9-amine; 5-amino-6,7,8,9-tetrahydroacridine; 9-amino-1,2,3,4-tetrahydroacridine; Tacrin; Tacrine; Tacrinum; Tetrahydroaminacrine; Tetrahydroaminoacridine; THA

$$$$
