421
 OpenBabel10282417072D

 47 49  0  0  0  0  0  0  0  0999 V2000
   -0.2940   -1.7154    0.0000 C   0  0  0  0  0  0  0  0  0  0  0  0
   -1.0085   -2.1279    0.0000 C   0  0  0  0  0  0  0  0  0  0  0  0
   -1.7229   -1.7154    0.0000 C   0  0  0  0  0  0  0  0  0  0  0  0
   -1.7229   -0.8904    0.0000 C   0  0  0  0  0  0  0  0  0  0  0  0
   -1.0085   -0.4779    0.0000 C   0  0  0  0  0  0  0  0  0  0  0  0
   -0.2940   -0.8904    0.0000 C   0  0  0  0  0  0  0  0  0  0  0  0
    0.4205   -0.4779    0.0000 C   0  0  0  0  0  0  0  0  0  0  0  0
    1.1349   -0.8904    0.0000 C   0  0  0  0  0  0  0  0  0  0  0  0
    1.1349   -1.7154    0.0000 C   0  0  0  0  0  0  0  0  0  0  0  0
    0.4205   -2.1279    0.0000 C   0  0  0  0  0  0  0  0  0  0  0  0
   -2.4374   -0.4779    0.0000 C   0  0  0  0  0  0  0  0  0  0  0  0
   -3.1519   -0.8904    0.0000 N   0  0  0  0  0  0  0  0  0  0  0  0
   -2.4374    0.3471    0.0000 N   0  0  0  0  0  0  0  0  0  0  0  0
    0.4205    0.3471    0.0000 N   0  0  0  0  0  0  0  0  0  0  0  0
   -0.2940    0.7596    0.0000 C   0  0  0  0  0  0  0  0  0  0  0  0
   -0.2940    1.5846    0.0000 C   0  0  0  0  0  0  0  0  0  0  0  0
   -1.0085    0.3471    0.0000 O   0  0  0  0  0  0  0  0  0  0  0  0
   -1.0085    1.9971    0.0000 C   0  0  0  0  0  0  0  0  0  0  0  0
   -1.0085    2.8221    0.0000 C   0  0  0  0  0  0  0  0  0  0  0  0
   -0.2940    3.2346    0.0000 C   0  0  0  0  0  0  0  0  0  0  0  0
    0.4205    2.8221    0.0000 C   0  0  0  0  0  0  0  0  0  0  0  0
    0.4205    1.9971    0.0000 C   0  0  0  0  0  0  0  0  0  0  0  0
    1.1349    1.5846    0.0000 C   0  0  0  0  0  0  0  0  0  0  0  0
    1.1349    3.2346    0.0000 O   0  0  0  0  0  0  0  0  0  0  0  0
    1.8494   -2.1279    0.0000 C   0  0  0  0  0  0  0  0  0  0  0  0
    1.8494   -2.9529    0.0000 O   0  0  0  0  0  0  0  0  0  0  0  0
    2.5639   -1.7154    0.0000 O   0  0  0  0  0  0  0  0  0  0  0  0
    3.2784   -2.1279    0.0000 C   0  0  0  0  0  0  0  0  0  0  0  0
   -1.0085   -3.1599    0.0000 H   0  0  0  0  0  0  0  0  0  0  0  0
   -2.6166   -2.2314    0.0000 H   0  0  0  0  0  0  0  0  0  0  0  0
   -1.0085    0.5541    0.0000 H   0  0  0  0  0  0  0  0  0  0  0  0
    2.0286   -0.3744    0.0000 H   0  0  0  0  0  0  0  0  0  0  0  0
    0.4205   -3.1599    0.0000 H   0  0  0  0  0  0  0  0  0  0  0  0
   -4.0045   -0.3981    0.0000 H   0  0  0  0  0  0  0  0  0  0  0  0
   -3.1519   -1.8749    0.0000 H   0  0  0  0  0  0  0  0  0  0  0  0
   -1.5848    0.8394    0.0000 H   0  0  0  0  0  0  0  0  0  0  0  0
    1.2731    0.8394    0.0000 H   0  0  0  0  0  0  0  0  0  0  0  0
   -1.9022    1.4811    0.0000 H   0  0  0  0  0  0  0  0  0  0  0  0
   -1.9022    3.3381    0.0000 H   0  0  0  0  0  0  0  0  0  0  0  0
   -0.2940    4.2666    0.0000 H   0  0  0  0  0  0  0  0  0  0  0  0
    1.1349    0.5146    0.0000 H   0  0  0  0  0  0  0  0  0  0  0  0
    2.0616    2.1196    0.0000 H   0  0  0  0  0  0  0  0  0  0  0  0
    2.0615    1.0496    0.0000 H   0  0  0  0  0  0  0  0  0  0  0  0
    1.9464    2.7661    0.0000 H   0  0  0  0  0  0  0  0  0  0  0  0
    3.2784   -3.1979    0.0000 H   0  0  0  0  0  0  0  0  0  0  0  0
    4.2050   -1.5929    0.0000 H   0  0  0  0  0  0  0  0  0  0  0  0
    4.2051   -2.6629    0.0000 H   0  0  0  0  0  0  0  0  0  0  0  0
  1  2  2  0  0  0  0
  1  6  1  0  0  0  0
  1 10  1  0  0  0  0
  2  3  1  0  0  0  0
  2 29  1  0  0  0  0
  3  4  2  0  0  0  0
  3 30  1  0  0  0  0
  4  5  1  0  0  0  0
  4 11  1  0  0  0  0
  5  6  2  0  0  0  0
  5 31  1  0  0  0  0
  6  7  1  0  0  0  0
  7  8  2  0  0  0  0
  7 14  1  0  0  0  0
  8  9  1  0  0  0  0
  8 32  1  0  0  0  0
  9 10  2  0  0  0  0
  9 25  1  0  0  0  0
 10 33  1  0  0  0  0
 11 12  1  0  0  0  0
 11 13  2  0  0  0  0
 12 34  1  0  0  0  0
 12 35  1  0  0  0  0
 13 36  1  0  0  0  0
 14 15  1  0  0  0  0
 14 37  1  0  0  0  0
 15 16  1  0  0  0  0
 15 17  2  0  0  0  0
 16 18  2  0  0  0  0
 16 22  1  0  0  0  0
 18 19  1  0  0  0  0
 18 38  1  0  0  0  0
 19 20  2  0  0  0  0
 19 39  1  0  0  0  0
 20 21  1  0  0  0  0
 20 40  1  0  0  0  0
 21 22  2  0  0  0  0
 21 24  1  0  0  0  0
 22 23  1  0  0  0  0
 23 41  1  0  0  0  0
 23 42  1  0  0  0  0
 23 43  1  0  0  0  0
 24 44  1  0  0  0  0
 25 26  2  0  0  0  0
 25 27  1  0  0  0  0
 27 28  1  0  0  0  0
 28 45  1  0  0  0  0
 28 46  1  0  0  0  0
 28 47  1  0  0  0  0
M  END
>  <DRUGBANK_ID>
DB07074

>  <COMMON_NAME>
6-CARBAMIMIDOYL-4-(3-HYDROXY-2-METHYL-BENZOYLAMINO)-NAPHTHALENE-2-CARBOXYLIC ACID METHYL ESTER

$$$$
