183
 OpenBabel10282417072D

 50 52  0  0  0  0  0  0  0  0999 V2000
   -6.3085   -0.3967    0.0000 O   0  0  0  0  0  0  0  0  0  0  0  0
   -5.5940    0.0158    0.0000 C   0  0  0  0  0  0  0  0  0  0  0  0
   -4.8796   -0.3967    0.0000 C   0  0  0  0  0  0  0  0  0  0  0  0
   -4.1651    0.0158    0.0000 O   0  0  0  0  0  0  0  0  0  0  0  0
   -3.4506   -0.3967    0.0000 C   0  0  0  0  0  0  0  0  0  0  0  0
   -2.7361    0.0158    0.0000 N   0  0  0  0  0  0  0  0  0  0  0  0
   -2.7361    0.8408    0.0000 C   0  0  0  0  0  0  0  0  0  0  0  0
   -3.4506    1.2533    0.0000 O   0  0  0  0  0  0  0  0  0  0  0  0
   -2.0217    1.2533    0.0000 N   0  0  0  0  0  0  0  0  0  0  0  0
   -1.3072    0.8408    0.0000 C   0  0  0  0  0  0  0  0  0  0  0  0
   -0.5927    1.2533    0.0000 O   0  0  0  0  0  0  0  0  0  0  0  0
   -2.0217   -0.3967    0.0000 C   0  0  0  0  0  0  0  0  0  0  0  0
   -1.3072    0.0158    0.0000 C   0  0  0  0  0  0  0  0  0  0  0  0
   -0.5927   -0.3967    0.0000 C   0  0  0  0  0  0  0  0  0  0  0  0
    0.1217    0.0158    0.0000 C   0  0  0  0  0  0  0  0  0  0  0  0
    0.1217    0.8408    0.0000 C   0  0  0  0  0  0  0  0  0  0  0  0
    0.8362    1.2533    0.0000 C   0  0  0  0  0  0  0  0  0  0  0  0
    1.5507    0.8408    0.0000 C   0  0  0  0  0  0  0  0  0  0  0  0
    0.8362   -0.3967    0.0000 C   0  0  0  0  0  0  0  0  0  0  0  0
    1.5507    0.0158    0.0000 C   0  0  0  0  0  0  0  0  0  0  0  0
    2.2651   -0.3967    0.0000 O   0  0  0  0  0  0  0  0  0  0  0  0
    2.9796    0.0158    0.0000 C   0  0  0  0  0  0  0  0  0  0  0  0
    3.6941   -0.3967    0.0000 C   0  0  0  0  0  0  0  0  0  0  0  0
    4.4086    0.0158    0.0000 C   0  0  0  0  0  0  0  0  0  0  0  0
    5.1230   -0.3967    0.0000 C   0  0  0  0  0  0  0  0  0  0  0  0
    5.1230   -1.2217    0.0000 C   0  0  0  0  0  0  0  0  0  0  0  0
    4.4086   -1.6342    0.0000 C   0  0  0  0  0  0  0  0  0  0  0  0
    3.6941   -1.2217    0.0000 C   0  0  0  0  0  0  0  0  0  0  0  0
   -7.1485    0.0883    0.0000 H   0  0  0  0  0  0  0  0  0  0  0  0
   -5.5940    1.0858    0.0000 H   0  0  0  0  0  0  0  0  0  0  0  0
   -4.6673    0.5508    0.0000 H   0  0  0  0  0  0  0  0  0  0  0  0
   -4.8796   -1.4667    0.0000 H   0  0  0  0  0  0  0  0  0  0  0  0
   -3.9530   -0.9317    0.0000 H   0  0  0  0  0  0  0  0  0  0  0  0
   -3.4506   -1.4667    0.0000 H   0  0  0  0  0  0  0  0  0  0  0  0
   -2.5240   -0.9317    0.0000 H   0  0  0  0  0  0  0  0  0  0  0  0
   -2.0217    2.2378    0.0000 H   0  0  0  0  0  0  0  0  0  0  0  0
   -2.0217   -1.4287    0.0000 H   0  0  0  0  0  0  0  0  0  0  0  0
   -0.5927   -1.4667    0.0000 H   0  0  0  0  0  0  0  0  0  0  0  0
    0.3340   -0.9317    0.0000 H   0  0  0  0  0  0  0  0  0  0  0  0
   -0.7720    1.3568    0.0000 H   0  0  0  0  0  0  0  0  0  0  0  0
    0.8362    2.2853    0.0000 H   0  0  0  0  0  0  0  0  0  0  0  0
    2.4444    1.3568    0.0000 H   0  0  0  0  0  0  0  0  0  0  0  0
    0.8362   -1.4287    0.0000 H   0  0  0  0  0  0  0  0  0  0  0  0
    2.9796    1.0858    0.0000 H   0  0  0  0  0  0  0  0  0  0  0  0
    3.9062    0.5508    0.0000 H   0  0  0  0  0  0  0  0  0  0  0  0
    4.4086    1.0478    0.0000 H   0  0  0  0  0  0  0  0  0  0  0  0
    6.0167    0.1193    0.0000 H   0  0  0  0  0  0  0  0  0  0  0  0
    6.0167   -1.7377    0.0000 H   0  0  0  0  0  0  0  0  0  0  0  0
    4.4086   -2.6662    0.0000 H   0  0  0  0  0  0  0  0  0  0  0  0
    2.8004   -1.7377    0.0000 H   0  0  0  0  0  0  0  0  0  0  0  0
  1  2  1  0  0  0  0
  1 29  1  0  0  0  0
  2  3  1  0  0  0  0
  2 30  1  0  0  0  0
  2 31  1  0  0  0  0
  3  4  1  0  0  0  0
  3 32  1  0  0  0  0
  3 33  1  0  0  0  0
  4  5  1  0  0  0  0
  5  6  1  0  0  0  0
  5 34  1  0  0  0  0
  5 35  1  0  0  0  0
  6  7  1  0  0  0  0
  6 12  1  0  0  0  0
  7  8  2  0  0  0  0
  7  9  1  0  0  0  0
  9 10  1  0  0  0  0
  9 36  1  0  0  0  0
 10 11  2  0  0  0  0
 10 13  1  0  0  0  0
 12 13  2  0  0  0  0
 12 37  1  0  0  0  0
 13 14  1  0  0  0  0
 14 15  1  0  0  0  0
 14 38  1  0  0  0  0
 14 39  1  0  0  0  0
 15 16  2  0  0  0  0
 15 19  1  0  0  0  0
 16 17  1  0  0  0  0
 16 40  1  0  0  0  0
 17 18  2  0  0  0  0
 17 41  1  0  0  0  0
 18 20  1  0  0  0  0
 18 42  1  0  0  0  0
 19 20  2  0  0  0  0
 19 43  1  0  0  0  0
 20 21  1  0  0  0  0
 21 22  1  0  0  0  0
 22 23  1  0  0  0  0
 22 44  1  0  0  0  0
 22 45  1  0  0  0  0
 23 24  2  0  0  0  0
 23 28  1  0  0  0  0
 24 25  1  0  0  0  0
 24 46  1  0  0  0  0
 25 26  2  0  0  0  0
 25 47  1  0  0  0  0
 26 27  1  0  0  0  0
 26 48  1  0  0  0  0
 27 28  2  0  0  0  0
 27 49  1  0  0  0  0
 28 50  1  0  0  0  0
M  END
>  <DRUGBANK_ID>
DB06873

>  <COMMON_NAME>
1-((2-HYDROXYETHOXY)METHYL)-5-(3-(BENZYLOXY)BENZYL)PYRIMIDINE-2,4(1H,3H)-DIONE

>  <UNII>
TA375L4WSV

$$$$
