
 OpenBabel10282417072D

 17 17  0  0  0  0  0  0  0  0999 V2000
   -0.1709    1.5792    0.0000 N   0  0  0  0  0  0  0  0  0  0  0  0
    0.4125    0.9959    0.0000 C   0  0  1  0  0  0  0  0  0  0  0  0
    0.9959    0.4125    0.0000 C   0  0  0  0  0  0  0  0  0  0  0  0
    0.4125   -0.1709    0.0000 C   0  0  2  0  0  0  0  0  0  0  0  0
    0.4125   -0.9959    0.0000 F   0  0  0  0  0  0  0  0  0  0  0  0
   -0.1709    0.4125    0.0000 C   0  0  0  0  0  0  0  0  0  0  0  0
    0.9959    1.5792    0.0000 C   0  0  0  0  0  0  0  0  0  0  0  0
    0.7823    2.3761    0.0000 O   0  0  0  0  0  0  0  0  0  0  0  0
    1.7928    1.3657    0.0000 O   0  0  0  0  0  0  0  0  0  0  0  0
    0.0930    2.5645    0.0000 H   0  0  0  0  0  0  0  0  0  0  0  0
   -1.1561    1.3151    0.0000 H   0  0  0  0  0  0  0  0  0  0  0  0
    2.0659    0.4125    0.0000 H   0  0  0  0  0  0  0  0  0  0  0  0
    1.4054   -0.5761    0.0000 H   0  0  0  0  0  0  0  0  0  0  0  0
    1.4011   -0.5804    0.0000 H   0  0  0  0  0  0  0  0  0  0  0  0
   -1.2409    0.4125    0.0000 H   0  0  0  0  0  0  0  0  0  0  0  0
   -0.5804    1.4011    0.0000 H   0  0  0  0  0  0  0  0  0  0  0  0
    1.4448    3.0387    0.0000 H   0  0  0  0  0  0  0  0  0  0  0  0
  1 10  1  0  0  0  0
  1 11  1  0  0  0  0
  2  1  1  0  0  0  0
  2  3  1  0  0  0  0
  2  6  1  0  0  0  0
  2  7  1  6  0  0  0
  3 12  1  0  0  0  0
  3 13  1  0  0  0  0
  4  3  1  0  0  0  0
  4  5  1  0  0  0  0
  4  6  1  0  0  0  0
  4 14  1  1  0  0  0
  6 15  1  0  0  0  0
  6 16  1  0  0  0  0
  7  8  1  0  0  0  0
  7  9  2  0  0  0  0
  8 17  1  0  0  0  0
M  END
>  <DRUGBANK_ID>
DB15237

>  <COMMON_NAME>
Fluciclovine

>  <CAS_NUMBER>
222727-43-7

>  <UNII>
YKG0YF688X

>  <SYNONYMS>
Anti-1-amino-3-18F-fluorocyclobutane-1-carboxylic acid; Cyclobutanecarboxylic acid, 1-amino-3-fluoro-, trans-

$$$$
