
 OpenBabel10282417072D

198201  0  0  0  0  0  0  0  0999 V2000
   11.7277   -3.6823    0.0000 C   0  0  0  0  0  0  0  0  0  0  0  0
   11.7166   -2.8527    0.0000 N   0  0  0  0  0  0  0  0  0  0  0  0
   11.0224   -4.1083    0.0000 N   0  0  0  0  0  0  0  0  0  0  0  0
   12.4504   -4.0759    0.0000 N   0  0  0  0  0  0  0  0  0  0  0  0
   10.3015   -3.7071    0.0000 C   0  0  0  0  0  0  0  0  0  0  0  0
    3.2237   -2.8307    0.0000 N   0  0  0  0  0  0  0  0  0  0  0  0
    7.4587   -2.8915    0.0000 N   0  0  0  0  0  0  0  0  0  0  0  0
    3.9314   -2.4106    0.0000 C   0  0  0  0  0  0  0  0  0  0  0  0
    7.4532   -3.7152    0.0000 C   0  0  0  0  0  0  0  0  0  0  0  0
    6.0766   -2.8087    0.0000 C   0  0  0  0  0  0  0  0  0  0  0  0
    2.5546   -1.5204    0.0000 C   0  0  0  0  0  0  0  0  0  0  0  0
    6.7898   -2.4049    0.0000 C   0  0  2  0  0  0  0  0  0  0  0  0
    2.5546   -2.3497    0.0000 C   0  0  2  0  0  0  0  0  0  0  0  0
   -2.4488    2.1063    0.0000 C   0  0  0  0  0  0  0  0  0  0  0  0
   -8.1489    3.7318    0.0000 C   0  0  0  0  0  0  0  0  0  0  0  0
   -0.3091    1.6917    0.0000 C   0  0  0  0  0  0  0  0  0  0  0  0
    1.1116    0.1216    0.0000 C   0  0  0  0  0  0  0  0  0  0  0  0
    5.3633   -2.3995    0.0000 N   0  0  0  0  0  0  0  0  0  0  0  0
    1.8414   -1.1113    0.0000 N   0  0  0  0  0  0  0  0  0  0  0  0
   -1.0223    2.1063    0.0000 N   0  0  0  0  0  0  0  0  0  0  0  0
   -3.1620    1.6917    0.0000 N   0  0  0  0  0  0  0  0  0  0  0  0
    0.4094   -0.2930    0.0000 N   0  0  0  0  0  0  0  0  0  0  0  0
   -8.8622    4.1465    0.0000 N   0  0  0  0  0  0  0  0  0  0  0  0
   -4.5884    1.6917    0.0000 C   0  0  0  0  0  0  0  0  0  0  0  0
   -1.7356    1.6917    0.0000 C   0  0  1  0  0  0  0  0  0  0  0  0
    4.6501   -2.8197    0.0000 C   0  0  1  0  0  0  0  0  0  0  0  0
   -3.8752    2.1063    0.0000 C   0  0  2  0  0  0  0  0  0  0  0  0
   -8.1489    2.1063    0.0000 C   0  0  1  0  0  0  0  0  0  0  0  0
   -7.4357    1.6917    0.0000 N   0  0  0  0  0  0  0  0  0  0  0  0
   -9.5811    2.9137    0.0000 C   0  0  0  0  0  0  0  0  0  0  0  0
    1.8358   -0.2820    0.0000 C   0  0  1  0  0  0  0  0  0  0  0  0
   -0.3091    0.1160    0.0000 C   0  0  1  0  0  0  0  0  0  0  0  0
   -6.7281    2.1063    0.0000 C   0  0  0  0  0  0  0  0  0  0  0  0
   -5.3016    2.1063    0.0000 N   0  0  0  0  0  0  0  0  0  0  0  0
   -9.5810    3.7374    0.0000 C   0  0  2  0  0  0  0  0  0  0  0  0
    3.9755    0.1436    0.0000 C   0  0  0  0  0  0  0  0  0  0  0  0
    3.9259   -1.5922    0.0000 O   0  0  0  0  0  0  0  0  0  0  0  0
    6.7344   -4.1244    0.0000 O   0  0  0  0  0  0  0  0  0  0  0  0
    3.2624   -1.1057    0.0000 O   0  0  0  0  0  0  0  0  0  0  0  0
    6.0710   -3.6381    0.0000 O   0  0  0  0  0  0  0  0  0  0  0  0
    8.1665   -4.1300    0.0000 C   0  0  1  0  0  0  0  0  0  0  0  0
   -2.4488    2.9301    0.0000 O   0  0  0  0  0  0  0  0  0  0  0  0
   -7.4303    4.1465    0.0000 O   0  0  0  0  0  0  0  0  0  0  0  0
    1.1116    0.9453    0.0000 O   0  0  0  0  0  0  0  0  0  0  0  0
    0.4040    2.1063    0.0000 O   0  0  0  0  0  0  0  0  0  0  0  0
   -1.7356    0.8679    0.0000 C   0  0  0  0  0  0  0  0  0  0  0  0
   -3.8752    3.6268    0.0000 C   0  0  0  0  0  0  0  0  0  0  0  0
   -4.5884    0.8679    0.0000 O   0  0  0  0  0  0  0  0  0  0  0  0
   -8.8678    2.4990    0.0000 O   0  0  0  0  0  0  0  0  0  0  0  0
   -8.8622    1.6917    0.0000 C   0  0  0  0  0  0  0  0  0  0  0  0
   -6.7281    2.9301    0.0000 O   0  0  0  0  0  0  0  0  0  0  0  0
    3.9645    0.9675    0.0000 O   0  0  0  0  0  0  0  0  0  0  0  0
    2.5491    0.1326    0.0000 C   0  0  0  0  0  0  0  0  0  0  0  0
   -1.0223   -0.2930    0.0000 C   0  0  0  0  0  0  0  0  0  0  0  0
   -6.0149    1.6917    0.0000 C   0  0  0  0  0  0  0  0  0  0  0  0
    8.1221   -2.4050    0.0000 C   0  0  0  0  0  0  0  0  0  0  0  0
    2.9639   -3.6213    0.0000 C   0  0  0  0  0  0  0  0  0  0  0  0
    3.2623   -0.2764    0.0000 C   0  0  0  0  0  0  0  0  0  0  0  0
    4.6889   -0.2710    0.0000 N   0  0  0  0  0  0  0  0  0  0  0  0
  -10.2997    2.4990    0.0000 N   0  0  0  0  0  0  0  0  0  0  0  0
  -10.2997    4.1521    0.0000 C   0  0  0  0  0  0  0  0  0  0  0  0
    8.1665   -4.9594    0.0000 N   0  0  0  0  0  0  0  0  0  0  0  0
    8.8797   -3.7098    0.0000 C   0  0  0  0  0  0  0  0  0  0  0  0
   -4.5940    4.0414    0.0000 C   0  0  0  0  0  0  0  0  0  0  0  0
   -2.4488    0.4589    0.0000 C   0  0  0  0  0  0  0  0  0  0  0  0
  -11.7318    4.1575    0.0000 S   0  0  0  0  0  0  0  0  0  0  0  0
    2.4994   -4.8765    0.0000 N   0  0  0  0  0  0  0  0  0  0  0  0
    1.8857   -2.8307    0.0000 C   0  0  0  0  0  0  0  0  0  0  0  0
    7.0496   -1.6199    0.0000 C   0  0  0  0  0  0  0  0  0  0  0  0
    2.1400   -3.6213    0.0000 C   0  0  0  0  0  0  0  0  0  0  0  0
    7.8733   -1.6199    0.0000 C   0  0  0  0  0  0  0  0  0  0  0  0
    4.6612   -3.6434    0.0000 C   0  0  0  0  0  0  0  0  0  0  0  0
   -8.8622    0.8679    0.0000 C   0  0  0  0  0  0  0  0  0  0  0  0
  -11.0129    3.7428    0.0000 C   0  0  0  0  0  0  0  0  0  0  0  0
    3.2237   -5.2855    0.0000 C   0  0  0  0  0  0  0  0  0  0  0  0
  -12.4504    3.7428    0.0000 C   0  0  0  0  0  0  0  0  0  0  0  0
   -3.1620    0.8790    0.0000 C   0  0  0  0  0  0  0  0  0  0  0  0
   -2.4544   -0.3593    0.0000 C   0  0  0  0  0  0  0  0  0  0  0  0
   -4.5940    4.8765    0.0000 C   0  0  0  0  0  0  0  0  0  0  0  0
   -5.3072    3.6213    0.0000 C   0  0  0  0  0  0  0  0  0  0  0  0
    3.9424   -4.0471    0.0000 C   0  0  0  0  0  0  0  0  0  0  0  0
    3.9424   -4.8765    0.0000 C   0  0  0  0  0  0  0  0  0  0  0  0
   -9.5810    0.4589    0.0000 C   0  0  0  0  0  0  0  0  0  0  0  0
   -8.1545    0.4533    0.0000 C   0  0  0  0  0  0  0  0  0  0  0  0
   -6.0258    4.0304    0.0000 C   0  0  0  0  0  0  0  0  0  0  0  0
   -3.8808    0.4698    0.0000 C   0  0  0  0  0  0  0  0  0  0  0  0
   -3.1676   -0.7686    0.0000 C   0  0  0  0  0  0  0  0  0  0  0  0
   -5.3126    5.2855    0.0000 C   0  0  0  0  0  0  0  0  0  0  0  0
   -3.8808   -0.3537    0.0000 C   0  0  0  0  0  0  0  0  0  0  0  0
   -6.0315    4.8709    0.0000 C   0  0  0  0  0  0  0  0  0  0  0  0
   -1.0279   -1.1113    0.0000 C   0  0  0  0  0  0  0  0  0  0  0  0
   -1.7411   -1.5148    0.0000 C   0  0  0  0  0  0  0  0  0  0  0  0
   -2.4544   -1.1002    0.0000 N   0  0  0  0  0  0  0  0  0  0  0  0
   -1.7467   -2.3387    0.0000 O   0  0  0  0  0  0  0  0  0  0  0  0
   -5.3072    2.9357    0.0000 C   0  0  0  0  0  0  0  0  0  0  0  0
  -11.1512    4.7492    0.0000 O   0  0  0  0  0  0  0  0  0  0  0  0
  -12.3289    4.7492    0.0000 O   0  0  0  0  0  0  0  0  0  0  0  0
    9.5928   -4.1189    0.0000 C   0  0  0  0  0  0  0  0  0  0  0  0
   12.5625   -2.3491    0.0000 H   0  0  0  0  0  0  0  0  0  0  0  0
   11.0399   -5.0926    0.0000 H   0  0  0  0  0  0  0  0  0  0  0  0
   12.4749   -5.0601    0.0000 H   0  0  0  0  0  0  0  0  0  0  0  0
   13.2905   -3.5626    0.0000 H   0  0  0  0  0  0  0  0  0  0  0  0
   10.2916   -2.6371    0.0000 H   0  0  0  0  0  0  0  0  0  0  0  0
    9.3716   -3.1777    0.0000 H   0  0  0  0  0  0  0  0  0  0  0  0
    5.9629   -1.7258    0.0000 H   0  0  0  0  0  0  0  0  0  0  0  0
    3.5068   -1.8615    0.0000 H   0  0  0  0  0  0  0  0  0  0  0  0
    5.3576   -1.4150    0.0000 H   0  0  0  0  0  0  0  0  0  0  0  0
    0.9912   -1.6076    0.0000 H   0  0  0  0  0  0  0  0  0  0  0  0
   -1.0223    3.0908    0.0000 H   0  0  0  0  0  0  0  0  0  0  0  0
   -3.1620    0.7072    0.0000 H   0  0  0  0  0  0  0  0  0  0  0  0
    0.4172   -1.2775    0.0000 H   0  0  0  0  0  0  0  0  0  0  0  0
   -8.8577    5.1310    0.0000 H   0  0  0  0  0  0  0  0  0  0  0  0
   -2.6630    1.1581    0.0000 H   0  0  0  0  0  0  0  0  0  0  0  0
    5.5827   -3.3443    0.0000 H   0  0  0  0  0  0  0  0  0  0  0  0
   -4.8026    2.6399    0.0000 H   0  0  0  0  0  0  0  0  0  0  0  0
   -7.2215    2.6399    0.0000 H   0  0  0  0  0  0  0  0  0  0  0  0
   -7.4340    0.7072    0.0000 H   0  0  0  0  0  0  0  0  0  0  0  0
    0.9151   -0.8271    0.0000 H   0  0  0  0  0  0  0  0  0  0  0  0
    0.6159    0.6538    0.0000 H   0  0  0  0  0  0  0  0  0  0  0  0
   -8.6560    3.1995    0.0000 H   0  0  0  0  0  0  0  0  0  0  0  0
    7.2390   -4.6636    0.0000 H   0  0  0  0  0  0  0  0  0  0  0  0
   -0.8097    0.3316    0.0000 H   0  0  0  0  0  0  0  0  0  0  0  0
   -1.7379   -0.2021    0.0000 H   0  0  0  0  0  0  0  0  0  0  0  0
   -2.9487    4.1620    0.0000 H   0  0  0  0  0  0  0  0  0  0  0  0
   -3.8755    4.6968    0.0000 H   0  0  0  0  0  0  0  0  0  0  0  0
   -9.7896    2.2253    0.0000 H   0  0  0  0  0  0  0  0  0  0  0  0
   -9.7885    1.1560    0.0000 H   0  0  0  0  0  0  0  0  0  0  0  0
    2.5460    1.2026    0.0000 H   0  0  0  0  0  0  0  0  0  0  0  0
    3.4742    0.6703    0.0000 H   0  0  0  0  0  0  0  0  0  0  0  0
   -1.9463    0.2465    0.0000 H   0  0  0  0  0  0  0  0  0  0  0  0
   -1.9521   -0.8226    0.0000 H   0  0  0  0  0  0  0  0  0  0  0  0
   -6.0149    0.6217    0.0000 H   0  0  0  0  0  0  0  0  0  0  0  0
   -5.0875    1.1580    0.0000 H   0  0  0  0  0  0  0  0  0  0  0  0
    9.1393   -2.7371    0.0000 H   0  0  0  0  0  0  0  0  0  0  0  0
    8.8820   -1.6517    0.0000 H   0  0  0  0  0  0  0  0  0  0  0  0
    3.5914   -4.4880    0.0000 H   0  0  0  0  0  0  0  0  0  0  0  0
    2.4773   -4.5743    0.0000 H   0  0  0  0  0  0  0  0  0  0  0  0
    3.2685   -1.3464    0.0000 H   0  0  0  0  0  0  0  0  0  0  0  0
    2.3380   -0.8154    0.0000 H   0  0  0  0  0  0  0  0  0  0  0  0
    4.6861   -1.2555    0.0000 H   0  0  0  0  0  0  0  0  0  0  0  0
    5.5429    0.2188    0.0000 H   0  0  0  0  0  0  0  0  0  0  0  0
  -11.1522    2.9914    0.0000 H   0  0  0  0  0  0  0  0  0  0  0  0
  -10.2999    1.5145    0.0000 H   0  0  0  0  0  0  0  0  0  0  0  0
  -10.2984    5.2221    0.0000 H   0  0  0  0  0  0  0  0  0  0  0  0
  -11.2253    4.6888    0.0000 H   0  0  0  0  0  0  0  0  0  0  0  0
    7.2832   -5.4694    0.0000 H   0  0  0  0  0  0  0  0  0  0  0  0
    9.0498   -5.4694    0.0000 H   0  0  0  0  0  0  0  0  0  0  0  0
    8.8735   -2.6398    0.0000 H   0  0  0  0  0  0  0  0  0  0  0  0
    9.8041   -3.1709    0.0000 H   0  0  0  0  0  0  0  0  0  0  0  0
    2.4897   -3.8565    0.0000 H   0  0  0  0  0  0  0  0  0  0  0  0
    1.6210   -5.3949    0.0000 H   0  0  0  0  0  0  0  0  0  0  0  0
    0.8694   -2.4961    0.0000 H   0  0  0  0  0  0  0  0  0  0  0  0
    1.1265   -3.5847    0.0000 H   0  0  0  0  0  0  0  0  0  0  0  0
    6.4230   -0.7525    0.0000 H   0  0  0  0  0  0  0  0  0  0  0  0
    7.5367   -0.6672    0.0000 H   0  0  0  0  0  0  0  0  0  0  0  0
    1.5098   -4.4860    0.0000 H   0  0  0  0  0  0  0  0  0  0  0  0
    1.0835   -3.4516    0.0000 H   0  0  0  0  0  0  0  0  0  0  0  0
    8.5054   -0.7565    0.0000 H   0  0  0  0  0  0  0  0  0  0  0  0
    8.9292   -1.7930    0.0000 H   0  0  0  0  0  0  0  0  0  0  0  0
    5.5883   -4.1777    0.0000 H   0  0  0  0  0  0  0  0  0  0  0  0
    4.6553   -4.7134    0.0000 H   0  0  0  0  0  0  0  0  0  0  0  0
   -8.8690   -0.2021    0.0000 H   0  0  0  0  0  0  0  0  0  0  0  0
  -11.0141    2.6728    0.0000 H   0  0  0  0  0  0  0  0  0  0  0  0
  -10.0872    3.2061    0.0000 H   0  0  0  0  0  0  0  0  0  0  0  0
    3.2255   -6.3555    0.0000 H   0  0  0  0  0  0  0  0  0  0  0  0
    4.1491   -5.8226    0.0000 H   0  0  0  0  0  0  0  0  0  0  0  0
  -13.3769    4.2780    0.0000 H   0  0  0  0  0  0  0  0  0  0  0  0
  -12.4506    2.6728    0.0000 H   0  0  0  0  0  0  0  0  0  0  0  0
  -13.3771    3.2080    0.0000 H   0  0  0  0  0  0  0  0  0  0  0  0
   -3.1544    1.9110    0.0000 H   0  0  0  0  0  0  0  0  0  0  0  0
   -1.5631   -0.8795    0.0000 H   0  0  0  0  0  0  0  0  0  0  0  0
   -3.7019    5.3953    0.0000 H   0  0  0  0  0  0  0  0  0  0  0  0
   -5.2996    2.5893    0.0000 H   0  0  0  0  0  0  0  0  0  0  0  0
    3.0189   -3.5066    0.0000 H   0  0  0  0  0  0  0  0  0  0  0  0
    3.0142   -4.5793    0.0000 H   0  0  0  0  0  0  0  0  0  0  0  0
    4.8674   -5.4144    0.0000 H   0  0  0  0  0  0  0  0  0  0  0  0
    4.8699   -4.3429    0.0000 H   0  0  0  0  0  0  0  0  0  0  0  0
  -10.5043    0.9997    0.0000 H   0  0  0  0  0  0  0  0  0  0  0  0
   -9.5877   -0.6111    0.0000 H   0  0  0  0  0  0  0  0  0  0  0  0
  -10.5110   -0.0703    0.0000 H   0  0  0  0  0  0  0  0  0  0  0  0
   -8.1613   -0.6167    0.0000 H   0  0  0  0  0  0  0  0  0  0  0  0
   -7.2245    0.9824    0.0000 H   0  0  0  0  0  0  0  0  0  0  0  0
   -7.2313   -0.0876    0.0000 H   0  0  0  0  0  0  0  0  0  0  0  0
   -6.9162    3.5087    0.0000 H   0  0  0  0  0  0  0  0  0  0  0  0
   -4.7730    0.9885    0.0000 H   0  0  0  0  0  0  0  0  0  0  0  0
   -3.1706   -1.8006    0.0000 H   0  0  0  0  0  0  0  0  0  0  0  0
   -5.3155    6.3175    0.0000 H   0  0  0  0  0  0  0  0  0  0  0  0
   -4.7754   -0.8682    0.0000 H   0  0  0  0  0  0  0  0  0  0  0  0
   -6.9269    5.3841    0.0000 H   0  0  0  0  0  0  0  0  0  0  0  0
   -0.1054   -1.6535    0.0000 H   0  0  0  0  0  0  0  0  0  0  0  0
   -1.0367   -2.1813    0.0000 H   0  0  0  0  0  0  0  0  0  0  0  0
   -2.4515   -0.1157    0.0000 H   0  0  0  0  0  0  0  0  0  0  0  0
   -3.3084   -1.5900    0.0000 H   0  0  0  0  0  0  0  0  0  0  0  0
   -4.3842    3.4769    0.0000 H   0  0  0  0  0  0  0  0  0  0  0  0
   -6.2374    3.4644    0.0000 H   0  0  0  0  0  0  0  0  0  0  0  0
   -5.3144    4.0057    0.0000 H   0  0  0  0  0  0  0  0  0  0  0  0
    9.5958   -5.1889    0.0000 H   0  0  0  0  0  0  0  0  0  0  0  0
   10.5209   -4.6513    0.0000 H   0  0  0  0  0  0  0  0  0  0  0  0
  1  3  1  0  0  0  0
  2  1  2  0  0  0  0
  2 99  1  0  0  0  0
  3  5  1  0  0  0  0
  3100  1  0  0  0  0
  4  1  1  0  0  0  0
  4101  1  0  0  0  0
  4102  1  0  0  0  0
  5103  1  0  0  0  0
  5104  1  0  0  0  0
  7 12  1  0  0  0  0
  8  6  1  0  0  0  0
  9  7  1  0  0  0  0
 10 18  1  0  0  0  0
 12 10  1  0  0  0  0
 12105  1  1  0  0  0
 13 11  1  0  0  0  0
 13  6  1  0  0  0  0
 13106  1  6  0  0  0
 14 25  1  0  0  0  0
 17 31  1  0  0  0  0
 18 26  1  0  0  0  0
 18107  1  0  0  0  0
 19 11  1  0  0  0  0
 19108  1  0  0  0  0
 20 16  1  0  0  0  0
 20109  1  0  0  0  0
 21 14  1  0  0  0  0
 21110  1  0  0  0  0
 22 17  1  0  0  0  0
 22111  1  0  0  0  0
 23 15  1  0  0  0  0
 23112  1  0  0  0  0
 24 27  1  0  0  0  0
 25 20  1  0  0  0  0
 25 46  1  0  0  0  0
 25113  1  6  0  0  0
 26  8  1  0  0  0  0
 26 72  1  0  0  0  0
 26114  1  6  0  0  0
 27 21  1  0  0  0  0
 27 47  1  0  0  0  0
 27115  1  1  0  0  0
 28 15  1  0  0  0  0
 28 29  1  0  0  0  0
 28116  1  6  0  0  0
 29 33  1  0  0  0  0
 29117  1  0  0  0  0
 31 19  1  0  0  0  0
 31118  1  1  0  0  0
 32 16  1  0  0  0  0
 32 22  1  0  0  0  0
 32119  1  6  0  0  0
 33 55  1  0  0  0  0
 34 24  1  0  0  0  0
 34 95  1  0  0  0  0
 35 30  1  0  0  0  0
 35 23  1  0  0  0  0
 35120  1  1  0  0  0
 36 58  1  0  0  0  0
 37  8  2  0  0  0  0
 38  9  2  0  0  0  0
 39 11  2  0  0  0  0
 40 10  2  0  0  0  0
 41  9  1  0  0  0  0
 41 62  1  0  0  0  0
 41121  1  1  0  0  0
 42 14  2  0  0  0  0
 43 15  2  0  0  0  0
 44 17  2  0  0  0  0
 45 16  2  0  0  0  0
 46122  1  0  0  0  0
 46123  1  0  0  0  0
 47124  1  0  0  0  0
 47125  1  0  0  0  0
 48 24  2  0  0  0  0
 49 30  2  0  0  0  0
 50 28  1  0  0  0  0
 50126  1  0  0  0  0
 50127  1  0  0  0  0
 51 33  2  0  0  0  0
 52 36  2  0  0  0  0
 53 31  1  0  0  0  0
 53128  1  0  0  0  0
 53129  1  0  0  0  0
 54 32  1  0  0  0  0
 54 91  1  0  0  0  0
 54130  1  0  0  0  0
 54131  1  0  0  0  0
 55 34  1  0  0  0  0
 55132  1  0  0  0  0
 55133  1  0  0  0  0
 56  7  1  0  0  0  0
 56134  1  0  0  0  0
 56135  1  0  0  0  0
 57  6  1  0  0  0  0
 57136  1  0  0  0  0
 57137  1  0  0  0  0
 58 53  1  0  0  0  0
 58138  1  0  0  0  0
 58139  1  0  0  0  0
 59 36  1  0  0  0  0
 59140  1  0  0  0  0
 59141  1  0  0  0  0
 60 30  1  0  0  0  0
 60142  1  0  0  0  0
 60143  1  0  0  0  0
 61 35  1  0  0  0  0
 61144  1  0  0  0  0
 61145  1  0  0  0  0
 62146  1  0  0  0  0
 62147  1  0  0  0  0
 63 41  1  0  0  0  0
 63 98  1  0  0  0  0
 63148  1  0  0  0  0
 63149  1  0  0  0  0
 64 47  1  0  0  0  0
 65 46  1  0  0  0  0
 66 74  1  0  0  0  0
 66 96  2  0  0  0  0
 66 97  2  0  0  0  0
 67 75  1  0  0  0  0
 67150  1  0  0  0  0
 67151  1  0  0  0  0
 68 13  1  0  0  0  0
 68152  1  0  0  0  0
 68153  1  0  0  0  0
 69 12  1  0  0  0  0
 69154  1  0  0  0  0
 69155  1  0  0  0  0
 70 57  1  0  0  0  0
 70 68  1  0  0  0  0
 70156  1  0  0  0  0
 70157  1  0  0  0  0
 71 69  1  0  0  0  0
 71 56  1  0  0  0  0
 71158  1  0  0  0  0
 71159  1  0  0  0  0
 72160  1  0  0  0  0
 72161  1  0  0  0  0
 73 50  1  0  0  0  0
 73162  1  0  0  0  0
 74 61  1  0  0  0  0
 74163  1  0  0  0  0
 74164  1  0  0  0  0
 75 82  1  0  0  0  0
 75165  1  0  0  0  0
 75166  1  0  0  0  0
 76 66  1  0  0  0  0
 76167  1  0  0  0  0
 76168  1  0  0  0  0
 76169  1  0  0  0  0
 77 65  2  0  0  0  0
 77170  1  0  0  0  0
 78 65  1  0  0  0  0
 78171  1  0  0  0  0
 79 64  2  0  0  0  0
 79172  1  0  0  0  0
 80 64  1  0  0  0  0
 80173  1  0  0  0  0
 81 72  1  0  0  0  0
 81174  1  0  0  0  0
 81175  1  0  0  0  0
 82 81  1  0  0  0  0
 82176  1  0  0  0  0
 82177  1  0  0  0  0
 83 73  1  0  0  0  0
 83178  1  0  0  0  0
 83179  1  0  0  0  0
 83180  1  0  0  0  0
 84 73  1  0  0  0  0
 84181  1  0  0  0  0
 84182  1  0  0  0  0
 84183  1  0  0  0  0
 85 80  2  0  0  0  0
 85184  1  0  0  0  0
 86 77  1  0  0  0  0
 86185  1  0  0  0  0
 87 78  2  0  0  0  0
 87186  1  0  0  0  0
 88 79  1  0  0  0  0
 88187  1  0  0  0  0
 89 87  1  0  0  0  0
 89 86  2  0  0  0  0
 89188  1  0  0  0  0
 90 85  1  0  0  0  0
 90 88  2  0  0  0  0
 90189  1  0  0  0  0
 91 92  1  0  0  0  0
 91190  1  0  0  0  0
 91191  1  0  0  0  0
 92 93  1  0  0  0  0
 92 94  2  0  0  0  0
 93192  1  0  0  0  0
 93193  1  0  0  0  0
 95194  1  0  0  0  0
 95195  1  0  0  0  0
 95196  1  0  0  0  0
 98  5  1  0  0  0  0
 98197  1  0  0  0  0
 98198  1  0  0  0  0
M  END
>  <DRUGBANK_ID>
DB05875

>  <COMMON_NAME>
Sar9, Met (O2)11-Substance P

>  <CAS_NUMBER>
110880-55-2

>  <UNII>
8V0QAFPRXV

>  <SYNONYMS>
(Sar(9),met(O2)(11))SP; (Sar(9))SP sulfone; 9-Sar-11-met(O2)-substance P; 9-Sar-substance P sulfone; 9-Sarcosyl-11-methionine(O2)-substance P; Bolton hunter-9-sar-11-met(02)-substance P; Sarcosyl(9)-substance P sulfone

$$$$
