
 OpenBabel10282417072D

 50 52  0  0  0  0  0  0  0  0999 V2000
   -1.0085   -1.2202    0.0000 C   0  0  0  0  0  0  0  0  0  0  0  0
   -1.7229   -1.6327    0.0000 C   0  0  0  0  0  0  0  0  0  0  0  0
   -2.4374   -1.2202    0.0000 C   0  0  0  0  0  0  0  0  0  0  0  0
   -2.4374   -0.3952    0.0000 C   0  0  0  0  0  0  0  0  0  0  0  0
   -1.7229    0.0173    0.0000 C   0  0  0  0  0  0  0  0  0  0  0  0
   -1.0085   -0.3952    0.0000 C   0  0  0  0  0  0  0  0  0  0  0  0
   -1.7229    0.8423    0.0000 Cl  0  0  0  0  0  0  0  0  0  0  0  0
   -1.7229   -2.4577    0.0000 S   0  0  0  0  0  0  0  0  0  0  0  0
   -2.5479   -2.4577    0.0000 O   0  0  0  0  0  0  0  0  0  0  0  0
   -0.8979   -2.4577    0.0000 O   0  0  0  0  0  0  0  0  0  0  0  0
   -1.7229   -3.2827    0.0000 C   0  0  1  0  0  0  0  0  0  0  0  0
   -1.4408   -4.0580    0.0000 C   0  0  0  0  0  0  0  0  0  0  0  0
   -1.9711   -4.6900    0.0000 C   0  0  0  0  0  0  0  0  0  0  0  0
   -2.7835   -4.5467    0.0000 C   0  0  2  0  0  0  0  0  0  0  0  0
   -3.0657   -3.7714    0.0000 C   0  0  0  0  0  0  0  0  0  0  0  0
   -2.5354   -3.1395    0.0000 C   0  0  0  0  0  0  0  0  0  0  0  0
   -3.3138   -5.1787    0.0000 C   0  0  0  0  0  0  0  0  0  0  0  0
   -3.0317   -5.9539    0.0000 C   0  0  0  0  0  0  0  0  0  0  0  0
   -3.5620   -6.5859    0.0000 C   0  0  0  0  0  0  0  0  0  0  0  0
   -3.2798   -7.3612    0.0000 O   0  0  0  0  0  0  0  0  0  0  0  0
   -4.3744   -6.4427    0.0000 O   0  0  0  0  0  0  0  0  0  0  0  0
   -0.9105   -3.1395    0.0000 C   0  0  0  0  0  0  0  0  0  0  0  0
   -0.6283   -2.3642    0.0000 C   0  0  0  0  0  0  0  0  0  0  0  0
    0.1842   -2.2210    0.0000 C   0  0  0  0  0  0  0  0  0  0  0  0
    0.7145   -2.8529    0.0000 C   0  0  0  0  0  0  0  0  0  0  0  0
    0.4323   -3.6282    0.0000 C   0  0  0  0  0  0  0  0  0  0  0  0
   -0.3802   -3.7714    0.0000 C   0  0  0  0  0  0  0  0  0  0  0  0
    0.9626   -4.2602    0.0000 F   0  0  0  0  0  0  0  0  0  0  0  0
   -1.1586   -1.7322    0.0000 F   0  0  0  0  0  0  0  0  0  0  0  0
   -0.1148   -1.7362    0.0000 H   0  0  0  0  0  0  0  0  0  0  0  0
   -3.3311   -1.7362    0.0000 H   0  0  0  0  0  0  0  0  0  0  0  0
   -3.3311    0.1208    0.0000 H   0  0  0  0  0  0  0  0  0  0  0  0
   -0.1148    0.1208    0.0000 H   0  0  0  0  0  0  0  0  0  0  0  0
   -0.3871   -4.2438    0.0000 H   0  0  0  0  0  0  0  0  0  0  0  0
   -1.0749   -5.0635    0.0000 H   0  0  0  0  0  0  0  0  0  0  0  0
   -1.6052   -5.6955    0.0000 H   0  0  0  0  0  0  0  0  0  0  0  0
   -2.6589   -5.5096    0.0000 H   0  0  0  0  0  0  0  0  0  0  0  0
   -2.4176   -5.5522    0.0000 H   0  0  0  0  0  0  0  0  0  0  0  0
   -4.1194   -3.5856    0.0000 H   0  0  0  0  0  0  0  0  0  0  0  0
   -3.4316   -2.7659    0.0000 H   0  0  0  0  0  0  0  0  0  0  0  0
   -2.9014   -2.1340    0.0000 H   0  0  0  0  0  0  0  0  0  0  0  0
   -1.8477   -2.3198    0.0000 H   0  0  0  0  0  0  0  0  0  0  0  0
   -4.3675   -4.9929    0.0000 H   0  0  0  0  0  0  0  0  0  0  0  0
   -4.0016   -5.9983    0.0000 H   0  0  0  0  0  0  0  0  0  0  0  0
   -1.9780   -6.1397    0.0000 H   0  0  0  0  0  0  0  0  0  0  0  0
   -2.6657   -6.9594    0.0000 H   0  0  0  0  0  0  0  0  0  0  0  0
   -4.6949   -5.5622    0.0000 H   0  0  0  0  0  0  0  0  0  0  0  0
    0.5372   -1.2512    0.0000 H   0  0  0  0  0  0  0  0  0  0  0  0
    1.7308   -2.6737    0.0000 H   0  0  0  0  0  0  0  0  0  0  0  0
   -0.7332   -4.7412    0.0000 H   0  0  0  0  0  0  0  0  0  0  0  0
  1  2  2  0  0  0  0
  1  6  1  0  0  0  0
  1 30  1  0  0  0  0
  2  3  1  0  0  0  0
  2  8  1  0  0  0  0
  3  4  2  0  0  0  0
  3 31  1  0  0  0  0
  4  5  1  0  0  0  0
  4 32  1  0  0  0  0
  5  6  2  0  0  0  0
  5  7  1  0  0  0  0
  6 33  1  0  0  0  0
  8  9  2  0  0  0  0
  8 10  2  0  0  0  0
 11  8  1  1  0  0  0
 11 12  1  0  0  0  0
 11 16  1  0  0  0  0
 11 22  1  0  0  0  0
 12 13  1  0  0  0  0
 12 34  1  0  0  0  0
 12 35  1  0  0  0  0
 13 14  1  0  0  0  0
 13 36  1  0  0  0  0
 13 37  1  0  0  0  0
 14 15  1  0  0  0  0
 14 17  1  0  0  0  0
 14 38  1  6  0  0  0
 15 16  1  0  0  0  0
 15 39  1  0  0  0  0
 15 40  1  0  0  0  0
 16 41  1  0  0  0  0
 16 42  1  0  0  0  0
 17 18  1  0  0  0  0
 17 43  1  0  0  0  0
 17 44  1  0  0  0  0
 18 19  1  0  0  0  0
 18 45  1  0  0  0  0
 18 46  1  0  0  0  0
 19 20  2  0  0  0  0
 19 21  1  0  0  0  0
 21 47  1  0  0  0  0
 22 23  2  0  0  0  0
 22 27  1  0  0  0  0
 23 24  1  0  0  0  0
 23 29  1  0  0  0  0
 24 25  2  0  0  0  0
 24 48  1  0  0  0  0
 25 26  1  0  0  0  0
 25 49  1  0  0  0  0
 26 27  2  0  0  0  0
 26 28  1  0  0  0  0
 27 50  1  0  0  0  0
M  END
>  <DRUGBANK_ID>
DB12852

>  <COMMON_NAME>
MK-0752

>  <CAS_NUMBER>
471905-41-6

>  <UNII>
9JD9B4S53T

$$$$
