
 OpenBabel10282417072D

 54 58  0  0  1  0  0  0  0  0999 V2000
   -1.5600   -3.1422    0.0000 C   0  0  0  0  0  0  0  0  0  0  0  0
   -0.7350   -3.1422    0.0000 C   0  0  0  0  0  0  0  0  0  0  0  0
   -0.3225   -2.4277    0.0000 C   0  0  0  0  0  0  0  0  0  0  0  0
    0.5025   -2.4277    0.0000 N   0  0  0  0  0  0  0  0  0  0  0  0
    0.9150   -1.7132    0.0000 C   0  0  0  0  0  0  0  0  0  0  0  0
    1.7400   -1.7132    0.0000 C   0  0  0  0  0  0  0  0  0  0  0  0
    2.1525   -2.4277    0.0000 C   0  0  0  0  0  0  0  0  0  0  0  0
    2.9775   -2.4277    0.0000 O   0  0  0  0  0  0  0  0  0  0  0  0
    1.7400   -3.1422    0.0000 N   0  0  0  0  0  0  0  0  0  0  0  0
    0.9150   -3.1422    0.0000 C   0  0  0  0  0  0  0  0  0  0  0  0
    0.5025   -3.8566    0.0000 O   0  0  0  0  0  0  0  0  0  0  0  0
    2.1525   -3.8566    0.0000 C   0  0  0  0  0  0  0  0  0  0  0  0
    1.7400   -4.5711    0.0000 C   0  0  0  0  0  0  0  0  0  0  0  0
    2.1525   -5.2856    0.0000 C   0  0  0  0  0  0  0  0  0  0  0  0
    1.9949   -0.9286    0.0000 N   0  0  0  0  0  0  0  0  0  0  0  0
    1.3275   -0.4437    0.0000 C   0  0  0  0  0  0  0  0  0  0  0  0
    0.6600   -0.9286    0.0000 N   0  0  0  0  0  0  0  0  0  0  0  0
    1.3275    0.3813    0.0000 C   0  0  3  0  0  0  0  0  0  0  0  0
    0.5515    0.0320    0.0000 C   0  0  0  0  0  0  0  0  0  0  0  0
    0.4608    0.8646    0.0000 C   0  0  2  0  0  0  0  0  0  0  0  0
    1.3275    0.8902    0.0000 C   0  0  0  0  0  0  0  0  0  0  0  0
    2.1941    0.8646    0.0000 C   0  0  2  0  0  0  0  0  0  0  0  0
    2.1034    0.0320    0.0000 C   0  0  0  0  0  0  0  0  0  0  0  0
    2.1286    1.6971    0.0000 C   0  0  0  0  0  0  0  0  0  0  0  0
    1.3275    1.4072    0.0000 C   0  0  3  0  0  0  0  0  0  0  0  0
    0.5263    1.6971    0.0000 C   0  0  0  0  0  0  0  0  0  0  0  0
   -2.0950   -2.2156    0.0000 H   0  0  0  0  0  0  0  0  0  0  0  0
   -2.0950   -4.0688    0.0000 H   0  0  0  0  0  0  0  0  0  0  0  0
   -2.6300   -3.1422    0.0000 H   0  0  0  0  0  0  0  0  0  0  0  0
   -0.2000   -4.0688    0.0000 H   0  0  0  0  0  0  0  0  0  0  0  0
    0.3350   -3.1422    0.0000 H   0  0  0  0  0  0  0  0  0  0  0  0
   -0.8575   -1.5011    0.0000 H   0  0  0  0  0  0  0  0  0  0  0  0
    0.2125   -1.5011    0.0000 H   0  0  0  0  0  0  0  0  0  0  0  0
    3.2225   -3.8566    0.0000 H   0  0  0  0  0  0  0  0  0  0  0  0
    2.6875   -4.7832    0.0000 H   0  0  0  0  0  0  0  0  0  0  0  0
    0.6700   -4.5711    0.0000 H   0  0  0  0  0  0  0  0  0  0  0  0
    1.2050   -5.4977    0.0000 H   0  0  0  0  0  0  0  0  0  0  0  0
    1.6175   -6.2122    0.0000 H   0  0  0  0  0  0  0  0  0  0  0  0
    3.2225   -5.2856    0.0000 H   0  0  0  0  0  0  0  0  0  0  0  0
    2.6875   -6.2123    0.0000 H   0  0  0  0  0  0  0  0  0  0  0  0
    2.9312   -0.6244    0.0000 H   0  0  0  0  0  0  0  0  0  0  0  0
    0.0202   -0.8967    0.0000 H   0  0  0  0  0  0  0  0  0  0  0  0
   -0.4960    0.2504    0.0000 H   0  0  0  0  0  0  0  0  0  0  0  0
    1.2678    0.1620    0.0000 H   0  0  0  0  0  0  0  0  0  0  0  0
    1.3275    1.9602    0.0000 H   0  0  0  0  0  0  0  0  0  0  0  0
    2.0952    1.6355    0.0000 H   0  0  0  0  0  0  0  0  0  0  0  0
    1.3871    0.1620    0.0000 H   0  0  0  0  0  0  0  0  0  0  0  0
    2.6347   -0.8968    0.0000 H   0  0  0  0  0  0  0  0  0  0  0  0
    1.3842   -0.7603    0.0000 H   0  0  0  0  0  0  0  0  0  0  0  0
    2.7083    2.5965    0.0000 H   0  0  0  0  0  0  0  0  0  0  0  0
    1.4618    2.5340    0.0000 H   0  0  0  0  0  0  0  0  0  0  0  0
    2.2034    0.7927    0.0000 H   0  0  0  0  0  0  0  0  0  0  0  0
   -0.0534    2.5965    0.0000 H   0  0  0  0  0  0  0  0  0  0  0  0
   -0.5112    1.4355    0.0000 H   0  0  0  0  0  0  0  0  0  0  0  0
  1  2  1  0  0  0  0
  1 27  1  0  0  0  0
  1 28  1  0  0  0  0
  1 29  1  0  0  0  0
  2  3  1  0  0  0  0
  2 30  1  0  0  0  0
  2 31  1  0  0  0  0
  3  4  1  0  0  0  0
  3 32  1  0  0  0  0
  3 33  1  0  0  0  0
  4  5  1  0  0  0  0
  4 10  1  0  0  0  0
  5  6  2  0  0  0  0
  5 17  1  0  0  0  0
  6  7  1  0  0  0  0
  6 15  1  0  0  0  0
  7  8  2  0  0  0  0
  7  9  1  0  0  0  0
  9 10  1  0  0  0  0
  9 12  1  0  0  0  0
 10 11  2  0  0  0  0
 12 13  1  0  0  0  0
 12 34  1  0  0  0  0
 12 35  1  0  0  0  0
 13 14  1  0  0  0  0
 13 36  1  0  0  0  0
 13 37  1  0  0  0  0
 14 38  1  0  0  0  0
 14 39  1  0  0  0  0
 14 40  1  0  0  0  0
 15 16  1  0  0  0  0
 15 41  1  0  0  0  0
 16 17  2  0  0  0  0
 16 18  1  0  0  0  0
 18 19  1  0  0  0  0
 18 23  1  0  0  0  0
 18 25  1  0  0  0  0
 19 20  1  0  0  0  0
 19 42  1  0  0  0  0
 19 43  1  0  0  0  0
 20 21  1  0  0  0  0
 20 26  1  0  0  0  0
 20 44  1  6  0  0  0
 21 45  1  0  0  0  0
 21 46  1  0  0  0  0
 22 21  1  0  0  0  0
 22 23  1  0  0  0  0
 22 24  1  0  0  0  0
 22 47  1  6  0  0  0
 23 48  1  0  0  0  0
 23 49  1  0  0  0  0
 24 25  1  0  0  0  0
 24 50  1  0  0  0  0
 24 51  1  0  0  0  0
 25 26  1  0  0  0  0
 25 52  1  0  0  0  0
 26 53  1  0  0  0  0
 26 54  1  0  0  0  0
M  END
>  <DRUGBANK_ID>
DB12670

>  <SECONDARY_ACCESSION_NUMBERS>
DB05360

>  <COMMON_NAME>
Rolofylline

>  <CAS_NUMBER>
136199-02-5

>  <UNII>
7805S5HIHX

>  <SYNONYMS>
Rolofylline

$$$$
