IPL
 OpenBabel10282417072D

 31 32  0  0  0  0  0  0  0  0999 V2000
   -2.3251    0.1192    0.0000 N   0  0  0  0  0  0  0  0  0  0  0  0
   -1.7731    0.7323    0.0000 C   0  0  0  0  0  0  0  0  0  0  0  0
   -1.0194    0.3968    0.0000 C   0  0  0  0  0  0  0  0  0  0  0  0
   -0.5536   -1.0368    0.0000 C   0  0  0  0  0  0  0  0  0  0  0  0
   -0.8085   -1.8214    0.0000 C   0  0  0  0  0  0  0  0  0  0  0  0
   -1.6155   -1.9929    0.0000 C   0  0  0  0  0  0  0  0  0  0  0  0
   -2.1675   -1.3798    0.0000 C   0  0  0  0  0  0  0  0  0  0  0  0
   -1.9126   -0.5952    0.0000 C   0  0  0  0  0  0  0  0  0  0  0  0
   -1.1056   -0.4237    0.0000 C   0  0  0  0  0  0  0  0  0  0  0  0
    1.1240    0.8093    0.0000 C   0  0  0  0  0  0  0  0  0  0  0  0
    0.4095    0.3968    0.0000 C   0  0  0  0  0  0  0  0  0  0  0  0
   -0.3049    0.8093    0.0000 C   0  0  0  0  0  0  0  0  0  0  0  0
    2.5530    0.8093    0.0000 P   0  0  0  0  0  0  0  0  0  0  0  0
    3.2674    1.2218    0.0000 O   0  0  0  0  0  0  0  0  0  0  0  0
    2.9655    0.0948    0.0000 O   0  0  0  0  0  0  0  0  0  0  0  0
    2.1405    1.5238    0.0000 O   0  0  0  0  0  0  0  0  0  0  0  0
    1.8385    0.3968    0.0000 O   0  0  0  0  0  0  0  0  0  0  0  0
   -3.3042    0.2221    0.0000 H   0  0  0  0  0  0  0  0  0  0  0  0
   -1.9877    1.7417    0.0000 H   0  0  0  0  0  0  0  0  0  0  0  0
    0.4558   -0.8222    0.0000 H   0  0  0  0  0  0  0  0  0  0  0  0
   -0.1180   -2.5883    0.0000 H   0  0  0  0  0  0  0  0  0  0  0  0
   -1.9344   -2.9744    0.0000 H   0  0  0  0  0  0  0  0  0  0  0  0
   -3.1769   -1.5944    0.0000 H   0  0  0  0  0  0  0  0  0  0  0  0
    1.1240    1.8793    0.0000 H   0  0  0  0  0  0  0  0  0  0  0  0
    2.0506    1.3443    0.0000 H   0  0  0  0  0  0  0  0  0  0  0  0
    0.4095   -0.6732    0.0000 H   0  0  0  0  0  0  0  0  0  0  0  0
   -0.5172   -0.1382    0.0000 H   0  0  0  0  0  0  0  0  0  0  0  0
   -0.3049    1.8793    0.0000 H   0  0  0  0  0  0  0  0  0  0  0  0
    0.6218    1.3443    0.0000 H   0  0  0  0  0  0  0  0  0  0  0  0
    2.4805   -0.7452    0.0000 H   0  0  0  0  0  0  0  0  0  0  0  0
    2.6255    2.3638    0.0000 H   0  0  0  0  0  0  0  0  0  0  0  0
  1  2  1  0  0  0  0
  1  8  1  0  0  0  0
  1 18  1  0  0  0  0
  2  3  2  0  0  0  0
  2 19  1  0  0  0  0
  3  9  1  0  0  0  0
  3 12  1  0  0  0  0
  4  5  2  0  0  0  0
  4  9  1  0  0  0  0
  4 20  1  0  0  0  0
  5  6  1  0  0  0  0
  5 21  1  0  0  0  0
  6  7  2  0  0  0  0
  6 22  1  0  0  0  0
  7  8  1  0  0  0  0
  7 23  1  0  0  0  0
  8  9  2  0  0  0  0
 10 11  1  0  0  0  0
 10 17  1  0  0  0  0
 10 24  1  0  0  0  0
 10 25  1  0  0  0  0
 11 12  1  0  0  0  0
 11 26  1  0  0  0  0
 11 27  1  0  0  0  0
 12 28  1  0  0  0  0
 12 29  1  0  0  0  0
 13 14  2  0  0  0  0
 13 15  1  0  0  0  0
 13 16  1  0  0  0  0
 13 17  1  0  0  0  0
 15 30  1  0  0  0  0
 16 31  1  0  0  0  0
M  END
>  <DRUGBANK_ID>
DB03171

>  <SECONDARY_ACCESSION_NUMBERS>
EXPT01918

>  <COMMON_NAME>
Indole-3-Propanol Phosphate

>  <UNII>
KO9J17S3FI

$$$$
