A55
 OpenBabel10282417072D

 37 39  0  0  0  0  0  0  0  0999 V2000
   -2.0358    2.1650    0.0000 C   0  0  0  0  0  0  0  0  0  0  0  0
   -2.7503    1.7525    0.0000 C   0  0  0  0  0  0  0  0  0  0  0  0
   -2.7503    0.9275    0.0000 C   0  0  0  0  0  0  0  0  0  0  0  0
   -2.0358    0.5150    0.0000 C   0  0  0  0  0  0  0  0  0  0  0  0
   -1.3213    0.9275    0.0000 C   0  0  0  0  0  0  0  0  0  0  0  0
   -1.3213    1.7525    0.0000 C   0  0  0  0  0  0  0  0  0  0  0  0
   -0.6069    2.1650    0.0000 F   0  0  0  0  0  0  0  0  0  0  0  0
   -0.6069    0.5150    0.0000 N   0  0  0  0  0  0  0  0  0  0  0  0
   -0.6069   -0.3100    0.0000 C   0  0  2  0  0  0  0  0  0  0  0  0
   -1.3213   -0.7225    0.0000 N   0  0  0  0  0  0  0  0  0  0  0  0
   -2.0358   -0.3100    0.0000 C   0  0  0  0  0  0  0  0  0  0  0  0
   -2.7503   -0.7225    0.0000 N   0  0  0  0  0  0  0  0  0  0  0  0
    0.1076   -0.7225    0.0000 C   0  0  0  0  0  0  0  0  0  0  0  0
    0.8221   -0.3100    0.0000 C   0  0  0  0  0  0  0  0  0  0  0  0
    1.5365   -0.7225    0.0000 N   0  0  0  0  0  0  0  0  0  0  0  0
    2.2510   -0.3100    0.0000 C   0  0  0  0  0  0  0  0  0  0  0  0
    2.9655   -0.7225    0.0000 C   0  0  0  0  0  0  0  0  0  0  0  0
    3.7192   -0.3870    0.0000 C   0  0  0  0  0  0  0  0  0  0  0  0
    4.2712   -1.0001    0.0000 C   0  0  0  0  0  0  0  0  0  0  0  0
    3.8587   -1.7145    0.0000 O   0  0  0  0  0  0  0  0  0  0  0  0
    3.0517   -1.5430    0.0000 C   0  0  0  0  0  0  0  0  0  0  0  0
    2.2510    0.5150    0.0000 O   0  0  0  0  0  0  0  0  0  0  0  0
   -3.4648    0.5150    0.0000 F   0  0  0  0  0  0  0  0  0  0  0  0
   -0.1012   -0.0181    0.0000 H   0  0  0  0  0  0  0  0  0  0  0  0
   -2.0358    3.1970    0.0000 H   0  0  0  0  0  0  0  0  0  0  0  0
   -3.6440    2.2685    0.0000 H   0  0  0  0  0  0  0  0  0  0  0  0
    0.2457    1.0072    0.0000 H   0  0  0  0  0  0  0  0  0  0  0  0
   -3.6029   -0.2302    0.0000 H   0  0  0  0  0  0  0  0  0  0  0  0
   -2.7503   -1.7070    0.0000 H   0  0  0  0  0  0  0  0  0  0  0  0
    0.1076   -1.7925    0.0000 H   0  0  0  0  0  0  0  0  0  0  0  0
    1.0342   -1.2575    0.0000 H   0  0  0  0  0  0  0  0  0  0  0  0
    0.8221    0.7600    0.0000 H   0  0  0  0  0  0  0  0  0  0  0  0
    1.7488    0.2250    0.0000 H   0  0  0  0  0  0  0  0  0  0  0  0
    1.5365   -1.7070    0.0000 H   0  0  0  0  0  0  0  0  0  0  0  0
    3.9338    0.6224    0.0000 H   0  0  0  0  0  0  0  0  0  0  0  0
    5.2976   -0.8923    0.0000 H   0  0  0  0  0  0  0  0  0  0  0  0
    2.2848   -2.2335    0.0000 H   0  0  0  0  0  0  0  0  0  0  0  0
  1  2  2  0  0  0  0
  1  6  1  0  0  0  0
  1 25  1  0  0  0  0
  2  3  1  0  0  0  0
  2 26  1  0  0  0  0
  3  4  2  0  0  0  0
  3 23  1  0  0  0  0
  4  5  1  0  0  0  0
  4 11  1  0  0  0  0
  5  6  2  0  0  0  0
  5  8  1  0  0  0  0
  6  7  1  0  0  0  0
  8  9  1  0  0  0  0
  8 27  1  0  0  0  0
  9 10  1  0  0  0  0
  9 13  1  0  0  0  0
  9 24  1  6  0  0  0
 10 11  2  0  0  0  0
 11 12  1  0  0  0  0
 12 28  1  0  0  0  0
 12 29  1  0  0  0  0
 13 14  1  0  0  0  0
 13 30  1  0  0  0  0
 13 31  1  0  0  0  0
 14 15  1  0  0  0  0
 14 32  1  0  0  0  0
 14 33  1  0  0  0  0
 15 16  1  0  0  0  0
 15 34  1  0  0  0  0
 16 17  1  0  0  0  0
 16 22  2  0  0  0  0
 17 18  1  0  0  0  0
 17 21  2  0  0  0  0
 18 19  2  0  0  0  0
 18 35  1  0  0  0  0
 19 20  1  0  0  0  0
 19 36  1  0  0  0  0
 20 21  1  0  0  0  0
 21 37  1  0  0  0  0
M  END
>  <DRUGBANK_ID>
DB07318

>  <COMMON_NAME>
N-[2-(4-AMINO-5,8-DIFLUORO-1,2-DIHYDROQUINAZOLIN-2-YL)ETHYL]-3-FURAMIDE

$$$$
