
 OpenBabel10282417072D

  6  4  0  0  0  0  0  0  0  0999 V2000
    0.0000    0.0000    0.0000 Mg  0  2  0  0  0  0  0  0  0  0  0  0
    2.3645    0.8250    0.0000 O   0  5  0  0  0  0  0  0  0  0  0  0
    2.3645   -0.8250    0.0000 O   0  5  0  0  0  0  0  0  0  0  0  0
    3.1895    0.0000    0.0000 O   0  0  0  0  0  0  0  0  0  0  0  0
    2.3645    0.0000    0.0000 S   0  0  0  0  0  0  0  0  0  0  0  0
    1.5395    0.0000    0.0000 O   0  0  0  0  0  0  0  0  0  0  0  0
  2  5  1  0  0  0  0
  5  3  1  0  0  0  0
  5  4  2  0  0  0  0
  5  6  2  0  0  0  0
M  CHG  3   1   2   2  -1   3  -1
M  END
>  <DRUGBANK_ID>
DB00653

>  <SECONDARY_ACCESSION_NUMBERS>
APRD01080

>  <COMMON_NAME>
Magnesium sulfate

>  <CAS_NUMBER>
7487-88-9

>  <UNII>
ML30MJ2U7I

>  <SYNONYMS>
Magnesium sulfate (1:1); Magnesium sulfate anhydrous; Magnesium sulphate; magnesium(II) sulfate; Magnesiumsulfat; MgSO4

$$$$
