998
 OpenBabel10282417072D

 70 72  0  0  0  0  0  0  0  0999 V2000
    0.6950   -2.5507    0.0000 C   0  0  0  0  0  0  0  0  0  0  0  0
    1.5020   -2.3791    0.0000 C   0  0  2  0  0  0  0  0  0  0  0  0
    0.4400   -3.3353    0.0000 C   0  0  0  0  0  0  0  0  0  0  0  0
    0.1429   -1.9376    0.0000 C   0  0  0  0  0  0  0  0  0  0  0  0
    1.7569   -1.5945    0.0000 N   0  0  0  0  0  0  0  0  0  0  0  0
    2.0540   -2.9922    0.0000 C   0  0  0  0  0  0  0  0  0  0  0  0
    0.9921   -3.9484    0.0000 C   0  0  0  0  0  0  0  0  0  0  0  0
   -0.3669   -3.5068    0.0000 C   0  0  0  0  0  0  0  0  0  0  0  0
   -0.6640   -2.1091    0.0000 C   0  0  0  0  0  0  0  0  0  0  0  0
    1.2049   -0.9814    0.0000 C   0  0  0  0  0  0  0  0  0  0  0  0
    1.7990   -3.7769    0.0000 C   0  0  0  0  0  0  0  0  0  0  0  0
   -0.9190   -2.8937    0.0000 C   0  0  0  0  0  0  0  0  0  0  0  0
    1.4598   -0.1968    0.0000 C   0  0  1  0  0  0  0  0  0  0  0  0
    0.3979   -1.1530    0.0000 O   0  0  0  0  0  0  0  0  0  0  0  0
    0.9749    0.4706    0.0000 N   0  0  0  0  0  0  0  0  0  0  0  0
    2.2444    0.0581    0.0000 C   0  0  0  0  0  0  0  0  0  0  0  0
    0.1499    0.4706    0.0000 C   0  0  0  0  0  0  0  0  0  0  0  0
    1.4598    1.1381    0.0000 C   0  0  0  0  0  0  0  0  0  0  0  0
    2.2444    0.8831    0.0000 C   0  0  0  0  0  0  0  0  0  0  0  0
   -0.2626    1.1851    0.0000 C   0  0  1  0  0  0  0  0  0  0  0  0
   -0.2626   -0.2438    0.0000 O   0  0  0  0  0  0  0  0  0  0  0  0
   -1.0876    1.1851    0.0000 N   0  0  0  0  0  0  0  0  0  0  0  0
    0.1499    1.8996    0.0000 C   0  0  0  0  0  0  0  0  0  0  0  0
   -1.5001    1.8996    0.0000 C   0  0  0  0  0  0  0  0  0  0  0  0
    0.8643    1.4871    0.0000 C   0  0  0  0  0  0  0  0  0  0  0  0
   -0.5646    2.3121    0.0000 C   0  0  0  0  0  0  0  0  0  0  0  0
    0.5624    2.6140    0.0000 C   0  0  0  0  0  0  0  0  0  0  0  0
   -2.3251    1.8996    0.0000 C   0  0  1  0  0  0  0  0  0  0  0  0
   -1.0876    2.6140    0.0000 O   0  0  0  0  0  0  0  0  0  0  0  0
   -2.7376    2.6140    0.0000 N   0  0  0  0  0  0  0  0  0  0  0  0
   -2.7376    1.1851    0.0000 C   0  0  0  0  0  0  0  0  0  0  0  0
   -3.5626    2.6140    0.0000 C   0  0  0  0  0  0  0  0  0  0  0  0
    1.1112   -1.9452    0.0000 H   0  0  0  0  0  0  0  0  0  0  0  0
    0.8831   -0.2882    0.0000 H   0  0  0  0  0  0  0  0  0  0  0  0
   -0.5546    0.6794    0.0000 H   0  0  0  0  0  0  0  0  0  0  0  0
   -2.0332    2.4053    0.0000 H   0  0  0  0  0  0  0  0  0  0  0  0
    0.4618   -0.9561    0.0000 H   0  0  0  0  0  0  0  0  0  0  0  0
    2.7199   -1.3898    0.0000 H   0  0  0  0  0  0  0  0  0  0  0  0
    3.1006   -2.7698    0.0000 H   0  0  0  0  0  0  0  0  0  0  0  0
    2.7699   -3.7874    0.0000 H   0  0  0  0  0  0  0  0  0  0  0  0
    0.6615   -4.9660    0.0000 H   0  0  0  0  0  0  0  0  0  0  0  0
    1.7081   -4.7436    0.0000 H   0  0  0  0  0  0  0  0  0  0  0  0
   -0.6858   -4.4883    0.0000 H   0  0  0  0  0  0  0  0  0  0  0  0
   -1.3545   -1.3421    0.0000 H   0  0  0  0  0  0  0  0  0  0  0  0
    2.5149   -4.5721    0.0000 H   0  0  0  0  0  0  0  0  0  0  0  0
    1.4683   -4.7945    0.0000 H   0  0  0  0  0  0  0  0  0  0  0  0
   -1.9285   -3.1083    0.0000 H   0  0  0  0  0  0  0  0  0  0  0  0
    3.1100   -0.5708    0.0000 H   0  0  0  0  0  0  0  0  0  0  0  0
    3.1978    0.5439    0.0000 H   0  0  0  0  0  0  0  0  0  0  0  0
    1.1292    2.1557    0.0000 H   0  0  0  0  0  0  0  0  0  0  0  0
    2.2164    1.8947    0.0000 H   0  0  0  0  0  0  0  0  0  0  0  0
    3.1101    1.5120    0.0000 H   0  0  0  0  0  0  0  0  0  0  0  0
    2.0771    1.9399    0.0000 H   0  0  0  0  0  0  0  0  0  0  0  0
   -1.5799    0.3325    0.0000 H   0  0  0  0  0  0  0  0  0  0  0  0
    0.8643    0.4171    0.0000 H   0  0  0  0  0  0  0  0  0  0  0  0
    1.7910    2.0221    0.0000 H   0  0  0  0  0  0  0  0  0  0  0  0
    1.7909    0.9521    0.0000 H   0  0  0  0  0  0  0  0  0  0  0  0
   -0.5646    3.3821    0.0000 H   0  0  0  0  0  0  0  0  0  0  0  0
   -1.4912    1.7771    0.0000 H   0  0  0  0  0  0  0  0  0  0  0  0
   -1.4913    2.8471    0.0000 H   0  0  0  0  0  0  0  0  0  0  0  0
    1.6324    2.6140    0.0000 H   0  0  0  0  0  0  0  0  0  0  0  0
    0.0274    3.5407    0.0000 H   0  0  0  0  0  0  0  0  0  0  0  0
    1.0974    3.5406    0.0000 H   0  0  0  0  0  0  0  0  0  0  0  0
   -2.2276    3.4974    0.0000 H   0  0  0  0  0  0  0  0  0  0  0  0
   -3.8076    1.1851    0.0000 H   0  0  0  0  0  0  0  0  0  0  0  0
   -2.2026    0.2585    0.0000 H   0  0  0  0  0  0  0  0  0  0  0  0
   -3.2726    0.2584    0.0000 H   0  0  0  0  0  0  0  0  0  0  0  0
   -4.0976    3.5406    0.0000 H   0  0  0  0  0  0  0  0  0  0  0  0
   -4.0976    1.6874    0.0000 H   0  0  0  0  0  0  0  0  0  0  0  0
   -4.6326    2.6140    0.0000 H   0  0  0  0  0  0  0  0  0  0  0  0
  1  2  1  0  0  0  0
  1  3  2  0  0  0  0
  1  4  1  0  0  0  0
  2  5  1  0  0  0  0
  2  6  1  0  0  0  0
  2 33  1  1  0  0  0
  3  7  1  0  0  0  0
  3  8  1  0  0  0  0
  4  9  2  0  0  0  0
  4 37  1  0  0  0  0
  5 10  1  0  0  0  0
  5 38  1  0  0  0  0
  6 11  1  0  0  0  0
  6 39  1  0  0  0  0
  6 40  1  0  0  0  0
  7 11  1  0  0  0  0
  7 41  1  0  0  0  0
  7 42  1  0  0  0  0
  8 12  2  0  0  0  0
  8 43  1  0  0  0  0
  9 12  1  0  0  0  0
  9 44  1  0  0  0  0
 10 14  2  0  0  0  0
 11 45  1  0  0  0  0
 11 46  1  0  0  0  0
 12 47  1  0  0  0  0
 13 10  1  0  0  0  0
 13 15  1  0  0  0  0
 13 16  1  0  0  0  0
 13 34  1  6  0  0  0
 15 17  1  0  0  0  0
 15 18  1  0  0  0  0
 16 19  1  0  0  0  0
 16 48  1  0  0  0  0
 16 49  1  0  0  0  0
 17 20  1  0  0  0  0
 17 21  2  0  0  0  0
 18 19  1  0  0  0  0
 18 50  1  0  0  0  0
 18 51  1  0  0  0  0
 19 52  1  0  0  0  0
 19 53  1  0  0  0  0
 20 22  1  0  0  0  0
 20 23  1  0  0  0  0
 20 35  1  6  0  0  0
 22 24  1  0  0  0  0
 22 54  1  0  0  0  0
 23 25  1  0  0  0  0
 23 26  1  0  0  0  0
 23 27  1  0  0  0  0
 24 28  1  0  0  0  0
 24 29  2  0  0  0  0
 25 55  1  0  0  0  0
 25 56  1  0  0  0  0
 25 57  1  0  0  0  0
 26 58  1  0  0  0  0
 26 59  1  0  0  0  0
 26 60  1  0  0  0  0
 27 61  1  0  0  0  0
 27 62  1  0  0  0  0
 27 63  1  0  0  0  0
 28 30  1  0  0  0  0
 28 31  1  0  0  0  0
 28 36  1  1  0  0  0
 30 32  1  0  0  0  0
 30 64  1  0  0  0  0
 31 65  1  0  0  0  0
 31 66  1  0  0  0  0
 31 67  1  0  0  0  0
 32 68  1  0  0  0  0
 32 69  1  0  0  0  0
 32 70  1  0  0  0  0
M  END
>  <DRUGBANK_ID>
DB02628

>  <SECONDARY_ACCESSION_NUMBERS>
EXPT00351

>  <COMMON_NAME>
1-[3,3-Dimethyl-2-(2-Methylamino-Propionylamino)-Butyryl]-Pyrrolidine-2-Carboxylic Acid(1,2,3,4-Tetrahydro-Naphthalen-1-Yl)-Amide

$$$$
