
 OpenBabel10282417072D

 53 58  0  0  0  0  0  0  0  0999 V2000
    6.0176    9.3571    0.0000 C   0  0  0  0  0  0  0  0  0  0  0  0
    5.3031    8.9446    0.0000 C   0  0  0  0  0  0  0  0  0  0  0  0
    5.2168    8.1241    0.0000 C   0  0  0  0  0  0  0  0  0  0  0  0
    4.4099    7.9526    0.0000 N   0  0  0  0  0  0  0  0  0  0  0  0
    3.9974    7.2381    0.0000 N   0  0  0  0  0  0  0  0  0  0  0  0
    3.1724    7.2381    0.0000 C   0  0  0  0  0  0  0  0  0  0  0  0
    2.7599    7.9526    0.0000 C   0  0  0  0  0  0  0  0  0  0  0  0
    3.1724    8.6671    0.0000 C   0  0  0  0  0  0  0  0  0  0  0  0
    2.7599    9.3816    0.0000 C   0  0  0  0  0  0  0  0  0  0  0  0
    3.9974    8.6671    0.0000 C   0  0  0  0  0  0  0  0  0  0  0  0
    4.5494    9.2802    0.0000 N   0  0  0  0  0  0  0  0  0  0  0  0
    2.7599    6.5237    0.0000 C   0  0  0  0  0  0  0  0  0  0  0  0
    3.1724    5.8092    0.0000 C   0  0  0  0  0  0  0  0  0  0  0  0
    2.7599    5.0947    0.0000 C   0  0  0  0  0  0  0  0  0  0  0  0
    3.1724    4.3803    0.0000 O   0  0  0  0  0  0  0  0  0  0  0  0
    1.9349    5.0947    0.0000 N   0  0  0  0  0  0  0  0  0  0  0  0
    1.5224    4.3803    0.0000 C   0  0  0  0  0  0  0  0  0  0  0  0
    0.6974    4.3803    0.0000 C   0  0  0  0  0  0  0  0  0  0  0  0
    0.2849    5.0947    0.0000 C   0  0  0  0  0  0  0  0  0  0  0  0
    0.6974    5.8092    0.0000 C   0  0  0  0  0  0  0  0  0  0  0  0
    1.5224    5.8092    0.0000 C   0  0  0  0  0  0  0  0  0  0  0  0
    1.9349    6.5237    0.0000 N   0  0  0  0  0  0  0  0  0  0  0  0
    0.2849    3.6658    0.0000 N   0  0  0  0  0  0  0  0  0  0  0  0
    0.6974    2.9513    0.0000 C   0  0  0  0  0  0  0  0  0  0  0  0
    0.2849    2.2368    0.0000 C   0  0  0  0  0  0  0  0  0  0  0  0
   -0.5401    2.2368    0.0000 N   0  0  0  0  0  0  0  0  0  0  0  0
   -0.9526    2.9513    0.0000 C   0  0  0  0  0  0  0  0  0  0  0  0
   -1.6671    2.5388    0.0000 C   0  0  0  0  0  0  0  0  0  0  0  0
   -1.6671    3.3638    0.0000 C   0  0  0  0  0  0  0  0  0  0  0  0
   -0.5401    3.6658    0.0000 C   0  0  0  0  0  0  0  0  0  0  0  0
    6.9442    8.8221    0.0000 H   0  0  0  0  0  0  0  0  0  0  0  0
    6.0176   10.4271    0.0000 H   0  0  0  0  0  0  0  0  0  0  0  0
    6.9443    9.8921    0.0000 H   0  0  0  0  0  0  0  0  0  0  0  0
    5.9837    7.4335    0.0000 H   0  0  0  0  0  0  0  0  0  0  0  0
    1.7279    7.9526    0.0000 H   0  0  0  0  0  0  0  0  0  0  0  0
    3.2949   10.3082    0.0000 H   0  0  0  0  0  0  0  0  0  0  0  0
    1.6899    9.3816    0.0000 H   0  0  0  0  0  0  0  0  0  0  0  0
    2.2249   10.3083    0.0000 H   0  0  0  0  0  0  0  0  0  0  0  0
    4.2044    5.8092    0.0000 H   0  0  0  0  0  0  0  0  0  0  0  0
    2.0384    3.4866    0.0000 H   0  0  0  0  0  0  0  0  0  0  0  0
   -0.7471    5.0947    0.0000 H   0  0  0  0  0  0  0  0  0  0  0  0
    0.1814    6.7029    0.0000 H   0  0  0  0  0  0  0  0  0  0  0  0
    1.7674    2.9513    0.0000 H   0  0  0  0  0  0  0  0  0  0  0  0
    1.2324    2.0247    0.0000 H   0  0  0  0  0  0  0  0  0  0  0  0
    0.8199    1.3102    0.0000 H   0  0  0  0  0  0  0  0  0  0  0  0
   -0.2501    1.3102    0.0000 H   0  0  0  0  0  0  0  0  0  0  0  0
   -1.0501    1.3535    0.0000 H   0  0  0  0  0  0  0  0  0  0  0  0
   -2.2021    1.6122    0.0000 H   0  0  0  0  0  0  0  0  0  0  0  0
   -2.7006    2.8157    0.0000 H   0  0  0  0  0  0  0  0  0  0  0  0
   -2.2021    4.2904    0.0000 H   0  0  0  0  0  0  0  0  0  0  0  0
   -0.9105    4.1204    0.0000 H   0  0  0  0  0  0  0  0  0  0  0  0
   -1.0751    4.5924    0.0000 H   0  0  0  0  0  0  0  0  0  0  0  0
   -0.0051    4.5924    0.0000 H   0  0  0  0  0  0  0  0  0  0  0  0
  1  2  1  0  0  0  0
  1 31  1  0  0  0  0
  1 32  1  0  0  0  0
  1 33  1  0  0  0  0
  2  3  2  0  0  0  0
  2 11  1  0  0  0  0
  3  4  1  0  0  0  0
  3 34  1  0  0  0  0
  4  5  1  0  0  0  0
  4 10  1  0  0  0  0
  5  6  2  0  0  0  0
  6  7  1  0  0  0  0
  6 12  1  0  0  0  0
  7  8  2  0  0  0  0
  7 35  1  0  0  0  0
  8  9  1  0  0  0  0
  8 10  1  0  0  0  0
  9 36  1  0  0  0  0
  9 37  1  0  0  0  0
  9 38  1  0  0  0  0
 10 11  2  0  0  0  0
 12 13  2  0  0  0  0
 12 22  1  0  0  0  0
 13 14  1  0  0  0  0
 13 39  1  0  0  0  0
 14 15  2  0  0  0  0
 14 16  1  0  0  0  0
 16 17  1  0  0  0  0
 16 21  1  0  0  0  0
 17 18  2  0  0  0  0
 17 40  1  0  0  0  0
 18 19  1  0  0  0  0
 18 23  1  0  0  0  0
 19 20  2  0  0  0  0
 19 41  1  0  0  0  0
 20 21  1  0  0  0  0
 20 42  1  0  0  0  0
 21 22  2  0  0  0  0
 23 24  1  0  0  0  0
 23 30  1  0  0  0  0
 24 25  1  0  0  0  0
 24 43  1  0  0  0  0
 24 44  1  0  0  0  0
 25 26  1  0  0  0  0
 25 45  1  0  0  0  0
 25 46  1  0  0  0  0
 26 27  1  0  0  0  0
 26 47  1  0  0  0  0
 27 28  1  0  0  0  0
 27 29  1  0  0  0  0
 27 30  1  0  0  0  0
 28 29  1  0  0  0  0
 28 48  1  0  0  0  0
 28 49  1  0  0  0  0
 29 50  1  0  0  0  0
 29 51  1  0  0  0  0
 30 52  1  0  0  0  0
 30 53  1  0  0  0  0
M  END
>  <DRUGBANK_ID>
DB15305

>  <COMMON_NAME>
Risdiplam

>  <CAS_NUMBER>
1825352-65-5

>  <UNII>
76RS4S2ET1

>  <SYNONYMS>
Risdiplam; Risdiplamum

$$$$
