991
 OpenBabel10282417072D

 37 39  0  0  0  0  0  0  0  0999 V2000
    3.9298    0.2443    0.0000 O   0  0  0  0  0  0  0  0  0  0  0  0
    2.8061    3.0865    0.0000 O   0  0  0  0  0  0  0  0  0  0  0  0
    1.6500    2.2466    0.0000 O   0  0  0  0  0  0  0  0  0  0  0  0
    2.8498   -0.5404    0.0000 N   0  0  0  0  0  0  0  0  0  0  0  0
    4.1848   -0.5404    0.0000 C   0  0  0  0  0  0  0  0  0  0  0  0
    3.5173   -1.0253    0.0000 C   0  0  0  0  0  0  0  0  0  0  0  0
    3.1048    0.2443    0.0000 C   0  0  0  0  0  0  0  0  0  0  0  0
    2.6199    0.9117    0.0000 C   0  0  0  0  0  0  0  0  0  0  0  0
    4.9693   -0.7953    0.0000 C   0  0  0  0  0  0  0  0  0  0  0  0
    3.5173   -1.8503    0.0000 C   0  0  0  0  0  0  0  0  0  0  0  0
    2.9554    1.6654    0.0000 C   0  0  0  0  0  0  0  0  0  0  0  0
    5.5825   -0.2433    0.0000 C   0  0  0  0  0  0  0  0  0  0  0  0
    5.1408   -1.6023    0.0000 C   0  0  0  0  0  0  0  0  0  0  0  0
    4.2318   -2.2628    0.0000 C   0  0  0  0  0  0  0  0  0  0  0  0
    2.8028   -2.2628    0.0000 C   0  0  0  0  0  0  0  0  0  0  0  0
    6.3671   -0.4982    0.0000 C   0  0  0  0  0  0  0  0  0  0  0  0
    5.9255   -1.8572    0.0000 C   0  0  0  0  0  0  0  0  0  0  0  0
    4.2318   -3.0878    0.0000 C   0  0  0  0  0  0  0  0  0  0  0  0
    2.8028   -3.0878    0.0000 C   0  0  0  0  0  0  0  0  0  0  0  0
    2.4705    2.3328    0.0000 C   0  0  0  0  0  0  0  0  0  0  0  0
    6.5386   -1.3052    0.0000 C   0  0  0  0  0  0  0  0  0  0  0  0
    3.5173   -3.5003    0.0000 C   0  0  0  0  0  0  0  0  0  0  0  0
    3.7380    3.1844    0.0000 H   0  0  0  0  0  0  0  0  0  0  0  0
    1.5558    0.7998    0.0000 H   0  0  0  0  0  0  0  0  0  0  0  0
    1.9909    1.7773    0.0000 H   0  0  0  0  0  0  0  0  0  0  0  0
    4.0195    1.7773    0.0000 H   0  0  0  0  0  0  0  0  0  0  0  0
    3.3906    2.6429    0.0000 H   0  0  0  0  0  0  0  0  0  0  0  0
    5.3680    0.7662    0.0000 H   0  0  0  0  0  0  0  0  0  0  0  0
    4.3739   -2.2929    0.0000 H   0  0  0  0  0  0  0  0  0  0  0  0
    5.1255   -1.7468    0.0000 H   0  0  0  0  0  0  0  0  0  0  0  0
    1.9091   -1.7468    0.0000 H   0  0  0  0  0  0  0  0  0  0  0  0
    7.1340    0.1923    0.0000 H   0  0  0  0  0  0  0  0  0  0  0  0
    6.1401   -2.8666    0.0000 H   0  0  0  0  0  0  0  0  0  0  0  0
    5.1255   -3.6038    0.0000 H   0  0  0  0  0  0  0  0  0  0  0  0
    1.9091   -3.6038    0.0000 H   0  0  0  0  0  0  0  0  0  0  0  0
    7.5201   -1.6241    0.0000 H   0  0  0  0  0  0  0  0  0  0  0  0
    3.5173   -4.5323    0.0000 H   0  0  0  0  0  0  0  0  0  0  0  0
  1  5  1  0  0  0  0
  1  7  1  0  0  0  0
  2 20  1  0  0  0  0
  2 23  1  0  0  0  0
  3 20  2  0  0  0  0
  4  6  1  0  0  0  0
  4  7  2  0  0  0  0
  5  6  2  0  0  0  0
  5  9  1  0  0  0  0
  6 10  1  0  0  0  0
  7  8  1  0  0  0  0
  8 11  1  0  0  0  0
  8 24  1  0  0  0  0
  8 25  1  0  0  0  0
  9 12  2  0  0  0  0
  9 13  1  0  0  0  0
 10 14  2  0  0  0  0
 10 15  1  0  0  0  0
 11 20  1  0  0  0  0
 11 26  1  0  0  0  0
 11 27  1  0  0  0  0
 12 16  1  0  0  0  0
 12 28  1  0  0  0  0
 13 17  2  0  0  0  0
 13 29  1  0  0  0  0
 14 18  1  0  0  0  0
 14 30  1  0  0  0  0
 15 19  2  0  0  0  0
 15 31  1  0  0  0  0
 16 21  2  0  0  0  0
 16 32  1  0  0  0  0
 17 21  1  0  0  0  0
 17 33  1  0  0  0  0
 18 22  2  0  0  0  0
 18 34  1  0  0  0  0
 19 22  1  0  0  0  0
 19 35  1  0  0  0  0
 21 36  1  0  0  0  0
 22 37  1  0  0  0  0
M  END
>  <DRUGBANK_ID>
DB00991

>  <SECONDARY_ACCESSION_NUMBERS>
APRD00030

>  <COMMON_NAME>
Oxaprozin

>  <CAS_NUMBER>
21256-18-8

>  <UNII>
MHJ80W9LRB

>  <SYNONYMS>
Oxaprozin; Oxaprozina; Oxaprozine; Oxaprozinum

$$$$
