123
 OpenBabel10282417072D

 36 38  0  0  0  0  0  0  0  0999 V2000
    2.1602    0.4482    0.0000 C   0  0  0  0  0  0  0  0  0  0  0  0
    2.1602   -0.3768    0.0000 C   0  0  0  0  0  0  0  0  0  0  0  0
    1.4458   -0.7893    0.0000 C   0  0  0  0  0  0  0  0  0  0  0  0
    0.7313   -0.3768    0.0000 C   0  0  0  0  0  0  0  0  0  0  0  0
    0.7313    0.4482    0.0000 C   0  0  0  0  0  0  0  0  0  0  0  0
    1.4458    0.8607    0.0000 C   0  0  0  0  0  0  0  0  0  0  0  0
    2.8747    0.8607    0.0000 C   0  0  0  0  0  0  0  0  0  0  0  0
    3.5892    0.4482    0.0000 N   0  0  0  0  0  0  0  0  0  0  0  0
    2.8747    1.6857    0.0000 N   0  3  0  0  0  0  0  0  0  0  0  0
   -0.0533   -0.6317    0.0000 N   0  0  0  0  0  0  0  0  0  0  0  0
   -0.0533    0.7032    0.0000 N   0  0  0  0  0  0  0  0  0  0  0  0
   -0.5383    0.0357    0.0000 C   0  0  0  0  0  0  0  0  0  0  0  0
   -1.3633    0.0357    0.0000 C   0  0  0  0  0  0  0  0  0  0  0  0
   -1.7758   -0.6787    0.0000 C   0  0  0  0  0  0  0  0  0  0  0  0
   -2.6008   -0.6787    0.0000 C   0  0  0  0  0  0  0  0  0  0  0  0
   -3.0133   -1.3932    0.0000 O   0  0  0  0  0  0  0  0  0  0  0  0
   -2.6008   -2.1077    0.0000 C   0  0  0  0  0  0  0  0  0  0  0  0
   -3.0133    0.0357    0.0000 C   0  0  0  0  0  0  0  0  0  0  0  0
   -2.6008    0.7502    0.0000 C   0  0  0  0  0  0  0  0  0  0  0  0
   -1.7758    0.7502    0.0000 C   0  0  0  0  0  0  0  0  0  0  0  0
   -1.3633    1.4647    0.0000 O   0  0  0  0  0  0  0  0  0  0  0  0
    3.0539   -0.8928    0.0000 H   0  0  0  0  0  0  0  0  0  0  0  0
    1.4458   -1.8213    0.0000 H   0  0  0  0  0  0  0  0  0  0  0  0
    1.4458    1.8927    0.0000 H   0  0  0  0  0  0  0  0  0  0  0  0
    3.5892   -0.5363    0.0000 H   0  0  0  0  0  0  0  0  0  0  0  0
    4.4418    0.9405    0.0000 H   0  0  0  0  0  0  0  0  0  0  0  0
    3.7273    2.1780    0.0000 H   0  0  0  0  0  0  0  0  0  0  0  0
    2.0221    2.1780    0.0000 H   0  0  0  0  0  0  0  0  0  0  0  0
   -0.3575   -1.5680    0.0000 H   0  0  0  0  0  0  0  0  0  0  0  0
   -1.2598   -1.5724    0.0000 H   0  0  0  0  0  0  0  0  0  0  0  0
   -3.1358   -3.0343    0.0000 H   0  0  0  0  0  0  0  0  0  0  0  0
   -1.5308   -2.1077    0.0000 H   0  0  0  0  0  0  0  0  0  0  0  0
   -2.0658   -3.0344    0.0000 H   0  0  0  0  0  0  0  0  0  0  0  0
   -4.0453    0.0357    0.0000 H   0  0  0  0  0  0  0  0  0  0  0  0
   -3.1168    1.6439    0.0000 H   0  0  0  0  0  0  0  0  0  0  0  0
   -0.4263    1.4647    0.0000 H   0  0  0  0  0  0  0  0  0  0  0  0
  1  2  1  0  0  0  0
  1  6  2  0  0  0  0
  1  7  1  0  0  0  0
  2  3  2  0  0  0  0
  2 22  1  0  0  0  0
  3  4  1  0  0  0  0
  3 23  1  0  0  0  0
  4  5  2  0  0  0  0
  4 10  1  0  0  0  0
  5  6  1  0  0  0  0
  5 11  1  0  0  0  0
  6 24  1  0  0  0  0
  7  8  1  0  0  0  0
  7  9  2  0  0  0  0
  8 25  1  0  0  0  0
  8 26  1  0  0  0  0
  9 27  1  0  0  0  0
  9 28  1  0  0  0  0
 10 12  1  0  0  0  0
 10 29  1  0  0  0  0
 11 12  2  0  0  0  0
 12 13  1  0  0  0  0
 13 14  2  0  0  0  0
 13 20  1  0  0  0  0
 14 15  1  0  0  0  0
 14 30  1  0  0  0  0
 15 16  1  0  0  0  0
 15 18  2  0  0  0  0
 16 17  1  0  0  0  0
 17 31  1  0  0  0  0
 17 32  1  0  0  0  0
 17 33  1  0  0  0  0
 18 19  1  0  0  0  0
 18 34  1  0  0  0  0
 19 20  2  0  0  0  0
 19 35  1  0  0  0  0
 20 21  1  0  0  0  0
 21 36  1  0  0  0  0
M  CHG  1   9   1
M  END
>  <DRUGBANK_ID>
DB01905

>  <SECONDARY_ACCESSION_NUMBERS>
EXPT00017

>  <COMMON_NAME>
2-(2-Hydroxy-5-Methoxy-Phenyl)-1h-Benzoimidazole-5-Carboxamidine

$$$$
