
 OpenBabel10282417072D

168168  0  0  0  0  0  0  0  0999 V2000
    0.7423    4.9732    0.0000 N   0  0  0  0  0  0  0  0  0  0  0  0
   -0.0635    5.1504    0.0000 C   0  0  0  0  0  0  0  0  0  0  0  0
   -0.6198    4.5412    0.0000 C   0  0  2  0  0  0  0  0  0  0  0  0
   -0.3129    5.9368    0.0000 O   0  0  0  0  0  0  0  0  0  0  0  0
   -1.4256    4.7184    0.0000 C   0  0  0  0  0  0  0  0  0  0  0  0
   -0.3704    3.7548    0.0000 O   0  0  0  0  0  0  0  0  0  0  0  0
   -0.9268    3.1456    0.0000 C   0  0  0  0  0  0  0  0  0  0  0  0
   -0.6774    2.3592    0.0000 C   0  0  1  0  0  0  0  0  0  0  0  0
   -1.7325    3.3228    0.0000 O   0  0  0  0  0  0  0  0  0  0  0  0
   -1.4830    2.5364    0.0000 C   0  0  0  0  0  0  0  0  0  0  0  0
   -2.0395    1.9272    0.0000 C   0  0  0  0  0  0  0  0  0  0  0  0
   -2.1471    3.0260    0.0000 C   0  0  0  0  0  0  0  0  0  0  0  0
   -1.2337    1.7500    0.0000 N   0  0  0  0  0  0  0  0  0  0  0  0
   -0.9843    0.9635    0.0000 C   0  0  0  0  0  0  0  0  0  0  0  0
   -1.5407    0.3544    0.0000 C   0  0  1  0  0  0  0  0  0  0  0  0
   -0.1786    0.7863    0.0000 O   0  0  0  0  0  0  0  0  0  0  0  0
   -2.3464    0.5317    0.0000 C   0  0  0  0  0  0  0  0  0  0  0  0
   -1.2913   -0.4319    0.0000 O   0  0  0  0  0  0  0  0  0  0  0  0
   -2.5958    1.3181    0.0000 C   0  0  0  0  0  0  0  0  0  0  0  0
   -2.9027   -0.0774    0.0000 C   0  0  0  0  0  0  0  0  0  0  0  0
    1.2986    5.5823    0.0000 C   0  0  2  0  0  0  0  0  0  0  0  0
    2.1044    5.4051    0.0000 C   0  0  0  0  0  0  0  0  0  0  0  0
    1.0492    6.3687    0.0000 C   0  0  0  0  0  0  0  0  0  0  0  0
    1.6056    6.9779    0.0000 C   0  0  0  0  0  0  0  0  0  0  0  0
    0.2434    6.5460    0.0000 C   0  0  0  0  0  0  0  0  0  0  0  0
    2.6606    6.0143    0.0000 O   0  0  0  0  0  0  0  0  0  0  0  0
    2.3538    4.6186    0.0000 O   0  0  0  0  0  0  0  0  0  0  0  0
    1.7974    4.0095    0.0000 C   0  0  2  0  0  0  0  0  0  0  0  0
    2.6031    3.8323    0.0000 C   0  0  0  0  0  0  0  0  0  0  0  0
    2.0468    3.2231    0.0000 C   0  0  0  0  0  0  0  0  0  0  0  0
    2.8524    3.0459    0.0000 O   0  0  0  0  0  0  0  0  0  0  0  0
    1.4904    2.6140    0.0000 N   0  0  0  0  0  0  0  0  0  0  0  0
    3.2672    3.3427    0.0000 C   0  0  0  0  0  0  0  0  0  0  0  0
    3.1595    4.4415    0.0000 C   0  0  0  0  0  0  0  0  0  0  0  0
    1.7398    1.8276    0.0000 C   0  0  2  0  0  0  0  0  0  0  0  0
    2.5456    1.6503    0.0000 C   0  0  0  0  0  0  0  0  0  0  0  0
    1.1834    1.2184    0.0000 C   0  0  0  0  0  0  0  0  0  0  0  0
    0.3777    1.3956    0.0000 O   0  0  0  0  0  0  0  0  0  0  0  0
    1.4329    0.4320    0.0000 O   0  0  0  0  0  0  0  0  0  0  0  0
    2.7950    0.8639    0.0000 C   0  0  0  0  0  0  0  0  0  0  0  0
    3.1019    2.2595    0.0000 C   0  0  0  0  0  0  0  0  0  0  0  0
    0.8766   -0.1772    0.0000 C   0  0  2  0  0  0  0  0  0  0  0  0
    1.1259   -0.9635    0.0000 C   0  0  0  0  0  0  0  0  0  0  0  0
    1.9317   -1.1408    0.0000 O   0  0  0  0  0  0  0  0  0  0  0  0
    0.5695   -1.5727    0.0000 N   0  0  0  0  0  0  0  0  0  0  0  0
    0.8189   -2.3591    0.0000 C   0  0  2  0  0  0  0  0  0  0  0  0
    0.2626   -2.9684    0.0000 C   0  0  0  0  0  0  0  0  0  0  0  0
    1.6248   -2.5364    0.0000 C   0  0  0  0  0  0  0  0  0  0  0  0
    2.1810   -1.9271    0.0000 C   0  0  0  0  0  0  0  0  0  0  0  0
    0.0707    0.0000    0.0000 C   0  0  0  0  0  0  0  0  0  0  0  0
   -0.5431   -2.7911    0.0000 O   0  0  0  0  0  0  0  0  0  0  0  0
    1.8741   -3.3227    0.0000 C   0  0  0  0  0  0  0  0  0  0  0  0
    0.5120   -3.7548    0.0000 O   0  0  0  0  0  0  0  0  0  0  0  0
   -0.0443   -4.3640    0.0000 C   0  0  2  0  0  0  0  0  0  0  0  0
    0.7614   -4.5412    0.0000 C   0  0  0  0  0  0  0  0  0  0  0  0
    0.2050   -5.1504    0.0000 C   0  0  0  0  0  0  0  0  0  0  0  0
    1.0109   -5.3275    0.0000 O   0  0  0  0  0  0  0  0  0  0  0  0
   -0.3512   -5.7595    0.0000 N   0  0  0  0  0  0  0  0  0  0  0  0
   -1.1570   -5.5823    0.0000 C   0  0  2  0  0  0  0  0  0  0  0  0
   -1.7133   -6.1915    0.0000 C   0  0  0  0  0  0  0  0  0  0  0  0
   -1.4064   -4.7959    0.0000 C   0  0  0  0  0  0  0  0  0  0  0  0
   -0.8500   -4.1866    0.0000 O   0  0  0  0  0  0  0  0  0  0  0  0
   -2.2121   -4.6186    0.0000 O   0  0  0  0  0  0  0  0  0  0  0  0
   -2.5191   -6.0142    0.0000 C   0  0  0  0  0  0  0  0  0  0  0  0
   -1.4639   -6.9779    0.0000 C   0  0  0  0  0  0  0  0  0  0  0  0
    1.4255   -5.0308    0.0000 C   0  0  0  0  0  0  0  0  0  0  0  0
    1.3177   -3.9320    0.0000 C   0  0  0  0  0  0  0  0  0  0  0  0
   -1.8476   -1.0410    0.0000 C   0  0  0  0  0  0  0  0  0  0  0  0
   -2.6533   -0.8638    0.0000 O   0  0  0  0  0  0  0  0  0  0  0  0
   -1.5982   -1.8275    0.0000 C   0  0  2  0  0  0  0  0  0  0  0  0
   -2.4040   -1.6503    0.0000 C   0  0  0  0  0  0  0  0  0  0  0  0
   -2.1546   -2.4366    0.0000 N   0  0  0  0  0  0  0  0  0  0  0  0
   -2.9603   -2.2594    0.0000 C   0  0  0  0  0  0  0  0  0  0  0  0
   -3.0680   -1.1606    0.0000 C   0  0  0  0  0  0  0  0  0  0  0  0
   -1.9052   -3.2230    0.0000 C   0  0  0  0  0  0  0  0  0  0  0  0
   -2.4615   -3.8322    0.0000 C   0  0  2  0  0  0  0  0  0  0  0  0
   -1.0994   -3.4003    0.0000 O   0  0  0  0  0  0  0  0  0  0  0  0
   -3.2672   -3.6550    0.0000 C   0  0  0  0  0  0  0  0  0  0  0  0
    1.0399    4.0348    0.0000 H   0  0  0  0  0  0  0  0  0  0  0  0
   -0.9433    5.5611    0.0000 H   0  0  0  0  0  0  0  0  0  0  0  0
   -1.7491    5.7383    0.0000 H   0  0  0  0  0  0  0  0  0  0  0  0
   -2.1471    3.9283    0.0000 H   0  0  0  0  0  0  0  0  0  0  0  0
   -2.4706    4.9482    0.0000 H   0  0  0  0  0  0  0  0  0  0  0  0
   -1.6973    2.0357    0.0000 H   0  0  0  0  0  0  0  0  0  0  0  0
   -1.0409    3.5108    0.0000 H   0  0  0  0  0  0  0  0  0  0  0  0
   -3.0845    2.1572    0.0000 H   0  0  0  0  0  0  0  0  0  0  0  0
   -1.7162    0.9072    0.0000 H   0  0  0  0  0  0  0  0  0  0  0  0
   -2.7612    1.1372    0.0000 H   0  0  0  0  0  0  0  0  0  0  0  0
   -2.0278    4.0893    0.0000 H   0  0  0  0  0  0  0  0  0  0  0  0
   -3.1276    2.5976    0.0000 H   0  0  0  0  0  0  0  0  0  0  0  0
   -3.0083    3.6609    0.0000 H   0  0  0  0  0  0  0  0  0  0  0  0
   -2.1952    1.9615    0.0000 H   0  0  0  0  0  0  0  0  0  0  0  0
   -1.8640    1.3744    0.0000 H   0  0  0  0  0  0  0  0  0  0  0  0
   -1.6248    1.3218    0.0000 H   0  0  0  0  0  0  0  0  0  0  0  0
   -1.8742    2.1082    0.0000 H   0  0  0  0  0  0  0  0  0  0  0  0
   -3.6408    1.5479    0.0000 H   0  0  0  0  0  0  0  0  0  0  0  0
   -2.9193    2.3380    0.0000 H   0  0  0  0  0  0  0  0  0  0  0  0
   -3.9477    0.1525    0.0000 H   0  0  0  0  0  0  0  0  0  0  0  0
   -2.5793   -1.0973    0.0000 H   0  0  0  0  0  0  0  0  0  0  0  0
   -3.6243   -0.8675    0.0000 H   0  0  0  0  0  0  0  0  0  0  0  0
    0.2536    5.8122    0.0000 H   0  0  0  0  0  0  0  0  0  0  0  0
    0.7258    7.3887    0.0000 H   0  0  0  0  0  0  0  0  0  0  0  0
    2.6506    6.7480    0.0000 H   0  0  0  0  0  0  0  0  0  0  0  0
    1.2822    7.9978    0.0000 H   0  0  0  0  0  0  0  0  0  0  0  0
    2.3272    7.7680    0.0000 H   0  0  0  0  0  0  0  0  0  0  0  0
   -0.0800    7.5660    0.0000 H   0  0  0  0  0  0  0  0  0  0  0  0
   -0.4782    5.7560    0.0000 H   0  0  0  0  0  0  0  0  0  0  0  0
   -0.8016    6.7759    0.0000 H   0  0  0  0  0  0  0  0  0  0  0  0
    2.8174    4.3329    0.0000 H   0  0  0  0  0  0  0  0  0  0  0  0
    3.6680    3.9367    0.0000 H   0  0  0  0  0  0  0  0  0  0  0  0
    0.5289    2.8255    0.0000 H   0  0  0  0  0  0  0  0  0  0  0  0
    3.1479    2.2794    0.0000 H   0  0  0  0  0  0  0  0  0  0  0  0
    4.2477    3.7711    0.0000 H   0  0  0  0  0  0  0  0  0  0  0  0
    4.1284    2.7078    0.0000 H   0  0  0  0  0  0  0  0  0  0  0  0
    4.2045    4.2116    0.0000 H   0  0  0  0  0  0  0  0  0  0  0  0
    2.8361    5.4614    0.0000 H   0  0  0  0  0  0  0  0  0  0  0  0
    3.8811    5.2316    0.0000 H   0  0  0  0  0  0  0  0  0  0  0  0
    2.4614    2.6177    0.0000 H   0  0  0  0  0  0  0  0  0  0  0  0
    2.2222    2.6702    0.0000 H   0  0  0  0  0  0  0  0  0  0  0  0
    2.0734    0.0738    0.0000 H   0  0  0  0  0  0  0  0  0  0  0  0
    3.8400    0.6341    0.0000 H   0  0  0  0  0  0  0  0  0  0  0  0
    3.1185   -0.1560    0.0000 H   0  0  0  0  0  0  0  0  0  0  0  0
    4.1469    2.0297    0.0000 H   0  0  0  0  0  0  0  0  0  0  0  0
    2.7784    3.2794    0.0000 H   0  0  0  0  0  0  0  0  0  0  0  0
    3.8234    3.0496    0.0000 H   0  0  0  0  0  0  0  0  0  0  0  0
    0.5531    0.8427    0.0000 H   0  0  0  0  0  0  0  0  0  0  0  0
   -0.3920   -1.3612    0.0000 H   0  0  0  0  0  0  0  0  0  0  0  0
    1.5405   -1.5690    0.0000 H   0  0  0  0  0  0  0  0  0  0  0  0
    2.6698   -2.7662    0.0000 H   0  0  0  0  0  0  0  0  0  0  0  0
    3.2261   -2.1567    0.0000 H   0  0  0  0  0  0  0  0  0  0  0  0
    1.8573   -0.9072    0.0000 H   0  0  0  0  0  0  0  0  0  0  0  0
    2.9024   -1.1368    0.0000 H   0  0  0  0  0  0  0  0  0  0  0  0
   -0.2528    1.0199    0.0000 H   0  0  0  0  0  0  0  0  0  0  0  0
   -0.6508   -0.7901    0.0000 H   0  0  0  0  0  0  0  0  0  0  0  0
   -0.9743    0.2298    0.0000 H   0  0  0  0  0  0  0  0  0  0  0  0
    1.1525   -4.1127    0.0000 H   0  0  0  0  0  0  0  0  0  0  0  0
    2.9191   -3.5526    0.0000 H   0  0  0  0  0  0  0  0  0  0  0  0
    2.1975   -4.3427    0.0000 H   0  0  0  0  0  0  0  0  0  0  0  0
    0.9756   -4.0405    0.0000 H   0  0  0  0  0  0  0  0  0  0  0  0
    1.8263   -4.4368    0.0000 H   0  0  0  0  0  0  0  0  0  0  0  0
   -0.0535   -6.6979    0.0000 H   0  0  0  0  0  0  0  0  0  0  0  0
   -0.8335   -6.6022    0.0000 H   0  0  0  0  0  0  0  0  0  0  0  0
   -2.4349   -6.9816    0.0000 H   0  0  0  0  0  0  0  0  0  0  0  0
   -2.8425   -4.9942    0.0000 H   0  0  0  0  0  0  0  0  0  0  0  0
   -3.2407   -6.8042    0.0000 H   0  0  0  0  0  0  0  0  0  0  0  0
   -3.5641   -5.7843    0.0000 H   0  0  0  0  0  0  0  0  0  0  0  0
   -2.1855   -7.7680    0.0000 H   0  0  0  0  0  0  0  0  0  0  0  0
   -0.4189   -7.2077    0.0000 H   0  0  0  0  0  0  0  0  0  0  0  0
   -1.1404   -7.9978    0.0000 H   0  0  0  0  0  0  0  0  0  0  0  0
    1.3062   -6.0941    0.0000 H   0  0  0  0  0  0  0  0  0  0  0  0
    2.4060   -4.6024    0.0000 H   0  0  0  0  0  0  0  0  0  0  0  0
    2.2867   -5.6657    0.0000 H   0  0  0  0  0  0  0  0  0  0  0  0
    2.3627   -4.1618    0.0000 H   0  0  0  0  0  0  0  0  0  0  0  0
    0.9942   -2.9121    0.0000 H   0  0  0  0  0  0  0  0  0  0  0  0
    2.0392   -3.1419    0.0000 H   0  0  0  0  0  0  0  0  0  0  0  0
   -2.3883   -1.1059    0.0000 H   0  0  0  0  0  0  0  0  0  0  0  0
   -3.4689   -1.7546    0.0000 H   0  0  0  0  0  0  0  0  0  0  0  0
   -3.1161   -2.2251    0.0000 H   0  0  0  0  0  0  0  0  0  0  0  0
   -4.0053   -2.0295    0.0000 H   0  0  0  0  0  0  0  0  0  0  0  0
   -2.6369   -3.2793    0.0000 H   0  0  0  0  0  0  0  0  0  0  0  0
   -3.6819   -3.0495    0.0000 H   0  0  0  0  0  0  0  0  0  0  0  0
   -2.9486   -0.0973    0.0000 H   0  0  0  0  0  0  0  0  0  0  0  0
   -4.0486   -1.5888    0.0000 H   0  0  0  0  0  0  0  0  0  0  0  0
   -3.9291   -0.5255    0.0000 H   0  0  0  0  0  0  0  0  0  0  0  0
   -2.7850   -2.8123    0.0000 H   0  0  0  0  0  0  0  0  0  0  0  0
   -3.5907   -2.6351    0.0000 H   0  0  0  0  0  0  0  0  0  0  0  0
   -3.9888   -4.4451    0.0000 H   0  0  0  0  0  0  0  0  0  0  0  0
   -4.3122   -3.4252    0.0000 H   0  0  0  0  0  0  0  0  0  0  0  0
  1 21  1  0  0  0  0
  1  2  1  0  0  0  0
  1 79  1  0  0  0  0
  2  3  1  0  0  0  0
  2  4  2  0  0  0  0
  3  6  1  0  0  0  0
  3  5  1  0  0  0  0
  3 80  1  6  0  0  0
  5 81  1  0  0  0  0
  5 82  1  0  0  0  0
  5 83  1  0  0  0  0
  6  7  1  0  0  0  0
  7  8  1  0  0  0  0
  7  9  2  0  0  0  0
  8 13  1  0  0  0  0
  8 10  1  0  0  0  0
  8 84  1  1  0  0  0
 10 11  1  0  0  0  0
 10 12  1  0  0  0  0
 10 85  1  0  0  0  0
 11 86  1  0  0  0  0
 11 87  1  0  0  0  0
 11 88  1  0  0  0  0
 12 89  1  0  0  0  0
 12 90  1  0  0  0  0
 12 91  1  0  0  0  0
 13 14  1  0  0  0  0
 13 92  1  0  0  0  0
 14 15  1  0  0  0  0
 14 16  2  0  0  0  0
 15 17  1  0  0  0  0
 15 18  1  0  0  0  0
 15 93  1  1  0  0  0
 17 20  1  0  0  0  0
 17 19  1  0  0  0  0
 17 94  1  0  0  0  0
 18 68  1  0  0  0  0
 19 95  1  0  0  0  0
 19 96  1  0  0  0  0
 19 97  1  0  0  0  0
 20 98  1  0  0  0  0
 20 99  1  0  0  0  0
 20100  1  0  0  0  0
 21 22  1  0  0  0  0
 21 23  1  0  0  0  0
 21101  1  6  0  0  0
 22 26  2  0  0  0  0
 22 27  1  0  0  0  0
 23 24  1  0  0  0  0
 23 25  1  0  0  0  0
 23102  1  0  0  0  0
 24103  1  0  0  0  0
 24104  1  0  0  0  0
 24105  1  0  0  0  0
 25106  1  0  0  0  0
 25107  1  0  0  0  0
 25108  1  0  0  0  0
 28 27  1  0  0  0  0
 28 29  1  0  0  0  0
 28 30  1  0  0  0  0
 28109  1  1  0  0  0
 29 33  1  0  0  0  0
 29 34  1  0  0  0  0
 29110  1  0  0  0  0
 30 31  2  0  0  0  0
 30 32  1  0  0  0  0
 32 35  1  0  0  0  0
 32111  1  0  0  0  0
 33112  1  0  0  0  0
 33113  1  0  0  0  0
 33114  1  0  0  0  0
 34115  1  0  0  0  0
 34116  1  0  0  0  0
 34117  1  0  0  0  0
 35 36  1  0  0  0  0
 35 37  1  0  0  0  0
 35118  1  1  0  0  0
 36 40  1  0  0  0  0
 36 41  1  0  0  0  0
 36119  1  0  0  0  0
 37 38  2  0  0  0  0
 37 39  1  0  0  0  0
 40120  1  0  0  0  0
 40121  1  0  0  0  0
 40122  1  0  0  0  0
 41123  1  0  0  0  0
 41124  1  0  0  0  0
 41125  1  0  0  0  0
 42 39  1  0  0  0  0
 42 50  1  0  0  0  0
 42 43  1  0  0  0  0
 42126  1  1  0  0  0
 43 44  2  0  0  0  0
 43 45  1  0  0  0  0
 45 46  1  0  0  0  0
 45127  1  0  0  0  0
 46 47  1  0  0  0  0
 46 48  1  0  0  0  0
 46128  1  6  0  0  0
 47 51  2  0  0  0  0
 47 53  1  0  0  0  0
 48 49  1  0  0  0  0
 48 52  1  0  0  0  0
 48129  1  0  0  0  0
 49130  1  0  0  0  0
 49131  1  0  0  0  0
 49132  1  0  0  0  0
 50133  1  0  0  0  0
 50134  1  0  0  0  0
 50135  1  0  0  0  0
 52136  1  0  0  0  0
 52137  1  0  0  0  0
 52138  1  0  0  0  0
 54 53  1  0  0  0  0
 54 55  1  0  0  0  0
 54 56  1  0  0  0  0
 54139  1  1  0  0  0
 55 66  1  0  0  0  0
 55 67  1  0  0  0  0
 55140  1  0  0  0  0
 56 57  2  0  0  0  0
 56 58  1  0  0  0  0
 58 59  1  0  0  0  0
 58141  1  0  0  0  0
 59 60  1  0  0  0  0
 59 61  1  0  0  0  0
 59142  1  1  0  0  0
 60 64  1  0  0  0  0
 60 65  1  0  0  0  0
 60143  1  0  0  0  0
 61 62  2  0  0  0  0
 61 63  1  0  0  0  0
 64144  1  0  0  0  0
 64145  1  0  0  0  0
 64146  1  0  0  0  0
 65147  1  0  0  0  0
 65148  1  0  0  0  0
 65149  1  0  0  0  0
 66150  1  0  0  0  0
 66151  1  0  0  0  0
 66152  1  0  0  0  0
 67153  1  0  0  0  0
 67154  1  0  0  0  0
 67155  1  0  0  0  0
 68 69  2  0  0  0  0
 70 68  1  0  0  0  0
 70 71  1  0  0  0  0
 70 72  1  0  0  0  0
 70156  1  6  0  0  0
 71 73  1  0  0  0  0
 71 74  1  0  0  0  0
 71157  1  0  0  0  0
 72 75  1  0  0  0  0
 72158  1  0  0  0  0
 73159  1  0  0  0  0
 73160  1  0  0  0  0
 73161  1  0  0  0  0
 74162  1  0  0  0  0
 74163  1  0  0  0  0
 74164  1  0  0  0  0
 75 77  2  0  0  0  0
 76 75  1  0  0  0  0
 76 78  1  0  0  0  0
 76 63  1  0  0  0  0
 76165  1  6  0  0  0
 78166  1  0  0  0  0
 78167  1  0  0  0  0
 78168  1  0  0  0  0
M  END
>  <DRUGBANK_ID>
DB14057

>  <COMMON_NAME>
Valinomycin

>  <CAS_NUMBER>
2001-95-8

>  <UNII>
N561YS75MN

>  <SYNONYMS>
Potassium ionophore I; Valinomicin

$$$$
