
 OpenBabel10282417072D

 60 63  0  0  1  0  0  0  0  0999 V2000
   -1.1892   -2.6768    0.0000 C   0  0  0  0  0  0  0  0  0  0  0  0
   -0.9070   -1.9015    0.0000 C   0  0  2  0  0  0  0  0  0  0  0  0
   -0.0946   -1.7582    0.0000 C   0  0  0  0  0  0  0  0  0  0  0  0
    0.1876   -0.9830    0.0000 C   0  0  1  0  0  0  0  0  0  0  0  0
    0.9021   -1.3955    0.0000 C   0  0  0  0  0  0  0  0  0  0  0  0
    0.9021   -2.2205    0.0000 C   0  0  0  0  0  0  0  0  0  0  0  0
    0.1876   -2.6330    0.0000 N   0  0  0  0  0  0  0  0  0  0  0  0
    0.1876   -3.4580    0.0000 C   0  0  0  0  0  0  0  0  0  0  0  0
   -0.5269   -3.8705    0.0000 N   0  0  0  0  0  0  0  0  0  0  0  0
   -0.5269   -4.6955    0.0000 C   0  0  0  0  0  0  0  0  0  0  0  0
   -1.1943   -5.1804    0.0000 C   0  0  0  0  0  0  0  0  0  0  0  0
   -0.9394   -5.9650    0.0000 C   0  0  0  0  0  0  0  0  0  0  0  0
   -1.4243   -6.6325    0.0000 C   0  0  0  0  0  0  0  0  0  0  0  0
   -0.1144   -5.9650    0.0000 N   0  0  0  0  0  0  0  0  0  0  0  0
    0.1406   -5.1804    0.0000 N   0  0  0  0  0  0  0  0  0  0  0  0
    0.9021   -3.8705    0.0000 C   0  0  0  0  0  0  0  0  0  0  0  0
    1.6165   -3.4580    0.0000 C   0  0  0  0  0  0  0  0  0  0  0  0
    1.6165   -2.6330    0.0000 C   0  0  0  0  0  0  0  0  0  0  0  0
    2.3310   -2.2205    0.0000 F   0  0  0  0  0  0  0  0  0  0  0  0
   -0.3427   -0.3510    0.0000 C   0  0  0  0  0  0  0  0  0  0  0  0
   -1.1552   -0.4943    0.0000 C   0  0  0  0  0  0  0  0  0  0  0  0
   -1.4373   -1.2695    0.0000 N   0  0  0  0  0  0  0  0  0  0  0  0
   -2.2498   -1.4128    0.0000 C   0  0  0  0  0  0  0  0  0  0  0  0
   -2.7801   -0.7808    0.0000 C   0  0  0  0  0  0  0  0  0  0  0  0
   -3.5926   -0.9241    0.0000 C   0  0  0  0  0  0  0  0  0  0  0  0
   -4.1229   -0.2921    0.0000 C   0  0  0  0  0  0  0  0  0  0  0  0
   -3.8407    0.4832    0.0000 C   0  0  0  0  0  0  0  0  0  0  0  0
   -3.0282    0.6264    0.0000 C   0  0  0  0  0  0  0  0  0  0  0  0
   -2.7461    1.4017    0.0000 Cl  0  0  0  0  0  0  0  0  0  0  0  0
   -2.4979   -0.0055    0.0000 C   0  0  0  0  0  0  0  0  0  0  0  0
   -1.6855    0.1377    0.0000 F   0  0  0  0  0  0  0  0  0  0  0  0
    0.7179   -0.3510    0.0000 C   0  0  0  0  0  0  0  0  0  0  0  0
    1.5304   -0.4943    0.0000 O   0  0  0  0  0  0  0  0  0  0  0  0
    0.4357    0.4242    0.0000 O   0  0  0  0  0  0  0  0  0  0  0  0
   -2.2429   -2.8626    0.0000 H   0  0  0  0  0  0  0  0  0  0  0  0
   -0.5014   -3.4965    0.0000 H   0  0  0  0  0  0  0  0  0  0  0  0
   -1.5552   -3.6823    0.0000 H   0  0  0  0  0  0  0  0  0  0  0  0
   -0.2192   -2.7212    0.0000 H   0  0  0  0  0  0  0  0  0  0  0  0
    0.5932   -2.5779    0.0000 H   0  0  0  0  0  0  0  0  0  0  0  0
    0.9591   -1.5724    0.0000 H   0  0  0  0  0  0  0  0  0  0  0  0
    1.8287   -0.8605    0.0000 H   0  0  0  0  0  0  0  0  0  0  0  0
    1.8287   -1.9305    0.0000 H   0  0  0  0  0  0  0  0  0  0  0  0
   -1.3795   -3.3782    0.0000 H   0  0  0  0  0  0  0  0  0  0  0  0
   -2.1758   -4.8615    0.0000 H   0  0  0  0  0  0  0  0  0  0  0  0
   -2.4884   -6.5207    0.0000 H   0  0  0  0  0  0  0  0  0  0  0  0
   -0.9890   -7.6100    0.0000 H   0  0  0  0  0  0  0  0  0  0  0  0
   -2.0532   -7.4982    0.0000 H   0  0  0  0  0  0  0  0  0  0  0  0
    0.4642   -6.7615    0.0000 H   0  0  0  0  0  0  0  0  0  0  0  0
    0.9021   -4.9025    0.0000 H   0  0  0  0  0  0  0  0  0  0  0  0
    2.5102   -3.9740    0.0000 H   0  0  0  0  0  0  0  0  0  0  0  0
    0.0232    0.6545    0.0000 H   0  0  0  0  0  0  0  0  0  0  0  0
   -1.0305    0.4686    0.0000 H   0  0  0  0  0  0  0  0  0  0  0  0
   -1.8430    0.3253    0.0000 H   0  0  0  0  0  0  0  0  0  0  0  0
   -2.2089   -0.6802    0.0000 H   0  0  0  0  0  0  0  0  0  0  0  0
   -2.6157   -2.4183    0.0000 H   0  0  0  0  0  0  0  0  0  0  0  0
   -3.3035   -1.5986    0.0000 H   0  0  0  0  0  0  0  0  0  0  0  0
   -3.9455   -1.8939    0.0000 H   0  0  0  0  0  0  0  0  0  0  0  0
   -5.1392   -0.4713    0.0000 H   0  0  0  0  0  0  0  0  0  0  0  0
   -4.5040    1.2738    0.0000 H   0  0  0  0  0  0  0  0  0  0  0  0
    1.8508   -1.3748    0.0000 H   0  0  0  0  0  0  0  0  0  0  0  0
  1 35  1  0  0  0  0
  1 36  1  0  0  0  0
  1 37  1  0  0  0  0
  2  1  1  0  0  0  0
  2  3  1  0  0  0  0
  2 22  1  0  0  0  0
  2 38  1  6  0  0  0
  3 39  1  0  0  0  0
  3 40  1  0  0  0  0
  4  3  1  0  0  0  0
  4  5  1  0  0  0  0
  4 20  1  0  0  0  0
  4 32  1  1  0  0  0
  5  6  1  0  0  0  0
  5 41  1  0  0  0  0
  5 42  1  0  0  0  0
  6  7  2  0  0  0  0
  6 18  1  0  0  0  0
  7  8  1  0  0  0  0
  8  9  1  0  0  0  0
  8 16  2  0  0  0  0
  9 10  1  0  0  0  0
  9 43  1  0  0  0  0
 10 11  1  0  0  0  0
 10 15  2  0  0  0  0
 11 12  2  0  0  0  0
 11 44  1  0  0  0  0
 12 13  1  0  0  0  0
 12 14  1  0  0  0  0
 13 45  1  0  0  0  0
 13 46  1  0  0  0  0
 13 47  1  0  0  0  0
 14 15  1  0  0  0  0
 14 48  1  0  0  0  0
 16 17  1  0  0  0  0
 16 49  1  0  0  0  0
 17 18  2  0  0  0  0
 17 50  1  0  0  0  0
 18 19  1  0  0  0  0
 20 21  1  0  0  0  0
 20 51  1  0  0  0  0
 20 52  1  0  0  0  0
 21 22  1  0  0  0  0
 21 53  1  0  0  0  0
 21 54  1  0  0  0  0
 22 23  1  0  0  0  0
 23 24  1  0  0  0  0
 23 55  1  0  0  0  0
 23 56  1  0  0  0  0
 24 25  2  0  0  0  0
 24 30  1  0  0  0  0
 25 26  1  0  0  0  0
 25 57  1  0  0  0  0
 26 27  2  0  0  0  0
 26 58  1  0  0  0  0
 27 28  1  0  0  0  0
 27 59  1  0  0  0  0
 28 29  1  0  0  0  0
 28 30  2  0  0  0  0
 30 31  1  0  0  0  0
 32 33  1  0  0  0  0
 32 34  2  0  0  0  0
 33 60  1  0  0  0  0
M  END
>  <DRUGBANK_ID>
DB18019

>  <COMMON_NAME>
LY3295668

>  <CAS_NUMBER>
1919888-06-4

>  <UNII>
1WX8O5XV4R

>  <SYNONYMS>
1-((3-chloro-2-fluorophenyl)methyl)-4-((3-fluoro-6-((5-methyl-1h-pyrazol-3-yl)amino)-2-pyridinyl)methyl)-2-methyl-, (2r,4r)-,4-piperidinecarboxylic acid; 4-piperidinecarboxylic acid, 1-((3-chloro-2-fluorophenyl)methyl)-4-((3-fluoro-6-((5-methyl-1h-pyrazol-3-yl)amino)-2-pyridinyl)methyl)-2-methyl-, (2r,4r)-; Aurora a kinase inhibitor ly3295668

$$$$
