
 OpenBabel10282417072D

 30 32  0  0  0  0  0  0  0  0999 V2000
   -0.7145    0.2062    0.0000 C   0  0  0  0  0  0  0  0  0  0  0  0
    0.0000    0.6187    0.0000 O   0  0  0  0  0  0  0  0  0  0  0  0
   -2.1435    0.2062    0.0000 C   0  0  0  0  0  0  0  0  0  0  0  0
   -2.1435   -0.6187    0.0000 C   0  0  0  0  0  0  0  0  0  0  0  0
   -1.4290   -1.0313    0.0000 C   0  0  0  0  0  0  0  0  0  0  0  0
   -0.7145   -0.6187    0.0000 C   0  0  0  0  0  0  0  0  0  0  0  0
   -1.4290    0.6187    0.0000 C   0  0  0  0  0  0  0  0  0  0  0  0
    0.0000   -1.0313    0.0000 C   0  0  0  0  0  0  0  0  0  0  0  0
    0.7145   -0.6187    0.0000 C   0  0  0  0  0  0  0  0  0  0  0  0
    0.7145    0.2062    0.0000 C   0  0  1  0  0  0  0  0  0  0  0  0
   -2.8581    0.6187    0.0000 O   0  0  0  0  0  0  0  0  0  0  0  0
    1.4290    0.6187    0.0000 C   0  0  0  0  0  0  0  0  0  0  0  0
    1.4290    1.4438    0.0000 C   0  0  0  0  0  0  0  0  0  0  0  0
    2.1435    1.8563    0.0000 C   0  0  0  0  0  0  0  0  0  0  0  0
    2.8581    1.4438    0.0000 C   0  0  0  0  0  0  0  0  0  0  0  0
    2.8581    0.6187    0.0000 C   0  0  0  0  0  0  0  0  0  0  0  0
    2.1435    0.2062    0.0000 C   0  0  0  0  0  0  0  0  0  0  0  0
    0.0000   -1.8563    0.0000 O   0  0  0  0  0  0  0  0  0  0  0  0
   -3.0373   -1.1347    0.0000 H   0  0  0  0  0  0  0  0  0  0  0  0
   -1.4290   -2.0633    0.0000 H   0  0  0  0  0  0  0  0  0  0  0  0
   -1.4290    1.6507    0.0000 H   0  0  0  0  0  0  0  0  0  0  0  0
    1.6412   -1.1537    0.0000 H   0  0  0  0  0  0  0  0  0  0  0  0
    1.6411   -0.0837    0.0000 H   0  0  0  0  0  0  0  0  0  0  0  0
    0.7145    1.2762    0.0000 H   0  0  0  0  0  0  0  0  0  0  0  0
   -2.8582    1.5557    0.0000 H   0  0  0  0  0  0  0  0  0  0  0  0
    0.5353    1.9598    0.0000 H   0  0  0  0  0  0  0  0  0  0  0  0
    2.1435    2.8883    0.0000 H   0  0  0  0  0  0  0  0  0  0  0  0
    3.7518    1.9598    0.0000 H   0  0  0  0  0  0  0  0  0  0  0  0
    3.7518    0.1027    0.0000 H   0  0  0  0  0  0  0  0  0  0  0  0
    2.1435   -0.8258    0.0000 H   0  0  0  0  0  0  0  0  0  0  0  0
  1  2  1  0  0  0  0
  1  7  1  0  0  0  0
  3 11  1  0  0  0  0
  3  4  1  0  0  0  0
  3  7  2  0  0  0  0
  4  5  2  0  0  0  0
  4 19  1  0  0  0  0
  5  6  1  0  0  0  0
  5 20  1  0  0  0  0
  6  1  2  0  0  0  0
  6  8  1  0  0  0  0
  7 21  1  0  0  0  0
  8 18  2  0  0  0  0
  8  9  1  0  0  0  0
  9 10  1  0  0  0  0
  9 22  1  0  0  0  0
  9 23  1  0  0  0  0
 10  2  1  0  0  0  0
 10 12  1  0  0  0  0
 10 24  1  1  0  0  0
 11 25  1  0  0  0  0
 12 13  2  0  0  0  0
 12 17  1  0  0  0  0
 13 14  1  0  0  0  0
 13 26  1  0  0  0  0
 14 15  2  0  0  0  0
 14 27  1  0  0  0  0
 15 16  1  0  0  0  0
 15 28  1  0  0  0  0
 16 17  2  0  0  0  0
 16 29  1  0  0  0  0
 17 30  1  0  0  0  0
M  END
>  <DRUGBANK_ID>
DB04274

>  <SECONDARY_ACCESSION_NUMBERS>
EXPT01141

>  <COMMON_NAME>
(2S)-7-hydroxyflavanone

>  <CAS_NUMBER>
2545-13-3

>  <UNII>
MF98742K2H

>  <SYNONYMS>
(-)-7-Hydroxyflavanone

$$$$
