
 OpenBabel10282417072D

 19 20  0  0  0  0  0  0  0  0999 V2000
    5.6262    0.6794    0.0000 O   0  0  0  0  0  0  0  0  0  0  0  0
    4.9118    0.2669    0.0000 C   0  0  0  0  0  0  0  0  0  0  0  0
    4.9118   -0.5580    0.0000 C   0  0  0  0  0  0  0  0  0  0  0  0
    4.1973   -0.9705    0.0000 C   0  0  0  0  0  0  0  0  0  0  0  0
    4.1973   -1.7955    0.0000 O   0  0  0  0  0  0  0  0  0  0  0  0
    3.4828   -0.5580    0.0000 C   0  0  0  0  0  0  0  0  0  0  0  0
    2.7683   -0.9705    0.0000 C   0  0  0  0  0  0  0  0  0  0  0  0
    2.0539   -0.5580    0.0000 C   0  0  0  0  0  0  0  0  0  0  0  0
    2.0539    0.2669    0.0000 C   0  0  0  0  0  0  0  0  0  0  0  0
    2.7683    0.6794    0.0000 C   0  0  0  0  0  0  0  0  0  0  0  0
    3.4828    0.2669    0.0000 C   0  0  0  0  0  0  0  0  0  0  0  0
    4.1973    0.6794    0.0000 C   0  0  0  0  0  0  0  0  0  0  0  0
    4.1973    1.5044    0.0000 O   0  0  0  0  0  0  0  0  0  0  0  0
    6.4377    0.2109    0.0000 H   0  0  0  0  0  0  0  0  0  0  0  0
    5.8055   -1.0740    0.0000 H   0  0  0  0  0  0  0  0  0  0  0  0
    2.7683   -2.0025    0.0000 H   0  0  0  0  0  0  0  0  0  0  0  0
    1.1602   -1.0740    0.0000 H   0  0  0  0  0  0  0  0  0  0  0  0
    1.1602    0.7829    0.0000 H   0  0  0  0  0  0  0  0  0  0  0  0
    2.7683    1.7114    0.0000 H   0  0  0  0  0  0  0  0  0  0  0  0
  1  2  1  0  0  0  0
  1 14  1  0  0  0  0
  2  3  2  0  0  0  0
  2 12  1  0  0  0  0
  3  4  1  0  0  0  0
  3 15  1  0  0  0  0
  4  5  2  0  0  0  0
  4  6  1  0  0  0  0
  6  7  2  0  0  0  0
  6 11  1  0  0  0  0
  7  8  1  0  0  0  0
  7 16  1  0  0  0  0
  8  9  2  0  0  0  0
  8 17  1  0  0  0  0
  9 10  1  0  0  0  0
  9 18  1  0  0  0  0
 10 11  2  0  0  0  0
 10 19  1  0  0  0  0
 11 12  1  0  0  0  0
 12 13  2  0  0  0  0
M  END
>  <DRUGBANK_ID>
DB04744

>  <COMMON_NAME>
Lawsone

>  <CAS_NUMBER>
83-72-7

>  <UNII>
TLH4A6LV1W

>  <SYNONYMS>
2-hydroxy-1,4-naphthalenedione; 2-hydroxy-1,4-naphthoquinone; 2-hydroxynaphthoquinone; Lawsone

$$$$
