
 OpenBabel10282417072D

 41 45  0  0  0  0  0  0  0  0999 V2000
    0.4120   -0.6777    0.0000 C   0  0  2  0  0  0  0  0  0  0  0  0
   -0.4120   -0.6777    0.0000 C   0  0  0  0  0  0  0  0  0  0  0  0
    0.8303    0.0334    0.0000 C   0  0  2  0  0  0  0  0  0  0  0  0
   -0.8135   -1.3845    0.0000 C   0  0  0  0  0  0  0  0  0  0  0  0
    0.8177   -1.3845    0.0000 C   0  0  1  0  0  0  0  0  0  0  0  0
   -0.0355   -1.8739    0.0000 O   0  0  0  0  0  0  0  0  0  0  0  0
    0.3910    0.7487    0.0000 C   0  0  1  0  0  0  0  0  0  0  0  0
   -0.8135    0.0334    0.0000 C   0  0  0  0  0  0  0  0  0  0  0  0
    1.6543    0.0334    0.0000 C   0  0  0  0  0  0  0  0  0  0  0  0
   -0.4120    0.7487    0.0000 C   0  0  0  0  0  0  0  0  0  0  0  0
    0.4120    1.5769    0.0000 N   0  0  0  0  0  0  0  0  0  0  0  0
   -0.0105    0.0376    0.0000 C   0  0  0  0  0  0  0  0  0  0  0  0
    2.0685   -0.6819    0.0000 C   0  0  0  0  0  0  0  0  0  0  0  0
    1.6459   -1.3971    0.0000 C   0  0  0  0  0  0  0  0  0  0  0  0
   -1.6417   -1.3845    0.0000 C   0  0  0  0  0  0  0  0  0  0  0  0
   -0.0105    1.0540    0.0000 C   0  0  0  0  0  0  0  0  0  0  0  0
   -1.6417    0.0334    0.0000 C   0  0  0  0  0  0  0  0  0  0  0  0
   -2.0601   -0.6777    0.0000 C   0  0  0  0  0  0  0  0  0  0  0  0
   -2.0685   -2.1124    0.0000 O   0  0  0  0  0  0  0  0  0  0  0  0
    0.8261    2.3090    0.0000 C   0  0  0  0  0  0  0  0  0  0  0  0
    0.8135   -2.3090    0.0000 H   0  0  0  0  0  0  0  0  0  0  0  0
    1.2444    0.7612    0.0000 H   0  0  0  0  0  0  0  0  0  0  0  0
    1.1064    1.1628    0.0000 H   0  0  0  0  0  0  0  0  0  0  0  0
    2.1887    0.9604    0.0000 H   0  0  0  0  0  0  0  0  0  0  0  0
    2.7243    0.0344    0.0000 H   0  0  0  0  0  0  0  0  0  0  0  0
   -0.9526    1.6721    0.0000 H   0  0  0  0  0  0  0  0  0  0  0  0
   -1.4820    0.7390    0.0000 H   0  0  0  0  0  0  0  0  0  0  0  0
   -1.0427   -0.2445    0.0000 H   0  0  0  0  0  0  0  0  0  0  0  0
   -0.8610    0.6869    0.0000 H   0  0  0  0  0  0  0  0  0  0  0  0
    3.1385   -0.6866    0.0000 H   0  0  0  0  0  0  0  0  0  0  0  0
    2.6049    0.2439    0.0000 H   0  0  0  0  0  0  0  0  0  0  0  0
    2.1691   -2.3304    0.0000 H   0  0  0  0  0  0  0  0  0  0  0  0
    1.0980   -2.3162    0.0000 H   0  0  0  0  0  0  0  0  0  0  0  0
   -1.0193    1.4106    0.0000 H   0  0  0  0  0  0  0  0  0  0  0  0
   -0.8841    0.4362    0.0000 H   0  0  0  0  0  0  0  0  0  0  0  0
   -2.1540    0.9293    0.0000 H   0  0  0  0  0  0  0  0  0  0  0  0
   -3.0921   -0.6791    0.0000 H   0  0  0  0  0  0  0  0  0  0  0  0
   -3.0055   -2.1061    0.0000 H   0  0  0  0  0  0  0  0  0  0  0  0
    1.8961    2.3185    0.0000 H   0  0  0  0  0  0  0  0  0  0  0  0
    0.2829    3.2309    0.0000 H   0  0  0  0  0  0  0  0  0  0  0  0
    1.3529    3.2403    0.0000 H   0  0  0  0  0  0  0  0  0  0  0  0
  1  2  1  6  0  0  0
  1 12  1  0  0  0  0
  3  1  1  0  0  0  0
  3 22  1  1  0  0  0
  4  2  2  0  0  0  0
  4  6  1  0  0  0  0
  5  1  1  0  0  0  0
  5 21  1  1  0  0  0
  6  5  1  0  0  0  0
  7  3  1  0  0  0  0
  7 23  1  6  0  0  0
  7 11  1  0  0  0  0
  8  2  1  0  0  0  0
  8 10  1  0  0  0  0
  9  3  1  0  0  0  0
  9 13  1  0  0  0  0
  9 24  1  0  0  0  0
  9 25  1  0  0  0  0
 10  7  1  0  0  0  0
 10 26  1  0  0  0  0
 10 27  1  0  0  0  0
 11 16  1  0  0  0  0
 12 28  1  0  0  0  0
 12 29  1  0  0  0  0
 13 14  1  0  0  0  0
 13 30  1  0  0  0  0
 13 31  1  0  0  0  0
 14  5  1  0  0  0  0
 14 32  1  0  0  0  0
 14 33  1  0  0  0  0
 15  4  1  0  0  0  0
 16 12  1  0  0  0  0
 16 34  1  0  0  0  0
 16 35  1  0  0  0  0
 17  8  2  0  0  0  0
 17 36  1  0  0  0  0
 18 17  1  0  0  0  0
 18 15  2  0  0  0  0
 18 37  1  0  0  0  0
 19 15  1  0  0  0  0
 19 38  1  0  0  0  0
 20 11  1  0  0  0  0
 20 39  1  0  0  0  0
 20 40  1  0  0  0  0
 20 41  1  0  0  0  0
M  END
>  <DRUGBANK_ID>
DB01531

>  <COMMON_NAME>
Desomorphine

>  <CAS_NUMBER>
427-00-9

>  <UNII>
7OP86J5E33

>  <SYNONYMS>
4,5-epoxy-3-hydroxy-n-methylmorphinan; 6-deoxy-7,8-dihydromorphine; Deoxydihydromorphine D; Desomorphine; Dihydrodeoxymorphine; Dihydrodesoxymorphine D

$$$$
