
 OpenBabel10282417072D

 26 26  0  0  0  0  0  0  0  0999 V2000
   -2.5443   -3.5082    0.0000 N   0  3  0  0  0  0  0  0  0  0  0  0
   -1.8298   -3.0957    0.0000 C   0  0  0  0  0  0  0  0  0  0  0  0
   -1.1154   -3.5082    0.0000 C   0  0  0  0  0  0  0  0  0  0  0  0
   -0.4009   -3.0957    0.0000 C   0  0  0  0  0  0  0  0  0  0  0  0
    0.3136   -3.5082    0.0000 C   0  0  0  0  0  0  0  0  0  0  0  0
    1.0280   -3.0957    0.0000 O   0  0  0  0  0  0  0  0  0  0  0  0
    1.7425   -3.5082    0.0000 B   0  0  0  0  0  0  0  0  0  0  0  0
    2.4962   -3.1727    0.0000 O   0  0  0  0  0  0  0  0  0  0  0  0
    3.0482   -3.7858    0.0000 C   0  0  0  0  0  0  0  0  0  0  0  0
    2.6357   -4.5002    0.0000 C   0  0  0  0  0  0  0  0  0  0  0  0
    1.8287   -4.3287    0.0000 O   0  0  0  0  0  0  0  0  0  0  0  0
   -3.4276   -2.9982    0.0000 H   0  0  0  0  0  0  0  0  0  0  0  0
   -2.5443   -4.5282    0.0000 H   0  0  0  0  0  0  0  0  0  0  0  0
   -3.4277   -4.0182    0.0000 H   0  0  0  0  0  0  0  0  0  0  0  0
   -1.8298   -2.0257    0.0000 H   0  0  0  0  0  0  0  0  0  0  0  0
   -0.9031   -2.5607    0.0000 H   0  0  0  0  0  0  0  0  0  0  0  0
   -1.1154   -4.5782    0.0000 H   0  0  0  0  0  0  0  0  0  0  0  0
   -0.1888   -4.0432    0.0000 H   0  0  0  0  0  0  0  0  0  0  0  0
   -0.4009   -2.0257    0.0000 H   0  0  0  0  0  0  0  0  0  0  0  0
    0.5257   -2.5607    0.0000 H   0  0  0  0  0  0  0  0  0  0  0  0
    0.3136   -4.5782    0.0000 H   0  0  0  0  0  0  0  0  0  0  0  0
    1.2403   -4.0432    0.0000 H   0  0  0  0  0  0  0  0  0  0  0  0
    4.1123   -3.6740    0.0000 H   0  0  0  0  0  0  0  0  0  0  0  0
    3.6309   -4.6832    0.0000 H   0  0  0  0  0  0  0  0  0  0  0  0
    3.0709   -5.4777    0.0000 H   0  0  0  0  0  0  0  0  0  0  0  0
    1.9623   -5.3318    0.0000 H   0  0  0  0  0  0  0  0  0  0  0  0
  1  2  1  0  0  0  0
  1 12  1  0  0  0  0
  1 13  1  0  0  0  0
  1 14  1  0  0  0  0
  2  3  1  0  0  0  0
  2 15  1  0  0  0  0
  2 16  1  0  0  0  0
  3  4  1  0  0  0  0
  3 17  1  0  0  0  0
  3 18  1  0  0  0  0
  4  5  1  0  0  0  0
  4 19  1  0  0  0  0
  4 20  1  0  0  0  0
  5  6  1  0  0  0  0
  5 21  1  0  0  0  0
  5 22  1  0  0  0  0
  6  7  1  0  0  0  0
  7  8  1  0  0  0  0
  7 11  1  0  0  0  0
  8  9  1  0  0  0  0
  9 10  1  0  0  0  0
  9 23  1  0  0  0  0
  9 24  1  0  0  0  0
 10 11  1  0  0  0  0
 10 25  1  0  0  0  0
 10 26  1  0  0  0  0
M  CHG  1   1   1
M  END
>  <DRUGBANK_ID>
DB02308

>  <SECONDARY_ACCESSION_NUMBERS>
EXPT01310

>  <COMMON_NAME>
4-(1,3,2-Dioxaborolan-2-Yloxy)Butan-1-Aminium

$$$$
