
 OpenBabel10282417072D

 15 13  0  0  0  0  0  0  0  0999 V2000
   -0.1649    0.7298    0.0000 C   0  0  0  0  0  0  0  0  0  0  0  0
    0.5496    0.3173    0.0000 C   0  0  0  0  0  0  0  0  0  0  0  0
    0.5496   -0.5077    0.0000 C   0  0  0  0  0  0  0  0  0  0  0  0
   -0.1649   -0.9202    0.0000 C   0  0  0  0  0  0  0  0  0  0  0  0
   -0.8793   -0.5077    0.0000 C   0  0  0  0  0  0  0  0  0  0  0  0
   -0.8793    0.3173    0.0000 C   0  0  0  0  0  0  0  0  0  0  0  0
   -1.5938    0.7298    0.0000 Br  0  0  0  0  0  0  0  0  0  0  0  0
   -1.5938   -0.9202    0.0000 Br  0  0  0  0  0  0  0  0  0  0  0  0
   -0.1649   -1.7452    0.0000 Br  0  0  0  0  0  0  0  0  0  0  0  0
    1.2641   -0.9202    0.0000 Br  0  0  0  0  0  0  0  0  0  0  0  0
    1.2641    0.7298    0.0000 O   0  5  0  0  0  0  0  0  0  0  0  0
   -0.1649    1.5548    0.0000 O   0  5  0  0  0  0  0  0  0  0  0  0
    4.3357    0.0000    0.0000 O   0  5  0  0  0  0  0  0  0  0  0  0
    1.9785    1.1423    0.0000 Bi  0  1  0  0  0  0  0  0  0  0  0  0
    5.3057    0.0000    0.0000 H   0  0  0  0  0  0  0  0  0  0  0  0
  1  2  2  0  0  0  0
  1  6  1  0  0  0  0
  1 12  1  0  0  0  0
  2  3  1  0  0  0  0
  2 11  1  0  0  0  0
  3  4  2  0  0  0  0
  3 10  1  0  0  0  0
  4  5  1  0  0  0  0
  4  9  1  0  0  0  0
  5  6  2  0  0  0  0
  5  8  1  0  0  0  0
  6  7  1  0  0  0  0
 13 15  1  0  0  0  0
M  CHG  4  11  -1  12  -1  13  -1  14   3
M  END
>  <DRUGBANK_ID>
DB13818

>  <COMMON_NAME>
Bibrocathol

>  <CAS_NUMBER>
6915-57-7

>  <UNII>
0KJ20H1BLJ

>  <SYNONYMS>
Bibrocathol

$$$$
