
 OpenBabel10282417072D

 83 90  0  0  1  0  0  0  0  0999 V2000
   -9.0577    7.4053    0.0000 C   0  0  0  0  0  0  0  0  0  0  0  0
   -9.2545    6.6041    0.0000 C   0  0  0  0  0  0  0  0  0  0  0  0
   -8.4358    6.5020    0.0000 C   0  0  0  0  0  0  0  0  0  0  0  0
  -10.0273    6.8929    0.0000 C   0  0  0  0  0  0  0  0  0  0  0  0
  -10.5407    6.2471    0.0000 C   0  0  1  0  0  0  0  0  0  0  0  0
  -10.0852    5.5593    0.0000 C   0  0  0  0  0  0  0  0  0  0  0  0
   -9.2618    5.6098    0.0000 N   0  0  0  0  0  0  0  0  0  0  0  0
   -8.8063    4.9220    0.0000 C   0  0  0  0  0  0  0  0  0  0  0  0
   -7.9858    5.0082    0.0000 N   0  0  0  0  0  0  0  0  0  0  0  0
   -7.5009    4.3408    0.0000 C   0  0  0  0  0  0  0  0  0  0  0  0
   -7.8364    3.5871    0.0000 C   0  0  0  0  0  0  0  0  0  0  0  0
   -8.6569    3.5008    0.0000 C   0  0  0  0  0  0  0  0  0  0  0  0
   -9.1418    4.1683    0.0000 C   0  0  0  0  0  0  0  0  0  0  0  0
   -8.9528    3.3023    0.0000 C   0  0  0  0  0  0  0  0  0  0  0  0
   -8.1884    2.9920    0.0000 O   0  0  0  0  0  0  0  0  0  0  0  0
   -9.6407    2.8468    0.0000 N   0  0  0  0  0  0  0  0  0  0  0  0
  -10.2864    3.3602    0.0000 S   0  0  0  0  0  0  0  0  0  0  0  0
  -10.2191    2.5380    0.0000 O   0  0  0  0  0  0  0  0  0  0  0  0
  -10.8401    2.7486    0.0000 O   0  0  0  0  0  0  0  0  0  0  0  0
  -11.1891    3.3441    0.0000 C   0  0  0  0  0  0  0  0  0  0  0  0
  -11.5571    2.6057    0.0000 C   0  0  0  0  0  0  0  0  0  0  0  0
  -12.3805    2.5552    0.0000 C   0  0  0  0  0  0  0  0  0  0  0  0
  -12.8360    3.2430    0.0000 C   0  0  0  0  0  0  0  0  0  0  0  0
  -12.4680    3.9814    0.0000 C   0  0  0  0  0  0  0  0  0  0  0  0
  -12.9235    4.6693    0.0000 N   0  0  0  0  0  0  0  0  0  0  0  0
  -12.5556    5.4077    0.0000 C   0  0  0  0  0  0  0  0  0  0  0  0
  -11.7321    5.4582    0.0000 C   0  0  0  0  0  0  0  0  0  0  0  0
  -11.3642    6.1966    0.0000 C   0  0  0  0  0  0  0  0  0  0  0  0
  -11.6446    4.0320    0.0000 N   0  0  0  0  0  0  0  0  0  0  0  0
   -6.6804    4.4270    0.0000 N   0  0  0  0  0  0  0  0  0  0  0  0
   -6.2679    5.1415    0.0000 C   0  0  0  0  0  0  0  0  0  0  0  0
   -5.4609    4.9699    0.0000 C   0  0  0  0  0  0  0  0  0  0  0  0
   -5.3747    4.1495    0.0000 C   0  0  0  0  0  0  0  0  0  0  0  0
   -4.6602    3.7370    0.0000 O   0  0  0  0  0  0  0  0  0  0  0  0
   -4.6602    2.9120    0.0000 C   0  0  0  0  0  0  0  0  0  0  0  0
   -3.9458    2.4995    0.0000 C   0  0  0  0  0  0  0  0  0  0  0  0
   -3.9458    1.6745    0.0000 C   0  0  0  0  0  0  0  0  0  0  0  0
   -3.5333    0.9600    0.0000 C   0  0  0  0  0  0  0  0  0  0  0  0
   -2.7083    0.9600    0.0000 C   0  0  0  0  0  0  0  0  0  0  0  0
   -3.1208    0.2455    0.0000 C   0  0  0  0  0  0  0  0  0  0  0  0
   -4.3583    0.9600    0.0000 C   0  0  0  0  0  0  0  0  0  0  0  0
   -4.7708    0.2455    0.0000 C   0  0  0  0  0  0  0  0  0  0  0  0
   -5.1833    0.9600    0.0000 C   0  0  0  0  0  0  0  0  0  0  0  0
   -6.1284    3.8139    0.0000 N   0  0  0  0  0  0  0  0  0  0  0  0
   -8.0302    7.7038    0.0000 H   0  0  0  0  0  0  0  0  0  0  0  0
   -9.8300    8.1459    0.0000 H   0  0  0  0  0  0  0  0  0  0  0  0
   -8.8025    8.4444    0.0000 H   0  0  0  0  0  0  0  0  0  0  0  0
   -8.0196    5.5163    0.0000 H   0  0  0  0  0  0  0  0  0  0  0  0
   -7.7902    7.3553    0.0000 H   0  0  0  0  0  0  0  0  0  0  0  0
   -7.3740    6.3696    0.0000 H   0  0  0  0  0  0  0  0  0  0  0  0
  -10.3135    7.9239    0.0000 H   0  0  0  0  0  0  0  0  0  0  0  0
  -11.0759    7.1060    0.0000 H   0  0  0  0  0  0  0  0  0  0  0  0
   -9.4717    6.2007    0.0000 H   0  0  0  0  0  0  0  0  0  0  0  0
  -10.5624    4.6016    0.0000 H   0  0  0  0  0  0  0  0  0  0  0  0
   -9.4945    4.6672    0.0000 H   0  0  0  0  0  0  0  0  0  0  0  0
   -7.2297    2.7522    0.0000 H   0  0  0  0  0  0  0  0  0  0  0  0
   -9.0766    2.5580    0.0000 H   0  0  0  0  0  0  0  0  0  0  0  0
   -9.6835    1.8632    0.0000 H   0  0  0  0  0  0  0  0  0  0  0  0
  -10.9874    1.7452    0.0000 H   0  0  0  0  0  0  0  0  0  0  0  0
  -12.8408    1.6315    0.0000 H   0  0  0  0  0  0  0  0  0  0  0  0
  -13.8661    3.1798    0.0000 H   0  0  0  0  0  0  0  0  0  0  0  0
  -13.9061    4.6090    0.0000 H   0  0  0  0  0  0  0  0  0  0  0  0
  -13.1464    6.2998    0.0000 H   0  0  0  0  0  0  0  0  0  0  0  0
  -12.0783    6.3654    0.0000 H   0  0  0  0  0  0  0  0  0  0  0  0
  -11.1413    4.5661    0.0000 H   0  0  0  0  0  0  0  0  0  0  0  0
  -10.6641    5.5238    0.0000 H   0  0  0  0  0  0  0  0  0  0  0  0
  -11.9550    7.0887    0.0000 H   0  0  0  0  0  0  0  0  0  0  0  0
  -10.8869    7.1543    0.0000 H   0  0  0  0  0  0  0  0  0  0  0  0
   -6.6876    6.0843    0.0000 H   0  0  0  0  0  0  0  0  0  0  0  0
   -4.6939    5.6604    0.0000 H   0  0  0  0  0  0  0  0  0  0  0  0
   -5.5869    2.3770    0.0000 H   0  0  0  0  0  0  0  0  0  0  0  0
   -4.6602    1.8420    0.0000 H   0  0  0  0  0  0  0  0  0  0  0  0
   -3.0191    3.0345    0.0000 H   0  0  0  0  0  0  0  0  0  0  0  0
   -3.0192    1.9645    0.0000 H   0  0  0  0  0  0  0  0  0  0  0  0
   -3.9458    0.6045    0.0000 H   0  0  0  0  0  0  0  0  0  0  0  0
   -1.7817    1.4950    0.0000 H   0  0  0  0  0  0  0  0  0  0  0  0
   -1.9517    0.2034    0.0000 H   0  0  0  0  0  0  0  0  0  0  0  0
   -3.1208   -0.8245    0.0000 H   0  0  0  0  0  0  0  0  0  0  0  0
   -4.1543   -0.0314    0.0000 H   0  0  0  0  0  0  0  0  0  0  0  0
   -4.7708   -0.8245    0.0000 H   0  0  0  0  0  0  0  0  0  0  0  0
   -5.8043   -0.0314    0.0000 H   0  0  0  0  0  0  0  0  0  0  0  0
   -6.1099    1.4950    0.0000 H   0  0  0  0  0  0  0  0  0  0  0  0
   -4.9064    1.9935    0.0000 H   0  0  0  0  0  0  0  0  0  0  0  0
  1  2  1  0  0  0  0
  1 45  1  0  0  0  0
  1 46  1  0  0  0  0
  1 47  1  0  0  0  0
  2  3  1  0  0  0  0
  2  4  1  0  0  0  0
  2  7  1  0  0  0  0
  3 48  1  0  0  0  0
  3 49  1  0  0  0  0
  3 50  1  0  0  0  0
  4 51  1  0  0  0  0
  4 52  1  0  0  0  0
  5  4  1  0  0  0  0
  5  6  1  0  0  0  0
  5 28  1  0  0  0  0
  5 53  1  6  0  0  0
  6  7  1  0  0  0  0
  6 54  1  0  0  0  0
  6 55  1  0  0  0  0
  7  8  1  0  0  0  0
  8  9  2  0  0  0  0
  8 13  1  0  0  0  0
  9 10  1  0  0  0  0
 10 11  2  0  0  0  0
 10 30  1  0  0  0  0
 11 12  1  0  0  0  0
 11 56  1  0  0  0  0
 12 13  2  0  0  0  0
 12 57  1  0  0  0  0
 13 14  1  0  0  0  0
 14 15  2  0  0  0  0
 14 16  1  0  0  0  0
 16 17  1  0  0  0  0
 16 58  1  0  0  0  0
 17 18  2  0  0  0  0
 17 19  2  0  0  0  0
 17 20  1  0  0  0  0
 20 21  2  0  0  0  0
 20 29  1  0  0  0  0
 21 22  1  0  0  0  0
 21 59  1  0  0  0  0
 22 23  2  0  0  0  0
 22 60  1  0  0  0  0
 23 24  1  0  0  0  0
 23 61  1  0  0  0  0
 24 25  1  0  0  0  0
 24 29  2  0  0  0  0
 25 26  1  0  0  0  0
 25 62  1  0  0  0  0
 26 27  1  0  0  0  0
 26 63  1  0  0  0  0
 26 64  1  0  0  0  0
 27 28  1  0  0  0  0
 27 65  1  0  0  0  0
 27 66  1  0  0  0  0
 28 67  1  0  0  0  0
 28 68  1  0  0  0  0
 30 31  1  0  0  0  0
 30 44  1  0  0  0  0
 31 32  2  0  0  0  0
 31 69  1  0  0  0  0
 32 33  1  0  0  0  0
 32 70  1  0  0  0  0
 33 34  1  0  0  0  0
 33 44  2  0  0  0  0
 34 35  1  0  0  0  0
 35 36  1  0  0  0  0
 35 71  1  0  0  0  0
 35 72  1  0  0  0  0
 36 37  1  0  0  0  0
 36 73  1  0  0  0  0
 36 74  1  0  0  0  0
 37 38  1  0  0  0  0
 37 41  1  0  0  0  0
 37 75  1  0  0  0  0
 38 39  1  0  0  0  0
 38 40  1  0  0  0  0
 38 41  1  0  0  0  0
 39 40  1  0  0  0  0
 39 76  1  0  0  0  0
 39 77  1  0  0  0  0
 40 78  1  0  0  0  0
 40 79  1  0  0  0  0
 41 42  1  0  0  0  0
 41 43  1  0  0  0  0
 42 43  1  0  0  0  0
 42 80  1  0  0  0  0
 42 81  1  0  0  0  0
 43 82  1  0  0  0  0
 43 83  1  0  0  0  0
M  END
>  <DRUGBANK_ID>
DB18373

>  <COMMON_NAME>
Vanzacaftor

>  <CAS_NUMBER>
2374124-49-7

>  <UNII>
COM1POP492

>  <SYNONYMS>
Vanzacaftor; VX-121

$$$$
