12894
 OpenBabel10282417072D

 31 32  0  0  0  0  0  0  0  0999 V2000
    2.4751    0.2863    0.0000 S   0  0  0  0  0  0  0  0  0  0  0  0
    3.2758    2.3443    0.0000 O   0  0  0  0  0  0  0  0  0  0  0  0
    3.3001    0.2863    0.0000 O   0  0  0  0  0  0  0  0  0  0  0  0
    1.6500    0.2863    0.0000 O   0  0  0  0  0  0  0  0  0  0  0  0
    2.4751    1.1113    0.0000 N   0  0  0  0  0  0  0  0  0  0  0  0
    3.9433    1.1883    0.0000 N   0  0  0  0  0  0  0  0  0  0  0  0
    2.4751   -3.0138    0.0000 N   0  0  0  0  0  0  0  0  0  0  0  0
    2.4751   -0.5387    0.0000 C   0  0  0  0  0  0  0  0  0  0  0  0
    3.1895    1.5238    0.0000 C   0  0  0  0  0  0  0  0  0  0  0  0
    4.0828    2.5158    0.0000 C   0  0  0  0  0  0  0  0  0  0  0  0
    4.4953    1.8013    0.0000 C   0  0  0  0  0  0  0  0  0  0  0  0
    1.7606   -0.9512    0.0000 C   0  0  0  0  0  0  0  0  0  0  0  0
    3.1895   -0.9512    0.0000 C   0  0  0  0  0  0  0  0  0  0  0  0
    1.7606   -1.7763    0.0000 C   0  0  0  0  0  0  0  0  0  0  0  0
    3.1895   -1.7763    0.0000 C   0  0  0  0  0  0  0  0  0  0  0  0
    2.4751   -2.1888    0.0000 C   0  0  0  0  0  0  0  0  0  0  0  0
    4.4183    3.2695    0.0000 C   0  0  0  0  0  0  0  0  0  0  0  0
    5.3158    1.7151    0.0000 C   0  0  0  0  0  0  0  0  0  0  0  0
    1.6225    1.6035    0.0000 H   0  0  0  0  0  0  0  0  0  0  0  0
    1.6225   -3.5061    0.0000 H   0  0  0  0  0  0  0  0  0  0  0  0
    3.3277   -3.5060    0.0000 H   0  0  0  0  0  0  0  0  0  0  0  0
    0.8669   -0.4352    0.0000 H   0  0  0  0  0  0  0  0  0  0  0  0
    4.0832   -0.4352    0.0000 H   0  0  0  0  0  0  0  0  0  0  0  0
    0.8669   -2.2923    0.0000 H   0  0  0  0  0  0  0  0  0  0  0  0
    4.0832   -2.2923    0.0000 H   0  0  0  0  0  0  0  0  0  0  0  0
    5.4824    3.3814    0.0000 H   0  0  0  0  0  0  0  0  0  0  0  0
    3.7893    4.1351    0.0000 H   0  0  0  0  0  0  0  0  0  0  0  0
    4.8534    4.2470    0.0000 H   0  0  0  0  0  0  0  0  0  0  0  0
    5.7511    0.7376    0.0000 H   0  0  0  0  0  0  0  0  0  0  0  0
    5.9447    2.5808    0.0000 H   0  0  0  0  0  0  0  0  0  0  0  0
    6.3799    1.6033    0.0000 H   0  0  0  0  0  0  0  0  0  0  0  0
  1  3  2  0  0  0  0
  1  4  2  0  0  0  0
  1  5  1  0  0  0  0
  1  8  1  0  0  0  0
  2  9  1  0  0  0  0
  2 10  1  0  0  0  0
  5  9  1  0  0  0  0
  5 19  1  0  0  0  0
  6  9  2  0  0  0  0
  6 11  1  0  0  0  0
  7 16  1  0  0  0  0
  7 20  1  0  0  0  0
  7 21  1  0  0  0  0
  8 12  2  0  0  0  0
  8 13  1  0  0  0  0
 10 11  2  0  0  0  0
 10 17  1  0  0  0  0
 11 18  1  0  0  0  0
 12 14  1  0  0  0  0
 12 22  1  0  0  0  0
 13 15  2  0  0  0  0
 13 23  1  0  0  0  0
 14 16  2  0  0  0  0
 14 24  1  0  0  0  0
 15 16  1  0  0  0  0
 15 25  1  0  0  0  0
 17 26  1  0  0  0  0
 17 27  1  0  0  0  0
 17 28  1  0  0  0  0
 18 29  1  0  0  0  0
 18 30  1  0  0  0  0
 18 31  1  0  0  0  0
M  END
>  <DRUGBANK_ID>
DB08798

>  <COMMON_NAME>
Sulfamoxole

>  <CAS_NUMBER>
729-99-7

>  <UNII>
HGG82XE020

>  <SYNONYMS>
2-(p-Aminobenzenesulfonamido)-4,5-dimethyloxazole; 2-(p-Aminobenzolsulfonamido)-4,5-dimethyloxazol; 4-Amino-N-(4,5-dimethyl-2-oxazolyl)benzenesulfonamide; 4,5-Dimethyl-2-sulfanilamidooxazole; N(sup 1)-(4,5-Dimethyl-2-oxazolyl)sulfanilamide; N1-(4,5-Dimethyl-2-oxazolyl)sulfanilamide; Oxasulfa; p-Aminobenzenesulfonyl-2-amino-4,5-dimethyloxazole; Sulfadimethyloxazole; Sulfamoxol; Sulfamoxole; Sulfamoxolum; Sulphamoxole

$$$$
