
 OpenBabel10282417072D

 53 54  0  0  0  0  0  0  0  0999 V2000
    0.0260   -0.2789    0.0000 C   0  0  0  0  0  0  0  0  0  0  0  0
    0.0121    0.5424    0.0000 C   0  0  0  0  0  0  0  0  0  0  0  0
    0.7433   -0.6740    0.0000 C   0  0  0  0  0  0  0  0  0  0  0  0
   -0.6739   -0.7052    0.0000 C   0  0  0  0  0  0  0  0  0  0  0  0
    0.7156    0.9685    0.0000 O   0  0  0  0  0  0  0  0  0  0  0  0
   -0.7120    0.9408    0.0000 C   0  0  0  0  0  0  0  0  0  0  0  0
    1.4468   -0.2546    0.0000 C   0  0  0  0  0  0  0  0  0  0  0  0
   -1.3947   -0.3170    0.0000 C   0  0  0  0  0  0  0  0  0  0  0  0
   -0.6531   -1.5299    0.0000 O   0  0  0  0  0  0  0  0  0  0  0  0
    1.4329    0.5666    0.0000 C   0  0  3  0  0  0  0  0  0  0  0  0
   -1.4155    0.5111    0.0000 C   0  0  0  0  0  0  0  0  0  0  0  0
    2.1399    0.9927    0.0000 C   0  0  0  0  0  0  0  0  0  0  0  0
    1.4329    1.5299    0.0000 C   0  0  0  0  0  0  0  0  0  0  0  0
   -2.1398    0.9061    0.0000 C   0  0  0  0  0  0  0  0  0  0  0  0
    2.8641    0.5908    0.0000 C   0  0  0  0  0  0  0  0  0  0  0  0
   -2.8468    0.4765    0.0000 C   0  0  0  0  0  0  0  0  0  0  0  0
    3.5711    1.0205    0.0000 C   0  0  0  0  0  0  0  0  0  0  0  0
   -3.5711    0.8716    0.0000 C   0  0  0  0  0  0  0  0  0  0  0  0
    4.2919    0.6151    0.0000 C   0  0  0  0  0  0  0  0  0  0  0  0
   -4.2745    0.4418    0.0000 C   0  0  0  0  0  0  0  0  0  0  0  0
    4.9987    1.0448    0.0000 C   0  0  0  0  0  0  0  0  0  0  0  0
    4.3057   -0.2096    0.0000 C   0  0  0  0  0  0  0  0  0  0  0  0
   -4.9987    0.8369    0.0000 C   0  0  0  0  0  0  0  0  0  0  0  0
    0.7609   -1.7058    0.0000 H   0  0  0  0  0  0  0  0  0  0  0  0
   -0.7354    1.9725    0.0000 H   0  0  0  0  0  0  0  0  0  0  0  0
    2.3484   -0.7567    0.0000 H   0  0  0  0  0  0  0  0  0  0  0  0
   -2.2740   -0.8572    0.0000 H   0  0  0  0  0  0  0  0  0  0  0  0
   -1.4525   -2.0187    0.0000 H   0  0  0  0  0  0  0  0  0  0  0  0
    2.1208    2.0625    0.0000 H   0  0  0  0  0  0  0  0  0  0  0  0
    3.0571    1.5438    0.0000 H   0  0  0  0  0  0  0  0  0  0  0  0
    2.3595    2.0649    0.0000 H   0  0  0  0  0  0  0  0  0  0  0  0
    0.5063    2.0649    0.0000 H   0  0  0  0  0  0  0  0  0  0  0  0
    1.4329    2.5999    0.0000 H   0  0  0  0  0  0  0  0  0  0  0  0
   -2.1648    1.9758    0.0000 H   0  0  0  0  0  0  0  0  0  0  0  0
   -3.0785    1.4197    0.0000 H   0  0  0  0  0  0  0  0  0  0  0  0
    2.8852   -0.4790    0.0000 H   0  0  0  0  0  0  0  0  0  0  0  0
    3.8018    0.0755    0.0000 H   0  0  0  0  0  0  0  0  0  0  0  0
   -2.8218   -0.5932    0.0000 H   0  0  0  0  0  0  0  0  0  0  0  0
   -3.7605   -0.0804    0.0000 H   0  0  0  0  0  0  0  0  0  0  0  0
    3.5537    2.0524    0.0000 H   0  0  0  0  0  0  0  0  0  0  0  0
   -3.5974    1.9413    0.0000 H   0  0  0  0  0  0  0  0  0  0  0  0
   -4.5107    1.3835    0.0000 H   0  0  0  0  0  0  0  0  0  0  0  0
   -4.2483   -0.6279    0.0000 H   0  0  0  0  0  0  0  0  0  0  0  0
   -5.1878   -0.1156    0.0000 H   0  0  0  0  0  0  0  0  0  0  0  0
    5.9372    0.5309    0.0000 H   0  0  0  0  0  0  0  0  0  0  0  0
    4.9745    2.1145    0.0000 H   0  0  0  0  0  0  0  0  0  0  0  0
    5.9130    1.6006    0.0000 H   0  0  0  0  0  0  0  0  0  0  0  0
    3.3881   -0.7600    0.0000 H   0  0  0  0  0  0  0  0  0  0  0  0
    5.2412   -0.7290    0.0000 H   0  0  0  0  0  0  0  0  0  0  0  0
    4.3236   -1.2795    0.0000 H   0  0  0  0  0  0  0  0  0  0  0  0
   -5.0246    1.9066    0.0000 H   0  0  0  0  0  0  0  0  0  0  0  0
   -5.9121    0.2797    0.0000 H   0  0  0  0  0  0  0  0  0  0  0  0
   -5.9380    1.3494    0.0000 H   0  0  0  0  0  0  0  0  0  0  0  0
  1  2  2  0  0  0  0
  1  3  1  0  0  0  0
  1  4  1  0  0  0  0
  2  5  1  0  0  0  0
  2  6  1  0  0  0  0
  3  7  2  0  0  0  0
  3 24  1  0  0  0  0
  4  8  2  0  0  0  0
  4  9  1  0  0  0  0
  5 10  1  0  0  0  0
  6 11  2  0  0  0  0
  6 25  1  0  0  0  0
  7 10  1  0  0  0  0
  7 26  1  0  0  0  0
  8 11  1  0  0  0  0
  8 27  1  0  0  0  0
  9 28  1  0  0  0  0
 10 12  1  4  0  0  0
 10 13  1  0  0  0  0
 11 14  1  0  0  0  0
 12 15  1  0  0  0  0
 12 29  1  0  0  0  0
 12 30  1  0  0  0  0
 13 31  1  0  0  0  0
 13 32  1  0  0  0  0
 13 33  1  0  0  0  0
 14 16  1  0  0  0  0
 14 34  1  0  0  0  0
 14 35  1  0  0  0  0
 15 17  1  0  0  0  0
 15 36  1  0  0  0  0
 15 37  1  0  0  0  0
 16 18  1  0  0  0  0
 16 38  1  0  0  0  0
 16 39  1  0  0  0  0
 17 19  2  0  0  0  0
 17 40  1  0  0  0  0
 18 20  1  0  0  0  0
 18 41  1  0  0  0  0
 18 42  1  0  0  0  0
 19 21  1  0  0  0  0
 19 22  1  0  0  0  0
 20 23  1  0  0  0  0
 20 43  1  0  0  0  0
 20 44  1  0  0  0  0
 21 45  1  0  0  0  0
 21 46  1  0  0  0  0
 21 47  1  0  0  0  0
 22 48  1  0  0  0  0
 22 49  1  0  0  0  0
 22 50  1  0  0  0  0
 23 51  1  0  0  0  0
 23 52  1  0  0  0  0
 23 53  1  0  0  0  0
M  END
>  <DRUGBANK_ID>
DB14735

>  <COMMON_NAME>
Cannabichromene

>  <CAS_NUMBER>
20675-51-8

>  <UNII>
K4497H250W

>  <SYNONYMS>
2-Methyl-2-(4-methyl-3-pentenyl)-7-pentyl-2H-1-benzopyran-5-ol; Cannabichrome; Cannabinochromene; Cannanbichromene; Pentylcannabichromene

$$$$
