
 OpenBabel10282417072D

 48 51  0  0  1  0  0  0  0  0999 V2000
    6.2620    0.3722    0.0000 C   0  0  0  0  0  0  0  0  0  0  0  0
    5.4415    0.2859    0.0000 C   0  0  0  0  0  0  0  0  0  0  0  0
    5.0290   -0.4285    0.0000 N   0  0  0  0  0  0  0  0  0  0  0  0
    4.2221   -0.2570    0.0000 N   0  0  0  0  0  0  0  0  0  0  0  0
    4.1358    0.5635    0.0000 C   0  0  0  0  0  0  0  0  0  0  0  0
    4.8895    0.8990    0.0000 S   0  0  0  0  0  0  0  0  0  0  0  0
    3.4214    0.9760    0.0000 S   0  0  0  0  0  0  0  0  0  0  0  0
    2.7069    0.5635    0.0000 C   0  0  0  0  0  0  0  0  0  0  0  0
    1.9924    0.9760    0.0000 C   0  0  0  0  0  0  0  0  0  0  0  0
    1.2780    0.5635    0.0000 C   0  0  0  0  0  0  0  0  0  0  0  0
    0.5635    0.9760    0.0000 N   0  0  0  0  0  0  0  0  0  0  0  0
    0.5635    1.8010    0.0000 C   0  0  1  0  0  0  0  0  0  0  0  0
   -0.2615    1.8010    0.0000 C   0  0  1  0  0  0  0  0  0  0  0  0
   -0.2615    0.9760    0.0000 C   0  0  0  0  0  0  0  0  0  0  0  0
   -0.8449    0.3926    0.0000 O   0  0  0  0  0  0  0  0  0  0  0  0
   -0.8449    2.3843    0.0000 N   0  0  0  0  0  0  0  0  0  0  0  0
   -0.6314    3.1812    0.0000 C   0  0  0  0  0  0  0  0  0  0  0  0
    0.1655    3.3948    0.0000 O   0  0  0  0  0  0  0  0  0  0  0  0
   -1.2147    3.7646    0.0000 C   0  0  0  0  0  0  0  0  0  0  0  0
   -2.0116    3.5511    0.0000 N   0  0  0  0  0  0  0  0  0  0  0  0
   -2.2251    2.7542    0.0000 C   0  0  0  0  0  0  0  0  0  0  0  0
   -3.0220    2.5407    0.0000 C   0  0  0  0  0  0  0  0  0  0  0  0
   -3.6054    3.1240    0.0000 C   0  0  0  0  0  0  0  0  0  0  0  0
   -4.4023    2.9105    0.0000 O   0  0  0  0  0  0  0  0  0  0  0  0
   -3.3919    3.9209    0.0000 C   0  0  0  0  0  0  0  0  0  0  0  0
   -2.5950    4.1344    0.0000 C   0  0  0  0  0  0  0  0  0  0  0  0
   -3.9752    4.5043    0.0000 Cl  0  0  0  0  0  0  0  0  0  0  0  0
   -3.2355    1.7438    0.0000 Cl  0  0  0  0  0  0  0  0  0  0  0  0
    1.2780    2.2135    0.0000 S   0  0  0  0  0  0  0  0  0  0  0  0
    1.9924    1.8010    0.0000 C   0  0  0  0  0  0  0  0  0  0  0  0
    1.2780   -0.2615    0.0000 C   0  0  0  0  0  0  0  0  0  0  0  0
    0.5635   -0.6740    0.0000 O   0  0  0  0  0  0  0  0  0  0  0  0
    1.9924   -0.6740    0.0000 O   0  0  0  0  0  0  0  0  0  0  0  0
    6.8910   -0.4934    0.0000 H   0  0  0  0  0  0  0  0  0  0  0  0
    6.6971    1.3497    0.0000 H   0  0  0  0  0  0  0  0  0  0  0  0
    7.3261    0.4841    0.0000 H   0  0  0  0  0  0  0  0  0  0  0  0
    2.7069   -0.5065    0.0000 H   0  0  0  0  0  0  0  0  0  0  0  0
    1.7803    0.0285    0.0000 H   0  0  0  0  0  0  0  0  0  0  0  0
   -0.1931    1.0444    0.0000 H   0  0  0  0  0  0  0  0  0  0  0  0
    0.1479    2.7896    0.0000 H   0  0  0  0  0  0  0  0  0  0  0  0
   -1.7958    2.1294    0.0000 H   0  0  0  0  0  0  0  0  0  0  0  0
   -0.9377    4.7981    0.0000 H   0  0  0  0  0  0  0  0  0  0  0  0
   -1.9713    4.5212    0.0000 H   0  0  0  0  0  0  0  0  0  0  0  0
   -1.4954    2.0245    0.0000 H   0  0  0  0  0  0  0  0  0  0  0  0
   -2.3279    5.1312    0.0000 H   0  0  0  0  0  0  0  0  0  0  0  0
    2.9191    2.3360    0.0000 H   0  0  0  0  0  0  0  0  0  0  0  0
    2.9190    1.2660    0.0000 H   0  0  0  0  0  0  0  0  0  0  0  0
    1.9924   -1.6110    0.0000 H   0  0  0  0  0  0  0  0  0  0  0  0
  1  2  1  0  0  0  0
  1 34  1  0  0  0  0
  1 35  1  0  0  0  0
  1 36  1  0  0  0  0
  2  3  2  0  0  0  0
  2  6  1  0  0  0  0
  3  4  1  0  0  0  0
  4  5  2  0  0  0  0
  5  6  1  0  0  0  0
  5  7  1  0  0  0  0
  7  8  1  0  0  0  0
  8  9  1  0  0  0  0
  8 37  1  0  0  0  0
  8 38  1  0  0  0  0
  9 10  2  0  0  0  0
  9 30  1  0  0  0  0
 10 11  1  0  0  0  0
 10 31  1  0  0  0  0
 11 14  1  0  0  0  0
 12 11  1  0  0  0  0
 12 13  1  0  0  0  0
 12 29  1  0  0  0  0
 12 39  1  6  0  0  0
 13 14  1  0  0  0  0
 13 16  1  0  0  0  0
 13 40  1  6  0  0  0
 14 15  2  0  0  0  0
 16 17  1  0  0  0  0
 16 41  1  0  0  0  0
 17 18  2  0  0  0  0
 17 19  1  0  0  0  0
 19 20  1  0  0  0  0
 19 42  1  0  0  0  0
 19 43  1  0  0  0  0
 20 21  1  0  0  0  0
 20 26  1  0  0  0  0
 21 22  2  0  0  0  0
 21 44  1  0  0  0  0
 22 23  1  0  0  0  0
 22 28  1  0  0  0  0
 23 24  2  0  0  0  0
 23 25  1  0  0  0  0
 25 26  2  0  0  0  0
 25 27  1  0  0  0  0
 26 45  1  0  0  0  0
 29 30  1  0  0  0  0
 30 46  1  0  0  0  0
 30 47  1  0  0  0  0
 31 32  2  0  0  0  0
 31 33  1  0  0  0  0
 33 48  1  0  0  0  0
M  END
>  <DRUGBANK_ID>
DB13778

>  <COMMON_NAME>
Cefazedone

>  <CAS_NUMBER>
56187-47-4

>  <UNII>
7Y86X0D799

>  <SYNONYMS>
cefazedona; Cefazedone

$$$$
