
 OpenBabel10282417072D

 69 74  0  0  0  0  0  0  0  0999 V2000
    5.7158   -0.0000    0.0000 C   0  0  0  0  0  0  0  0  0  0  0  0
    5.0013   -0.4125    0.0000 O   0  0  0  0  0  0  0  0  0  0  0  0
    4.2868   -0.0000    0.0000 C   0  0  0  0  0  0  0  0  0  0  0  0
    4.2868    0.8250    0.0000 C   0  0  0  0  0  0  0  0  0  0  0  0
    3.5724    1.2375    0.0000 C   0  0  0  0  0  0  0  0  0  0  0  0
    2.8579    0.8250    0.0000 C   0  0  0  0  0  0  0  0  0  0  0  0
    2.8579    0.0000    0.0000 C   0  0  0  0  0  0  0  0  0  0  0  0
    3.5724   -0.4125    0.0000 N   0  0  0  0  0  0  0  0  0  0  0  0
    2.1434   -0.4125    0.0000 C   0  0  0  0  0  0  0  0  0  0  0  0
    1.4289   -0.0000    0.0000 C   0  0  0  0  0  0  0  0  0  0  0  0
    0.7145   -0.4125    0.0000 C   0  0  0  0  0  0  0  0  0  0  0  0
   -0.0000    0.0000    0.0000 C   0  0  0  0  0  0  0  0  0  0  0  0
    0.0000    0.8250    0.0000 C   0  0  0  0  0  0  0  0  0  0  0  0
    0.7145    1.2375    0.0000 C   0  0  0  0  0  0  0  0  0  0  0  0
    1.4289    0.8250    0.0000 C   0  0  0  0  0  0  0  0  0  0  0  0
    2.1434    1.2375    0.0000 N   0  0  0  0  0  0  0  0  0  0  0  0
   -0.7145    1.2375    0.0000 Cl  0  0  0  0  0  0  0  0  0  0  0  0
    2.1434   -1.2375    0.0000 N   0  0  0  0  0  0  0  0  0  0  0  0
    2.8579   -1.6500    0.0000 C   0  0  0  0  0  0  0  0  0  0  0  0
    3.5724   -1.2375    0.0000 C   0  0  0  0  0  0  0  0  0  0  0  0
    4.2868   -1.6500    0.0000 C   0  0  0  0  0  0  0  0  0  0  0  0
    4.2868   -2.4750    0.0000 C   0  0  0  0  0  0  0  0  0  0  0  0
    3.5724   -2.8875    0.0000 C   0  0  0  0  0  0  0  0  0  0  0  0
    2.8579   -2.4750    0.0000 C   0  0  0  0  0  0  0  0  0  0  0  0
    3.5724   -3.7125    0.0000 C   0  0  0  0  0  0  0  0  0  0  0  0
    2.8579   -4.1250    0.0000 N   0  0  0  0  0  0  0  0  0  0  0  0
    2.7716   -4.9455    0.0000 C   0  0  0  0  0  0  0  0  0  0  0  0
    1.9647   -5.1170    0.0000 C   0  0  0  0  0  0  0  0  0  0  0  0
    1.5522   -4.4025    0.0000 C   0  0  0  0  0  0  0  0  0  0  0  0
    2.1042   -3.7894    0.0000 C   0  0  0  0  0  0  0  0  0  0  0  0
    5.0013   -2.8875    0.0000 O   0  0  0  0  0  0  0  0  0  0  0  0
    5.0013   -1.2375    0.0000 C   0  0  0  0  0  0  0  0  0  0  0  0
    5.7158   -1.6500    0.0000 N   0  0  0  0  0  0  0  0  0  0  0  0
    6.4694   -1.3144    0.0000 C   0  0  0  0  0  0  0  0  0  0  0  0
    7.0215   -1.9275    0.0000 C   0  0  0  0  0  0  0  0  0  0  0  0
    6.6090   -2.6420    0.0000 C   0  0  0  0  0  0  0  0  0  0  0  0
    5.8020   -2.4705    0.0000 C   0  0  0  0  0  0  0  0  0  0  0  0
    6.6424   -0.5350    0.0000 H   0  0  0  0  0  0  0  0  0  0  0  0
    5.7158    1.0700    0.0000 H   0  0  0  0  0  0  0  0  0  0  0  0
    6.6425    0.5350    0.0000 H   0  0  0  0  0  0  0  0  0  0  0  0
    5.1805    1.3410    0.0000 H   0  0  0  0  0  0  0  0  0  0  0  0
    3.5724    2.2695    0.0000 H   0  0  0  0  0  0  0  0  0  0  0  0
    0.7145   -1.4445    0.0000 H   0  0  0  0  0  0  0  0  0  0  0  0
   -0.8937   -0.5160    0.0000 H   0  0  0  0  0  0  0  0  0  0  0  0
    0.7145    2.2695    0.0000 H   0  0  0  0  0  0  0  0  0  0  0  0
    1.2908   -1.7298    0.0000 H   0  0  0  0  0  0  0  0  0  0  0  0
    3.5724   -0.2055    0.0000 H   0  0  0  0  0  0  0  0  0  0  0  0
    1.9642   -2.9910    0.0000 H   0  0  0  0  0  0  0  0  0  0  0  0
    4.4990   -4.2475    0.0000 H   0  0  0  0  0  0  0  0  0  0  0  0
    3.5724   -4.7825    0.0000 H   0  0  0  0  0  0  0  0  0  0  0  0
    3.5667   -5.6615    0.0000 H   0  0  0  0  0  0  0  0  0  0  0  0
    2.4946   -5.9790    0.0000 H   0  0  0  0  0  0  0  0  0  0  0  0
    1.5295   -6.0945    0.0000 H   0  0  0  0  0  0  0  0  0  0  0  0
    0.8962   -5.1730    0.0000 H   0  0  0  0  0  0  0  0  0  0  0  0
    0.4881   -4.2907    0.0000 H   0  0  0  0  0  0  0  0  0  0  0  0
    1.1687   -3.4036    0.0000 H   0  0  0  0  0  0  0  0  0  0  0  0
    1.8817   -2.7428    0.0000 H   0  0  0  0  0  0  0  0  0  0  0  0
    2.9358   -3.1160    0.0000 H   0  0  0  0  0  0  0  0  0  0  0  0
    5.0013   -3.8245    0.0000 H   0  0  0  0  0  0  0  0  0  0  0  0
    5.0013   -0.1675    0.0000 H   0  0  0  0  0  0  0  0  0  0  0  0
    5.9279   -0.7025    0.0000 H   0  0  0  0  0  0  0  0  0  0  0  0
    6.6918   -0.2678    0.0000 H   0  0  0  0  0  0  0  0  0  0  0  0
    7.5029   -1.0374    0.0000 H   0  0  0  0  0  0  0  0  0  0  0  0
    8.0856   -1.8156    0.0000 H   0  0  0  0  0  0  0  0  0  0  0  0
    7.6043   -2.8249    0.0000 H   0  0  0  0  0  0  0  0  0  0  0  0
    7.0442   -3.6195    0.0000 H   0  0  0  0  0  0  0  0  0  0  0  0
    5.9357   -3.4736    0.0000 H   0  0  0  0  0  0  0  0  0  0  0  0
    5.0068   -3.1865    0.0000 H   0  0  0  0  0  0  0  0  0  0  0  0
    4.8031   -2.0870    0.0000 H   0  0  0  0  0  0  0  0  0  0  0  0
  1  2  1  0  0  0  0
  1 38  1  0  0  0  0
  1 39  1  0  0  0  0
  1 40  1  0  0  0  0
  2  3  1  0  0  0  0
  3  4  1  0  0  0  0
  3  8  2  0  0  0  0
  4  5  2  0  0  0  0
  4 41  1  0  0  0  0
  5  6  1  0  0  0  0
  5 42  1  0  0  0  0
  6  7  1  0  0  0  0
  6 16  2  0  0  0  0
  7  8  1  0  0  0  0
  7  9  2  0  0  0  0
  9 10  1  0  0  0  0
  9 18  1  0  0  0  0
 10 11  2  0  0  0  0
 10 15  1  0  0  0  0
 11 12  1  0  0  0  0
 11 43  1  0  0  0  0
 12 13  2  0  0  0  0
 12 44  1  0  0  0  0
 13 14  1  0  0  0  0
 13 17  1  0  0  0  0
 14 15  2  0  0  0  0
 14 45  1  0  0  0  0
 15 16  1  0  0  0  0
 18 19  1  0  0  0  0
 18 46  1  0  0  0  0
 19 20  2  0  0  0  0
 19 24  1  0  0  0  0
 20 21  1  0  0  0  0
 20 47  1  0  0  0  0
 21 22  2  0  0  0  0
 21 32  1  0  0  0  0
 22 23  1  0  0  0  0
 22 31  1  0  0  0  0
 23 24  2  0  0  0  0
 23 25  1  0  0  0  0
 24 48  1  0  0  0  0
 25 26  1  0  0  0  0
 25 49  1  0  0  0  0
 25 50  1  0  0  0  0
 26 27  1  0  0  0  0
 26 30  1  0  0  0  0
 27 28  1  0  0  0  0
 27 51  1  0  0  0  0
 27 52  1  0  0  0  0
 28 29  1  0  0  0  0
 28 53  1  0  0  0  0
 28 54  1  0  0  0  0
 29 30  1  0  0  0  0
 29 55  1  0  0  0  0
 29 56  1  0  0  0  0
 30 57  1  0  0  0  0
 30 58  1  0  0  0  0
 31 59  1  0  0  0  0
 32 33  1  0  0  0  0
 32 60  1  0  0  0  0
 32 61  1  0  0  0  0
 33 34  1  0  0  0  0
 33 37  1  0  0  0  0
 34 35  1  0  0  0  0
 34 62  1  0  0  0  0
 34 63  1  0  0  0  0
 35 36  1  0  0  0  0
 35 64  1  0  0  0  0
 35 65  1  0  0  0  0
 36 37  1  0  0  0  0
 36 66  1  0  0  0  0
 36 67  1  0  0  0  0
 37 68  1  0  0  0  0
 37 69  1  0  0  0  0
M  END
>  <DRUGBANK_ID>
DB12975

>  <COMMON_NAME>
Pyronaridine

>  <CAS_NUMBER>
74847-35-1

>  <UNII>
TD3P7Q3SG6

>  <SYNONYMS>
Pyronaridine

$$$$
