
 OpenBabel10282417072D

 50 54  0  0  0  0  0  0  0  0999 V2000
    3.3523    1.9354    0.0000 C   0  0  0  0  0  0  0  0  0  0  0  0
    3.3523    1.1104    0.0000 C   0  0  0  0  0  0  0  0  0  0  0  0
    2.6378    0.6979    0.0000 C   0  0  0  0  0  0  0  0  0  0  0  0
    1.9233    1.1104    0.0000 C   0  0  0  0  0  0  0  0  0  0  0  0
    1.9233    1.9354    0.0000 C   0  0  0  0  0  0  0  0  0  0  0  0
    2.6378    2.3479    0.0000 C   0  0  0  0  0  0  0  0  0  0  0  0
    1.1387    2.1904    0.0000 C   0  0  0  0  0  0  0  0  0  0  0  0
    0.6538    1.5229    0.0000 C   0  0  0  0  0  0  0  0  0  0  0  0
    1.1387    0.8555    0.0000 C   0  0  0  0  0  0  0  0  0  0  0  0
   -0.1712    1.5229    0.0000 N   0  0  0  0  0  0  0  0  0  0  0  0
   -0.5837    0.8085    0.0000 C   0  0  0  0  0  0  0  0  0  0  0  0
   -1.4087    0.8085    0.0000 C   0  0  0  0  0  0  0  0  0  0  0  0
   -1.8212    0.0940    0.0000 C   0  0  0  0  0  0  0  0  0  0  0  0
   -2.6462    0.0940    0.0000 C   0  0  0  0  0  0  0  0  0  0  0  0
   -3.0587    0.8085    0.0000 C   0  0  0  0  0  0  0  0  0  0  0  0
   -2.6462    1.5229    0.0000 C   0  0  0  0  0  0  0  0  0  0  0  0
   -1.8212    1.5229    0.0000 C   0  0  0  0  0  0  0  0  0  0  0  0
   -1.4087    2.2374    0.0000 F   0  0  0  0  0  0  0  0  0  0  0  0
   -3.8837    0.8085    0.0000 C   0  0  0  0  0  0  0  0  0  0  0  0
   -4.2962    0.0940    0.0000 C   0  0  0  0  0  0  0  0  0  0  0  0
   -5.1212    0.0940    0.0000 C   0  0  0  0  0  0  0  0  0  0  0  0
   -5.5337    0.8085    0.0000 C   0  0  0  0  0  0  0  0  0  0  0  0
   -5.1212    1.5229    0.0000 C   0  0  0  0  0  0  0  0  0  0  0  0
   -4.2962    1.5229    0.0000 C   0  0  0  0  0  0  0  0  0  0  0  0
   -5.5337    2.2374    0.0000 C   0  0  0  0  0  0  0  0  0  0  0  0
   -6.3542    2.3236    0.0000 N   0  0  0  0  0  0  0  0  0  0  0  0
   -6.5257    3.1306    0.0000 C   0  0  0  0  0  0  0  0  0  0  0  0
   -5.8112    3.5431    0.0000 N   0  0  0  0  0  0  0  0  0  0  0  0
   -5.1981    2.9911    0.0000 N   0  0  0  0  0  0  0  0  0  0  0  0
   -1.4087   -0.6205    0.0000 F   0  0  0  0  0  0  0  0  0  0  0  0
    4.2460    2.4514    0.0000 H   0  0  0  0  0  0  0  0  0  0  0  0
    4.2460    0.5944    0.0000 H   0  0  0  0  0  0  0  0  0  0  0  0
    2.6378   -0.3341    0.0000 H   0  0  0  0  0  0  0  0  0  0  0  0
    2.6378    3.3799    0.0000 H   0  0  0  0  0  0  0  0  0  0  0  0
    0.8081    3.2080    0.0000 H   0  0  0  0  0  0  0  0  0  0  0  0
    0.0819    2.3578    0.0000 H   0  0  0  0  0  0  0  0  0  0  0  0
    0.1680    0.5695    0.0000 H   0  0  0  0  0  0  0  0  0  0  0  0
    0.8080   -0.1621    0.0000 H   0  0  0  0  0  0  0  0  0  0  0  0
    1.8953    0.0989    0.0000 H   0  0  0  0  0  0  0  0  0  0  0  0
   -0.6812    2.4063    0.0000 H   0  0  0  0  0  0  0  0  0  0  0  0
   -0.0487   -0.1182    0.0000 H   0  0  0  0  0  0  0  0  0  0  0  0
   -1.1187   -0.1181    0.0000 H   0  0  0  0  0  0  0  0  0  0  0  0
   -3.1622   -0.7997    0.0000 H   0  0  0  0  0  0  0  0  0  0  0  0
   -3.1622    2.4166    0.0000 H   0  0  0  0  0  0  0  0  0  0  0  0
   -3.7802   -0.7997    0.0000 H   0  0  0  0  0  0  0  0  0  0  0  0
   -5.6372   -0.7997    0.0000 H   0  0  0  0  0  0  0  0  0  0  0  0
   -6.5657    0.8085    0.0000 H   0  0  0  0  0  0  0  0  0  0  0  0
   -3.7802    2.4166    0.0000 H   0  0  0  0  0  0  0  0  0  0  0  0
   -7.4685    3.5504    0.0000 H   0  0  0  0  0  0  0  0  0  0  0  0
   -5.7083    4.5222    0.0000 H   0  0  0  0  0  0  0  0  0  0  0  0
  1  2  2  0  0  0  0
  1  6  1  0  0  0  0
  1 31  1  0  0  0  0
  2  3  1  0  0  0  0
  2 32  1  0  0  0  0
  3  4  2  0  0  0  0
  3 33  1  0  0  0  0
  4  5  1  0  0  0  0
  4  9  1  0  0  0  0
  5  6  2  0  0  0  0
  5  7  1  0  0  0  0
  6 34  1  0  0  0  0
  7  8  1  0  0  0  0
  7 35  1  0  0  0  0
  7 36  1  0  0  0  0
  8  9  1  0  0  0  0
  8 10  1  0  0  0  0
  8 37  1  0  0  0  0
  9 38  1  0  0  0  0
  9 39  1  0  0  0  0
 10 11  1  0  0  0  0
 10 40  1  0  0  0  0
 11 12  1  0  0  0  0
 11 41  1  0  0  0  0
 11 42  1  0  0  0  0
 12 13  2  0  0  0  0
 12 17  1  0  0  0  0
 13 14  1  0  0  0  0
 13 30  1  0  0  0  0
 14 15  2  0  0  0  0
 14 43  1  0  0  0  0
 15 16  1  0  0  0  0
 15 19  1  0  0  0  0
 16 17  2  0  0  0  0
 16 44  1  0  0  0  0
 17 18  1  0  0  0  0
 19 20  2  0  0  0  0
 19 24  1  0  0  0  0
 20 21  1  0  0  0  0
 20 45  1  0  0  0  0
 21 22  2  0  0  0  0
 21 46  1  0  0  0  0
 22 23  1  0  0  0  0
 22 47  1  0  0  0  0
 23 24  2  0  0  0  0
 23 25  1  0  0  0  0
 24 48  1  0  0  0  0
 25 26  1  0  0  0  0
 25 29  2  0  0  0  0
 26 27  2  0  0  0  0
 27 28  1  0  0  0  0
 27 49  1  0  0  0  0
 28 29  1  0  0  0  0
 28 50  1  0  0  0  0
M  END
>  <DRUGBANK_ID>
DB12886

>  <COMMON_NAME>
GSK-1521498

>  <CAS_NUMBER>
1007573-18-3

>  <UNII>
W0UTB622GK

$$$$
