ZYW
 OpenBabel10282417072D

 32 34  0  0  0  0  0  0  0  0999 V2000
    1.4409   -1.0855    0.0000 Br  0  0  0  0  0  0  0  0  0  0  0  0
    0.7264   -1.4980    0.0000 C   0  0  0  0  0  0  0  0  0  0  0  0
    0.7264   -2.3230    0.0000 C   0  0  0  0  0  0  0  0  0  0  0  0
    0.0120   -2.7355    0.0000 N   0  0  0  0  0  0  0  0  0  0  0  0
   -0.7025   -2.3230    0.0000 C   0  0  0  0  0  0  0  0  0  0  0  0
   -1.4871   -2.5779    0.0000 N   0  0  0  0  0  0  0  0  0  0  0  0
   -1.9720   -1.9105    0.0000 N   0  0  0  0  0  0  0  0  0  0  0  0
   -1.4871   -1.2430    0.0000 C   0  0  0  0  0  0  0  0  0  0  0  0
   -0.7025   -1.4980    0.0000 C   0  0  0  0  0  0  0  0  0  0  0  0
    0.0120   -1.0855    0.0000 C   0  0  0  0  0  0  0  0  0  0  0  0
    0.0120   -0.2605    0.0000 N   0  0  0  0  0  0  0  0  0  0  0  0
   -0.7025    0.1520    0.0000 C   0  0  0  0  0  0  0  0  0  0  0  0
    0.7264    0.1520    0.0000 C   0  0  0  0  0  0  0  0  0  0  0  0
    0.7264    0.9770    0.0000 C   0  0  0  0  0  0  0  0  0  0  0  0
    0.0120    1.3895    0.0000 O   0  0  0  0  0  0  0  0  0  0  0  0
   -0.7025    0.9770    0.0000 C   0  0  1  0  0  0  0  0  0  0  0  0
   -1.4170    1.3895    0.0000 C   0  0  0  0  0  0  0  0  0  0  0  0
   -2.1314    0.9770    0.0000 N   0  0  0  0  0  0  0  0  0  0  0  0
   -1.2082    0.6851    0.0000 H   0  0  0  0  0  0  0  0  0  0  0  0
    1.6201   -2.8390    0.0000 H   0  0  0  0  0  0  0  0  0  0  0  0
   -1.7913   -3.5142    0.0000 H   0  0  0  0  0  0  0  0  0  0  0  0
   -1.8060   -0.2615    0.0000 H   0  0  0  0  0  0  0  0  0  0  0  0
   -1.6291   -0.3830    0.0000 H   0  0  0  0  0  0  0  0  0  0  0  0
   -1.6291    0.6870    0.0000 H   0  0  0  0  0  0  0  0  0  0  0  0
    1.6531   -0.3830    0.0000 H   0  0  0  0  0  0  0  0  0  0  0  0
    1.6530    0.6870    0.0000 H   0  0  0  0  0  0  0  0  0  0  0  0
    1.6531    1.5120    0.0000 H   0  0  0  0  0  0  0  0  0  0  0  0
    0.7264    2.0470    0.0000 H   0  0  0  0  0  0  0  0  0  0  0  0
   -1.4170    2.4595    0.0000 H   0  0  0  0  0  0  0  0  0  0  0  0
   -2.3437    1.9245    0.0000 H   0  0  0  0  0  0  0  0  0  0  0  0
   -3.0148    1.4870    0.0000 H   0  0  0  0  0  0  0  0  0  0  0  0
   -2.1314   -0.0430    0.0000 H   0  0  0  0  0  0  0  0  0  0  0  0
  1  2  1  0  0  0  0
  2  3  1  0  0  0  0
  2 10  2  0  0  0  0
  3  4  2  0  0  0  0
  3 20  1  0  0  0  0
  4  5  1  0  0  0  0
  5  6  1  0  0  0  0
  5  9  2  0  0  0  0
  6  7  1  0  0  0  0
  6 21  1  0  0  0  0
  7  8  2  0  0  0  0
  8  9  1  0  0  0  0
  8 22  1  0  0  0  0
  9 10  1  0  0  0  0
 10 11  1  0  0  0  0
 11 12  1  0  0  0  0
 11 13  1  0  0  0  0
 12 16  1  0  0  0  0
 12 23  1  0  0  0  0
 12 24  1  0  0  0  0
 13 14  1  0  0  0  0
 13 25  1  0  0  0  0
 13 26  1  0  0  0  0
 14 15  1  0  0  0  0
 14 27  1  0  0  0  0
 14 28  1  0  0  0  0
 15 16  1  0  0  0  0
 16 17  1  0  0  0  0
 16 19  1  1  0  0  0
 17 18  1  0  0  0  0
 17 29  1  0  0  0  0
 17 30  1  0  0  0  0
 18 31  1  0  0  0  0
 18 32  1  0  0  0  0
M  END
>  <DRUGBANK_ID>
DB08781

>  <COMMON_NAME>
1-[(2S)-4-(5-BROMO-1H-PYRAZOLO[3,4-B]PYRIDIN-4-YL)MORPHOLIN-2-YL]METHANAMINE

$$$$
