
 OpenBabel10282417072D

 61 64  0  0  1  0  0  0  0  0999 V2000
   -1.2197  -10.0208    0.0000 C   0  0  0  0  0  0  0  0  0  0  0  0
   -1.2197   -9.1958    0.0000 O   0  0  0  0  0  0  0  0  0  0  0  0
   -1.9341   -8.7833    0.0000 C   0  0  0  0  0  0  0  0  0  0  0  0
   -1.9341   -7.9583    0.0000 C   0  0  2  0  0  0  0  0  0  0  0  0
   -1.2197   -7.5458    0.0000 C   0  0  0  0  0  0  0  0  0  0  0  0
   -2.6486   -7.5458    0.0000 O   0  0  0  0  0  0  0  0  0  0  0  0
   -2.6486   -6.7208    0.0000 C   0  0  0  0  0  0  0  0  0  0  0  0
   -3.3631   -6.3083    0.0000 C   0  0  0  0  0  0  0  0  0  0  0  0
   -3.3631   -5.4833    0.0000 C   0  0  0  0  0  0  0  0  0  0  0  0
   -2.6486   -5.0708    0.0000 C   0  0  0  0  0  0  0  0  0  0  0  0
   -1.9341   -5.4833    0.0000 C   0  0  0  0  0  0  0  0  0  0  0  0
   -1.2197   -5.0708    0.0000 O   0  0  0  0  0  0  0  0  0  0  0  0
   -0.5052   -5.4833    0.0000 C   0  0  0  0  0  0  0  0  0  0  0  0
    0.2093   -5.0708    0.0000 N   0  0  0  0  0  0  0  0  0  0  0  0
    0.9237   -5.4833    0.0000 C   0  0  0  0  0  0  0  0  0  0  0  0
    0.9237   -6.3083    0.0000 C   0  0  0  0  0  0  0  0  0  0  0  0
    0.2093   -6.7208    0.0000 N   0  0  0  0  0  0  0  0  0  0  0  0
   -0.5052   -6.3083    0.0000 C   0  0  0  0  0  0  0  0  0  0  0  0
    1.6382   -6.7208    0.0000 C   0  0  0  0  0  0  0  0  0  0  0  0
    2.3527   -6.3083    0.0000 O   0  0  0  0  0  0  0  0  0  0  0  0
    1.6382   -7.5458    0.0000 N   0  0  0  0  0  0  0  0  0  0  0  0
    2.2216   -8.1292    0.0000 C   0  0  0  0  0  0  0  0  0  0  0  0
    1.6382   -8.7125    0.0000 C   0  0  0  0  0  0  0  0  0  0  0  0
    1.0548   -8.1292    0.0000 C   0  0  0  0  0  0  0  0  0  0  0  0
   -1.9341   -6.3083    0.0000 C   0  0  0  0  0  0  0  0  0  0  0  0
   -4.0776   -5.0708    0.0000 C   0  0  0  0  0  0  0  0  0  0  0  0
   -4.0776   -4.2458    0.0000 O   0  0  0  0  0  0  0  0  0  0  0  0
   -4.7920   -5.4833    0.0000 N   0  0  0  0  0  0  0  0  0  0  0  0
   -5.5065   -5.0708    0.0000 C   0  0  0  0  0  0  0  0  0  0  0  0
   -6.2210   -5.4833    0.0000 N   0  0  0  0  0  0  0  0  0  0  0  0
   -6.9354   -5.0708    0.0000 C   0  0  0  0  0  0  0  0  0  0  0  0
   -6.9354   -4.2458    0.0000 C   0  0  0  0  0  0  0  0  0  0  0  0
   -7.6499   -3.8333    0.0000 C   0  0  0  0  0  0  0  0  0  0  0  0
   -6.2210   -3.8333    0.0000 N   0  0  0  0  0  0  0  0  0  0  0  0
   -5.5065   -4.2458    0.0000 C   0  0  0  0  0  0  0  0  0  0  0  0
   -2.1463  -10.5558    0.0000 H   0  0  0  0  0  0  0  0  0  0  0  0
   -0.2931  -10.5558    0.0000 H   0  0  0  0  0  0  0  0  0  0  0  0
   -1.2197  -11.0908    0.0000 H   0  0  0  0  0  0  0  0  0  0  0  0
   -2.8608   -9.3183    0.0000 H   0  0  0  0  0  0  0  0  0  0  0  0
   -2.8607   -8.2483    0.0000 H   0  0  0  0  0  0  0  0  0  0  0  0
   -1.0074   -8.4933    0.0000 H   0  0  0  0  0  0  0  0  0  0  0  0
   -0.2930   -8.0808    0.0000 H   0  0  0  0  0  0  0  0  0  0  0  0
   -1.2197   -6.4758    0.0000 H   0  0  0  0  0  0  0  0  0  0  0  0
   -0.2931   -7.0108    0.0000 H   0  0  0  0  0  0  0  0  0  0  0  0
   -4.2568   -6.8243    0.0000 H   0  0  0  0  0  0  0  0  0  0  0  0
   -2.6486   -4.0388    0.0000 H   0  0  0  0  0  0  0  0  0  0  0  0
    1.8174   -4.9673    0.0000 H   0  0  0  0  0  0  0  0  0  0  0  0
   -1.3989   -6.8243    0.0000 H   0  0  0  0  0  0  0  0  0  0  0  0
    3.2916   -8.1292    0.0000 H   0  0  0  0  0  0  0  0  0  0  0  0
    2.6310   -9.1178    0.0000 H   0  0  0  0  0  0  0  0  0  0  0  0
    1.6382   -9.7825    0.0000 H   0  0  0  0  0  0  0  0  0  0  0  0
    0.6497   -9.1220    0.0000 H   0  0  0  0  0  0  0  0  0  0  0  0
   -0.0152   -8.1292    0.0000 H   0  0  0  0  0  0  0  0  0  0  0  0
    0.6453   -7.1407    0.0000 H   0  0  0  0  0  0  0  0  0  0  0  0
   -1.0404   -6.8243    0.0000 H   0  0  0  0  0  0  0  0  0  0  0  0
   -4.7920   -6.4678    0.0000 H   0  0  0  0  0  0  0  0  0  0  0  0
   -7.8291   -5.5868    0.0000 H   0  0  0  0  0  0  0  0  0  0  0  0
   -7.6499   -2.7633    0.0000 H   0  0  0  0  0  0  0  0  0  0  0  0
   -8.5765   -4.3683    0.0000 H   0  0  0  0  0  0  0  0  0  0  0  0
   -8.5766   -3.2983    0.0000 H   0  0  0  0  0  0  0  0  0  0  0  0
   -4.6128   -3.7298    0.0000 H   0  0  0  0  0  0  0  0  0  0  0  0
  1  2  1  0  0  0  0
  1 36  1  0  0  0  0
  1 37  1  0  0  0  0
  1 38  1  0  0  0  0
  2  3  1  0  0  0  0
  3 39  1  0  0  0  0
  3 40  1  0  0  0  0
  4  3  1  0  0  0  0
  4  5  1  0  0  0  0
  4  6  1  0  0  0  0
  4 41  1  6  0  0  0
  5 42  1  0  0  0  0
  5 43  1  0  0  0  0
  5 44  1  0  0  0  0
  6  7  1  0  0  0  0
  7  8  2  0  0  0  0
  7 25  1  0  0  0  0
  8  9  1  0  0  0  0
  8 45  1  0  0  0  0
  9 10  2  0  0  0  0
  9 26  1  0  0  0  0
 10 11  1  0  0  0  0
 10 46  1  0  0  0  0
 11 12  1  0  0  0  0
 11 25  2  0  0  0  0
 12 13  1  0  0  0  0
 13 14  2  0  0  0  0
 13 18  1  0  0  0  0
 14 15  1  0  0  0  0
 15 16  2  0  0  0  0
 15 47  1  0  0  0  0
 16 17  1  0  0  0  0
 16 19  1  0  0  0  0
 17 18  2  0  0  0  0
 18 48  1  0  0  0  0
 19 20  2  0  0  0  0
 19 21  1  0  0  0  0
 21 22  1  0  0  0  0
 21 24  1  0  0  0  0
 22 23  1  0  0  0  0
 22 49  1  0  0  0  0
 22 50  1  0  0  0  0
 23 24  1  0  0  0  0
 23 51  1  0  0  0  0
 23 52  1  0  0  0  0
 24 53  1  0  0  0  0
 24 54  1  0  0  0  0
 25 55  1  0  0  0  0
 26 27  2  0  0  0  0
 26 28  1  0  0  0  0
 28 29  1  0  0  0  0
 28 56  1  0  0  0  0
 29 30  2  0  0  0  0
 29 35  1  0  0  0  0
 30 31  1  0  0  0  0
 31 32  2  0  0  0  0
 31 57  1  0  0  0  0
 32 33  1  0  0  0  0
 32 34  1  0  0  0  0
 33 58  1  0  0  0  0
 33 59  1  0  0  0  0
 33 60  1  0  0  0  0
 34 35  2  0  0  0  0
 35 61  1  0  0  0  0
M  END
>  <DRUGBANK_ID>
DB14810

>  <COMMON_NAME>
AZD-1656

>  <CAS_NUMBER>
919783-22-5

>  <UNII>
660M185X4D

$$$$
