
 OpenBabel10282417072D

 54 56  0  0  0  0  0  0  0  0999 V2000
   -4.2868    0.8250    0.0000 C   0  0  0  0  0  0  0  0  0  0  0  0
   -4.2868   -0.0000    0.0000 C   0  0  0  0  0  0  0  0  0  0  0  0
   -5.0013   -0.4125    0.0000 O   0  0  0  0  0  0  0  0  0  0  0  0
   -5.0013   -1.2375    0.0000 C   0  0  0  0  0  0  0  0  0  0  0  0
   -4.2868   -1.6500    0.0000 C   0  0  0  0  0  0  0  0  0  0  0  0
   -4.2868   -2.4750    0.0000 C   0  0  0  0  0  0  0  0  0  0  0  0
   -5.0013   -2.8875    0.0000 C   0  0  0  0  0  0  0  0  0  0  0  0
   -5.7158   -2.4750    0.0000 C   0  0  0  0  0  0  0  0  0  0  0  0
   -5.7158   -1.6500    0.0000 C   0  0  0  0  0  0  0  0  0  0  0  0
   -6.4302   -1.2375    0.0000 C   0  0  0  0  0  0  0  0  0  0  0  0
   -7.1447   -1.6500    0.0000 O   0  0  0  0  0  0  0  0  0  0  0  0
   -6.4302   -0.4125    0.0000 N   0  0  0  0  0  0  0  0  0  0  0  0
   -7.1447   -0.0000    0.0000 C   0  0  0  0  0  0  0  0  0  0  0  0
   -7.1447    0.8250    0.0000 C   0  0  3  0  0  0  0  0  0  0  0  0
   -7.8592    1.2375    0.0000 C   0  0  0  0  0  0  0  0  0  0  0  0
   -7.8592    2.0625    0.0000 N   0  0  0  0  0  0  0  0  0  0  0  0
   -7.1447    2.4750    0.0000 C   0  0  0  0  0  0  0  0  0  0  0  0
   -6.4302    2.0625    0.0000 C   0  0  0  0  0  0  0  0  0  0  0  0
   -6.4302    1.2375    0.0000 O   0  0  0  0  0  0  0  0  0  0  0  0
   -8.5737    2.4750    0.0000 C   0  0  0  0  0  0  0  0  0  0  0  0
   -9.2881    2.0625    0.0000 C   0  0  0  0  0  0  0  0  0  0  0  0
   -9.2881    1.2375    0.0000 C   0  0  0  0  0  0  0  0  0  0  0  0
  -10.0026    0.8250    0.0000 C   0  0  0  0  0  0  0  0  0  0  0  0
  -10.7171    1.2375    0.0000 C   0  0  0  0  0  0  0  0  0  0  0  0
  -10.7171    2.0625    0.0000 C   0  0  0  0  0  0  0  0  0  0  0  0
  -10.0026    2.4750    0.0000 C   0  0  0  0  0  0  0  0  0  0  0  0
  -11.4315    0.8250    0.0000 F   0  0  0  0  0  0  0  0  0  0  0  0
   -5.0013   -3.7125    0.0000 Cl  0  0  0  0  0  0  0  0  0  0  0  0
   -3.5724   -2.8875    0.0000 N   0  0  0  0  0  0  0  0  0  0  0  0
   -3.3602    1.3600    0.0000 H   0  0  0  0  0  0  0  0  0  0  0  0
   -5.2134    1.3600    0.0000 H   0  0  0  0  0  0  0  0  0  0  0  0
   -4.2868    1.8950    0.0000 H   0  0  0  0  0  0  0  0  0  0  0  0
   -3.3602   -0.5350    0.0000 H   0  0  0  0  0  0  0  0  0  0  0  0
   -4.2868   -1.0700    0.0000 H   0  0  0  0  0  0  0  0  0  0  0  0
   -3.3931   -1.1340    0.0000 H   0  0  0  0  0  0  0  0  0  0  0  0
   -6.6095   -2.9910    0.0000 H   0  0  0  0  0  0  0  0  0  0  0  0
   -5.5776    0.0798    0.0000 H   0  0  0  0  0  0  0  0  0  0  0  0
   -8.0713   -0.5350    0.0000 H   0  0  0  0  0  0  0  0  0  0  0  0
   -8.0713    0.5350    0.0000 H   0  0  0  0  0  0  0  0  0  0  0  0
   -8.0713    0.2900    0.0000 H   0  0  0  0  0  0  0  0  0  0  0  0
   -8.7858    0.7025    0.0000 H   0  0  0  0  0  0  0  0  0  0  0  0
   -8.7858    1.7725    0.0000 H   0  0  0  0  0  0  0  0  0  0  0  0
   -7.1447    3.5450    0.0000 H   0  0  0  0  0  0  0  0  0  0  0  0
   -6.2181    3.0100    0.0000 H   0  0  0  0  0  0  0  0  0  0  0  0
   -5.5036    2.5975    0.0000 H   0  0  0  0  0  0  0  0  0  0  0  0
   -5.5036    1.5275    0.0000 H   0  0  0  0  0  0  0  0  0  0  0  0
   -8.5737    3.5450    0.0000 H   0  0  0  0  0  0  0  0  0  0  0  0
   -9.5004    3.0100    0.0000 H   0  0  0  0  0  0  0  0  0  0  0  0
   -8.3944    0.7215    0.0000 H   0  0  0  0  0  0  0  0  0  0  0  0
  -10.0026   -0.2070    0.0000 H   0  0  0  0  0  0  0  0  0  0  0  0
  -11.6108    2.5785    0.0000 H   0  0  0  0  0  0  0  0  0  0  0  0
  -10.0026    3.5070    0.0000 H   0  0  0  0  0  0  0  0  0  0  0  0
   -3.5724   -3.8720    0.0000 H   0  0  0  0  0  0  0  0  0  0  0  0
   -2.7198   -2.3953    0.0000 H   0  0  0  0  0  0  0  0  0  0  0  0
  1  2  1  0  0  0  0
  1 30  1  0  0  0  0
  1 31  1  0  0  0  0
  1 32  1  0  0  0  0
  2  3  1  0  0  0  0
  2 33  1  0  0  0  0
  2 34  1  0  0  0  0
  3  4  1  0  0  0  0
  4  5  2  0  0  0  0
  4  9  1  0  0  0  0
  5  6  1  0  0  0  0
  5 35  1  0  0  0  0
  6  7  2  0  0  0  0
  6 29  1  0  0  0  0
  7  8  1  0  0  0  0
  7 28  1  0  0  0  0
  8  9  2  0  0  0  0
  8 36  1  0  0  0  0
  9 10  1  0  0  0  0
 10 11  2  0  0  0  0
 10 12  1  0  0  0  0
 12 13  1  0  0  0  0
 12 37  1  0  0  0  0
 13 14  1  0  0  0  0
 13 38  1  0  0  0  0
 13 39  1  0  0  0  0
 14 15  1  0  0  0  0
 14 19  1  0  0  0  0
 14 40  1  0  0  0  0
 15 16  1  0  0  0  0
 15 41  1  0  0  0  0
 15 42  1  0  0  0  0
 16 17  1  0  0  0  0
 16 20  1  0  0  0  0
 17 18  1  0  0  0  0
 17 43  1  0  0  0  0
 17 44  1  0  0  0  0
 18 19  1  0  0  0  0
 18 45  1  0  0  0  0
 18 46  1  0  0  0  0
 20 21  1  0  0  0  0
 20 47  1  0  0  0  0
 20 48  1  0  0  0  0
 21 22  2  0  0  0  0
 21 26  1  0  0  0  0
 22 23  1  0  0  0  0
 22 49  1  0  0  0  0
 23 24  2  0  0  0  0
 23 50  1  0  0  0  0
 24 25  1  0  0  0  0
 24 27  1  0  0  0  0
 25 26  2  0  0  0  0
 25 51  1  0  0  0  0
 26 52  1  0  0  0  0
 29 53  1  0  0  0  0
 29 54  1  0  0  0  0
M  END
>  <DRUGBANK_ID>
DB11675

>  <COMMON_NAME>
Mosapride

>  <CAS_NUMBER>
112885-41-3

>  <UNII>
I8MFJ1C0BY

>  <SYNONYMS>
Mosapride

$$$$
