
 OpenBabel10282417072D

 44 45  0  0  0  0  0  0  0  0999 V2000
    0.1767   -1.9943    0.0000 P   0  0  1  0  0  0  0  0  0  0  0  0
    1.4822   -2.5755    0.0000 P   0  0  2  0  0  0  0  0  0  0  0  0
    2.7877   -3.1568    0.0000 P   0  0  0  0  0  0  0  0  0  0  0  0
   -1.3586    0.0391    0.0000 O   0  0  0  0  0  0  0  0  0  0  0  0
   -2.9236   -1.4130    0.0000 O   0  0  0  0  0  0  0  0  0  0  0  0
   -0.3081   -1.3268    0.0000 O   0  0  0  0  0  0  0  0  0  0  0  0
   -3.4552    1.3491    0.0000 O   0  0  0  0  0  0  0  0  0  0  0  0
    0.8442   -1.5093    0.0000 O   0  0  0  0  0  0  0  0  0  0  0  0
   -0.4907   -2.4792    0.0000 O   0  0  0  0  0  0  0  0  0  0  0  0
    2.3028   -2.4892    0.0000 O   0  0  0  0  0  0  0  0  0  0  0  0
   -2.0261    3.8242    0.0000 O   0  0  0  0  0  0  0  0  0  0  0  0
    1.5685   -3.3960    0.0000 O   0  0  0  0  0  0  0  0  0  0  0  0
    1.3959   -1.7549    0.0000 O   0  0  0  0  0  0  0  0  0  0  0  0
    3.4552   -2.6718    0.0000 O   0  0  0  0  0  0  0  0  0  0  0  0
    3.2726   -3.8242    0.0000 O   0  0  0  0  0  0  0  0  0  0  0  0
    2.1202   -3.6417    0.0000 O   0  0  0  0  0  0  0  0  0  0  0  0
   -2.0261    1.3491    0.0000 N   0  0  0  0  0  0  0  0  0  0  0  0
   -2.7407    2.5867    0.0000 N   0  0  0  0  0  0  0  0  0  0  0  0
    0.6616   -2.6617    0.0000 N   0  0  0  0  0  0  0  0  0  0  0  0
   -2.4386   -0.7456    0.0000 C   0  0  2  0  0  0  0  0  0  0  0  0
   -1.6136   -0.7456    0.0000 C   0  0  1  0  0  0  0  0  0  0  0  0
   -2.6937    0.0391    0.0000 C   0  0  0  0  0  0  0  0  0  0  0  0
   -2.0261    0.5240    0.0000 C   0  0  1  0  0  0  0  0  0  0  0  0
   -1.1287   -1.4130    0.0000 C   0  0  0  0  0  0  0  0  0  0  0  0
   -2.7407    1.7616    0.0000 C   0  0  0  0  0  0  0  0  0  0  0  0
   -1.3116    1.7616    0.0000 C   0  0  0  0  0  0  0  0  0  0  0  0
   -1.3116    2.5867    0.0000 C   0  0  0  0  0  0  0  0  0  0  0  0
   -2.0261    2.9992    0.0000 C   0  0  0  0  0  0  0  0  0  0  0  0
   -3.1837    2.8424    0.0000 H   0  0  0  0  0  0  0  0  0  0  0  0
    0.4536   -3.1290    0.0000 H   0  0  0  0  0  0  0  0  0  0  0  0
   -3.8883   -1.3115    0.0000 H   0  0  0  0  0  0  0  0  0  0  0  0
    1.7304   -1.9038    0.0000 H   0  0  0  0  0  0  0  0  0  0  0  0
    0.7838   -3.9662    0.0000 H   0  0  0  0  0  0  0  0  0  0  0  0
    4.3414   -3.0663    0.0000 H   0  0  0  0  0  0  0  0  0  0  0  0
    2.8781   -4.7103    0.0000 H   0  0  0  0  0  0  0  0  0  0  0  0
   -1.9529   -1.6990    0.0000 H   0  0  0  0  0  0  0  0  0  0  0  0
   -0.5568   -0.5782    0.0000 H   0  0  0  0  0  0  0  0  0  0  0  0
   -3.7113    0.3697    0.0000 H   0  0  0  0  0  0  0  0  0  0  0  0
   -2.8610    1.0959    0.0000 H   0  0  0  0  0  0  0  0  0  0  0  0
   -1.0727    1.0098    0.0000 H   0  0  0  0  0  0  0  0  0  0  0  0
   -1.5639   -2.3905    0.0000 H   0  0  0  0  0  0  0  0  0  0  0  0
   -2.1928   -1.5248    0.0000 H   0  0  0  0  0  0  0  0  0  0  0  0
   -0.4179    1.2456    0.0000 H   0  0  0  0  0  0  0  0  0  0  0  0
   -0.4179    3.1027    0.0000 H   0  0  0  0  0  0  0  0  0  0  0  0
  1  6  1  0  0  0  0
  1  8  1  0  0  0  0
  1  9  2  1  0  0  0
  1 19  1  0  0  0  0
  2 10  1  0  0  0  0
  2 12  1  0  0  0  0
  2 13  2  6  0  0  0
  2 19  1  0  0  0  0
  3 10  1  0  0  0  0
  3 14  1  0  0  0  0
  3 15  1  0  0  0  0
  3 16  2  0  0  0  0
  4 21  1  0  0  0  0
  4 23  1  0  0  0  0
  5 31  1  0  0  0  0
  6 24  1  0  0  0  0
  7 25  2  0  0  0  0
  8 32  1  0  0  0  0
 11 28  2  0  0  0  0
 12 33  1  0  0  0  0
 14 34  1  0  0  0  0
 15 35  1  0  0  0  0
 17 25  1  0  0  0  0
 17 26  1  0  0  0  0
 18 25  1  0  0  0  0
 18 28  1  0  0  0  0
 18 29  1  0  0  0  0
 19 30  1  0  0  0  0
 20  5  1  0  0  0  0
 20 21  1  0  0  0  0
 20 22  1  0  0  0  0
 20 36  1  6  0  0  0
 21 24  1  0  0  0  0
 21 37  1  1  0  0  0
 22 23  1  0  0  0  0
 22 38  1  0  0  0  0
 22 39  1  0  0  0  0
 23 17  1  0  0  0  0
 23 40  1  1  0  0  0
 24 41  1  0  0  0  0
 24 42  1  0  0  0  0
 26 27  2  0  0  0  0
 26 43  1  0  0  0  0
 27 28  1  0  0  0  0
 27 44  1  0  0  0  0
M  END
>  <DRUGBANK_ID>
DB01965

>  <SECONDARY_ACCESSION_NUMBERS>
EXPT01299

>  <COMMON_NAME>
2'-Deoxyuridine 5'-alpha,beta-imido-triphosphate

$$$$
