
 OpenBabel10282417072D

 65 64  0  0  0  0  0  0  0  0999 V2000
   14.1355    8.9862    0.0000 C   0  0  0  0  0  0  0  0  0  0  0  0
   14.8500    8.5737    0.0000 C   0  0  0  0  0  0  0  0  0  0  0  0
   15.5645    8.9862    0.0000 O   0  0  0  0  0  0  0  0  0  0  0  0
   16.2789    8.5737    0.0000 C   0  0  0  0  0  0  0  0  0  0  0  0
   16.9934    8.9862    0.0000 C   0  0  0  0  0  0  0  0  0  0  0  0
   17.7079    8.5737    0.0000 O   0  0  0  0  0  0  0  0  0  0  0  0
   18.4224    8.9862    0.0000 C   0  0  0  0  0  0  0  0  0  0  0  0
   19.1368    8.5737    0.0000 C   0  0  0  0  0  0  0  0  0  0  0  0
   19.8513    8.9862    0.0000 O   0  0  0  0  0  0  0  0  0  0  0  0
   20.5658    8.5737    0.0000 C   0  0  0  0  0  0  0  0  0  0  0  0
   21.2802    8.9862    0.0000 C   0  0  0  0  0  0  0  0  0  0  0  0
   21.9947    8.5737    0.0000 O   0  0  0  0  0  0  0  0  0  0  0  0
   22.7092    8.9862    0.0000 C   0  0  0  0  0  0  0  0  0  0  0  0
   23.4237    8.5737    0.0000 C   0  0  0  0  0  0  0  0  0  0  0  0
   24.1381    8.9862    0.0000 O   0  0  0  0  0  0  0  0  0  0  0  0
   24.8526    8.5737    0.0000 C   0  0  0  0  0  0  0  0  0  0  0  0
   25.5671    8.9862    0.0000 C   0  0  0  0  0  0  0  0  0  0  0  0
   26.2815    8.5737    0.0000 O   0  0  0  0  0  0  0  0  0  0  0  0
   26.9960    8.9862    0.0000 C   0  0  0  0  0  0  0  0  0  0  0  0
   27.7105    8.5737    0.0000 C   0  0  0  0  0  0  0  0  0  0  0  0
   28.4249    8.9862    0.0000 O   0  0  0  0  0  0  0  0  0  0  0  0
   29.1394    8.5737    0.0000 C   0  0  0  0  0  0  0  0  0  0  0  0
   29.8539    8.9862    0.0000 C   0  0  0  0  0  0  0  0  0  0  0  0
   30.5684    8.5737    0.0000 O   0  0  0  0  0  0  0  0  0  0  0  0
   31.2828    8.9862    0.0000 C   0  0  0  0  0  0  0  0  0  0  0  0
   31.9973    8.5737    0.0000 C   0  0  0  0  0  0  0  0  0  0  0  0
   32.7118    8.9862    0.0000 O   0  0  0  0  0  0  0  0  0  0  0  0
   14.1355   10.0562    0.0000 H   0  0  0  0  0  0  0  0  0  0  0  0
   13.2089    8.4512    0.0000 H   0  0  0  0  0  0  0  0  0  0  0  0
   13.2088    9.5212    0.0000 H   0  0  0  0  0  0  0  0  0  0  0  0
   14.8500    7.5037    0.0000 H   0  0  0  0  0  0  0  0  0  0  0  0
   15.7766    8.0387    0.0000 H   0  0  0  0  0  0  0  0  0  0  0  0
   16.2789    7.5037    0.0000 H   0  0  0  0  0  0  0  0  0  0  0  0
   17.2055    8.0387    0.0000 H   0  0  0  0  0  0  0  0  0  0  0  0
   16.9934   10.0562    0.0000 H   0  0  0  0  0  0  0  0  0  0  0  0
   17.9200    9.5212    0.0000 H   0  0  0  0  0  0  0  0  0  0  0  0
   18.4224   10.0562    0.0000 H   0  0  0  0  0  0  0  0  0  0  0  0
   19.3491    9.5212    0.0000 H   0  0  0  0  0  0  0  0  0  0  0  0
   19.1368    7.5037    0.0000 H   0  0  0  0  0  0  0  0  0  0  0  0
   20.0634    8.0387    0.0000 H   0  0  0  0  0  0  0  0  0  0  0  0
   20.5658    7.5037    0.0000 H   0  0  0  0  0  0  0  0  0  0  0  0
   21.4925    8.0387    0.0000 H   0  0  0  0  0  0  0  0  0  0  0  0
   21.2802   10.0562    0.0000 H   0  0  0  0  0  0  0  0  0  0  0  0
   22.2068    9.5212    0.0000 H   0  0  0  0  0  0  0  0  0  0  0  0
   22.7092   10.0562    0.0000 H   0  0  0  0  0  0  0  0  0  0  0  0
   23.6358    9.5212    0.0000 H   0  0  0  0  0  0  0  0  0  0  0  0
   23.4237    7.5037    0.0000 H   0  0  0  0  0  0  0  0  0  0  0  0
   24.3504    8.0387    0.0000 H   0  0  0  0  0  0  0  0  0  0  0  0
   24.8526    7.5037    0.0000 H   0  0  0  0  0  0  0  0  0  0  0  0
   25.7792    8.0387    0.0000 H   0  0  0  0  0  0  0  0  0  0  0  0
   25.5671   10.0562    0.0000 H   0  0  0  0  0  0  0  0  0  0  0  0
   26.4938    9.5212    0.0000 H   0  0  0  0  0  0  0  0  0  0  0  0
   26.9960   10.0562    0.0000 H   0  0  0  0  0  0  0  0  0  0  0  0
   27.9226    9.5212    0.0000 H   0  0  0  0  0  0  0  0  0  0  0  0
   27.7105    7.5037    0.0000 H   0  0  0  0  0  0  0  0  0  0  0  0
   28.6372    8.0387    0.0000 H   0  0  0  0  0  0  0  0  0  0  0  0
   29.1394    7.5037    0.0000 H   0  0  0  0  0  0  0  0  0  0  0  0
   30.0660    8.0387    0.0000 H   0  0  0  0  0  0  0  0  0  0  0  0
   29.8539   10.0562    0.0000 H   0  0  0  0  0  0  0  0  0  0  0  0
   30.7805    9.5212    0.0000 H   0  0  0  0  0  0  0  0  0  0  0  0
   31.2828   10.0562    0.0000 H   0  0  0  0  0  0  0  0  0  0  0  0
   32.2094    9.5212    0.0000 H   0  0  0  0  0  0  0  0  0  0  0  0
   31.9973    7.5037    0.0000 H   0  0  0  0  0  0  0  0  0  0  0  0
   32.9239    8.0387    0.0000 H   0  0  0  0  0  0  0  0  0  0  0  0
   33.5518    8.5012    0.0000 H   0  0  0  0  0  0  0  0  0  0  0  0
  1  2  1  0  0  0  0
  1 28  1  0  0  0  0
  1 29  1  0  0  0  0
  1 30  1  0  0  0  0
  2  3  1  0  0  0  0
  2 31  1  0  0  0  0
  2 32  1  0  0  0  0
  3  4  1  0  0  0  0
  4  5  1  0  0  0  0
  4 33  1  0  0  0  0
  4 34  1  0  0  0  0
  5  6  1  0  0  0  0
  5 35  1  0  0  0  0
  5 36  1  0  0  0  0
  6  7  1  0  0  0  0
  7  8  1  0  0  0  0
  7 37  1  0  0  0  0
  7 38  1  0  0  0  0
  8  9  1  0  0  0  0
  8 39  1  0  0  0  0
  8 40  1  0  0  0  0
  9 10  1  0  0  0  0
 10 11  1  0  0  0  0
 10 41  1  0  0  0  0
 10 42  1  0  0  0  0
 11 12  1  0  0  0  0
 11 43  1  0  0  0  0
 11 44  1  0  0  0  0
 12 13  1  0  0  0  0
 13 14  1  0  0  0  0
 13 45  1  0  0  0  0
 13 46  1  0  0  0  0
 14 15  1  0  0  0  0
 14 47  1  0  0  0  0
 14 48  1  0  0  0  0
 15 16  1  0  0  0  0
 16 17  1  0  0  0  0
 16 49  1  0  0  0  0
 16 50  1  0  0  0  0
 17 18  1  0  0  0  0
 17 51  1  0  0  0  0
 17 52  1  0  0  0  0
 18 19  1  0  0  0  0
 19 20  1  0  0  0  0
 19 53  1  0  0  0  0
 19 54  1  0  0  0  0
 20 21  1  0  0  0  0
 20 55  1  0  0  0  0
 20 56  1  0  0  0  0
 21 22  1  0  0  0  0
 22 23  1  0  0  0  0
 22 57  1  0  0  0  0
 22 58  1  0  0  0  0
 23 24  1  0  0  0  0
 23 59  1  0  0  0  0
 23 60  1  0  0  0  0
 24 25  1  0  0  0  0
 25 26  1  0  0  0  0
 25 61  1  0  0  0  0
 25 62  1  0  0  0  0
 26 27  1  0  0  0  0
 26 63  1  0  0  0  0
 26 64  1  0  0  0  0
 27 65  1  0  0  0  0
M  END
>  <DRUGBANK_ID>
DB03556

>  <SECONDARY_ACCESSION_NUMBERS>
EXPT02539

>  <COMMON_NAME>
2-(2-{2-[2-(2-{2-[2-(2-Ethoxy-Ethoxy)-Ethoxy]-Ethoxy}-Ethoxy)-Ethoxy]-Ethoxy}-Ethoxy)-Ethanol, Polyethyleneglycol Peg400

$$$$
