
 OpenBabel10282417072D

 53 56  0  0  1  0  0  0  0  0999 V2000
    9.5637   -6.0391    0.0000 C   0  0  0  0  0  0  0  0  0  0  0  0
    9.5637   -5.2141    0.0000 C   0  0  0  0  0  0  0  0  0  0  0  0
    8.8539   -4.8079    0.0000 S   0  0  0  0  0  0  0  0  0  0  0  0
    8.8539   -6.4516    0.0000 C   0  0  0  0  0  0  0  0  0  0  0  0
    8.1390   -6.0391    0.0000 N   0  0  0  0  0  0  0  0  0  0  0  0
    8.1390   -5.2141    0.0000 C   0  0  1  0  0  0  0  0  0  0  0  0
    7.3202   -5.2141    0.0000 C   0  0  1  0  0  0  0  0  0  0  0  0
    7.3202   -6.0391    0.0000 C   0  0  0  0  0  0  0  0  0  0  0  0
    8.8539   -7.2765    0.0000 C   0  0  0  0  0  0  0  0  0  0  0  0
    8.1390   -7.6894    0.0000 O   0  0  0  0  0  0  0  0  0  0  0  0
    9.5637   -7.6894    0.0000 O   0  0  0  0  0  0  0  0  0  0  0  0
    6.6052   -6.4516    0.0000 O   0  0  0  0  0  0  0  0  0  0  0  0
    6.6052   -4.8079    0.0000 N   0  0  0  0  0  0  0  0  0  0  0  0
    7.3202   -4.3953    0.0000 O   0  0  0  0  0  0  0  0  0  0  0  0
    6.6053   -3.9829    0.0000 C   0  0  0  0  0  0  0  0  0  0  0  0
    5.8899   -5.2141    0.0000 C   0  0  0  0  0  0  0  0  0  0  0  0
    5.1753   -4.8079    0.0000 C   0  0  3  0  0  0  0  0  0  0  0  0
    5.8899   -6.0391    0.0000 O   0  0  0  0  0  0  0  0  0  0  0  0
    4.9605   -4.0104    0.0000 S   0  0  0  0  0  0  0  0  0  0  0  0
    4.1634   -4.2249    0.0000 C   0  0  0  0  0  0  0  0  0  0  0  0
    4.3775   -5.0223    0.0000 S   0  0  0  0  0  0  0  0  0  0  0  0
    3.4484   -3.8124    0.0000 C   0  0  0  0  0  0  0  0  0  0  0  0
    3.4484   -2.9874    0.0000 C   0  0  0  0  0  0  0  0  0  0  0  0
    2.7334   -4.2249    0.0000 C   0  0  0  0  0  0  0  0  0  0  0  0
    2.7334   -5.0498    0.0000 N   0  0  0  0  0  0  0  0  0  0  0  0
    2.0181   -3.8124    0.0000 O   0  0  0  0  0  0  0  0  0  0  0  0
    4.1634   -2.5746    0.0000 O   0  0  0  0  0  0  0  0  0  0  0  0
    2.7334   -2.5746    0.0000 O   0  0  0  0  0  0  0  0  0  0  0  0
   10.2784   -6.4516    0.0000 C   0  0  0  0  0  0  0  0  0  0  0  0
   10.9934   -6.0391    0.0000 S   0  0  0  0  0  0  0  0  0  0  0  0
   10.9942   -5.2137    0.0000 C   0  0  0  0  0  0  0  0  0  0  0  0
   10.3288   -4.7273    0.0000 N   0  0  0  0  0  0  0  0  0  0  0  0
   10.5860   -3.9418    0.0000 N   0  0  0  0  0  0  0  0  0  0  0  0
   11.4115   -3.9426    0.0000 N   0  0  0  0  0  0  0  0  0  0  0  0
   11.6618   -4.7294    0.0000 N   0  0  0  0  0  0  0  0  0  0  0  0
   12.4472   -4.9862    0.0000 C   0  0  0  0  0  0  0  0  0  0  0  0
    8.1390   -4.3954    0.0000 H   0  0  0  0  0  0  0  0  0  0  0  0
   10.4893   -4.6773    0.0000 H   0  0  0  0  0  0  0  0  0  0  0  0
    9.5606   -4.1441    0.0000 H   0  0  0  0  0  0  0  0  0  0  0  0
    7.3275   -7.2210    0.0000 H   0  0  0  0  0  0  0  0  0  0  0  0
    6.6053   -3.8234    0.0000 H   0  0  0  0  0  0  0  0  0  0  0  0
    6.6049   -2.9129    0.0000 H   0  0  0  0  0  0  0  0  0  0  0  0
    5.6788   -4.5182    0.0000 H   0  0  0  0  0  0  0  0  0  0  0  0
    5.6785   -3.4482    0.0000 H   0  0  0  0  0  0  0  0  0  0  0  0
    4.2481   -4.2738    0.0000 H   0  0  0  0  0  0  0  0  0  0  0  0
    1.8808   -5.5421    0.0000 H   0  0  0  0  0  0  0  0  0  0  0  0
    3.5860   -5.5420    0.0000 H   0  0  0  0  0  0  0  0  0  0  0  0
    4.9749   -3.0431    0.0000 H   0  0  0  0  0  0  0  0  0  0  0  0
   10.2783   -7.5216    0.0000 H   0  0  0  0  0  0  0  0  0  0  0  0
   11.2049   -6.9868    0.0000 H   0  0  0  0  0  0  0  0  0  0  0  0
   12.6677   -6.0332    0.0000 H   0  0  0  0  0  0  0  0  0  0  0  0
   13.2437   -4.2717    0.0000 H   0  0  0  0  0  0  0  0  0  0  0  0
   13.4642   -5.3187    0.0000 H   0  0  0  0  0  0  0  0  0  0  0  0
  1  2  1  0  0  0  0
  1  4  2  0  0  0  0
  1 29  1  0  0  0  0
  2  3  1  0  0  0  0
  2 38  1  0  0  0  0
  2 39  1  0  0  0  0
  3  6  1  0  0  0  0
  4  9  1  0  0  0  0
  5  4  1  0  0  0  0
  5  6  1  0  0  0  0
  6  7  1  0  0  0  0
  6 37  1  6  0  0  0
  7 13  1  0  0  0  0
  7 14  1  6  0  0  0
  7  8  1  0  0  0  0
  8  5  1  0  0  0  0
  8 12  2  0  0  0  0
  9 10  1  0  0  0  0
  9 11  2  0  0  0  0
 10 40  1  0  0  0  0
 13 16  1  0  0  0  0
 13 41  1  0  0  0  0
 14 15  1  0  0  0  0
 15 42  1  0  0  0  0
 15 43  1  0  0  0  0
 15 44  1  0  0  0  0
 16 18  2  0  0  0  0
 16 17  1  0  0  0  0
 17 19  1  0  0  0  0
 17 45  1  0  0  0  0
 19 20  1  0  0  0  0
 20 21  1  0  0  0  0
 20 22  2  0  0  0  0
 21 17  1  0  0  0  0
 22 23  1  0  0  0  0
 22 24  1  0  0  0  0
 23 27  1  0  0  0  0
 23 28  2  0  0  0  0
 24 25  1  0  0  0  0
 24 26  2  0  0  0  0
 25 46  1  0  0  0  0
 25 47  1  0  0  0  0
 27 48  1  0  0  0  0
 29 30  1  0  0  0  0
 29 49  1  0  0  0  0
 29 50  1  0  0  0  0
 30 31  1  0  0  0  0
 31 32  2  0  0  0  0
 32 33  1  0  0  0  0
 33 34  2  0  0  0  0
 34 35  1  0  0  0  0
 35 31  1  0  0  0  0
 35 36  1  0  0  0  0
 36 51  1  0  0  0  0
 36 52  1  0  0  0  0
 36 53  1  0  0  0  0
M  END
>  <DRUGBANK_ID>
DB01330

>  <COMMON_NAME>
Cefotetan

>  <CAS_NUMBER>
69712-56-7

>  <UNII>
48SPP0PA9Q

>  <SYNONYMS>
(6R,7S)-7-(4-(carbamoylcarboxymethylene)-1,3-dithiethane-2-carboxamido)-7-methoxy-3-(((1-methyl-1H-tetrazol-5- yl)thio)methyl)-8-oxo-5-thia-1-azabicyclo(4.2.0)oct-2-ene-2- carboxylic acid; Cefotetan; Cefotetanum

$$$$
