
 OpenBabel10282417072D

 40 41  0  0  0  0  0  0  0  0999 V2000
    5.9369   -2.9035    0.0000 Cl  0  0  0  0  0  0  0  0  0  0  0  0
    7.3659    0.3965    0.0000 S   0  0  0  0  0  0  0  0  0  0  0  0
    4.5079   -2.0785    0.0000 O   0  0  0  0  0  0  0  0  0  0  0  0
    7.0639    2.9035    0.0000 O   0  0  0  0  0  0  0  0  0  0  0  0
    5.9369    0.3965    0.0000 N   0  0  0  0  0  0  0  0  0  0  0  0
    5.9369   -0.4285    0.0000 C   0  0  0  0  0  0  0  0  0  0  0  0
    6.6514    1.6340    0.0000 C   0  0  0  0  0  0  0  0  0  0  0  0
    5.2224   -1.6660    0.0000 C   0  0  0  0  0  0  0  0  0  0  0  0
    5.2224   -0.8410    0.0000 C   0  0  0  0  0  0  0  0  0  0  0  0
    7.3188    2.1190    0.0000 C   0  0  0  0  0  0  0  0  0  0  0  0
    6.6514    0.8090    0.0000 C   0  0  0  0  0  0  0  0  0  0  0  0
    6.6514   -0.8410    0.0000 C   0  0  0  0  0  0  0  0  0  0  0  0
    3.7935   -1.6660    0.0000 C   0  0  0  0  0  0  0  0  0  0  0  0
    5.9369   -2.0785    0.0000 C   0  0  0  0  0  0  0  0  0  0  0  0
    6.6514   -1.6660    0.0000 C   0  0  0  0  0  0  0  0  0  0  0  0
    5.9840    2.1190    0.0000 C   0  0  0  0  0  0  0  0  0  0  0  0
    3.0790   -2.0785    0.0000 C   0  0  0  0  0  0  0  0  0  0  0  0
    2.3645   -1.6660    0.0000 C   0  0  0  0  0  0  0  0  0  0  0  0
    8.1035    1.8640    0.0000 C   0  0  0  0  0  0  0  0  0  0  0  0
    6.2389    2.9035    0.0000 C   0  0  0  0  0  0  0  0  0  0  0  0
    1.6500   -2.0785    0.0000 C   0  0  0  0  0  0  0  0  0  0  0  0
    2.3645   -0.8410    0.0000 C   0  0  0  0  0  0  0  0  0  0  0  0
    5.0843    0.8888    0.0000 H   0  0  0  0  0  0  0  0  0  0  0  0
    4.3287   -0.3250    0.0000 H   0  0  0  0  0  0  0  0  0  0  0  0
    7.5451   -0.3250    0.0000 H   0  0  0  0  0  0  0  0  0  0  0  0
    3.7935   -0.5960    0.0000 H   0  0  0  0  0  0  0  0  0  0  0  0
    2.8669   -1.1310    0.0000 H   0  0  0  0  0  0  0  0  0  0  0  0
    7.5451   -2.1820    0.0000 H   0  0  0  0  0  0  0  0  0  0  0  0
    5.0025    1.8001    0.0000 H   0  0  0  0  0  0  0  0  0  0  0  0
    3.0790   -3.1105    0.0000 H   0  0  0  0  0  0  0  0  0  0  0  0
    8.3259    0.8174    0.0000 H   0  0  0  0  0  0  0  0  0  0  0  0
    8.8987    2.5799    0.0000 H   0  0  0  0  0  0  0  0  0  0  0  0
    9.1211    1.5333    0.0000 H   0  0  0  0  0  0  0  0  0  0  0  0
    5.6323    3.7384    0.0000 H   0  0  0  0  0  0  0  0  0  0  0  0
    0.7234   -1.5435    0.0000 H   0  0  0  0  0  0  0  0  0  0  0  0
    1.6500   -3.1485    0.0000 H   0  0  0  0  0  0  0  0  0  0  0  0
    0.7233   -2.6135    0.0000 H   0  0  0  0  0  0  0  0  0  0  0  0
    3.2911   -0.3060    0.0000 H   0  0  0  0  0  0  0  0  0  0  0  0
    1.4379   -0.3060    0.0000 H   0  0  0  0  0  0  0  0  0  0  0  0
    2.3645    0.2290    0.0000 H   0  0  0  0  0  0  0  0  0  0  0  0
  1 14  1  0  0  0  0
  2 11  2  0  0  0  0
  3  8  1  0  0  0  0
  3 13  1  0  0  0  0
  4 10  1  0  0  0  0
  4 20  1  0  0  0  0
  5  6  1  0  0  0  0
  5 11  1  0  0  0  0
  5 23  1  0  0  0  0
  6  9  2  0  0  0  0
  6 12  1  0  0  0  0
  7 10  2  0  0  0  0
  7 11  1  0  0  0  0
  7 16  1  0  0  0  0
  8  9  1  0  0  0  0
  8 14  2  0  0  0  0
  9 24  1  0  0  0  0
 10 19  1  0  0  0  0
 12 15  2  0  0  0  0
 12 25  1  0  0  0  0
 13 17  1  0  0  0  0
 13 26  1  0  0  0  0
 13 27  1  0  0  0  0
 14 15  1  0  0  0  0
 15 28  1  0  0  0  0
 16 20  2  0  0  0  0
 16 29  1  0  0  0  0
 17 18  2  0  0  0  0
 17 30  1  0  0  0  0
 18 21  1  0  0  0  0
 18 22  1  0  0  0  0
 19 31  1  0  0  0  0
 19 32  1  0  0  0  0
 19 33  1  0  0  0  0
 20 34  1  0  0  0  0
 21 35  1  0  0  0  0
 21 36  1  0  0  0  0
 21 37  1  0  0  0  0
 22 38  1  0  0  0  0
 22 39  1  0  0  0  0
 22 40  1  0  0  0  0
M  END
>  <DRUGBANK_ID>
DB05871

>  <SECONDARY_ACCESSION_NUMBERS>
DB08679

>  <COMMON_NAME>
UC-781

>  <CAS_NUMBER>
178870-32-1

>  <UNII>
L7K247H29H

$$$$
