
 OpenBabel10282417072D

 75 78  0  0  1  0  0  0  0  0999 V2000
    1.6119   -3.1745    0.0000 C   0  0  0  0  0  0  0  0  0  0  0  0
    1.1270   -2.5070    0.0000 C   0  0  2  0  0  0  0  0  0  0  0  0
    0.3020   -2.5070    0.0000 C   0  0  0  0  0  0  0  0  0  0  0  0
    0.0470   -1.7224    0.0000 N   0  0  0  0  0  0  0  0  0  0  0  0
   -0.7376   -1.4675    0.0000 C   0  0  0  0  0  0  0  0  0  0  0  0
   -1.3507   -2.0195    0.0000 N   0  0  0  0  0  0  0  0  0  0  0  0
   -2.1353   -1.7646    0.0000 C   0  0  0  0  0  0  0  0  0  0  0  0
   -2.3068   -0.9576    0.0000 C   0  0  0  0  0  0  0  0  0  0  0  0
   -1.6937   -0.4056    0.0000 C   0  0  0  0  0  0  0  0  0  0  0  0
   -0.9091   -0.6605    0.0000 C   0  0  0  0  0  0  0  0  0  0  0  0
   -0.2960   -0.1085    0.0000 C   0  0  0  0  0  0  0  0  0  0  0  0
   -0.4675    0.6985    0.0000 O   0  0  0  0  0  0  0  0  0  0  0  0
    0.4886   -0.3634    0.0000 N   0  0  0  0  0  0  0  0  0  0  0  0
    1.1017    0.1886    0.0000 S   0  0  0  0  0  0  0  0  0  0  0  0
    0.5497    0.8017    0.0000 O   0  0  0  0  0  0  0  0  0  0  0  0
    1.6537   -0.4245    0.0000 O   0  0  0  0  0  0  0  0  0  0  0  0
    1.7148    0.7406    0.0000 C   0  0  0  0  0  0  0  0  0  0  0  0
    1.6286    1.5611    0.0000 C   0  0  0  0  0  0  0  0  0  0  0  0
    2.3822    1.8967    0.0000 N   0  0  0  0  0  0  0  0  0  0  0  0
    2.5538    2.7037    0.0000 C   0  0  0  0  0  0  0  0  0  0  0  0
    2.9343    1.2836    0.0000 N   0  0  0  0  0  0  0  0  0  0  0  0
    2.5218    0.5691    0.0000 C   0  0  0  0  0  0  0  0  0  0  0  0
    2.8573   -0.1846    0.0000 C   0  0  0  0  0  0  0  0  0  0  0  0
   -2.7484   -2.3166    0.0000 N   0  0  0  0  0  0  0  0  0  0  0  0
   -2.6622   -3.1371    0.0000 C   0  0  0  0  0  0  0  0  0  0  0  0
   -3.4158   -3.4726    0.0000 C   0  0  0  0  0  0  0  0  0  0  0  0
   -3.9679   -2.8596    0.0000 C   0  0  0  0  0  0  0  0  0  0  0  0
   -4.7884   -2.9458    0.0000 O   0  0  0  0  0  0  0  0  0  0  0  0
   -5.2733   -2.2784    0.0000 C   0  0  0  0  0  0  0  0  0  0  0  0
   -6.0938   -2.3646    0.0000 C   0  0  0  0  0  0  0  0  0  0  0  0
   -6.1800   -1.5441    0.0000 C   0  0  0  0  0  0  0  0  0  0  0  0
   -6.0075   -3.1851    0.0000 C   0  0  0  0  0  0  0  0  0  0  0  0
   -6.9142   -2.4508    0.0000 C   0  0  0  0  0  0  0  0  0  0  0  0
   -7.7347   -2.5371    0.0000 F   0  0  0  0  0  0  0  0  0  0  0  0
   -7.0005   -1.6303    0.0000 F   0  0  0  0  0  0  0  0  0  0  0  0
   -6.8280   -3.2713    0.0000 F   0  0  0  0  0  0  0  0  0  0  0  0
   -3.5554   -2.1451    0.0000 N   0  0  0  0  0  0  0  0  0  0  0  0
    0.7145   -1.2375    0.0000 C   0  0  0  0  0  0  0  0  0  0  0  0
    0.1624   -0.6244    0.0000 C   0  0  0  0  0  0  0  0  0  0  0  0
    1.2665   -0.6244    0.0000 C   0  0  0  0  0  0  0  0  0  0  0  0
    1.3819   -1.7224    0.0000 C   0  0  0  0  0  0  0  0  0  0  0  0
    1.1766   -4.1520    0.0000 H   0  0  0  0  0  0  0  0  0  0  0  0
    2.6760   -3.0627    0.0000 H   0  0  0  0  0  0  0  0  0  0  0  0
    2.2408   -4.0402    0.0000 H   0  0  0  0  0  0  0  0  0  0  0  0
    0.6412   -3.4604    0.0000 H   0  0  0  0  0  0  0  0  0  0  0  0
   -0.3269   -3.3727    0.0000 H   0  0  0  0  0  0  0  0  0  0  0  0
   -0.7548   -2.3397    0.0000 H   0  0  0  0  0  0  0  0  0  0  0  0
   -3.2883   -0.6387    0.0000 H   0  0  0  0  0  0  0  0  0  0  0  0
   -1.9083    0.6038    0.0000 H   0  0  0  0  0  0  0  0  0  0  0  0
    0.6933   -1.3264    0.0000 H   0  0  0  0  0  0  0  0  0  0  0  0
    0.7349    2.0771    0.0000 H   0  0  0  0  0  0  0  0  0  0  0  0
    3.5715    3.0343    0.0000 H   0  0  0  0  0  0  0  0  0  0  0  0
    1.7587    3.4197    0.0000 H   0  0  0  0  0  0  0  0  0  0  0  0
    2.7763    3.7503    0.0000 H   0  0  0  0  0  0  0  0  0  0  0  0
    2.2283   -1.0502    0.0000 H   0  0  0  0  0  0  0  0  0  0  0  0
    3.9214   -0.2965    0.0000 H   0  0  0  0  0  0  0  0  0  0  0  0
    3.2924   -1.1621    0.0000 H   0  0  0  0  0  0  0  0  0  0  0  0
   -1.7685   -3.6531    0.0000 H   0  0  0  0  0  0  0  0  0  0  0  0
   -3.6303   -4.4821    0.0000 H   0  0  0  0  0  0  0  0  0  0  0  0
   -4.8381   -1.3009    0.0000 H   0  0  0  0  0  0  0  0  0  0  0  0
   -5.9022   -1.4127    0.0000 H   0  0  0  0  0  0  0  0  0  0  0  0
   -5.3143   -0.9152    0.0000 H   0  0  0  0  0  0  0  0  0  0  0  0
   -7.1575   -1.1088    0.0000 H   0  0  0  0  0  0  0  0  0  0  0  0
   -6.2918   -0.4800    0.0000 H   0  0  0  0  0  0  0  0  0  0  0  0
   -6.8731   -3.8141    0.0000 H   0  0  0  0  0  0  0  0  0  0  0  0
   -5.0300   -3.6202    0.0000 H   0  0  0  0  0  0  0  0  0  0  0  0
   -5.8956   -4.2492    0.0000 H   0  0  0  0  0  0  0  0  0  0  0  0
    0.4930    0.3932    0.0000 H   0  0  0  0  0  0  0  0  0  0  0  0
   -0.8842   -0.8469    0.0000 H   0  0  0  0  0  0  0  0  0  0  0  0
   -0.5536    0.1707    0.0000 H   0  0  0  0  0  0  0  0  0  0  0  0
    2.3131   -0.8468    0.0000 H   0  0  0  0  0  0  0  0  0  0  0  0
    0.9358    0.3932    0.0000 H   0  0  0  0  0  0  0  0  0  0  0  0
    1.9824    0.1708    0.0000 H   0  0  0  0  0  0  0  0  0  0  0  0
    2.3995   -1.3917    0.0000 H   0  0  0  0  0  0  0  0  0  0  0  0
    2.1385   -2.4790    0.0000 H   0  0  0  0  0  0  0  0  0  0  0  0
  1 42  1  0  0  0  0
  1 43  1  0  0  0  0
  1 44  1  0  0  0  0
  2  1  1  0  0  0  0
  2  3  1  0  0  0  0
  2 41  1  0  0  0  0
  2 45  1  1  0  0  0
  3  4  1  0  0  0  0
  3 46  1  0  0  0  0
  3 47  1  0  0  0  0
  4  5  1  0  0  0  0
  4 38  1  0  0  0  0
  5  6  2  0  0  0  0
  5 10  1  0  0  0  0
  6  7  1  0  0  0  0
  7  8  2  0  0  0  0
  7 24  1  0  0  0  0
  8  9  1  0  0  0  0
  8 48  1  0  0  0  0
  9 10  2  0  0  0  0
  9 49  1  0  0  0  0
 10 11  1  0  0  0  0
 11 12  2  0  0  0  0
 11 13  1  0  0  0  0
 13 14  1  0  0  0  0
 13 50  1  0  0  0  0
 14 15  2  0  0  0  0
 14 16  2  0  0  0  0
 14 17  1  0  0  0  0
 17 18  2  0  0  0  0
 17 22  1  0  0  0  0
 18 19  1  0  0  0  0
 18 51  1  0  0  0  0
 19 20  1  0  0  0  0
 19 21  1  0  0  0  0
 20 52  1  0  0  0  0
 20 53  1  0  0  0  0
 20 54  1  0  0  0  0
 21 22  2  0  0  0  0
 22 23  1  0  0  0  0
 23 55  1  0  0  0  0
 23 56  1  0  0  0  0
 23 57  1  0  0  0  0
 24 25  1  0  0  0  0
 24 37  1  0  0  0  0
 25 26  2  0  0  0  0
 25 58  1  0  0  0  0
 26 27  1  0  0  0  0
 26 59  1  0  0  0  0
 27 28  1  0  0  0  0
 27 37  2  0  0  0  0
 28 29  1  0  0  0  0
 29 30  1  0  0  0  0
 29 60  1  0  0  0  0
 29 61  1  0  0  0  0
 30 31  1  0  0  0  0
 30 32  1  0  0  0  0
 30 33  1  0  0  0  0
 31 62  1  0  0  0  0
 31 63  1  0  0  0  0
 31 64  1  0  0  0  0
 32 65  1  0  0  0  0
 32 66  1  0  0  0  0
 32 67  1  0  0  0  0
 33 34  1  0  0  0  0
 33 35  1  0  0  0  0
 33 36  1  0  0  0  0
 38 39  1  0  0  0  0
 38 40  1  0  0  0  0
 38 41  1  0  0  0  0
 39 68  1  0  0  0  0
 39 69  1  0  0  0  0
 39 70  1  0  0  0  0
 40 71  1  0  0  0  0
 40 72  1  0  0  0  0
 40 73  1  0  0  0  0
 41 74  1  0  0  0  0
 41 75  1  0  0  0  0
M  END
>  <DRUGBANK_ID>
DB15444

>  <COMMON_NAME>
Elexacaftor

>  <CAS_NUMBER>
2216712-66-0

>  <UNII>
RRN67GMB0V

>  <SYNONYMS>
Elexacaftor

$$$$
