DFA
 OpenBabel10282417072D

 28 29  0  0  0  0  0  0  0  0999 V2000
    1.0339    0.7030    0.0000 C   0  0  0  0  0  0  0  0  0  0  0  0
    1.0339    1.5280    0.0000 O   0  0  0  0  0  0  0  0  0  0  0  0
   -1.1095    1.9405    0.0000 C   0  0  0  0  0  0  0  0  0  0  0  0
   -0.3950    1.5280    0.0000 C   0  0  0  0  0  0  0  0  0  0  0  0
   -0.3950    0.7030    0.0000 C   0  0  0  0  0  0  0  0  0  0  0  0
   -1.1095    0.2905    0.0000 C   0  0  0  0  0  0  0  0  0  0  0  0
   -1.8239    0.7030    0.0000 C   0  0  0  0  0  0  0  0  0  0  0  0
   -1.8239    1.5280    0.0000 C   0  0  0  0  0  0  0  0  0  0  0  0
    0.3195   -0.5345    0.0000 C   0  0  0  0  0  0  0  0  0  0  0  0
    1.0339   -0.9470    0.0000 C   0  0  0  0  0  0  0  0  0  0  0  0
    1.0339   -1.7720    0.0000 C   0  0  0  0  0  0  0  0  0  0  0  0
    0.3195   -2.1845    0.0000 C   0  0  0  0  0  0  0  0  0  0  0  0
   -0.3950   -1.7720    0.0000 C   0  0  0  0  0  0  0  0  0  0  0  0
   -0.3950   -0.9470    0.0000 C   0  0  0  0  0  0  0  0  0  0  0  0
    0.3195    0.2905    0.0000 C   0  0  0  0  0  0  0  0  0  0  0  0
    1.7484    0.2905    0.0000 O   0  0  0  0  0  0  0  0  0  0  0  0
   -1.1095    2.9725    0.0000 H   0  0  0  0  0  0  0  0  0  0  0  0
    0.4987    2.0440    0.0000 H   0  0  0  0  0  0  0  0  0  0  0  0
   -1.1095   -0.7415    0.0000 H   0  0  0  0  0  0  0  0  0  0  0  0
   -2.7176    0.1870    0.0000 H   0  0  0  0  0  0  0  0  0  0  0  0
   -2.7176    2.0440    0.0000 H   0  0  0  0  0  0  0  0  0  0  0  0
    1.9276   -0.4310    0.0000 H   0  0  0  0  0  0  0  0  0  0  0  0
    1.9276   -2.2880    0.0000 H   0  0  0  0  0  0  0  0  0  0  0  0
    0.3195   -3.2165    0.0000 H   0  0  0  0  0  0  0  0  0  0  0  0
   -1.2887   -2.2880    0.0000 H   0  0  0  0  0  0  0  0  0  0  0  0
   -1.2887   -0.4310    0.0000 H   0  0  0  0  0  0  0  0  0  0  0  0
   -0.6071   -0.2445    0.0000 H   0  0  0  0  0  0  0  0  0  0  0  0
    1.7484   -0.6465    0.0000 H   0  0  0  0  0  0  0  0  0  0  0  0
  1  2  2  0  0  0  0
  1 15  1  0  0  0  0
  1 16  1  0  0  0  0
  3  4  2  0  0  0  0
  3  8  1  0  0  0  0
  3 17  1  0  0  0  0
  4  5  1  0  0  0  0
  4 18  1  0  0  0  0
  5  6  2  0  0  0  0
  5 15  1  0  0  0  0
  6  7  1  0  0  0  0
  6 19  1  0  0  0  0
  7  8  2  0  0  0  0
  7 20  1  0  0  0  0
  8 21  1  0  0  0  0
  9 10  2  0  0  0  0
  9 14  1  0  0  0  0
  9 15  1  0  0  0  0
 10 11  1  0  0  0  0
 10 22  1  0  0  0  0
 11 12  2  0  0  0  0
 11 23  1  0  0  0  0
 12 13  1  0  0  0  0
 12 24  1  0  0  0  0
 13 14  2  0  0  0  0
 13 25  1  0  0  0  0
 14 26  1  0  0  0  0
 15 27  1  0  0  0  0
 16 28  1  0  0  0  0
M  END
>  <DRUGBANK_ID>
DB03588

>  <SECONDARY_ACCESSION_NUMBERS>
EXPT01167

>  <COMMON_NAME>
Diphenylacetic acid

>  <CAS_NUMBER>
117-34-0

>  <UNII>
658NCZ0NKO

>  <SYNONYMS>
2,2-diphenylacetic acid; Î±-phenylbenzeneacetic acid

$$$$
