CMG
 OpenBabel10282417072D

 35 37  0  0  0  0  0  0  0  0999 V2000
    1.3260   -1.5154    0.0000 N   0  0  0  0  0  0  0  0  0  0  0  0
    1.3260   -2.3404    0.0000 C   0  0  0  0  0  0  0  0  0  0  0  0
    0.6115   -2.7529    0.0000 N   0  0  0  0  0  0  0  0  0  0  0  0
   -0.1030   -2.3404    0.0000 C   0  0  0  0  0  0  0  0  0  0  0  0
   -0.1030   -1.5154    0.0000 C   0  0  0  0  0  0  0  0  0  0  0  0
    0.6115   -1.1029    0.0000 C   0  0  0  0  0  0  0  0  0  0  0  0
    0.6115   -0.2779    0.0000 O   0  0  0  0  0  0  0  0  0  0  0  0
   -0.1030    0.1346    0.0000 C   0  0  0  0  0  0  0  0  0  0  0  0
   -0.8876   -1.2605    0.0000 N   0  0  0  0  0  0  0  0  0  0  0  0
   -1.3725   -1.9279    0.0000 C   0  0  0  0  0  0  0  0  0  0  0  0
   -0.8876   -2.5954    0.0000 N   0  0  0  0  0  0  0  0  0  0  0  0
    2.0404   -2.7529    0.0000 N   0  0  0  0  0  0  0  0  0  0  0  0
   -0.1030    0.9596    0.0000 C   0  0  0  0  0  0  0  0  0  0  0  0
   -0.8174    1.3721    0.0000 C   0  0  0  0  0  0  0  0  0  0  0  0
   -0.8174    2.1971    0.0000 C   0  0  0  0  0  0  0  0  0  0  0  0
   -0.1030    2.6096    0.0000 C   0  0  0  0  0  0  0  0  0  0  0  0
    0.6115    2.1971    0.0000 C   0  0  0  0  0  0  0  0  0  0  0  0
    0.6115    1.3721    0.0000 C   0  0  0  0  0  0  0  0  0  0  0  0
   -1.0296   -0.4004    0.0000 H   0  0  0  0  0  0  0  0  0  0  0  0
   -1.0296    0.6696    0.0000 H   0  0  0  0  0  0  0  0  0  0  0  0
   -2.4045   -1.9279    0.0000 H   0  0  0  0  0  0  0  0  0  0  0  0
   -1.1918   -3.5317    0.0000 H   0  0  0  0  0  0  0  0  0  0  0  0
    2.0404   -3.7374    0.0000 H   0  0  0  0  0  0  0  0  0  0  0  0
    2.8930   -2.2607    0.0000 H   0  0  0  0  0  0  0  0  0  0  0  0
   -0.1030    2.0296    0.0000 H   0  0  0  0  0  0  0  0  0  0  0  0
   -1.7441    0.8371    0.0000 H   0  0  0  0  0  0  0  0  0  0  0  0
   -1.7440    1.9071    0.0000 H   0  0  0  0  0  0  0  0  0  0  0  0
   -1.7441    2.7321    0.0000 H   0  0  0  0  0  0  0  0  0  0  0  0
   -0.8174    3.2671    0.0000 H   0  0  0  0  0  0  0  0  0  0  0  0
   -0.1030    3.6796    0.0000 H   0  0  0  0  0  0  0  0  0  0  0  0
    0.8236    3.1446    0.0000 H   0  0  0  0  0  0  0  0  0  0  0  0
    1.5381    2.7321    0.0000 H   0  0  0  0  0  0  0  0  0  0  0  0
    1.5381    1.6621    0.0000 H   0  0  0  0  0  0  0  0  0  0  0  0
    1.5381    0.8371    0.0000 H   0  0  0  0  0  0  0  0  0  0  0  0
    1.5381    1.9071    0.0000 H   0  0  0  0  0  0  0  0  0  0  0  0
  1  2  2  0  0  0  0
  1  6  1  0  0  0  0
  2  3  1  0  0  0  0
  2 12  1  0  0  0  0
  3  4  2  0  0  0  0
  4  5  1  0  0  0  0
  4 11  1  0  0  0  0
  5  6  2  0  0  0  0
  5  9  1  0  0  0  0
  6  7  1  0  0  0  0
  7  8  1  0  0  0  0
  8 13  1  0  0  0  0
  8 19  1  0  0  0  0
  8 20  1  0  0  0  0
  9 10  2  0  0  0  0
 10 11  1  0  0  0  0
 10 21  1  0  0  0  0
 11 22  1  0  0  0  0
 12 23  1  0  0  0  0
 12 24  1  0  0  0  0
 13 14  1  0  0  0  0
 13 18  1  0  0  0  0
 13 25  1  0  0  0  0
 14 15  1  0  0  0  0
 14 26  1  0  0  0  0
 14 27  1  0  0  0  0
 15 16  1  0  0  0  0
 15 28  1  0  0  0  0
 15 29  1  0  0  0  0
 16 17  1  0  0  0  0
 16 30  1  0  0  0  0
 16 31  1  0  0  0  0
 17 18  1  0  0  0  0
 17 32  1  0  0  0  0
 17 33  1  0  0  0  0
 18 34  1  0  0  0  0
 18 35  1  0  0  0  0
M  END
>  <DRUGBANK_ID>
DB02407

>  <SECONDARY_ACCESSION_NUMBERS>
EXPT00955

>  <COMMON_NAME>
6-O-Cyclohexylmethyl Guanine

>  <UNII>
884MN6AR44

$$$$
