
 OpenBabel10282417072D

 50 51  0  0  0  0  0  0  0  0999 V2000
    2.2503   -3.0499    0.0000 P   0  0  0  0  0  0  0  0  0  0  0  0
    1.4813    1.3112    0.0000 O   0  0  0  0  0  0  0  0  0  0  0  0
    0.6355    3.3236    0.0000 O   0  0  0  0  0  0  0  0  0  0  0  0
    2.5450    2.2656    0.0000 O   0  0  0  0  0  0  0  0  0  0  0  0
    1.1732    0.3069    0.0000 O   0  0  0  0  0  0  0  0  0  0  0  0
    1.9938   -2.2657    0.0000 O   0  0  0  0  0  0  0  0  0  0  0  0
   -1.6284   -1.3431    0.0000 O   0  0  0  0  0  0  0  0  0  0  0  0
    3.0575    3.8341    0.0000 O   0  0  0  0  0  0  0  0  0  0  0  0
   -3.0575    1.1320    0.0000 O   0  0  0  0  0  0  0  0  0  0  0  0
    3.0344   -2.7936    0.0000 O   0  0  0  0  0  0  0  0  0  0  0  0
    2.5066   -3.8341    0.0000 O   0  0  0  0  0  0  0  0  0  0  0  0
    1.4660   -3.3062    0.0000 O   0  0  0  0  0  0  0  0  0  0  0  0
   -0.1333    0.9709    0.0000 N   0  0  0  0  0  0  0  0  0  0  0  0
   -0.1333   -0.3568    0.0000 N   0  0  0  0  0  0  0  0  0  0  0  0
   -1.6284    1.1320    0.0000 N   0  0  0  0  0  0  0  0  0  0  0  0
   -2.3431   -0.1055    0.0000 N   0  0  0  0  0  0  0  0  0  0  0  0
    0.1230    1.7552    0.0000 C   0  0  0  0  0  0  0  0  0  0  0  0
    0.9303    1.9253    0.0000 C   0  0  1  0  0  0  0  0  0  0  0  0
    1.1866    2.7096    0.0000 C   0  0  1  0  0  0  0  0  0  0  0  0
   -0.9140    0.7194    0.0000 C   0  0  0  0  0  0  0  0  0  0  0  0
   -0.9140   -0.1055    0.0000 C   0  0  0  0  0  0  0  0  0  0  0  0
    0.3481    0.3069    0.0000 C   0  0  0  0  0  0  0  0  0  0  0  0
    0.1230   -1.1411    0.0000 C   0  0  0  0  0  0  0  0  0  0  0  0
    1.9938    2.8797    0.0000 C   0  0  1  0  0  0  0  0  0  0  0  0
    0.9303   -1.3113    0.0000 C   0  0  0  0  0  0  0  0  0  0  0  0
   -1.6284   -0.5180    0.0000 C   0  0  0  0  0  0  0  0  0  0  0  0
    2.2503    3.6639    0.0000 C   0  0  0  0  0  0  0  0  0  0  0  0
   -2.3431    0.7194    0.0000 C   0  0  0  0  0  0  0  0  0  0  0  0
    1.1866   -2.0955    0.0000 C   0  0  0  0  0  0  0  0  0  0  0  0
   -1.6284    1.6435    0.0000 H   0  0  0  0  0  0  0  0  0  0  0  0
   -2.7860   -0.3612    0.0000 H   0  0  0  0  0  0  0  0  0  0  0  0
    1.1799    0.3892    0.0000 H   0  0  0  0  0  0  0  0  0  0  0  0
    0.9367    4.2457    0.0000 H   0  0  0  0  0  0  0  0  0  0  0  0
    2.2438    1.3435    0.0000 H   0  0  0  0  0  0  0  0  0  0  0  0
    3.7054    3.1122    0.0000 H   0  0  0  0  0  0  0  0  0  0  0  0
    3.7564   -3.4414    0.0000 H   0  0  0  0  0  0  0  0  0  0  0  0
    1.8588   -4.5561    0.0000 H   0  0  0  0  0  0  0  0  0  0  0  0
   -0.5916    2.5516    0.0000 H   0  0  0  0  0  0  0  0  0  0  0  0
    0.4554    2.7722    0.0000 H   0  0  0  0  0  0  0  0  0  0  0  0
    0.5979    0.9083    0.0000 H   0  0  0  0  0  0  0  0  0  0  0  0
    0.1396    2.4888    0.0000 H   0  0  0  0  0  0  0  0  0  0  0  0
   -0.5916   -1.9375    0.0000 H   0  0  0  0  0  0  0  0  0  0  0  0
    0.4553   -2.1582    0.0000 H   0  0  0  0  0  0  0  0  0  0  0  0
    1.6615    1.8626    0.0000 H   0  0  0  0  0  0  0  0  0  0  0  0
    1.6449   -0.5149    0.0000 H   0  0  0  0  0  0  0  0  0  0  0  0
    1.9773   -1.5320    0.0000 H   0  0  0  0  0  0  0  0  0  0  0  0
    1.5358    4.4603    0.0000 H   0  0  0  0  0  0  0  0  0  0  0  0
    1.2033    3.4434    0.0000 H   0  0  0  0  0  0  0  0  0  0  0  0
    0.4720   -2.8919    0.0000 H   0  0  0  0  0  0  0  0  0  0  0  0
    0.1396   -1.8748    0.0000 H   0  0  0  0  0  0  0  0  0  0  0  0
  1  6  1  0  0  0  0
  1 10  1  0  0  0  0
  1 11  1  0  0  0  0
  1 12  2  0  0  0  0
  2 32  1  0  0  0  0
  3 33  1  0  0  0  0
  4 34  1  0  0  0  0
  5 22  2  0  0  0  0
  6 29  1  0  0  0  0
  7 26  2  0  0  0  0
  8 27  1  0  0  0  0
  8 35  1  0  0  0  0
  9 28  2  0  0  0  0
 10 36  1  0  0  0  0
 11 37  1  0  0  0  0
 13 17  1  0  0  0  0
 13 20  1  0  0  0  0
 13 22  1  0  0  0  0
 14 21  1  0  0  0  0
 14 22  1  0  0  0  0
 14 23  1  0  0  0  0
 15 20  1  0  0  0  0
 15 28  1  0  0  0  0
 15 30  1  0  0  0  0
 16 26  1  0  0  0  0
 16 28  1  0  0  0  0
 16 31  1  0  0  0  0
 17 18  1  0  0  0  0
 17 38  1  0  0  0  0
 17 39  1  0  0  0  0
 18  2  1  0  0  0  0
 18 19  1  0  0  0  0
 18 40  1  6  0  0  0
 19  3  1  0  0  0  0
 19 24  1  0  0  0  0
 19 41  1  1  0  0  0
 20 21  2  0  0  0  0
 21 26  1  0  0  0  0
 23 25  1  0  0  0  0
 23 42  1  0  0  0  0
 23 43  1  0  0  0  0
 24  4  1  0  0  0  0
 24 27  1  0  0  0  0
 24 44  1  6  0  0  0
 25 29  1  0  0  0  0
 25 45  1  0  0  0  0
 25 46  1  0  0  0  0
 27 47  1  0  0  0  0
 27 48  1  0  0  0  0
 29 49  1  0  0  0  0
 29 50  1  0  0  0  0
M  END
>  <DRUGBANK_ID>
DB02290

>  <SECONDARY_ACCESSION_NUMBERS>
EXPT02997

>  <COMMON_NAME>
3-{2,6,8-trioxo-9-[(2S,3S,4R)-2,3,4,5-tetrahydroxypentyl]-1,2,3,6,8,9-hexahydro-7H-purin-7-Yl}propyl dihydrogen phosphate

$$$$
