
 OpenBabel10282417072D

 36 37  0  0  0  0  0  0  0  0999 V2000
    1.7861    1.4437    0.0000 N   0  0  0  0  0  0  0  0  0  0  0  0
    1.7861    0.6187    0.0000 C   0  0  0  0  0  0  0  0  0  0  0  0
    2.5006    0.2062    0.0000 C   0  0  0  0  0  0  0  0  0  0  0  0
    3.2151    0.6187    0.0000 Br  0  0  0  0  0  0  0  0  0  0  0  0
    2.5006   -0.6187    0.0000 C   0  0  0  0  0  0  0  0  0  0  0  0
    1.7861   -1.0312    0.0000 C   0  0  0  0  0  0  0  0  0  0  0  0
    1.7861   -1.8562    0.0000 Br  0  0  0  0  0  0  0  0  0  0  0  0
    1.0717   -0.6187    0.0000 C   0  0  0  0  0  0  0  0  0  0  0  0
    1.0717    0.2062    0.0000 C   0  0  0  0  0  0  0  0  0  0  0  0
    0.3572    0.6187    0.0000 C   0  0  0  0  0  0  0  0  0  0  0  0
   -0.3572    0.2062    0.0000 N   0  0  0  0  0  0  0  0  0  0  0  0
   -1.0717    0.6187    0.0000 C   0  0  2  0  0  0  0  0  0  0  0  0
   -1.7861    0.2062    0.0000 C   0  0  0  0  0  0  0  0  0  0  0  0
   -2.5006    0.6187    0.0000 C   0  0  0  0  0  0  0  0  0  0  0  0
   -2.5006    1.4437    0.0000 C   0  0  1  0  0  0  0  0  0  0  0  0
   -3.2151    1.8562    0.0000 O   0  0  0  0  0  0  0  0  0  0  0  0
   -1.7861    1.8562    0.0000 C   0  0  0  0  0  0  0  0  0  0  0  0
   -1.0717    1.4437    0.0000 C   0  0  0  0  0  0  0  0  0  0  0  0
    2.6387    1.9360    0.0000 H   0  0  0  0  0  0  0  0  0  0  0  0
    0.9335    1.9360    0.0000 H   0  0  0  0  0  0  0  0  0  0  0  0
    3.3943   -1.1347    0.0000 H   0  0  0  0  0  0  0  0  0  0  0  0
    0.1780   -1.1347    0.0000 H   0  0  0  0  0  0  0  0  0  0  0  0
    0.3572    1.6887    0.0000 H   0  0  0  0  0  0  0  0  0  0  0  0
   -0.5695    1.1537    0.0000 H   0  0  0  0  0  0  0  0  0  0  0  0
   -0.3572   -0.8138    0.0000 H   0  0  0  0  0  0  0  0  0  0  0  0
   -1.0717   -0.4513    0.0000 H   0  0  0  0  0  0  0  0  0  0  0  0
   -1.7861   -0.8638    0.0000 H   0  0  0  0  0  0  0  0  0  0  0  0
   -2.7127   -0.3288    0.0000 H   0  0  0  0  0  0  0  0  0  0  0  0
   -3.4272    0.0837    0.0000 H   0  0  0  0  0  0  0  0  0  0  0  0
   -3.4272    1.1537    0.0000 H   0  0  0  0  0  0  0  0  0  0  0  0
   -3.4272    0.9087    0.0000 H   0  0  0  0  0  0  0  0  0  0  0  0
   -3.2151    2.8262    0.0000 H   0  0  0  0  0  0  0  0  0  0  0  0
   -1.7861    2.9262    0.0000 H   0  0  0  0  0  0  0  0  0  0  0  0
   -0.8594    2.3912    0.0000 H   0  0  0  0  0  0  0  0  0  0  0  0
   -0.1450    1.9787    0.0000 H   0  0  0  0  0  0  0  0  0  0  0  0
   -0.1451    0.9087    0.0000 H   0  0  0  0  0  0  0  0  0  0  0  0
  1  2  1  0  0  0  0
  1 19  1  0  0  0  0
  1 20  1  0  0  0  0
  2  3  2  0  0  0  0
  2  9  1  0  0  0  0
  3  4  1  0  0  0  0
  3  5  1  0  0  0  0
  5  6  2  0  0  0  0
  5 21  1  0  0  0  0
  6  7  1  0  0  0  0
  6  8  1  0  0  0  0
  8  9  2  0  0  0  0
  8 22  1  0  0  0  0
  9 10  1  0  0  0  0
 10 11  1  0  0  0  0
 10 23  1  0  0  0  0
 10 24  1  0  0  0  0
 11 25  1  0  0  0  0
 12 11  1  0  0  0  0
 12 13  1  0  0  0  0
 12 18  1  0  0  0  0
 12 26  1  1  0  0  0
 13 14  1  0  0  0  0
 13 27  1  0  0  0  0
 13 28  1  0  0  0  0
 14 15  1  0  0  0  0
 14 29  1  0  0  0  0
 14 30  1  0  0  0  0
 15 16  1  0  0  0  0
 15 17  1  0  0  0  0
 15 31  1  6  0  0  0
 16 32  1  0  0  0  0
 17 18  1  0  0  0  0
 17 33  1  0  0  0  0
 17 34  1  0  0  0  0
 18 35  1  0  0  0  0
 18 36  1  0  0  0  0
M  END
>  <DRUGBANK_ID>
DB06742

>  <COMMON_NAME>
Ambroxol

>  <CAS_NUMBER>
18683-91-5

>  <UNII>
200168S0CL

>  <SYNONYMS>
Ambroxol; Ambroxolum; Bisolvon metabolite vIII; Bromhexine metabolite vIII; Bromhexine-metabolite vIII; Cyclohexanol, 4-((2-amino-3,5-dibromobenzyl)amino)- (E)-; N-(2-Amino-3,4-dibromociclohexil)-trans-4-aminociclohexanol; N-(2-Amino-3,4-dibromocyclohexyl)-trans-4-aminocyclohexanol; trans-4-((2-Amino-3,5-dibromobencil)amino)ciclohexanol; trans-4-((2-Amino-3,5-dibromobenzyl)amine)cyclohexanol; trans-4-((2-Amino-3,5-dibromobenzyl)amino)cyclohexanol

$$$$
