
 OpenBabel10282417072D

 56 55  0  0  1  0  0  0  0  0999 V2000
    3.3000    1.4289    0.0000 C   0  0  0  0  0  0  0  0  0  0  0  0
    2.0625    2.1434    0.0000 C   0  0  0  0  0  0  0  0  0  0  0  0
   -2.8875   -0.7145    0.0000 C   0  0  0  0  0  0  0  0  0  0  0  0
   -0.4125    0.7145    0.0000 C   0  0  0  0  0  0  0  0  0  0  0  0
   -4.9500   -2.0329    0.0000 C   0  0  0  0  0  0  0  0  0  0  0  0
   -4.9500   -3.6829    0.0000 C   0  0  0  0  0  0  0  0  0  0  0  0
   -6.1875   -3.5724    0.0000 C   0  0  0  0  0  0  0  0  0  0  0  0
   -1.2375   -0.7145    0.0000 C   0  0  0  0  0  0  0  0  0  0  0  0
   -3.7125   -2.1434    0.0000 C   0  0  0  0  0  0  0  0  0  0  0  0
   -1.6500   -1.4289    0.0000 C   0  0  0  0  0  0  0  0  0  0  0  0
   -0.4125   -0.7145    0.0000 C   0  0  0  0  0  0  0  0  0  0  0  0
   -2.8875   -2.1434    0.0000 C   0  0  0  0  0  0  0  0  0  0  0  0
   -4.1250   -2.8579    0.0000 C   0  0  0  0  0  0  0  0  0  0  0  0
    0.8250    0.0000    0.0000 C   0  0  0  0  0  0  0  0  0  0  0  0
    2.4750    1.4289    0.0000 C   0  0  0  0  0  0  0  0  0  0  0  0
   -2.4750   -1.4289    0.0000 C   0  0  2  0  0  0  0  0  0  0  0  0
    0.0000    0.0000    0.0000 C   0  0  0  0  0  0  0  0  0  0  0  0
    1.2375    0.7145    0.0000 C   0  0  0  0  0  0  0  0  0  0  0  0
   -4.9500   -2.8579    0.0000 C   0  0  0  0  0  0  0  0  0  0  0  0
    0.8250    1.4289    0.0000 O   0  0  0  0  0  0  0  0  0  0  0  0
   -5.7750   -2.8579    0.0000 O   0  0  0  0  0  0  0  0  0  0  0  0
    2.0625    0.7145    0.0000 O   0  0  0  0  0  0  0  0  0  0  0  0
   -1.6500   -0.0000    0.0000 H   0  0  0  0  0  0  0  0  0  0  0  0
    0.0000   -1.4289    0.0000 H   0  0  0  0  0  0  0  0  0  0  0  0
    1.2375   -0.7145    0.0000 H   0  0  0  0  0  0  0  0  0  0  0  0
   -2.0625   -0.7145    0.0000 H   0  0  0  0  0  0  0  0  0  0  0  0
    3.8350    0.5023    0.0000 H   0  0  0  0  0  0  0  0  0  0  0  0
    3.8350    2.3555    0.0000 H   0  0  0  0  0  0  0  0  0  0  0  0
    4.3700    1.4289    0.0000 H   0  0  0  0  0  0  0  0  0  0  0  0
    2.5975    3.0700    0.0000 H   0  0  0  0  0  0  0  0  0  0  0  0
    0.9925    2.1434    0.0000 H   0  0  0  0  0  0  0  0  0  0  0  0
    1.5275    3.0701    0.0000 H   0  0  0  0  0  0  0  0  0  0  0  0
   -2.3525    0.2122    0.0000 H   0  0  0  0  0  0  0  0  0  0  0  0
   -3.9575   -0.7145    0.0000 H   0  0  0  0  0  0  0  0  0  0  0  0
   -3.4225    0.2121    0.0000 H   0  0  0  0  0  0  0  0  0  0  0  0
    0.1225    1.6411    0.0000 H   0  0  0  0  0  0  0  0  0  0  0  0
   -1.4825    0.7145    0.0000 H   0  0  0  0  0  0  0  0  0  0  0  0
   -0.9475    1.6412    0.0000 H   0  0  0  0  0  0  0  0  0  0  0  0
   -4.0234   -1.4979    0.0000 H   0  0  0  0  0  0  0  0  0  0  0  0
   -5.8766   -1.4979    0.0000 H   0  0  0  0  0  0  0  0  0  0  0  0
   -4.9500   -0.9629    0.0000 H   0  0  0  0  0  0  0  0  0  0  0  0
   -5.8766   -4.2179    0.0000 H   0  0  0  0  0  0  0  0  0  0  0  0
   -4.0234   -4.2179    0.0000 H   0  0  0  0  0  0  0  0  0  0  0  0
   -4.9500   -4.7529    0.0000 H   0  0  0  0  0  0  0  0  0  0  0  0
   -7.2575   -3.5724    0.0000 H   0  0  0  0  0  0  0  0  0  0  0  0
   -5.6525   -4.4990    0.0000 H   0  0  0  0  0  0  0  0  0  0  0  0
   -6.7225   -4.4991    0.0000 H   0  0  0  0  0  0  0  0  0  0  0  0
   -4.2475   -1.2168    0.0000 H   0  0  0  0  0  0  0  0  0  0  0  0
   -4.7825   -2.1434    0.0000 H   0  0  0  0  0  0  0  0  0  0  0  0
   -1.1150   -2.3556    0.0000 H   0  0  0  0  0  0  0  0  0  0  0  0
   -2.1850   -2.3555    0.0000 H   0  0  0  0  0  0  0  0  0  0  0  0
   -2.3525   -3.0700    0.0000 H   0  0  0  0  0  0  0  0  0  0  0  0
   -1.8175   -2.1434    0.0000 H   0  0  0  0  0  0  0  0  0  0  0  0
   -3.5900   -3.7845    0.0000 H   0  0  0  0  0  0  0  0  0  0  0  0
   -4.6600   -3.7845    0.0000 H   0  0  0  0  0  0  0  0  0  0  0  0
    1.4050    1.4289    0.0000 H   0  0  0  0  0  0  0  0  0  0  0  0
  1 27  1  0  0  0  0
  1 28  1  0  0  0  0
  1 29  1  0  0  0  0
  2 30  1  0  0  0  0
  2 31  1  0  0  0  0
  2 32  1  0  0  0  0
  3 33  1  0  0  0  0
  3 34  1  0  0  0  0
  3 35  1  0  0  0  0
  4 36  1  0  0  0  0
  4 37  1  0  0  0  0
  4 38  1  0  0  0  0
  5 39  1  0  0  0  0
  5 40  1  0  0  0  0
  5 41  1  0  0  0  0
  6 42  1  0  0  0  0
  6 43  1  0  0  0  0
  6 44  1  0  0  0  0
  7 45  1  0  0  0  0
  7 46  1  0  0  0  0
  7 47  1  0  0  0  0
  9 48  1  0  0  0  0
  9 49  1  0  0  0  0
 10  8  1  0  0  0  0
 10 50  1  0  0  0  0
 10 51  1  0  0  0  0
 11  8  2  0  0  0  0
 12  9  1  0  0  0  0
 12 52  1  0  0  0  0
 12 53  1  0  0  0  0
 13  9  1  0  0  0  0
 13 54  1  0  0  0  0
 13 55  1  0  0  0  0
 15  1  1  0  0  0  0
 15  2  1  0  0  0  0
 15 56  1  0  0  0  0
 16  3  1  0  0  0  0
 16 10  1  0  0  0  0
 16 12  1  0  0  0  0
 16 26  1  1  0  0  0
 17  4  1  0  0  0  0
 17 11  1  0  0  0  0
 17 14  2  0  0  0  0
 18 14  1  0  0  0  0
 19  5  1  0  0  0  0
 19  6  1  0  0  0  0
 19 13  1  0  0  0  0
 20 18  2  0  0  0  0
 21  7  1  0  0  0  0
 21 19  1  0  0  0  0
 22 15  1  0  0  0  0
 22 18  1  0  0  0  0
 23  8  1  0  0  0  0
 24 11  1  0  0  0  0
 25 14  1  0  0  0  0
M  END
>  <DRUGBANK_ID>
DB11495

>  <COMMON_NAME>
(S)-methoprene

>  <CAS_NUMBER>
65733-16-6

>  <UNII>
4YIQ0A94UR

>  <SYNONYMS>
(7S)-Methoprene; isopropyl (2E,4E,7S)-11-methoxy-3,7,11-trimethyldodeca-2,4-dienoate; S-Methoprene

$$$$
