
 OpenBabel10282417072D

 20 19  0  0  0  0  0  0  0  0999 V2000
    0.5230    1.1270    0.0000 C   0  0  0  0  0  0  0  0  0  0  0  0
    1.2375    0.7145    0.0000 C   0  0  0  0  0  0  0  0  0  0  0  0
    1.9520    0.3020    0.0000 C   0  0  0  0  0  0  0  0  0  0  0  0
    1.6500    1.4289    0.0000 C   0  0  0  0  0  0  0  0  0  0  0  0
    1.2375    2.1434    0.0000 S   0  0  0  0  0  0  0  0  0  0  0  0
    0.8250    2.8579    0.0000 O   0  0  0  0  0  0  0  0  0  0  0  0
    0.5230    1.7309    0.0000 O   0  0  0  0  0  0  0  0  0  0  0  0
    1.9520    2.5559    0.0000 O   0  0  0  0  0  0  0  0  0  0  0  0
    0.8250    0.0000    0.0000 N   0  0  0  0  0  0  0  0  0  0  0  0
    1.2375   -0.7145    0.0000 Cl  0  0  0  0  0  0  0  0  0  0  0  0
    0.0000    0.0000    0.0000 Cl  0  0  0  0  0  0  0  0  0  0  0  0
    0.5230    2.1970    0.0000 H   0  0  0  0  0  0  0  0  0  0  0  0
   -0.4036    0.5920    0.0000 H   0  0  0  0  0  0  0  0  0  0  0  0
   -0.4037    1.6620    0.0000 H   0  0  0  0  0  0  0  0  0  0  0  0
    1.9520   -0.7680    0.0000 H   0  0  0  0  0  0  0  0  0  0  0  0
    2.8786    0.8370    0.0000 H   0  0  0  0  0  0  0  0  0  0  0  0
    2.8787   -0.2330    0.0000 H   0  0  0  0  0  0  0  0  0  0  0  0
    2.7200    1.4289    0.0000 H   0  0  0  0  0  0  0  0  0  0  0  0
    2.1850    2.3555    0.0000 H   0  0  0  0  0  0  0  0  0  0  0  0
    2.7920    2.0709    0.0000 H   0  0  0  0  0  0  0  0  0  0  0  0
  1  2  1  0  0  0  0
  1 12  1  0  0  0  0
  1 13  1  0  0  0  0
  1 14  1  0  0  0  0
  2  3  1  0  0  0  0
  2  4  1  0  0  0  0
  2  9  1  0  0  0  0
  3 15  1  0  0  0  0
  3 16  1  0  0  0  0
  3 17  1  0  0  0  0
  4  5  1  0  0  0  0
  4 18  1  0  0  0  0
  4 19  1  0  0  0  0
  5  6  2  0  0  0  0
  5  7  2  0  0  0  0
  5  8  1  0  0  0  0
  8 20  1  0  0  0  0
  9 10  1  0  0  0  0
  9 11  1  0  0  0  0
M  END
>  <DRUGBANK_ID>
DB12197

>  <COMMON_NAME>
Auriclosene

>  <CAS_NUMBER>
846056-87-9

>  <UNII>
BKR7Y95229

>  <SYNONYMS>
Auriclosene

$$$$
