
 OpenBabel10282417072D

 44 48  0  0  0  0  0  0  0  0999 V2000
   -0.4142   -4.3385    0.0000 O   0  0  0  0  0  0  0  0  0  0  0  0
   -0.1320   -3.5632    0.0000 C   0  0  0  0  0  0  0  0  0  0  0  0
   -0.6623   -2.9313    0.0000 C   0  0  0  0  0  0  0  0  0  0  0  0
   -1.4748   -3.0745    0.0000 Br  0  0  0  0  0  0  0  0  0  0  0  0
   -0.3802   -2.1560    0.0000 C   0  0  0  0  0  0  0  0  0  0  0  0
    0.4323   -2.0127    0.0000 C   0  0  0  0  0  0  0  0  0  0  0  0
    0.9626   -2.6447    0.0000 C   0  0  0  0  0  0  0  0  0  0  0  0
    0.6804   -3.4200    0.0000 C   0  0  0  0  0  0  0  0  0  0  0  0
    0.7145   -1.2375    0.0000 C   0  0  0  0  0  0  0  0  0  0  0  0
    0.7145   -0.4125    0.0000 O   0  0  0  0  0  0  0  0  0  0  0  0
    1.4289    0.0000    0.0000 C   0  0  0  0  0  0  0  0  0  0  0  0
    1.4289    0.8250    0.0000 O   0  0  0  0  0  0  0  0  0  0  0  0
    2.1434   -0.4125    0.0000 C   0  0  0  0  0  0  0  0  0  0  0  0
    2.1434   -1.2375    0.0000 C   0  0  0  0  0  0  0  0  0  0  0  0
    2.8579   -1.6500    0.0000 C   0  0  0  0  0  0  0  0  0  0  0  0
    2.8579   -2.4750    0.0000 C   0  0  0  0  0  0  0  0  0  0  0  0
    2.1434   -2.8875    0.0000 C   0  0  0  0  0  0  0  0  0  0  0  0
    1.4289   -2.4750    0.0000 C   0  0  0  0  0  0  0  0  0  0  0  0
    1.4289   -1.6500    0.0000 C   0  0  0  0  0  0  0  0  0  0  0  0
    3.5724   -1.2375    0.0000 C   0  0  0  0  0  0  0  0  0  0  0  0
    4.2868   -1.6500    0.0000 Cl  0  0  0  0  0  0  0  0  0  0  0  0
    3.5724   -0.4125    0.0000 C   0  0  0  0  0  0  0  0  0  0  0  0
    2.8579    0.0000    0.0000 C   0  0  0  0  0  0  0  0  0  0  0  0
   -0.0980   -1.0942    0.0000 C   0  0  0  0  0  0  0  0  0  0  0  0
   -0.6283   -1.7262    0.0000 C   0  0  0  0  0  0  0  0  0  0  0  0
   -1.4408   -1.5830    0.0000 C   0  0  0  0  0  0  0  0  0  0  0  0
   -1.9711   -2.2150    0.0000 Br  0  0  0  0  0  0  0  0  0  0  0  0
   -1.7229   -0.8077    0.0000 C   0  0  0  0  0  0  0  0  0  0  0  0
   -2.5354   -0.6645    0.0000 O   0  0  0  0  0  0  0  0  0  0  0  0
   -1.1926   -0.1757    0.0000 C   0  0  0  0  0  0  0  0  0  0  0  0
   -0.3802   -0.3190    0.0000 C   0  0  0  0  0  0  0  0  0  0  0  0
   -1.3370   -4.5012    0.0000 H   0  0  0  0  0  0  0  0  0  0  0  0
   -1.0436   -1.3655    0.0000 H   0  0  0  0  0  0  0  0  0  0  0  0
    1.9789   -2.4655    0.0000 H   0  0  0  0  0  0  0  0  0  0  0  0
    1.3437   -4.2106    0.0000 H   0  0  0  0  0  0  0  0  0  0  0  0
    3.7516   -2.9910    0.0000 H   0  0  0  0  0  0  0  0  0  0  0  0
    2.1434   -3.9195    0.0000 H   0  0  0  0  0  0  0  0  0  0  0  0
    0.5352   -2.9910    0.0000 H   0  0  0  0  0  0  0  0  0  0  0  0
    4.4661    0.1035    0.0000 H   0  0  0  0  0  0  0  0  0  0  0  0
    2.8579    1.0320    0.0000 H   0  0  0  0  0  0  0  0  0  0  0  0
   -0.2753   -2.6959    0.0000 H   0  0  0  0  0  0  0  0  0  0  0  0
   -2.8559    0.2160    0.0000 H   0  0  0  0  0  0  0  0  0  0  0  0
   -1.5455    0.7941    0.0000 H   0  0  0  0  0  0  0  0  0  0  0  0
    0.2832    0.4716    0.0000 H   0  0  0  0  0  0  0  0  0  0  0  0
  1  2  1  0  0  0  0
  1 32  1  0  0  0  0
  2  3  2  0  0  0  0
  2  8  1  0  0  0  0
  3  4  1  0  0  0  0
  3  5  1  0  0  0  0
  5  6  2  0  0  0  0
  5 33  1  0  0  0  0
  6  7  1  0  0  0  0
  6  9  1  0  0  0  0
  7  8  2  0  0  0  0
  7 34  1  0  0  0  0
  8 35  1  0  0  0  0
  9 10  1  0  0  0  0
  9 19  1  0  0  0  0
  9 24  1  0  0  0  0
 10 11  1  0  0  0  0
 11 12  2  0  0  0  0
 11 13  1  0  0  0  0
 13 14  2  0  0  0  0
 13 23  1  0  0  0  0
 14 15  1  0  0  0  0
 14 19  1  0  0  0  0
 15 16  1  0  0  0  0
 15 20  2  0  0  0  0
 16 17  2  0  0  0  0
 16 36  1  0  0  0  0
 17 18  1  0  0  0  0
 17 37  1  0  0  0  0
 18 19  2  0  0  0  0
 18 38  1  0  0  0  0
 20 21  1  0  0  0  0
 20 22  1  0  0  0  0
 22 23  2  0  0  0  0
 22 39  1  0  0  0  0
 23 40  1  0  0  0  0
 24 25  2  0  0  0  0
 24 31  1  0  0  0  0
 25 26  1  0  0  0  0
 25 41  1  0  0  0  0
 26 27  1  0  0  0  0
 26 28  2  0  0  0  0
 28 29  1  0  0  0  0
 28 30  1  0  0  0  0
 29 42  1  0  0  0  0
 30 31  2  0  0  0  0
 30 43  1  0  0  0  0
 31 44  1  0  0  0  0
M  END
>  <DRUGBANK_ID>
DB04696

>  <COMMON_NAME>
4-CHLORO-3',3''-DIBROMOPHENOL-1,8-NAPHTHALEIN

$$$$
