
 OpenBabel10282417072D

 67 71  0  0  0  0  0  0  0  0999 V2000
    5.7745    2.9576    0.0000 O   0  0  0  0  0  0  0  0  0  0  0  0
    5.6350    1.6301    0.0000 O   0  0  0  0  0  0  0  0  0  0  0  0
    3.7935   -0.1305    0.0000 N   0  0  0  0  0  0  0  0  0  0  0  0
    3.7935   -1.7806    0.0000 N   0  0  0  0  0  0  0  0  0  0  0  0
    4.5080   -0.5430    0.0000 C   0  0  0  0  0  0  0  0  0  0  0  0
    3.0791   -0.5430    0.0000 C   0  0  0  0  0  0  0  0  0  0  0  0
    4.5080   -1.3680    0.0000 C   0  0  0  0  0  0  0  0  0  0  0  0
    3.0791   -1.3680    0.0000 C   0  0  0  0  0  0  0  0  0  0  0  0
    3.7935    0.6945    0.0000 C   0  0  0  0  0  0  0  0  0  0  0  0
    3.7935   -2.6056    0.0000 C   0  0  0  0  0  0  0  0  0  0  0  0
    4.5080    1.1070    0.0000 C   0  0  0  0  0  0  0  0  0  0  0  0
    4.5080    1.9320    0.0000 C   0  0  0  0  0  0  0  0  0  0  0  0
    5.2224    2.3445    0.0000 C   0  0  0  0  0  0  0  0  0  0  0  0
    4.5080   -3.0181    0.0000 C   0  0  0  0  0  0  0  0  0  0  0  0
    3.0791   -3.0181    0.0000 C   0  0  0  0  0  0  0  0  0  0  0  0
    4.6094    2.8966    0.0000 C   0  0  0  0  0  0  0  0  0  0  0  0
    6.5282    2.6221    0.0000 C   0  0  0  0  0  0  0  0  0  0  0  0
    6.4420    1.8016    0.0000 C   0  0  0  0  0  0  0  0  0  0  0  0
    5.2224   -2.6056    0.0000 C   0  0  0  0  0  0  0  0  0  0  0  0
    3.0791   -3.8431    0.0000 C   0  0  0  0  0  0  0  0  0  0  0  0
    4.5080   -3.8431    0.0000 C   0  0  0  0  0  0  0  0  0  0  0  0
    2.3645   -2.6056    0.0000 C   0  0  0  0  0  0  0  0  0  0  0  0
    3.8247    2.6416    0.0000 C   0  0  0  0  0  0  0  0  0  0  0  0
    4.7809    3.7036    0.0000 C   0  0  0  0  0  0  0  0  0  0  0  0
    5.9370   -3.0181    0.0000 C   0  0  0  0  0  0  0  0  0  0  0  0
    2.3645   -4.2556    0.0000 C   0  0  0  0  0  0  0  0  0  0  0  0
    5.2224   -4.2556    0.0000 C   0  0  0  0  0  0  0  0  0  0  0  0
    1.6500   -3.0181    0.0000 C   0  0  0  0  0  0  0  0  0  0  0  0
    3.2116    3.1936    0.0000 C   0  0  0  0  0  0  0  0  0  0  0  0
    4.1677    4.2556    0.0000 C   0  0  0  0  0  0  0  0  0  0  0  0
    5.9370   -3.8431    0.0000 C   0  0  0  0  0  0  0  0  0  0  0  0
    1.6500   -3.8431    0.0000 C   0  0  0  0  0  0  0  0  0  0  0  0
    3.3832    4.0007    0.0000 C   0  0  0  0  0  0  0  0  0  0  0  0
    5.4346   -0.0080    0.0000 H   0  0  0  0  0  0  0  0  0  0  0  0
    5.4346   -1.0780    0.0000 H   0  0  0  0  0  0  0  0  0  0  0  0
    2.1524   -0.0080    0.0000 H   0  0  0  0  0  0  0  0  0  0  0  0
    2.1525   -1.0780    0.0000 H   0  0  0  0  0  0  0  0  0  0  0  0
    5.4347   -1.9030    0.0000 H   0  0  0  0  0  0  0  0  0  0  0  0
    5.4346   -0.8330    0.0000 H   0  0  0  0  0  0  0  0  0  0  0  0
    2.1524   -1.9029    0.0000 H   0  0  0  0  0  0  0  0  0  0  0  0
    2.1525   -0.8330    0.0000 H   0  0  0  0  0  0  0  0  0  0  0  0
    2.8669    1.2295    0.0000 H   0  0  0  0  0  0  0  0  0  0  0  0
    3.7935    1.7645    0.0000 H   0  0  0  0  0  0  0  0  0  0  0  0
    3.7935   -3.6756    0.0000 H   0  0  0  0  0  0  0  0  0  0  0  0
    5.4346    0.5720    0.0000 H   0  0  0  0  0  0  0  0  0  0  0  0
    5.4346    1.6420    0.0000 H   0  0  0  0  0  0  0  0  0  0  0  0
    3.5813    2.4670    0.0000 H   0  0  0  0  0  0  0  0  0  0  0  0
    4.5080    3.0020    0.0000 H   0  0  0  0  0  0  0  0  0  0  0  0
    7.4548    3.1572    0.0000 H   0  0  0  0  0  0  0  0  0  0  0  0
    7.4256    2.0394    0.0000 H   0  0  0  0  0  0  0  0  0  0  0  0
    7.2372    1.0856    0.0000 H   0  0  0  0  0  0  0  0  0  0  0  0
    7.4409    2.1851    0.0000 H   0  0  0  0  0  0  0  0  0  0  0  0
    5.2223   -1.5736    0.0000 H   0  0  0  0  0  0  0  0  0  0  0  0
    3.9728   -4.3591    0.0000 H   0  0  0  0  0  0  0  0  0  0  0  0
    3.6143   -4.3591    0.0000 H   0  0  0  0  0  0  0  0  0  0  0  0
    2.3645   -1.5736    0.0000 H   0  0  0  0  0  0  0  0  0  0  0  0
    3.6102    1.6321    0.0000 H   0  0  0  0  0  0  0  0  0  0  0  0
    5.7624    4.0226    0.0000 H   0  0  0  0  0  0  0  0  0  0  0  0
    6.8307   -2.5021    0.0000 H   0  0  0  0  0  0  0  0  0  0  0  0
    2.3645   -5.2876    0.0000 H   0  0  0  0  0  0  0  0  0  0  0  0
    5.2223   -5.2876    0.0000 H   0  0  0  0  0  0  0  0  0  0  0  0
    0.7563   -2.5021    0.0000 H   0  0  0  0  0  0  0  0  0  0  0  0
    2.2301    2.8747    0.0000 H   0  0  0  0  0  0  0  0  0  0  0  0
    4.3822    5.2651    0.0000 H   0  0  0  0  0  0  0  0  0  0  0  0
    6.8307   -4.3591    0.0000 H   0  0  0  0  0  0  0  0  0  0  0  0
    0.7563   -4.3591    0.0000 H   0  0  0  0  0  0  0  0  0  0  0  0
    2.6163    4.6913    0.0000 H   0  0  0  0  0  0  0  0  0  0  0  0
  1 13  1  0  0  0  0
  1 17  1  0  0  0  0
  2 13  1  0  0  0  0
  2 18  1  0  0  0  0
  3  5  1  0  0  0  0
  3  6  1  0  0  0  0
  3  9  1  0  0  0  0
  4  7  1  0  0  0  0
  4  8  1  0  0  0  0
  4 10  1  0  0  0  0
  5  7  1  0  0  0  0
  5 34  1  0  0  0  0
  5 35  1  0  0  0  0
  6  8  1  0  0  0  0
  6 36  1  0  0  0  0
  6 37  1  0  0  0  0
  7 38  1  0  0  0  0
  7 39  1  0  0  0  0
  8 40  1  0  0  0  0
  8 41  1  0  0  0  0
  9 11  1  0  0  0  0
  9 42  1  0  0  0  0
  9 43  1  0  0  0  0
 10 14  1  0  0  0  0
 10 15  1  0  0  0  0
 10 44  1  0  0  0  0
 11 12  1  0  0  0  0
 11 45  1  0  0  0  0
 11 46  1  0  0  0  0
 12 13  1  0  0  0  0
 12 47  1  0  0  0  0
 12 48  1  0  0  0  0
 13 16  1  0  0  0  0
 14 19  2  0  0  0  0
 14 21  1  0  0  0  0
 15 20  2  0  0  0  0
 15 22  1  0  0  0  0
 16 23  2  0  0  0  0
 16 24  1  0  0  0  0
 17 18  1  0  0  0  0
 17 49  1  0  0  0  0
 17 50  1  0  0  0  0
 18 51  1  0  0  0  0
 18 52  1  0  0  0  0
 19 25  1  0  0  0  0
 19 53  1  0  0  0  0
 20 26  1  0  0  0  0
 20 54  1  0  0  0  0
 21 27  2  0  0  0  0
 21 55  1  0  0  0  0
 22 28  2  0  0  0  0
 22 56  1  0  0  0  0
 23 29  1  0  0  0  0
 23 57  1  0  0  0  0
 24 30  2  0  0  0  0
 24 58  1  0  0  0  0
 25 31  2  0  0  0  0
 25 59  1  0  0  0  0
 26 32  2  0  0  0  0
 26 60  1  0  0  0  0
 27 31  1  0  0  0  0
 27 61  1  0  0  0  0
 28 32  1  0  0  0  0
 28 62  1  0  0  0  0
 29 33  2  0  0  0  0
 29 63  1  0  0  0  0
 30 33  1  0  0  0  0
 30 64  1  0  0  0  0
 31 65  1  0  0  0  0
 32 66  1  0  0  0  0
 33 67  1  0  0  0  0
M  END
>  <DRUGBANK_ID>
DB06446

>  <COMMON_NAME>
Dotarizine

>  <CAS_NUMBER>
84625-59-2

>  <UNII>
IO7663S6D3

>  <SYNONYMS>
dotarizina; Dotarizine

$$$$
