
 OpenBabel10282417072D

 46 48  0  0  0  0  0  0  0  0999 V2000
    1.4289   -2.4750    0.0000 C   0  0  0  0  0  0  0  0  0  0  0  0
    1.4289   -1.6500    0.0000 C   0  0  0  0  0  0  0  0  0  0  0  0
    0.7145   -1.2375    0.0000 C   0  0  0  0  0  0  0  0  0  0  0  0
    0.7145   -0.4125    0.0000 N   0  0  0  0  0  0  0  0  0  0  0  0
   -0.0000   -0.0000    0.0000 C   0  0  0  0  0  0  0  0  0  0  0  0
   -0.0000    0.8250    0.0000 C   0  0  0  0  0  0  0  0  0  0  0  0
    0.7145    1.2375    0.0000 C   0  0  0  0  0  0  0  0  0  0  0  0
    0.7145    2.0625    0.0000 O   0  0  0  0  0  0  0  0  0  0  0  0
    1.4289    0.8250    0.0000 N   0  0  0  0  0  0  0  0  0  0  0  0
    1.4289    0.0000    0.0000 C   0  0  0  0  0  0  0  0  0  0  0  0
    2.1434   -0.4125    0.0000 O   0  0  0  0  0  0  0  0  0  0  0  0
    2.1434    1.2375    0.0000 C   0  0  0  0  0  0  0  0  0  0  0  0
    2.8579    0.8250    0.0000 C   0  0  0  0  0  0  0  0  0  0  0  0
    3.5724    1.2375    0.0000 C   0  0  0  0  0  0  0  0  0  0  0  0
   -0.7846    1.0799    0.0000 N   0  0  0  0  0  0  0  0  0  0  0  0
   -1.2695    0.4125    0.0000 C   0  0  0  0  0  0  0  0  0  0  0  0
   -0.7846   -0.2549    0.0000 N   0  0  0  0  0  0  0  0  0  0  0  0
   -2.0945    0.4125    0.0000 C   0  0  0  0  0  0  0  0  0  0  0  0
   -2.5795   -0.2549    0.0000 C   0  0  0  0  0  0  0  0  0  0  0  0
   -3.3641    0.0000    0.0000 C   0  0  0  0  0  0  0  0  0  0  0  0
   -3.3641    0.8250    0.0000 C   0  0  0  0  0  0  0  0  0  0  0  0
   -2.5795    1.0799    0.0000 C   0  0  0  0  0  0  0  0  0  0  0  0
    0.5023   -3.0100    0.0000 H   0  0  0  0  0  0  0  0  0  0  0  0
    2.3555   -3.0100    0.0000 H   0  0  0  0  0  0  0  0  0  0  0  0
    1.4289   -3.5450    0.0000 H   0  0  0  0  0  0  0  0  0  0  0  0
    2.3556   -1.1150    0.0000 H   0  0  0  0  0  0  0  0  0  0  0  0
    1.4289   -0.5800    0.0000 H   0  0  0  0  0  0  0  0  0  0  0  0
   -0.2122   -1.7725    0.0000 H   0  0  0  0  0  0  0  0  0  0  0  0
   -0.2121   -0.7025    0.0000 H   0  0  0  0  0  0  0  0  0  0  0  0
    2.1434    2.3075    0.0000 H   0  0  0  0  0  0  0  0  0  0  0  0
    3.0700    1.7725    0.0000 H   0  0  0  0  0  0  0  0  0  0  0  0
    2.8579   -0.2450    0.0000 H   0  0  0  0  0  0  0  0  0  0  0  0
    3.7845    0.2900    0.0000 H   0  0  0  0  0  0  0  0  0  0  0  0
    4.4990    0.7025    0.0000 H   0  0  0  0  0  0  0  0  0  0  0  0
    3.5724    2.3075    0.0000 H   0  0  0  0  0  0  0  0  0  0  0  0
    4.4991    1.7725    0.0000 H   0  0  0  0  0  0  0  0  0  0  0  0
   -1.0888   -1.1912    0.0000 H   0  0  0  0  0  0  0  0  0  0  0  0
   -3.1645    0.4125    0.0000 H   0  0  0  0  0  0  0  0  0  0  0  0
   -2.2489   -1.2725    0.0000 H   0  0  0  0  0  0  0  0  0  0  0  0
   -3.3361   -1.0115    0.0000 H   0  0  0  0  0  0  0  0  0  0  0  0
   -4.2297   -0.6289    0.0000 H   0  0  0  0  0  0  0  0  0  0  0  0
   -4.3175    0.4858    0.0000 H   0  0  0  0  0  0  0  0  0  0  0  0
   -4.2297    1.4539    0.0000 H   0  0  0  0  0  0  0  0  0  0  0  0
   -3.1967    1.8818    0.0000 H   0  0  0  0  0  0  0  0  0  0  0  0
   -2.2489    2.0975    0.0000 H   0  0  0  0  0  0  0  0  0  0  0  0
   -1.5227    1.2474    0.0000 H   0  0  0  0  0  0  0  0  0  0  0  0
  1  2  1  0  0  0  0
  1 23  1  0  0  0  0
  1 24  1  0  0  0  0
  1 25  1  0  0  0  0
  2  3  1  0  0  0  0
  2 26  1  0  0  0  0
  2 27  1  0  0  0  0
  3  4  1  0  0  0  0
  3 28  1  0  0  0  0
  3 29  1  0  0  0  0
  4  5  1  0  0  0  0
  4 10  1  0  0  0  0
  5  6  2  0  0  0  0
  5 17  1  0  0  0  0
  6  7  1  0  0  0  0
  6 15  1  0  0  0  0
  7  8  2  0  0  0  0
  7  9  1  0  0  0  0
  9 10  1  0  0  0  0
  9 12  1  0  0  0  0
 10 11  2  0  0  0  0
 12 13  1  0  0  0  0
 12 30  1  0  0  0  0
 12 31  1  0  0  0  0
 13 14  1  0  0  0  0
 13 32  1  0  0  0  0
 13 33  1  0  0  0  0
 14 34  1  0  0  0  0
 14 35  1  0  0  0  0
 14 36  1  0  0  0  0
 15 16  2  0  0  0  0
 16 17  1  0  0  0  0
 16 18  1  0  0  0  0
 17 37  1  0  0  0  0
 18 19  1  0  0  0  0
 18 22  1  0  0  0  0
 18 38  1  0  0  0  0
 19 20  1  0  0  0  0
 19 39  1  0  0  0  0
 19 40  1  0  0  0  0
 20 21  1  0  0  0  0
 20 41  1  0  0  0  0
 20 42  1  0  0  0  0
 21 22  1  0  0  0  0
 21 43  1  0  0  0  0
 21 44  1  0  0  0  0
 22 45  1  0  0  0  0
 22 46  1  0  0  0  0
M  END
>  <DRUGBANK_ID>
DB12946

>  <COMMON_NAME>
DPCPX

>  <CAS_NUMBER>
102146-07-6

>  <UNII>
9PTP4FOI9E

>  <SYNONYMS>
8-cyclopentyl-1,3-dipropyl-1H-purine-2,6(3H,7H)-dione; 8-cyclopentyl-1,3-dipropylxanthine; CPX

$$$$
