
 OpenBabel10282417072D

 57 59  0  0  0  0  0  0  0  0999 V2000
   -0.7732   -1.4990    0.0000 C   0  0  0  0  0  0  0  0  0  0  0  0
   -0.0587   -1.0865    0.0000 C   0  0  0  0  0  0  0  0  0  0  0  0
   -1.4877   -0.2615    0.0000 C   0  0  0  0  0  0  0  0  0  0  0  0
   -0.7732    0.1509    0.0000 C   0  0  0  0  0  0  0  0  0  0  0  0
   -0.7732    0.9760    0.0000 C   0  0  0  0  0  0  0  0  0  0  0  0
   -1.4877   -1.0865    0.0000 C   0  0  0  0  0  0  0  0  0  0  0  0
   -2.6147   -0.7845    0.0000 O   0  0  0  0  0  0  0  0  0  0  0  0
   -1.7897   -2.2136    0.0000 O   0  0  0  0  0  0  0  0  0  0  0  0
   -2.2022   -1.4990    0.0000 S   0  0  0  0  0  0  0  0  0  0  0  0
   -2.9168   -1.9116    0.0000 C   0  0  0  0  0  0  0  0  0  0  0  0
   -0.0587   -0.2615    0.0000 C   0  0  0  0  0  0  0  0  0  0  0  0
    0.6558    0.9760    0.0000 O   0  0  0  0  0  0  0  0  0  0  0  0
    0.6558    0.1509    0.0000 C   0  0  0  0  0  0  0  0  0  0  0  0
    1.3704   -0.2615    0.0000 C   0  0  0  0  0  0  0  0  0  0  0  0
    1.4248   -1.0846    0.0000 C   0  0  0  0  0  0  0  0  0  0  0  0
    2.1364    0.0447    0.0000 C   0  0  0  0  0  0  0  0  0  0  0  0
    2.1364    0.8697    0.0000 O   0  0  0  0  0  0  0  0  0  0  0  0
    2.2245   -1.2872    0.0000 N   0  0  0  0  0  0  0  0  0  0  0  0
    2.6643   -0.5893    0.0000 N   0  0  0  0  0  0  0  0  0  0  0  0
    3.3780    0.3431    0.0000 C   0  0  0  0  0  0  0  0  0  0  0  0
    3.5383   -1.4592    0.0000 C   0  0  0  0  0  0  0  0  0  0  0  0
    3.4582   -0.5268    0.0000 C   0  0  0  0  0  0  0  0  0  0  0  0
    4.3457   -0.4643    0.0000 C   0  0  0  0  0  0  0  0  0  0  0  0
   -2.2022    0.1509    0.0000 C   0  0  0  0  0  0  0  0  0  0  0  0
   -3.6312    0.1509    0.0000 C   0  0  0  0  0  0  0  0  0  0  0  0
   -2.9168   -0.2615    0.0000 C   0  0  0  0  0  0  0  0  0  0  0  0
   -2.2022    0.9760    0.0000 C   0  0  0  0  0  0  0  0  0  0  0  0
   -3.6312    0.9760    0.0000 C   0  0  0  0  0  0  0  0  0  0  0  0
   -2.9168    1.3886    0.0000 C   0  0  0  0  0  0  0  0  0  0  0  0
   -4.3457    1.3886    0.0000 O   0  0  0  0  0  0  0  0  0  0  0  0
   -4.3457    2.2136    0.0000 C   0  0  0  0  0  0  0  0  0  0  0  0
   -0.7732   -2.5310    0.0000 H   0  0  0  0  0  0  0  0  0  0  0  0
    0.8350   -1.6025    0.0000 H   0  0  0  0  0  0  0  0  0  0  0  0
    0.1534    1.5110    0.0000 H   0  0  0  0  0  0  0  0  0  0  0  0
   -1.6998    1.5110    0.0000 H   0  0  0  0  0  0  0  0  0  0  0  0
   -0.7732    2.0460    0.0000 H   0  0  0  0  0  0  0  0  0  0  0  0
   -3.8435   -1.3766    0.0000 H   0  0  0  0  0  0  0  0  0  0  0  0
   -2.9168   -2.9816    0.0000 H   0  0  0  0  0  0  0  0  0  0  0  0
   -3.8434   -2.4466    0.0000 H   0  0  0  0  0  0  0  0  0  0  0  0
    0.6317   -1.7449    0.0000 H   0  0  0  0  0  0  0  0  0  0  0  0
    2.9479    1.3382    0.0000 H   0  0  0  0  0  0  0  0  0  0  0  0
    4.2516    0.9609    0.0000 H   0  0  0  0  0  0  0  0  0  0  0  0
    2.4062    0.7908    0.0000 H   0  0  0  0  0  0  0  0  0  0  0  0
    3.2798    1.4086    0.0000 H   0  0  0  0  0  0  0  0  0  0  0  0
    2.6608   -2.0716    0.0000 H   0  0  0  0  0  0  0  0  0  0  0  0
    4.5073   -1.9129    0.0000 H   0  0  0  0  0  0  0  0  0  0  0  0
    3.6299   -2.5253    0.0000 H   0  0  0  0  0  0  0  0  0  0  0  0
    4.9445   -1.3511    0.0000 H   0  0  0  0  0  0  0  0  0  0  0  0
    4.8143    0.4976    0.0000 H   0  0  0  0  0  0  0  0  0  0  0  0
    5.4131   -0.3891    0.0000 H   0  0  0  0  0  0  0  0  0  0  0  0
   -4.5249   -0.3651    0.0000 H   0  0  0  0  0  0  0  0  0  0  0  0
   -2.9169   -1.2935    0.0000 H   0  0  0  0  0  0  0  0  0  0  0  0
   -1.3085    1.4920    0.0000 H   0  0  0  0  0  0  0  0  0  0  0  0
   -2.9169    2.4206    0.0000 H   0  0  0  0  0  0  0  0  0  0  0  0
   -3.4191    2.7486    0.0000 H   0  0  0  0  0  0  0  0  0  0  0  0
   -5.2723    2.7486    0.0000 H   0  0  0  0  0  0  0  0  0  0  0  0
   -4.3457    3.2836    0.0000 H   0  0  0  0  0  0  0  0  0  0  0  0
  1  2  1  0  0  0  0
  1 32  1  0  0  0  0
  2 11  2  0  0  0  0
  2 33  1  0  0  0  0
  3  6  1  0  0  0  0
  3 24  1  0  0  0  0
  4  3  2  0  0  0  0
  4 11  1  0  0  0  0
  4  5  1  0  0  0  0
  5 34  1  0  0  0  0
  5 35  1  0  0  0  0
  5 36  1  0  0  0  0
  6  1  2  0  0  0  0
  6  9  1  0  0  0  0
  9  7  2  0  0  0  0
  9  8  2  0  0  0  0
  9 10  1  0  0  0  0
 10 37  1  0  0  0  0
 10 38  1  0  0  0  0
 10 39  1  0  0  0  0
 11 13  1  0  0  0  0
 13 12  2  0  0  0  0
 13 14  1  0  0  0  0
 14 15  1  0  0  0  0
 15 18  2  0  0  0  0
 15 40  1  0  0  0  0
 16 14  2  0  0  0  0
 16 19  1  0  0  0  0
 16 17  1  0  0  0  0
 17 41  1  0  0  0  0
 18 19  1  0  0  0  0
 19 22  1  0  0  0  0
 20 42  1  0  0  0  0
 20 43  1  0  0  0  0
 20 44  1  0  0  0  0
 21 45  1  0  0  0  0
 21 46  1  0  0  0  0
 21 47  1  0  0  0  0
 22 20  1  0  0  0  0
 22 21  1  0  0  0  0
 22 23  1  0  0  0  0
 23 48  1  0  0  0  0
 23 49  1  0  0  0  0
 23 50  1  0  0  0  0
 24 27  1  0  0  0  0
 25 26  1  0  0  0  0
 25 51  1  0  0  0  0
 26 24  2  0  0  0  0
 26 52  1  0  0  0  0
 27 53  1  0  0  0  0
 28 25  2  0  0  0  0
 28 30  1  0  0  0  0
 29 28  1  0  0  0  0
 29 27  2  0  0  0  0
 29 54  1  0  0  0  0
 30 31  1  0  0  0  0
 31 55  1  0  0  0  0
 31 56  1  0  0  0  0
 31 57  1  0  0  0  0
M  END
>  <DRUGBANK_ID>
DB02850

>  <SECONDARY_ACCESSION_NUMBERS>
EXPT00327

>  <COMMON_NAME>
DAS869

$$$$
