
 OpenBabel10282417072D

115119  0  0  1  0  0  0  0  0999 V2000
    2.1508   -3.8573    0.0000 C   0  0  0  0  0  0  0  0  0  0  0  0
    2.8198   -3.3745    0.0000 C   0  0  1  0  0  0  0  0  0  0  0  0
    2.7361   -2.5538    0.0000 N   0  0  0  0  0  0  0  0  0  0  0  0
    3.5724   -3.7125    0.0000 C   0  0  0  0  0  0  0  0  0  0  0  0
    4.2413   -3.2297    0.0000 O   0  0  0  0  0  0  0  0  0  0  0  0
    3.6560   -4.5333    0.0000 N   0  0  0  0  0  0  0  0  0  0  0  0
    4.4086   -4.8712    0.0000 C   0  0  2  0  0  0  0  0  0  0  0  0
    4.4922   -5.6920    0.0000 C   0  0  0  0  0  0  0  0  0  0  0  0
    5.2448   -6.0299    0.0000 C   0  0  0  0  0  0  0  0  0  0  0  0
    5.9138   -5.5471    0.0000 C   0  0  0  0  0  0  0  0  0  0  0  0
    6.6664   -5.8851    0.0000 C   0  0  0  0  0  0  0  0  0  0  0  0
    6.7500   -6.7058    0.0000 C   0  0  0  0  0  0  0  0  0  0  0  0
    7.5026   -7.0438    0.0000 C   0  0  0  0  0  0  0  0  0  0  0  0
    7.5862   -7.8645    0.0000 C   0  0  0  0  0  0  0  0  0  0  0  0
    6.9173   -8.3473    0.0000 C   0  0  0  0  0  0  0  0  0  0  0  0
    6.1647   -8.0094    0.0000 C   0  0  0  0  0  0  0  0  0  0  0  0
    6.0810   -7.1886    0.0000 C   0  0  0  0  0  0  0  0  0  0  0  0
    5.3284   -6.8507    0.0000 C   0  0  0  0  0  0  0  0  0  0  0  0
    5.0776   -4.3884    0.0000 C   0  0  0  0  0  0  0  0  0  0  0  0
    4.9939   -3.5677    0.0000 O   0  0  0  0  0  0  0  0  0  0  0  0
    5.8302   -4.7264    0.0000 N   0  0  0  0  0  0  0  0  0  0  0  0
    6.4991   -4.2436    0.0000 C   0  0  1  0  0  0  0  0  0  0  0  0
    6.4155   -3.4228    0.0000 C   0  0  0  0  0  0  0  0  0  0  0  0
    7.2517   -4.5815    0.0000 C   0  0  0  0  0  0  0  0  0  0  0  0
    7.3354   -5.4023    0.0000 O   0  0  0  0  0  0  0  0  0  0  0  0
    7.9207   -4.0987    0.0000 N   0  0  0  0  0  0  0  0  0  0  0  0
    8.6733   -4.4367    0.0000 C   0  0  1  0  0  0  0  0  0  0  0  0
    8.7569   -5.2574    0.0000 C   0  0  0  0  0  0  0  0  0  0  0  0
    9.5096   -5.5954    0.0000 C   0  0  0  0  0  0  0  0  0  0  0  0
   10.2253   -5.1852    0.0000 C   0  0  0  0  0  0  0  0  0  0  0  0
   10.8367   -5.7392    0.0000 N   0  0  0  0  0  0  0  0  0  0  0  0
   10.4987   -6.4918    0.0000 C   0  0  0  0  0  0  0  0  0  0  0  0
   10.8319   -7.2465    0.0000 C   0  0  0  0  0  0  0  0  0  0  0  0
   10.3448   -7.9124    0.0000 C   0  0  0  0  0  0  0  0  0  0  0  0
    9.5246   -7.8235    0.0000 C   0  0  0  0  0  0  0  0  0  0  0  0
    9.1915   -7.0688    0.0000 C   0  0  0  0  0  0  0  0  0  0  0  0
    9.6785   -6.4029    0.0000 C   0  0  0  0  0  0  0  0  0  0  0  0
    9.3423   -3.9539    0.0000 C   0  0  0  0  0  0  0  0  0  0  0  0
    9.2587   -3.1331    0.0000 O   0  0  0  0  0  0  0  0  0  0  0  0
   10.0949   -4.2919    0.0000 N   0  0  0  0  0  0  0  0  0  0  0  0
   10.7639   -3.8091    0.0000 C   0  0  2  0  0  0  0  0  0  0  0  0
   10.6803   -2.9883    0.0000 C   0  0  0  0  0  0  0  0  0  0  0  0
   11.3492   -2.5055    0.0000 C   0  0  0  0  0  0  0  0  0  0  0  0
   11.2656   -1.6848    0.0000 C   0  0  0  0  0  0  0  0  0  0  0  0
   11.9346   -1.2020    0.0000 C   0  0  0  0  0  0  0  0  0  0  0  0
   12.6872   -1.5399    0.0000 C   0  0  0  0  0  0  0  0  0  0  0  0
   12.7708   -2.3607    0.0000 C   0  0  0  0  0  0  0  0  0  0  0  0
   12.1018   -2.8435    0.0000 C   0  0  0  0  0  0  0  0  0  0  0  0
   11.5165   -4.1470    0.0000 C   0  0  0  0  0  0  0  0  0  0  0  0
   11.6001   -4.9678    0.0000 O   0  0  0  0  0  0  0  0  0  0  0  0
   12.1855   -3.6642    0.0000 N   0  0  0  0  0  0  0  0  0  0  0  0
   12.9381   -4.0022    0.0000 C   0  0  1  0  0  0  0  0  0  0  0  0
   13.6071   -3.5194    0.0000 C   0  0  0  0  0  0  0  0  0  0  0  0
   14.3597   -3.8573    0.0000 C   0  0  0  0  0  0  0  0  0  0  0  0
   15.0286   -3.3745    0.0000 C   0  0  0  0  0  0  0  0  0  0  0  0
   15.7812   -3.7125    0.0000 C   0  0  0  0  0  0  0  0  0  0  0  0
   15.8649   -4.5333    0.0000 N   0  0  0  0  0  0  0  0  0  0  0  0
   13.0217   -4.8229    0.0000 C   0  0  0  0  0  0  0  0  0  0  0  0
   13.7743   -5.1609    0.0000 N   0  0  0  0  0  0  0  0  0  0  0  0
   12.3527   -5.3057    0.0000 O   0  0  0  0  0  0  0  0  0  0  0  0
    1.1747   -3.4190    0.0000 H   0  0  0  0  0  0  0  0  0  0  0  0
    2.2592   -4.9218    0.0000 H   0  0  0  0  0  0  0  0  0  0  0  0
    1.2831   -4.4835    0.0000 H   0  0  0  0  0  0  0  0  0  0  0  0
    1.8437   -2.9362    0.0000 H   0  0  0  0  0  0  0  0  0  0  0  0
    3.5631   -1.9568    0.0000 H   0  0  0  0  0  0  0  0  0  0  0  0
    1.8056   -2.1361    0.0000 H   0  0  0  0  0  0  0  0  0  0  0  0
    2.8577   -5.1094    0.0000 H   0  0  0  0  0  0  0  0  0  0  0  0
    3.5410   -5.4974    0.0000 H   0  0  0  0  0  0  0  0  0  0  0  0
    3.6246   -6.3182    0.0000 H   0  0  0  0  0  0  0  0  0  0  0  0
    4.6007   -6.7565    0.0000 H   0  0  0  0  0  0  0  0  0  0  0  0
    5.8092   -4.5204    0.0000 H   0  0  0  0  0  0  0  0  0  0  0  0
    7.5033   -5.2812    0.0000 H   0  0  0  0  0  0  0  0  0  0  0  0
    8.3395   -6.4399    0.0000 H   0  0  0  0  0  0  0  0  0  0  0  0
    8.5276   -8.2872    0.0000 H   0  0  0  0  0  0  0  0  0  0  0  0
    7.0220   -9.3740    0.0000 H   0  0  0  0  0  0  0  0  0  0  0  0
    5.3279   -8.6134    0.0000 H   0  0  0  0  0  0  0  0  0  0  0  0
    4.4916   -7.4546    0.0000 H   0  0  0  0  0  0  0  0  0  0  0  0
    5.9300   -5.7058    0.0000 H   0  0  0  0  0  0  0  0  0  0  0  0
    5.5230   -3.8053    0.0000 H   0  0  0  0  0  0  0  0  0  0  0  0
    7.2832   -2.7967    0.0000 H   0  0  0  0  0  0  0  0  0  0  0  0
    5.4394   -2.9844    0.0000 H   0  0  0  0  0  0  0  0  0  0  0  0
    6.3071   -2.3583    0.0000 H   0  0  0  0  0  0  0  0  0  0  0  0
    7.8209   -3.1193    0.0000 H   0  0  0  0  0  0  0  0  0  0  0  0
    7.8056   -5.0628    0.0000 H   0  0  0  0  0  0  0  0  0  0  0  0
    7.8892   -5.8836    0.0000 H   0  0  0  0  0  0  0  0  0  0  0  0
    8.8654   -6.3219    0.0000 H   0  0  0  0  0  0  0  0  0  0  0  0
   10.3364   -4.1592    0.0000 H   0  0  0  0  0  0  0  0  0  0  0  0
   11.8003   -5.5376    0.0000 H   0  0  0  0  0  0  0  0  0  0  0  0
   11.8579   -7.3576    0.0000 H   0  0  0  0  0  0  0  0  0  0  0  0
   10.7615   -8.8565    0.0000 H   0  0  0  0  0  0  0  0  0  0  0  0
    8.9153   -8.6564    0.0000 H   0  0  0  0  0  0  0  0  0  0  0  0
    8.1655   -6.9577    0.0000 H   0  0  0  0  0  0  0  0  0  0  0  0
   10.1947   -5.2713    0.0000 H   0  0  0  0  0  0  0  0  0  0  0  0
    9.7878   -3.3708    0.0000 H   0  0  0  0  0  0  0  0  0  0  0  0
    9.7042   -2.5500    0.0000 H   0  0  0  0  0  0  0  0  0  0  0  0
   10.5718   -1.9238    0.0000 H   0  0  0  0  0  0  0  0  0  0  0  0
   10.3242   -1.2620    0.0000 H   0  0  0  0  0  0  0  0  0  0  0  0
   11.8300   -0.1753    0.0000 H   0  0  0  0  0  0  0  0  0  0  0  0
   13.5240   -0.9360    0.0000 H   0  0  0  0  0  0  0  0  0  0  0  0
   13.7122   -2.7835    0.0000 H   0  0  0  0  0  0  0  0  0  0  0  0
   12.2064   -3.8702    0.0000 H   0  0  0  0  0  0  0  0  0  0  0  0
   12.0857   -2.6848    0.0000 H   0  0  0  0  0  0  0  0  0  0  0  0
   12.8297   -2.9377    0.0000 H   0  0  0  0  0  0  0  0  0  0  0  0
   13.4986   -2.4549    0.0000 H   0  0  0  0  0  0  0  0  0  0  0  0
   14.4747   -2.8932    0.0000 H   0  0  0  0  0  0  0  0  0  0  0  0
   14.4682   -4.9218    0.0000 H   0  0  0  0  0  0  0  0  0  0  0  0
   15.3358   -4.2956    0.0000 H   0  0  0  0  0  0  0  0  0  0  0  0
   14.9201   -2.3100    0.0000 H   0  0  0  0  0  0  0  0  0  0  0  0
   15.8963   -2.7483    0.0000 H   0  0  0  0  0  0  0  0  0  0  0  0
   16.6488   -3.0863    0.0000 H   0  0  0  0  0  0  0  0  0  0  0  0
   16.7573   -4.1508    0.0000 H   0  0  0  0  0  0  0  0  0  0  0  0
   15.0378   -5.1303    0.0000 H   0  0  0  0  0  0  0  0  0  0  0  0
   16.7954   -4.9511    0.0000 H   0  0  0  0  0  0  0  0  0  0  0  0
   13.8740   -6.1403    0.0000 H   0  0  0  0  0  0  0  0  0  0  0  0
   14.5726   -4.5848    0.0000 H   0  0  0  0  0  0  0  0  0  0  0  0
  1 61  1  0  0  0  0
  1 62  1  0  0  0  0
  1 63  1  0  0  0  0
  2  1  1  0  0  0  0
  2  3  1  0  0  0  0
  2  4  1  0  0  0  0
  2 64  1  6  0  0  0
  3 65  1  0  0  0  0
  3 66  1  0  0  0  0
  4  5  2  0  0  0  0
  4  6  1  0  0  0  0
  6 67  1  0  0  0  0
  7  6  1  0  0  0  0
  7  8  1  0  0  0  0
  7 19  1  0  0  0  0
  7 68  1  6  0  0  0
  8  9  1  0  0  0  0
  8 69  1  0  0  0  0
  8 70  1  0  0  0  0
  9 10  1  0  0  0  0
  9 18  2  0  0  0  0
 10 11  2  0  0  0  0
 10 71  1  0  0  0  0
 11 12  1  0  0  0  0
 11 72  1  0  0  0  0
 12 13  2  0  0  0  0
 12 17  1  0  0  0  0
 13 14  1  0  0  0  0
 13 73  1  0  0  0  0
 14 15  2  0  0  0  0
 14 74  1  0  0  0  0
 15 16  1  0  0  0  0
 15 75  1  0  0  0  0
 16 17  2  0  0  0  0
 16 76  1  0  0  0  0
 17 18  1  0  0  0  0
 18 77  1  0  0  0  0
 19 20  2  0  0  0  0
 19 21  1  0  0  0  0
 21 78  1  0  0  0  0
 22 21  1  0  0  0  0
 22 23  1  0  0  0  0
 22 24  1  0  0  0  0
 22 79  1  6  0  0  0
 23 80  1  0  0  0  0
 23 81  1  0  0  0  0
 23 82  1  0  0  0  0
 24 25  2  0  0  0  0
 24 26  1  0  0  0  0
 26 83  1  0  0  0  0
 27 26  1  0  0  0  0
 27 28  1  0  0  0  0
 27 38  1  0  0  0  0
 27 84  1  1  0  0  0
 28 29  1  0  0  0  0
 28 85  1  0  0  0  0
 28 86  1  0  0  0  0
 29 30  2  0  0  0  0
 29 37  1  0  0  0  0
 30 31  1  0  0  0  0
 30 87  1  0  0  0  0
 31 32  1  0  0  0  0
 31 88  1  0  0  0  0
 32 33  2  0  0  0  0
 32 37  1  0  0  0  0
 33 34  1  0  0  0  0
 33 89  1  0  0  0  0
 34 35  2  0  0  0  0
 34 90  1  0  0  0  0
 35 36  1  0  0  0  0
 35 91  1  0  0  0  0
 36 37  2  0  0  0  0
 36 92  1  0  0  0  0
 38 39  2  0  0  0  0
 38 40  1  0  0  0  0
 40 93  1  0  0  0  0
 41 40  1  0  0  0  0
 41 42  1  0  0  0  0
 41 49  1  0  0  0  0
 41 94  1  1  0  0  0
 42 43  1  0  0  0  0
 42 95  1  0  0  0  0
 42 96  1  0  0  0  0
 43 44  2  0  0  0  0
 43 48  1  0  0  0  0
 44 45  1  0  0  0  0
 44 97  1  0  0  0  0
 45 46  2  0  0  0  0
 45 98  1  0  0  0  0
 46 47  1  0  0  0  0
 46 99  1  0  0  0  0
 47 48  2  0  0  0  0
 47100  1  0  0  0  0
 48101  1  0  0  0  0
 49 50  2  0  0  0  0
 49 51  1  0  0  0  0
 51102  1  0  0  0  0
 52 51  1  0  0  0  0
 52 53  1  0  0  0  0
 52 58  1  0  0  0  0
 52103  1  6  0  0  0
 53 54  1  0  0  0  0
 53104  1  0  0  0  0
 53105  1  0  0  0  0
 54 55  1  0  0  0  0
 54106  1  0  0  0  0
 54107  1  0  0  0  0
 55 56  1  0  0  0  0
 55108  1  0  0  0  0
 55109  1  0  0  0  0
 56 57  1  0  0  0  0
 56110  1  0  0  0  0
 56111  1  0  0  0  0
 57112  1  0  0  0  0
 57113  1  0  0  0  0
 58 59  1  0  0  0  0
 58 60  2  0  0  0  0
 59114  1  0  0  0  0
 59115  1  0  0  0  0
M  END
>  <DRUGBANK_ID>
DB18252

>  <COMMON_NAME>
Pralmorelin

>  <CAS_NUMBER>
158861-67-7

>  <UNII>
E6S6E1F19M

>  <SYNONYMS>
D-ala-3-(2-naphthyl)-d-ala-ala-trp-d-phe-lys-nh2; D-alanyl-3-(2-naphthyl)-d-alanyl-l-alanyl-l-tryptophyl-d-phenylalanyl-l-lysinamide; Growth hormone-releasing peptide 2; L-lysinamide, d-alanyl-3-(2-naphthalenyl)-d-alanyl-l-alanyl-l-tryptophyl-d-phenylalanyl-

$$$$
