
 OpenBabel10282417072D

 42 42  0  0  0  0  0  0  0  0999 V2000
   -2.8822   -0.0115    0.0000 S   0  0  0  0  0  0  0  0  0  0  0  0
   -3.5941    1.2515    0.0000 O   0  0  0  0  0  0  0  0  0  0  0  0
   -1.4468   -0.8382    0.0000 O   0  0  0  0  0  0  0  0  0  0  0  0
    0.7235    1.2515    0.0000 O   0  0  0  0  0  0  0  0  0  0  0  0
    2.8708   -0.8382    0.0000 O   0  0  0  0  0  0  0  0  0  0  0  0
    5.0295    1.2515    0.0000 O   0  0  0  0  0  0  0  0  0  0  0  0
    5.7415   -0.0115    0.0000 O   0  0  0  0  0  0  0  0  0  0  0  0
   -0.7234    0.4018    0.0000 N   0  0  0  0  0  0  0  0  0  0  0  0
    1.4353   -0.0115    0.0000 N   0  0  0  0  0  0  0  0  0  0  0  0
    3.5942    0.4018    0.0000 N   0  0  0  0  0  0  0  0  0  0  0  0
   -4.3176   -0.0115    0.0000 C   0  0  0  0  0  0  0  0  0  0  0  0
   -3.5941    0.4018    0.0000 C   0  0  0  0  0  0  0  0  0  0  0  0
   -1.4468   -0.0115    0.0000 C   0  0  0  0  0  0  0  0  0  0  0  0
   -5.0295    0.4018    0.0000 C   0  0  0  0  0  0  0  0  0  0  0  0
   -4.3176   -0.8382    0.0000 C   0  0  0  0  0  0  0  0  0  0  0  0
   -2.1588    0.4018    0.0000 C   0  0  0  0  0  0  0  0  0  0  0  0
    0.7235    0.4018    0.0000 C   0  0  0  0  0  0  0  0  0  0  0  0
   -0.0114   -0.0115    0.0000 C   0  0  0  0  0  0  0  0  0  0  0  0
    2.8708   -0.0115    0.0000 C   0  0  0  0  0  0  0  0  0  0  0  0
    2.1588    0.4018    0.0000 C   0  0  0  0  0  0  0  0  0  0  0  0
   -5.7415   -0.0115    0.0000 C   0  0  0  0  0  0  0  0  0  0  0  0
   -5.0295   -1.2515    0.0000 C   0  0  0  0  0  0  0  0  0  0  0  0
   -5.7415   -0.8382    0.0000 C   0  0  0  0  0  0  0  0  0  0  0  0
    4.3061   -0.0115    0.0000 C   0  0  0  0  0  0  0  0  0  0  0  0
    5.0295    0.4018    0.0000 C   0  0  0  0  0  0  0  0  0  0  0  0
    5.7393   -0.9485    0.0000 H   0  0  0  0  0  0  0  0  0  0  0  0
   -0.7200    1.3863    0.0000 H   0  0  0  0  0  0  0  0  0  0  0  0
    1.4318   -0.9960    0.0000 H   0  0  0  0  0  0  0  0  0  0  0  0
    3.5976    1.3863    0.0000 H   0  0  0  0  0  0  0  0  0  0  0  0
   -5.0295    1.4338    0.0000 H   0  0  0  0  0  0  0  0  0  0  0  0
   -3.4232   -1.3531    0.0000 H   0  0  0  0  0  0  0  0  0  0  0  0
   -2.1551    1.4718    0.0000 H   0  0  0  0  0  0  0  0  0  0  0  0
   -1.2306    0.9341    0.0000 H   0  0  0  0  0  0  0  0  0  0  0  0
   -0.0187   -1.0815    0.0000 H   0  0  0  0  0  0  0  0  0  0  0  0
    0.9104   -0.5549    0.0000 H   0  0  0  0  0  0  0  0  0  0  0  0
    2.1625    1.4718    0.0000 H   0  0  0  0  0  0  0  0  0  0  0  0
    3.0870    0.9341    0.0000 H   0  0  0  0  0  0  0  0  0  0  0  0
   -6.6358    0.5035    0.0000 H   0  0  0  0  0  0  0  0  0  0  0  0
   -5.0295   -2.2835    0.0000 H   0  0  0  0  0  0  0  0  0  0  0  0
   -6.6358   -1.3532    0.0000 H   0  0  0  0  0  0  0  0  0  0  0  0
    4.3024   -1.0815    0.0000 H   0  0  0  0  0  0  0  0  0  0  0  0
    5.2306   -0.5502    0.0000 H   0  0  0  0  0  0  0  0  0  0  0  0
  1 12  1  0  0  0  0
  1 16  1  0  0  0  0
  2 12  2  0  0  0  0
  3 13  2  0  0  0  0
  4 17  2  0  0  0  0
  5 19  2  0  0  0  0
  6 25  2  0  0  0  0
  7 25  1  0  0  0  0
  7 26  1  0  0  0  0
  8 13  1  0  0  0  0
  8 18  1  0  0  0  0
  8 27  1  0  0  0  0
  9 17  1  0  0  0  0
  9 20  1  0  0  0  0
  9 28  1  0  0  0  0
 10 19  1  0  0  0  0
 10 24  1  0  0  0  0
 10 29  1  0  0  0  0
 11 12  1  0  0  0  0
 11 14  2  0  0  0  0
 11 15  1  0  0  0  0
 13 16  1  0  0  0  0
 14 21  1  0  0  0  0
 14 30  1  0  0  0  0
 15 22  2  0  0  0  0
 15 31  1  0  0  0  0
 16 32  1  0  0  0  0
 16 33  1  0  0  0  0
 17 18  1  0  0  0  0
 18 34  1  0  0  0  0
 18 35  1  0  0  0  0
 19 20  1  0  0  0  0
 20 36  1  0  0  0  0
 20 37  1  0  0  0  0
 21 23  2  0  0  0  0
 21 38  1  0  0  0  0
 22 23  1  0  0  0  0
 22 39  1  0  0  0  0
 23 40  1  0  0  0  0
 24 25  1  0  0  0  0
 24 41  1  0  0  0  0
 24 42  1  0  0  0  0
M  END
>  <DRUGBANK_ID>
DB14082

>  <COMMON_NAME>
Betiatide

>  <CAS_NUMBER>
103725-47-9

>  <UNII>
9NV2SR34P8

>  <SYNONYMS>
Betiatida; Betiatide

$$$$
