
 OpenBabel10282417072D

 43 43  0  0  0  0  0  0  0  0999 V2000
   -3.2136   -1.0978    0.0000 C   0  0  0  0  0  0  0  0  0  0  0  0
   -2.4995   -0.6849    0.0000 C   0  0  0  0  0  0  0  0  0  0  0  0
   -0.3571    0.5635    0.0000 C   0  0  0  0  0  0  0  0  0  0  0  0
   -0.3620    1.3894    0.0000 N   0  0  0  0  0  0  0  0  0  0  0  0
   -1.0712    0.1457    0.0000 C   0  0  0  0  0  0  0  0  0  0  0  0
   -2.4995    0.1457    0.0000 C   0  0  0  0  0  0  0  0  0  0  0  0
   -1.7853   -1.0978    0.0000 C   0  0  0  0  0  0  0  0  0  0  0  0
   -3.6314   -1.8072    0.0000 F   0  0  0  0  0  0  0  0  0  0  0  0
   -3.9326   -0.6849    0.0000 F   0  0  0  0  0  0  0  0  0  0  0  0
   -2.8056   -1.8072    0.0000 F   0  0  0  0  0  0  0  0  0  0  0  0
   -1.0712   -0.6849    0.0000 C   0  0  0  0  0  0  0  0  0  0  0  0
   -1.7853    0.5586    0.0000 C   0  0  0  0  0  0  0  0  0  0  0  0
    0.3522    1.8024    0.0000 O   0  0  0  0  0  0  0  0  0  0  0  0
    2.4995    1.3991    0.0000 N   0  0  0  0  0  0  0  0  0  0  0  0
    1.0712    1.3943    0.0000 C   0  0  0  0  0  0  0  0  0  0  0  0
    3.2185    0.1603    0.0000 O   0  0  0  0  0  0  0  0  0  0  0  0
    0.3571    0.1506    0.0000 C   0  0  0  0  0  0  0  0  0  0  0  0
    1.7804    1.8072    0.0000 C   0  0  0  0  0  0  0  0  0  0  0  0
    2.5044    0.5732    0.0000 C   0  0  0  0  0  0  0  0  0  0  0  0
    3.9326    0.5781    0.0000 C   0  0  0  0  0  0  0  0  0  0  0  0
    1.0712    0.5683    0.0000 C   0  0  0  0  0  0  0  0  0  0  0  0
    1.7902    0.1555    0.0000 C   0  0  0  0  0  0  0  0  0  0  0  0
   -3.3934    0.6614    0.0000 H   0  0  0  0  0  0  0  0  0  0  0  0
   -1.7853   -2.1298    0.0000 H   0  0  0  0  0  0  0  0  0  0  0  0
   -0.1773   -1.2006    0.0000 H   0  0  0  0  0  0  0  0  0  0  0  0
   -1.7853    1.5906    0.0000 H   0  0  0  0  0  0  0  0  0  0  0  0
    2.5071    0.3791    0.0000 H   0  0  0  0  0  0  0  0  0  0  0  0
    3.3790    1.9156    0.0000 H   0  0  0  0  0  0  0  0  0  0  0  0
    1.0771    0.3243    0.0000 H   0  0  0  0  0  0  0  0  0  0  0  0
    2.0003    0.8635    0.0000 H   0  0  0  0  0  0  0  0  0  0  0  0
    0.3598   -0.9194    0.0000 H   0  0  0  0  0  0  0  0  0  0  0  0
    1.2859   -0.3806    0.0000 H   0  0  0  0  0  0  0  0  0  0  0  0
    1.7745    2.8772    0.0000 H   0  0  0  0  0  0  0  0  0  0  0  0
    0.8513    2.3380    0.0000 H   0  0  0  0  0  0  0  0  0  0  0  0
    2.5017    1.6432    0.0000 H   0  0  0  0  0  0  0  0  0  0  0  0
    1.5756    1.1044    0.0000 H   0  0  0  0  0  0  0  0  0  0  0  0
    4.8623    0.0485    0.0000 H   0  0  0  0  0  0  0  0  0  0  0  0
    3.9264    1.6481    0.0000 H   0  0  0  0  0  0  0  0  0  0  0  0
    4.8561    1.1184    0.0000 H   0  0  0  0  0  0  0  0  0  0  0  0
    1.0669    1.6383    0.0000 H   0  0  0  0  0  0  0  0  0  0  0  0
    1.9961    1.1063    0.0000 H   0  0  0  0  0  0  0  0  0  0  0  0
    1.7945   -0.9145    0.0000 H   0  0  0  0  0  0  0  0  0  0  0  0
    0.8653   -0.3825    0.0000 H   0  0  0  0  0  0  0  0  0  0  0  0
  2  1  1  0  0  0  0
  3  5  1  0  0  0  0
  4  3  2  0  0  0  0
  5 11  1  0  0  0  0
  6  2  2  0  0  0  0
  6 23  1  0  0  0  0
  7  2  1  0  0  0  0
  7 24  1  0  0  0  0
  8  1  1  0  0  0  0
  9  1  1  0  0  0  0
 10  1  1  0  0  0  0
 11  7  2  0  0  0  0
 11 25  1  0  0  0  0
 12  6  1  0  0  0  0
 12  5  2  0  0  0  0
 12 26  1  0  0  0  0
 13  4  1  0  0  0  0
 14 18  1  0  0  0  0
 14 27  1  0  0  0  0
 14 28  1  0  0  0  0
 15 13  1  0  0  0  0
 15 29  1  0  0  0  0
 15 30  1  0  0  0  0
 16 19  1  0  0  0  0
 17  3  1  0  0  0  0
 17 31  1  0  0  0  0
 17 32  1  0  0  0  0
 18 15  1  0  0  0  0
 18 33  1  0  0  0  0
 18 34  1  0  0  0  0
 19 22  1  0  0  0  0
 19 35  1  0  0  0  0
 19 36  1  0  0  0  0
 20 16  1  0  0  0  0
 20 37  1  0  0  0  0
 20 38  1  0  0  0  0
 20 39  1  0  0  0  0
 21 17  1  0  0  0  0
 21 40  1  0  0  0  0
 21 41  1  0  0  0  0
 22 21  1  0  0  0  0
 22 42  1  0  0  0  0
 22 43  1  0  0  0  0
M  END
>  <DRUGBANK_ID>
DB00176

>  <SECONDARY_ACCESSION_NUMBERS>
APRD00425

>  <COMMON_NAME>
Fluvoxamine

>  <CAS_NUMBER>
54739-18-3

>  <UNII>
O4L1XPO44W

>  <SYNONYMS>
Fluvoxamina; Fluvoxamine; Fluvoxaminum

$$$$
