
 OpenBabel10282417072D

 74 78  0  0  0  0  0  0  0  0999 V2000
    0.9754    2.0841    0.0000 P   0  0  3  0  0  0  0  0  0  0  0  0
   -0.4458    1.9372    0.0000 P   0  0  3  0  0  0  0  0  0  0  0  0
    3.9528    3.1258    0.0000 O   0  0  0  0  0  0  0  0  0  0  0  0
    5.2845    1.9225    0.0000 O   0  0  0  0  0  0  0  0  0  0  0  0
    1.7285    1.7473    0.0000 O   0  0  0  0  0  0  0  0  0  0  0  0
   -2.5370    0.4816    0.0000 O   0  0  0  0  0  0  0  0  0  0  0  0
   -3.5733    2.3480    0.0000 O   0  0  0  0  0  0  0  0  0  0  0  0
   -4.6309    0.8978    0.0000 O   0  0  0  0  0  0  0  0  0  0  0  0
   -1.1142    1.4535    0.0000 O   0  0  0  0  0  0  0  0  0  0  0  0
    0.2223    2.4211    0.0000 O   0  0  0  0  0  0  0  0  0  0  0  0
    1.3123    2.8373    0.0000 O   0  0  0  0  0  0  0  0  0  0  0  0
    0.6385    1.3310    0.0000 O   0  0  0  0  0  0  0  0  0  0  0  0
    0.0378    1.2690    0.0000 O   0  0  0  0  0  0  0  0  0  0  0  0
   -0.9297    2.6055    0.0000 O   0  0  0  0  0  0  0  0  0  0  0  0
    3.3104   -1.8571    0.0000 O   0  0  0  0  0  0  0  0  0  0  0  0
    4.5517    0.2841    0.0000 N   0  3  0  0  0  0  0  0  0  0  0  0
   -3.5783   -0.5561    0.0000 N   0  0  0  0  0  0  0  0  0  0  0  0
   -3.5783   -1.8839    0.0000 N   0  0  0  0  0  0  0  0  0  0  0  0
   -5.0735   -0.3950    0.0000 N   0  0  0  0  0  0  0  0  0  0  0  0
    4.5467   -2.5738    0.0000 N   0  0  0  0  0  0  0  0  0  0  0  0
   -5.7880   -1.6326    0.0000 N   0  0  0  0  0  0  0  0  0  0  0  0
   -5.0735   -2.8701    0.0000 N   0  0  0  0  0  0  0  0  0  0  0  0
    3.1499    1.8942    0.0000 C   0  0  1  0  0  0  0  0  0  0  0  0
    4.1404    0.9993    0.0000 C   0  0  2  0  0  0  0  0  0  0  0  0
    3.3201    1.0869    0.0000 C   0  0  0  0  0  0  0  0  0  0  0  0
    3.8651    2.3055    0.0000 C   0  0  2  0  0  0  0  0  0  0  0  0
    4.4773    1.7523    0.0000 C   0  0  1  0  0  0  0  0  0  0  0  0
    2.3969    2.2310    0.0000 C   0  0  0  0  0  0  0  0  0  0  0  0
   -3.3198    1.5629    0.0000 C   0  0  1  0  0  0  0  0  0  0  0  0
    4.1380   -0.4296    0.0000 C   0  0  0  0  0  0  0  0  0  0  0  0
   -3.8058    0.8963    0.0000 C   0  0  2  0  0  0  0  0  0  0  0  0
   -2.5355    1.3066    0.0000 C   0  0  1  0  0  0  0  0  0  0  0  0
    5.3767    0.2827    0.0000 C   0  0  0  0  0  0  0  0  0  0  0  0
   -3.3221    0.2280    0.0000 C   0  0  1  0  0  0  0  0  0  0  0  0
   -1.8672    1.7903    0.0000 C   0  0  0  0  0  0  0  0  0  0  0  0
    4.5492   -1.1448    0.0000 C   0  0  0  0  0  0  0  0  0  0  0  0
    5.7880   -0.4324    0.0000 C   0  0  0  0  0  0  0  0  0  0  0  0
    5.3743   -1.1463    0.0000 C   0  0  0  0  0  0  0  0  0  0  0  0
   -4.3590   -0.8076    0.0000 C   0  0  0  0  0  0  0  0  0  0  0  0
   -3.0968   -1.2201    0.0000 C   0  0  0  0  0  0  0  0  0  0  0  0
    4.1355   -1.8585    0.0000 C   0  0  0  0  0  0  0  0  0  0  0  0
   -4.3590   -1.6326    0.0000 C   0  0  0  0  0  0  0  0  0  0  0  0
   -5.0735   -2.0450    0.0000 C   0  0  0  0  0  0  0  0  0  0  0  0
   -5.7880   -0.8076    0.0000 C   0  0  0  0  0  0  0  0  0  0  0  0
    5.0582   -2.5747    0.0000 H   0  0  0  0  0  0  0  0  0  0  0  0
    4.2903   -3.0163    0.0000 H   0  0  0  0  0  0  0  0  0  0  0  0
   -5.5165   -3.1258    0.0000 H   0  0  0  0  0  0  0  0  0  0  0  0
   -4.6305   -3.1258    0.0000 H   0  0  0  0  0  0  0  0  0  0  0  0
    4.8396    3.5187    0.0000 H   0  0  0  0  0  0  0  0  0  0  0  0
    5.9324    1.2006    0.0000 H   0  0  0  0  0  0  0  0  0  0  0  0
   -2.9229    3.0677    0.0000 H   0  0  0  0  0  0  0  0  0  0  0  0
   -5.1144    1.7387    0.0000 H   0  0  0  0  0  0  0  0  0  0  0  0
    2.2772    2.9370    0.0000 H   0  0  0  0  0  0  0  0  0  0  0  0
   -0.3584    0.3836    0.0000 H   0  0  0  0  0  0  0  0  0  0  0  0
    2.3172    1.2222    0.0000 H   0  0  0  0  0  0  0  0  0  0  0  0
    3.5561    0.1029    0.0000 H   0  0  0  0  0  0  0  0  0  0  0  0
    2.6028    0.2929    0.0000 H   0  0  0  0  0  0  0  0  0  0  0  0
    3.7019    0.0873    0.0000 H   0  0  0  0  0  0  0  0  0  0  0  0
    2.9687    2.8898    0.0000 H   0  0  0  0  0  0  0  0  0  0  0  0
    5.1492    0.9196    0.0000 H   0  0  0  0  0  0  0  0  0  0  0  0
    2.2870    3.2953    0.0000 H   0  0  0  0  0  0  0  0  0  0  0  0
    3.2636    2.8584    0.0000 H   0  0  0  0  0  0  0  0  0  0  0  0
   -4.3763    1.7321    0.0000 H   0  0  0  0  0  0  0  0  0  0  0  0
    3.1060   -0.4278    0.0000 H   0  0  0  0  0  0  0  0  0  0  0  0
   -4.2899    1.8505    0.0000 H   0  0  0  0  0  0  0  0  0  0  0  0
   -1.5830    0.8191    0.0000 H   0  0  0  0  0  0  0  0  0  0  0  0
    5.8942    1.1756    0.0000 H   0  0  0  0  0  0  0  0  0  0  0  0
   -2.5668   -0.5299    0.0000 H   0  0  0  0  0  0  0  0  0  0  0  0
   -1.9772    2.8546    0.0000 H   0  0  0  0  0  0  0  0  0  0  0  0
   -2.8439    2.2273    0.0000 H   0  0  0  0  0  0  0  0  0  0  0  0
    6.8200   -0.4341    0.0000 H   0  0  0  0  0  0  0  0  0  0  0  0
    5.8888   -2.0409    0.0000 H   0  0  0  0  0  0  0  0  0  0  0  0
   -2.0648   -1.2202    0.0000 H   0  0  0  0  0  0  0  0  0  0  0  0
   -6.6818   -0.2916    0.0000 H   0  0  0  0  0  0  0  0  0  0  0  0
  1  5  1  0  0  0  0
  1 10  1  0  0  0  0
  1 11  1  0  0  0  0
  1 12  2  0  0  0  0
  2  9  1  0  0  0  0
  2 10  1  0  0  0  0
  2 13  1  0  0  0  0
  2 14  2  0  0  0  0
  3 49  1  0  0  0  0
  4 50  1  0  0  0  0
  5 28  1  0  0  0  0
  6 32  1  0  0  0  0
  6 34  1  0  0  0  0
  7 51  1  0  0  0  0
  8 52  1  0  0  0  0
  9 35  1  0  0  0  0
 11 53  1  0  0  0  0
 13 54  1  0  0  0  0
 15 41  2  0  0  0  0
 16 30  1  0  0  0  0
 16 33  2  0  0  0  0
 17 39  1  0  0  0  0
 17 40  1  0  0  0  0
 18 40  2  0  0  0  0
 18 42  1  0  0  0  0
 19 39  2  0  0  0  0
 19 44  1  0  0  0  0
 20 41  1  0  0  0  0
 20 45  1  0  0  0  0
 20 46  1  0  0  0  0
 21 43  1  0  0  0  0
 21 44  2  0  0  0  0
 22 43  1  0  0  0  0
 22 47  1  0  0  0  0
 22 48  1  0  0  0  0
 23 25  1  0  0  0  0
 23 26  1  0  0  0  0
 23 28  1  0  0  0  0
 23 55  1  1  0  0  0
 24 16  1  0  0  0  0
 24 25  1  0  0  0  0
 24 27  1  0  0  0  0
 24 56  1  1  0  0  0
 25 57  1  0  0  0  0
 25 58  1  0  0  0  0
 26  3  1  0  0  0  0
 26 27  1  0  0  0  0
 26 59  1  6  0  0  0
 27  4  1  0  0  0  0
 27 60  1  6  0  0  0
 28 61  1  0  0  0  0
 28 62  1  0  0  0  0
 29  7  1  0  0  0  0
 29 31  1  0  0  0  0
 29 32  1  0  0  0  0
 29 63  1  1  0  0  0
 30 36  2  0  0  0  0
 30 64  1  0  0  0  0
 31  8  1  0  0  0  0
 31 34  1  0  0  0  0
 31 65  1  1  0  0  0
 32 35  1  0  0  0  0
 32 66  1  6  0  0  0
 33 37  1  0  0  0  0
 33 67  1  0  0  0  0
 34 17  1  0  0  0  0
 34 68  1  6  0  0  0
 35 69  1  0  0  0  0
 35 70  1  0  0  0  0
 36 38  1  0  0  0  0
 36 41  1  0  0  0  0
 37 38  2  0  0  0  0
 37 71  1  0  0  0  0
 38 72  1  0  0  0  0
 39 42  1  0  0  0  0
 40 73  1  0  0  0  0
 42 43  2  0  0  0  0
 44 74  1  0  0  0  0
M  CHG  1  16   1
M  END
>  <DRUGBANK_ID>
DB02498

>  <SECONDARY_ACCESSION_NUMBERS>
EXPT00963

>  <COMMON_NAME>
Carba-nicotinamide-adenine-dinucleotide

$$$$
