
 OpenBabel10282417072D

 53 51  0  0  0  0  0  0  0  0999 V2000
    0.0000    0.0000    0.0000 O   0  0  0  0  0  0  0  0  0  0  0  0
    2.3571   -0.2062    0.0000 N   0  0  0  0  0  0  0  0  0  0  0  0
    3.0716    0.2063    0.0000 C   0  0  0  0  0  0  0  0  0  0  0  0
    3.7861   -0.2063    0.0000 C   0  0  0  0  0  0  0  0  0  0  0  0
    4.5006    0.2062    0.0000 C   0  0  0  0  0  0  0  0  0  0  0  0
    5.2150   -0.2063    0.0000 C   0  0  0  0  0  0  0  0  0  0  0  0
    5.9295    0.2062    0.0000 C   0  0  3  0  0  0  0  0  0  0  0  0
    5.9295    1.0312    0.0000 N   0  0  0  0  0  0  0  0  0  0  0  0
    6.6440   -0.2063    0.0000 C   0  0  0  0  0  0  0  0  0  0  0  0
    7.3584    0.2062    0.0000 O   0  0  0  0  0  0  0  0  0  0  0  0
    6.6440   -1.0313    0.0000 O   0  0  0  0  0  0  0  0  0  0  0  0
   -0.9377   -3.6977    0.0000 O   0  0  0  0  0  0  0  0  0  0  0  0
   -0.2233   -4.1102    0.0000 C   0  0  0  0  0  0  0  0  0  0  0  0
    0.4912   -4.5227    0.0000 C   0  0  0  0  0  0  0  0  0  0  0  0
    0.4912   -5.3477    0.0000 N   0  0  0  0  0  0  0  0  0  0  0  0
    1.1586   -5.8326    0.0000 C   0  0  0  0  0  0  0  0  0  0  0  0
    0.9037   -6.6172    0.0000 C   0  0  0  0  0  0  0  0  0  0  0  0
    0.0787   -6.6172    0.0000 N   0  0  0  0  0  0  0  0  0  0  0  0
   -0.1762   -5.8326    0.0000 C   0  0  0  0  0  0  0  0  0  0  0  0
    0.1892   -3.3957    0.0000 P   0  0  0  0  0  0  0  0  0  0  0  0
    0.6017   -2.6813    0.0000 O   0  0  0  0  0  0  0  0  0  0  0  0
    0.9037   -3.8082    0.0000 O   0  0  0  0  0  0  0  0  0  0  0  0
   -0.5252   -2.9832    0.0000 O   0  0  0  0  0  0  0  0  0  0  0  0
   -0.6358   -4.8247    0.0000 P   0  0  0  0  0  0  0  0  0  0  0  0
    0.0787   -5.2372    0.0000 O   0  0  0  0  0  0  0  0  0  0  0  0
   -1.0483   -5.5391    0.0000 O   0  0  0  0  0  0  0  0  0  0  0  0
   -1.3502   -4.4122    0.0000 O   0  0  0  0  0  0  0  0  0  0  0  0
    0.9700    0.0000    0.0000 H   0  0  0  0  0  0  0  0  0  0  0  0
   -0.4850    0.8400    0.0000 H   0  0  0  0  0  0  0  0  0  0  0  0
    1.4738    0.3038    0.0000 H   0  0  0  0  0  0  0  0  0  0  0  0
    2.3571   -1.2262    0.0000 H   0  0  0  0  0  0  0  0  0  0  0  0
    3.0717    1.2763    0.0000 H   0  0  0  0  0  0  0  0  0  0  0  0
    3.9983    0.7412    0.0000 H   0  0  0  0  0  0  0  0  0  0  0  0
    3.7860   -1.2763    0.0000 H   0  0  0  0  0  0  0  0  0  0  0  0
    4.7127   -0.7413    0.0000 H   0  0  0  0  0  0  0  0  0  0  0  0
    4.5006    1.2762    0.0000 H   0  0  0  0  0  0  0  0  0  0  0  0
    5.4273    0.7412    0.0000 H   0  0  0  0  0  0  0  0  0  0  0  0
    5.2150   -1.2763    0.0000 H   0  0  0  0  0  0  0  0  0  0  0  0
    6.1416   -0.7413    0.0000 H   0  0  0  0  0  0  0  0  0  0  0  0
    5.0029    0.7412    0.0000 H   0  0  0  0  0  0  0  0  0  0  0  0
    6.8128    1.5412    0.0000 H   0  0  0  0  0  0  0  0  0  0  0  0
    5.0462    1.5412    0.0000 H   0  0  0  0  0  0  0  0  0  0  0  0
    8.1699   -0.2623    0.0000 H   0  0  0  0  0  0  0  0  0  0  0  0
   -0.9377   -2.7277    0.0000 H   0  0  0  0  0  0  0  0  0  0  0  0
    1.4178   -3.9877    0.0000 H   0  0  0  0  0  0  0  0  0  0  0  0
    1.4178   -5.0577    0.0000 H   0  0  0  0  0  0  0  0  0  0  0  0
    2.1401   -5.5137    0.0000 H   0  0  0  0  0  0  0  0  0  0  0  0
    1.5103   -7.4521    0.0000 H   0  0  0  0  0  0  0  0  0  0  0  0
   -1.1577   -5.5137    0.0000 H   0  0  0  0  0  0  0  0  0  0  0  0
    1.5717   -2.6813    0.0000 H   0  0  0  0  0  0  0  0  0  0  0  0
    0.9037   -4.7782    0.0000 H   0  0  0  0  0  0  0  0  0  0  0  0
    0.0787   -6.2072    0.0000 H   0  0  0  0  0  0  0  0  0  0  0  0
   -2.0183   -5.5391    0.0000 H   0  0  0  0  0  0  0  0  0  0  0  0
  1 28  1  0  0  0  0
  1 29  1  0  0  0  0
  2  3  1  0  0  0  0
  2 30  1  0  0  0  0
  2 31  1  0  0  0  0
  3  4  1  0  0  0  0
  3 32  1  0  0  0  0
  3 33  1  0  0  0  0
  4  5  1  0  0  0  0
  4 34  1  0  0  0  0
  4 35  1  0  0  0  0
  5  6  1  0  0  0  0
  5 36  1  0  0  0  0
  5 37  1  0  0  0  0
  6  7  1  0  0  0  0
  6 38  1  0  0  0  0
  6 39  1  0  0  0  0
  7  8  1  0  0  0  0
  7  9  1  0  0  0  0
  7 40  1  0  0  0  0
  8 41  1  0  0  0  0
  8 42  1  0  0  0  0
  9 10  1  0  0  0  0
  9 11  2  0  0  0  0
 10 43  1  0  0  0  0
 12 13  1  0  0  0  0
 12 44  1  0  0  0  0
 13 14  1  0  0  0  0
 13 20  1  0  0  0  0
 13 24  1  0  0  0  0
 14 15  1  0  0  0  0
 14 45  1  0  0  0  0
 14 46  1  0  0  0  0
 15 16  1  0  0  0  0
 15 19  1  0  0  0  0
 16 17  2  0  0  0  0
 16 47  1  0  0  0  0
 17 18  1  0  0  0  0
 17 48  1  0  0  0  0
 18 19  2  0  0  0  0
 19 49  1  0  0  0  0
 20 21  1  0  0  0  0
 20 22  1  0  0  0  0
 20 23  2  0  0  0  0
 21 50  1  0  0  0  0
 22 51  1  0  0  0  0
 24 25  1  0  0  0  0
 24 26  1  0  0  0  0
 24 27  2  0  0  0  0
 25 52  1  0  0  0  0
 26 53  1  0  0  0  0
M  END
>  <DRUGBANK_ID>
DB16907

>  <COMMON_NAME>
Zoledronate D,L-Lysine Monohydrate

>  <CAS_NUMBER>
1323976-37-9

>  <UNII>
IL1N7FSO1U

$$$$
