
 OpenBabel10282417072D

 27 27  0  0  0  0  0  0  0  0999 V2000
    0.0000    0.4125    0.0000 C   0  0  2  0  0  0  0  0  0  0  0  0
    0.7144    0.0000    0.0000 C   0  0  2  0  0  0  0  0  0  0  0  0
    0.7144   -0.8250    0.0000 C   0  0  0  0  0  0  0  0  0  0  0  0
    0.0000    1.2374    0.0000 O   0  0  0  0  0  0  0  0  0  0  0  0
    1.4289    0.4125    0.0000 N   0  0  0  0  0  0  0  0  0  0  0  0
    2.1434    0.0000    0.0000 C   0  0  0  0  0  0  0  0  0  0  0  0
   -0.7144    0.0000    0.0000 C   0  0  0  0  0  0  0  0  0  0  0  0
   -0.7144   -0.8250    0.0000 C   0  0  0  0  0  0  0  0  0  0  0  0
   -1.4289    0.4125    0.0000 C   0  0  0  0  0  0  0  0  0  0  0  0
   -1.4289   -1.2374    0.0000 C   0  0  0  0  0  0  0  0  0  0  0  0
   -2.1434    0.0000    0.0000 C   0  0  0  0  0  0  0  0  0  0  0  0
   -2.1434   -0.8250    0.0000 C   0  0  0  0  0  0  0  0  0  0  0  0
    0.9267    0.9475    0.0000 H   0  0  0  0  0  0  0  0  0  0  0  0
   -0.2123   -0.5350    0.0000 H   0  0  0  0  0  0  0  0  0  0  0  0
   -0.2122   -1.3600    0.0000 H   0  0  0  0  0  0  0  0  0  0  0  0
    1.6410   -1.3600    0.0000 H   0  0  0  0  0  0  0  0  0  0  0  0
    0.7144   -1.8950    0.0000 H   0  0  0  0  0  0  0  0  0  0  0  0
    0.8400    1.7224    0.0000 H   0  0  0  0  0  0  0  0  0  0  0  0
    1.4289    1.4325    0.0000 H   0  0  0  0  0  0  0  0  0  0  0  0
    2.1434   -1.0700    0.0000 H   0  0  0  0  0  0  0  0  0  0  0  0
    3.0700    0.5350    0.0000 H   0  0  0  0  0  0  0  0  0  0  0  0
    3.0701   -0.5350    0.0000 H   0  0  0  0  0  0  0  0  0  0  0  0
    0.1793   -1.3411    0.0000 H   0  0  0  0  0  0  0  0  0  0  0  0
   -1.4289    1.4445    0.0000 H   0  0  0  0  0  0  0  0  0  0  0  0
   -1.4289   -2.2694    0.0000 H   0  0  0  0  0  0  0  0  0  0  0  0
   -3.0371    0.5160    0.0000 H   0  0  0  0  0  0  0  0  0  0  0  0
   -3.0371   -1.3411    0.0000 H   0  0  0  0  0  0  0  0  0  0  0  0
  1  4  1  0  0  0  0
  1 13  1  6  0  0  0
  2  1  1  0  0  0  0
  2  3  1  0  0  0  0
  2 14  1  6  0  0  0
  3 15  1  0  0  0  0
  3 16  1  0  0  0  0
  3 17  1  0  0  0  0
  4 18  1  0  0  0  0
  5  2  1  0  0  0  0
  5 19  1  0  0  0  0
  6  5  1  0  0  0  0
  6 20  1  0  0  0  0
  6 21  1  0  0  0  0
  6 22  1  0  0  0  0
  7  1  1  0  0  0  0
  8  7  1  0  0  0  0
  8 23  1  0  0  0  0
  9  7  2  0  0  0  0
  9 24  1  0  0  0  0
 10  8  2  0  0  0  0
 10 25  1  0  0  0  0
 11  9  1  0  0  0  0
 11 26  1  0  0  0  0
 12 10  1  0  0  0  0
 12 11  2  0  0  0  0
 12 27  1  0  0  0  0
M  END
>  <DRUGBANK_ID>
DB01364

>  <COMMON_NAME>
Ephedrine

>  <CAS_NUMBER>
299-42-3

>  <UNII>
GN83C131XS

>  <SYNONYMS>
(-)-Ephedrine; (1R,2S)-1-Phenyl-1-hydroxy-2-methylaminopropane; Efedrina; Ephedrine; L-Ephedrine; L-erythro-2-(Methylamino)-1-phenylpropan-1-ol; L(âˆ’)-ephedrine

$$$$
