
 OpenBabel10282417072D

 28 28  0  0  0  0  0  0  0  0999 V2000
   -1.7861   -0.4125    0.0000 N   0  0  0  0  0  0  0  0  0  0  0  0
   -1.0717    0.0000    0.0000 N   0  0  0  0  0  0  0  0  0  0  0  0
   -2.5007    0.0000    0.0000 C   0  0  0  0  0  0  0  0  0  0  0  0
   -2.5007    0.8250    0.0000 N   0  0  0  0  0  0  0  0  0  0  0  0
   -3.2151   -0.4125    0.0000 N   0  0  0  0  0  0  0  0  0  0  0  0
   -0.3572   -0.4125    0.0000 C   0  0  0  0  0  0  0  0  0  0  0  0
    0.3572    0.0000    0.0000 C   0  0  0  0  0  0  0  0  0  0  0  0
    1.0717   -0.4125    0.0000 O   0  0  0  0  0  0  0  0  0  0  0  0
    1.7861    0.0000    0.0000 C   0  0  0  0  0  0  0  0  0  0  0  0
    1.7861    0.8250    0.0000 C   0  0  0  0  0  0  0  0  0  0  0  0
    2.5007    1.2375    0.0000 C   0  0  0  0  0  0  0  0  0  0  0  0
    3.2151    0.8250    0.0000 C   0  0  0  0  0  0  0  0  0  0  0  0
    3.2151    0.0000    0.0000 C   0  0  0  0  0  0  0  0  0  0  0  0
    2.5006   -0.4125    0.0000 C   0  0  0  0  0  0  0  0  0  0  0  0
    2.5006   -1.2375    0.0000 Cl  0  0  0  0  0  0  0  0  0  0  0  0
    1.0717    1.2375    0.0000 Cl  0  0  0  0  0  0  0  0  0  0  0  0
   -1.7860   -1.3970    0.0000 H   0  0  0  0  0  0  0  0  0  0  0  0
   -1.0717    1.0200    0.0000 H   0  0  0  0  0  0  0  0  0  0  0  0
   -1.6481    1.3173    0.0000 H   0  0  0  0  0  0  0  0  0  0  0  0
   -4.0677    0.0797    0.0000 H   0  0  0  0  0  0  0  0  0  0  0  0
   -3.2151   -1.3970    0.0000 H   0  0  0  0  0  0  0  0  0  0  0  0
   -0.3572   -1.4825    0.0000 H   0  0  0  0  0  0  0  0  0  0  0  0
   -1.2838   -0.9475    0.0000 H   0  0  0  0  0  0  0  0  0  0  0  0
    0.3572    1.0700    0.0000 H   0  0  0  0  0  0  0  0  0  0  0  0
    1.2838    0.5350    0.0000 H   0  0  0  0  0  0  0  0  0  0  0  0
    2.5008    2.2695    0.0000 H   0  0  0  0  0  0  0  0  0  0  0  0
    4.1088    1.3410    0.0000 H   0  0  0  0  0  0  0  0  0  0  0  0
    4.1088   -0.5160    0.0000 H   0  0  0  0  0  0  0  0  0  0  0  0
  1  2  1  0  0  0  0
  1  3  1  0  0  0  0
  1 17  1  0  0  0  0
  2  6  1  0  0  0  0
  2 18  1  0  0  0  0
  3  4  2  0  0  0  0
  3  5  1  0  0  0  0
  4 19  1  0  0  0  0
  5 20  1  0  0  0  0
  5 21  1  0  0  0  0
  6  7  1  0  0  0  0
  6 22  1  0  0  0  0
  6 23  1  0  0  0  0
  7  8  1  0  0  0  0
  7 24  1  0  0  0  0
  7 25  1  0  0  0  0
  8  9  1  0  0  0  0
  9 10  1  0  0  0  0
  9 14  2  0  0  0  0
 10 11  2  0  0  0  0
 10 16  1  0  0  0  0
 11 12  1  0  0  0  0
 11 26  1  0  0  0  0
 12 13  2  0  0  0  0
 12 27  1  0  0  0  0
 13 14  1  0  0  0  0
 13 28  1  0  0  0  0
 14 15  1  0  0  0  0
M  END
>  <DRUGBANK_ID>
DB13779

>  <COMMON_NAME>
Guanoclor

>  <CAS_NUMBER>
5001-32-1

>  <UNII>
M4HBT852YO

>  <SYNONYMS>
Guanoclor; Guanocloro; Guanoclorum

$$$$
