
 OpenBabel10282417072D

 68 72  0  0  0  0  0  0  0  0999 V2000
    3.7898   -4.5653    0.0000 C   0  0  0  0  0  0  0  0  0  0  0  0
    4.0447   -3.7806    0.0000 C   0  0  0  0  0  0  0  0  0  0  0  0
    3.4927   -3.1676    0.0000 S   0  0  0  0  0  0  0  0  0  0  0  0
    4.1058   -2.6155    0.0000 O   0  0  0  0  0  0  0  0  0  0  0  0
    2.8796   -3.7196    0.0000 O   0  0  0  0  0  0  0  0  0  0  0  0
    2.9406   -2.5545    0.0000 C   0  0  0  0  0  0  0  0  0  0  0  0
    2.1337   -2.7260    0.0000 C   0  0  0  0  0  0  0  0  0  0  0  0
    1.5816   -2.1129    0.0000 C   0  0  0  0  0  0  0  0  0  0  0  0
    1.8366   -1.3283    0.0000 C   0  0  0  0  0  0  0  0  0  0  0  0
    2.6435   -1.1567    0.0000 C   0  0  0  0  0  0  0  0  0  0  0  0
    3.1956   -1.7698    0.0000 C   0  0  0  0  0  0  0  0  0  0  0  0
    2.8985   -0.3721    0.0000 C   0  0  0  0  0  0  0  0  0  0  0  0
    3.7054   -0.2006    0.0000 C   0  0  0  0  0  0  0  0  0  0  0  0
    3.9604    0.5840    0.0000 C   0  0  0  0  0  0  0  0  0  0  0  0
    3.4084    1.1971    0.0000 C   0  0  0  0  0  0  0  0  0  0  0  0
    2.6014    1.0256    0.0000 C   0  0  0  0  0  0  0  0  0  0  0  0
    2.3464    0.2410    0.0000 C   0  0  0  0  0  0  0  0  0  0  0  0
    1.5214    0.2410    0.0000 C   0  0  0  0  0  0  0  0  0  0  0  0
    0.9694   -0.3721    0.0000 C   0  0  0  0  0  0  0  0  0  0  0  0
    0.1624   -0.2006    0.0000 C   0  0  0  0  0  0  0  0  0  0  0  0
   -0.0925    0.5840    0.0000 C   0  0  0  0  0  0  0  0  0  0  0  0
    0.4595    1.1971    0.0000 N   0  0  0  0  0  0  0  0  0  0  0  0
    1.2665    1.0256    0.0000 C   0  0  0  0  0  0  0  0  0  0  0  0
    1.9339    1.5105    0.0000 N   0  0  0  0  0  0  0  0  0  0  0  0
   -0.3896   -0.8137    0.0000 C   0  0  0  0  0  0  0  0  0  0  0  0
    3.6633    1.9817    0.0000 C   0  0  0  0  0  0  0  0  0  0  0  0
    4.7674    0.7556    0.0000 C   0  0  0  0  0  0  0  0  0  0  0  0
    5.3194    0.1425    0.0000 O   0  0  0  0  0  0  0  0  0  0  0  0
    5.0223    1.5402    0.0000 N   0  0  0  0  0  0  0  0  0  0  0  0
    5.8293    1.7117    0.0000 C   0  0  0  0  0  0  0  0  0  0  0  0
    6.0842    2.4963    0.0000 C   0  0  0  0  0  0  0  0  0  0  0  0
    6.8912    2.6679    0.0000 C   0  0  0  0  0  0  0  0  0  0  0  0
    7.4432    2.0548    0.0000 N   0  0  0  0  0  0  0  0  0  0  0  0
    7.1883    1.2701    0.0000 C   0  0  0  0  0  0  0  0  0  0  0  0
    6.3813    1.0986    0.0000 C   0  0  0  0  0  0  0  0  0  0  0  0
    8.2502    2.2263    0.0000 C   0  0  0  0  0  0  0  0  0  0  0  0
    2.7432   -4.7878    0.0000 H   0  0  0  0  0  0  0  0  0  0  0  0
    4.5058   -5.3604    0.0000 H   0  0  0  0  0  0  0  0  0  0  0  0
    3.4592   -5.5830    0.0000 H   0  0  0  0  0  0  0  0  0  0  0  0
    5.0913   -3.5581    0.0000 H   0  0  0  0  0  0  0  0  0  0  0  0
    4.3753   -2.7630    0.0000 H   0  0  0  0  0  0  0  0  0  0  0  0
    1.8148   -3.7075    0.0000 H   0  0  0  0  0  0  0  0  0  0  0  0
    0.5721   -2.3275    0.0000 H   0  0  0  0  0  0  0  0  0  0  0  0
    1.1460   -0.5614    0.0000 H   0  0  0  0  0  0  0  0  0  0  0  0
    4.2050   -1.5552    0.0000 H   0  0  0  0  0  0  0  0  0  0  0  0
    4.3959   -0.9676    0.0000 H   0  0  0  0  0  0  0  0  0  0  0  0
    1.2883   -1.3536    0.0000 H   0  0  0  0  0  0  0  0  0  0  0  0
   -1.1019    0.7986    0.0000 H   0  0  0  0  0  0  0  0  0  0  0  0
    1.9339    2.4950    0.0000 H   0  0  0  0  0  0  0  0  0  0  0  0
   -1.4362   -0.5913    0.0000 H   0  0  0  0  0  0  0  0  0  0  0  0
   -0.0589   -1.8313    0.0000 H   0  0  0  0  0  0  0  0  0  0  0  0
   -1.1055   -1.6089    0.0000 H   0  0  0  0  0  0  0  0  0  0  0  0
    4.7099    2.2042    0.0000 H   0  0  0  0  0  0  0  0  0  0  0  0
    2.9473    2.7768    0.0000 H   0  0  0  0  0  0  0  0  0  0  0  0
    3.9939    2.9993    0.0000 H   0  0  0  0  0  0  0  0  0  0  0  0
    4.3635    2.2718    0.0000 H   0  0  0  0  0  0  0  0  0  0  0  0
    6.8759    1.9342    0.0000 H   0  0  0  0  0  0  0  0  0  0  0  0
    5.3682    3.2914    0.0000 H   0  0  0  0  0  0  0  0  0  0  0  0
    6.4148    3.5140    0.0000 H   0  0  0  0  0  0  0  0  0  0  0  0
    7.2218    3.6855    0.0000 H   0  0  0  0  0  0  0  0  0  0  0  0
    7.9378    2.8904    0.0000 H   0  0  0  0  0  0  0  0  0  0  0  0
    7.9043    0.4749    0.0000 H   0  0  0  0  0  0  0  0  0  0  0  0
    6.8576    0.2525    0.0000 H   0  0  0  0  0  0  0  0  0  0  0  0
    6.0506    0.0810    0.0000 H   0  0  0  0  0  0  0  0  0  0  0  0
    5.3347    0.8762    0.0000 H   0  0  0  0  0  0  0  0  0  0  0  0
    8.9661    1.4311    0.0000 H   0  0  0  0  0  0  0  0  0  0  0  0
    8.5809    3.2439    0.0000 H   0  0  0  0  0  0  0  0  0  0  0  0
    9.2968    2.4487    0.0000 H   0  0  0  0  0  0  0  0  0  0  0  0
  1  2  1  0  0  0  0
  1 37  1  0  0  0  0
  1 38  1  0  0  0  0
  1 39  1  0  0  0  0
  2  3  1  0  0  0  0
  2 40  1  0  0  0  0
  2 41  1  0  0  0  0
  3  4  2  0  0  0  0
  3  5  2  0  0  0  0
  3  6  1  0  0  0  0
  6  7  2  0  0  0  0
  6 11  1  0  0  0  0
  7  8  1  0  0  0  0
  7 42  1  0  0  0  0
  8  9  2  0  0  0  0
  8 43  1  0  0  0  0
  9 10  1  0  0  0  0
  9 44  1  0  0  0  0
 10 11  2  0  0  0  0
 10 12  1  0  0  0  0
 11 45  1  0  0  0  0
 12 13  2  0  0  0  0
 12 17  1  0  0  0  0
 13 14  1  0  0  0  0
 13 46  1  0  0  0  0
 14 15  2  0  0  0  0
 14 27  1  0  0  0  0
 15 16  1  0  0  0  0
 15 26  1  0  0  0  0
 16 17  2  0  0  0  0
 16 24  1  0  0  0  0
 17 18  1  0  0  0  0
 18 19  1  0  0  0  0
 18 23  2  0  0  0  0
 19 20  2  0  0  0  0
 19 47  1  0  0  0  0
 20 21  1  0  0  0  0
 20 25  1  0  0  0  0
 21 22  2  0  0  0  0
 21 48  1  0  0  0  0
 22 23  1  0  0  0  0
 23 24  1  0  0  0  0
 24 49  1  0  0  0  0
 25 50  1  0  0  0  0
 25 51  1  0  0  0  0
 25 52  1  0  0  0  0
 26 53  1  0  0  0  0
 26 54  1  0  0  0  0
 26 55  1  0  0  0  0
 27 28  2  0  0  0  0
 27 29  1  0  0  0  0
 29 30  1  0  0  0  0
 29 56  1  0  0  0  0
 30 31  1  0  0  0  0
 30 35  1  0  0  0  0
 30 57  1  0  0  0  0
 31 32  1  0  0  0  0
 31 58  1  0  0  0  0
 31 59  1  0  0  0  0
 32 33  1  0  0  0  0
 32 60  1  0  0  0  0
 32 61  1  0  0  0  0
 33 34  1  0  0  0  0
 33 36  1  0  0  0  0
 34 35  1  0  0  0  0
 34 62  1  0  0  0  0
 34 63  1  0  0  0  0
 35 64  1  0  0  0  0
 35 65  1  0  0  0  0
 36 66  1  0  0  0  0
 36 67  1  0  0  0  0
 36 68  1  0  0  0  0
M  END
>  <DRUGBANK_ID>
DB12756

>  <COMMON_NAME>
TAK-901

>  <CAS_NUMBER>
934541-31-8

>  <UNII>
DM9UIR23R7

$$$$
