
 OpenBabel10282417072D

 58 60  0  0  1  0  0  0  0  0999 V2000
    4.3489    1.5727    0.0000 C   0  0  0  0  0  0  0  0  0  0  0  0
    4.0668    2.3479    0.0000 C   0  0  2  0  0  0  0  0  0  0  0  0
    3.5365    2.9799    0.0000 C   0  0  0  0  0  0  0  0  0  0  0  0
    3.8186    3.7552    0.0000 C   0  0  0  0  0  0  0  0  0  0  0  0
    4.6311    3.8984    0.0000 C   0  0  1  0  0  0  0  0  0  0  0  0
    5.1614    3.2664    0.0000 C   0  0  0  0  0  0  0  0  0  0  0  0
    4.8792    2.4912    0.0000 C   0  0  2  0  0  0  0  0  0  0  0  0
    5.4095    1.8592    0.0000 C   0  0  0  0  0  0  0  0  0  0  0  0
    5.1274    1.0840    0.0000 O   0  0  0  0  0  0  0  0  0  0  0  0
    4.9133    4.6737    0.0000 O   0  0  0  0  0  0  0  0  0  0  0  0
    3.3523    1.9354    0.0000 C   0  0  1  0  0  0  0  0  0  0  0  0
    3.3523    1.1104    0.0000 C   0  0  0  0  0  0  0  0  0  0  0  0
    2.6378    0.6979    0.0000 C   0  0  0  0  0  0  0  0  0  0  0  0
    1.9233    1.1104    0.0000 C   0  0  1  0  0  0  0  0  0  0  0  0
    1.9233    1.9354    0.0000 C   0  0  2  0  0  0  0  0  0  0  0  0
    2.6378    2.3479    0.0000 C   0  0  2  0  0  0  0  0  0  0  0  0
    2.6378    3.1729    0.0000 C   0  0  0  0  0  0  0  0  0  0  0  0
    3.3523    3.5854    0.0000 N   0  0  0  0  0  0  0  0  0  0  0  0
    1.1387    2.1904    0.0000 C   0  0  0  0  0  0  0  0  0  0  0  0
    0.6538    1.5229    0.0000 C   0  0  0  0  0  0  0  0  0  0  0  0
    1.1387    0.8555    0.0000 C   0  0  0  0  0  0  0  0  0  0  0  0
    0.8838    0.0709    0.0000 C   0  0  0  0  0  0  0  0  0  0  0  0
    1.8371    0.2900    0.0000 C   0  0  0  0  0  0  0  0  0  0  0  0
    3.6611    0.7531    0.0000 H   0  0  0  0  0  0  0  0  0  0  0  0
    5.4026    1.3868    0.0000 H   0  0  0  0  0  0  0  0  0  0  0  0
    4.7148    0.5672    0.0000 H   0  0  0  0  0  0  0  0  0  0  0  0
    2.4828    2.7941    0.0000 H   0  0  0  0  0  0  0  0  0  0  0  0
    2.8487    3.7995    0.0000 H   0  0  0  0  0  0  0  0  0  0  0  0
    3.1308    4.5749    0.0000 H   0  0  0  0  0  0  0  0  0  0  0  0
    4.1846    4.7607    0.0000 H   0  0  0  0  0  0  0  0  0  0  0  0
    3.9434    4.7181    0.0000 H   0  0  0  0  0  0  0  0  0  0  0  0
    6.2152    3.4522    0.0000 H   0  0  0  0  0  0  0  0  0  0  0  0
    5.8491    2.4467    0.0000 H   0  0  0  0  0  0  0  0  0  0  0  0
    5.9330    2.6770    0.0000 H   0  0  0  0  0  0  0  0  0  0  0  0
    6.4632    2.0450    0.0000 H   0  0  0  0  0  0  0  0  0  0  0  0
    6.0973    1.0396    0.0000 H   0  0  0  0  0  0  0  0  0  0  0  0
    4.1721    0.9155    0.0000 H   0  0  0  0  0  0  0  0  0  0  0  0
    5.8686    4.8421    0.0000 H   0  0  0  0  0  0  0  0  0  0  0  0
    2.4257    1.4004    0.0000 H   0  0  0  0  0  0  0  0  0  0  0  0
    4.2789    0.5754    0.0000 H   0  0  0  0  0  0  0  0  0  0  0  0
    3.3523    0.0404    0.0000 H   0  0  0  0  0  0  0  0  0  0  0  0
    2.6378   -0.3721    0.0000 H   0  0  0  0  0  0  0  0  0  0  0  0
    1.7112    0.1629    0.0000 H   0  0  0  0  0  0  0  0  0  0  0  0
    1.0576    1.3065    0.0000 H   0  0  0  0  0  0  0  0  0  0  0  0
    1.7112    2.8829    0.0000 H   0  0  0  0  0  0  0  0  0  0  0  0
    1.7112    3.7079    0.0000 H   0  0  0  0  0  0  0  0  0  0  0  0
    2.6378    4.2429    0.0000 H   0  0  0  0  0  0  0  0  0  0  0  0
    4.2356    3.0754    0.0000 H   0  0  0  0  0  0  0  0  0  0  0  0
    3.3523    4.6054    0.0000 H   0  0  0  0  0  0  0  0  0  0  0  0
    0.8081    3.2080    0.0000 H   0  0  0  0  0  0  0  0  0  0  0  0
    0.0819    2.3578    0.0000 H   0  0  0  0  0  0  0  0  0  0  0  0
   -0.4162    1.5229    0.0000 H   0  0  0  0  0  0  0  0  0  0  0  0
    0.1680    0.5695    0.0000 H   0  0  0  0  0  0  0  0  0  0  0  0
   -0.1256   -0.1437    0.0000 H   0  0  0  0  0  0  0  0  0  0  0  0
    1.5744   -0.6960    0.0000 H   0  0  0  0  0  0  0  0  0  0  0  0
    0.8596   -0.1452    0.0000 H   0  0  0  0  0  0  0  0  0  0  0  0
    2.7028   -0.3389    0.0000 H   0  0  0  0  0  0  0  0  0  0  0  0
    1.7253   -0.7741    0.0000 H   0  0  0  0  0  0  0  0  0  0  0  0
  1 24  1  0  0  0  0
  1 25  1  0  0  0  0
  1 26  1  0  0  0  0
  2  1  1  6  0  0  0
  2  3  1  0  0  0  0
  2  7  1  0  0  0  0
  2 11  1  0  0  0  0
  3  4  1  0  0  0  0
  3 27  1  0  0  0  0
  3 28  1  0  0  0  0
  4  5  1  0  0  0  0
  4 29  1  0  0  0  0
  4 30  1  0  0  0  0
  5  6  1  0  0  0  0
  5 10  1  0  0  0  0
  5 31  1  1  0  0  0
  6  7  1  0  0  0  0
  6 32  1  0  0  0  0
  6 33  1  0  0  0  0
  7  8  1  0  0  0  0
  7 34  1  1  0  0  0
  8  9  1  0  0  0  0
  8 35  1  0  0  0  0
  8 36  1  0  0  0  0
  9 37  1  0  0  0  0
 10 38  1  0  0  0  0
 11 12  1  0  0  0  0
 11 16  1  0  0  0  0
 11 39  1  6  0  0  0
 12 13  1  0  0  0  0
 12 40  1  0  0  0  0
 12 41  1  0  0  0  0
 13 14  1  0  0  0  0
 13 42  1  0  0  0  0
 13 43  1  0  0  0  0
 14 15  1  0  0  0  0
 14 21  1  0  0  0  0
 14 23  1  1  0  0  0
 15 16  1  0  0  0  0
 15 19  1  0  0  0  0
 15 44  1  6  0  0  0
 16 17  1  0  0  0  0
 16 45  1  1  0  0  0
 17 18  1  0  0  0  0
 17 46  1  0  0  0  0
 17 47  1  0  0  0  0
 18 48  1  0  0  0  0
 18 49  1  0  0  0  0
 19 20  1  0  0  0  0
 19 50  1  0  0  0  0
 19 51  1  0  0  0  0
 20 21  1  0  0  0  0
 20 52  1  0  0  0  0
 20 53  1  0  0  0  0
 21 22  2  0  0  0  0
 22 54  1  0  0  0  0
 22 55  1  0  0  0  0
 23 56  1  0  0  0  0
 23 57  1  0  0  0  0
 23 58  1  0  0  0  0
M  END
>  <DRUGBANK_ID>
DB13012

>  <COMMON_NAME>
AQX-1125

>  <CAS_NUMBER>
782487-28-9

>  <UNII>
6R5034F862

$$$$
