[NO NAME]
 OpenBabel10282417072D
Created with ChemWriter - http://chemwriter.com
 52 55  0  0  1  0  0  0  0  0999 V2000
   11.5249  -14.3560    0.0000 C   0  0  0  0  0  0  0  0  0  0  0  0
   10.0258  -15.3386    0.0000 C   0  0  0  0  0  0  0  0  0  0  0  0
   10.0258  -12.8637    0.0000 C   0  0  0  0  0  0  0  0  0  0  0  0
   12.0098  -13.6886    0.0000 C   0  0  0  0  0  0  0  0  0  0  0  0
    9.3113  -13.2761    0.0000 C   0  0  0  0  0  0  0  0  0  0  0  0
    7.8824  -14.1011    0.0000 C   0  0  0  0  0  0  0  0  0  0  0  0
    7.8824  -15.7511    0.0000 C   0  0  0  0  0  0  0  0  0  0  0  0
   10.0258  -14.5136    0.0000 C   0  0  2  0  0  0  0  0  0  0  0  0
   10.0258  -13.6886    0.0000 H   0  0  0  0  0  0  0  0  0  0  0  0
    9.3113  -14.1011    0.0000 C   0  0  1  0  0  0  0  0  0  0  0  0
    9.3113  -14.9261    0.0000 H   0  0  0  0  0  0  0  0  0  0  0  0
   10.7402  -13.2761    0.0000 C   0  0  1  0  0  0  0  0  0  0  0  0
   10.7402  -12.4512    0.0000 C   0  0  0  0  0  0  0  0  0  0  0  0
   10.7402  -14.1011    0.0000 C   0  0  1  0  0  0  0  0  0  0  0  0
   10.7402  -14.9261    0.0000 H   0  0  0  0  0  0  0  0  0  0  0  0
    8.5968  -14.5136    0.0000 C   0  0  1  0  0  0  0  0  0  0  0  0
    8.5968  -13.6886    0.0000 C   0  0  0  0  0  0  0  0  0  0  0  0
    7.1679  -14.5136    0.0000 C   0  0  0  0  0  0  0  0  0  0  0  0
    7.1679  -15.3386    0.0000 C   0  0  0  0  0  0  0  0  0  0  0  0
    6.4535  -15.7511    0.0000 O   0  0  0  0  0  0  0  0  0  0  0  0
    8.5968  -15.3386    0.0000 C   0  0  0  0  0  0  0  0  0  0  0  0
    9.3113  -15.7511    0.0000 C   0  0  0  0  0  0  0  0  0  0  0  0
   11.5249  -13.0212    0.0000 C   0  0  2  0  0  0  0  0  0  0  0  0
   12.2393  -13.1423    0.0000 C   0  0  0  0  0  0  0  0  0  0  0  0
   11.5249  -12.1962    0.0000 O   0  0  0  0  0  0  0  0  0  0  0  0
   11.8556  -15.3736    0.0000 H   0  0  0  0  0  0  0  0  0  0  0  0
   12.5817  -14.5234    0.0000 H   0  0  0  0  0  0  0  0  0  0  0  0
   10.9524  -15.8736    0.0000 H   0  0  0  0  0  0  0  0  0  0  0  0
   10.0258  -16.4086    0.0000 H   0  0  0  0  0  0  0  0  0  0  0  0
   10.0258  -11.7937    0.0000 H   0  0  0  0  0  0  0  0  0  0  0  0
    9.0992  -12.3286    0.0000 H   0  0  0  0  0  0  0  0  0  0  0  0
   13.0798  -13.6886    0.0000 H   0  0  0  0  0  0  0  0  0  0  0  0
   12.4956  -12.7352    0.0000 H   0  0  0  0  0  0  0  0  0  0  0  0
    8.3847  -12.7410    0.0000 H   0  0  0  0  0  0  0  0  0  0  0  0
    9.3114  -12.2061    0.0000 H   0  0  0  0  0  0  0  0  0  0  0  0
    7.8824  -13.0311    0.0000 H   0  0  0  0  0  0  0  0  0  0  0  0
    6.9558  -13.5661    0.0000 H   0  0  0  0  0  0  0  0  0  0  0  0
    7.8824  -16.7831    0.0000 H   0  0  0  0  0  0  0  0  0  0  0  0
   11.6668  -11.9162    0.0000 H   0  0  0  0  0  0  0  0  0  0  0  0
    9.8136  -11.9162    0.0000 H   0  0  0  0  0  0  0  0  0  0  0  0
   10.7402  -11.3812    0.0000 H   0  0  0  0  0  0  0  0  0  0  0  0
    9.5234  -13.1536    0.0000 H   0  0  0  0  0  0  0  0  0  0  0  0
    7.6702  -13.1536    0.0000 H   0  0  0  0  0  0  0  0  0  0  0  0
    8.5968  -12.6186    0.0000 H   0  0  0  0  0  0  0  0  0  0  0  0
    6.2413  -13.9786    0.0000 H   0  0  0  0  0  0  0  0  0  0  0  0
    6.2413  -15.0486    0.0000 H   0  0  0  0  0  0  0  0  0  0  0  0
    9.3113  -16.8211    0.0000 H   0  0  0  0  0  0  0  0  0  0  0  0
    8.3847  -16.2861    0.0000 H   0  0  0  0  0  0  0  0  0  0  0  0
   12.6119  -14.1453    0.0000 H   0  0  0  0  0  0  0  0  0  0  0  0
   12.9216  -12.3181    0.0000 H   0  0  0  0  0  0  0  0  0  0  0  0
   13.2943  -13.3211    0.0000 H   0  0  0  0  0  0  0  0  0  0  0  0
   12.3649  -11.7112    0.0000 H   0  0  0  0  0  0  0  0  0  0  0  0
  1 26  1  0  0  0  0
  1 27  1  0  0  0  0
  2 22  1  0  0  0  0
  2 28  1  0  0  0  0
  2 29  1  0  0  0  0
  3  5  1  0  0  0  0
  3 30  1  0  0  0  0
  3 31  1  0  0  0  0
  4  1  1  0  0  0  0
  4 32  1  0  0  0  0
  4 33  1  0  0  0  0
  5 34  1  0  0  0  0
  5 35  1  0  0  0  0
  6 18  1  0  0  0  0
  6 36  1  0  0  0  0
  6 37  1  0  0  0  0
  7 19  1  0  0  0  0
  7 38  1  0  0  0  0
  8 10  1  0  0  0  0
  8  2  1  0  0  0  0
  8  9  1  1  0  0  0
 10 16  1  0  0  0  0
 10  5  1  0  0  0  0
 10 11  1  6  0  0  0
 12 23  1  0  0  0  0
 12  3  1  0  0  0  0
 12 13  1  1  0  0  0
 13 39  1  0  0  0  0
 13 40  1  0  0  0  0
 13 41  1  0  0  0  0
 14  8  1  0  0  0  0
 14 12  1  0  0  0  0
 14  1  1  0  0  0  0
 14 15  1  6  0  0  0
 16 21  1  0  0  0  0
 16  6  1  0  0  0  0
 16 17  1  1  0  0  0
 17 42  1  0  0  0  0
 17 43  1  0  0  0  0
 17 44  1  0  0  0  0
 18 19  1  0  0  0  0
 18 45  1  0  0  0  0
 18 46  1  0  0  0  0
 19 20  2  0  0  0  0
 21  7  2  0  0  0  0
 22 21  1  0  0  0  0
 22 47  1  0  0  0  0
 22 48  1  0  0  0  0
 23  4  1  0  0  0  0
 23 25  1  1  0  0  0
 23 24  1  0  0  0  0
 24 49  1  0  0  0  0
 24 50  1  0  0  0  0
 24 51  1  0  0  0  0
 25 52  1  0  0  0  0
M  END
>  <DRUGBANK_ID>
DB06710

>  <COMMON_NAME>
Methyltestosterone

>  <CAS_NUMBER>
58-18-4

>  <UNII>
V9EFU16ZIF

>  <SYNONYMS>
17-beta-Hydroxy-17-methylandrost-4-en-3-one; 17-methyltestosterone; 17alpha-Methyl-3-oxo-4-androsten-17beta-ol; 17alpha-Methyltestosterone; 17beta-Hydroxy-17-methylandrost-4-en-3-one; 17α-methyl-Δ4-androsten-17β-ol-3-one; 17α-methyltestosterone; 4-Androstene-17alpha-methyl-17beta-ol-3-one; Methyltestosterone; Methyltestosteronum; Metiltestosterona

$$$$
