NMQ
 OpenBabel10282417072D

 39 39  0  0  0  0  0  0  0  0999 V2000
   -4.4674    0.2526    0.0000 Be  0  5  0  0  0  0  0  0  0  0  0  0
   -5.1819    0.6651    0.0000 F   0  0  0  0  0  0  0  0  0  0  0  0
   -4.8799   -0.4619    0.0000 F   0  0  0  0  0  0  0  0  0  0  0  0
   -4.0549    0.9671    0.0000 F   0  0  0  0  0  0  0  0  0  0  0  0
   -3.0385    0.2526    0.0000 P   0  0  1  0  0  0  0  0  0  0  0  0
   -2.6260   -0.4619    0.0000 O   0  0  0  0  0  0  0  0  0  0  0  0
   -3.4510    0.9671    0.0000 O   0  0  0  0  0  0  0  0  0  0  0  0
   -3.7530   -0.1599    0.0000 O   0  0  0  0  0  0  0  0  0  0  0  0
   -2.3240    0.6651    0.0000 O   0  0  0  0  0  0  0  0  0  0  0  0
   -1.6095    0.2526    0.0000 P   0  0  1  0  0  0  0  0  0  0  0  0
   -2.0220   -0.4619    0.0000 O   0  0  0  0  0  0  0  0  0  0  0  0
   -1.1970    0.9671    0.0000 O   0  0  0  0  0  0  0  0  0  0  0  0
   -0.8951   -0.1599    0.0000 O   0  0  0  0  0  0  0  0  0  0  0  0
    1.2483    0.2526    0.0000 N   0  0  0  0  0  0  0  0  0  0  0  0
    0.5339   -0.1599    0.0000 C   0  0  0  0  0  0  0  0  0  0  0  0
   -0.1806    0.2526    0.0000 C   0  0  0  0  0  0  0  0  0  0  0  0
    1.9628   -0.1599    0.0000 C   0  0  0  0  0  0  0  0  0  0  0  0
    2.6773    0.2526    0.0000 C   0  0  0  0  0  0  0  0  0  0  0  0
    3.3918   -0.1599    0.0000 C   0  0  0  0  0  0  0  0  0  0  0  0
    3.3918   -0.9849    0.0000 C   0  0  0  0  0  0  0  0  0  0  0  0
    2.6773   -1.3974    0.0000 C   0  0  0  0  0  0  0  0  0  0  0  0
    1.9628   -0.9849    0.0000 C   0  0  0  0  0  0  0  0  0  0  0  0
    1.2483   -1.3974    0.0000 N   0  3  0  0  0  0  0  0  0  0  0  0
    1.2483   -2.2224    0.0000 O   0  5  0  0  0  0  0  0  0  0  0  0
    0.5339   -0.9849    0.0000 O   0  0  0  0  0  0  0  0  0  0  0  0
    1.2483    1.0776    0.0000 C   0  0  0  0  0  0  0  0  0  0  0  0
   -2.9660    1.8071    0.0000 H   0  0  0  0  0  0  0  0  0  0  0  0
   -2.9920   -0.4619    0.0000 H   0  0  0  0  0  0  0  0  0  0  0  0
    0.5339   -1.2299    0.0000 H   0  0  0  0  0  0  0  0  0  0  0  0
   -0.3927   -0.6949    0.0000 H   0  0  0  0  0  0  0  0  0  0  0  0
   -0.1806    1.3226    0.0000 H   0  0  0  0  0  0  0  0  0  0  0  0
    0.7460    0.7876    0.0000 H   0  0  0  0  0  0  0  0  0  0  0  0
    2.6773    1.2846    0.0000 H   0  0  0  0  0  0  0  0  0  0  0  0
    4.2855    0.3561    0.0000 H   0  0  0  0  0  0  0  0  0  0  0  0
    4.2855   -1.5009    0.0000 H   0  0  0  0  0  0  0  0  0  0  0  0
    2.6773   -2.4294    0.0000 H   0  0  0  0  0  0  0  0  0  0  0  0
    2.1749    1.6126    0.0000 H   0  0  0  0  0  0  0  0  0  0  0  0
    0.3217    1.6126    0.0000 H   0  0  0  0  0  0  0  0  0  0  0  0
    1.2483    2.1476    0.0000 H   0  0  0  0  0  0  0  0  0  0  0  0
  1  2  1  0  0  0  0
  1  3  1  0  0  0  0
  1  4  1  0  0  0  0
  1  8  1  0  0  0  0
  5  6  2  6  0  0  0
  5  7  1  0  0  0  0
  5  8  1  0  0  0  0
  5  9  1  0  0  0  0
  7 27  1  0  0  0  0
 10  9  1  0  0  0  0
 10 11  1  0  0  0  0
 10 12  2  6  0  0  0
 10 13  1  0  0  0  0
 11 28  1  0  0  0  0
 13 16  1  0  0  0  0
 14 15  1  0  0  0  0
 14 17  1  0  0  0  0
 14 26  1  0  0  0  0
 15 16  1  0  0  0  0
 15 29  1  0  0  0  0
 15 30  1  0  0  0  0
 16 31  1  0  0  0  0
 16 32  1  0  0  0  0
 17 18  2  0  0  0  0
 17 22  1  0  0  0  0
 18 19  1  0  0  0  0
 18 33  1  0  0  0  0
 19 20  2  0  0  0  0
 19 34  1  0  0  0  0
 20 21  1  0  0  0  0
 20 35  1  0  0  0  0
 21 22  2  0  0  0  0
 21 36  1  0  0  0  0
 22 23  1  0  0  0  0
 23 24  1  0  0  0  0
 23 25  2  0  0  0  0
 26 37  1  0  0  0  0
 26 38  1  0  0  0  0
 26 39  1  0  0  0  0
M  CHG  3   1  -1  23   1  24  -1
M  END
>  <DRUGBANK_ID>
DB08276

>  <COMMON_NAME>
trifluoro-[hydroxy-[hydroxy-[2-(N-methyl-2-nitro-anilino)ethoxy]phosphoryl]oxy-phosphoryl]oxy-beryllium(1-)

>  <SYNONYMS>
N-methyl O-nitrophenyl aminoethyldiphosphate beryllium trifluoride

$$$$
