
 OpenBabel10282417072D

 73 74  0  0  1  0  0  0  0  0999 V2000
    3.5724   -2.8875    0.0000 C   0  0  0  0  0  0  0  0  0  0  0  0
    3.5724   -3.7125    0.0000 C   0  0  0  0  0  0  0  0  0  0  0  0
    4.2398   -4.1974    0.0000 C   0  0  0  0  0  0  0  0  0  0  0  0
    3.9849   -4.9820    0.0000 C   0  0  0  0  0  0  0  0  0  0  0  0
    3.1599   -4.9820    0.0000 N   0  0  0  0  0  0  0  0  0  0  0  0
    2.9049   -4.1974    0.0000 O   0  0  0  0  0  0  0  0  0  0  0  0
    4.4698   -5.6495    0.0000 C   0  0  0  0  0  0  0  0  0  0  0  0
    5.2903   -5.5632    0.0000 C   0  0  0  0  0  0  0  0  0  0  0  0
    5.6258   -4.8096    0.0000 C   0  0  0  0  0  0  0  0  0  0  0  0
    5.7752   -6.2307    0.0000 C   0  0  2  0  0  0  0  0  0  0  0  0
    6.5957   -6.1445    0.0000 C   0  0  0  0  0  0  0  0  0  0  0  0
    6.9312   -5.3908    0.0000 C   0  0  0  0  0  0  0  0  0  0  0  0
    7.7517   -5.3045    0.0000 C   0  0  0  0  0  0  0  0  0  0  0  0
    8.2366   -5.9720    0.0000 C   0  0  0  0  0  0  0  0  0  0  0  0
    9.0571   -5.8857    0.0000 C   0  0  0  0  0  0  0  0  0  0  0  0
    9.5420   -6.5532    0.0000 C   0  0  0  0  0  0  0  0  0  0  0  0
    9.2065   -7.3069    0.0000 C   0  0  1  0  0  0  0  0  0  0  0  0
    8.3860   -7.3931    0.0000 C   0  0  1  0  0  0  0  0  0  0  0  0
    8.0504   -8.1468    0.0000 C   0  0  2  0  0  0  0  0  0  0  0  0
    7.2299   -8.2330    0.0000 C   0  0  0  0  0  0  0  0  0  0  0  0
    6.7450   -7.5656    0.0000 O   0  0  0  0  0  0  0  0  0  0  0  0
    6.8944   -8.9867    0.0000 C   0  0  0  0  0  0  0  0  0  0  0  0
    6.0739   -9.0729    0.0000 C   0  0  2  0  0  0  0  0  0  0  0  0
    5.5890   -8.4055    0.0000 C   0  0  0  0  0  0  0  0  0  0  0  0
    5.9245   -7.6518    0.0000 C   0  0  0  0  0  0  0  0  0  0  0  0
    6.5376   -7.0998    0.0000 O   0  0  0  0  0  0  0  0  0  0  0  0
    5.4396   -6.9844    0.0000 O   0  0  0  0  0  0  0  0  0  0  0  0
    5.7384   -9.8266    0.0000 O   0  0  0  0  0  0  0  0  0  0  0  0
    7.6359   -9.3483    0.0000 C   0  0  0  0  0  0  0  0  0  0  0  0
    7.0092   -9.8036    0.0000 C   0  0  0  0  0  0  0  0  0  0  0  0
    8.5354   -8.8142    0.0000 C   0  0  0  0  0  0  0  0  0  0  0  0
    8.8709   -8.0605    0.0000 O   0  0  0  0  0  0  0  0  0  0  0  0
    9.6914   -7.9743    0.0000 C   0  0  0  0  0  0  0  0  0  0  0  0
    8.0873   -4.5509    0.0000 C   0  0  0  0  0  0  0  0  0  0  0  0
    4.4990   -2.3525    0.0000 H   0  0  0  0  0  0  0  0  0  0  0  0
    2.6458   -2.3525    0.0000 H   0  0  0  0  0  0  0  0  0  0  0  0
    3.5724   -1.8175    0.0000 H   0  0  0  0  0  0  0  0  0  0  0  0
    5.2213   -3.8785    0.0000 H   0  0  0  0  0  0  0  0  0  0  0  0
    4.0501   -6.5923    0.0000 H   0  0  0  0  0  0  0  0  0  0  0  0
    6.6899   -4.6977    0.0000 H   0  0  0  0  0  0  0  0  0  0  0  0
    4.9968   -3.9440    0.0000 H   0  0  0  0  0  0  0  0  0  0  0  0
    6.0610   -3.8321    0.0000 H   0  0  0  0  0  0  0  0  0  0  0  0
    6.2105   -5.2532    0.0000 H   0  0  0  0  0  0  0  0  0  0  0  0
    7.2246   -7.0101    0.0000 H   0  0  0  0  0  0  0  0  0  0  0  0
    7.6598   -6.0326    0.0000 H   0  0  0  0  0  0  0  0  0  0  0  0
    6.3245   -4.5559    0.0000 H   0  0  0  0  0  0  0  0  0  0  0  0
    7.8014   -6.9495    0.0000 H   0  0  0  0  0  0  0  0  0  0  0  0
    8.8656   -6.8376    0.0000 H   0  0  0  0  0  0  0  0  0  0  0  0
    9.4768   -4.9429    0.0000 H   0  0  0  0  0  0  0  0  0  0  0  0
   10.5683   -6.4453    0.0000 H   0  0  0  0  0  0  0  0  0  0  0  0
   10.2706   -7.1950    0.0000 H   0  0  0  0  0  0  0  0  0  0  0  0
    9.3635   -7.8283    0.0000 H   0  0  0  0  0  0  0  0  0  0  0  0
    9.1145   -8.0349    0.0000 H   0  0  0  0  0  0  0  0  0  0  0  0
    6.7028   -9.9385    0.0000 H   0  0  0  0  0  0  0  0  0  0  0  0
    4.5249   -8.5174    0.0000 H   0  0  0  0  0  0  0  0  0  0  0  0
    4.9600   -7.5399    0.0000 H   0  0  0  0  0  0  0  0  0  0  0  0
    4.7737   -9.9281    0.0000 H   0  0  0  0  0  0  0  0  0  0  0  0
    7.7106  -10.4157    0.0000 H   0  0  0  0  0  0  0  0  0  0  0  0
    8.5229   -8.7499    0.0000 H   0  0  0  0  0  0  0  0  0  0  0  0
    8.5976   -9.8173    0.0000 H   0  0  0  0  0  0  0  0  0  0  0  0
    6.1660  -10.4623    0.0000 H   0  0  0  0  0  0  0  0  0  0  0  0
    8.0013  -10.2044    0.0000 H   0  0  0  0  0  0  0  0  0  0  0  0
    7.1581  -10.8632    0.0000 H   0  0  0  0  0  0  0  0  0  0  0  0
    8.1003   -9.7917    0.0000 H   0  0  0  0  0  0  0  0  0  0  0  0
    9.5995   -8.7022    0.0000 H   0  0  0  0  0  0  0  0  0  0  0  0
    9.1644   -9.6798    0.0000 H   0  0  0  0  0  0  0  0  0  0  0  0
    8.4764   -8.9466    0.0000 H   0  0  0  0  0  0  0  0  0  0  0  0
    9.2562   -8.9518    0.0000 H   0  0  0  0  0  0  0  0  0  0  0  0
   10.7555   -7.8624    0.0000 H   0  0  0  0  0  0  0  0  0  0  0  0
   10.3203   -8.8399    0.0000 H   0  0  0  0  0  0  0  0  0  0  0  0
    9.1514   -4.4391    0.0000 H   0  0  0  0  0  0  0  0  0  0  0  0
    7.4584   -3.6852    0.0000 H   0  0  0  0  0  0  0  0  0  0  0  0
    8.5226   -3.5734    0.0000 H   0  0  0  0  0  0  0  0  0  0  0  0
  1  2  1  0  0  0  0
  1 35  1  0  0  0  0
  1 36  1  0  0  0  0
  1 37  1  0  0  0  0
  2  3  2  0  0  0  0
  2  6  1  0  0  0  0
  3  4  1  0  0  0  0
  3 38  1  0  0  0  0
  4  5  2  0  0  0  0
  4  7  1  0  0  0  0
  5  6  1  0  0  0  0
  7  8  2  0  0  0  0
  7 39  1  0  0  0  0
  8  9  1  0  0  0  0
  9 40  1  0  0  0  0
  9 41  1  0  0  0  0
  9 42  1  0  0  0  0
 10  8  1  0  0  0  0
 10 11  1  0  0  0  0
 10 27  1  0  0  0  0
 10 43  1  1  0  0  0
 11 12  1  0  0  0  0
 11 44  1  0  0  0  0
 11 45  1  0  0  0  0
 12 13  2  0  0  0  0
 12 46  1  0  0  0  0
 13 14  1  0  0  0  0
 13 34  1  0  0  0  0
 14 15  1  0  0  0  0
 14 47  1  0  0  0  0
 14 48  1  0  0  0  0
 15 16  2  0  0  0  0
 15 49  1  0  0  0  0
 16 17  1  0  0  0  0
 16 50  1  0  0  0  0
 17 18  1  0  0  0  0
 17 33  1  0  0  0  0
 17 51  1  1  0  0  0
 18 19  1  0  0  0  0
 18 32  1  0  0  0  0
 18 52  1  1  0  0  0
 19 20  1  0  0  0  0
 19 31  1  0  0  0  0
 19 53  1  6  0  0  0
 20 21  2  0  0  0  0
 20 22  1  0  0  0  0
 22 23  1  0  0  0  0
 22 29  1  0  0  0  0
 22 30  1  0  0  0  0
 23 24  1  0  0  0  0
 23 28  1  0  0  0  0
 23 54  1  6  0  0  0
 24 25  1  0  0  0  0
 24 55  1  0  0  0  0
 24 56  1  0  0  0  0
 25 26  2  0  0  0  0
 25 27  1  0  0  0  0
 28 57  1  0  0  0  0
 29 58  1  0  0  0  0
 29 59  1  0  0  0  0
 29 60  1  0  0  0  0
 30 61  1  0  0  0  0
 30 62  1  0  0  0  0
 30 63  1  0  0  0  0
 31 64  1  0  0  0  0
 31 65  1  0  0  0  0
 31 66  1  0  0  0  0
 32 67  1  0  0  0  0
 33 68  1  0  0  0  0
 33 69  1  0  0  0  0
 33 70  1  0  0  0  0
 34 71  1  0  0  0  0
 34 72  1  0  0  0  0
 34 73  1  0  0  0  0
M  END
>  <DRUGBANK_ID>
DB13078

>  <COMMON_NAME>
KOSN-1724

>  <CAS_NUMBER>
693272-98-9

>  <UNII>
6MUO20693U

>  <SYNONYMS>
ISO-Fludelone

$$$$
