65028
 OpenBabel10282417072D

 50 50  0  0  1  0  0  0  0  0999 V2000
    3.7935    1.0313    0.0000 O   0  0  0  0  0  0  0  0  0  0  0  0
    4.5080   -1.8563    0.0000 O   0  0  0  0  0  0  0  0  0  0  0  0
    5.9370   -1.8563    0.0000 O   0  0  0  0  0  0  0  0  0  0  0  0
    3.7935    1.8563    0.0000 O   0  0  0  0  0  0  0  0  0  0  0  0
    5.2224    1.8563    0.0000 N   0  0  0  0  0  0  0  0  0  0  0  0
    6.6515    1.0313    0.0000 N   0  0  0  0  0  0  0  0  0  0  0  0
    5.2224    1.0313    0.0000 C   0  0  2  0  0  0  0  0  0  0  0  0
    5.9370    0.6188    0.0000 C   0  0  2  0  0  0  0  0  0  0  0  0
    4.5080    0.6188    0.0000 C   0  0  1  0  0  0  0  0  0  0  0  0
    5.9370   -0.2063    0.0000 C   0  0  0  0  0  0  0  0  0  0  0  0
    4.5080   -0.2063    0.0000 C   0  0  0  0  0  0  0  0  0  0  0  0
    5.2224   -0.6188    0.0000 C   0  0  0  0  0  0  0  0  0  0  0  0
    3.0790    0.6188    0.0000 C   0  0  0  0  0  0  0  0  0  0  0  0
    2.3645    1.0313    0.0000 C   0  0  0  0  0  0  0  0  0  0  0  0
    3.0790   -0.2063    0.0000 C   0  0  0  0  0  0  0  0  0  0  0  0
    5.2224   -1.4438    0.0000 C   0  0  0  0  0  0  0  0  0  0  0  0
    4.5080    2.2688    0.0000 C   0  0  0  0  0  0  0  0  0  0  0  0
    1.6500    0.6188    0.0000 C   0  0  0  0  0  0  0  0  0  0  0  0
    2.3645   -0.6188    0.0000 C   0  0  0  0  0  0  0  0  0  0  0  0
    4.5080    3.0938    0.0000 C   0  0  0  0  0  0  0  0  0  0  0  0
    4.5080   -2.6813    0.0000 C   0  0  0  0  0  0  0  0  0  0  0  0
    3.7935   -3.0938    0.0000 C   0  0  0  0  0  0  0  0  0  0  0  0
    6.0750    2.3485    0.0000 H   0  0  0  0  0  0  0  0  0  0  0  0
    7.5348    0.5213    0.0000 H   0  0  0  0  0  0  0  0  0  0  0  0
    6.6515    2.0513    0.0000 H   0  0  0  0  0  0  0  0  0  0  0  0
    6.1490    1.5663    0.0000 H   0  0  0  0  0  0  0  0  0  0  0  0
    5.9370    1.6888    0.0000 H   0  0  0  0  0  0  0  0  0  0  0  0
    4.5080    1.6888    0.0000 H   0  0  0  0  0  0  0  0  0  0  0  0
    6.8636   -0.7413    0.0000 H   0  0  0  0  0  0  0  0  0  0  0  0
    5.9369   -1.2763    0.0000 H   0  0  0  0  0  0  0  0  0  0  0  0
    3.6143   -0.7223    0.0000 H   0  0  0  0  0  0  0  0  0  0  0  0
    2.1524    0.0838    0.0000 H   0  0  0  0  0  0  0  0  0  0  0  0
    2.3645    2.1013    0.0000 H   0  0  0  0  0  0  0  0  0  0  0  0
    1.4379    1.5663    0.0000 H   0  0  0  0  0  0  0  0  0  0  0  0
    4.0056   -0.7413    0.0000 H   0  0  0  0  0  0  0  0  0  0  0  0
    3.0790   -1.2763    0.0000 H   0  0  0  0  0  0  0  0  0  0  0  0
    0.7234    1.1538    0.0000 H   0  0  0  0  0  0  0  0  0  0  0  0
    1.6500   -0.4512    0.0000 H   0  0  0  0  0  0  0  0  0  0  0  0
    0.7233    0.0838    0.0000 H   0  0  0  0  0  0  0  0  0  0  0  0
    1.4379   -0.0838    0.0000 H   0  0  0  0  0  0  0  0  0  0  0  0
    2.3645   -1.6888    0.0000 H   0  0  0  0  0  0  0  0  0  0  0  0
    1.4378   -1.1538    0.0000 H   0  0  0  0  0  0  0  0  0  0  0  0
    5.4346    3.6288    0.0000 H   0  0  0  0  0  0  0  0  0  0  0  0
    3.5814    3.6288    0.0000 H   0  0  0  0  0  0  0  0  0  0  0  0
    4.5080    4.1638    0.0000 H   0  0  0  0  0  0  0  0  0  0  0  0
    5.4346   -3.2163    0.0000 H   0  0  0  0  0  0  0  0  0  0  0  0
    4.5080   -3.7513    0.0000 H   0  0  0  0  0  0  0  0  0  0  0  0
    2.8669   -2.5588    0.0000 H   0  0  0  0  0  0  0  0  0  0  0  0
    3.7935   -4.1638    0.0000 H   0  0  0  0  0  0  0  0  0  0  0  0
    2.8668   -3.6288    0.0000 H   0  0  0  0  0  0  0  0  0  0  0  0
  1 13  1  0  0  0  0
  2 16  1  0  0  0  0
  2 21  1  0  0  0  0
  3 16  2  0  0  0  0
  4 17  2  0  0  0  0
  5 17  1  0  0  0  0
  5 23  1  0  0  0  0
  6 24  1  0  0  0  0
  6 25  1  0  0  0  0
  7  5  1  0  0  0  0
  7  8  1  0  0  0  0
  7  9  1  0  0  0  0
  7 26  1  1  0  0  0
  8  6  1  0  0  0  0
  8 10  1  0  0  0  0
  8 27  1  6  0  0  0
  9  1  1  0  0  0  0
  9 11  1  0  0  0  0
  9 28  1  6  0  0  0
 10 12  1  0  0  0  0
 10 29  1  0  0  0  0
 10 30  1  0  0  0  0
 11 12  2  0  0  0  0
 11 31  1  0  0  0  0
 12 16  1  0  0  0  0
 13 14  1  0  0  0  0
 13 15  1  0  0  0  0
 13 32  1  0  0  0  0
 14 18  1  0  0  0  0
 14 33  1  0  0  0  0
 14 34  1  0  0  0  0
 15 19  1  0  0  0  0
 15 35  1  0  0  0  0
 15 36  1  0  0  0  0
 17 20  1  0  0  0  0
 18 37  1  0  0  0  0
 18 38  1  0  0  0  0
 18 39  1  0  0  0  0
 19 40  1  0  0  0  0
 19 41  1  0  0  0  0
 19 42  1  0  0  0  0
 20 43  1  0  0  0  0
 20 44  1  0  0  0  0
 20 45  1  0  0  0  0
 21 22  1  0  0  0  0
 21 46  1  0  0  0  0
 21 47  1  0  0  0  0
 22 48  1  0  0  0  0
 22 49  1  0  0  0  0
 22 50  1  0  0  0  0
M  END
>  <DRUGBANK_ID>
DB00198

>  <SECONDARY_ACCESSION_NUMBERS>
APRD01148

>  <COMMON_NAME>
Oseltamivir

>  <CAS_NUMBER>
196618-13-0

>  <UNII>
20O93L6F9H

>  <SYNONYMS>
(−)-oseltamivir; 1-Cyclohexene-1-carboxylic acid, 4-(acetylamino)-5-amino-3-(1-ethylpropoxy)-, ethyl ester, (3R-(3alpha,4beta,5alpha))-; Ethyl (3R,4R,5S)-4-acetamido-5-amino-3-(1-ethylpropoxy)-1-cyclohexene-1-carboxylate; Oseltamivir; Oséltamivir; Oseltamivirum

$$$$
