NAL
 OpenBabel10282417072D

 29 30  0  0  0  0  0  0  0  0999 V2000
    0.3091    0.6067    0.0000 C   0  0  0  0  0  0  0  0  0  0  0  0
   -0.4054    0.1942    0.0000 C   0  0  0  0  0  0  0  0  0  0  0  0
   -0.4054   -0.6308    0.0000 C   0  0  0  0  0  0  0  0  0  0  0  0
    0.3091   -1.0433    0.0000 C   0  0  0  0  0  0  0  0  0  0  0  0
    1.0236   -0.6308    0.0000 C   0  0  0  0  0  0  0  0  0  0  0  0
    1.7381   -1.0433    0.0000 C   0  0  0  0  0  0  0  0  0  0  0  0
    2.4525   -0.6308    0.0000 C   0  0  0  0  0  0  0  0  0  0  0  0
    2.4525    0.1942    0.0000 C   0  0  0  0  0  0  0  0  0  0  0  0
    1.7381    0.6067    0.0000 C   0  0  0  0  0  0  0  0  0  0  0  0
    1.0236    0.1942    0.0000 C   0  0  0  0  0  0  0  0  0  0  0  0
   -1.1198    0.6067    0.0000 C   0  0  0  0  0  0  0  0  0  0  0  0
   -1.8343    0.1942    0.0000 C   0  0  1  0  0  0  0  0  0  0  0  0
   -2.5488    0.6067    0.0000 C   0  0  0  0  0  0  0  0  0  0  0  0
   -1.8343   -0.6308    0.0000 N   0  0  0  0  0  0  0  0  0  0  0  0
   -3.2632    0.1942    0.0000 O   0  0  0  0  0  0  0  0  0  0  0  0
   -2.5488    1.4317    0.0000 O   0  0  0  0  0  0  0  0  0  0  0  0
   -1.3286   -0.0978    0.0000 H   0  0  0  0  0  0  0  0  0  0  0  0
    0.3091    1.6387    0.0000 H   0  0  0  0  0  0  0  0  0  0  0  0
   -1.2991   -1.1468    0.0000 H   0  0  0  0  0  0  0  0  0  0  0  0
    0.3091   -2.0753    0.0000 H   0  0  0  0  0  0  0  0  0  0  0  0
    1.7381   -2.0753    0.0000 H   0  0  0  0  0  0  0  0  0  0  0  0
    3.3462   -1.1468    0.0000 H   0  0  0  0  0  0  0  0  0  0  0  0
    3.3462    0.7102    0.0000 H   0  0  0  0  0  0  0  0  0  0  0  0
    1.7381    1.6387    0.0000 H   0  0  0  0  0  0  0  0  0  0  0  0
   -1.1198    1.6767    0.0000 H   0  0  0  0  0  0  0  0  0  0  0  0
   -2.0464    1.1417    0.0000 H   0  0  0  0  0  0  0  0  0  0  0  0
   -2.7176   -1.1408    0.0000 H   0  0  0  0  0  0  0  0  0  0  0  0
   -0.9510   -1.1408    0.0000 H   0  0  0  0  0  0  0  0  0  0  0  0
   -1.7373    1.9002    0.0000 H   0  0  0  0  0  0  0  0  0  0  0  0
  1  2  1  0  0  0  0
  1 18  1  0  0  0  0
  2 11  1  0  0  0  0
  3  2  2  0  0  0  0
  3 19  1  0  0  0  0
  4  3  1  0  0  0  0
  4 20  1  0  0  0  0
  5  4  2  0  0  0  0
  5 10  1  0  0  0  0
  6  5  1  0  0  0  0
  6 21  1  0  0  0  0
  7  6  2  0  0  0  0
  7  8  1  0  0  0  0
  7 22  1  0  0  0  0
  8  9  2  0  0  0  0
  8 23  1  0  0  0  0
  9 10  1  0  0  0  0
  9 24  1  0  0  0  0
 10  1  2  0  0  0  0
 11 12  1  0  0  0  0
 11 25  1  0  0  0  0
 11 26  1  0  0  0  0
 12 14  1  0  0  0  0
 12 13  1  0  0  0  0
 12 17  1  1  0  0  0
 13 15  2  0  0  0  0
 13 16  1  0  0  0  0
 14 27  1  0  0  0  0
 14 28  1  0  0  0  0
 16 29  1  0  0  0  0
M  END
>  <DRUGBANK_ID>
DB01766

>  <SECONDARY_ACCESSION_NUMBERS>
EXPT02291

>  <COMMON_NAME>
Beta-(2-Naphthyl)-Alanine

>  <UNII>
W425Q6KV9R

$$$$
