
 OpenBabel10282417072D

 57 62  0  0  0  0  0  0  0  0999 V2000
    2.8716    1.9909    0.0000 S   0  0  0  0  0  0  0  0  0  0  0  0
    0.9622    3.0489    0.0000 F   0  0  0  0  0  0  0  0  0  0  0  0
   -1.7543    3.9367    0.0000 F   0  0  0  0  0  0  0  0  0  0  0  0
    3.6557    1.7345    0.0000 O   0  0  0  0  0  0  0  0  0  0  0  0
    2.0873    2.2471    0.0000 O   0  0  0  0  0  0  0  0  0  0  0  0
    2.6151    1.2066    0.0000 N   0  0  0  0  0  0  0  0  0  0  0  0
    0.4879   -0.7020    0.0000 N   0  0  0  0  0  0  0  0  0  0  0  0
    0.4879   -2.0299    0.0000 N   0  0  0  0  0  0  0  0  0  0  0  0
   -3.3293   -3.1830    0.0000 N   0  0  0  0  0  0  0  0  0  0  0  0
   -3.7418   -2.4685    0.0000 N   0  0  0  0  0  0  0  0  0  0  0  0
    3.1278    2.7750    0.0000 C   0  0  0  0  0  0  0  0  0  0  0  0
    3.7418    3.3260    0.0000 C   0  0  0  0  0  0  0  0  0  0  0  0
    2.9577    3.5823    0.0000 C   0  0  0  0  0  0  0  0  0  0  0  0
    1.8080    1.0365    0.0000 C   0  0  0  0  0  0  0  0  0  0  0  0
    1.5515    0.2522    0.0000 C   0  0  0  0  0  0  0  0  0  0  0  0
    1.2569    1.6504    0.0000 C   0  0  0  0  0  0  0  0  0  0  0  0
    0.7444    0.0822    0.0000 C   0  0  0  0  0  0  0  0  0  0  0  0
    0.4496    1.4804    0.0000 C   0  0  0  0  0  0  0  0  0  0  0  0
    0.1933    0.6962    0.0000 C   0  0  0  0  0  0  0  0  0  0  0  0
   -0.2925   -0.9534    0.0000 C   0  0  0  0  0  0  0  0  0  0  0  0
   -0.1013    2.0945    0.0000 C   0  0  0  0  0  0  0  0  0  0  0  0
   -0.2925   -1.7784    0.0000 C   0  0  0  0  0  0  0  0  0  0  0  0
    0.9695   -1.3659    0.0000 C   0  0  0  0  0  0  0  0  0  0  0  0
   -1.0071   -0.5409    0.0000 C   0  0  0  0  0  0  0  0  0  0  0  0
   -1.0071   -2.1909    0.0000 C   0  0  0  0  0  0  0  0  0  0  0  0
   -1.7216   -1.7784    0.0000 C   0  0  0  0  0  0  0  0  0  0  0  0
   -1.7216   -0.9534    0.0000 C   0  0  0  0  0  0  0  0  0  0  0  0
    0.1549    2.8788    0.0000 C   0  0  0  0  0  0  0  0  0  0  0  0
   -0.9086    1.9244    0.0000 C   0  0  0  0  0  0  0  0  0  0  0  0
   -2.4360   -2.1909    0.0000 C   0  0  0  0  0  0  0  0  0  0  0  0
   -0.3960    3.4928    0.0000 C   0  0  0  0  0  0  0  0  0  0  0  0
   -1.4595    2.5384    0.0000 C   0  0  0  0  0  0  0  0  0  0  0  0
   -2.5222   -3.0115    0.0000 C   0  0  0  0  0  0  0  0  0  0  0  0
   -3.1898   -1.8554    0.0000 C   0  0  0  0  0  0  0  0  0  0  0  0
   -1.2033    3.3226    0.0000 C   0  0  0  0  0  0  0  0  0  0  0  0
   -3.6648   -3.9367    0.0000 C   0  0  0  0  0  0  0  0  0  0  0  0
    3.2725    0.4738    0.0000 H   0  0  0  0  0  0  0  0  0  0  0  0
    3.4602    3.7921    0.0000 H   0  0  0  0  0  0  0  0  0  0  0  0
    4.7888    3.5467    0.0000 H   0  0  0  0  0  0  0  0  0  0  0  0
    3.7997    4.3944    0.0000 H   0  0  0  0  0  0  0  0  0  0  0  0
    2.2431    4.3787    0.0000 H   0  0  0  0  0  0  0  0  0  0  0  0
    3.5420    4.4786    0.0000 H   0  0  0  0  0  0  0  0  0  0  0  0
    2.2406   -0.5160    0.0000 H   0  0  0  0  0  0  0  0  0  0  0  0
    1.5775    2.6313    0.0000 H   0  0  0  0  0  0  0  0  0  0  0  0
   -0.8165    0.4833    0.0000 H   0  0  0  0  0  0  0  0  0  0  0  0
    2.0015   -1.3659    0.0000 H   0  0  0  0  0  0  0  0  0  0  0  0
   -1.0071    0.4911    0.0000 H   0  0  0  0  0  0  0  0  0  0  0  0
   -1.0071   -3.2229    0.0000 H   0  0  0  0  0  0  0  0  0  0  0  0
   -2.6153   -0.4374    0.0000 H   0  0  0  0  0  0  0  0  0  0  0  0
   -1.2292    0.9435    0.0000 H   0  0  0  0  0  0  0  0  0  0  0  0
   -0.0754    4.4737    0.0000 H   0  0  0  0  0  0  0  0  0  0  0  0
   -2.4693    2.3255    0.0000 H   0  0  0  0  0  0  0  0  0  0  0  0
   -1.7553   -3.7020    0.0000 H   0  0  0  0  0  0  0  0  0  0  0  0
   -3.4044   -0.8460    0.0000 H   0  0  0  0  0  0  0  0  0  0  0  0
   -4.7289   -4.0486    0.0000 H   0  0  0  0  0  0  0  0  0  0  0  0
   -3.0358   -4.8023    0.0000 H   0  0  0  0  0  0  0  0  0  0  0  0
   -4.0999   -4.9142    0.0000 H   0  0  0  0  0  0  0  0  0  0  0  0
  1  4  2  0  0  0  0
  1  5  2  0  0  0  0
  1  6  1  0  0  0  0
  1 11  1  0  0  0  0
  2 28  1  0  0  0  0
  3 35  1  0  0  0  0
  6 14  1  0  0  0  0
  6 37  1  0  0  0  0
  7 17  1  0  0  0  0
  7 20  1  0  0  0  0
  7 23  1  0  0  0  0
  8 22  1  0  0  0  0
  8 23  2  0  0  0  0
  9 10  1  0  0  0  0
  9 33  1  0  0  0  0
  9 36  1  0  0  0  0
 10 34  2  0  0  0  0
 11 12  1  0  0  0  0
 11 13  1  0  0  0  0
 11 38  1  0  0  0  0
 12 13  1  0  0  0  0
 12 39  1  0  0  0  0
 12 40  1  0  0  0  0
 13 41  1  0  0  0  0
 13 42  1  0  0  0  0
 14 15  2  0  0  0  0
 14 16  1  0  0  0  0
 15 17  1  0  0  0  0
 15 43  1  0  0  0  0
 16 18  2  0  0  0  0
 16 44  1  0  0  0  0
 17 19  2  0  0  0  0
 18 19  1  0  0  0  0
 18 21  1  0  0  0  0
 19 45  1  0  0  0  0
 20 22  2  0  0  0  0
 20 24  1  0  0  0  0
 21 28  2  0  0  0  0
 21 29  1  0  0  0  0
 22 25  1  0  0  0  0
 23 46  1  0  0  0  0
 24 27  2  0  0  0  0
 24 47  1  0  0  0  0
 25 26  2  0  0  0  0
 25 48  1  0  0  0  0
 26 27  1  0  0  0  0
 26 30  1  0  0  0  0
 27 49  1  0  0  0  0
 28 31  1  0  0  0  0
 29 32  2  0  0  0  0
 29 50  1  0  0  0  0
 30 33  2  0  0  0  0
 30 34  1  0  0  0  0
 31 35  2  0  0  0  0
 31 51  1  0  0  0  0
 32 35  1  0  0  0  0
 32 52  1  0  0  0  0
 33 53  1  0  0  0  0
 34 54  1  0  0  0  0
 36 55  1  0  0  0  0
 36 56  1  0  0  0  0
 36 57  1  0  0  0  0
M  END
>  <DRUGBANK_ID>
DB16843

>  <COMMON_NAME>
ODM-203

>  <CAS_NUMBER>
1430723-35-5

>  <UNII>
Y7HJ4D4CRT

$$$$
