
 OpenBabel10282417072D

 63 65  0  0  1  0  0  0  0  0999 V2000
    5.0013    0.4125    0.0000 C   0  0  0  0  0  0  0  0  0  0  0  0
    4.2868    0.0000    0.0000 C   0  0  0  0  0  0  0  0  0  0  0  0
    3.5724    0.4125    0.0000 C   0  0  0  0  0  0  0  0  0  0  0  0
    4.2868   -0.8250    0.0000 C   0  0  1  0  0  0  0  0  0  0  0  0
    3.5724   -1.2375    0.0000 N   0  0  0  0  0  0  0  0  0  0  0  0
    2.8579   -0.8250    0.0000 C   0  0  0  0  0  0  0  0  0  0  0  0
    2.8579    0.0000    0.0000 O   0  0  0  0  0  0  0  0  0  0  0  0
    2.1434   -1.2375    0.0000 C   0  0  0  0  0  0  0  0  0  0  0  0
    2.1434   -2.0625    0.0000 N   0  0  0  0  0  0  0  0  0  0  0  0
    2.8579   -2.4750    0.0000 C   0  0  0  0  0  0  0  0  0  0  0  0
    3.5724   -2.0625    0.0000 O   0  0  0  0  0  0  0  0  0  0  0  0
    2.8579   -3.3000    0.0000 C   0  0  0  0  0  0  0  0  0  0  0  0
    3.5724   -3.7125    0.0000 N   0  0  0  0  0  0  0  0  0  0  0  0
    2.1434   -3.7125    0.0000 C   0  0  0  0  0  0  0  0  0  0  0  0
    1.4289   -3.3000    0.0000 N   0  0  0  0  0  0  0  0  0  0  0  0
    1.4289   -2.4750    0.0000 C   0  0  0  0  0  0  0  0  0  0  0  0
    0.7145   -2.0625    0.0000 C   0  0  0  0  0  0  0  0  0  0  0  0
    0.0000   -2.4750    0.0000 C   0  0  0  0  0  0  0  0  0  0  0  0
   -0.7145   -2.0625    0.0000 C   0  0  0  0  0  0  0  0  0  0  0  0
   -0.7145   -1.2375    0.0000 C   0  0  0  0  0  0  0  0  0  0  0  0
    0.0000   -0.8250    0.0000 C   0  0  0  0  0  0  0  0  0  0  0  0
    0.7145   -1.2375    0.0000 C   0  0  0  0  0  0  0  0  0  0  0  0
    5.0013   -1.2375    0.0000 C   0  0  1  0  0  0  0  0  0  0  0  0
    5.7158   -0.8250    0.0000 O   0  0  0  0  0  0  0  0  0  0  0  0
    5.0013   -2.0625    0.0000 C   0  0  0  0  0  0  0  0  0  0  0  0
    4.3339   -2.5474    0.0000 N   0  0  0  0  0  0  0  0  0  0  0  0
    4.5888   -3.3320    0.0000 N   0  0  0  0  0  0  0  0  0  0  0  0
    5.4138   -3.3320    0.0000 C   0  0  0  0  0  0  0  0  0  0  0  0
    5.6687   -2.5474    0.0000 O   0  0  0  0  0  0  0  0  0  0  0  0
    5.8987   -3.9995    0.0000 C   0  0  0  0  0  0  0  0  0  0  0  0
    6.3836   -4.6669    0.0000 C   0  0  0  0  0  0  0  0  0  0  0  0
    6.5662   -3.5146    0.0000 C   0  0  0  0  0  0  0  0  0  0  0  0
    5.2313   -4.4844    0.0000 C   0  0  0  0  0  0  0  0  0  0  0  0
    5.9279   -0.1225    0.0000 H   0  0  0  0  0  0  0  0  0  0  0  0
    5.0013    1.4825    0.0000 H   0  0  0  0  0  0  0  0  0  0  0  0
    5.9280    0.9475    0.0000 H   0  0  0  0  0  0  0  0  0  0  0  0
    3.3601   -0.5350    0.0000 H   0  0  0  0  0  0  0  0  0  0  0  0
    3.5724    1.4825    0.0000 H   0  0  0  0  0  0  0  0  0  0  0  0
    2.6457   -0.1225    0.0000 H   0  0  0  0  0  0  0  0  0  0  0  0
    2.6458    0.9475    0.0000 H   0  0  0  0  0  0  0  0  0  0  0  0
    3.3601   -0.2900    0.0000 H   0  0  0  0  0  0  0  0  0  0  0  0
    3.5724   -2.2220    0.0000 H   0  0  0  0  0  0  0  0  0  0  0  0
    1.2168   -0.7025    0.0000 H   0  0  0  0  0  0  0  0  0  0  0  0
    1.2168   -1.7725    0.0000 H   0  0  0  0  0  0  0  0  0  0  0  0
    3.5724   -4.6970    0.0000 H   0  0  0  0  0  0  0  0  0  0  0  0
    4.4250   -3.2202    0.0000 H   0  0  0  0  0  0  0  0  0  0  0  0
    2.1434   -4.7445    0.0000 H   0  0  0  0  0  0  0  0  0  0  0  0
    0.0000   -3.5070    0.0000 H   0  0  0  0  0  0  0  0  0  0  0  0
   -1.6082   -2.5785    0.0000 H   0  0  0  0  0  0  0  0  0  0  0  0
   -1.6082   -0.7215    0.0000 H   0  0  0  0  0  0  0  0  0  0  0  0
    0.0000    0.2070    0.0000 H   0  0  0  0  0  0  0  0  0  0  0  0
    1.6082   -0.7215    0.0000 H   0  0  0  0  0  0  0  0  0  0  0  0
    5.0013   -0.1675    0.0000 H   0  0  0  0  0  0  0  0  0  0  0  0
    6.5558   -1.3100    0.0000 H   0  0  0  0  0  0  0  0  0  0  0  0
    5.9484   -5.6444    0.0000 H   0  0  0  0  0  0  0  0  0  0  0  0
    7.4477   -4.5550    0.0000 H   0  0  0  0  0  0  0  0  0  0  0  0
    7.0125   -5.5325    0.0000 H   0  0  0  0  0  0  0  0  0  0  0  0
    7.5437   -3.9499    0.0000 H   0  0  0  0  0  0  0  0  0  0  0  0
    6.4544   -2.4505    0.0000 H   0  0  0  0  0  0  0  0  0  0  0  0
    7.4319   -2.8857    0.0000 H   0  0  0  0  0  0  0  0  0  0  0  0
    4.2538   -4.0492    0.0000 H   0  0  0  0  0  0  0  0  0  0  0  0
    5.3432   -5.5485    0.0000 H   0  0  0  0  0  0  0  0  0  0  0  0
    4.3657   -5.1133    0.0000 H   0  0  0  0  0  0  0  0  0  0  0  0
  1  2  1  0  0  0  0
  1 34  1  0  0  0  0
  1 35  1  0  0  0  0
  1 36  1  0  0  0  0
  2  3  1  0  0  0  0
  2  4  1  0  0  0  0
  2 37  1  0  0  0  0
  3 38  1  0  0  0  0
  3 39  1  0  0  0  0
  3 40  1  0  0  0  0
  4  5  1  0  0  0  0
  4 23  1  0  0  0  0
  4 41  1  1  0  0  0
  5  6  1  0  0  0  0
  5 42  1  0  0  0  0
  6  7  2  0  0  0  0
  6  8  1  0  0  0  0
  8  9  1  0  0  0  0
  8 43  1  0  0  0  0
  8 44  1  0  0  0  0
  9 10  1  0  0  0  0
  9 16  1  0  0  0  0
 10 11  2  0  0  0  0
 10 12  1  0  0  0  0
 12 13  1  0  0  0  0
 12 14  2  0  0  0  0
 13 45  1  0  0  0  0
 13 46  1  0  0  0  0
 14 15  1  0  0  0  0
 14 47  1  0  0  0  0
 15 16  2  0  0  0  0
 16 17  1  0  0  0  0
 17 18  2  0  0  0  0
 17 22  1  0  0  0  0
 18 19  1  0  0  0  0
 18 48  1  0  0  0  0
 19 20  2  0  0  0  0
 19 49  1  0  0  0  0
 20 21  1  0  0  0  0
 20 50  1  0  0  0  0
 21 22  2  0  0  0  0
 21 51  1  0  0  0  0
 22 52  1  0  0  0  0
 23 24  1  0  0  0  0
 23 25  1  0  0  0  0
 23 53  1  6  0  0  0
 24 54  1  0  0  0  0
 25 26  2  0  0  0  0
 25 29  1  0  0  0  0
 26 27  1  0  0  0  0
 27 28  2  0  0  0  0
 28 29  1  0  0  0  0
 28 30  1  0  0  0  0
 30 31  1  0  0  0  0
 30 32  1  0  0  0  0
 30 33  1  0  0  0  0
 31 55  1  0  0  0  0
 31 56  1  0  0  0  0
 31 57  1  0  0  0  0
 32 58  1  0  0  0  0
 32 59  1  0  0  0  0
 32 60  1  0  0  0  0
 33 61  1  0  0  0  0
 33 62  1  0  0  0  0
 33 63  1  0  0  0  0
M  END
>  <DRUGBANK_ID>
DB03925

>  <SECONDARY_ACCESSION_NUMBERS>
EXPT00279

>  <COMMON_NAME>
Freselestat

>  <CAS_NUMBER>
208848-19-5

>  <UNII>
1CW4RL23VP

>  <SYNONYMS>
Freselestat

$$$$
