
 OpenBabel10282417072D

 63 66  0  0  0  0  0  0  0  0999 V2000
    1.2987    1.1163    0.0000 O   0  0  0  0  0  0  0  0  0  0  0  0
    2.7098    1.1692    0.0000 O   0  0  0  0  0  0  0  0  0  0  0  0
    3.6775   -0.1674    0.0000 O   0  0  0  0  0  0  0  0  0  0  0  0
   -3.6775   -2.4383    0.0000 O   0  0  0  0  0  0  0  0  0  0  0  0
    2.2567    2.1766    0.0000 O   0  0  0  0  0  0  0  0  0  0  0  0
    0.7718    0.0799    0.0000 C   0  0  1  0  0  0  0  0  0  0  0  0
    0.7718   -0.7451    0.0000 C   0  0  2  0  0  0  0  0  0  0  0  0
    0.0573   -1.1576    0.0000 C   0  0  1  0  0  0  0  0  0  0  0  0
   -0.6572   -0.7451    0.0000 C   0  0  1  0  0  0  0  0  0  0  0  0
    1.5524    0.3313    0.0000 C   0  0  1  0  0  0  0  0  0  0  0  0
    0.0573    0.4924    0.0000 C   0  0  0  0  0  0  0  0  0  0  0  0
   -1.4079   -1.1632    0.0000 C   0  0  2  0  0  0  0  0  0  0  0  0
    1.5524   -0.9965    0.0000 C   0  0  0  0  0  0  0  0  0  0  0  0
   -0.6572    0.0799    0.0000 C   0  0  0  0  0  0  0  0  0  0  0  0
    2.0338   -0.3326    0.0000 C   0  0  0  0  0  0  0  0  0  0  0  0
    0.0706   -2.0169    0.0000 C   0  0  0  0  0  0  0  0  0  0  0  0
    0.7718    0.9049    0.0000 C   0  0  0  0  0  0  0  0  0  0  0  0
   -1.4145   -2.0226    0.0000 C   0  0  0  0  0  0  0  0  0  0  0  0
   -0.6703   -2.4521    0.0000 C   0  0  0  0  0  0  0  0  0  0  0  0
   -2.1725   -0.6979    0.0000 C   0  0  0  0  0  0  0  0  0  0  0  0
   -1.4016   -0.3383    0.0000 C   0  0  0  0  0  0  0  0  0  0  0  0
    2.3730    0.4161    0.0000 C   0  0  0  0  0  0  0  0  0  0  0  0
   -2.9546   -1.1335    0.0000 C   0  0  0  0  0  0  0  0  0  0  0  0
   -2.1861   -2.4761    0.0000 C   0  0  0  0  0  0  0  0  0  0  0  0
   -2.9615   -2.0285    0.0000 C   0  0  0  0  0  0  0  0  0  0  0  0
    2.8568   -0.2522    0.0000 C   0  0  0  0  0  0  0  0  0  0  0  0
    1.4716    1.9230    0.0000 C   0  0  0  0  0  0  0  0  0  0  0  0
    0.8597    2.4761    0.0000 C   0  0  0  0  0  0  0  0  0  0  0  0
    0.0745    2.2226    0.0000 C   0  0  0  0  0  0  0  0  0  0  0  0
   -0.6572   -1.5701    0.0000 H   0  0  0  0  0  0  0  0  0  0  0  0
    0.8149   -1.5690    0.0000 H   0  0  0  0  0  0  0  0  0  0  0  0
    0.0573   -0.3326    0.0000 H   0  0  0  0  0  0  0  0  0  0  0  0
    4.2463   -0.9531    0.0000 H   0  0  0  0  0  0  0  0  0  0  0  0
    0.0573    1.5624    0.0000 H   0  0  0  0  0  0  0  0  0  0  0  0
   -0.8693    1.0274    0.0000 H   0  0  0  0  0  0  0  0  0  0  0  0
    1.8848   -2.0135    0.0000 H   0  0  0  0  0  0  0  0  0  0  0  0
    2.6095   -1.1625    0.0000 H   0  0  0  0  0  0  0  0  0  0  0  0
   -1.5838    0.6149    0.0000 H   0  0  0  0  0  0  0  0  0  0  0  0
   -0.6572    1.1499    0.0000 H   0  0  0  0  0  0  0  0  0  0  0  0
    3.1038   -0.3326    0.0000 H   0  0  0  0  0  0  0  0  0  0  0  0
    2.5200   -1.2857    0.0000 H   0  0  0  0  0  0  0  0  0  0  0  0
    1.0033   -2.5412    0.0000 H   0  0  0  0  0  0  0  0  0  0  0  0
    0.0808   -3.0869    0.0000 H   0  0  0  0  0  0  0  0  0  0  0  0
    1.6984    1.4399    0.0000 H   0  0  0  0  0  0  0  0  0  0  0  0
   -0.1548    1.4399    0.0000 H   0  0  0  0  0  0  0  0  0  0  0  0
    0.7718    1.9749    0.0000 H   0  0  0  0  0  0  0  0  0  0  0  0
   -0.6662   -3.5221    0.0000 H   0  0  0  0  0  0  0  0  0  0  0  0
   -1.5959   -2.9890    0.0000 H   0  0  0  0  0  0  0  0  0  0  0  0
   -2.1519    0.3719    0.0000 H   0  0  0  0  0  0  0  0  0  0  0  0
   -3.0897   -0.1469    0.0000 H   0  0  0  0  0  0  0  0  0  0  0  0
   -0.4709    0.1896    0.0000 H   0  0  0  0  0  0  0  0  0  0  0  0
   -2.3241    0.2038    0.0000 H   0  0  0  0  0  0  0  0  0  0  0  0
   -1.3934    0.7317    0.0000 H   0  0  0  0  0  0  0  0  0  0  0  0
   -3.8750   -0.5878    0.0000 H   0  0  0  0  0  0  0  0  0  0  0  0
   -3.8864   -1.6595    0.0000 H   0  0  0  0  0  0  0  0  0  0  0  0
   -2.1821   -3.5081    0.0000 H   0  0  0  0  0  0  0  0  0  0  0  0
    2.4199   -1.2289    0.0000 H   0  0  0  0  0  0  0  0  0  0  0  0
    1.7925   -0.3622    0.0000 H   0  0  0  0  0  0  0  0  0  0  0  0
    1.0842    3.5223    0.0000 H   0  0  0  0  0  0  0  0  0  0  0  0
    0.0659    3.1936    0.0000 H   0  0  0  0  0  0  0  0  0  0  0  0
   -0.7193    2.9401    0.0000 H   0  0  0  0  0  0  0  0  0  0  0  0
   -0.1499    1.1764    0.0000 H   0  0  0  0  0  0  0  0  0  0  0  0
   -0.9437    1.8939    0.0000 H   0  0  0  0  0  0  0  0  0  0  0  0
  1 27  1  0  0  0  0
  2 22  2  0  0  0  0
  3 26  1  0  0  0  0
  3 33  1  0  0  0  0
  4 25  2  0  0  0  0
  5 27  2  0  0  0  0
  6  7  1  0  0  0  0
  6 10  1  0  0  0  0
  6 11  1  0  0  0  0
  6 17  1  1  0  0  0
  7  8  1  0  0  0  0
  7 13  1  0  0  0  0
  7 31  1  6  0  0  0
  8  9  1  0  0  0  0
  8 16  1  0  0  0  0
  8 32  1  1  0  0  0
  9 12  1  0  0  0  0
  9 14  1  0  0  0  0
  9 30  1  6  0  0  0
 10  1  1  6  0  0  0
 10 15  1  0  0  0  0
 10 22  1  0  0  0  0
 11 14  1  0  0  0  0
 11 34  1  0  0  0  0
 11 35  1  0  0  0  0
 12 18  1  0  0  0  0
 12 20  1  0  0  0  0
 12 21  1  1  0  0  0
 13 15  1  0  0  0  0
 13 36  1  0  0  0  0
 13 37  1  0  0  0  0
 14 38  1  0  0  0  0
 14 39  1  0  0  0  0
 15 40  1  0  0  0  0
 15 41  1  0  0  0  0
 16 19  1  0  0  0  0
 16 42  1  0  0  0  0
 16 43  1  0  0  0  0
 17 44  1  0  0  0  0
 17 45  1  0  0  0  0
 17 46  1  0  0  0  0
 18 19  1  0  0  0  0
 18 24  2  0  0  0  0
 19 47  1  0  0  0  0
 19 48  1  0  0  0  0
 20 23  1  0  0  0  0
 20 49  1  0  0  0  0
 20 50  1  0  0  0  0
 21 51  1  0  0  0  0
 21 52  1  0  0  0  0
 21 53  1  0  0  0  0
 22 26  1  0  0  0  0
 23 25  1  0  0  0  0
 23 54  1  0  0  0  0
 23 55  1  0  0  0  0
 24 25  1  0  0  0  0
 24 56  1  0  0  0  0
 26 57  1  0  0  0  0
 26 58  1  0  0  0  0
 27 28  1  0  0  0  0
 28 29  1  0  0  0  0
 28 59  1  0  0  0  0
 28 60  1  0  0  0  0
 29 61  1  0  0  0  0
 29 62  1  0  0  0  0
 29 63  1  0  0  0  0
M  END
>  <DRUGBANK_ID>
DB12499

>  <COMMON_NAME>
Clascoterone

>  <CAS_NUMBER>
19608-29-8

>  <UNII>
XN7MM8XG2M

>  <SYNONYMS>
11-deoxycortisol 17α-propionate; Clascoterone; Cortexolone 17alpha-propionate; Cortexolone 17α-propionate

$$$$
