
 OpenBabel10282417072D

 37 38  0  0  0  0  0  0  0  0999 V2000
    2.7512   -1.7116    0.0000 C   0  0  0  0  0  0  0  0  0  0  0  0
    2.7512   -2.5366    0.0000 C   0  0  0  0  0  0  0  0  0  0  0  0
    3.4186   -3.0215    0.0000 N   0  0  0  0  0  0  0  0  0  0  0  0
    3.1637   -3.8062    0.0000 C   0  0  0  0  0  0  0  0  0  0  0  0
    2.3387   -3.8062    0.0000 C   0  0  0  0  0  0  0  0  0  0  0  0
    2.0837   -3.0215    0.0000 N   0  0  0  0  0  0  0  0  0  0  0  0
    1.2991   -2.7666    0.0000 C   0  0  0  0  0  0  0  0  0  0  0  0
    1.1276   -1.9596    0.0000 C   0  0  3  0  0  0  0  0  0  0  0  0
    1.7407   -1.4076    0.0000 O   0  0  0  0  0  0  0  0  0  0  0  0
    0.3430   -1.7047    0.0000 C   0  0  0  0  0  0  0  0  0  0  0  0
    0.1714   -0.8977    0.0000 N   0  0  0  0  0  0  0  0  0  0  0  0
   -0.6132   -0.6428    0.0000 C   0  0  0  0  0  0  0  0  0  0  0  0
   -0.7847    0.1642    0.0000 C   0  0  0  0  0  0  0  0  0  0  0  0
   -0.1716    0.7162    0.0000 O   0  0  0  0  0  0  0  0  0  0  0  0
    0.6130    0.4613    0.0000 C   0  0  0  0  0  0  0  0  0  0  0  0
    0.7845   -0.3457    0.0000 C   0  0  0  0  0  0  0  0  0  0  0  0
    1.8538   -4.4736    0.0000 N   0  3  0  0  0  0  0  0  0  0  0  0
    2.1893   -5.2273    0.0000 O   0  5  0  0  0  0  0  0  0  0  0  0
    1.0333   -4.3874    0.0000 O   0  0  0  0  0  0  0  0  0  0  0  0
    3.6778   -1.1766    0.0000 H   0  0  0  0  0  0  0  0  0  0  0  0
    1.8246   -1.1766    0.0000 H   0  0  0  0  0  0  0  0  0  0  0  0
    2.7512   -0.6416    0.0000 H   0  0  0  0  0  0  0  0  0  0  0  0
    3.7703   -4.6411    0.0000 H   0  0  0  0  0  0  0  0  0  0  0  0
    0.5039   -3.4826    0.0000 H   0  0  0  0  0  0  0  0  0  0  0  0
    0.2815   -2.4359    0.0000 H   0  0  0  0  0  0  0  0  0  0  0  0
    2.1452   -2.2903    0.0000 H   0  0  0  0  0  0  0  0  0  0  0  0
    2.6632   -1.7074    0.0000 H   0  0  0  0  0  0  0  0  0  0  0  0
   -0.4521   -2.4207    0.0000 H   0  0  0  0  0  0  0  0  0  0  0  0
   -0.6747   -1.3741    0.0000 H   0  0  0  0  0  0  0  0  0  0  0  0
   -1.4084   -1.3588    0.0000 H   0  0  0  0  0  0  0  0  0  0  0  0
   -1.6308   -0.3121    0.0000 H   0  0  0  0  0  0  0  0  0  0  0  0
   -1.8023    0.4949    0.0000 H   0  0  0  0  0  0  0  0  0  0  0  0
   -1.0071    1.2108    0.0000 H   0  0  0  0  0  0  0  0  0  0  0  0
    1.4082    1.1773    0.0000 H   0  0  0  0  0  0  0  0  0  0  0  0
    1.6306    0.1306    0.0000 H   0  0  0  0  0  0  0  0  0  0  0  0
    1.8021   -0.6764    0.0000 H   0  0  0  0  0  0  0  0  0  0  0  0
    1.0069   -1.3923    0.0000 H   0  0  0  0  0  0  0  0  0  0  0  0
  1  2  1  0  0  0  0
  1 20  1  0  0  0  0
  1 21  1  0  0  0  0
  1 22  1  0  0  0  0
  2  3  2  0  0  0  0
  2  6  1  0  0  0  0
  3  4  1  0  0  0  0
  4  5  2  0  0  0  0
  4 23  1  0  0  0  0
  5  6  1  0  0  0  0
  5 17  1  0  0  0  0
  6  7  1  0  0  0  0
  7  8  1  0  0  0  0
  7 24  1  0  0  0  0
  7 25  1  0  0  0  0
  8  9  1  0  0  0  0
  8 10  1  0  0  0  0
  8 26  1  0  0  0  0
  9 27  1  0  0  0  0
 10 11  1  0  0  0  0
 10 28  1  0  0  0  0
 10 29  1  0  0  0  0
 11 12  1  0  0  0  0
 11 16  1  0  0  0  0
 12 13  1  0  0  0  0
 12 30  1  0  0  0  0
 12 31  1  0  0  0  0
 13 14  1  0  0  0  0
 13 32  1  0  0  0  0
 13 33  1  0  0  0  0
 14 15  1  0  0  0  0
 15 16  1  0  0  0  0
 15 34  1  0  0  0  0
 15 35  1  0  0  0  0
 16 36  1  0  0  0  0
 16 37  1  0  0  0  0
 17 18  1  0  0  0  0
 17 19  2  0  0  0  0
M  CHG  2  17   1  18  -1
M  END
>  <DRUGBANK_ID>
DB15098

>  <COMMON_NAME>
Morinidazole

>  <CAS_NUMBER>
92478-27-8

>  <UNII>
TUPWG40JAL

$$$$
