1545
 OpenBabel10282417072D

 39 41  0  0  1  0  0  0  0  0999 V2000
    2.5467   -2.7925    0.0000 Cl  0  0  0  0  0  0  0  0  0  0  0  0
    3.6080   -1.8983    0.0000 F   0  0  0  0  0  0  0  0  0  0  0  0
    4.7038    1.9876    0.0000 O   0  0  0  0  0  0  0  0  0  0  0  0
    2.3403    1.9259    0.0000 O   0  0  0  0  0  0  0  0  0  0  0  0
    3.4164    2.6076    0.0000 O   0  0  0  0  0  0  0  0  0  0  0  0
    2.1839    0.5376    0.0000 N   0  0  0  0  0  0  0  0  0  0  0  0
    4.0375    0.5376    0.0000 N   0  0  0  0  0  0  0  0  0  0  0  0
    3.1107   -0.6247    0.0000 C   0  0  0  0  0  0  0  0  0  0  0  0
    3.8540   -0.2667    0.0000 C   0  0  0  0  0  0  0  0  0  0  0  0
    3.5232    1.1826    0.0000 C   0  0  3  0  0  0  0  0  0  0  0  0
    2.3674   -0.2667    0.0000 C   0  0  0  0  0  0  0  0  0  0  0  0
    4.4990   -0.7811    0.0000 C   0  0  0  0  0  0  0  0  0  0  0  0
    2.6982    1.1826    0.0000 C   0  0  0  0  0  0  0  0  0  0  0  0
    3.1881   -1.4805    0.0000 C   0  0  0  0  0  0  0  0  0  0  0  0
    1.6500   -0.7398    0.0000 C   0  0  0  0  0  0  0  0  0  0  0  0
    3.8811    1.9259    0.0000 C   0  0  0  0  0  0  0  0  0  0  0  0
    2.4818   -1.9701    0.0000 C   0  0  0  0  0  0  0  0  0  0  0  0
    1.7076   -1.5972    0.0000 C   0  0  0  0  0  0  0  0  0  0  0  0
    4.3760   -1.5969    0.0000 C   0  0  0  0  0  0  0  0  0  0  0  0
    5.2670   -0.4797    0.0000 C   0  0  0  0  0  0  0  0  0  0  0  0
    5.0210   -2.1113    0.0000 C   0  0  0  0  0  0  0  0  0  0  0  0
    5.9120   -0.9940    0.0000 C   0  0  0  0  0  0  0  0  0  0  0  0
    5.7890   -1.8099    0.0000 C   0  0  0  0  0  0  0  0  0  0  0  0
    5.0618    2.7308    0.0000 C   0  0  0  0  0  0  0  0  0  0  0  0
    5.8845    2.7925    0.0000 C   0  0  0  0  0  0  0  0  0  0  0  0
    1.2241    0.7567    0.0000 H   0  0  0  0  0  0  0  0  0  0  0  0
    3.0589    0.2186    0.0000 H   0  0  0  0  0  0  0  0  0  0  0  0
    4.1230   -1.9175    0.0000 H   0  0  0  0  0  0  0  0  0  0  0  0
    0.7254   -0.2813    0.0000 H   0  0  0  0  0  0  0  0  0  0  0  0
    0.8527   -2.1752    0.0000 H   0  0  0  0  0  0  0  0  0  0  0  0
    5.4208    0.5408    0.0000 H   0  0  0  0  0  0  0  0  0  0  0  0
    4.8672   -3.1318    0.0000 H   0  0  0  0  0  0  0  0  0  0  0  0
    6.8727   -0.6169    0.0000 H   0  0  0  0  0  0  0  0  0  0  0  0
    6.5958   -2.4534    0.0000 H   0  0  0  0  0  0  0  0  0  0  0  0
    4.4591    3.6149    0.0000 H   0  0  0  0  0  0  0  0  0  0  0  0
    5.5260    3.6948    0.0000 H   0  0  0  0  0  0  0  0  0  0  0  0
    6.4873    1.9085    0.0000 H   0  0  0  0  0  0  0  0  0  0  0  0
    6.3487    3.7566    0.0000 H   0  0  0  0  0  0  0  0  0  0  0  0
    6.9515    2.8725    0.0000 H   0  0  0  0  0  0  0  0  0  0  0  0
  1 17  1  0  0  0  0
  2 19  1  0  0  0  0
  3 16  1  0  0  0  0
  3 24  1  0  0  0  0
  4 13  2  0  0  0  0
  5 16  2  0  0  0  0
  6 11  1  0  0  0  0
  6 13  1  0  0  0  0
  6 26  1  0  0  0  0
  7  9  2  0  0  0  0
  7 10  1  0  0  0  0
  8  9  1  0  0  0  0
  8 11  2  0  0  0  0
  8 14  1  0  0  0  0
  9 12  1  0  0  0  0
 10 13  1  0  0  0  0
 10 16  1  0  0  0  0
 10 27  1  0  0  0  0
 11 15  1  0  0  0  0
 12 19  1  0  0  0  0
 12 20  2  0  0  0  0
 14 17  2  0  0  0  0
 14 28  1  0  0  0  0
 15 18  2  0  0  0  0
 15 29  1  0  0  0  0
 17 18  1  0  0  0  0
 18 30  1  0  0  0  0
 19 21  2  0  0  0  0
 20 22  1  0  0  0  0
 20 31  1  0  0  0  0
 21 23  1  0  0  0  0
 21 32  1  0  0  0  0
 22 23  2  0  0  0  0
 22 33  1  0  0  0  0
 23 34  1  0  0  0  0
 24 25  1  0  0  0  0
 24 35  1  0  0  0  0
 24 36  1  0  0  0  0
 25 37  1  0  0  0  0
 25 38  1  0  0  0  0
 25 39  1  0  0  0  0
M  END
>  <DRUGBANK_ID>
DB01545

>  <COMMON_NAME>
Ethyl loflazepate

>  <CAS_NUMBER>
29177-84-2

>  <UNII>
VJB5FW9W9J

>  <SYNONYMS>
Ethyl fluclozepate; Ethyl loflazepate; Ethylis loflazepas; Loflazepate d'ethyle; Loflazepato de etilo

$$$$
