
 OpenBabel10282417072D

 68 71  0  0  0  0  0  0  0  0999 V2000
   -2.8917   -0.7477    0.0000 C   0  0  1  0  0  0  0  0  0  0  0  0
   -0.7405    0.4759    0.0000 C   0  0  2  0  0  0  0  0  0  0  0  0
   -2.8917   -1.5685    0.0000 C   0  0  0  0  0  0  0  0  0  0  0  0
    0.0460    0.7235    0.0000 C   0  0  1  0  0  0  0  0  0  0  0  0
   -2.1779   -0.3302    0.0000 C   0  0  2  0  0  0  0  0  0  0  0  0
   -1.4640   -0.7527    0.0000 C   0  0  2  0  0  0  0  0  0  0  0  0
   -0.7501   -0.3448    0.0000 C   0  0  2  0  0  0  0  0  0  0  0  0
   -3.6056   -0.3302    0.0000 C   0  0  0  0  0  0  0  0  0  0  0  0
   -1.4544    0.8983    0.0000 C   0  0  0  0  0  0  0  0  0  0  0  0
   -2.1779    0.4904    0.0000 C   0  0  2  0  0  0  0  0  0  0  0  0
   -1.4689   -1.5781    0.0000 C   0  0  0  0  0  0  0  0  0  0  0  0
   -3.6056   -1.9860    0.0000 C   0  0  0  0  0  0  0  0  0  0  0  0
   -2.1828   -1.9860    0.0000 C   0  0  2  0  0  0  0  0  0  0  0  0
    0.0364    1.5490    0.0000 C   0  0  0  0  0  0  0  0  0  0  0  0
    0.5171    0.0534    0.0000 C   0  0  0  0  0  0  0  0  0  0  0  0
    0.0315   -0.6070    0.0000 C   0  0  0  0  0  0  0  0  0  0  0  0
   -4.3193   -0.7477    0.0000 C   0  0  0  0  0  0  0  0  0  0  0  0
   -4.3193   -1.5685    0.0000 C   0  0  0  0  0  0  0  0  0  0  0  0
    4.3290    1.5830    0.0000 C   0  0  0  0  0  0  0  0  0  0  0  0
    2.1779    1.9860    0.0000 C   0  0  0  0  0  0  0  0  0  0  0  0
    0.7501    1.9714    0.0000 C   0  0  0  0  0  0  0  0  0  0  0  0
    5.0332    2.0006    0.0000 O   0  0  0  0  0  0  0  0  0  0  0  0
   -0.6774    1.9569    0.0000 O   0  0  0  0  0  0  0  0  0  0  0  0
    1.4640    1.5635    0.0000 O   0  0  0  0  0  0  0  0  0  0  0  0
    4.3339    0.7623    0.0000 O   0  0  0  0  0  0  0  0  0  0  0  0
    2.1729    2.8068    0.0000 O   0  0  0  0  0  0  0  0  0  0  0  0
   -5.0332   -1.9764    0.0000 O   0  0  0  0  0  0  0  0  0  0  0  0
    0.7599    1.1411    0.0000 O   0  0  0  0  0  0  0  0  0  0  0  0
   -2.8965    0.0776    0.0000 C   0  0  0  0  0  0  0  0  0  0  0  0
   -0.7501    1.3013    0.0000 C   0  0  0  0  0  0  0  0  0  0  0  0
   -2.8917    0.9080    0.0000 O   0  0  0  0  0  0  0  0  0  0  0  0
    3.6056    1.9909    0.0000 C   0  0  0  0  0  0  0  0  0  0  0  0
    2.8917    1.5781    0.0000 C   0  0  0  0  0  0  0  0  0  0  0  0
   -2.1924   -2.8068    0.0000 C   0  0  0  0  0  0  0  0  0  0  0  0
   -0.7551   -1.1702    0.0000 H   0  0  0  0  0  0  0  0  0  0  0  0
   -1.4689    0.0776    0.0000 H   0  0  0  0  0  0  0  0  0  0  0  0
   -2.1828   -1.1606    0.0000 H   0  0  0  0  0  0  0  0  0  0  0  0
   -3.6057    0.7018    0.0000 H   0  0  0  0  0  0  0  0  0  0  0  0
   -1.4432    1.9682    0.0000 H   0  0  0  0  0  0  0  0  0  0  0  0
   -2.3755    1.4429    0.0000 H   0  0  0  0  0  0  0  0  0  0  0  0
   -2.1694    1.5604    0.0000 H   0  0  0  0  0  0  0  0  0  0  0  0
   -0.5451   -2.1179    0.0000 H   0  0  0  0  0  0  0  0  0  0  0  0
   -1.4741   -2.6481    0.0000 H   0  0  0  0  0  0  0  0  0  0  0  0
   -3.6057   -3.0180    0.0000 H   0  0  0  0  0  0  0  0  0  0  0  0
   -3.1148   -2.5115    0.0000 H   0  0  0  0  0  0  0  0  0  0  0  0
    1.5870    0.0420    0.0000 H   0  0  0  0  0  0  0  0  0  0  0  0
    1.0153    1.0003    0.0000 H   0  0  0  0  0  0  0  0  0  0  0  0
    0.3544   -1.6271    0.0000 H   0  0  0  0  0  0  0  0  0  0  0  0
   -0.7316   -1.3571    0.0000 H   0  0  0  0  0  0  0  0  0  0  0  0
   -5.2145   -0.2343    0.0000 H   0  0  0  0  0  0  0  0  0  0  0  0
    0.7419    3.0414    0.0000 H   0  0  0  0  0  0  0  0  0  0  0  0
    1.6735    2.5120    0.0000 H   0  0  0  0  0  0  0  0  0  0  0  0
    5.8501    1.5416    0.0000 H   0  0  0  0  0  0  0  0  0  0  0  0
    1.6027    0.6609    0.0000 H   0  0  0  0  0  0  0  0  0  0  0  0
   -1.9730    0.6180    0.0000 H   0  0  0  0  0  0  0  0  0  0  0  0
   -3.8262    0.6072    0.0000 H   0  0  0  0  0  0  0  0  0  0  0  0
   -2.9027    1.1476    0.0000 H   0  0  0  0  0  0  0  0  0  0  0  0
    0.1703    1.8470    0.0000 H   0  0  0  0  0  0  0  0  0  0  0  0
   -1.6829    1.8255    0.0000 H   0  0  0  0  0  0  0  0  0  0  0  0
   -0.7625    2.3712    0.0000 H   0  0  0  0  0  0  0  0  0  0  0  0
   -2.8861    1.8780    0.0000 H   0  0  0  0  0  0  0  0  0  0  0  0
    3.5998    3.0609    0.0000 H   0  0  0  0  0  0  0  0  0  0  0  0
    2.6773    2.5231    0.0000 H   0  0  0  0  0  0  0  0  0  0  0  0
    2.8944    0.5081    0.0000 H   0  0  0  0  0  0  0  0  0  0  0  0
    1.9669    1.0399    0.0000 H   0  0  0  0  0  0  0  0  0  0  0  0
   -3.1252   -3.3309    0.0000 H   0  0  0  0  0  0  0  0  0  0  0  0
   -1.2721   -3.3526    0.0000 H   0  0  0  0  0  0  0  0  0  0  0  0
   -2.2049   -3.8767    0.0000 H   0  0  0  0  0  0  0  0  0  0  0  0
  1 29  1  1  0  0  0
  2  9  1  0  0  0  0
  2 30  1  1  0  0  0
  3  1  1  0  0  0  0
  4  2  1  0  0  0  0
  4 14  1  1  0  0  0
  4 28  1  0  0  0  0
  4 15  1  0  0  0  0
  5  1  1  0  0  0  0
  5 37  1  6  0  0  0
  6  5  1  0  0  0  0
  6 36  1  1  0  0  0
  7  6  1  0  0  0  0
  7 35  1  6  0  0  0
  7  2  1  0  0  0  0
  8  1  1  0  0  0  0
  8 38  1  0  0  0  0
  9 10  1  0  0  0  0
  9 39  1  0  0  0  0
  9 40  1  0  0  0  0
 10  5  1  0  0  0  0
 10 31  1  0  0  0  0
 10 41  1  6  0  0  0
 11  6  1  0  0  0  0
 11 13  1  0  0  0  0
 11 42  1  0  0  0  0
 11 43  1  0  0  0  0
 12  3  2  0  0  0  0
 12 44  1  0  0  0  0
 13  3  1  0  0  0  0
 13 34  1  0  0  0  0
 13 45  1  1  0  0  0
 15 16  1  0  0  0  0
 15 46  1  0  0  0  0
 15 47  1  0  0  0  0
 16  7  1  0  0  0  0
 16 48  1  0  0  0  0
 16 49  1  0  0  0  0
 17  8  2  0  0  0  0
 17 50  1  0  0  0  0
 18 17  1  0  0  0  0
 18 12  1  0  0  0  0
 19 32  1  0  0  0  0
 20 24  1  0  0  0  0
 21 14  1  0  0  0  0
 21 51  1  0  0  0  0
 21 52  1  0  0  0  0
 22 19  1  0  0  0  0
 22 53  1  0  0  0  0
 23 14  2  0  0  0  0
 24 21  1  0  0  0  0
 25 19  2  0  0  0  0
 26 20  2  0  0  0  0
 27 18  2  0  0  0  0
 28 54  1  0  0  0  0
 29 55  1  0  0  0  0
 29 56  1  0  0  0  0
 29 57  1  0  0  0  0
 30 58  1  0  0  0  0
 30 59  1  0  0  0  0
 30 60  1  0  0  0  0
 31 61  1  0  0  0  0
 32 33  1  0  0  0  0
 32 62  1  0  0  0  0
 32 63  1  0  0  0  0
 33 20  1  0  0  0  0
 33 64  1  0  0  0  0
 33 65  1  0  0  0  0
 34 66  1  0  0  0  0
 34 67  1  0  0  0  0
 34 68  1  0  0  0  0
M  END
>  <DRUGBANK_ID>
DB14644

>  <COMMON_NAME>
Methylprednisolone hemisuccinate

>  <CAS_NUMBER>
2921-57-5

>  <UNII>
5GMR90S4KN

>  <SYNONYMS>
Methylprednisolone hemisuccinate; Methylprednisolone hydrogen succinate; Methylprednisolone succinate

$$$$
