IPR
 OpenBabel10282417072D

 28 27  0  0  0  0  0  0  0  0999 V2000
   -2.5432    0.0255    0.0000 P   0  0  0  0  0  0  0  0  0  0  0  0
   -3.2576    0.4379    0.0000 O   0  0  0  0  0  0  0  0  0  0  0  0
   -2.9556   -0.6889    0.0000 O   0  0  0  0  0  0  0  0  0  0  0  0
   -2.1307    0.7400    0.0000 O   0  0  0  0  0  0  0  0  0  0  0  0
   -1.8287   -0.3870    0.0000 O   0  0  0  0  0  0  0  0  0  0  0  0
   -1.1144    0.0255    0.0000 P   0  0  1  0  0  0  0  0  0  0  0  0
   -0.7019   -0.6889    0.0000 O   0  0  0  0  0  0  0  0  0  0  0  0
   -1.5268    0.7400    0.0000 O   0  0  0  0  0  0  0  0  0  0  0  0
   -0.3999    0.4379    0.0000 O   0  0  0  0  0  0  0  0  0  0  0  0
    0.3146    0.0255    0.0000 C   0  0  0  0  0  0  0  0  0  0  0  0
    1.0291    0.4379    0.0000 C   0  0  0  0  0  0  0  0  0  0  0  0
    1.7434    0.0255    0.0000 C   0  0  0  0  0  0  0  0  0  0  0  0
    2.4579    0.4379    0.0000 C   0  0  0  0  0  0  0  0  0  0  0  0
    1.7434   -0.7995    0.0000 C   0  0  0  0  0  0  0  0  0  0  0  0
   -3.2577    1.4079    0.0000 H   0  0  0  0  0  0  0  0  0  0  0  0
   -3.9256   -0.6890    0.0000 H   0  0  0  0  0  0  0  0  0  0  0  0
   -1.1869   -1.5290    0.0000 H   0  0  0  0  0  0  0  0  0  0  0  0
    0.3146   -1.0445    0.0000 H   0  0  0  0  0  0  0  0  0  0  0  0
    1.2412   -0.5096    0.0000 H   0  0  0  0  0  0  0  0  0  0  0  0
    1.0292    1.5079    0.0000 H   0  0  0  0  0  0  0  0  0  0  0  0
    1.9558    0.9729    0.0000 H   0  0  0  0  0  0  0  0  0  0  0  0
    2.6700   -0.5096    0.0000 H   0  0  0  0  0  0  0  0  0  0  0  0
    3.3845   -0.0972    0.0000 H   0  0  0  0  0  0  0  0  0  0  0  0
    2.4580    1.5079    0.0000 H   0  0  0  0  0  0  0  0  0  0  0  0
    3.3846    0.9728    0.0000 H   0  0  0  0  0  0  0  0  0  0  0  0
    0.8168   -1.3345    0.0000 H   0  0  0  0  0  0  0  0  0  0  0  0
    2.6700   -1.3345    0.0000 H   0  0  0  0  0  0  0  0  0  0  0  0
    1.7434   -1.8695    0.0000 H   0  0  0  0  0  0  0  0  0  0  0  0
  1  2  1  0  0  0  0
  1  3  1  0  0  0  0
  1  4  2  0  0  0  0
  1  5  1  0  0  0  0
  2 15  1  0  0  0  0
  3 16  1  0  0  0  0
  6  5  1  0  0  0  0
  6  7  1  0  0  0  0
  6  8  2  6  0  0  0
  6  9  1  0  0  0  0
  7 17  1  0  0  0  0
  9 10  1  0  0  0  0
 10 11  1  0  0  0  0
 10 18  1  0  0  0  0
 10 19  1  0  0  0  0
 11 12  1  0  0  0  0
 11 20  1  0  0  0  0
 11 21  1  0  0  0  0
 12 13  1  0  0  0  0
 12 14  1  0  0  0  0
 12 22  1  0  0  0  0
 13 23  1  0  0  0  0
 13 24  1  0  0  0  0
 13 25  1  0  0  0  0
 14 26  1  0  0  0  0
 14 27  1  0  0  0  0
 14 28  1  0  0  0  0
M  END
>  <DRUGBANK_ID>
DB02508

>  <SECONDARY_ACCESSION_NUMBERS>
EXPT01922

>  <COMMON_NAME>
Isopentyl Pyrophosphate

$$$$
