SBA
 OpenBabel10282417072D

 65 65  0  0  0  0  0  0  0  0999 V2000
   -4.8848    1.2976    0.0000 C   0  0  0  0  0  0  0  0  0  0  0  0
   -4.1704    0.8851    0.0000 C   0  0  0  0  0  0  0  0  0  0  0  0
   -4.1704    0.0601    0.0000 C   0  0  0  0  0  0  0  0  0  0  0  0
   -4.8848   -0.3524    0.0000 C   0  0  0  0  0  0  0  0  0  0  0  0
   -5.5993    0.0601    0.0000 C   0  0  0  0  0  0  0  0  0  0  0  0
   -5.5993    0.8851    0.0000 C   0  0  0  0  0  0  0  0  0  0  0  0
   -3.4559   -0.3524    0.0000 C   0  0  0  0  0  0  0  0  0  0  0  0
   -2.7414    0.0601    0.0000 O   0  0  0  0  0  0  0  0  0  0  0  0
   -2.0269   -0.3524    0.0000 C   0  0  0  0  0  0  0  0  0  0  0  0
   -2.0269   -1.1774    0.0000 O   0  0  0  0  0  0  0  0  0  0  0  0
   -1.3125    0.0601    0.0000 N   0  0  0  0  0  0  0  0  0  0  0  0
   -0.5980   -0.3524    0.0000 C   0  0  2  0  0  0  0  0  0  0  0  0
    0.1165    0.0601    0.0000 C   0  0  0  0  0  0  0  0  0  0  0  0
    0.8309   -0.3524    0.0000 N   0  0  0  0  0  0  0  0  0  0  0  0
    1.5454    0.0601    0.0000 C   0  0  2  0  0  0  0  0  0  0  0  0
    2.2599   -0.3524    0.0000 C   0  0  2  0  0  0  0  0  0  0  0  0
    1.5454    0.8851    0.0000 C   0  0  0  0  0  0  0  0  0  0  0  0
    2.2599    1.2976    0.0000 C   0  0  0  0  0  0  0  0  0  0  0  0
    2.2599    2.1226    0.0000 C   0  0  0  0  0  0  0  0  0  0  0  0
    2.9743    0.8851    0.0000 C   0  0  0  0  0  0  0  0  0  0  0  0
   -0.5980   -1.1774    0.0000 C   0  0  0  0  0  0  0  0  0  0  0  0
    0.1165   -1.5899    0.0000 C   0  0  0  0  0  0  0  0  0  0  0  0
    0.8309   -1.1774    0.0000 C   0  0  0  0  0  0  0  0  0  0  0  0
    0.1165   -2.4149    0.0000 C   0  0  0  0  0  0  0  0  0  0  0  0
    0.1165    0.8851    0.0000 O   0  0  0  0  0  0  0  0  0  0  0  0
    2.2599   -1.1774    0.0000 O   0  0  0  0  0  0  0  0  0  0  0  0
    2.9743    0.0601    0.0000 C   0  0  0  0  0  0  0  0  0  0  0  0
    3.6888   -0.3524    0.0000 O   0  0  0  0  0  0  0  0  0  0  0  0
    4.4033    0.0601    0.0000 C   0  0  0  0  0  0  0  0  0  0  0  0
   -0.5980    0.2316    0.0000 H   0  0  0  0  0  0  0  0  0  0  0  0
    1.7451   -0.4886    0.0000 H   0  0  0  0  0  0  0  0  0  0  0  0
    1.8845   -0.7997    0.0000 H   0  0  0  0  0  0  0  0  0  0  0  0
   -4.8848    2.3296    0.0000 H   0  0  0  0  0  0  0  0  0  0  0  0
   -3.2767    1.4011    0.0000 H   0  0  0  0  0  0  0  0  0  0  0  0
   -4.8848   -1.3844    0.0000 H   0  0  0  0  0  0  0  0  0  0  0  0
   -6.4930   -0.4559    0.0000 H   0  0  0  0  0  0  0  0  0  0  0  0
   -6.4930    1.4011    0.0000 H   0  0  0  0  0  0  0  0  0  0  0  0
   -3.4559   -1.4224    0.0000 H   0  0  0  0  0  0  0  0  0  0  0  0
   -2.5293   -0.8874    0.0000 H   0  0  0  0  0  0  0  0  0  0  0  0
   -1.3125    1.0446    0.0000 H   0  0  0  0  0  0  0  0  0  0  0  0
    0.8309   -1.3369    0.0000 H   0  0  0  0  0  0  0  0  0  0  0  0
    0.6188    1.4201    0.0000 H   0  0  0  0  0  0  0  0  0  0  0  0
    1.5454    1.9551    0.0000 H   0  0  0  0  0  0  0  0  0  0  0  0
    3.1866    1.8326    0.0000 H   0  0  0  0  0  0  0  0  0  0  0  0
    3.1865    2.6576    0.0000 H   0  0  0  0  0  0  0  0  0  0  0  0
    1.3333    2.6576    0.0000 H   0  0  0  0  0  0  0  0  0  0  0  0
    2.2599    3.1926    0.0000 H   0  0  0  0  0  0  0  0  0  0  0  0
    2.9743   -0.1849    0.0000 H   0  0  0  0  0  0  0  0  0  0  0  0
    3.9010    1.4201    0.0000 H   0  0  0  0  0  0  0  0  0  0  0  0
    3.9009    0.3501    0.0000 H   0  0  0  0  0  0  0  0  0  0  0  0
   -1.5246   -1.7124    0.0000 H   0  0  0  0  0  0  0  0  0  0  0  0
   -0.5980   -2.2474    0.0000 H   0  0  0  0  0  0  0  0  0  0  0  0
    1.0432   -2.1249    0.0000 H   0  0  0  0  0  0  0  0  0  0  0  0
    1.7576   -1.7124    0.0000 H   0  0  0  0  0  0  0  0  0  0  0  0
    0.8309   -0.1074    0.0000 H   0  0  0  0  0  0  0  0  0  0  0  0
    1.7575   -0.6424    0.0000 H   0  0  0  0  0  0  0  0  0  0  0  0
   -0.8101   -2.9499    0.0000 H   0  0  0  0  0  0  0  0  0  0  0  0
    1.0431   -2.9499    0.0000 H   0  0  0  0  0  0  0  0  0  0  0  0
    0.1165   -3.4849    0.0000 H   0  0  0  0  0  0  0  0  0  0  0  0
    1.4199   -1.6624    0.0000 H   0  0  0  0  0  0  0  0  0  0  0  0
    2.9743    1.1301    0.0000 H   0  0  0  0  0  0  0  0  0  0  0  0
    3.9009    0.5951    0.0000 H   0  0  0  0  0  0  0  0  0  0  0  0
    5.3299   -0.4749    0.0000 H   0  0  0  0  0  0  0  0  0  0  0  0
    4.4033    1.1301    0.0000 H   0  0  0  0  0  0  0  0  0  0  0  0
    5.3300    0.5951    0.0000 H   0  0  0  0  0  0  0  0  0  0  0  0
  1  2  2  0  0  0  0
  1  6  1  0  0  0  0
  1 33  1  0  0  0  0
  2  3  1  0  0  0  0
  2 34  1  0  0  0  0
  3  4  2  0  0  0  0
  3  7  1  0  0  0  0
  4  5  1  0  0  0  0
  4 35  1  0  0  0  0
  5  6  2  0  0  0  0
  5 36  1  0  0  0  0
  6 37  1  0  0  0  0
  7  8  1  0  0  0  0
  7 38  1  0  0  0  0
  7 39  1  0  0  0  0
  8  9  1  0  0  0  0
  9 10  2  0  0  0  0
  9 11  1  0  0  0  0
 11 40  1  0  0  0  0
 12 11  1  0  0  0  0
 12 13  1  0  0  0  0
 12 21  1  0  0  0  0
 12 30  1  1  0  0  0
 13 14  1  0  0  0  0
 13 25  2  0  0  0  0
 14 41  1  0  0  0  0
 15 14  1  0  0  0  0
 15 16  1  0  0  0  0
 15 17  1  0  0  0  0
 15 31  1  6  0  0  0
 16 26  1  0  0  0  0
 16 27  1  0  0  0  0
 16 32  1  6  0  0  0
 17 18  1  0  0  0  0
 17 42  1  0  0  0  0
 17 43  1  0  0  0  0
 18 19  1  0  0  0  0
 18 20  1  0  0  0  0
 18 44  1  0  0  0  0
 19 45  1  0  0  0  0
 19 46  1  0  0  0  0
 19 47  1  0  0  0  0
 20 48  1  0  0  0  0
 20 49  1  0  0  0  0
 20 50  1  0  0  0  0
 21 22  1  0  0  0  0
 21 51  1  0  0  0  0
 21 52  1  0  0  0  0
 22 23  1  0  0  0  0
 22 24  1  0  0  0  0
 22 53  1  0  0  0  0
 23 54  1  0  0  0  0
 23 55  1  0  0  0  0
 23 56  1  0  0  0  0
 24 57  1  0  0  0  0
 24 58  1  0  0  0  0
 24 59  1  0  0  0  0
 26 60  1  0  0  0  0
 27 28  1  0  0  0  0
 27 61  1  0  0  0  0
 27 62  1  0  0  0  0
 28 29  1  0  0  0  0
 29 63  1  0  0  0  0
 29 64  1  0  0  0  0
 29 65  1  0  0  0  0
M  END
>  <DRUGBANK_ID>
DB08526

>  <COMMON_NAME>
CARBOBENZYLOXY-(L)-LEUCINYL-(L)LEUCINYL METHOXYMETHYLKETONE

$$$$
