
 OpenBabel10282417072D

 22 21  0  0  0  0  0  0  0  0999 V2000
    0.6336   -0.7145    0.0000 C   0  0  0  0  0  0  0  0  0  0  0  0
    7.0638   -0.3020    0.0000 C   0  0  0  0  0  0  0  0  0  0  0  0
    1.3480   -0.3020    0.0000 C   0  0  0  0  0  0  0  0  0  0  0  0
    6.3493   -0.7145    0.0000 C   0  0  0  0  0  0  0  0  0  0  0  0
    2.7770   -0.3020    0.0000 C   0  0  0  0  0  0  0  0  0  0  0  0
    4.9204   -0.7145    0.0000 C   0  0  0  0  0  0  0  0  0  0  0  0
    2.0625   -0.7145    0.0000 O   0  0  0  0  0  0  0  0  0  0  0  0
    5.6349   -0.3020    0.0000 O   0  0  0  0  0  0  0  0  0  0  0  0
    2.7770    0.5230    0.0000 S   0  0  0  0  0  0  0  0  0  0  0  0
    4.9204   -1.5395    0.0000 S   0  0  0  0  0  0  0  0  0  0  0  0
    3.4914   -0.7145    0.0000 S   0  0  0  0  0  0  0  0  0  0  0  0
    4.2059   -0.3020    0.0000 S   0  0  0  0  0  0  0  0  0  0  0  0
   -0.2931   -0.1795    0.0000 H   0  0  0  0  0  0  0  0  0  0  0  0
    0.6336   -1.7845    0.0000 H   0  0  0  0  0  0  0  0  0  0  0  0
   -0.2930   -1.2495    0.0000 H   0  0  0  0  0  0  0  0  0  0  0  0
    7.9904   -0.8370    0.0000 H   0  0  0  0  0  0  0  0  0  0  0  0
    7.0638    0.7680    0.0000 H   0  0  0  0  0  0  0  0  0  0  0  0
    7.9905    0.2330    0.0000 H   0  0  0  0  0  0  0  0  0  0  0  0
    1.3480    0.7680    0.0000 H   0  0  0  0  0  0  0  0  0  0  0  0
    2.2746    0.2330    0.0000 H   0  0  0  0  0  0  0  0  0  0  0  0
    6.3493   -1.7845    0.0000 H   0  0  0  0  0  0  0  0  0  0  0  0
    5.4226   -1.2495    0.0000 H   0  0  0  0  0  0  0  0  0  0  0  0
  1 13  1  0  0  0  0
  1 14  1  0  0  0  0
  1 15  1  0  0  0  0
  2 16  1  0  0  0  0
  2 17  1  0  0  0  0
  2 18  1  0  0  0  0
  3  1  1  0  0  0  0
  3 19  1  0  0  0  0
  3 20  1  0  0  0  0
  4  2  1  0  0  0  0
  4 21  1  0  0  0  0
  4 22  1  0  0  0  0
  7  3  1  0  0  0  0
  7  5  1  0  0  0  0
  8  4  1  0  0  0  0
  8  6  1  0  0  0  0
  9  5  2  0  0  0  0
 10  6  2  0  0  0  0
 11  5  1  0  0  0  0
 12  6  1  0  0  0  0
 12 11  1  0  0  0  0
M  END
>  <DRUGBANK_ID>
DB13712

>  <COMMON_NAME>
Dixanthogen

>  <CAS_NUMBER>
502-55-6

>  <UNII>
RN4CQ46FDM

>  <SYNONYMS>
Dixanthogen

$$$$
