
 OpenBabel10282417072D

115124  0  0  0  0  0  0  0  0999 V2000
   -3.5914    2.7075    0.0000 C   0  0  0  0  0  0  0  0  0  0  0  0
   -3.5867    1.9106    0.0000 C   0  0  0  0  0  0  0  0  0  0  0  0
   -2.8925    1.5103    0.0000 N   0  0  0  0  0  0  0  0  0  0  0  0
   -4.9744    2.7064    0.0000 C   0  0  0  0  0  0  0  0  0  0  0  0
   -4.9753    1.9047    0.0000 C   0  0  0  0  0  0  0  0  0  0  0  0
   -4.2864    1.5060    0.0000 C   0  0  0  0  0  0  0  0  0  0  0  0
   -4.2876    3.1050    0.0000 C   0  0  0  0  0  0  0  0  0  0  0  0
   -2.2107    2.7156    0.0000 C   0  0  0  0  0  0  0  0  0  0  0  0
   -2.2103    1.9192    0.0000 C   0  0  0  0  0  0  0  0  0  0  0  0
   -1.5229    1.5262    0.0000 C   0  0  2  0  0  0  0  0  0  0  0  0
   -1.5296    3.1190    0.0000 C   0  0  0  0  0  0  0  0  0  0  0  0
   -0.8391    1.9238    0.0000 C   0  0  0  0  0  0  0  0  0  0  0  0
   -0.8374    2.7214    0.0000 C   0  0  0  0  0  0  0  0  0  0  0  0
   -0.2093    3.2224    0.0000 N   0  0  3  0  0  0  0  0  0  0  0  0
   -0.2102    1.4239    0.0000 C   0  0  2  0  0  0  0  0  0  0  0  0
    0.5700    3.0490    0.0000 C   0  0  0  0  0  0  0  0  0  0  0  0
    0.5707    1.6036    0.0000 C   0  0  0  0  0  0  0  0  0  0  0  0
    0.9143    2.3277    0.0000 C   0  0  2  0  0  0  0  0  0  0  0  0
    0.0687    2.3453    0.0000 C   0  0  0  0  0  0  0  0  0  0  0  0
    1.6253    2.7439    0.0000 O   0  0  0  0  0  0  0  0  0  0  0  0
    1.6253    1.9150    0.0000 C   0  0  0  0  0  0  0  0  0  0  0  0
    2.4512    1.9150    0.0000 C   0  0  0  0  0  0  0  0  0  0  0  0
    2.8349   -1.1262    0.0000 C   0  0  2  0  0  0  0  0  0  0  0  0
    2.2487   -1.7094    0.0000 C   0  0  0  0  0  0  0  0  0  0  0  0
    2.6223   -2.4474    0.0000 N   0  0  0  0  0  0  0  0  0  0  0  0
    3.4396   -2.3200    0.0000 C   0  0  0  0  0  0  0  0  0  0  0  0
    3.5708   -1.5035    0.0000 O   0  0  0  0  0  0  0  0  0  0  0  0
    2.1249    0.1101    0.0000 C   0  0  2  0  0  0  0  0  0  0  0  0
    2.1249   -0.7157    0.0000 C   0  0  1  0  0  0  0  0  0  0  0  0
    3.5509   -0.7157    0.0000 C   0  0  0  0  0  0  0  0  0  0  0  0
    3.5509    0.1101    0.0000 C   0  0  1  0  0  0  0  0  0  0  0  0
    2.8350    0.5259    0.0000 C   0  0  2  0  0  0  0  0  0  0  0  0
    1.4106    1.3562    0.0000 C   0  0  0  0  0  0  0  0  0  0  0  0
    1.4090    0.5303    0.0000 C   0  0  0  0  0  0  0  0  0  0  0  0
    0.6973    0.1144    0.0000 C   0  0  0  0  0  0  0  0  0  0  0  0
    0.6956   -0.7115    0.0000 C   0  0  0  0  0  0  0  0  0  0  0  0
    1.4106   -1.1287    0.0000 N   0  0  0  0  0  0  0  0  0  0  0  0
   -0.7321    0.1101    0.0000 C   0  0  0  0  0  0  0  0  0  0  0  0
   -0.7330   -0.7174    0.0000 C   0  0  0  0  0  0  0  0  0  0  0  0
   -0.0180   -1.1306    0.0000 C   0  0  0  0  0  0  0  0  0  0  0  0
   -0.0193    0.5232    0.0000 C   0  0  0  0  0  0  0  0  0  0  0  0
    2.8366    1.3533    0.0000 N   0  0  3  0  0  0  0  0  0  0  0  0
    4.2542    0.5201    0.0000 C   0  0  0  0  0  0  0  0  0  0  0  0
    4.2598    1.3437    0.0000 C   0  0  0  0  0  0  0  0  0  0  0  0
    3.5487    1.7626    0.0000 C   0  0  0  0  0  0  0  0  0  0  0  0
    4.1523   -2.7315    0.0000 O   0  0  0  0  0  0  0  0  0  0  0  0
    2.0354   -3.0290    0.0000 C   0  0  0  0  0  0  0  0  0  0  0  0
    1.2354   -2.8124    0.0000 C   0  0  0  0  0  0  0  0  0  0  0  0
    0.5192   -3.2224    0.0000 Cl  0  0  0  0  0  0  0  0  0  0  0  0
    1.4203   -1.7092    0.0000 O   0  0  0  0  0  0  0  0  0  0  0  0
    0.6925   -1.5388    0.0000 C   0  0  0  0  0  0  0  0  0  0  0  0
    1.4087   -0.3028    0.0000 H   0  0  0  0  0  0  0  0  0  0  0  0
   -1.4503   -1.1259    0.0000 O   0  0  0  0  0  0  0  0  0  0  0  0
   -2.2502   -0.9093    0.0000 C   0  0  0  0  0  0  0  0  0  0  0  0
    2.1163    0.9389    0.0000 H   0  0  0  0  0  0  0  0  0  0  0  0
    4.2619   -0.3028    0.0000 C   0  0  0  0  0  0  0  0  0  0  0  0
    4.9753    0.1130    0.0000 C   0  0  0  0  0  0  0  0  0  0  0  0
   -1.9411    0.8148    0.0000 C   0  0  0  0  0  0  0  0  0  0  0  0
   -2.7411    1.0314    0.0000 O   0  0  0  0  0  0  0  0  0  0  0  0
   -3.4574    0.6213    0.0000 C   0  0  0  0  0  0  0  0  0  0  0  0
   -1.5311    0.1014    0.0000 O   0  0  0  0  0  0  0  0  0  0  0  0
   -2.8842    0.5258    0.0000 H   0  0  0  0  0  0  0  0  0  0  0  0
   -5.8684    3.2219    0.0000 H   0  0  0  0  0  0  0  0  0  0  0  0
   -5.8696    1.3897    0.0000 H   0  0  0  0  0  0  0  0  0  0  0  0
   -4.2866    0.4740    0.0000 H   0  0  0  0  0  0  0  0  0  0  0  0
   -4.2912    4.1370    0.0000 H   0  0  0  0  0  0  0  0  0  0  0  0
   -1.5367    4.1890    0.0000 H   0  0  0  0  0  0  0  0  0  0  0  0
   -0.6053    3.6581    0.0000 H   0  0  0  0  0  0  0  0  0  0  0  0
   -0.7616    2.9910    0.0000 H   0  0  0  0  0  0  0  0  0  0  0  0
   -1.7466    2.4906    0.0000 H   0  0  0  0  0  0  0  0  0  0  0  0
   -0.7562    1.6545    0.0000 H   0  0  0  0  0  0  0  0  0  0  0  0
   -1.7424    2.1506    0.0000 H   0  0  0  0  0  0  0  0  0  0  0  0
   -0.5291    2.4453    0.0000 H   0  0  0  0  0  0  0  0  0  0  0  0
    1.2363    3.8862    0.0000 H   0  0  0  0  0  0  0  0  0  0  0  0
    1.6331    2.9279    0.0000 H   0  0  0  0  0  0  0  0  0  0  0  0
    1.2410    0.7696    0.0000 H   0  0  0  0  0  0  0  0  0  0  0  0
    1.6334    1.7285    0.0000 H   0  0  0  0  0  0  0  0  0  0  0  0
    1.1387    2.3523    0.0000 H   0  0  0  0  0  0  0  0  0  0  0  0
    0.7091    1.4881    0.0000 H   0  0  0  0  0  0  0  0  0  0  0  0
    2.4682    2.2639    0.0000 H   0  0  0  0  0  0  0  0  0  0  0  0
    1.3472    0.8818    0.0000 H   0  0  0  0  0  0  0  0  0  0  0  0
    2.2762    1.0657    0.0000 H   0  0  0  0  0  0  0  0  0  0  0  0
    2.9862    0.9884    0.0000 H   0  0  0  0  0  0  0  0  0  0  0  0
    2.9862    2.8416    0.0000 H   0  0  0  0  0  0  0  0  0  0  0  0
    3.5212    1.9150    0.0000 H   0  0  0  0  0  0  0  0  0  0  0  0
    4.4767   -1.2521    0.0000 H   0  0  0  0  0  0  0  0  0  0  0  0
    4.4780   -0.1814    0.0000 H   0  0  0  0  0  0  0  0  0  0  0  0
    0.6555    2.1143    0.0000 H   0  0  0  0  0  0  0  0  0  0  0  0
    1.8221    2.3439    0.0000 H   0  0  0  0  0  0  0  0  0  0  0  0
    0.4799   -0.0005    0.0000 H   0  0  0  0  0  0  0  0  0  0  0  0
    1.4027   -0.5397    0.0000 H   0  0  0  0  0  0  0  0  0  0  0  0
   -0.0144   -2.1626    0.0000 H   0  0  0  0  0  0  0  0  0  0  0  0
   -0.0228    1.5552    0.0000 H   0  0  0  0  0  0  0  0  0  0  0  0
    5.1473    0.0029    0.0000 H   0  0  0  0  0  0  0  0  0  0  0  0
    5.1575    1.8527    0.0000 H   0  0  0  0  0  0  0  0  0  0  0  0
    3.5544    2.8326    0.0000 H   0  0  0  0  0  0  0  0  0  0  0  0
    4.4791    2.2911    0.0000 H   0  0  0  0  0  0  0  0  0  0  0  0
    2.3086   -4.0635    0.0000 H   0  0  0  0  0  0  0  0  0  0  0  0
    1.2765   -3.7833    0.0000 H   0  0  0  0  0  0  0  0  0  0  0  0
    1.0991   -1.7511    0.0000 H   0  0  0  0  0  0  0  0  0  0  0  0
    0.2774   -2.3359    0.0000 H   0  0  0  0  0  0  0  0  0  0  0  0
   -0.2316   -0.9994    0.0000 H   0  0  0  0  0  0  0  0  0  0  0  0
    0.6875   -2.6088    0.0000 H   0  0  0  0  0  0  0  0  0  0  0  0
   -0.2367   -2.0694    0.0000 H   0  0  0  0  0  0  0  0  0  0  0  0
   -2.5244    0.1250    0.0000 H   0  0  0  0  0  0  0  0  0  0  0  0
   -3.0088   -1.6639    0.0000 H   0  0  0  0  0  0  0  0  0  0  0  0
   -3.2830   -0.6296    0.0000 H   0  0  0  0  0  0  0  0  0  0  0  0
    4.2627   -1.3728    0.0000 H   0  0  0  0  0  0  0  0  0  0  0  0
    5.1899   -0.8355    0.0000 H   0  0  0  0  0  0  0  0  0  0  0  0
    5.9041   -0.4182    0.0000 H   0  0  0  0  0  0  0  0  0  0  0  0
    4.9709    1.1830    0.0000 H   0  0  0  0  0  0  0  0  0  0  0  0
    5.8997    0.6518    0.0000 H   0  0  0  0  0  0  0  0  0  0  0  0
   -4.3821    1.1597    0.0000 H   0  0  0  0  0  0  0  0  0  0  0  0
   -3.4613   -0.4487    0.0000 H   0  0  0  0  0  0  0  0  0  0  0  0
   -4.3860    0.0897    0.0000 H   0  0  0  0  0  0  0  0  0  0  0  0
  1  7  2  0  0  0  0
  1  2  1  0  0  0  0
  2  3  1  0  0  0  0
  3  9  1  0  0  0  0
  3 62  1  0  0  0  0
  4  5  2  0  0  0  0
  4 63  1  0  0  0  0
  5  6  1  0  0  0  0
  5 64  1  0  0  0  0
  6  2  2  0  0  0  0
  6 65  1  0  0  0  0
  7  4  1  0  0  0  0
  7 66  1  0  0  0  0
  8  9  2  0  0  0  0
  8  1  1  0  0  0  0
  8 11  1  0  0  0  0
  9 10  1  0  0  0  0
 10 12  1  0  0  0  0
 10 38  1  0  0  0  0
 10 58  1  1  0  0  0
 11 67  1  0  0  0  0
 11 68  1  0  0  0  0
 12 15  1  0  0  0  0
 12 69  1  0  0  0  0
 12 70  1  0  0  0  0
 13 14  1  0  0  0  0
 13 11  1  0  0  0  0
 13 71  1  0  0  0  0
 13 72  1  0  0  0  0
 14 16  1  0  0  0  0
 14 19  1  0  0  0  0
 15 17  1  0  0  0  0
 15 19  1  0  0  0  0
 15 73  1  6  0  0  0
 16 18  1  0  0  0  0
 16 74  1  0  0  0  0
 16 75  1  0  0  0  0
 17 18  1  0  0  0  0
 17 76  1  0  0  0  0
 17 77  1  0  0  0  0
 18 20  1  1  0  0  0
 18 21  1  0  0  0  0
 19 78  1  0  0  0  0
 19 79  1  0  0  0  0
 20 80  1  0  0  0  0
 21 22  1  0  0  0  0
 21 81  1  0  0  0  0
 21 82  1  0  0  0  0
 22 83  1  0  0  0  0
 22 84  1  0  0  0  0
 22 85  1  0  0  0  0
 23 30  1  0  0  0  0
 23 24  1  6  0  0  0
 23 27  1  0  0  0  0
 24 50  2  0  0  0  0
 24 25  1  0  0  0  0
 25 47  1  0  0  0  0
 25 26  1  0  0  0  0
 26 46  2  0  0  0  0
 26 27  1  0  0  0  0
 28 32  1  0  0  0  0
 28 35  1  6  0  0  0
 28 29  1  0  0  0  0
 29 23  1  0  0  0  0
 29 52  1  1  0  0  0
 30 31  1  0  0  0  0
 30 86  1  0  0  0  0
 30 87  1  0  0  0  0
 31 32  1  0  0  0  0
 31 43  1  0  0  0  0
 31 56  1  6  0  0  0
 32 55  1  6  0  0  0
 33 34  1  0  0  0  0
 33 88  1  0  0  0  0
 33 89  1  0  0  0  0
 34 28  1  0  0  0  0
 34 90  1  0  0  0  0
 34 91  1  0  0  0  0
 35 36  1  0  0  0  0
 35 41  2  0  0  0  0
 36 37  1  0  0  0  0
 37 29  1  0  0  0  0
 37 51  1  0  0  0  0
 38 39  2  0  0  0  0
 39 40  1  0  0  0  0
 39 53  1  0  0  0  0
 40 36  2  0  0  0  0
 40 92  1  0  0  0  0
 41 38  1  0  0  0  0
 41 93  1  0  0  0  0
 42 33  1  0  0  0  0
 42 32  1  0  0  0  0
 42 45  1  0  0  0  0
 43 44  2  0  0  0  0
 43 94  1  0  0  0  0
 44 45  1  0  0  0  0
 44 95  1  0  0  0  0
 45 96  1  0  0  0  0
 45 97  1  0  0  0  0
 47 48  1  0  0  0  0
 47 98  1  0  0  0  0
 47 99  1  0  0  0  0
 48 49  1  0  0  0  0
 48100  1  0  0  0  0
 48101  1  0  0  0  0
 51102  1  0  0  0  0
 51103  1  0  0  0  0
 51104  1  0  0  0  0
 53 54  1  0  0  0  0
 54105  1  0  0  0  0
 54106  1  0  0  0  0
 54107  1  0  0  0  0
 56 57  1  0  0  0  0
 56108  1  0  0  0  0
 56109  1  0  0  0  0
 57110  1  0  0  0  0
 57111  1  0  0  0  0
 57112  1  0  0  0  0
 58 59  1  0  0  0  0
 58 61  2  0  0  0  0
 59 60  1  0  0  0  0
 60113  1  0  0  0  0
 60114  1  0  0  0  0
 60115  1  0  0  0  0
M  END
>  <DRUGBANK_ID>
DB02868

>  <SECONDARY_ACCESSION_NUMBERS>
EXPT01963

>  <COMMON_NAME>
Deacetoxyvinzolidine

>  <CAS_NUMBER>
165659-77-8

>  <UNII>
6PBV11IO5E

$$$$
