
 OpenBabel10282417072D

 81 80  0  0  0  0  0  0  0  0999 V2000
   -4.6990   -1.1001    0.0000 C   0  0  2  0  0  0  0  0  0  0  0  0
   -3.9850   -1.5093    0.0000 C   0  0  0  0  0  0  0  0  0  0  0  0
   -5.9765   -0.6951    0.0000 C   0  0  0  0  0  0  0  0  0  0  0  0
   -4.7073   -0.2735    0.0000 C   0  0  2  0  0  0  0  0  0  0  0  0
   -5.4880   -1.3631    0.0000 C   0  0  1  0  0  0  0  0  0  0  0  0
   -5.4963   -0.0230    0.0000 C   0  0  1  0  0  0  0  0  0  0  0  0
   -3.2711   -1.0959    0.0000 C   0  0  0  0  0  0  0  0  0  0  0  0
   -0.4279    1.3965    0.0000 C   0  0  0  0  0  0  0  0  0  0  0  0
   -2.5572   -1.5093    0.0000 C   0  0  1  0  0  0  0  0  0  0  0  0
   -0.4279    2.2231    0.0000 O   0  0  0  0  0  0  0  0  0  0  0  0
   -3.9975    0.9707    0.0000 C   0  0  0  0  0  0  0  0  0  0  0  0
   -3.2836    1.3922    0.0000 C   0  0  0  0  0  0  0  0  0  0  0  0
   -5.9013   -2.0728    0.0000 O   0  0  0  0  0  0  0  0  0  0  0  0
   -5.9139    0.6951    0.0000 O   0  0  0  0  0  0  0  0  0  0  0  0
    0.2859    0.9831    0.0000 O   0  0  0  0  0  0  0  0  0  0  0  0
   -3.9933    0.1440    0.0000 C   0  0  0  0  0  0  0  0  0  0  0  0
   -2.1522   -2.2231    0.0000 O   0  0  0  0  0  0  0  0  0  0  0  0
   -1.1419    0.9831    0.0000 C   0  0  0  0  0  0  0  0  0  0  0  0
   -1.8432   -1.0876    0.0000 C   0  0  0  0  0  0  0  0  0  0  0  0
   -2.5696    0.9789    0.0000 C   0  0  0  0  0  0  0  0  0  0  0  0
   -2.9788   -2.2231    0.0000 C   0  0  0  0  0  0  0  0  0  0  0  0
   -1.8558    1.3965    0.0000 C   0  0  0  0  0  0  0  0  0  0  0  0
   -1.1293   -1.5009    0.0000 C   0  0  0  0  0  0  0  0  0  0  0  0
    0.2984   -1.4967    0.0000 C   0  0  0  0  0  0  0  0  0  0  0  0
   -0.4153   -1.0834    0.0000 C   0  0  0  0  0  0  0  0  0  0  0  0
    1.0123   -1.0834    0.0000 C   0  0  0  0  0  0  0  0  0  0  0  0
    4.5486    0.2776    0.0000 C   0  0  0  0  0  0  0  0  0  0  0  0
    4.9620   -0.4363    0.0000 N   0  0  0  0  0  0  0  0  0  0  0  0
    5.2625    0.6909    0.0000 C   0  0  0  0  0  0  0  0  0  0  0  0
    4.1353   -0.4363    0.0000 C   0  0  0  0  0  0  0  0  0  0  0  0
    3.8348    0.6909    0.0000 C   0  0  0  0  0  0  0  0  0  0  0  0
    3.1208    0.2776    0.0000 O   0  0  0  0  0  0  0  0  0  0  0  0
    5.9765    0.2818    0.0000 O   0  0  0  0  0  0  0  0  0  0  0  0
    3.3086   -0.4321    0.0000 O   0  0  0  0  0  0  0  0  0  0  0  0
   -3.7759   -0.5590    0.0000 H   0  0  0  0  0  0  0  0  0  0  0  0
   -3.9827   -2.5413    0.0000 H   0  0  0  0  0  0  0  0  0  0  0  0
   -7.0465   -0.7010    0.0000 H   0  0  0  0  0  0  0  0  0  0  0  0
   -6.4582   -1.6506    0.0000 H   0  0  0  0  0  0  0  0  0  0  0  0
   -4.8257    0.7899    0.0000 H   0  0  0  0  0  0  0  0  0  0  0  0
   -6.5566   -1.4188    0.0000 H   0  0  0  0  0  0  0  0  0  0  0  0
   -4.8270    0.8119    0.0000 H   0  0  0  0  0  0  0  0  0  0  0  0
   -3.2711   -0.0639    0.0000 H   0  0  0  0  0  0  0  0  0  0  0  0
   -4.8950    1.4801    0.0000 H   0  0  0  0  0  0  0  0  0  0  0  0
   -3.2880    2.4242    0.0000 H   0  0  0  0  0  0  0  0  0  0  0  0
   -6.8713   -2.0692    0.0000 H   0  0  0  0  0  0  0  0  0  0  0  0
   -5.4315    1.5367    0.0000 H   0  0  0  0  0  0  0  0  0  0  0  0
    0.2846    0.0461    0.0000 H   0  0  0  0  0  0  0  0  0  0  0  0
   -3.0638   -0.3861    0.0000 H   0  0  0  0  0  0  0  0  0  0  0  0
   -3.9875   -0.9260    0.0000 H   0  0  0  0  0  0  0  0  0  0  0  0
   -2.6435   -3.0595    0.0000 H   0  0  0  0  0  0  0  0  0  0  0  0
   -1.1419   -0.0869    0.0000 H   0  0  0  0  0  0  0  0  0  0  0  0
   -2.0689    0.4487    0.0000 H   0  0  0  0  0  0  0  0  0  0  0  0
   -1.8479   -0.0176    0.0000 H   0  0  0  0  0  0  0  0  0  0  0  0
   -0.9174   -0.5511    0.0000 H   0  0  0  0  0  0  0  0  0  0  0  0
   -2.5671   -0.0911    0.0000 H   0  0  0  0  0  0  0  0  0  0  0  0
   -1.6408    0.4476    0.0000 H   0  0  0  0  0  0  0  0  0  0  0  0
   -4.0487   -2.2125    0.0000 H   0  0  0  0  0  0  0  0  0  0  0  0
   -2.4530   -3.1550    0.0000 H   0  0  0  0  0  0  0  0  0  0  0  0
   -3.5230   -3.1444    0.0000 H   0  0  0  0  0  0  0  0  0  0  0  0
   -1.8582    2.4665    0.0000 H   0  0  0  0  0  0  0  0  0  0  0  0
   -2.7846    1.9278    0.0000 H   0  0  0  0  0  0  0  0  0  0  0  0
   -1.1270   -2.5709    0.0000 H   0  0  0  0  0  0  0  0  0  0  0  0
   -0.2006   -2.0323    0.0000 H   0  0  0  0  0  0  0  0  0  0  0  0
    0.2983   -2.5667    0.0000 H   0  0  0  0  0  0  0  0  0  0  0  0
    1.2253   -2.0312    0.0000 H   0  0  0  0  0  0  0  0  0  0  0  0
   -0.4176   -0.0134    0.0000 H   0  0  0  0  0  0  0  0  0  0  0  0
   -1.3440   -0.5519    0.0000 H   0  0  0  0  0  0  0  0  0  0  0  0
    1.9396   -1.6173    0.0000 H   0  0  0  0  0  0  0  0  0  0  0  0
    1.0110   -0.0134    0.0000 H   0  0  0  0  0  0  0  0  0  0  0  0
    1.9383   -0.5473    0.0000 H   0  0  0  0  0  0  0  0  0  0  0  0
    4.4531   -1.3203    0.0000 H   0  0  0  0  0  0  0  0  0  0  0  0
    5.9820   -0.4350    0.0000 H   0  0  0  0  0  0  0  0  0  0  0  0
    5.2601    1.7609    0.0000 H   0  0  0  0  0  0  0  0  0  0  0  0
    6.1877    1.2285    0.0000 H   0  0  0  0  0  0  0  0  0  0  0  0
    4.6674   -1.3646    0.0000 H   0  0  0  0  0  0  0  0  0  0  0  0
    3.5965   -1.3607    0.0000 H   0  0  0  0  0  0  0  0  0  0  0  0
    3.8349    1.7609    0.0000 H   0  0  0  0  0  0  0  0  0  0  0  0
    2.9079    1.2254    0.0000 H   0  0  0  0  0  0  0  0  0  0  0  0
    2.2802    0.7617    0.0000 H   0  0  0  0  0  0  0  0  0  0  0  0
    5.9797   -0.6882    0.0000 H   0  0  0  0  0  0  0  0  0  0  0  0
    2.8279    0.4104    0.0000 H   0  0  0  0  0  0  0  0  0  0  0  0
  1  2  1  0  0  0  0
  1 35  1  6  0  0  0
  2 36  1  0  0  0  0
  3  5  1  0  0  0  0
  3 37  1  0  0  0  0
  3 38  1  0  0  0  0
  4 16  1  0  0  0  0
  4  1  1  0  0  0  0
  4 39  1  1  0  0  0
  5 13  1  0  0  0  0
  5  1  1  0  0  0  0
  5 40  1  1  0  0  0
  6  4  1  0  0  0  0
  6 14  1  0  0  0  0
  6  3  1  0  0  0  0
  6 41  1  1  0  0  0
  7  2  2  0  0  0  0
  7 42  1  0  0  0  0
  8 18  1  0  0  0  0
  9  7  1  6  0  0  0
  9 17  1  0  0  0  0
  9 21  1  0  0  0  0
 10  8  2  0  0  0  0
 11 16  1  0  0  0  0
 11 43  1  0  0  0  0
 12 11  2  0  0  0  0
 12 44  1  0  0  0  0
 13 45  1  0  0  0  0
 14 46  1  0  0  0  0
 15  8  1  0  0  0  0
 15 47  1  0  0  0  0
 16 48  1  0  0  0  0
 16 49  1  0  0  0  0
 17 50  1  0  0  0  0
 18 22  1  0  0  0  0
 18 51  1  0  0  0  0
 18 52  1  0  0  0  0
 19  9  1  0  0  0  0
 19 53  1  0  0  0  0
 19 54  1  0  0  0  0
 20 12  1  0  0  0  0
 20 55  1  0  0  0  0
 20 56  1  0  0  0  0
 21 57  1  0  0  0  0
 21 58  1  0  0  0  0
 21 59  1  0  0  0  0
 22 20  1  0  0  0  0
 22 60  1  0  0  0  0
 22 61  1  0  0  0  0
 23 19  1  0  0  0  0
 23 62  1  0  0  0  0
 23 63  1  0  0  0  0
 24 25  1  0  0  0  0
 24 64  1  0  0  0  0
 24 65  1  0  0  0  0
 25 23  1  0  0  0  0
 25 66  1  0  0  0  0
 25 67  1  0  0  0  0
 26 24  1  0  0  0  0
 26 68  1  0  0  0  0
 26 69  1  0  0  0  0
 26 70  1  0  0  0  0
 28 27  1  0  0  0  0
 28 71  1  0  0  0  0
 28 72  1  0  0  0  0
 29 27  1  0  0  0  0
 29 73  1  0  0  0  0
 29 74  1  0  0  0  0
 30 27  1  0  0  0  0
 30 75  1  0  0  0  0
 30 76  1  0  0  0  0
 31 27  1  0  0  0  0
 31 77  1  0  0  0  0
 31 78  1  0  0  0  0
 32 31  1  0  0  0  0
 32 79  1  0  0  0  0
 33 29  1  0  0  0  0
 33 80  1  0  0  0  0
 34 30  1  0  0  0  0
 34 81  1  0  0  0  0
M  END
>  <DRUGBANK_ID>
DB00429

>  <SECONDARY_ACCESSION_NUMBERS>
APRD00847

>  <COMMON_NAME>
Carboprost tromethamine

>  <CAS_NUMBER>
58551-69-2

>  <UNII>
U4526F86FJ

>  <SYNONYMS>
(15S)-15-methyl-PGF2α tromethamine salt; (15S)-15-methylprostaglandin F2α tromethamine; 1,3-dihydroxy-2-(hydroxymethyl)propan-2-aminium (5Z,9α,11β,13E,15S)-9,11,15-trihydroxy-15-methylprosta-5,13-dien-1-oate; 15(S)-15-methyl-PGF2α tromethamine salt; 15(S)-15-methylprostaglandin F2α tromethamine; Carboprost trometamol; Carboprost tromethamine

$$$$
