
 OpenBabel10282417072D

118124  0  0  0  0  0  0  0  0999 V2000
    2.8763    1.3049    0.0000 C   0  0  1  0  0  0  0  0  0  0  0  0
    3.5938    0.8895    0.0000 C   0  0  0  0  0  0  0  0  0  0  0  0
    4.3031    1.3034    0.0000 C   0  0  0  0  0  0  0  0  0  0  0  0
    4.3049    2.1300    0.0000 C   0  0  1  0  0  0  0  0  0  0  0  0
    3.5873    2.5372    0.0000 C   0  0  2  0  0  0  0  0  0  0  0  0
    2.8720    2.1299    0.0000 O   0  0  0  0  0  0  0  0  0  0  0  0
   -1.4246    1.3386    0.0000 C   0  0  1  0  0  0  0  0  0  0  0  0
   -1.4288    0.5119    0.0000 C   0  0  2  0  0  0  0  0  0  0  0  0
   -0.7100    1.7503    0.0000 C   0  0  0  0  0  0  0  0  0  0  0  0
   -4.2864    0.5119    0.0000 C   0  0  1  0  0  0  0  0  0  0  0  0
   -3.5688    0.0963    0.0000 C   0  0  1  0  0  0  0  0  0  0  0  0
   -2.8554    0.5104    0.0000 O   0  0  0  0  0  0  0  0  0  0  0  0
   -2.8535    1.3371    0.0000 C   0  0  2  0  0  0  0  0  0  0  0  0
   -3.5753    1.7399    0.0000 C   0  0  0  0  0  0  0  0  0  0  0  0
   -4.2905    1.3370    0.0000 C   0  0  2  0  0  0  0  0  0  0  0  0
   -4.9996    0.0922    0.0000 O   0  0  0  0  0  0  0  0  0  0  0  0
   -2.1421    1.7455    0.0000 O   0  0  0  0  0  0  0  0  0  0  0  0
   -3.5730   -0.7260    0.0000 C   0  0  0  0  0  0  0  0  0  0  0  0
   -2.1421    0.9232    0.0000 H   0  0  0  0  0  0  0  0  0  0  0  0
   -5.0081    1.7455    0.0000 O   0  0  0  0  0  0  0  0  0  0  0  0
   -5.0122    2.5722    0.0000 C   0  0  0  0  0  0  0  0  0  0  0  0
    0.0044    1.3354    0.0000 C   0  0  0  0  0  0  0  0  0  0  0  0
    0.7214    1.7373    0.0000 C   0  0  0  0  0  0  0  0  0  0  0  0
    1.4357    1.3237    0.0000 C   0  0  1  0  0  0  0  0  0  0  0  0
    2.8695    0.4787    0.0000 C   0  0  0  0  0  0  0  0  0  0  0  0
    2.1575    1.7257    0.0000 O   0  0  0  0  0  0  0  0  0  0  0  0
   -0.7197    0.0935    0.0000 C   0  0  0  0  0  0  0  0  0  0  0  0
   -0.7270   -0.7259    0.0000 C   0  0  0  0  0  0  0  0  0  0  0  0
    2.1229   -0.7545    0.0000 O   0  0  0  0  0  0  0  0  0  0  0  0
    2.1365    0.0692    0.0000 C   0  0  1  0  0  0  0  0  0  0  0  0
    1.4039   -1.1519    0.0000 C   0  0  0  0  0  0  0  0  0  0  0  0
   -0.0090   -1.1298    0.0000 C   0  0  0  0  0  0  0  0  0  0  0  0
    1.3985   -1.9610    0.0000 C   0  0  2  0  0  0  0  0  0  0  0  0
    1.3679   -3.5838    0.0000 C   0  0  0  0  0  0  0  0  0  0  0  0
    2.0813   -3.1972    0.0000 C   0  0  0  0  0  0  0  0  0  0  0  0
    2.0974   -2.3850    0.0000 C   0  0  0  0  0  0  0  0  0  0  0  0
   -0.7150   -2.3351    0.0000 C   0  0  0  0  0  0  0  0  0  0  0  0
   -0.7253   -3.1415    0.0000 O   0  0  0  0  0  0  0  0  0  0  0  0
    0.6666   -3.1664    0.0000 C   0  0  1  0  0  0  0  0  0  0  0  0
    0.6810   -2.3600    0.0000 C   0  0  1  0  0  0  0  0  0  0  0  0
   -0.0139   -1.9337    0.0000 C   0  0  0  0  0  0  0  0  0  0  0  0
    1.3573   -4.4143    0.0000 N   0  0  0  0  0  0  0  0  0  0  0  0
    1.3909   -2.7903    0.0000 H   0  0  0  0  0  0  0  0  0  0  0  0
    4.3031    2.9582    0.0000 H   0  0  0  0  0  0  0  0  0  0  0  0
    5.0122    2.5386    0.0000 C   0  0  0  0  0  0  0  0  0  0  0  0
    3.5855    3.3652    0.0000 C   0  0  0  0  0  0  0  0  0  0  0  0
    0.6859   -0.7343    0.0000 O   0  0  0  0  0  0  0  0  0  0  0  0
    1.4119    0.4909    0.0000 C   0  0  0  0  0  0  0  0  0  0  0  0
    0.6776   -1.5315    0.0000 O   0  0  0  0  0  0  0  0  0  0  0  0
    1.4329    2.1483    0.0000 H   0  0  0  0  0  0  0  0  0  0  0  0
    2.1294    0.8978    0.0000 H   0  0  0  0  0  0  0  0  0  0  0  0
    2.7965   -3.6002    0.0000 C   0  0  0  0  0  0  0  0  0  0  0  0
   -0.7197    2.5763    0.0000 C   0  0  0  0  0  0  0  0  0  0  0  0
   -2.0205   -0.1176    0.0000 C   0  0  0  0  0  0  0  0  0  0  0  0
    0.4552   -3.9653    0.0000 H   0  0  0  0  0  0  0  0  0  0  0  0
    4.3055    3.7895    0.0000 C   0  0  0  0  0  0  0  0  0  0  0  0
    4.3015    4.6141    0.0000 C   0  0  0  0  0  0  0  0  0  0  0  0
    3.5828    5.0228    0.0000 C   0  0  0  0  0  0  0  0  0  0  0  0
    2.8624    4.6088    0.0000 C   0  0  0  0  0  0  0  0  0  0  0  0
    2.8606    3.7781    0.0000 C   0  0  0  0  0  0  0  0  0  0  0  0
    0.7362   -5.0228    0.0000 O   0  0  0  0  0  0  0  0  0  0  0  0
    3.5956   -0.1805    0.0000 H   0  0  0  0  0  0  0  0  0  0  0  0
    2.6673    0.3543    0.0000 H   0  0  0  0  0  0  0  0  0  0  0  0
    5.2304    0.7695    0.0000 H   0  0  0  0  0  0  0  0  0  0  0  0
    5.2300    1.8380    0.0000 H   0  0  0  0  0  0  0  0  0  0  0  0
    5.2310    1.5941    0.0000 H   0  0  0  0  0  0  0  0  0  0  0  0
   -2.3505    0.8024    0.0000 H   0  0  0  0  0  0  0  0  0  0  0  0
   -1.2778   -0.5474    0.0000 H   0  0  0  0  0  0  0  0  0  0  0  0
   -4.2827   -0.5581    0.0000 H   0  0  0  0  0  0  0  0  0  0  0  0
   -4.4972   -0.4357    0.0000 H   0  0  0  0  0  0  0  0  0  0  0  0
   -3.5775    2.8099    0.0000 H   0  0  0  0  0  0  0  0  0  0  0  0
   -4.4996    2.2789    0.0000 H   0  0  0  0  0  0  0  0  0  0  0  0
   -5.2142    0.7969    0.0000 H   0  0  0  0  0  0  0  0  0  0  0  0
   -5.8436    0.5702    0.0000 H   0  0  0  0  0  0  0  0  0  0  0  0
   -4.5024   -1.2563    0.0000 H   0  0  0  0  0  0  0  0  0  0  0  0
   -2.6491   -1.2657    0.0000 H   0  0  0  0  0  0  0  0  0  0  0  0
   -3.5785   -1.7960    0.0000 H   0  0  0  0  0  0  0  0  0  0  0  0
   -4.0882    3.1118    0.0000 H   0  0  0  0  0  0  0  0  0  0  0  0
   -5.9415    3.1026    0.0000 H   0  0  0  0  0  0  0  0  0  0  0  0
   -5.0175    3.6422    0.0000 H   0  0  0  0  0  0  0  0  0  0  0  0
   -0.0035    0.3034    0.0000 H   0  0  0  0  0  0  0  0  0  0  0  0
    0.7289    2.8073    0.0000 H   0  0  0  0  0  0  0  0  0  0  0  0
    1.6502    2.2685    0.0000 H   0  0  0  0  0  0  0  0  0  0  0  0
    3.7901   -0.0666    0.0000 H   0  0  0  0  0  0  0  0  0  0  0  0
    2.8560   -0.5912    0.0000 H   0  0  0  0  0  0  0  0  0  0  0  0
    0.1787    0.6013    0.0000 H   0  0  0  0  0  0  0  0  0  0  0  0
   -1.6202   -1.2429    0.0000 H   0  0  0  0  0  0  0  0  0  0  0  0
    0.8834   -0.6115    0.0000 H   0  0  0  0  0  0  0  0  0  0  0  0
    3.0017   -1.8877    0.0000 H   0  0  0  0  0  0  0  0  0  0  0  0
   -1.6372   -1.7925    0.0000 H   0  0  0  0  0  0  0  0  0  0  0  0
   -0.7087   -1.2651    0.0000 H   0  0  0  0  0  0  0  0  0  0  0  0
    5.9390    2.0038    0.0000 H   0  0  0  0  0  0  0  0  0  0  0  0
    5.0119    3.6086    0.0000 H   0  0  0  0  0  0  0  0  0  0  0  0
    5.9387    3.0738    0.0000 H   0  0  0  0  0  0  0  0  0  0  0  0
    3.5776    4.4352    0.0000 H   0  0  0  0  0  0  0  0  0  0  0  0
    0.4768   -0.0292    0.0000 H   0  0  0  0  0  0  0  0  0  0  0  0
    0.4974    1.0464    0.0000 H   0  0  0  0  0  0  0  0  0  0  0  0
    1.5156   -1.0431    0.0000 H   0  0  0  0  0  0  0  0  0  0  0  0
    2.8077   -4.6701    0.0000 H   0  0  0  0  0  0  0  0  0  0  0  0
    3.7175   -3.0555    0.0000 H   0  0  0  0  0  0  0  0  0  0  0  0
    3.7287   -4.1255    0.0000 H   0  0  0  0  0  0  0  0  0  0  0  0
    0.2006    3.1221    0.0000 H   0  0  0  0  0  0  0  0  0  0  0  0
   -1.6526    3.1004    0.0000 H   0  0  0  0  0  0  0  0  0  0  0  0
   -0.7323    3.6462    0.0000 H   0  0  0  0  0  0  0  0  0  0  0  0
   -3.0621    0.1272    0.0000 H   0  0  0  0  0  0  0  0  0  0  0  0
   -1.7117   -1.1421    0.0000 H   0  0  0  0  0  0  0  0  0  0  0  0
   -2.7533   -0.8973    0.0000 H   0  0  0  0  0  0  0  0  0  0  0  0
    5.2358    3.2609    0.0000 H   0  0  0  0  0  0  0  0  0  0  0  0
    5.2290    4.3299    0.0000 H   0  0  0  0  0  0  0  0  0  0  0  0
    5.2251    5.1544    0.0000 H   0  0  0  0  0  0  0  0  0  0  0  0
    4.2950    5.6841    0.0000 H   0  0  0  0  0  0  0  0  0  0  0  0
    3.5804    6.0928    0.0000 H   0  0  0  0  0  0  0  0  0  0  0  0
    2.6561    5.5577    0.0000 H   0  0  0  0  0  0  0  0  0  0  0  0
    1.9369    5.1457    0.0000 H   0  0  0  0  0  0  0  0  0  0  0  0
    1.9346    4.0758    0.0000 H   0  0  0  0  0  0  0  0  0  0  0  0
    1.9349    3.2414    0.0000 H   0  0  0  0  0  0  0  0  0  0  0  0
    1.9340    4.3133    0.0000 H   0  0  0  0  0  0  0  0  0  0  0  0
   -0.1663   -4.7710    0.0000 H   0  0  0  0  0  0  0  0  0  0  0  0
  1 25  1  0  0  0  0
  1 26  1  1  0  0  0
  1  2  1  0  0  0  0
  1  6  1  0  0  0  0
  2  3  1  0  0  0  0
  2 62  1  0  0  0  0
  2 63  1  0  0  0  0
  3  4  1  0  0  0  0
  3 64  1  0  0  0  0
  3 65  1  0  0  0  0
  4  5  1  0  0  0  0
  4 45  1  0  0  0  0
  4 66  1  6  0  0  0
  5  6  1  0  0  0  0
  5 44  1  1  0  0  0
  5 46  1  0  0  0  0
  7  8  1  0  0  0  0
  7 17  1  0  0  0  0
  7  9  1  0  0  0  0
  7 67  1  1  0  0  0
  8 27  1  0  0  0  0
  8 54  1  0  0  0  0
  8 68  1  1  0  0  0
  9 53  1  0  0  0  0
 10 11  1  0  0  0  0
 10 16  1  0  0  0  0
 10 15  1  0  0  0  0
 10 69  1  1  0  0  0
 11 18  1  0  0  0  0
 11 12  1  0  0  0  0
 11 70  1  6  0  0  0
 12 13  1  0  0  0  0
 13 17  1  0  0  0  0
 13 19  1  1  0  0  0
 13 14  1  0  0  0  0
 14 15  1  0  0  0  0
 14 71  1  0  0  0  0
 14 72  1  0  0  0  0
 15 20  1  0  0  0  0
 15 73  1  6  0  0  0
 16 74  1  0  0  0  0
 18 75  1  0  0  0  0
 18 76  1  0  0  0  0
 18 77  1  0  0  0  0
 20 21  1  0  0  0  0
 21 78  1  0  0  0  0
 21 79  1  0  0  0  0
 21 80  1  0  0  0  0
 22  9  2  0  0  0  0
 22 23  1  0  0  0  0
 22 81  1  0  0  0  0
 23 82  1  0  0  0  0
 23 83  1  0  0  0  0
 24 50  1  6  0  0  0
 24 23  1  0  0  0  0
 24 26  1  0  0  0  0
 25 84  1  0  0  0  0
 25 85  1  0  0  0  0
 27 28  2  0  0  0  0
 27 86  1  0  0  0  0
 28 32  1  0  0  0  0
 28 87  1  0  0  0  0
 29 30  1  0  0  0  0
 30 48  1  0  0  0  0
 30 51  1  6  0  0  0
 30 25  1  0  0  0  0
 31 29  1  0  0  0  0
 31 33  1  0  0  0  0
 31 47  2  0  0  0  0
 32 41  2  0  0  0  0
 32 88  1  0  0  0  0
 33 40  1  0  0  0  0
 33 36  1  0  0  0  0
 33 43  1  1  0  0  0
 34 35  1  0  0  0  0
 34 42  2  0  0  0  0
 35 36  2  0  0  0  0
 35 52  1  0  0  0  0
 36 89  1  0  0  0  0
 37 38  1  0  0  0  0
 37 90  1  0  0  0  0
 37 91  1  0  0  0  0
 38 39  1  0  0  0  0
 39 34  1  0  0  0  0
 39 40  1  0  0  0  0
 39 55  1  6  0  0  0
 40 41  1  0  0  0  0
 40 49  1  6  0  0  0
 41 37  1  0  0  0  0
 42 61  1  0  0  0  0
 45 92  1  0  0  0  0
 45 93  1  0  0  0  0
 45 94  1  0  0  0  0
 46 56  1  0  0  0  0
 46 60  1  0  0  0  0
 46 95  1  0  0  0  0
 48 24  1  0  0  0  0
 48 96  1  0  0  0  0
 48 97  1  0  0  0  0
 49 98  1  0  0  0  0
 52 99  1  0  0  0  0
 52100  1  0  0  0  0
 52101  1  0  0  0  0
 53102  1  0  0  0  0
 53103  1  0  0  0  0
 53104  1  0  0  0  0
 54105  1  0  0  0  0
 54106  1  0  0  0  0
 54107  1  0  0  0  0
 56 57  1  0  0  0  0
 56108  1  0  0  0  0
 56109  1  0  0  0  0
 57 58  1  0  0  0  0
 57110  1  0  0  0  0
 57111  1  0  0  0  0
 58 59  1  0  0  0  0
 58112  1  0  0  0  0
 58113  1  0  0  0  0
 59 60  1  0  0  0  0
 59114  1  0  0  0  0
 59115  1  0  0  0  0
 60116  1  0  0  0  0
 60117  1  0  0  0  0
 61118  1  0  0  0  0
M  END
>  <DRUGBANK_ID>
DB11459

>  <COMMON_NAME>
Selamectin

>  <CAS_NUMBER>
220119-17-5

>  <UNII>
A2669OWX9N

>  <SYNONYMS>
Selamectin

$$$$
