
 OpenBabel10282417072D

 86 91  0  0  0  0  0  0  0  0999 V2000
   -7.1447    8.2500    0.0000 C   0  0  0  0  0  0  0  0  0  0  0  0
   -7.1447    7.4250    0.0000 O   0  0  0  0  0  0  0  0  0  0  0  0
   -6.4302    7.0125    0.0000 C   0  0  0  0  0  0  0  0  0  0  0  0
   -6.4302    6.1875    0.0000 C   0  0  0  0  0  0  0  0  0  0  0  0
   -5.7158    5.7750    0.0000 C   0  0  0  0  0  0  0  0  0  0  0  0
   -5.0013    6.1875    0.0000 C   0  0  0  0  0  0  0  0  0  0  0  0
   -5.0013    7.0125    0.0000 C   0  0  0  0  0  0  0  0  0  0  0  0
   -5.7158    7.4250    0.0000 C   0  0  0  0  0  0  0  0  0  0  0  0
   -5.7158    8.2500    0.0000 O   0  0  0  0  0  0  0  0  0  0  0  0
   -6.4302    8.6625    0.0000 C   0  0  0  0  0  0  0  0  0  0  0  0
   -4.2868    5.7750    0.0000 C   0  0  0  0  0  0  0  0  0  0  0  0
   -4.2868    4.9500    0.0000 N   0  0  0  0  0  0  0  0  0  0  0  0
   -5.0013    4.5375    0.0000 C   0  0  0  0  0  0  0  0  0  0  0  0
   -5.7158    4.9500    0.0000 C   0  0  0  0  0  0  0  0  0  0  0  0
   -3.5724    4.5375    0.0000 C   0  0  0  0  0  0  0  0  0  0  0  0
   -2.8579    4.9500    0.0000 C   0  0  0  0  0  0  0  0  0  0  0  0
   -2.1434    4.5375    0.0000 C   0  0  0  0  0  0  0  0  0  0  0  0
   -1.4289    4.9500    0.0000 C   0  0  0  0  0  0  0  0  0  0  0  0
   -0.7145    4.5375    0.0000 C   0  0  0  0  0  0  0  0  0  0  0  0
   -0.7145    3.7125    0.0000 C   0  0  0  0  0  0  0  0  0  0  0  0
   -1.4289    3.3000    0.0000 C   0  0  0  0  0  0  0  0  0  0  0  0
   -2.1434    3.7125    0.0000 C   0  0  0  0  0  0  0  0  0  0  0  0
    0.0000    3.3000    0.0000 N   0  0  0  0  0  0  0  0  0  0  0  0
    0.0000    2.4750    0.0000 C   0  0  0  0  0  0  0  0  0  0  0  0
   -0.7145    2.0625    0.0000 O   0  0  0  0  0  0  0  0  0  0  0  0
    0.7145    2.0625    0.0000 C   0  0  0  0  0  0  0  0  0  0  0  0
    1.4289    2.4750    0.0000 C   0  0  0  0  0  0  0  0  0  0  0  0
    2.1434    2.0625    0.0000 C   0  0  0  0  0  0  0  0  0  0  0  0
    2.1434    1.2375    0.0000 C   0  0  0  0  0  0  0  0  0  0  0  0
    1.4289    0.8250    0.0000 C   0  0  0  0  0  0  0  0  0  0  0  0
    0.7145    1.2375    0.0000 C   0  0  0  0  0  0  0  0  0  0  0  0
    0.0000    0.8250    0.0000 N   0  0  0  0  0  0  0  0  0  0  0  0
    0.0000    0.0000    0.0000 C   0  0  0  0  0  0  0  0  0  0  0  0
   -0.7145   -0.4125    0.0000 O   0  0  0  0  0  0  0  0  0  0  0  0
    0.7145   -0.4125    0.0000 C   0  0  0  0  0  0  0  0  0  0  0  0
    1.4289    0.0000    0.0000 C   0  0  0  0  0  0  0  0  0  0  0  0
    2.1434   -0.4125    0.0000 C   0  0  0  0  0  0  0  0  0  0  0  0
    2.8579    0.0000    0.0000 C   0  0  0  0  0  0  0  0  0  0  0  0
    3.5724   -0.4125    0.0000 C   0  0  0  0  0  0  0  0  0  0  0  0
    3.5724   -1.2375    0.0000 C   0  0  0  0  0  0  0  0  0  0  0  0
    2.8579   -1.6500    0.0000 C   0  0  0  0  0  0  0  0  0  0  0  0
    2.1434   -1.2375    0.0000 C   0  0  0  0  0  0  0  0  0  0  0  0
    1.4289   -1.6500    0.0000 N   0  0  0  0  0  0  0  0  0  0  0  0
    0.7145   -1.2375    0.0000 C   0  0  0  0  0  0  0  0  0  0  0  0
    2.8579    0.8250    0.0000 O   0  0  0  0  0  0  0  0  0  0  0  0
    3.5724    1.2375    0.0000 C   0  0  0  0  0  0  0  0  0  0  0  0
    2.8579    2.4750    0.0000 O   0  0  0  0  0  0  0  0  0  0  0  0
    3.5724    2.0625    0.0000 C   0  0  0  0  0  0  0  0  0  0  0  0
   -6.2181    8.7850    0.0000 H   0  0  0  0  0  0  0  0  0  0  0  0
   -8.0713    8.7850    0.0000 H   0  0  0  0  0  0  0  0  0  0  0  0
   -7.1447    9.3200    0.0000 H   0  0  0  0  0  0  0  0  0  0  0  0
   -7.3239    5.6715    0.0000 H   0  0  0  0  0  0  0  0  0  0  0  0
   -4.1076    7.5285    0.0000 H   0  0  0  0  0  0  0  0  0  0  0  0
   -6.4302    9.7325    0.0000 H   0  0  0  0  0  0  0  0  0  0  0  0
   -7.3569    8.1275    0.0000 H   0  0  0  0  0  0  0  0  0  0  0  0
   -7.3568    9.1975    0.0000 H   0  0  0  0  0  0  0  0  0  0  0  0
   -3.3602    6.3100    0.0000 H   0  0  0  0  0  0  0  0  0  0  0  0
   -3.3602    5.2400    0.0000 H   0  0  0  0  0  0  0  0  0  0  0  0
   -5.0013    3.4675    0.0000 H   0  0  0  0  0  0  0  0  0  0  0  0
   -5.9279    4.0025    0.0000 H   0  0  0  0  0  0  0  0  0  0  0  0
   -6.6424    4.4150    0.0000 H   0  0  0  0  0  0  0  0  0  0  0  0
   -6.6424    5.4850    0.0000 H   0  0  0  0  0  0  0  0  0  0  0  0
   -3.5724    3.4675    0.0000 H   0  0  0  0  0  0  0  0  0  0  0  0
   -2.6458    4.0025    0.0000 H   0  0  0  0  0  0  0  0  0  0  0  0
   -2.8579    6.0200    0.0000 H   0  0  0  0  0  0  0  0  0  0  0  0
   -1.9313    5.4850    0.0000 H   0  0  0  0  0  0  0  0  0  0  0  0
   -1.4289    5.9820    0.0000 H   0  0  0  0  0  0  0  0  0  0  0  0
    0.1792    5.0535    0.0000 H   0  0  0  0  0  0  0  0  0  0  0  0
   -1.4289    2.2680    0.0000 H   0  0  0  0  0  0  0  0  0  0  0  0
   -3.0371    3.1965    0.0000 H   0  0  0  0  0  0  0  0  0  0  0  0
    0.8526    3.7923    0.0000 H   0  0  0  0  0  0  0  0  0  0  0  0
    1.4289    3.5070    0.0000 H   0  0  0  0  0  0  0  0  0  0  0  0
    1.4289   -0.2070    0.0000 H   0  0  0  0  0  0  0  0  0  0  0  0
   -0.8526    1.3173    0.0000 H   0  0  0  0  0  0  0  0  0  0  0  0
    1.4289    1.0320    0.0000 H   0  0  0  0  0  0  0  0  0  0  0  0
    2.8579    1.0320    0.0000 H   0  0  0  0  0  0  0  0  0  0  0  0
    4.4661    0.1035    0.0000 H   0  0  0  0  0  0  0  0  0  0  0  0
    4.4661   -1.7535    0.0000 H   0  0  0  0  0  0  0  0  0  0  0  0
    2.8579   -2.6820    0.0000 H   0  0  0  0  0  0  0  0  0  0  0  0
   -0.1792   -1.7535    0.0000 H   0  0  0  0  0  0  0  0  0  0  0  0
    4.4990    0.7025    0.0000 H   0  0  0  0  0  0  0  0  0  0  0  0
    3.5724    2.3075    0.0000 H   0  0  0  0  0  0  0  0  0  0  0  0
    4.4991    1.7725    0.0000 H   0  0  0  0  0  0  0  0  0  0  0  0
    3.5724    0.9925    0.0000 H   0  0  0  0  0  0  0  0  0  0  0  0
    4.4990    2.5975    0.0000 H   0  0  0  0  0  0  0  0  0  0  0  0
    4.4991    1.5275    0.0000 H   0  0  0  0  0  0  0  0  0  0  0  0
  1  2  1  0  0  0  0
  1 49  1  0  0  0  0
  1 50  1  0  0  0  0
  1 51  1  0  0  0  0
  2  3  1  0  0  0  0
  3  4  2  0  0  0  0
  3  8  1  0  0  0  0
  4  5  1  0  0  0  0
  4 52  1  0  0  0  0
  5  6  2  0  0  0  0
  5 14  1  0  0  0  0
  6  7  1  0  0  0  0
  6 11  1  0  0  0  0
  7  8  2  0  0  0  0
  7 53  1  0  0  0  0
  8  9  1  0  0  0  0
  9 10  1  0  0  0  0
 10 54  1  0  0  0  0
 10 55  1  0  0  0  0
 10 56  1  0  0  0  0
 11 12  1  0  0  0  0
 11 57  1  0  0  0  0
 11 58  1  0  0  0  0
 12 13  1  0  0  0  0
 12 15  1  0  0  0  0
 13 14  1  0  0  0  0
 13 59  1  0  0  0  0
 13 60  1  0  0  0  0
 14 61  1  0  0  0  0
 14 62  1  0  0  0  0
 15 16  1  0  0  0  0
 15 63  1  0  0  0  0
 15 64  1  0  0  0  0
 16 17  1  0  0  0  0
 16 65  1  0  0  0  0
 16 66  1  0  0  0  0
 17 18  2  0  0  0  0
 17 22  1  0  0  0  0
 18 19  1  0  0  0  0
 18 67  1  0  0  0  0
 19 20  2  0  0  0  0
 19 68  1  0  0  0  0
 20 21  1  0  0  0  0
 20 23  1  0  0  0  0
 21 22  2  0  0  0  0
 21 69  1  0  0  0  0
 22 70  1  0  0  0  0
 23 24  1  0  0  0  0
 23 71  1  0  0  0  0
 24 25  2  0  0  0  0
 24 26  1  0  0  0  0
 26 27  2  0  0  0  0
 26 31  1  0  0  0  0
 27 28  1  0  0  0  0
 27 72  1  0  0  0  0
 28 29  2  0  0  0  0
 28 47  1  0  0  0  0
 29 30  1  0  0  0  0
 29 45  1  0  0  0  0
 30 31  2  0  0  0  0
 30 73  1  0  0  0  0
 31 32  1  0  0  0  0
 32 33  1  0  0  0  0
 32 74  1  0  0  0  0
 33 34  2  0  0  0  0
 33 35  1  0  0  0  0
 35 36  1  0  0  0  0
 35 44  2  0  0  0  0
 36 37  2  0  0  0  0
 36 75  1  0  0  0  0
 37 38  1  0  0  0  0
 37 42  1  0  0  0  0
 38 39  2  0  0  0  0
 38 76  1  0  0  0  0
 39 40  1  0  0  0  0
 39 77  1  0  0  0  0
 40 41  2  0  0  0  0
 40 78  1  0  0  0  0
 41 42  1  0  0  0  0
 41 79  1  0  0  0  0
 42 43  2  0  0  0  0
 43 44  1  0  0  0  0
 44 80  1  0  0  0  0
 45 46  1  0  0  0  0
 46 81  1  0  0  0  0
 46 82  1  0  0  0  0
 46 83  1  0  0  0  0
 47 48  1  0  0  0  0
 48 84  1  0  0  0  0
 48 85  1  0  0  0  0
 48 86  1  0  0  0  0
M  END
>  <DRUGBANK_ID>
DB06240

>  <COMMON_NAME>
Tariquidar

>  <CAS_NUMBER>
206873-63-4

>  <UNII>
J58862DTVD

>  <SYNONYMS>
Tariquidar

$$$$
