
 OpenBabel10282417072D

 15 14  0  0  0  0  0  0  0  0999 V2000
   -1.0717   -0.2062    0.0000 C   0  0  0  0  0  0  0  0  0  0  0  0
   -0.3572    0.2063    0.0000 C   0  0  0  0  0  0  0  0  0  0  0  0
    1.0717    0.2063    0.0000 C   0  0  0  0  0  0  0  0  0  0  0  0
    0.3572   -0.2061    0.0000 C   0  0  2  0  0  0  0  0  0  0  0  0
    1.7862   -0.2061    0.0000 O   0  0  0  0  0  0  0  0  0  0  0  0
   -1.7862    0.2062    0.0000 O   0  0  0  0  0  0  0  0  0  0  0  0
    1.0717    1.0312    0.0000 O   0  0  0  0  0  0  0  0  0  0  0  0
   -1.0717   -1.0312    0.0000 O   0  0  0  0  0  0  0  0  0  0  0  0
    0.3572   -1.0312    0.0000 O   0  0  0  0  0  0  0  0  0  0  0  0
   -0.3572    1.2763    0.0000 H   0  0  0  0  0  0  0  0  0  0  0  0
    0.5694    0.7413    0.0000 H   0  0  0  0  0  0  0  0  0  0  0  0
   -0.5694   -0.7411    0.0000 H   0  0  0  0  0  0  0  0  0  0  0  0
    1.7863   -1.1431    0.0000 H   0  0  0  0  0  0  0  0  0  0  0  0
   -1.7863    1.1432    0.0000 H   0  0  0  0  0  0  0  0  0  0  0  0
   -0.4828   -1.5162    0.0000 H   0  0  0  0  0  0  0  0  0  0  0  0
  1  2  1  0  0  0  0
  2 10  1  0  0  0  0
  2 11  1  0  0  0  0
  4  2  1  0  0  0  0
  4  3  1  0  0  0  0
  4  9  1  0  0  0  0
  4 12  1  1  0  0  0
  5  3  1  0  0  0  0
  5 13  1  0  0  0  0
  6  1  1  0  0  0  0
  6 14  1  0  0  0  0
  7  3  2  0  0  0  0
  8  1  2  0  0  0  0
  9 15  1  0  0  0  0
M  END
>  <DRUGBANK_ID>
DB03499

>  <SECONDARY_ACCESSION_NUMBERS>
EXPT02188

>  <COMMON_NAME>
D-Malic acid

>  <CAS_NUMBER>
636-61-3

>  <UNII>
P750Y95K96

>  <SYNONYMS>
(+)-D-malic acid; (R)-2-hydroxybutanedioic acid; (R)-malic acid

$$$$
