
 OpenBabel10282417072D

 23 23  0  0  0  0  0  0  0  0999 V2000
    0.0000   -0.6187    0.0000 C   0  0  0  0  0  0  0  0  0  0  0  0
   -0.7144   -0.2062    0.0000 C   0  0  0  0  0  0  0  0  0  0  0  0
    0.0000   -1.4437    0.0000 C   0  0  0  0  0  0  0  0  0  0  0  0
    0.7144   -0.2062    0.0000 C   0  0  0  0  0  0  0  0  0  0  0  0
   -1.4289   -0.6187    0.0000 C   0  0  0  0  0  0  0  0  0  0  0  0
   -0.7144    0.6187    0.0000 O   0  0  0  0  0  0  0  0  0  0  0  0
   -0.7144   -1.8562    0.0000 C   0  0  0  0  0  0  0  0  0  0  0  0
    1.4289   -0.6187    0.0000 N   0  0  0  0  0  0  0  0  0  0  0  0
    0.7144    0.6187    0.0000 O   0  0  0  0  0  0  0  0  0  0  0  0
   -1.4289   -1.4437    0.0000 C   0  0  0  0  0  0  0  0  0  0  0  0
   -1.4289    1.0312    0.0000 C   0  0  0  0  0  0  0  0  0  0  0  0
   -1.4289    1.8562    0.0000 C   0  0  0  0  0  0  0  0  0  0  0  0
    0.8937   -1.9597    0.0000 H   0  0  0  0  0  0  0  0  0  0  0  0
   -2.3226   -0.1027    0.0000 H   0  0  0  0  0  0  0  0  0  0  0  0
   -0.7144   -2.8882    0.0000 H   0  0  0  0  0  0  0  0  0  0  0  0
    1.4289   -1.6032    0.0000 H   0  0  0  0  0  0  0  0  0  0  0  0
    2.2815   -0.1264    0.0000 H   0  0  0  0  0  0  0  0  0  0  0  0
   -2.3226   -1.9597    0.0000 H   0  0  0  0  0  0  0  0  0  0  0  0
   -2.3555    0.4962    0.0000 H   0  0  0  0  0  0  0  0  0  0  0  0
   -2.3555    1.5662    0.0000 H   0  0  0  0  0  0  0  0  0  0  0  0
   -0.5023    2.3912    0.0000 H   0  0  0  0  0  0  0  0  0  0  0  0
   -2.3555    2.3912    0.0000 H   0  0  0  0  0  0  0  0  0  0  0  0
   -1.4289    2.9262    0.0000 H   0  0  0  0  0  0  0  0  0  0  0  0
  1  2  2  0  0  0  0
  1  3  1  0  0  0  0
  1  4  1  0  0  0  0
  2  5  1  0  0  0  0
  2  6  1  0  0  0  0
  3  7  2  0  0  0  0
  3 13  1  0  0  0  0
  4  8  1  0  0  0  0
  4  9  2  0  0  0  0
  5 10  2  0  0  0  0
  5 14  1  0  0  0  0
  6 11  1  0  0  0  0
  7 10  1  0  0  0  0
  7 15  1  0  0  0  0
  8 16  1  0  0  0  0
  8 17  1  0  0  0  0
 10 18  1  0  0  0  0
 11 12  1  0  0  0  0
 11 19  1  0  0  0  0
 11 20  1  0  0  0  0
 12 21  1  0  0  0  0
 12 22  1  0  0  0  0
 12 23  1  0  0  0  0
M  END
>  <DRUGBANK_ID>
DB13544

>  <COMMON_NAME>
Ethenzamide

>  <CAS_NUMBER>
938-73-8

>  <UNII>
L929ZCK4BF

>  <SYNONYMS>
Etenzamida; Etenzamide; Ethbenzamide; Ã©thenzamide; Ethenzamide; Ethenzamidum; o-Ethoxybenzamide

$$$$
