
 OpenBabel10282417072D

 35 35  0  0  0  0  0  0  0  0999 V2000
   -2.8579   -0.8803    0.0000 S   0  0  0  0  0  0  0  0  0  0  0  0
   -2.4453   -1.5948    0.0000 O   0  0  0  0  0  0  0  0  0  0  0  0
   -3.2704   -1.5948    0.0000 O   0  0  0  0  0  0  0  0  0  0  0  0
   -0.7144    0.3572    0.0000 C   0  0  0  0  0  0  0  0  0  0  0  0
   -0.7144   -0.4677    0.0000 C   0  0  0  0  0  0  0  0  0  0  0  0
   -1.4289   -0.8802    0.0000 C   0  0  0  0  0  0  0  0  0  0  0  0
   -2.1434   -0.4678    0.0000 C   0  0  0  0  0  0  0  0  0  0  0  0
   -2.1434    0.3571    0.0000 C   0  0  0  0  0  0  0  0  0  0  0  0
   -1.4289    0.7697    0.0000 C   0  0  0  0  0  0  0  0  0  0  0  0
    0.0000    0.7697    0.0000 C   0  0  2  0  0  0  0  0  0  0  0  0
    0.7144    0.3572    0.0000 C   0  0  2  0  0  0  0  0  0  0  0  0
    1.4288    0.7698    0.0000 N   0  0  0  0  0  0  0  0  0  0  0  0
    0.7145   -0.4678    0.0000 C   0  0  0  0  0  0  0  0  0  0  0  0
    1.4289   -0.8803    0.0000 F   0  0  0  0  0  0  0  0  0  0  0  0
    2.1434    0.3572    0.0000 C   0  0  0  0  0  0  0  0  0  0  0  0
    2.8579    0.7697    0.0000 C   0  0  0  0  0  0  0  0  0  0  0  0
    2.1434   -0.4677    0.0000 O   0  0  0  0  0  0  0  0  0  0  0  0
    3.5724    0.3572    0.0000 Cl  0  0  0  0  0  0  0  0  0  0  0  0
    2.8579    1.5948    0.0000 Cl  0  0  0  0  0  0  0  0  0  0  0  0
    0.0000    1.5948    0.0000 O   0  0  0  0  0  0  0  0  0  0  0  0
   -3.5724   -0.4678    0.0000 C   0  0  0  0  0  0  0  0  0  0  0  0
    0.1793   -0.9837    0.0000 H   0  0  0  0  0  0  0  0  0  0  0  0
   -1.4288   -1.9122    0.0000 H   0  0  0  0  0  0  0  0  0  0  0  0
   -3.0372    0.8731    0.0000 H   0  0  0  0  0  0  0  0  0  0  0  0
   -1.4290    1.8017    0.0000 H   0  0  0  0  0  0  0  0  0  0  0  0
   -0.9267    1.3047    0.0000 H   0  0  0  0  0  0  0  0  0  0  0  0
   -0.2122   -0.1778    0.0000 H   0  0  0  0  0  0  0  0  0  0  0  0
    1.4287    1.7543    0.0000 H   0  0  0  0  0  0  0  0  0  0  0  0
   -0.2121   -1.0028    0.0000 H   0  0  0  0  0  0  0  0  0  0  0  0
    0.7145   -1.5378    0.0000 H   0  0  0  0  0  0  0  0  0  0  0  0
    3.7845    1.3047    0.0000 H   0  0  0  0  0  0  0  0  0  0  0  0
    0.8400    2.0798    0.0000 H   0  0  0  0  0  0  0  0  0  0  0  0
   -3.5724    0.6022    0.0000 H   0  0  0  0  0  0  0  0  0  0  0  0
   -4.4990   -1.0028    0.0000 H   0  0  0  0  0  0  0  0  0  0  0  0
   -4.4991    0.0672    0.0000 H   0  0  0  0  0  0  0  0  0  0  0  0
  1 21  1  0  0  0  0
  2  1  2  0  0  0  0
  3  1  2  0  0  0  0
  4  5  1  0  0  0  0
  4 10  1  0  0  0  0
  5  6  2  0  0  0  0
  5 22  1  0  0  0  0
  6  7  1  0  0  0  0
  6 23  1  0  0  0  0
  7  8  2  0  0  0  0
  7  1  1  0  0  0  0
  8  9  1  0  0  0  0
  8 24  1  0  0  0  0
  9  4  2  0  0  0  0
  9 25  1  0  0  0  0
 10 11  1  0  0  0  0
 10 20  1  0  0  0  0
 10 26  1  6  0  0  0
 11 12  1  0  0  0  0
 11 13  1  0  0  0  0
 11 27  1  1  0  0  0
 12 15  1  0  0  0  0
 12 28  1  0  0  0  0
 13 14  1  0  0  0  0
 13 29  1  0  0  0  0
 13 30  1  0  0  0  0
 15 16  1  0  0  0  0
 15 17  2  0  0  0  0
 16 18  1  0  0  0  0
 16 19  1  0  0  0  0
 16 31  1  0  0  0  0
 20 32  1  0  0  0  0
 21 33  1  0  0  0  0
 21 34  1  0  0  0  0
 21 35  1  0  0  0  0
M  END
>  <DRUGBANK_ID>
DB11413

>  <COMMON_NAME>
Florfenicol

>  <CAS_NUMBER>
73231-34-2

>  <UNII>
9J97307Y1H

>  <SYNONYMS>
(-)-Florfenicol; D-threo-2,2-Dichloro-N-(alpha-(fluoromethyl)-beta-hydroxy-p-(methylsulfonyl)phenethyl)acetamide; Florfenicol

$$$$
