
 OpenBabel10282417072D

 14 14  0  0  0  0  0  0  0  0999 V2000
    0.4136    0.6319    0.0000 C   0  0  0  0  0  0  0  0  0  0  0  0
   -0.4117    0.6319    0.0000 C   0  0  0  0  0  0  0  0  0  0  0  0
    0.6671   -0.1434    0.0000 C   0  0  0  0  0  0  0  0  0  0  0  0
   -0.6671   -0.1526    0.0000 C   0  0  0  0  0  0  0  0  0  0  0  0
    0.0027   -0.6319    0.0000 N   0  0  0  0  0  0  0  0  0  0  0  0
    1.0417    1.4981    0.0000 H   0  0  0  0  0  0  0  0  0  0  0  0
    1.4707    0.4660    0.0000 H   0  0  0  0  0  0  0  0  0  0  0  0
   -1.0404    1.4977    0.0000 H   0  0  0  0  0  0  0  0  0  0  0  0
   -1.4686    0.4650    0.0000 H   0  0  0  0  0  0  0  0  0  0  0  0
    1.6860   -0.4702    0.0000 H   0  0  0  0  0  0  0  0  0  0  0  0
    0.8395   -1.1994    0.0000 H   0  0  0  0  0  0  0  0  0  0  0  0
   -1.6836   -0.4866    0.0000 H   0  0  0  0  0  0  0  0  0  0  0  0
   -0.8289   -1.2103    0.0000 H   0  0  0  0  0  0  0  0  0  0  0  0
    0.0093   -1.6519    0.0000 H   0  0  0  0  0  0  0  0  0  0  0  0
  1  2  1  0  0  0  0
  1  3  1  0  0  0  0
  1  6  1  0  0  0  0
  1  7  1  0  0  0  0
  2  4  1  0  0  0  0
  2  8  1  0  0  0  0
  2  9  1  0  0  0  0
  3  5  1  0  0  0  0
  3 10  1  0  0  0  0
  3 11  1  0  0  0  0
  4  5  1  0  0  0  0
  4 12  1  0  0  0  0
  4 13  1  0  0  0  0
  5 14  1  0  0  0  0
M  END
>  <DRUGBANK_ID>
DB16858

>  <COMMON_NAME>
Pyrrolidine

>  <CAS_NUMBER>
123-75-1

>  <UNII>
LJU5627FYV

>  <SYNONYMS>
1-Azacyclopentane; Azacyclopentane; Azolidine; Butylenimine

$$$$
