
 OpenBabel10282417072D

 71 73  0  0  0  0  0  0  0  0999 V2000
   -2.8313   -1.8466    0.0000 O   0  0  0  0  0  0  0  0  0  0  0  0
   -2.0357   -1.4413    0.0000 C   0  0  2  0  0  0  0  0  0  0  0  0
   -2.8177   -0.2125    0.0000 C   0  0  0  0  0  0  0  0  0  0  0  0
   -2.0939   -0.6177    0.0000 C   0  0  0  0  0  0  0  0  0  0  0  0
   -2.8167    0.6217    0.0000 C   0  0  0  0  0  0  0  0  0  0  0  0
   -2.0974    1.0344    0.0000 C   0  0  0  0  0  0  0  0  0  0  0  0
   -1.3826    0.6223    0.0000 C   0  0  0  0  0  0  0  0  0  0  0  0
   -0.6675    1.0287    0.0000 C   0  0  0  0  0  0  0  0  0  0  0  0
   -0.4367    1.8118    0.0000 C   0  0  0  0  0  0  0  0  0  0  0  0
    0.3795    1.8479    0.0000 S   0  0  0  0  0  0  0  0  0  0  0  0
   -0.0163    0.5724    0.0000 N   0  0  0  0  0  0  0  0  0  0  0  0
   -1.3938   -0.2220    0.0000 C   0  0  0  0  0  0  0  0  0  0  0  0
   -6.3690   -1.4373    0.0000 C   0  0  0  0  0  0  0  0  0  0  0  0
   -5.6661   -1.8517    0.0000 C   0  0  0  0  0  0  0  0  0  0  0  0
   -4.9387   -1.4548    0.0000 C   0  0  0  0  0  0  0  0  0  0  0  0
   -4.2299   -1.8624    0.0000 C   0  0  0  0  0  0  0  0  0  0  0  0
   -3.5165   -1.4372    0.0000 C   0  0  0  0  0  0  0  0  0  0  0  0
    2.8151   -0.1978    0.0000 C   0  0  0  0  0  0  0  0  0  0  0  0
    3.5235   -0.5851    0.0000 C   0  0  0  0  0  0  0  0  0  0  0  0
    2.8040    0.6382    0.0000 C   0  0  0  0  0  0  0  0  0  0  0  0
    2.1769    1.0216    0.0000 C   0  0  0  0  0  0  0  0  0  0  0  0
    1.3690    0.6604    0.0000 N   0  0  0  0  0  0  0  0  0  0  0  0
    2.2128    1.8624    0.0000 O   0  0  0  0  0  0  0  0  0  0  0  0
    3.5201    1.0562    0.0000 C   0  0  0  0  0  0  0  0  0  0  0  0
    4.2386    0.6305    0.0000 C   0  0  0  0  0  0  0  0  0  0  0  0
    4.2393   -0.1783    0.0000 C   0  0  0  0  0  0  0  0  0  0  0  0
    5.6546   -0.1877    0.0000 C   0  0  0  0  0  0  0  0  0  0  0  0
    4.9405   -0.5982    0.0000 C   0  0  0  0  0  0  0  0  0  0  0  0
    0.6620    1.0520    0.0000 C   0  0  0  0  0  0  0  0  0  0  0  0
   -0.6840   -0.6425    0.0000 O   0  0  0  0  0  0  0  0  0  0  0  0
    0.0304   -0.2300    0.0000 C   0  0  0  0  0  0  0  0  0  0  0  0
   -7.0835   -1.8499    0.0000 C   0  0  0  0  0  0  0  0  0  0  0  0
    6.3683   -0.6017    0.0000 C   0  0  0  0  0  0  0  0  0  0  0  0
    5.6561    0.6372    0.0000 C   0  0  0  0  0  0  0  0  0  0  0  0
    7.0835   -0.1904    0.0000 O   0  0  0  0  0  0  0  0  0  0  0  0
    6.3683   -1.4266    0.0000 O   0  0  0  0  0  0  0  0  0  0  0  0
    4.9552    1.0392    0.0000 Cl  0  0  0  0  0  0  0  0  0  0  0  0
    3.5305   -1.4101    0.0000 Cl  0  0  0  0  0  0  0  0  0  0  0  0
   -1.3175   -1.8473    0.0000 C   0  0  0  0  0  0  0  0  0  0  0  0
   -2.0589   -2.5110    0.0000 H   0  0  0  0  0  0  0  0  0  0  0  0
   -3.7083   -0.7339    0.0000 H   0  0  0  0  0  0  0  0  0  0  0  0
   -3.7094    1.1394    0.0000 H   0  0  0  0  0  0  0  0  0  0  0  0
   -2.0963    2.0664    0.0000 H   0  0  0  0  0  0  0  0  0  0  0  0
   -1.0728    2.6244    0.0000 H   0  0  0  0  0  0  0  0  0  0  0  0
   -6.3642   -0.3673    0.0000 H   0  0  0  0  0  0  0  0  0  0  0  0
   -7.2945   -0.9003    0.0000 H   0  0  0  0  0  0  0  0  0  0  0  0
   -5.6839   -2.9216    0.0000 H   0  0  0  0  0  0  0  0  0  0  0  0
   -4.7505   -2.4055    0.0000 H   0  0  0  0  0  0  0  0  0  0  0  0
   -4.9267   -0.3849    0.0000 H   0  0  0  0  0  0  0  0  0  0  0  0
   -4.0095   -0.9242    0.0000 H   0  0  0  0  0  0  0  0  0  0  0  0
   -4.2215   -2.9324    0.0000 H   0  0  0  0  0  0  0  0  0  0  0  0
   -5.1540   -2.4018    0.0000 H   0  0  0  0  0  0  0  0  0  0  0  0
   -3.5159   -0.3672    0.0000 H   0  0  0  0  0  0  0  0  0  0  0  0
   -2.5857   -0.9094    0.0000 H   0  0  0  0  0  0  0  0  0  0  0  0
    1.9309   -0.7300    0.0000 H   0  0  0  0  0  0  0  0  0  0  0  0
    1.3270   -0.3232    0.0000 H   0  0  0  0  0  0  0  0  0  0  0  0
    3.5235    2.0882    0.0000 H   0  0  0  0  0  0  0  0  0  0  0  0
    4.9313   -1.6302    0.0000 H   0  0  0  0  0  0  0  0  0  0  0  0
    0.9571   -0.7650    0.0000 H   0  0  0  0  0  0  0  0  0  0  0  0
    0.0304    0.8400    0.0000 H   0  0  0  0  0  0  0  0  0  0  0  0
    0.9570    0.3050    0.0000 H   0  0  0  0  0  0  0  0  0  0  0  0
   -8.0102   -1.3150    0.0000 H   0  0  0  0  0  0  0  0  0  0  0  0
   -7.0834   -2.9199    0.0000 H   0  0  0  0  0  0  0  0  0  0  0  0
   -8.0101   -2.3850    0.0000 H   0  0  0  0  0  0  0  0  0  0  0  0
    6.5837    1.1705    0.0000 H   0  0  0  0  0  0  0  0  0  0  0  0
    4.7304    1.1739    0.0000 H   0  0  0  0  0  0  0  0  0  0  0  0
    5.6580    1.7072    0.0000 H   0  0  0  0  0  0  0  0  0  0  0  0
    7.8942   -0.6603    0.0000 H   0  0  0  0  0  0  0  0  0  0  0  0
   -1.3078   -2.9173    0.0000 H   0  0  0  0  0  0  0  0  0  0  0  0
   -0.3958   -1.3039    0.0000 H   0  0  0  0  0  0  0  0  0  0  0  0
   -0.3860   -2.3739    0.0000 H   0  0  0  0  0  0  0  0  0  0  0  0
  1  2  1  0  0  0  0
  2  4  1  0  0  0  0
  2 39  1  0  0  0  0
  2 40  1  1  0  0  0
  3  4  1  0  0  0  0
  3  5  2  0  0  0  0
  3 41  1  0  0  0  0
  4 12  2  0  0  0  0
  5  6  1  0  0  0  0
  5 42  1  0  0  0  0
  6  7  2  0  0  0  0
  6 43  1  0  0  0  0
  7  8  1  0  0  0  0
  8  9  2  0  0  0  0
  8 11  1  0  0  0  0
  9 10  1  0  0  0  0
  9 44  1  0  0  0  0
 11 29  2  0  0  0  0
 12  7  1  0  0  0  0
 12 30  1  0  0  0  0
 13 14  1  0  0  0  0
 13 32  1  0  0  0  0
 13 45  1  0  0  0  0
 13 46  1  0  0  0  0
 14 15  1  0  0  0  0
 14 47  1  0  0  0  0
 14 48  1  0  0  0  0
 15 49  1  0  0  0  0
 15 50  1  0  0  0  0
 16 17  1  0  0  0  0
 16 15  1  0  0  0  0
 16 51  1  0  0  0  0
 16 52  1  0  0  0  0
 17  1  1  0  0  0  0
 17 53  1  0  0  0  0
 17 54  1  0  0  0  0
 18 19  1  0  0  0  0
 18 55  1  0  0  0  0
 19 26  2  0  0  0  0
 19 38  1  0  0  0  0
 20 18  2  0  0  0  0
 20 24  1  0  0  0  0
 21 20  1  0  0  0  0
 21 22  1  0  0  0  0
 22 56  1  0  0  0  0
 23 21  2  0  0  0  0
 24 25  2  0  0  0  0
 24 57  1  0  0  0  0
 25 37  1  0  0  0  0
 26 25  1  0  0  0  0
 26 28  1  0  0  0  0
 27 33  1  0  0  0  0
 27 34  1  0  0  0  0
 28 27  2  0  0  0  0
 28 58  1  0  0  0  0
 29 10  1  0  0  0  0
 29 22  1  0  0  0  0
 30 31  1  0  0  0  0
 31 59  1  0  0  0  0
 31 60  1  0  0  0  0
 31 61  1  0  0  0  0
 32 62  1  0  0  0  0
 32 63  1  0  0  0  0
 32 64  1  0  0  0  0
 33 35  1  0  0  0  0
 33 36  2  0  0  0  0
 34 65  1  0  0  0  0
 34 66  1  0  0  0  0
 34 67  1  0  0  0  0
 35 68  1  0  0  0  0
 39 69  1  0  0  0  0
 39 70  1  0  0  0  0
 39 71  1  0  0  0  0
M  END
>  <DRUGBANK_ID>
DB13125

>  <COMMON_NAME>
Lusutrombopag

>  <CAS_NUMBER>
1110766-97-6

>  <UNII>
6LL5JFU42F

>  <SYNONYMS>
Lusutrombopag

$$$$
