
 OpenBabel10282417072D

 17 18  0  0  0  0  0  0  0  0999 V2000
    0.0000    0.8803    0.0000 C   0  0  2  0  0  0  0  0  0  0  0  0
    0.0000    0.0553    0.0000 C   0  0  0  0  0  0  0  0  0  0  0  0
    0.4125    1.5947    0.0000 C   0  0  0  0  0  0  0  0  0  0  0  0
   -0.4125    1.5947    0.0000 O   0  0  0  0  0  0  0  0  0  0  0  0
   -0.7145   -0.3571    0.0000 C   0  0  0  0  0  0  0  0  0  0  0  0
    0.7145   -0.3571    0.0000 C   0  0  0  0  0  0  0  0  0  0  0  0
   -0.7145   -1.1822    0.0000 C   0  0  0  0  0  0  0  0  0  0  0  0
    0.7145   -1.1822    0.0000 C   0  0  0  0  0  0  0  0  0  0  0  0
    0.0000   -1.5946    0.0000 C   0  0  0  0  0  0  0  0  0  0  0  0
   -1.0335    0.6033    0.0000 H   0  0  0  0  0  0  0  0  0  0  0  0
    1.3392    2.1297    0.0000 H   0  0  0  0  0  0  0  0  0  0  0  0
    0.1356    2.6282    0.0000 H   0  0  0  0  0  0  0  0  0  0  0  0
   -1.6082    0.1590    0.0000 H   0  0  0  0  0  0  0  0  0  0  0  0
    1.6082    0.1590    0.0000 H   0  0  0  0  0  0  0  0  0  0  0  0
   -1.6082   -1.6983    0.0000 H   0  0  0  0  0  0  0  0  0  0  0  0
    1.6082   -1.6983    0.0000 H   0  0  0  0  0  0  0  0  0  0  0  0
    0.0000   -2.6266    0.0000 H   0  0  0  0  0  0  0  0  0  0  0  0
  1  2  1  0  0  0  0
  1  3  1  0  0  0  0
  1  4  1  0  0  0  0
  1 10  1  6  0  0  0
  2  5  2  0  0  0  0
  2  6  1  0  0  0  0
  3  4  1  0  0  0  0
  3 11  1  0  0  0  0
  3 12  1  0  0  0  0
  5  7  1  0  0  0  0
  5 13  1  0  0  0  0
  6  8  2  0  0  0  0
  6 14  1  0  0  0  0
  7  9  2  0  0  0  0
  7 15  1  0  0  0  0
  8  9  1  0  0  0  0
  8 16  1  0  0  0  0
  9 17  1  0  0  0  0
M  END
>  <DRUGBANK_ID>
DB04499

>  <SECONDARY_ACCESSION_NUMBERS>
EXPT02820

>  <COMMON_NAME>
(R)-styrene oxide

>  <CAS_NUMBER>
20780-53-4

>  <UNII>
0HB27D5MRW

>  <SYNONYMS>
(R)-(+)-styrene oxide; (R)-(epoxyethyl)benzene; R-phenyloxirane; R-styrene oxide

$$$$
