
 OpenBabel10282417072D

 50 53  0  0  1  0  0  0  0  0999 V2000
    0.0000   -4.1250    0.0000 C   0  0  0  0  0  0  0  0  0  0  0  0
   -0.7145   -3.7125    0.0000 C   0  0  0  0  0  0  0  0  0  0  0  0
   -0.7145   -2.8875    0.0000 C   0  0  0  0  0  0  0  0  0  0  0  0
    0.0000   -2.4750    0.0000 C   0  0  0  0  0  0  0  0  0  0  0  0
    0.7145   -2.8875    0.0000 C   0  0  0  0  0  0  0  0  0  0  0  0
    0.7145   -3.7125    0.0000 C   0  0  0  0  0  0  0  0  0  0  0  0
    0.0000   -1.6500    0.0000 C   0  0  0  0  0  0  0  0  0  0  0  0
    0.7145   -1.2375    0.0000 C   0  0  1  0  0  0  0  0  0  0  0  0
    0.7145   -0.4125    0.0000 C   0  0  0  0  0  0  0  0  0  0  0  0
    1.4289    0.0000    0.0000 O   0  0  0  0  0  0  0  0  0  0  0  0
    2.1434   -0.4125    0.0000 C   0  0  0  0  0  0  0  0  0  0  0  0
    2.8579    0.0000    0.0000 C   0  0  0  0  0  0  0  0  0  0  0  0
    3.5724   -0.4125    0.0000 C   0  0  0  0  0  0  0  0  0  0  0  0
    3.5724   -1.2375    0.0000 C   0  0  0  0  0  0  0  0  0  0  0  0
    2.8579   -1.6500    0.0000 C   0  0  0  0  0  0  0  0  0  0  0  0
    2.1434   -1.2375    0.0000 C   0  0  0  0  0  0  0  0  0  0  0  0
    1.4289   -1.6500    0.0000 C   0  0  2  0  0  0  0  0  0  0  0  0
    1.4289   -2.4750    0.0000 O   0  0  0  0  0  0  0  0  0  0  0  0
    4.2868   -0.0000    0.0000 C   0  0  0  0  0  0  0  0  0  0  0  0
    4.2868    0.8250    0.0000 C   0  0  0  0  0  0  0  0  0  0  0  0
    5.0013    1.2375    0.0000 C   0  0  0  0  0  0  0  0  0  0  0  0
    5.7158    0.8250    0.0000 C   0  0  0  0  0  0  0  0  0  0  0  0
    5.7158   -0.0000    0.0000 C   0  0  0  0  0  0  0  0  0  0  0  0
    5.0013   -0.4125    0.0000 C   0  0  0  0  0  0  0  0  0  0  0  0
    5.0013   -1.2375    0.0000 C   0  0  0  0  0  0  0  0  0  0  0  0
    4.2868   -1.6500    0.0000 O   0  0  0  0  0  0  0  0  0  0  0  0
    5.7158   -1.6500    0.0000 O   0  0  0  0  0  0  0  0  0  0  0  0
    5.0013    2.0625    0.0000 C   0  0  0  0  0  0  0  0  0  0  0  0
    5.0013    2.8875    0.0000 F   0  0  0  0  0  0  0  0  0  0  0  0
    5.8263    2.0625    0.0000 F   0  0  0  0  0  0  0  0  0  0  0  0
    4.1763    2.0625    0.0000 F   0  0  0  0  0  0  0  0  0  0  0  0
    0.0000   -5.1570    0.0000 H   0  0  0  0  0  0  0  0  0  0  0  0
   -1.6082   -4.2285    0.0000 H   0  0  0  0  0  0  0  0  0  0  0  0
   -1.6082   -2.3715    0.0000 H   0  0  0  0  0  0  0  0  0  0  0  0
    1.6082   -2.3715    0.0000 H   0  0  0  0  0  0  0  0  0  0  0  0
    1.6082   -4.2285    0.0000 H   0  0  0  0  0  0  0  0  0  0  0  0
   -0.9266   -1.1150    0.0000 H   0  0  0  0  0  0  0  0  0  0  0  0
    0.0000   -0.5800    0.0000 H   0  0  0  0  0  0  0  0  0  0  0  0
   -0.2121   -0.7025    0.0000 H   0  0  0  0  0  0  0  0  0  0  0  0
   -0.2122    0.1225    0.0000 H   0  0  0  0  0  0  0  0  0  0  0  0
    0.7145    0.6575    0.0000 H   0  0  0  0  0  0  0  0  0  0  0  0
    2.8579    1.0320    0.0000 H   0  0  0  0  0  0  0  0  0  0  0  0
    4.4661   -1.7535    0.0000 H   0  0  0  0  0  0  0  0  0  0  0  0
    2.8579   -2.6820    0.0000 H   0  0  0  0  0  0  0  0  0  0  0  0
    2.3555   -2.1850    0.0000 H   0  0  0  0  0  0  0  0  0  0  0  0
    0.5889   -2.9600    0.0000 H   0  0  0  0  0  0  0  0  0  0  0  0
    3.3931    1.3410    0.0000 H   0  0  0  0  0  0  0  0  0  0  0  0
    6.6095    1.3410    0.0000 H   0  0  0  0  0  0  0  0  0  0  0  0
    6.6095   -0.5160    0.0000 H   0  0  0  0  0  0  0  0  0  0  0  0
    5.7158   -2.5870    0.0000 H   0  0  0  0  0  0  0  0  0  0  0  0
  1  2  2  0  0  0  0
  1  6  1  0  0  0  0
  1 32  1  0  0  0  0
  2  3  1  0  0  0  0
  2 33  1  0  0  0  0
  3  4  2  0  0  0  0
  3 34  1  0  0  0  0
  4  5  1  0  0  0  0
  4  7  1  0  0  0  0
  5  6  2  0  0  0  0
  5 35  1  0  0  0  0
  6 36  1  0  0  0  0
  7 37  1  0  0  0  0
  7 38  1  0  0  0  0
  8  7  1  0  0  0  0
  8  9  1  0  0  0  0
  8 17  1  0  0  0  0
  8 39  1  6  0  0  0
  9 10  1  0  0  0  0
  9 40  1  0  0  0  0
  9 41  1  0  0  0  0
 10 11  1  0  0  0  0
 11 12  2  0  0  0  0
 11 16  1  0  0  0  0
 12 13  1  0  0  0  0
 12 42  1  0  0  0  0
 13 14  2  0  0  0  0
 13 19  1  0  0  0  0
 14 15  1  0  0  0  0
 14 43  1  0  0  0  0
 15 16  2  0  0  0  0
 15 44  1  0  0  0  0
 16 17  1  0  0  0  0
 17 18  1  0  0  0  0
 17 45  1  1  0  0  0
 18 46  1  0  0  0  0
 19 20  2  0  0  0  0
 19 24  1  0  0  0  0
 20 21  1  0  0  0  0
 20 47  1  0  0  0  0
 21 22  2  0  0  0  0
 21 28  1  0  0  0  0
 22 23  1  0  0  0  0
 22 48  1  0  0  0  0
 23 24  2  0  0  0  0
 23 49  1  0  0  0  0
 24 25  1  0  0  0  0
 25 26  2  0  0  0  0
 25 27  1  0  0  0  0
 27 50  1  0  0  0  0
 28 29  1  0  0  0  0
 28 30  1  0  0  0  0
 28 31  1  0  0  0  0
M  END
>  <DRUGBANK_ID>
DB13053

>  <COMMON_NAME>
CP-195543

>  <CAS_NUMBER>
204981-48-6

>  <UNII>
YB1F0V77MK

$$$$
