VX2
 OpenBabel10282417072D

 44 47  0  0  0  0  0  0  0  0999 V2000
   -3.2905    1.5618    0.0000 C   0  0  0  0  0  0  0  0  0  0  0  0
   -1.1666   -1.6854    0.0000 N   0  0  0  0  0  0  0  0  0  0  0  0
   -1.9314    2.0033    0.0000 C   0  0  0  0  0  0  0  0  0  0  0  0
   -1.1245    1.8318    0.0000 C   0  0  0  0  0  0  0  0  0  0  0  0
   -0.8695    1.0472    0.0000 C   0  0  0  0  0  0  0  0  0  0  0  0
   -0.3820   -1.4305    0.0000 C   0  0  0  0  0  0  0  0  0  0  0  0
    0.3325   -1.8430    0.0000 C   0  0  0  0  0  0  0  0  0  0  0  0
    1.0469   -0.6055    0.0000 C   0  0  0  0  0  0  0  0  0  0  0  0
    2.4759   -0.6055    0.0000 C   0  0  0  0  0  0  0  0  0  0  0  0
   -2.4835    1.3902    0.0000 C   0  0  0  0  0  0  0  0  0  0  0  0
   -2.2285    0.6056    0.0000 C   0  0  0  0  0  0  0  0  0  0  0  0
    1.0469   -1.4305    0.0000 C   0  0  0  0  0  0  0  0  0  0  0  0
    3.9048   -0.6055    0.0000 C   0  0  0  0  0  0  0  0  0  0  0  0
   -1.6516   -1.0180    0.0000 N   0  0  0  0  0  0  0  0  0  0  0  0
   -4.0974    1.7333    0.0000 F   0  0  0  0  0  0  0  0  0  0  0  0
   -3.4620    0.7548    0.0000 F   0  0  0  0  0  0  0  0  0  0  0  0
   -3.1189    2.3687    0.0000 F   0  0  0  0  0  0  0  0  0  0  0  0
   -1.4216    0.4341    0.0000 C   0  0  0  0  0  0  0  0  0  0  0  0
   -1.1666   -0.3505    0.0000 C   0  0  0  0  0  0  0  0  0  0  0  0
    1.7614   -0.1930    0.0000 N   0  0  0  0  0  0  0  0  0  0  0  0
    3.1903   -0.1930    0.0000 C   0  0  0  0  0  0  0  0  0  0  0  0
    3.9048   -1.4305    0.0000 C   0  0  0  0  0  0  0  0  0  0  0  0
    3.1903   -1.8430    0.0000 C   0  0  0  0  0  0  0  0  0  0  0  0
    2.4759   -1.4305    0.0000 C   0  0  0  0  0  0  0  0  0  0  0  0
    0.3325   -0.1930    0.0000 N   0  0  0  0  0  0  0  0  0  0  0  0
   -0.3820   -0.6055    0.0000 N   0  0  0  0  0  0  0  0  0  0  0  0
   -2.2503    2.9848    0.0000 H   0  0  0  0  0  0  0  0  0  0  0  0
   -0.4340    2.5988    0.0000 H   0  0  0  0  0  0  0  0  0  0  0  0
    0.1400    0.8326    0.0000 H   0  0  0  0  0  0  0  0  0  0  0  0
    0.3325   -2.8750    0.0000 H   0  0  0  0  0  0  0  0  0  0  0  0
    1.5493   -1.1405    0.0000 H   0  0  0  0  0  0  0  0  0  0  0  0
   -2.9190   -0.1614    0.0000 H   0  0  0  0  0  0  0  0  0  0  0  0
    1.9406   -1.9465    0.0000 H   0  0  0  0  0  0  0  0  0  0  0  0
    4.8314   -0.0705    0.0000 H   0  0  0  0  0  0  0  0  0  0  0  0
    4.8314   -1.1405    0.0000 H   0  0  0  0  0  0  0  0  0  0  0  0
    1.7614    0.7915    0.0000 H   0  0  0  0  0  0  0  0  0  0  0  0
    3.1903    0.8770    0.0000 H   0  0  0  0  0  0  0  0  0  0  0  0
    4.1169    0.3420    0.0000 H   0  0  0  0  0  0  0  0  0  0  0  0
    4.8314   -1.9655    0.0000 H   0  0  0  0  0  0  0  0  0  0  0  0
    3.9048   -2.5005    0.0000 H   0  0  0  0  0  0  0  0  0  0  0  0
    3.1903   -2.9130    0.0000 H   0  0  0  0  0  0  0  0  0  0  0  0
    2.2636   -2.3780    0.0000 H   0  0  0  0  0  0  0  0  0  0  0  0
    1.5492   -1.9655    0.0000 H   0  0  0  0  0  0  0  0  0  0  0  0
    1.5493   -0.8955    0.0000 H   0  0  0  0  0  0  0  0  0  0  0  0
  1 15  1  0  0  0  0
  1 10  1  0  0  0  0
  2 14  1  0  0  0  0
  3  4  1  0  0  0  0
  3 27  1  0  0  0  0
  4 28  1  0  0  0  0
  5  4  2  0  0  0  0
  5 29  1  0  0  0  0
  6  2  2  0  0  0  0
  7  6  1  0  0  0  0
  7 30  1  0  0  0  0
  8 12  1  0  0  0  0
  8 25  2  0  0  0  0
  9 21  1  0  0  0  0
  9 20  1  0  0  0  0
  9 31  1  0  0  0  0
 10  3  2  0  0  0  0
 11 10  1  0  0  0  0
 11 18  2  0  0  0  0
 11 32  1  0  0  0  0
 12  7  2  0  0  0  0
 12 33  1  0  0  0  0
 13 21  1  0  0  0  0
 13 34  1  0  0  0  0
 13 35  1  0  0  0  0
 16  1  1  0  0  0  0
 17  1  1  0  0  0  0
 18  5  1  0  0  0  0
 19 14  2  0  0  0  0
 19 18  1  0  0  0  0
 20  8  1  0  0  0  0
 20 36  1  0  0  0  0
 21 37  1  0  0  0  0
 21 38  1  0  0  0  0
 22 13  1  0  0  0  0
 22 39  1  0  0  0  0
 22 40  1  0  0  0  0
 23 22  1  0  0  0  0
 23 24  1  0  0  0  0
 23 41  1  0  0  0  0
 23 42  1  0  0  0  0
 24  9  1  0  0  0  0
 24 43  1  0  0  0  0
 24 44  1  0  0  0  0
 25 26  1  0  0  0  0
 26  6  1  0  0  0  0
 26 19  1  0  0  0  0
M  END
>  <DRUGBANK_ID>
DB08708

>  <COMMON_NAME>
N-cyclohexyl-3-[3-(trifluoromethyl)phenyl][1,2,4]triazolo[4,3-b]pyridazin-6-amine

$$$$
