
 OpenBabel10282417072D

 71 74  0  0  1  0  0  0  0  0999 V2000
   -2.9684   -7.1743    0.0000 C   0  0  0  0  0  0  0  0  0  0  0  0
   -2.9684   -6.3493    0.0000 C   0  0  0  0  0  0  0  0  0  0  0  0
   -2.2539   -5.9368    0.0000 N   0  0  0  0  0  0  0  0  0  0  0  0
   -2.2539   -5.1118    0.0000 C   0  0  0  0  0  0  0  0  0  0  0  0
   -1.5395   -4.6993    0.0000 C   0  0  0  0  0  0  0  0  0  0  0  0
   -0.8250   -5.1118    0.0000 N   0  0  0  0  0  0  0  0  0  0  0  0
   -0.8250   -5.9368    0.0000 C   0  0  0  0  0  0  0  0  0  0  0  0
   -0.1105   -6.3493    0.0000 O   0  0  0  0  0  0  0  0  0  0  0  0
   -1.5395   -6.3493    0.0000 C   0  0  0  0  0  0  0  0  0  0  0  0
   -1.5395   -7.1743    0.0000 O   0  0  0  0  0  0  0  0  0  0  0  0
   -0.1105   -4.6993    0.0000 C   0  0  0  0  0  0  0  0  0  0  0  0
   -0.1105   -3.8743    0.0000 O   0  0  0  0  0  0  0  0  0  0  0  0
    0.6039   -5.1118    0.0000 N   0  0  0  0  0  0  0  0  0  0  0  0
    1.3184   -4.6993    0.0000 C   0  0  2  0  0  0  0  0  0  0  0  0
    1.3184   -3.8743    0.0000 C   0  0  2  0  0  0  0  0  0  0  0  0
    2.0329   -3.4618    0.0000 C   0  0  0  0  0  0  0  0  0  0  0  0
    0.6039   -3.4618    0.0000 O   0  0  0  0  0  0  0  0  0  0  0  0
    2.0329   -5.1118    0.0000 C   0  0  0  0  0  0  0  0  0  0  0  0
    2.0329   -5.9368    0.0000 O   0  0  0  0  0  0  0  0  0  0  0  0
    2.7474   -4.6993    0.0000 N   0  0  0  0  0  0  0  0  0  0  0  0
    3.4618   -5.1118    0.0000 C   0  0  1  0  0  0  0  0  0  0  0  0
    4.1763   -5.5243    0.0000 C   0  0  2  0  0  0  0  0  0  0  0  0
    4.5888   -4.8099    0.0000 N   0  0  0  0  0  0  0  0  0  0  0  0
    3.8743   -4.3974    0.0000 C   0  0  0  0  0  0  0  0  0  0  0  0
    3.6608   -3.6005    0.0000 O   0  0  0  0  0  0  0  0  0  0  0  0
    5.4138   -4.8099    0.0000 C   0  0  0  0  0  0  0  0  0  0  0  0
    5.8263   -5.5243    0.0000 C   0  0  0  0  0  0  0  0  0  0  0  0
    5.4138   -6.2388    0.0000 C   0  0  0  0  0  0  0  0  0  0  0  0
    4.5888   -6.2388    0.0000 S   0  0  0  0  0  0  0  0  0  0  0  0
    6.6513   -5.5243    0.0000 C   0  0  0  0  0  0  0  0  0  0  0  0
    7.0638   -4.8099    0.0000 S   0  0  0  0  0  0  0  0  0  0  0  0
    7.8888   -4.8099    0.0000 C   0  0  0  0  0  0  0  0  0  0  0  0
    8.3737   -4.1424    0.0000 N   0  0  0  0  0  0  0  0  0  0  0  0
    9.1583   -4.3974    0.0000 N   0  0  0  0  0  0  0  0  0  0  0  0
    9.1583   -5.2224    0.0000 N   0  0  0  0  0  0  0  0  0  0  0  0
    8.3737   -5.4773    0.0000 N   0  0  0  0  0  0  0  0  0  0  0  0
    8.1188   -6.2619    0.0000 C   0  0  0  0  0  0  0  0  0  0  0  0
    5.8263   -4.0954    0.0000 C   0  0  0  0  0  0  0  0  0  0  0  0
    6.6513   -4.0954    0.0000 O   0  0  0  0  0  0  0  0  0  0  0  0
    5.4138   -3.3809    0.0000 O   0  0  0  0  0  0  0  0  0  0  0  0
    3.0493   -5.8263    0.0000 O   0  0  0  0  0  0  0  0  0  0  0  0
    3.4618   -6.5408    0.0000 C   0  0  0  0  0  0  0  0  0  0  0  0
   -3.8950   -7.7093    0.0000 H   0  0  0  0  0  0  0  0  0  0  0  0
   -2.0418   -7.7093    0.0000 H   0  0  0  0  0  0  0  0  0  0  0  0
   -2.9684   -8.2443    0.0000 H   0  0  0  0  0  0  0  0  0  0  0  0
   -3.8950   -5.8143    0.0000 H   0  0  0  0  0  0  0  0  0  0  0  0
   -2.9684   -5.2793    0.0000 H   0  0  0  0  0  0  0  0  0  0  0  0
   -3.1806   -4.5768    0.0000 H   0  0  0  0  0  0  0  0  0  0  0  0
   -2.2539   -4.0418    0.0000 H   0  0  0  0  0  0  0  0  0  0  0  0
   -1.5395   -3.6293    0.0000 H   0  0  0  0  0  0  0  0  0  0  0  0
   -0.6129   -4.1643    0.0000 H   0  0  0  0  0  0  0  0  0  0  0  0
    0.6039   -6.0963    0.0000 H   0  0  0  0  0  0  0  0  0  0  0  0
    0.3918   -4.1643    0.0000 H   0  0  0  0  0  0  0  0  0  0  0  0
    0.3918   -4.4093    0.0000 H   0  0  0  0  0  0  0  0  0  0  0  0
    2.9595   -3.9968    0.0000 H   0  0  0  0  0  0  0  0  0  0  0  0
    2.0329   -2.3918    0.0000 H   0  0  0  0  0  0  0  0  0  0  0  0
    2.9596   -2.9268    0.0000 H   0  0  0  0  0  0  0  0  0  0  0  0
    0.6039   -2.4918    0.0000 H   0  0  0  0  0  0  0  0  0  0  0  0
    2.7474   -3.7148    0.0000 H   0  0  0  0  0  0  0  0  0  0  0  0
    3.8994   -4.4908    0.0000 H   0  0  0  0  0  0  0  0  0  0  0  0
    5.9488   -7.1654    0.0000 H   0  0  0  0  0  0  0  0  0  0  0  0
    4.8788   -7.1654    0.0000 H   0  0  0  0  0  0  0  0  0  0  0  0
    7.1863   -6.4510    0.0000 H   0  0  0  0  0  0  0  0  0  0  0  0
    7.7213   -5.5243    0.0000 H   0  0  0  0  0  0  0  0  0  0  0  0
    7.0722   -6.4844    0.0000 H   0  0  0  0  0  0  0  0  0  0  0  0
    8.8348   -7.0570    0.0000 H   0  0  0  0  0  0  0  0  0  0  0  0
    7.7882   -7.2795    0.0000 H   0  0  0  0  0  0  0  0  0  0  0  0
    5.8823   -2.5694    0.0000 H   0  0  0  0  0  0  0  0  0  0  0  0
    2.9268   -7.4674    0.0000 H   0  0  0  0  0  0  0  0  0  0  0  0
    4.5318   -6.5408    0.0000 H   0  0  0  0  0  0  0  0  0  0  0  0
    3.9968   -7.4675    0.0000 H   0  0  0  0  0  0  0  0  0  0  0  0
  1  2  1  0  0  0  0
  1 43  1  0  0  0  0
  1 44  1  0  0  0  0
  1 45  1  0  0  0  0
  2  3  1  0  0  0  0
  2 46  1  0  0  0  0
  2 47  1  0  0  0  0
  3  4  1  0  0  0  0
  3  9  1  0  0  0  0
  4  5  1  0  0  0  0
  4 48  1  0  0  0  0
  4 49  1  0  0  0  0
  5  6  1  0  0  0  0
  5 50  1  0  0  0  0
  5 51  1  0  0  0  0
  6  7  1  0  0  0  0
  6 11  1  0  0  0  0
  7  8  2  0  0  0  0
  7  9  1  0  0  0  0
  9 10  2  0  0  0  0
 11 12  2  0  0  0  0
 11 13  1  0  0  0  0
 13 52  1  0  0  0  0
 14 13  1  0  0  0  0
 14 15  1  0  0  0  0
 14 18  1  0  0  0  0
 14 53  1  1  0  0  0
 15 16  1  0  0  0  0
 15 17  1  0  0  0  0
 15 54  1  6  0  0  0
 16 55  1  0  0  0  0
 16 56  1  0  0  0  0
 16 57  1  0  0  0  0
 17 58  1  0  0  0  0
 18 19  2  0  0  0  0
 18 20  1  0  0  0  0
 20 59  1  0  0  0  0
 21 20  1  0  0  0  0
 21 22  1  0  0  0  0
 21 24  1  0  0  0  0
 21 41  1  1  0  0  0
 22 23  1  0  0  0  0
 22 29  1  0  0  0  0
 22 60  1  1  0  0  0
 23 24  1  0  0  0  0
 23 26  1  0  0  0  0
 24 25  2  0  0  0  0
 26 27  2  0  0  0  0
 26 38  1  0  0  0  0
 27 28  1  0  0  0  0
 27 30  1  0  0  0  0
 28 29  1  0  0  0  0
 28 61  1  0  0  0  0
 28 62  1  0  0  0  0
 30 31  1  0  0  0  0
 30 63  1  0  0  0  0
 30 64  1  0  0  0  0
 31 32  1  0  0  0  0
 32 33  2  0  0  0  0
 32 36  1  0  0  0  0
 33 34  1  0  0  0  0
 34 35  2  0  0  0  0
 35 36  1  0  0  0  0
 36 37  1  0  0  0  0
 37 65  1  0  0  0  0
 37 66  1  0  0  0  0
 37 67  1  0  0  0  0
 38 39  2  0  0  0  0
 38 40  1  0  0  0  0
 40 68  1  0  0  0  0
 41 42  1  0  0  0  0
 42 69  1  0  0  0  0
 42 70  1  0  0  0  0
 42 71  1  0  0  0  0
M  END
>  <DRUGBANK_ID>
DB13638

>  <COMMON_NAME>
Cefbuperazone

>  <CAS_NUMBER>
76610-84-9

>  <UNII>
T0785J3X40

>  <SYNONYMS>
cefbuperazona; Cefbuperazone

$$$$
