
 OpenBabel10282417072D

 58 56  0  0  0  0  0  0  0  0999 V2000
    5.8392   -2.3838    0.0000 F   0  0  0  0  0  0  0  0  0  0  0  0
   -5.8392   -2.4696    0.0000 N   0  0  0  0  0  0  0  0  0  0  0  0
   -5.1097   -2.8549    0.0000 C   0  0  0  0  0  0  0  0  0  0  0  0
   -4.4113   -2.4156    0.0000 C   0  0  0  0  0  0  0  0  0  0  0  0
   -3.6817   -2.8009    0.0000 C   0  0  0  0  0  0  0  0  0  0  0  0
   -2.9833   -2.3616    0.0000 C   0  0  0  0  0  0  0  0  0  0  0  0
   -2.2537   -2.7469    0.0000 C   0  0  0  0  0  0  0  0  0  0  0  0
   -1.5553   -2.3076    0.0000 C   0  0  0  0  0  0  0  0  0  0  0  0
   -0.8257   -2.6929    0.0000 C   0  0  0  0  0  0  0  0  0  0  0  0
   -0.1274   -2.2537    0.0000 C   0  0  0  0  0  0  0  0  0  0  0  0
    0.6021   -2.6389    0.0000 C   0  0  0  0  0  0  0  0  0  0  0  0
    1.3005   -2.1997    0.0000 C   0  0  0  0  0  0  0  0  0  0  0  0
    1.2693   -1.3752    0.0000 C   0  0  0  0  0  0  0  0  0  0  0  0
    1.9677   -0.9360    0.0000 C   0  0  0  0  0  0  0  0  0  0  0  0
    1.9365   -0.1116    0.0000 C   0  0  0  0  0  0  0  0  0  0  0  0
    2.6349    0.3276    0.0000 C   0  0  0  0  0  0  0  0  0  0  0  0
    2.6038    1.1520    0.0000 C   0  0  0  0  0  0  0  0  0  0  0  0
    3.3021    1.5912    0.0000 C   0  0  0  0  0  0  0  0  0  0  0  0
    3.2710    2.4156    0.0000 C   0  0  0  0  0  0  0  0  0  0  0  0
    3.9694    2.8549    0.0000 C   0  0  0  0  0  0  0  0  0  0  0  0
    6.6622   -2.3838    0.0000 H   0  0  0  0  0  0  0  0  0  0  0  0
   -5.8776   -1.4503    0.0000 H   0  0  0  0  0  0  0  0  0  0  0  0
   -6.7027   -3.0125    0.0000 H   0  0  0  0  0  0  0  0  0  0  0  0
   -5.0693   -3.9241    0.0000 H   0  0  0  0  0  0  0  0  0  0  0  0
   -4.1635   -3.3545    0.0000 H   0  0  0  0  0  0  0  0  0  0  0  0
   -4.4517   -1.3464    0.0000 H   0  0  0  0  0  0  0  0  0  0  0  0
   -3.5055   -1.8460    0.0000 H   0  0  0  0  0  0  0  0  0  0  0  0
   -3.6413   -3.8701    0.0000 H   0  0  0  0  0  0  0  0  0  0  0  0
   -2.7355   -3.3005    0.0000 H   0  0  0  0  0  0  0  0  0  0  0  0
   -3.0237   -1.2924    0.0000 H   0  0  0  0  0  0  0  0  0  0  0  0
   -2.0775   -1.7920    0.0000 H   0  0  0  0  0  0  0  0  0  0  0  0
   -2.2133   -3.8161    0.0000 H   0  0  0  0  0  0  0  0  0  0  0  0
   -1.3075   -3.2465    0.0000 H   0  0  0  0  0  0  0  0  0  0  0  0
   -1.5957   -1.2384    0.0000 H   0  0  0  0  0  0  0  0  0  0  0  0
   -0.6495   -1.7380    0.0000 H   0  0  0  0  0  0  0  0  0  0  0  0
   -0.7853   -3.7621    0.0000 H   0  0  0  0  0  0  0  0  0  0  0  0
    0.1205   -3.1925    0.0000 H   0  0  0  0  0  0  0  0  0  0  0  0
   -0.1678   -1.1845    0.0000 H   0  0  0  0  0  0  0  0  0  0  0  0
    0.7784   -1.6841    0.0000 H   0  0  0  0  0  0  0  0  0  0  0  0
    0.6411   -3.6702    0.0000 H   0  0  0  0  0  0  0  0  0  0  0  0
    2.2131   -2.6816    0.0000 H   0  0  0  0  0  0  0  0  0  0  0  0
    0.3231   -0.8756    0.0000 H   0  0  0  0  0  0  0  0  0  0  0  0
    1.2289   -0.3060    0.0000 H   0  0  0  0  0  0  0  0  0  0  0  0
    2.9139   -1.4356    0.0000 H   0  0  0  0  0  0  0  0  0  0  0  0
    2.8735   -0.3663    0.0000 H   0  0  0  0  0  0  0  0  0  0  0  0
    0.9903    0.3880    0.0000 H   0  0  0  0  0  0  0  0  0  0  0  0
    1.8961    0.9576    0.0000 H   0  0  0  0  0  0  0  0  0  0  0  0
    3.5811   -0.1721    0.0000 H   0  0  0  0  0  0  0  0  0  0  0  0
    3.5407    0.8972    0.0000 H   0  0  0  0  0  0  0  0  0  0  0  0
    1.6576    1.6516    0.0000 H   0  0  0  0  0  0  0  0  0  0  0  0
    2.5634    2.2212    0.0000 H   0  0  0  0  0  0  0  0  0  0  0  0
    4.2483    1.0916    0.0000 H   0  0  0  0  0  0  0  0  0  0  0  0
    4.2079    2.1608    0.0000 H   0  0  0  0  0  0  0  0  0  0  0  0
    2.3248    2.9152    0.0000 H   0  0  0  0  0  0  0  0  0  0  0  0
    3.2305    3.4848    0.0000 H   0  0  0  0  0  0  0  0  0  0  0  0
    4.9156    2.3554    0.0000 H   0  0  0  0  0  0  0  0  0  0  0  0
    3.9289    3.9241    0.0000 H   0  0  0  0  0  0  0  0  0  0  0  0
    4.8751    3.4246    0.0000 H   0  0  0  0  0  0  0  0  0  0  0  0
  1 21  1  0  0  0  0
  2  3  1  0  0  0  0
  2 22  1  0  0  0  0
  2 23  1  0  0  0  0
  3  4  1  0  0  0  0
  3 24  1  0  0  0  0
  3 25  1  0  0  0  0
  4  5  1  0  0  0  0
  4 26  1  0  0  0  0
  4 27  1  0  0  0  0
  5  6  1  0  0  0  0
  5 28  1  0  0  0  0
  5 29  1  0  0  0  0
  6  7  1  0  0  0  0
  6 30  1  0  0  0  0
  6 31  1  0  0  0  0
  7  8  1  0  0  0  0
  7 32  1  0  0  0  0
  7 33  1  0  0  0  0
  8  9  1  0  0  0  0
  8 34  1  0  0  0  0
  8 35  1  0  0  0  0
  9 10  1  0  0  0  0
  9 36  1  0  0  0  0
  9 37  1  0  0  0  0
 10 11  1  0  0  0  0
 10 38  1  0  0  0  0
 10 39  1  0  0  0  0
 11 12  2  0  0  0  0
 11 40  1  0  0  0  0
 12 13  1  0  0  0  0
 12 41  1  0  0  0  0
 13 14  1  0  0  0  0
 13 42  1  0  0  0  0
 13 43  1  0  0  0  0
 14 15  1  0  0  0  0
 14 44  1  0  0  0  0
 14 45  1  0  0  0  0
 15 16  1  0  0  0  0
 15 46  1  0  0  0  0
 15 47  1  0  0  0  0
 16 17  1  0  0  0  0
 16 48  1  0  0  0  0
 16 49  1  0  0  0  0
 17 18  1  0  0  0  0
 17 50  1  0  0  0  0
 17 51  1  0  0  0  0
 18 19  1  0  0  0  0
 18 52  1  0  0  0  0
 18 53  1  0  0  0  0
 19 20  1  0  0  0  0
 19 54  1  0  0  0  0
 19 55  1  0  0  0  0
 20 56  1  0  0  0  0
 20 57  1  0  0  0  0
 20 58  1  0  0  0  0
M  END
>  <DRUGBANK_ID>
DB16622

>  <COMMON_NAME>
Dectaflur

>  <CAS_NUMBER>
7333-84-8

>  <UNII>
Q3B1Y93C1S

>  <SYNONYMS>
Dectaflur; Oleylamine HF; Oleylamine hydrofluoride; Oleylaminhydrofluorid

$$$$
