1170
 OpenBabel10282417072D

 36 36  0  0  0  0  0  0  0  0999 V2000
    3.1524    1.0049    0.0000 N   0  0  0  0  0  0  0  0  0  0  0  0
    3.2816   -1.1741    0.0000 N   0  0  0  0  0  0  0  0  0  0  0  0
    3.0951   -2.5908    0.0000 N   0  0  0  0  0  0  0  0  0  0  0  0
    1.9614   -1.7209    0.0000 N   0  0  0  0  0  0  0  0  0  0  0  0
    2.3273    1.0049    0.0000 C   0  0  0  0  0  0  0  0  0  0  0  0
    3.7357    1.5882    0.0000 C   0  0  0  0  0  0  0  0  0  0  0  0
    1.7440    1.5882    0.0000 C   0  0  0  0  0  0  0  0  0  0  0  0
    3.7357    2.4132    0.0000 C   0  0  0  0  0  0  0  0  0  0  0  0
    1.7440    2.4132    0.0000 C   0  0  0  0  0  0  0  0  0  0  0  0
    3.1524    2.9966    0.0000 C   0  0  0  0  0  0  0  0  0  0  0  0
    2.3273    2.9966    0.0000 C   0  0  0  0  0  0  0  0  0  0  0  0
    3.4681    0.2426    0.0000 C   0  0  0  0  0  0  0  0  0  0  0  0
    2.9659   -0.4118    0.0000 C   0  0  0  0  0  0  0  0  0  0  0  0
    2.7794   -1.8286    0.0000 C   0  0  0  0  0  0  0  0  0  0  0  0
    2.4958   -3.3718    0.0000 H   0  0  0  0  0  0  0  0  0  0  0  0
    4.0712   -2.7193    0.0000 H   0  0  0  0  0  0  0  0  0  0  0  0
    1.5847   -0.8113    0.0000 H   0  0  0  0  0  0  0  0  0  0  0  0
    1.3621   -2.5020    0.0000 H   0  0  0  0  0  0  0  0  0  0  0  0
    1.9178    0.0163    0.0000 H   0  0  0  0  0  0  0  0  0  0  0  0
    1.2779    0.7962    0.0000 H   0  0  0  0  0  0  0  0  0  0  0  0
    4.7243    1.1787    0.0000 H   0  0  0  0  0  0  0  0  0  0  0  0
    4.6254    2.1827    0.0000 H   0  0  0  0  0  0  0  0  0  0  0  0
    0.7554    1.1787    0.0000 H   0  0  0  0  0  0  0  0  0  0  0  0
    0.8543    2.1827    0.0000 H   0  0  0  0  0  0  0  0  0  0  0  0
    4.7243    2.8226    0.0000 H   0  0  0  0  0  0  0  0  0  0  0  0
    3.9445    3.4626    0.0000 H   0  0  0  0  0  0  0  0  0  0  0  0
    0.7554    2.8226    0.0000 H   0  0  0  0  0  0  0  0  0  0  0  0
    1.5352    3.4626    0.0000 H   0  0  0  0  0  0  0  0  0  0  0  0
    3.5619    3.9851    0.0000 H   0  0  0  0  0  0  0  0  0  0  0  0
    2.5580    3.8863    0.0000 H   0  0  0  0  0  0  0  0  0  0  0  0
    1.9178    3.9851    0.0000 H   0  0  0  0  0  0  0  0  0  0  0  0
    2.9217    3.8863    0.0000 H   0  0  0  0  0  0  0  0  0  0  0  0
    4.5289    0.1029    0.0000 H   0  0  0  0  0  0  0  0  0  0  0  0
    3.8775   -0.7460    0.0000 H   0  0  0  0  0  0  0  0  0  0  0  0
    1.9051   -0.2721    0.0000 H   0  0  0  0  0  0  0  0  0  0  0  0
    2.5565    0.5768    0.0000 H   0  0  0  0  0  0  0  0  0  0  0  0
  1  5  1  0  0  0  0
  1  6  1  0  0  0  0
  1 12  1  0  0  0  0
  2 13  1  0  0  0  0
  2 14  2  0  0  0  0
  3 14  1  0  0  0  0
  3 15  1  0  0  0  0
  3 16  1  0  0  0  0
  4 14  1  0  0  0  0
  4 17  1  0  0  0  0
  4 18  1  0  0  0  0
  5  7  1  0  0  0  0
  5 19  1  0  0  0  0
  5 20  1  0  0  0  0
  6  8  1  0  0  0  0
  6 21  1  0  0  0  0
  6 22  1  0  0  0  0
  7  9  1  0  0  0  0
  7 23  1  0  0  0  0
  7 24  1  0  0  0  0
  8 10  1  0  0  0  0
  8 25  1  0  0  0  0
  8 26  1  0  0  0  0
  9 11  1  0  0  0  0
  9 27  1  0  0  0  0
  9 28  1  0  0  0  0
 10 11  1  0  0  0  0
 10 29  1  0  0  0  0
 10 30  1  0  0  0  0
 11 31  1  0  0  0  0
 11 32  1  0  0  0  0
 12 13  1  0  0  0  0
 12 33  1  0  0  0  0
 12 34  1  0  0  0  0
 13 35  1  0  0  0  0
 13 36  1  0  0  0  0
M  END
>  <DRUGBANK_ID>
DB01170

>  <SECONDARY_ACCESSION_NUMBERS>
APRD01007

>  <COMMON_NAME>
Guanethidine

>  <CAS_NUMBER>
55-65-2

>  <UNII>
ZTI6C33Q2Q

>  <SYNONYMS>
(2-(hexahydro-1(2h)-azocinyl)ethyl)guanidine; (2-(Octahydro-1-azocinyl)ethyl)guanidine; 2-(1-N,N-Heptamethyleneimino)ethylguanidine; 2-(1'-Azacyclooctyl)ethylguanidine; Azocine, 1-(2-guanidinoethyl)octahydro-; Guanethidine; guan√©thidine; guanethidinum; guanetidina; Guanidine, (2-(hexahydro-1(2H)-azocinyl)ethyl)-; Heptamethylenimine, 1-(2-guanidinoethyl)-; N-(2-Perhydroazocin-1-ylethyl)guanidine

$$$$
