1298
 OpenBabel10282417072D

 34 35  0  0  0  0  0  0  0  0999 V2000
    3.7935    0.9818    0.0000 S   0  0  0  0  0  0  0  0  0  0  0  0
    4.2060    0.2673    0.0000 O   0  0  0  0  0  0  0  0  0  0  0  0
    3.3810    1.6962    0.0000 O   0  0  0  0  0  0  0  0  0  0  0  0
    1.6500   -1.9058    0.0000 O   0  0  0  0  0  0  0  0  0  0  0  0
    3.0791   -1.9058    0.0000 N   0  0  0  0  0  0  0  0  0  0  0  0
    3.0791    0.5693    0.0000 N   0  0  0  0  0  0  0  0  0  0  0  0
    2.3645   -0.6683    0.0000 N   0  0  0  0  0  0  0  0  0  0  0  0
    6.6515    2.6318    0.0000 N   0  0  0  0  0  0  0  0  0  0  0  0
    4.5080    1.3943    0.0000 C   0  0  0  0  0  0  0  0  0  0  0  0
    3.0791   -0.2558    0.0000 C   0  0  0  0  0  0  0  0  0  0  0  0
    3.0791   -2.7308    0.0000 C   0  0  0  0  0  0  0  0  0  0  0  0
    3.7935   -1.4933    0.0000 C   0  0  0  0  0  0  0  0  0  0  0  0
    3.7935   -0.6683    0.0000 C   0  0  0  0  0  0  0  0  0  0  0  0
    5.2224    0.9818    0.0000 C   0  0  0  0  0  0  0  0  0  0  0  0
    4.5080    2.2193    0.0000 C   0  0  0  0  0  0  0  0  0  0  0  0
    2.3645   -1.4933    0.0000 C   0  0  0  0  0  0  0  0  0  0  0  0
    5.9370    1.3943    0.0000 C   0  0  0  0  0  0  0  0  0  0  0  0
    5.2224    2.6318    0.0000 C   0  0  0  0  0  0  0  0  0  0  0  0
    5.9370    2.2193    0.0000 C   0  0  0  0  0  0  0  0  0  0  0  0
    3.7935   -3.1433    0.0000 C   0  0  0  0  0  0  0  0  0  0  0  0
    2.2265    1.0615    0.0000 H   0  0  0  0  0  0  0  0  0  0  0  0
    7.5041    2.1395    0.0000 H   0  0  0  0  0  0  0  0  0  0  0  0
    6.6515    3.6163    0.0000 H   0  0  0  0  0  0  0  0  0  0  0  0
    2.1524   -3.2658    0.0000 H   0  0  0  0  0  0  0  0  0  0  0  0
    3.0791   -3.8008    0.0000 H   0  0  0  0  0  0  0  0  0  0  0  0
    4.6872   -2.0093    0.0000 H   0  0  0  0  0  0  0  0  0  0  0  0
    4.6872   -0.1523    0.0000 H   0  0  0  0  0  0  0  0  0  0  0  0
    5.2223   -0.0502    0.0000 H   0  0  0  0  0  0  0  0  0  0  0  0
    3.6143    2.7353    0.0000 H   0  0  0  0  0  0  0  0  0  0  0  0
    6.8307    0.8783    0.0000 H   0  0  0  0  0  0  0  0  0  0  0  0
    5.2223    3.6638    0.0000 H   0  0  0  0  0  0  0  0  0  0  0  0
    3.7935   -4.2133    0.0000 H   0  0  0  0  0  0  0  0  0  0  0  0
    4.7202   -2.6083    0.0000 H   0  0  0  0  0  0  0  0  0  0  0  0
    4.7201   -3.6783    0.0000 H   0  0  0  0  0  0  0  0  0  0  0  0
  1  2  2  0  0  0  0
  1  3  2  0  0  0  0
  1  6  1  0  0  0  0
  1  9  1  0  0  0  0
  4 16  2  0  0  0  0
  5 11  1  0  0  0  0
  5 12  1  0  0  0  0
  5 16  1  0  0  0  0
  6 10  1  0  0  0  0
  6 21  1  0  0  0  0
  7 10  2  0  0  0  0
  7 16  1  0  0  0  0
  8 19  1  0  0  0  0
  8 22  1  0  0  0  0
  8 23  1  0  0  0  0
  9 14  2  0  0  0  0
  9 15  1  0  0  0  0
 10 13  1  0  0  0  0
 11 20  1  0  0  0  0
 11 24  1  0  0  0  0
 11 25  1  0  0  0  0
 12 13  2  0  0  0  0
 12 26  1  0  0  0  0
 13 27  1  0  0  0  0
 14 17  1  0  0  0  0
 14 28  1  0  0  0  0
 15 18  2  0  0  0  0
 15 29  1  0  0  0  0
 17 19  2  0  0  0  0
 17 30  1  0  0  0  0
 18 19  1  0  0  0  0
 18 31  1  0  0  0  0
 20 32  1  0  0  0  0
 20 33  1  0  0  0  0
 20 34  1  0  0  0  0
M  END
>  <DRUGBANK_ID>
DB01298

>  <COMMON_NAME>
Sulfacytine

>  <CAS_NUMBER>
17784-12-2

>  <UNII>
T795873AJP

>  <SYNONYMS>
1-ethyl N4-sulfanilylcytosin; 1-ethyl-N-sulfanilylcytosine; Sulfacitina; Sulfacitine; Sulfacitinum; Sulfacytine

$$$$
