42647297
 OpenBabel10282417072D

 54 58  0  0  0  0  0  0  0  0999 V2000
    9.8717    0.7539    0.0000 F   0  0  0  0  0  0  0  0  0  0  0  0
    9.2823    3.5504    0.0000 F   0  0  0  0  0  0  0  0  0  0  0  0
    3.9040   -1.0753    0.0000 O   0  0  0  0  0  0  0  0  0  0  0  0
    5.3330    0.5747    0.0000 O   0  0  0  0  0  0  0  0  0  0  0  0
    3.1895   -2.3129    0.0000 N   0  0  0  0  0  0  0  0  0  0  0  0
    6.7620   -1.9003    0.0000 N   0  0  0  0  0  0  0  0  0  0  0  0
    6.7620    0.5747    0.0000 N   0  0  0  0  0  0  0  0  0  0  0  0
    8.2571    0.4136    0.0000 N   0  0  0  0  0  0  0  0  0  0  0  0
    8.7386   -0.2503    0.0000 N   0  0  0  0  0  0  0  0  0  0  0  0
    2.4751   -1.9003    0.0000 C   0  0  0  0  0  0  0  0  0  0  0  0
    2.0625   -1.1859    0.0000 C   0  0  0  0  0  0  0  0  0  0  0  0
    1.6500   -1.9003    0.0000 C   0  0  0  0  0  0  0  0  0  0  0  0
    3.9040   -1.9003    0.0000 C   0  0  0  0  0  0  0  0  0  0  0  0
    4.6185   -2.3129    0.0000 C   0  0  0  0  0  0  0  0  0  0  0  0
    5.3330   -1.9003    0.0000 C   0  0  0  0  0  0  0  0  0  0  0  0
    6.0475   -2.3129    0.0000 C   0  0  0  0  0  0  0  0  0  0  0  0
    7.4765    0.1622    0.0000 C   0  0  0  0  0  0  0  0  0  0  0  0
    7.4765   -0.6628    0.0000 C   0  0  0  0  0  0  0  0  0  0  0  0
    4.6185   -3.1379    0.0000 C   0  0  0  0  0  0  0  0  0  0  0  0
    6.7620   -1.0753    0.0000 C   0  0  0  0  0  0  0  0  0  0  0  0
    6.0475   -3.1379    0.0000 C   0  0  0  0  0  0  0  0  0  0  0  0
    5.3330   -3.5504    0.0000 C   0  0  0  0  0  0  0  0  0  0  0  0
    6.0475   -0.6628    0.0000 C   0  0  0  0  0  0  0  0  0  0  0  0
    6.0475    0.1622    0.0000 C   0  0  0  0  0  0  0  0  0  0  0  0
    8.2571   -0.9142    0.0000 C   0  0  0  0  0  0  0  0  0  0  0  0
    8.5134    1.1978    0.0000 C   0  0  0  0  0  0  0  0  0  0  0  0
    6.7620    1.3997    0.0000 C   0  0  0  0  0  0  0  0  0  0  0  0
    6.7620   -3.5504    0.0000 C   0  0  0  0  0  0  0  0  0  0  0  0
    9.3207    1.3680    0.0000 C   0  0  0  0  0  0  0  0  0  0  0  0
    7.9624    1.8119    0.0000 C   0  0  0  0  0  0  0  0  0  0  0  0
    9.5770    2.1521    0.0000 C   0  0  0  0  0  0  0  0  0  0  0  0
    8.2187    2.5961    0.0000 C   0  0  0  0  0  0  0  0  0  0  0  0
    9.0260    2.7662    0.0000 C   0  0  0  0  0  0  0  0  0  0  0  0
    3.1895   -3.2974    0.0000 H   0  0  0  0  0  0  0  0  0  0  0  0
    7.6146   -2.3925    0.0000 H   0  0  0  0  0  0  0  0  0  0  0  0
    1.5484   -1.3654    0.0000 H   0  0  0  0  0  0  0  0  0  0  0  0
    2.0624   -0.1159    0.0000 H   0  0  0  0  0  0  0  0  0  0  0  0
    1.0290   -0.9090    0.0000 H   0  0  0  0  0  0  0  0  0  0  0  0
    0.7233   -2.4353    0.0000 H   0  0  0  0  0  0  0  0  0  0  0  0
    0.8934   -1.1437    0.0000 H   0  0  0  0  0  0  0  0  0  0  0  0
    5.3330   -0.8683    0.0000 H   0  0  0  0  0  0  0  0  0  0  0  0
    3.7248   -3.6539    0.0000 H   0  0  0  0  0  0  0  0  0  0  0  0
    5.3330   -4.5824    0.0000 H   0  0  0  0  0  0  0  0  0  0  0  0
    5.1538   -1.1788    0.0000 H   0  0  0  0  0  0  0  0  0  0  0  0
    8.5777   -1.8951    0.0000 H   0  0  0  0  0  0  0  0  0  0  0  0
    7.6886    1.9347    0.0000 H   0  0  0  0  0  0  0  0  0  0  0  0
    5.8354    1.9347    0.0000 H   0  0  0  0  0  0  0  0  0  0  0  0
    6.7620    2.4697    0.0000 H   0  0  0  0  0  0  0  0  0  0  0  0
    6.7620   -4.6204    0.0000 H   0  0  0  0  0  0  0  0  0  0  0  0
    7.6886   -3.0154    0.0000 H   0  0  0  0  0  0  0  0  0  0  0  0
    7.6887   -4.0854    0.0000 H   0  0  0  0  0  0  0  0  0  0  0  0
    6.9526    1.5991    0.0000 H   0  0  0  0  0  0  0  0  0  0  0  0
   10.5868    2.3649    0.0000 H   0  0  0  0  0  0  0  0  0  0  0  0
    7.5295    3.3642    0.0000 H   0  0  0  0  0  0  0  0  0  0  0  0
  1 29  1  0  0  0  0
  2 33  1  0  0  0  0
  3 13  2  0  0  0  0
  4 24  2  0  0  0  0
  5 10  1  0  0  0  0
  5 13  1  0  0  0  0
  5 34  1  0  0  0  0
  6 16  1  0  0  0  0
  6 20  1  0  0  0  0
  6 35  1  0  0  0  0
  7 17  1  0  0  0  0
  7 24  1  0  0  0  0
  7 27  1  0  0  0  0
  8  9  1  0  0  0  0
  8 17  1  0  0  0  0
  8 26  1  0  0  0  0
  9 25  2  0  0  0  0
 10 11  1  0  0  0  0
 10 12  1  0  0  0  0
 10 36  1  0  0  0  0
 11 12  1  0  0  0  0
 11 37  1  0  0  0  0
 11 38  1  0  0  0  0
 12 39  1  0  0  0  0
 12 40  1  0  0  0  0
 13 14  1  0  0  0  0
 14 15  2  0  0  0  0
 14 19  1  0  0  0  0
 15 16  1  0  0  0  0
 15 41  1  0  0  0  0
 16 21  2  0  0  0  0
 17 18  2  0  0  0  0
 18 20  1  0  0  0  0
 18 25  1  0  0  0  0
 19 22  2  0  0  0  0
 19 42  1  0  0  0  0
 20 23  2  0  0  0  0
 21 22  1  0  0  0  0
 21 28  1  0  0  0  0
 22 43  1  0  0  0  0
 23 24  1  0  0  0  0
 23 44  1  0  0  0  0
 25 45  1  0  0  0  0
 26 29  2  0  0  0  0
 26 30  1  0  0  0  0
 27 46  1  0  0  0  0
 27 47  1  0  0  0  0
 27 48  1  0  0  0  0
 28 49  1  0  0  0  0
 28 50  1  0  0  0  0
 28 51  1  0  0  0  0
 29 31  1  0  0  0  0
 30 32  2  0  0  0  0
 30 52  1  0  0  0  0
 31 33  2  0  0  0  0
 31 53  1  0  0  0  0
 32 33  1  0  0  0  0
 32 54  1  0  0  0  0
M  END
>  <DRUGBANK_ID>
DB08349

>  <COMMON_NAME>
N-cyclopropyl-3-{[1-(2,4-difluorophenyl)-7-methyl-6-oxo-6,7-dihydro-1H-pyrazolo[3,4-b]pyridin-4-yl]amino}-4-methylbenzamide

$$$$
