SNR
 OpenBabel10282417072D

 29 30  0  0  0  0  0  0  0  0999 V2000
   -2.2438    0.6106    0.0000 C   0  0  0  0  0  0  0  0  0  0  0  0
   -2.3301   -0.2098    0.0000 N   0  0  0  0  0  0  0  0  0  0  0  0
   -1.5764   -0.5454    0.0000 C   0  0  2  0  0  0  0  0  0  0  0  0
   -1.0244    0.0677    0.0000 C   0  0  2  0  0  0  0  0  0  0  0  0
   -1.4369    0.7822    0.0000 N   0  0  0  0  0  0  0  0  0  0  0  0
   -0.2707   -0.2679    0.0000 C   0  0  1  0  0  0  0  0  0  0  0  0
   -0.3569   -1.0884    0.0000 S   0  0  0  0  0  0  0  0  0  0  0  0
   -1.1639   -1.2599    0.0000 C   0  0  0  0  0  0  0  0  0  0  0  0
   -2.8569    1.1627    0.0000 O   0  0  0  0  0  0  0  0  0  0  0  0
    0.4438    0.1446    0.0000 C   0  0  0  0  0  0  0  0  0  0  0  0
    1.1583   -0.2679    0.0000 C   0  0  0  0  0  0  0  0  0  0  0  0
    1.8727    0.1446    0.0000 C   0  0  0  0  0  0  0  0  0  0  0  0
    2.5872   -0.2679    0.0000 C   0  0  0  0  0  0  0  0  0  0  0  0
    3.3017    0.1446    0.0000 O   0  0  0  0  0  0  0  0  0  0  0  0
    2.5872   -1.0929    0.0000 O   0  0  0  0  0  0  0  0  0  0  0  0
   -1.9671   -0.9794    0.0000 H   0  0  0  0  0  0  0  0  0  0  0  0
   -0.6336    0.5016    0.0000 H   0  0  0  0  0  0  0  0  0  0  0  0
   -0.3012    0.3153    0.0000 H   0  0  0  0  0  0  0  0  0  0  0  0
   -3.1827   -0.7020    0.0000 H   0  0  0  0  0  0  0  0  0  0  0  0
   -1.0365    1.6816    0.0000 H   0  0  0  0  0  0  0  0  0  0  0  0
   -1.5991   -2.2374    0.0000 H   0  0  0  0  0  0  0  0  0  0  0  0
   -0.4906   -2.0915    0.0000 H   0  0  0  0  0  0  0  0  0  0  0  0
    0.4438    1.2146    0.0000 H   0  0  0  0  0  0  0  0  0  0  0  0
    1.3704    0.6796    0.0000 H   0  0  0  0  0  0  0  0  0  0  0  0
    1.1583   -1.3379    0.0000 H   0  0  0  0  0  0  0  0  0  0  0  0
    2.0850   -0.8029    0.0000 H   0  0  0  0  0  0  0  0  0  0  0  0
    1.8727    1.2146    0.0000 H   0  0  0  0  0  0  0  0  0  0  0  0
    2.7993    0.6796    0.0000 H   0  0  0  0  0  0  0  0  0  0  0  0
    4.1132   -0.3239    0.0000 H   0  0  0  0  0  0  0  0  0  0  0  0
  1  2  1  0  0  0  0
  1  5  1  0  0  0  0
  1  9  2  0  0  0  0
  2  3  1  0  0  0  0
  2 19  1  0  0  0  0
  3  4  1  0  0  0  0
  3  8  1  0  0  0  0
  3 16  1  1  0  0  0
  4  5  1  0  0  0  0
  4  6  1  0  0  0  0
  4 17  1  1  0  0  0
  5 20  1  0  0  0  0
  6  7  1  0  0  0  0
  6 10  1  0  0  0  0
  6 18  1  1  0  0  0
  7  8  1  0  0  0  0
  8 21  1  0  0  0  0
  8 22  1  0  0  0  0
 10 11  1  0  0  0  0
 10 23  1  0  0  0  0
 10 24  1  0  0  0  0
 11 12  1  0  0  0  0
 11 25  1  0  0  0  0
 11 26  1  0  0  0  0
 12 13  1  0  0  0  0
 12 27  1  0  0  0  0
 12 28  1  0  0  0  0
 13 14  1  0  0  0  0
 13 15  2  0  0  0  0
 14 29  1  0  0  0  0
M  END
>  <DRUGBANK_ID>
DB02674

>  <SECONDARY_ACCESSION_NUMBERS>
EXPT02932

>  <COMMON_NAME>
4-(2-Oxo-Hexahydro-Thieno[3,4-D]Imidazol-4-Yl)-Butyricacid

$$$$
