
 OpenBabel10282417072D

  4  3  0  0  0  0  0  0  0  0999 V2000
    0.0000    0.0000    0.0000 Zr  0  0  0  0  0  0  0  0  0  0  0  0
   -0.8250    0.0000    0.0000 O   0  0  0  0  0  0  0  0  0  0  0  0
    0.8250    0.0000    0.0000 Cl  0  0  0  0  0  0  0  0  0  0  0  0
   -1.3100    0.8400    0.0000 H   0  0  0  0  0  0  0  0  0  0  0  0
  1  2  1  0  0  0  0
  1  3  1  0  0  0  0
  2  4  1  0  0  0  0
M  END
>  <DRUGBANK_ID>
DB15479

>  <COMMON_NAME>
Zirconium chloride hydroxide

>  <CAS_NUMBER>
10119-31-0

>  <UNII>
R7EF6G80G1

>  <SYNONYMS>
Zirconium chlorohydrate; Zirconium hydroxychloride; Zirconyl hydroxychloride

$$$$
