287
 OpenBabel10282417072D

 61 62  0  0  1  0  0  0  0  0999 V2000
   10.0142    3.6771    0.0000 F   0  0  0  0  0  0  0  0  0  0  0  0
   11.6641    3.6771    0.0000 F   0  0  0  0  0  0  0  0  0  0  0  0
   10.8392    4.5021    0.0000 F   0  0  0  0  0  0  0  0  0  0  0  0
    7.0838   -4.0348    0.0000 O   0  0  0  0  0  0  0  0  0  0  0  0
    9.4334   -2.3278    0.0000 O   0  0  0  0  0  0  0  0  0  0  0  0
    7.9813    0.3771    0.0000 O   0  0  0  0  0  0  0  0  0  0  0  0
    9.4103    1.2021    0.0000 O   0  0  0  0  0  0  0  0  0  0  0  0
    2.6062   -1.0532    0.0000 O   0  0  0  0  0  0  0  0  0  0  0  0
    7.3139   -2.5828    0.0000 C   0  0  2  0  0  0  0  0  0  0  0  0
    7.9813   -2.0979    0.0000 C   0  0  2  0  0  0  0  0  0  0  0  0
    7.5688   -3.3674    0.0000 C   0  0  2  0  0  0  0  0  0  0  0  0
    8.6487   -2.5828    0.0000 C   0  0  1  0  0  0  0  0  0  0  0  0
    8.3938   -3.3674    0.0000 C   0  0  0  0  0  0  0  0  0  0  0  0
    6.5293   -2.3278    0.0000 C   0  0  0  0  0  0  0  0  0  0  0  0
    7.9813   -1.2729    0.0000 C   0  0  0  0  0  0  0  0  0  0  0  0
    5.9162   -2.8799    0.0000 C   0  0  0  0  0  0  0  0  0  0  0  0
    8.6958   -0.8604    0.0000 C   0  0  0  0  0  0  0  0  0  0  0  0
    8.6958   -0.0354    0.0000 C   0  0  2  0  0  0  0  0  0  0  0  0
    5.1315   -2.6250    0.0000 C   0  0  0  0  0  0  0  0  0  0  0  0
    4.9600   -1.8180    0.0000 C   0  0  0  0  0  0  0  0  0  0  0  0
    9.4103    0.3771    0.0000 C   0  0  0  0  0  0  0  0  0  0  0  0
    4.1754   -1.5631    0.0000 C   0  0  0  0  0  0  0  0  0  0  0  0
    4.0039   -0.7560    0.0000 C   0  0  0  0  0  0  0  0  0  0  0  0
   10.1247    1.6146    0.0000 C   0  0  0  0  0  0  0  0  0  0  0  0
    3.2192   -0.5011    0.0000 C   0  0  0  0  0  0  0  0  0  0  0  0
   10.1247    2.4396    0.0000 C   0  0  0  0  0  0  0  0  0  0  0  0
   10.8392    1.2021    0.0000 C   0  0  0  0  0  0  0  0  0  0  0  0
   10.8392    2.8521    0.0000 C   0  0  0  0  0  0  0  0  0  0  0  0
   11.5538    1.6146    0.0000 C   0  0  0  0  0  0  0  0  0  0  0  0
   11.5538    2.4396    0.0000 C   0  0  0  0  0  0  0  0  0  0  0  0
   10.8392    3.6771    0.0000 C   0  0  0  0  0  0  0  0  0  0  0  0
    3.0475    0.3058    0.0000 O   0  0  0  0  0  0  0  0  0  0  0  0
    6.1191   -3.9333    0.0000 H   0  0  0  0  0  0  0  0  0  0  0  0
   10.1543   -2.9768    0.0000 H   0  0  0  0  0  0  0  0  0  0  0  0
    7.9813    1.3471    0.0000 H   0  0  0  0  0  0  0  0  0  0  0  0
    7.1466   -1.5260    0.0000 H   0  0  0  0  0  0  0  0  0  0  0  0
    7.0279   -1.6121    0.0000 H   0  0  0  0  0  0  0  0  0  0  0  0
    6.5120   -3.1999    0.0000 H   0  0  0  0  0  0  0  0  0  0  0  0
    8.8161   -1.5260    0.0000 H   0  0  0  0  0  0  0  0  0  0  0  0
    9.0227   -4.2330    0.0000 H   0  0  0  0  0  0  0  0  0  0  0  0
    9.4506   -3.2000    0.0000 H   0  0  0  0  0  0  0  0  0  0  0  0
    6.3068   -1.2812    0.0000 H   0  0  0  0  0  0  0  0  0  0  0  0
    5.5117   -1.9972    0.0000 H   0  0  0  0  0  0  0  0  0  0  0  0
    7.0876   -0.7569    0.0000 H   0  0  0  0  0  0  0  0  0  0  0  0
    6.1308   -3.8893    0.0000 H   0  0  0  0  0  0  0  0  0  0  0  0
    9.5895   -1.3764    0.0000 H   0  0  0  0  0  0  0  0  0  0  0  0
    7.7692   -0.5704    0.0000 H   0  0  0  0  0  0  0  0  0  0  0  0
    4.3646   -3.3156    0.0000 H   0  0  0  0  0  0  0  0  0  0  0  0
    5.7552   -1.1020    0.0000 H   0  0  0  0  0  0  0  0  0  0  0  0
    4.7375   -0.7714    0.0000 H   0  0  0  0  0  0  0  0  0  0  0  0
   10.3369   -0.1579    0.0000 H   0  0  0  0  0  0  0  0  0  0  0  0
    9.4103   -0.6929    0.0000 H   0  0  0  0  0  0  0  0  0  0  0  0
    3.3802   -2.2791    0.0000 H   0  0  0  0  0  0  0  0  0  0  0  0
    3.1578   -1.2324    0.0000 H   0  0  0  0  0  0  0  0  0  0  0  0
    4.7991   -0.0400    0.0000 H   0  0  0  0  0  0  0  0  0  0  0  0
    3.7814    0.2906    0.0000 H   0  0  0  0  0  0  0  0  0  0  0  0
    9.2310    2.9556    0.0000 H   0  0  0  0  0  0  0  0  0  0  0  0
   10.8392    0.1701    0.0000 H   0  0  0  0  0  0  0  0  0  0  0  0
   12.4475    1.0986    0.0000 H   0  0  0  0  0  0  0  0  0  0  0  0
   12.4475    2.9556    0.0000 H   0  0  0  0  0  0  0  0  0  0  0  0
    3.7437    0.9329    0.0000 H   0  0  0  0  0  0  0  0  0  0  0  0
  1 31  1  0  0  0  0
  2 31  1  0  0  0  0
  3 31  1  0  0  0  0
  4 33  1  0  0  0  0
  5 34  1  0  0  0  0
  6 35  1  0  0  0  0
  7 21  1  0  0  0  0
  7 24  1  0  0  0  0
  8 25  2  0  0  0  0
  9 10  1  0  0  0  0
  9 11  1  0  0  0  0
  9 14  1  0  0  0  0
  9 36  1  1  0  0  0
 10 12  1  0  0  0  0
 10 15  1  0  0  0  0
 10 37  1  6  0  0  0
 11  4  1  0  0  0  0
 11 13  1  0  0  0  0
 11 38  1  1  0  0  0
 12  5  1  0  0  0  0
 12 13  1  0  0  0  0
 12 39  1  1  0  0  0
 13 40  1  0  0  0  0
 13 41  1  0  0  0  0
 14 16  1  0  0  0  0
 14 42  1  0  0  0  0
 14 43  1  0  0  0  0
 15 17  2  0  0  0  0
 15 44  1  0  0  0  0
 16 19  2  0  0  0  0
 16 45  1  0  0  0  0
 17 18  1  0  0  0  0
 17 46  1  0  0  0  0
 18  6  1  0  0  0  0
 18 21  1  0  0  0  0
 18 47  1  6  0  0  0
 19 20  1  0  0  0  0
 19 48  1  0  0  0  0
 20 22  1  0  0  0  0
 20 49  1  0  0  0  0
 20 50  1  0  0  0  0
 21 51  1  0  0  0  0
 21 52  1  0  0  0  0
 22 23  1  0  0  0  0
 22 53  1  0  0  0  0
 22 54  1  0  0  0  0
 23 25  1  0  0  0  0
 23 55  1  0  0  0  0
 23 56  1  0  0  0  0
 24 26  1  0  0  0  0
 24 27  2  0  0  0  0
 25 32  1  0  0  0  0
 26 28  2  0  0  0  0
 26 57  1  0  0  0  0
 27 29  1  0  0  0  0
 27 58  1  0  0  0  0
 28 30  1  0  0  0  0
 28 31  1  0  0  0  0
 29 30  2  0  0  0  0
 29 59  1  0  0  0  0
 30 60  1  0  0  0  0
 32 61  1  0  0  0  0
M  END
>  <DRUGBANK_ID>
DB11519

>  <COMMON_NAME>
Fluprostenol

>  <CAS_NUMBER>
40666-16-8

>  <UNII>
358S7VUE5N

>  <SYNONYMS>
Fluprostenol; Fluprostenolum; Travoprost acid; Travoprost free acid

$$$$
