
 OpenBabel10282417072D

212212  0  0  1  0  0  0  0  0999 V2000
   -0.1843   -1.1834    0.0000 C   0  0  0  0  0  0  0  0  0  0  0  0
   -1.0084   -1.1442    0.0000 C   0  0  0  0  0  0  0  0  0  0  0  0
   -1.3864   -0.4109    0.0000 C   0  0  1  0  0  0  0  0  0  0  0  0
   -0.9404    0.2832    0.0000 C   0  0  0  0  0  0  0  0  0  0  0  0
   -0.1163    0.2439    0.0000 O   0  0  0  0  0  0  0  0  0  0  0  0
   -1.3184    1.0164    0.0000 N   0  0  0  0  0  0  0  0  0  0  0  0
   -0.6039    1.4289    0.0000 C   0  0  1  0  0  0  0  0  0  0  0  0
   -0.6039    2.2539    0.0000 C   0  0  0  0  0  0  0  0  0  0  0  0
    0.1105    2.6664    0.0000 O   0  0  0  0  0  0  0  0  0  0  0  0
   -1.3184    2.6664    0.0000 N   0  0  0  0  0  0  0  0  0  0  0  0
   -0.9404    3.3997    0.0000 C   0  0  2  0  0  0  0  0  0  0  0  0
   -1.3864    4.0938    0.0000 C   0  0  0  0  0  0  0  0  0  0  0  0
   -1.0084    4.8271    0.0000 O   0  0  0  0  0  0  0  0  0  0  0  0
   -2.2105    4.0545    0.0000 N   0  0  0  0  0  0  0  0  0  0  0  0
   -2.2889    4.8758    0.0000 C   0  0  2  0  0  0  0  0  0  0  0  0
   -3.0393    5.2185    0.0000 C   0  0  0  0  0  0  0  0  0  0  0  0
   -3.1178    6.0398    0.0000 O   0  0  0  0  0  0  0  0  0  0  0  0
   -3.7114    4.7399    0.0000 N   0  0  0  0  0  0  0  0  0  0  0  0
   -4.2213    5.3884    0.0000 C   0  0  2  0  0  0  0  0  0  0  0  0
   -5.0379    5.2710    0.0000 C   0  0  0  0  0  0  0  0  0  0  0  0
   -5.5479    5.9195    0.0000 O   0  0  0  0  0  0  0  0  0  0  0  0
   -5.3446    4.5051    0.0000 N   0  0  0  0  0  0  0  0  0  0  0  0
   -6.1242    4.7750    0.0000 C   0  0  2  0  0  0  0  0  0  0  0  0
   -6.7477    4.2347    0.0000 C   0  0  0  0  0  0  0  0  0  0  0  0
   -7.5273    4.5045    0.0000 O   0  0  0  0  0  0  0  0  0  0  0  0
   -6.5916    3.4246    0.0000 N   0  0  0  0  0  0  0  0  0  0  0  0
   -7.3933    3.2301    0.0000 C   0  0  1  0  0  0  0  0  0  0  0  0
   -7.6257    2.4385    0.0000 C   0  0  0  0  0  0  0  0  0  0  0  0
   -8.4275    2.2440    0.0000 O   0  0  0  0  0  0  0  0  0  0  0  0
   -7.0564    1.8414    0.0000 N   0  0  0  0  0  0  0  0  0  0  0  0
   -7.6257    1.2444    0.0000 C   0  0  2  0  0  0  0  0  0  0  0  0
   -7.3933    0.4528    0.0000 C   0  0  0  0  0  0  0  0  0  0  0  0
   -7.9626   -0.1443    0.0000 O   0  0  0  0  0  0  0  0  0  0  0  0
   -6.5916    0.2583    0.0000 N   0  0  0  0  0  0  0  0  0  0  0  0
   -6.7477   -0.5518    0.0000 C   0  0  2  0  0  0  0  0  0  0  0  0
   -6.1242   -1.0921    0.0000 C   0  0  0  0  0  0  0  0  0  0  0  0
   -6.2803   -1.9022    0.0000 O   0  0  0  0  0  0  0  0  0  0  0  0
   -5.3446   -0.8222    0.0000 N   0  0  0  0  0  0  0  0  0  0  0  0
   -5.0379   -1.5881    0.0000 C   0  0  2  0  0  0  0  0  0  0  0  0
   -4.2213   -1.7056    0.0000 C   0  0  0  0  0  0  0  0  0  0  0  0
   -3.9147   -2.4715    0.0000 O   0  0  0  0  0  0  0  0  0  0  0  0
   -3.7114   -1.0571    0.0000 N   0  0  0  0  0  0  0  0  0  0  0  0
   -3.0393   -1.5356    0.0000 C   0  0  2  0  0  0  0  0  0  0  0  0
   -2.2889   -1.1929    0.0000 C   0  0  0  0  0  0  0  0  0  0  0  0
   -1.6169   -1.6714    0.0000 O   0  0  0  0  0  0  0  0  0  0  0  0
   -2.2105   -0.3716    0.0000 N   0  0  0  0  0  0  0  0  0  0  0  0
   -3.1178   -2.3569    0.0000 C   0  0  1  0  0  0  0  0  0  0  0  0
   -2.4457   -2.8354    0.0000 C   0  0  2  0  0  0  0  0  0  0  0  0
   -2.5242   -3.6567    0.0000 C   0  0  0  0  0  0  0  0  0  0  0  0
   -1.6953   -2.4927    0.0000 C   0  0  0  0  0  0  0  0  0  0  0  0
   -1.0233   -2.9712    0.0000 C   0  0  0  0  0  0  0  0  0  0  0  0
   -1.1017   -3.7925    0.0000 C   0  0  0  0  0  0  0  0  0  0  0  0
   -0.4297   -4.2711    0.0000 C   0  0  0  0  0  0  0  0  0  0  0  0
   -3.7256   -2.9147    0.0000 O   0  0  0  0  0  0  0  0  0  0  0  0
   -3.8288   -0.2405    0.0000 C   0  0  0  0  0  0  0  0  0  0  0  0
   -5.5479   -2.2366    0.0000 C   0  0  0  0  0  0  0  0  0  0  0  0
   -5.2413   -3.0025    0.0000 C   0  0  0  0  0  0  0  0  0  0  0  0
   -6.3608   -2.3773    0.0000 C   0  0  0  0  0  0  0  0  0  0  0  0
   -5.0019   -0.0718    0.0000 C   0  0  0  0  0  0  0  0  0  0  0  0
   -7.5273   -0.8216    0.0000 C   0  0  0  0  0  0  0  0  0  0  0  0
   -7.6834   -1.6317    0.0000 C   0  0  0  0  0  0  0  0  0  0  0  0
   -7.0600   -2.1720    0.0000 C   0  0  0  0  0  0  0  0  0  0  0  0
   -8.4631   -1.9016    0.0000 C   0  0  0  0  0  0  0  0  0  0  0  0
   -5.8975    0.7043    0.0000 C   0  0  0  0  0  0  0  0  0  0  0  0
   -8.4275    1.4389    0.0000 C   0  0  0  0  0  0  0  0  0  0  0  0
   -8.9968    0.8418    0.0000 C   0  0  0  0  0  0  0  0  0  0  0  0
   -8.7644    0.0502    0.0000 C   0  0  0  0  0  0  0  0  0  0  0  0
   -9.7985    1.0363    0.0000 C   0  0  0  0  0  0  0  0  0  0  0  0
   -6.2314    1.8414    0.0000 C   0  0  0  0  0  0  0  0  0  0  0  0
   -7.9626    3.8272    0.0000 C   0  0  0  0  0  0  0  0  0  0  0  0
   -6.2803    5.5850    0.0000 C   0  0  0  0  0  0  0  0  0  0  0  0
   -3.9147    6.1543    0.0000 C   0  0  0  0  0  0  0  0  0  0  0  0
   -4.4247    6.8028    0.0000 C   0  0  0  0  0  0  0  0  0  0  0  0
   -5.2413    6.6854    0.0000 C   0  0  0  0  0  0  0  0  0  0  0  0
   -4.1181    7.5687    0.0000 C   0  0  0  0  0  0  0  0  0  0  0  0
   -3.8288    3.9233    0.0000 C   0  0  0  0  0  0  0  0  0  0  0  0
   -1.6169    5.3543    0.0000 C   0  0  0  0  0  0  0  0  0  0  0  0
   -1.6953    6.1756    0.0000 C   0  0  0  0  0  0  0  0  0  0  0  0
   -0.7972    5.2603    0.0000 C   0  0  0  0  0  0  0  0  0  0  0  0
   -0.1163    3.4390    0.0000 C   0  0  0  0  0  0  0  0  0  0  0  0
    0.2617    4.1723    0.0000 C   0  0  0  0  0  0  0  0  0  0  0  0
    0.9950    3.7942    0.0000 C   0  0  0  0  0  0  0  0  0  0  0  0
   -0.4716    4.5503    0.0000 C   0  0  0  0  0  0  0  0  0  0  0  0
    0.6398    4.9056    0.0000 O   0  0  0  0  0  0  0  0  0  0  0  0
   -2.1100    2.4340    0.0000 C   0  0  0  0  0  0  0  0  0  0  0  0
    0.1105    1.0164    0.0000 S   0  0  0  0  0  0  0  0  0  0  0  0
    0.8250    1.4289    0.0000 C   0  0  0  0  0  0  0  0  0  0  0  0
    1.5395    1.0164    0.0000 C   0  0  0  0  0  0  0  0  0  0  0  0
    2.2539    1.4289    0.0000 N   0  0  0  0  0  0  0  0  0  0  0  0
    2.2539    2.2539    0.0000 C   0  0  0  0  0  0  0  0  0  0  0  0
    2.9684    1.0164    0.0000 C   0  0  0  0  0  0  0  0  0  0  0  0
   -2.1100    1.2489    0.0000 C   0  0  0  0  0  0  0  0  0  0  0  0
    0.3061   -2.1344    0.0000 H   0  0  0  0  0  0  0  0  0  0  0  0
    0.3941   -0.2832    0.0000 H   0  0  0  0  0  0  0  0  0  0  0  0
    0.8845   -1.2342    0.0000 H   0  0  0  0  0  0  0  0  0  0  0  0
   -1.5869   -2.0443    0.0000 H   0  0  0  0  0  0  0  0  0  0  0  0
   -2.0772   -1.0933    0.0000 H   0  0  0  0  0  0  0  0  0  0  0  0
   -0.3176   -0.4618    0.0000 H   0  0  0  0  0  0  0  0  0  0  0  0
   -0.6039    0.3589    0.0000 H   0  0  0  0  0  0  0  0  0  0  0  0
   -0.3619    2.4996    0.0000 H   0  0  0  0  0  0  0  0  0  0  0  0
   -2.8552    3.3105    0.0000 H   0  0  0  0  0  0  0  0  0  0  0  0
   -1.3156    4.4313    0.0000 H   0  0  0  0  0  0  0  0  0  0  0  0
   -3.1622    5.5406    0.0000 H   0  0  0  0  0  0  0  0  0  0  0  0
   -4.9357    3.6095    0.0000 H   0  0  0  0  0  0  0  0  0  0  0  0
   -5.3155    5.4757    0.0000 H   0  0  0  0  0  0  0  0  0  0  0  0
   -5.7634    2.8923    0.0000 H   0  0  0  0  0  0  0  0  0  0  0  0
   -7.0918    4.2568    0.0000 H   0  0  0  0  0  0  0  0  0  0  0  0
   -7.9271    2.2711    0.0000 H   0  0  0  0  0  0  0  0  0  0  0  0
   -7.5564    0.1489    0.0000 H   0  0  0  0  0  0  0  0  0  0  0  0
   -6.0970   -1.4359    0.0000 H   0  0  0  0  0  0  0  0  0  0  0  0
   -4.0126   -1.9801    0.0000 H   0  0  0  0  0  0  0  0  0  0  0  0
   -2.8552    0.3724    0.0000 H   0  0  0  0  0  0  0  0  0  0  0  0
   -3.0516   -3.4248    0.0000 H   0  0  0  0  0  0  0  0  0  0  0  0
   -3.4190   -3.2799    0.0000 H   0  0  0  0  0  0  0  0  0  0  0  0
   -3.4975   -4.1011    0.0000 H   0  0  0  0  0  0  0  0  0  0  0  0
   -1.6527   -4.2774    0.0000 H   0  0  0  0  0  0  0  0  0  0  0  0
   -2.6260   -4.7218    0.0000 H   0  0  0  0  0  0  0  0  0  0  0  0
   -1.5936   -1.4275    0.0000 H   0  0  0  0  0  0  0  0  0  0  0  0
   -0.7220   -2.0482    0.0000 H   0  0  0  0  0  0  0  0  0  0  0  0
   -0.0846   -2.5425    0.0000 H   0  0  0  0  0  0  0  0  0  0  0  0
   -2.0404   -4.2212    0.0000 H   0  0  0  0  0  0  0  0  0  0  0  0
   -0.5315   -5.3362    0.0000 H   0  0  0  0  0  0  0  0  0  0  0  0
    0.5436   -3.8267    0.0000 H   0  0  0  0  0  0  0  0  0  0  0  0
    0.4419   -4.8918    0.0000 H   0  0  0  0  0  0  0  0  0  0  0  0
   -4.6509   -2.6237    0.0000 H   0  0  0  0  0  0  0  0  0  0  0  0
   -2.9877    0.4209    0.0000 H   0  0  0  0  0  0  0  0  0  0  0  0
   -4.8221    0.1572    0.0000 H   0  0  0  0  0  0  0  0  0  0  0  0
   -3.9811    0.8186    0.0000 H   0  0  0  0  0  0  0  0  0  0  0  0
   -6.0696   -3.1708    0.0000 H   0  0  0  0  0  0  0  0  0  0  0  0
   -5.9027   -3.8436    0.0000 H   0  0  0  0  0  0  0  0  0  0  0  0
   -4.1822   -3.1548    0.0000 H   0  0  0  0  0  0  0  0  0  0  0  0
   -4.8436   -3.9959    0.0000 H   0  0  0  0  0  0  0  0  0  0  0  0
   -7.0460   -1.5555    0.0000 H   0  0  0  0  0  0  0  0  0  0  0  0
   -6.7299   -3.3816    0.0000 H   0  0  0  0  0  0  0  0  0  0  0  0
   -7.4151   -2.5598    0.0000 H   0  0  0  0  0  0  0  0  0  0  0  0
   -3.9367    0.0299    0.0000 H   0  0  0  0  0  0  0  0  0  0  0  0
   -5.6226    0.7998    0.0000 H   0  0  0  0  0  0  0  0  0  0  0  0
   -4.5574    0.9015    0.0000 H   0  0  0  0  0  0  0  0  0  0  0  0
   -8.3360   -0.1209    0.0000 H   0  0  0  0  0  0  0  0  0  0  0  0
   -8.5384   -1.1716    0.0000 H   0  0  0  0  0  0  0  0  0  0  0  0
   -7.8859   -2.6824    0.0000 H   0  0  0  0  0  0  0  0  0  0  0  0
   -7.2626   -3.2226    0.0000 H   0  0  0  0  0  0  0  0  0  0  0  0
   -6.0488   -1.8221    0.0000 H   0  0  0  0  0  0  0  0  0  0  0  0
   -6.2514   -2.8728    0.0000 H   0  0  0  0  0  0  0  0  0  0  0  0
   -9.2718   -1.2009    0.0000 H   0  0  0  0  0  0  0  0  0  0  0  0
   -8.6655   -2.9523    0.0000 H   0  0  0  0  0  0  0  0  0  0  0  0
   -9.4742   -2.2516    0.0000 H   0  0  0  0  0  0  0  0  0  0  0  0
   -4.9465    0.2139    0.0000 H   0  0  0  0  0  0  0  0  0  0  0  0
   -5.9483    1.7731    0.0000 H   0  0  0  0  0  0  0  0  0  0  0  0
   -4.9973    1.2827    0.0000 H   0  0  0  0  0  0  0  0  0  0  0  0
   -8.7290    2.4656    0.0000 H   0  0  0  0  0  0  0  0  0  0  0  0
   -9.4673    1.6911    0.0000 H   0  0  0  0  0  0  0  0  0  0  0  0
   -9.7352    0.0674    0.0000 H   0  0  0  0  0  0  0  0  0  0  0  0
   -9.5028   -0.7242    0.0000 H   0  0  0  0  0  0  0  0  0  0  0  0
   -7.7246   -0.2021    0.0000 H   0  0  0  0  0  0  0  0  0  0  0  0
   -8.4630   -0.9765    0.0000 H   0  0  0  0  0  0  0  0  0  0  0  0
  -10.0999    2.0630    0.0000 H   0  0  0  0  0  0  0  0  0  0  0  0
  -10.5369    0.2619    0.0000 H   0  0  0  0  0  0  0  0  0  0  0  0
  -10.8383    1.2886    0.0000 H   0  0  0  0  0  0  0  0  0  0  0  0
   -5.6964    0.9148    0.0000 H   0  0  0  0  0  0  0  0  0  0  0  0
   -5.6964    2.7680    0.0000 H   0  0  0  0  0  0  0  0  0  0  0  0
   -5.1614    1.8414    0.0000 H   0  0  0  0  0  0  0  0  0  0  0  0
   -7.6611    4.8538    0.0000 H   0  0  0  0  0  0  0  0  0  0  0  0
   -9.0024    3.5750    0.0000 H   0  0  0  0  0  0  0  0  0  0  0  0
   -8.7010    4.6016    0.0000 H   0  0  0  0  0  0  0  0  0  0  0  0
   -5.4716    6.2857    0.0000 H   0  0  0  0  0  0  0  0  0  0  0  0
   -7.2914    5.9350    0.0000 H   0  0  0  0  0  0  0  0  0  0  0  0
   -6.4828    6.6357    0.0000 H   0  0  0  0  0  0  0  0  0  0  0  0
   -2.8556    6.3066    0.0000 H   0  0  0  0  0  0  0  0  0  0  0  0
   -3.5170    7.1477    0.0000 H   0  0  0  0  0  0  0  0  0  0  0  0
   -5.0861    7.6439    0.0000 H   0  0  0  0  0  0  0  0  0  0  0  0
   -5.9027    7.5265    0.0000 H   0  0  0  0  0  0  0  0  0  0  0  0
   -5.6390    5.6921    0.0000 H   0  0  0  0  0  0  0  0  0  0  0  0
   -6.3004    6.5331    0.0000 H   0  0  0  0  0  0  0  0  0  0  0  0
   -3.0590    7.7210    0.0000 H   0  0  0  0  0  0  0  0  0  0  0  0
   -4.7795    8.4098    0.0000 H   0  0  0  0  0  0  0  0  0  0  0  0
   -3.7204    8.5621    0.0000 H   0  0  0  0  0  0  0  0  0  0  0  0
   -4.8221    3.5256    0.0000 H   0  0  0  0  0  0  0  0  0  0  0  0
   -2.9877    3.2619    0.0000 H   0  0  0  0  0  0  0  0  0  0  0  0
   -3.9811    2.8642    0.0000 H   0  0  0  0  0  0  0  0  0  0  0  0
   -0.8531    6.1037    0.0000 H   0  0  0  0  0  0  0  0  0  0  0  0
   -0.8237    6.7962    0.0000 H   0  0  0  0  0  0  0  0  0  0  0  0
   -2.6686    6.6201    0.0000 H   0  0  0  0  0  0  0  0  0  0  0  0
   -1.7970    7.2408    0.0000 H   0  0  0  0  0  0  0  0  0  0  0  0
   -0.3713    4.2787    0.0000 H   0  0  0  0  0  0  0  0  0  0  0  0
   -0.1601    6.1200    0.0000 H   0  0  0  0  0  0  0  0  0  0  0  0
    0.2658    5.1384    0.0000 H   0  0  0  0  0  0  0  0  0  0  0  0
    0.4622    2.5389    0.0000 H   0  0  0  0  0  0  0  0  0  0  0  0
    0.9525    3.4900    0.0000 H   0  0  0  0  0  0  0  0  0  0  0  0
    1.0458    2.7254    0.0000 H   0  0  0  0  0  0  0  0  0  0  0  0
    1.8952    4.3726    0.0000 H   0  0  0  0  0  0  0  0  0  0  0  0
    1.9460    3.3038    0.0000 H   0  0  0  0  0  0  0  0  0  0  0  0
   -0.5226    5.6191    0.0000 H   0  0  0  0  0  0  0  0  0  0  0  0
   -1.3717    3.9718    0.0000 H   0  0  0  0  0  0  0  0  0  0  0  0
   -1.4227    5.0406    0.0000 H   0  0  0  0  0  0  0  0  0  0  0  0
    1.6087    4.9517    0.0000 H   0  0  0  0  0  0  0  0  0  0  0  0
   -2.8844    3.1724    0.0000 H   0  0  0  0  0  0  0  0  0  0  0  0
   -2.3623    1.3942    0.0000 H   0  0  0  0  0  0  0  0  0  0  0  0
   -3.1367    2.1326    0.0000 H   0  0  0  0  0  0  0  0  0  0  0  0
    0.8250    2.4989    0.0000 H   0  0  0  0  0  0  0  0  0  0  0  0
    1.7516    1.9639    0.0000 H   0  0  0  0  0  0  0  0  0  0  0  0
    1.5395   -0.0536    0.0000 H   0  0  0  0  0  0  0  0  0  0  0  0
    2.4662    0.4814    0.0000 H   0  0  0  0  0  0  0  0  0  0  0  0
    3.1805    2.7889    0.0000 H   0  0  0  0  0  0  0  0  0  0  0  0
    1.3273    2.7889    0.0000 H   0  0  0  0  0  0  0  0  0  0  0  0
    2.2539    3.3239    0.0000 H   0  0  0  0  0  0  0  0  0  0  0  0
    2.9684   -0.0536    0.0000 H   0  0  0  0  0  0  0  0  0  0  0  0
    3.8950    1.5514    0.0000 H   0  0  0  0  0  0  0  0  0  0  0  0
    3.8951    0.4814    0.0000 H   0  0  0  0  0  0  0  0  0  0  0  0
   -2.3622    2.2888    0.0000 H   0  0  0  0  0  0  0  0  0  0  0  0
   -2.8845    0.5106    0.0000 H   0  0  0  0  0  0  0  0  0  0  0  0
   -3.1366    1.5504    0.0000 H   0  0  0  0  0  0  0  0  0  0  0  0
  1  2  1  0  0  0  0
  1 93  1  0  0  0  0
  1 94  1  0  0  0  0
  1 95  1  0  0  0  0
  2 96  1  0  0  0  0
  2 97  1  0  0  0  0
  3  2  1  0  0  0  0
  3  4  1  0  0  0  0
  3 46  1  0  0  0  0
  3 98  1  1  0  0  0
  4  5  2  0  0  0  0
  4  6  1  0  0  0  0
  6  7  1  0  0  0  0
  6 92  1  0  0  0  0
  7  8  1  0  0  0  0
  7 86  1  0  0  0  0
  7 99  1  6  0  0  0
  8  9  2  0  0  0  0
  8 10  1  0  0  0  0
 10 11  1  0  0  0  0
 10 85  1  0  0  0  0
 11 12  1  0  0  0  0
 11 80  1  0  0  0  0
 11100  1  1  0  0  0
 12 13  2  0  0  0  0
 12 14  1  0  0  0  0
 14 15  1  0  0  0  0
 14101  1  0  0  0  0
 15 16  1  0  0  0  0
 15 77  1  0  0  0  0
 15102  1  1  0  0  0
 16 17  2  0  0  0  0
 16 18  1  0  0  0  0
 18 19  1  0  0  0  0
 18 76  1  0  0  0  0
 19 20  1  0  0  0  0
 19 72  1  0  0  0  0
 19103  1  1  0  0  0
 20 21  2  0  0  0  0
 20 22  1  0  0  0  0
 22 23  1  0  0  0  0
 22104  1  0  0  0  0
 23 24  1  0  0  0  0
 23 71  1  0  0  0  0
 23105  1  1  0  0  0
 24 25  2  0  0  0  0
 24 26  1  0  0  0  0
 26 27  1  0  0  0  0
 26106  1  0  0  0  0
 27 28  1  0  0  0  0
 27 70  1  0  0  0  0
 27107  1  6  0  0  0
 28 29  2  0  0  0  0
 28 30  1  0  0  0  0
 30 31  1  0  0  0  0
 30 69  1  0  0  0  0
 31 32  1  0  0  0  0
 31 65  1  0  0  0  0
 31108  1  1  0  0  0
 32 33  2  0  0  0  0
 32 34  1  0  0  0  0
 34 35  1  0  0  0  0
 34 64  1  0  0  0  0
 35 36  1  0  0  0  0
 35 60  1  0  0  0  0
 35109  1  1  0  0  0
 36 37  2  0  0  0  0
 36 38  1  0  0  0  0
 38 39  1  0  0  0  0
 38 59  1  0  0  0  0
 39 40  1  0  0  0  0
 39 56  1  0  0  0  0
 39110  1  1  0  0  0
 40 41  2  0  0  0  0
 40 42  1  0  0  0  0
 42 43  1  0  0  0  0
 42 55  1  0  0  0  0
 43 44  1  0  0  0  0
 43 47  1  0  0  0  0
 43111  1  1  0  0  0
 44 45  2  0  0  0  0
 44 46  1  0  0  0  0
 46112  1  0  0  0  0
 47 48  1  0  0  0  0
 47 54  1  0  0  0  0
 47113  1  6  0  0  0
 48 49  1  0  0  0  0
 48 50  1  0  0  0  0
 48114  1  6  0  0  0
 49115  1  0  0  0  0
 49116  1  0  0  0  0
 49117  1  0  0  0  0
 50 51  1  0  0  0  0
 50118  1  0  0  0  0
 50119  1  0  0  0  0
 51 52  2  0  0  0  0
 51120  1  0  0  0  0
 52 53  1  0  0  0  0
 52121  1  0  0  0  0
 53122  1  0  0  0  0
 53123  1  0  0  0  0
 53124  1  0  0  0  0
 54125  1  0  0  0  0
 55126  1  0  0  0  0
 55127  1  0  0  0  0
 55128  1  0  0  0  0
 56 57  1  0  0  0  0
 56 58  1  0  0  0  0
 56129  1  0  0  0  0
 57130  1  0  0  0  0
 57131  1  0  0  0  0
 57132  1  0  0  0  0
 58133  1  0  0  0  0
 58134  1  0  0  0  0
 58135  1  0  0  0  0
 59136  1  0  0  0  0
 59137  1  0  0  0  0
 59138  1  0  0  0  0
 60 61  1  0  0  0  0
 60139  1  0  0  0  0
 60140  1  0  0  0  0
 61 62  1  0  0  0  0
 61 63  1  0  0  0  0
 61141  1  0  0  0  0
 62142  1  0  0  0  0
 62143  1  0  0  0  0
 62144  1  0  0  0  0
 63145  1  0  0  0  0
 63146  1  0  0  0  0
 63147  1  0  0  0  0
 64148  1  0  0  0  0
 64149  1  0  0  0  0
 64150  1  0  0  0  0
 65 66  1  0  0  0  0
 65151  1  0  0  0  0
 65152  1  0  0  0  0
 66 67  1  0  0  0  0
 66 68  1  0  0  0  0
 66153  1  0  0  0  0
 67154  1  0  0  0  0
 67155  1  0  0  0  0
 67156  1  0  0  0  0
 68157  1  0  0  0  0
 68158  1  0  0  0  0
 68159  1  0  0  0  0
 69160  1  0  0  0  0
 69161  1  0  0  0  0
 69162  1  0  0  0  0
 70163  1  0  0  0  0
 70164  1  0  0  0  0
 70165  1  0  0  0  0
 71166  1  0  0  0  0
 71167  1  0  0  0  0
 71168  1  0  0  0  0
 72 73  1  0  0  0  0
 72169  1  0  0  0  0
 72170  1  0  0  0  0
 73 74  1  0  0  0  0
 73 75  1  0  0  0  0
 73171  1  0  0  0  0
 74172  1  0  0  0  0
 74173  1  0  0  0  0
 74174  1  0  0  0  0
 75175  1  0  0  0  0
 75176  1  0  0  0  0
 75177  1  0  0  0  0
 76178  1  0  0  0  0
 76179  1  0  0  0  0
 76180  1  0  0  0  0
 77 78  1  0  0  0  0
 77 79  1  0  0  0  0
 77181  1  0  0  0  0
 78182  1  0  0  0  0
 78183  1  0  0  0  0
 78184  1  0  0  0  0
 79185  1  0  0  0  0
 79186  1  0  0  0  0
 79187  1  0  0  0  0
 80 81  1  0  0  0  0
 80188  1  0  0  0  0
 80189  1  0  0  0  0
 81 82  1  0  0  0  0
 81 83  1  0  0  0  0
 81 84  1  0  0  0  0
 82190  1  0  0  0  0
 82191  1  0  0  0  0
 82192  1  0  0  0  0
 83193  1  0  0  0  0
 83194  1  0  0  0  0
 83195  1  0  0  0  0
 84196  1  0  0  0  0
 85197  1  0  0  0  0
 85198  1  0  0  0  0
 85199  1  0  0  0  0
 86 87  1  0  0  0  0
 87 88  1  0  0  0  0
 87200  1  0  0  0  0
 87201  1  0  0  0  0
 88 89  1  0  0  0  0
 88202  1  0  0  0  0
 88203  1  0  0  0  0
 89 90  1  0  0  0  0
 89 91  1  0  0  0  0
 90204  1  0  0  0  0
 90205  1  0  0  0  0
 90206  1  0  0  0  0
 91207  1  0  0  0  0
 91208  1  0  0  0  0
 91209  1  0  0  0  0
 92210  1  0  0  0  0
 92211  1  0  0  0  0
 92212  1  0  0  0  0
M  END
>  <DRUGBANK_ID>
DB12451

>  <COMMON_NAME>
SCY-635

>  <CAS_NUMBER>
210759-10-7

>  <UNII>
WSU5343074

$$$$
