
 OpenBabel10282417072D

 53 54  0  0  0  0  0  0  0  0999 V2000
    2.8606    2.0466    0.0000 C   0  0  0  0  0  0  0  0  0  0  0  0
   -0.7120    1.6426    0.0000 C   0  0  0  0  0  0  0  0  0  0  0  0
    0.0082    2.0466    0.0000 N   0  0  0  0  0  0  0  0  0  0  0  0
    0.7120    1.6343    0.0000 C   0  0  1  0  0  0  0  0  0  0  0  0
   -2.8481    2.0674    0.0000 C   0  0  0  0  0  0  0  0  0  0  0  0
    2.1486    1.6343    0.0000 C   0  0  1  0  0  0  0  0  0  0  0  0
   -1.0493   -0.9306    0.0000 C   0  0  0  0  0  0  0  0  0  0  0  0
    1.4323    2.0466    0.0000 C   0  0  0  0  0  0  0  0  0  0  0  0
    2.8606    2.8794    0.0000 O   0  0  0  0  0  0  0  0  0  0  0  0
   -0.7370    1.0430    0.0000 O   0  0  0  0  0  0  0  0  0  0  0  0
   -3.5727    1.6552    0.0000 O   0  0  0  0  0  0  0  0  0  0  0  0
   -1.6364   -1.5135    0.0000 C   0  0  0  0  0  0  0  0  0  0  0  0
   -1.2616   -0.1311    0.0000 C   0  0  0  0  0  0  0  0  0  0  0  0
   -0.2415   -1.1513    0.0000 C   0  0  0  0  0  0  0  0  0  0  0  0
    0.7120    0.8099    0.0000 C   0  0  0  0  0  0  0  0  0  0  0  0
   -1.4240    2.0549    0.0000 C   0  0  0  0  0  0  0  0  0  0  0  0
   -2.1361    1.6469    0.0000 C   0  0  0  0  0  0  0  0  0  0  0  0
    3.5727    1.6426    0.0000 O   0  0  0  0  0  0  0  0  0  0  0  0
    0.1331    0.2310    0.0000 C   0  0  0  0  0  0  0  0  0  0  0  0
   -2.8481    2.8919    0.0000 O   0  0  0  0  0  0  0  0  0  0  0  0
    0.3373   -0.5683    0.0000 C   0  0  0  0  0  0  0  0  0  0  0  0
   -0.6662    0.4559    0.0000 C   0  0  0  0  0  0  0  0  0  0  0  0
    2.1486    0.8099    0.0000 C   0  0  0  0  0  0  0  0  0  0  0  0
   -2.4235   -1.2929    0.0000 C   0  0  0  0  0  0  0  0  0  0  0  0
   -1.4240   -2.3048    0.0000 C   0  0  0  0  0  0  0  0  0  0  0  0
   -1.9987   -2.8919    0.0000 C   0  0  0  0  0  0  0  0  0  0  0  0
   -3.0106   -1.8758    0.0000 C   0  0  0  0  0  0  0  0  0  0  0  0
   -2.7982   -2.6753    0.0000 C   0  0  0  0  0  0  0  0  0  0  0  0
    0.0174    3.0311    0.0000 H   0  0  0  0  0  0  0  0  0  0  0  0
   -0.2163    1.1022    0.0000 H   0  0  0  0  0  0  0  0  0  0  0  0
    3.0756    1.0999    0.0000 H   0  0  0  0  0  0  0  0  0  0  0  0
    1.4336    3.1166    0.0000 H   0  0  0  0  0  0  0  0  0  0  0  0
    2.3589    2.5817    0.0000 H   0  0  0  0  0  0  0  0  0  0  0  0
   -2.2572    0.1407    0.0000 H   0  0  0  0  0  0  0  0  0  0  0  0
    0.0250   -2.1483    0.0000 H   0  0  0  0  0  0  0  0  0  0  0  0
    1.7006    0.4004    0.0000 H   0  0  0  0  0  0  0  0  0  0  0  0
    0.9207   -0.2395    0.0000 H   0  0  0  0  0  0  0  0  0  0  0  0
   -1.4215    3.1249    0.0000 H   0  0  0  0  0  0  0  0  0  0  0  0
   -2.3491    2.5925    0.0000 H   0  0  0  0  0  0  0  0  0  0  0  0
   -2.1431    0.5769    0.0000 H   0  0  0  0  0  0  0  0  0  0  0  0
   -1.2121    1.1073    0.0000 H   0  0  0  0  0  0  0  0  0  0  0  0
    3.5798    0.7056    0.0000 H   0  0  0  0  0  0  0  0  0  0  0  0
   -2.0366    3.3604    0.0000 H   0  0  0  0  0  0  0  0  0  0  0  0
    1.3331   -0.8394    0.0000 H   0  0  0  0  0  0  0  0  0  0  0  0
   -0.9235    1.4553    0.0000 H   0  0  0  0  0  0  0  0  0  0  0  0
    1.2220    0.2749    0.0000 H   0  0  0  0  0  0  0  0  0  0  0  0
    3.0752    0.2749    0.0000 H   0  0  0  0  0  0  0  0  0  0  0  0
    2.1486   -0.2601    0.0000 H   0  0  0  0  0  0  0  0  0  0  0  0
   -2.6831   -0.2941    0.0000 H   0  0  0  0  0  0  0  0  0  0  0  0
   -0.4257   -2.5664    0.0000 H   0  0  0  0  0  0  0  0  0  0  0  0
   -1.7277   -3.8877    0.0000 H   0  0  0  0  0  0  0  0  0  0  0  0
   -4.0067   -1.6058    0.0000 H   0  0  0  0  0  0  0  0  0  0  0  0
   -3.5297   -3.4032    0.0000 H   0  0  0  0  0  0  0  0  0  0  0  0
  2  3  1  0  0  0  0
  3  4  1  0  0  0  0
  3 29  1  0  0  0  0
  4  8  1  0  0  0  0
  4 15  1  0  0  0  0
  4 30  1  6  0  0  0
  5 17  1  0  0  0  0
  6  1  1  0  0  0  0
  6 23  1  0  0  0  0
  6 31  1  1  0  0  0
  7 13  2  0  0  0  0
  7 14  1  0  0  0  0
  8  6  1  0  0  0  0
  8 32  1  0  0  0  0
  8 33  1  0  0  0  0
  9  1  2  0  0  0  0
 10  2  2  0  0  0  0
 11  5  2  0  0  0  0
 12  7  1  0  0  0  0
 13 22  1  0  0  0  0
 13 34  1  0  0  0  0
 14 21  2  0  0  0  0
 14 35  1  0  0  0  0
 15 36  1  0  0  0  0
 15 37  1  0  0  0  0
 16  2  1  0  0  0  0
 16 38  1  0  0  0  0
 16 39  1  0  0  0  0
 17 16  1  0  0  0  0
 17 40  1  0  0  0  0
 17 41  1  0  0  0  0
 18  1  1  0  0  0  0
 18 42  1  0  0  0  0
 19 15  1  0  0  0  0
 20  5  1  0  0  0  0
 20 43  1  0  0  0  0
 21 19  1  0  0  0  0
 21 44  1  0  0  0  0
 22 19  2  0  0  0  0
 22 45  1  0  0  0  0
 23 46  1  0  0  0  0
 23 47  1  0  0  0  0
 23 48  1  0  0  0  0
 24 12  2  0  0  0  0
 24 49  1  0  0  0  0
 25 12  1  0  0  0  0
 25 50  1  0  0  0  0
 26 25  2  0  0  0  0
 26 51  1  0  0  0  0
 27 24  1  0  0  0  0
 27 28  2  0  0  0  0
 27 52  1  0  0  0  0
 28 26  1  0  0  0  0
 28 53  1  0  0  0  0
M  END
>  <DRUGBANK_ID>
DB14127

>  <COMMON_NAME>
Sacubitrilat

>  <CAS_NUMBER>
149709-44-4

>  <UNII>
SPI5PBF81S

>  <SYNONYMS>
Sacubitrilat

$$$$
