
 OpenBabel10282417072D

 38 38  0  0  1  0  0  0  0  0999 V2000
   -0.7145    1.2375    0.0000 C   0  0  0  0  0  0  0  0  0  0  0  0
   -0.7145    0.4125    0.0000 C   0  0  1  0  0  0  0  0  0  0  0  0
   -1.4289    0.0000    0.0000 N   0  0  0  0  0  0  0  0  0  0  0  0
   -2.1434    0.4125    0.0000 C   0  0  0  0  0  0  0  0  0  0  0  0
   -2.8579    0.0000    0.0000 C   0  0  0  0  0  0  0  0  0  0  0  0
   -2.8579   -0.8250    0.0000 C   0  0  0  0  0  0  0  0  0  0  0  0
   -2.1434   -1.2375    0.0000 O   0  0  0  0  0  0  0  0  0  0  0  0
   -3.5724   -1.2375    0.0000 C   0  0  0  0  0  0  0  0  0  0  0  0
   -3.5724   -2.0625    0.0000 C   0  0  0  0  0  0  0  0  0  0  0  0
   -4.2868   -0.8250    0.0000 N   0  0  0  0  0  0  0  0  0  0  0  0
   -4.2868    0.0000    0.0000 C   0  0  0  0  0  0  0  0  0  0  0  0
   -3.5724    0.4125    0.0000 C   0  0  0  0  0  0  0  0  0  0  0  0
   -3.5724    1.2375    0.0000 C   0  0  0  0  0  0  0  0  0  0  0  0
   -4.2868    1.6500    0.0000 O   0  0  0  0  0  0  0  0  0  0  0  0
   -4.2868    2.4750    0.0000 P   0  0  0  0  0  0  0  0  0  0  0  0
   -4.2868    3.3000    0.0000 O   0  0  0  0  0  0  0  0  0  0  0  0
   -5.1118    2.4750    0.0000 O   0  0  0  0  0  0  0  0  0  0  0  0
   -3.4618    2.4750    0.0000 O   0  0  0  0  0  0  0  0  0  0  0  0
    0.0000    0.0000    0.0000 C   0  0  0  0  0  0  0  0  0  0  0  0
    0.7145    0.4125    0.0000 O   0  0  0  0  0  0  0  0  0  0  0  0
    0.0000   -0.8250    0.0000 O   0  0  0  0  0  0  0  0  0  0  0  0
    0.2121    1.7725    0.0000 H   0  0  0  0  0  0  0  0  0  0  0  0
   -1.6411    1.7725    0.0000 H   0  0  0  0  0  0  0  0  0  0  0  0
   -0.7145    2.3075    0.0000 H   0  0  0  0  0  0  0  0  0  0  0  0
   -1.6412    0.9475    0.0000 H   0  0  0  0  0  0  0  0  0  0  0  0
   -1.4289   -1.0200    0.0000 H   0  0  0  0  0  0  0  0  0  0  0  0
   -2.1434    1.4825    0.0000 H   0  0  0  0  0  0  0  0  0  0  0  0
   -3.0700    0.9475    0.0000 H   0  0  0  0  0  0  0  0  0  0  0  0
   -2.1434   -2.1745    0.0000 H   0  0  0  0  0  0  0  0  0  0  0  0
   -4.4990   -2.5975    0.0000 H   0  0  0  0  0  0  0  0  0  0  0  0
   -2.6458   -2.5975    0.0000 H   0  0  0  0  0  0  0  0  0  0  0  0
   -3.5724   -3.1325    0.0000 H   0  0  0  0  0  0  0  0  0  0  0  0
   -5.1805    0.5160    0.0000 H   0  0  0  0  0  0  0  0  0  0  0  0
   -2.6457    1.7725    0.0000 H   0  0  0  0  0  0  0  0  0  0  0  0
   -3.5724    2.3075    0.0000 H   0  0  0  0  0  0  0  0  0  0  0  0
   -3.4468    3.7850    0.0000 H   0  0  0  0  0  0  0  0  0  0  0  0
   -5.5968    3.3150    0.0000 H   0  0  0  0  0  0  0  0  0  0  0  0
    1.5260   -0.0560    0.0000 H   0  0  0  0  0  0  0  0  0  0  0  0
  1 22  1  0  0  0  0
  1 23  1  0  0  0  0
  1 24  1  0  0  0  0
  2  1  1  0  0  0  0
  2  3  1  0  0  0  0
  2 19  1  0  0  0  0
  2 25  1  1  0  0  0
  3  4  1  0  0  0  0
  3 26  1  0  0  0  0
  4  5  1  0  0  0  0
  4 27  1  0  0  0  0
  4 28  1  0  0  0  0
  5  6  2  0  0  0  0
  5 12  1  0  0  0  0
  6  7  1  0  0  0  0
  6  8  1  0  0  0  0
  7 29  1  0  0  0  0
  8  9  1  0  0  0  0
  8 10  2  0  0  0  0
  9 30  1  0  0  0  0
  9 31  1  0  0  0  0
  9 32  1  0  0  0  0
 10 11  1  0  0  0  0
 11 12  2  0  0  0  0
 11 33  1  0  0  0  0
 12 13  1  0  0  0  0
 13 14  1  0  0  0  0
 13 34  1  0  0  0  0
 13 35  1  0  0  0  0
 14 15  1  0  0  0  0
 15 16  1  0  0  0  0
 15 17  1  0  0  0  0
 15 18  2  0  0  0  0
 16 36  1  0  0  0  0
 17 37  1  0  0  0  0
 19 20  1  0  0  0  0
 19 21  2  0  0  0  0
 20 38  1  0  0  0  0
M  END
>  <DRUGBANK_ID>
DB01993

>  <SECONDARY_ACCESSION_NUMBERS>
EXPT02531

>  <COMMON_NAME>
N-(5'-Phosphopyridoxyl)-D-Alanine

$$$$
