
 OpenBabel10282417072D

 42 44  0  0  0  0  0  0  0  0999 V2000
    0.4124    1.2375    0.0000 C   0  0  0  0  0  0  0  0  0  0  0  0
    0.4124    0.4125    0.0000 C   0  0  0  0  0  0  0  0  0  0  0  0
    1.1269    1.6500    0.0000 N   0  0  0  0  0  0  0  0  0  0  0  0
   -0.3019    1.6500    0.0000 C   0  0  0  0  0  0  0  0  0  0  0  0
   -0.3019    0.0000    0.0000 C   0  0  0  0  0  0  0  0  0  0  0  0
    1.1269    0.0000    0.0000 C   0  0  3  0  0  0  0  0  0  0  0  0
    1.5394    2.3645    0.0000 C   0  0  0  0  0  0  0  0  0  0  0  0
    1.9520    1.6500    0.0000 C   0  0  0  0  0  0  0  0  0  0  0  0
   -1.0164    1.2375    0.0000 C   0  0  0  0  0  0  0  0  0  0  0  0
   -0.3019    2.4750    0.0000 O   0  0  0  0  0  0  0  0  0  0  0  0
   -1.0164    0.4125    0.0000 C   0  0  0  0  0  0  0  0  0  0  0  0
   -0.3019   -0.8249    0.0000 O   0  0  0  0  0  0  0  0  0  0  0  0
    1.1269   -0.8249    0.0000 C   0  0  0  0  0  0  0  0  0  0  0  0
    1.8414    0.4125    0.0000 O   0  0  0  0  0  0  0  0  0  0  0  0
   -1.7309    1.6500    0.0000 C   0  0  0  0  0  0  0  0  0  0  0  0
   -1.7309    0.0000    0.0000 N   0  0  0  0  0  0  0  0  0  0  0  0
    1.8414   -1.2374    0.0000 O   0  0  0  0  0  0  0  0  0  0  0  0
    2.5559    0.0000    0.0000 C   0  0  0  0  0  0  0  0  0  0  0  0
   -2.1434   -0.7144    0.0000 C   0  0  0  0  0  0  0  0  0  0  0  0
   -2.5559    0.0000    0.0000 C   0  0  0  0  0  0  0  0  0  0  0  0
    1.8414   -2.0625    0.0000 C   0  0  0  0  0  0  0  0  0  0  0  0
    2.5559   -2.4749    0.0000 N   0  0  0  0  0  0  0  0  0  0  0  0
    1.1269   -2.4749    0.0000 O   0  0  0  0  0  0  0  0  0  0  0  0
    0.2003   -0.5350    0.0000 H   0  0  0  0  0  0  0  0  0  0  0  0
    1.5393    3.4345    0.0000 H   0  0  0  0  0  0  0  0  0  0  0  0
    2.5729    2.6415    0.0000 H   0  0  0  0  0  0  0  0  0  0  0  0
    2.8787    1.1150    0.0000 H   0  0  0  0  0  0  0  0  0  0  0  0
    2.7086    2.4067    0.0000 H   0  0  0  0  0  0  0  0  0  0  0  0
    0.2003   -1.3599    0.0000 H   0  0  0  0  0  0  0  0  0  0  0  0
    1.1269   -1.8949    0.0000 H   0  0  0  0  0  0  0  0  0  0  0  0
   -1.7309    2.7200    0.0000 H   0  0  0  0  0  0  0  0  0  0  0  0
   -2.6575    1.1150    0.0000 H   0  0  0  0  0  0  0  0  0  0  0  0
   -2.6576    2.1850    0.0000 H   0  0  0  0  0  0  0  0  0  0  0  0
    2.5559   -1.0700    0.0000 H   0  0  0  0  0  0  0  0  0  0  0  0
    3.4825    0.5350    0.0000 H   0  0  0  0  0  0  0  0  0  0  0  0
    3.4826   -0.5350    0.0000 H   0  0  0  0  0  0  0  0  0  0  0  0
   -2.1434   -1.7844    0.0000 H   0  0  0  0  0  0  0  0  0  0  0  0
   -3.1769   -0.9914    0.0000 H   0  0  0  0  0  0  0  0  0  0  0  0
   -3.4826    0.5350    0.0000 H   0  0  0  0  0  0  0  0  0  0  0  0
   -3.3125   -0.7566    0.0000 H   0  0  0  0  0  0  0  0  0  0  0  0
    2.5560   -3.4594    0.0000 H   0  0  0  0  0  0  0  0  0  0  0  0
    3.4084   -1.9825    0.0000 H   0  0  0  0  0  0  0  0  0  0  0  0
  1  2  2  0  0  0  0
  1  3  1  0  0  0  0
  1  4  1  0  0  0  0
  2  5  1  0  0  0  0
  2  6  1  0  0  0  0
  3  7  1  0  0  0  0
  3  8  1  0  0  0  0
  4  9  1  0  0  0  0
  4 10  2  0  0  0  0
  5 11  1  0  0  0  0
  5 12  2  0  0  0  0
  6 13  1  0  0  0  0
  6 14  1  0  0  0  0
  6 24  1  0  0  0  0
  7  8  1  0  0  0  0
  7 25  1  0  0  0  0
  7 26  1  0  0  0  0
  8 27  1  0  0  0  0
  8 28  1  0  0  0  0
  9 15  1  0  0  0  0
  9 11  2  0  0  0  0
 11 16  1  0  0  0  0
 13 17  1  0  0  0  0
 13 29  1  0  0  0  0
 13 30  1  0  0  0  0
 14 18  1  0  0  0  0
 15 31  1  0  0  0  0
 15 32  1  0  0  0  0
 15 33  1  0  0  0  0
 16 19  1  0  0  0  0
 16 20  1  0  0  0  0
 17 21  1  0  0  0  0
 18 34  1  0  0  0  0
 18 35  1  0  0  0  0
 18 36  1  0  0  0  0
 19 20  1  0  0  0  0
 19 37  1  0  0  0  0
 19 38  1  0  0  0  0
 20 39  1  0  0  0  0
 20 40  1  0  0  0  0
 21 22  1  0  0  0  0
 21 23  2  0  0  0  0
 22 41  1  0  0  0  0
 22 42  1  0  0  0  0
M  END
>  <DRUGBANK_ID>
DB13677

>  <COMMON_NAME>
Carboquone

>  <CAS_NUMBER>
24279-91-2

>  <UNII>
1CB0HBT12C

>  <SYNONYMS>
Carboquona; Carboquone; Carboquonum

$$$$
