668
 OpenBabel10282417072D

 26 26  0  0  1  0  0  0  0  0999 V2000
    2.8075    1.3654    0.0000 O   0  0  0  0  0  0  0  0  0  0  0  0
    2.0930   -1.5222    0.0000 O   0  0  0  0  0  0  0  0  0  0  0  0
    3.5220   -2.3472    0.0000 O   0  0  0  0  0  0  0  0  0  0  0  0
    4.2365    2.1904    0.0000 N   0  0  0  0  0  0  0  0  0  0  0  0
    3.5220    0.9529    0.0000 C   0  0  2  0  0  0  0  0  0  0  0  0
    3.5220    0.1279    0.0000 C   0  0  0  0  0  0  0  0  0  0  0  0
    4.2365    1.3654    0.0000 C   0  0  0  0  0  0  0  0  0  0  0  0
    2.8075   -0.2846    0.0000 C   0  0  0  0  0  0  0  0  0  0  0  0
    4.2365   -0.2846    0.0000 C   0  0  0  0  0  0  0  0  0  0  0  0
    2.8075   -1.1096    0.0000 C   0  0  0  0  0  0  0  0  0  0  0  0
    4.2365   -1.1096    0.0000 C   0  0  0  0  0  0  0  0  0  0  0  0
    3.5220   -1.5222    0.0000 C   0  0  0  0  0  0  0  0  0  0  0  0
    4.9509    2.6029    0.0000 C   0  0  0  0  0  0  0  0  0  0  0  0
    2.8075    2.3354    0.0000 H   0  0  0  0  0  0  0  0  0  0  0  0
    1.2815   -1.0538    0.0000 H   0  0  0  0  0  0  0  0  0  0  0  0
    2.7105   -2.8157    0.0000 H   0  0  0  0  0  0  0  0  0  0  0  0
    3.3531    2.7004    0.0000 H   0  0  0  0  0  0  0  0  0  0  0  0
    2.5954    0.4179    0.0000 H   0  0  0  0  0  0  0  0  0  0  0  0
    5.1631    0.8304    0.0000 H   0  0  0  0  0  0  0  0  0  0  0  0
    4.2365    0.2954    0.0000 H   0  0  0  0  0  0  0  0  0  0  0  0
    1.9138    0.2314    0.0000 H   0  0  0  0  0  0  0  0  0  0  0  0
    5.1302    0.2314    0.0000 H   0  0  0  0  0  0  0  0  0  0  0  0
    5.1303   -1.6256    0.0000 H   0  0  0  0  0  0  0  0  0  0  0  0
    5.8776    2.0679    0.0000 H   0  0  0  0  0  0  0  0  0  0  0  0
    4.9509    3.6729    0.0000 H   0  0  0  0  0  0  0  0  0  0  0  0
    5.8775    3.1379    0.0000 H   0  0  0  0  0  0  0  0  0  0  0  0
  1 14  1  0  0  0  0
  2 10  1  0  0  0  0
  2 15  1  0  0  0  0
  3 12  1  0  0  0  0
  3 16  1  0  0  0  0
  4  7  1  0  0  0  0
  4 13  1  0  0  0  0
  4 17  1  0  0  0  0
  5  1  1  0  0  0  0
  5  6  1  0  0  0  0
  5  7  1  0  0  0  0
  5 18  1  6  0  0  0
  6  8  2  0  0  0  0
  6  9  1  0  0  0  0
  7 19  1  0  0  0  0
  7 20  1  0  0  0  0
  8 10  1  0  0  0  0
  8 21  1  0  0  0  0
  9 11  2  0  0  0  0
  9 22  1  0  0  0  0
 10 12  2  0  0  0  0
 11 12  1  0  0  0  0
 11 23  1  0  0  0  0
 13 24  1  0  0  0  0
 13 25  1  0  0  0  0
 13 26  1  0  0  0  0
M  END
>  <DRUGBANK_ID>
DB00668

>  <SECONDARY_ACCESSION_NUMBERS>
APRD00450; EXPT00496

>  <COMMON_NAME>
Epinephrine

>  <CAS_NUMBER>
51-43-4

>  <UNII>
YKH834O4BH

>  <SYNONYMS>
(−)-(R)-epinephrine; (−)-3,4-dihydroxy-α-((methylamino)methyl)benzyl alcohol; (−)-adrenaline; (R)-(-)-Adnephrine; (R)-(-)-Adrenaline; (R)-(-)-Epinephrine; (R)-(-)-Epirenamine; (R)-(−)-adrenaline; 4-[(1R)-1-Hydroxy-2-(methylamino)ethyl]-1,2-benzenediol; Adrénaline; Adrenaline; Epinefrin; Epinefrina; Epinephrin; Epinephrine; Epinephrinum; L-Adrenaline; Levoepinephrine

$$$$
