Y12
 OpenBabel10282417072D

 48 49  0  0  0  0  0  0  0  0999 V2000
   -5.2729    1.2202    0.0000 C   0  0  0  0  0  0  0  0  0  0  0  0
   -4.5584    1.6327    0.0000 C   0  0  0  0  0  0  0  0  0  0  0  0
   -3.8439    1.2202    0.0000 C   0  0  0  0  0  0  0  0  0  0  0  0
   -3.8439    0.3952    0.0000 C   0  0  0  0  0  0  0  0  0  0  0  0
   -3.1294   -0.0173    0.0000 C   0  0  0  0  0  0  0  0  0  0  0  0
   -2.4150    0.3952    0.0000 C   0  0  0  0  0  0  0  0  0  0  0  0
   -1.7005   -0.0173    0.0000 N   0  0  0  0  0  0  0  0  0  0  0  0
   -0.9860    0.3952    0.0000 C   0  0  0  0  0  0  0  0  0  0  0  0
   -0.9860    1.2202    0.0000 O   0  0  0  0  0  0  0  0  0  0  0  0
   -0.2716   -0.0173    0.0000 C   0  0  0  0  0  0  0  0  0  0  0  0
    0.4429    0.3952    0.0000 C   0  0  0  0  0  0  0  0  0  0  0  0
    1.1574   -0.0173    0.0000 C   0  0  0  0  0  0  0  0  0  0  0  0
    1.8719    0.3952    0.0000 C   0  0  0  0  0  0  0  0  0  0  0  0
    2.5863   -0.0173    0.0000 C   0  0  0  0  0  0  0  0  0  0  0  0
    3.3008    0.3952    0.0000 O   0  0  0  0  0  0  0  0  0  0  0  0
    3.3008    1.2202    0.0000 C   0  0  0  0  0  0  0  0  0  0  0  0
    2.5863    1.6327    0.0000 O   0  0  0  0  0  0  0  0  0  0  0  0
    4.0153    1.6327    0.0000 C   0  0  0  0  0  0  0  0  0  0  0  0
    2.5863   -0.8423    0.0000 C   0  0  0  0  0  0  0  0  0  0  0  0
    3.3008   -1.2548    0.0000 O   0  0  0  0  0  0  0  0  0  0  0  0
    3.3008   -2.0798    0.0000 C   0  0  0  0  0  0  0  0  0  0  0  0
    4.0153   -2.4923    0.0000 O   0  0  0  0  0  0  0  0  0  0  0  0
    2.5863   -2.4923    0.0000 C   0  0  0  0  0  0  0  0  0  0  0  0
    1.8719   -1.2548    0.0000 C   0  0  0  0  0  0  0  0  0  0  0  0
    1.1574   -0.8423    0.0000 C   0  0  0  0  0  0  0  0  0  0  0  0
   -4.5584   -0.0173    0.0000 C   0  0  0  0  0  0  0  0  0  0  0  0
   -5.2729    0.3952    0.0000 C   0  0  0  0  0  0  0  0  0  0  0  0
   -6.1666    1.7362    0.0000 H   0  0  0  0  0  0  0  0  0  0  0  0
   -4.5584    2.6647    0.0000 H   0  0  0  0  0  0  0  0  0  0  0  0
   -2.9502    1.7362    0.0000 H   0  0  0  0  0  0  0  0  0  0  0  0
   -3.1294   -1.0873    0.0000 H   0  0  0  0  0  0  0  0  0  0  0  0
   -2.2027   -0.5523    0.0000 H   0  0  0  0  0  0  0  0  0  0  0  0
   -2.4150    1.4652    0.0000 H   0  0  0  0  0  0  0  0  0  0  0  0
   -1.4884    0.9302    0.0000 H   0  0  0  0  0  0  0  0  0  0  0  0
   -1.7005   -1.0018    0.0000 H   0  0  0  0  0  0  0  0  0  0  0  0
   -0.2716   -1.0493    0.0000 H   0  0  0  0  0  0  0  0  0  0  0  0
    0.4429    1.4272    0.0000 H   0  0  0  0  0  0  0  0  0  0  0  0
    1.8719    1.4272    0.0000 H   0  0  0  0  0  0  0  0  0  0  0  0
    4.9419    1.0977    0.0000 H   0  0  0  0  0  0  0  0  0  0  0  0
    4.0153    2.7027    0.0000 H   0  0  0  0  0  0  0  0  0  0  0  0
    4.9420    2.1677    0.0000 H   0  0  0  0  0  0  0  0  0  0  0  0
    1.6597   -1.9573    0.0000 H   0  0  0  0  0  0  0  0  0  0  0  0
    2.5863   -3.5623    0.0000 H   0  0  0  0  0  0  0  0  0  0  0  0
    1.6596   -3.0273    0.0000 H   0  0  0  0  0  0  0  0  0  0  0  0
    1.8719   -2.2868    0.0000 H   0  0  0  0  0  0  0  0  0  0  0  0
    0.2637   -1.3583    0.0000 H   0  0  0  0  0  0  0  0  0  0  0  0
   -4.5584   -1.0493    0.0000 H   0  0  0  0  0  0  0  0  0  0  0  0
   -6.1666   -0.1208    0.0000 H   0  0  0  0  0  0  0  0  0  0  0  0
  1  2  2  0  0  0  0
  1 27  1  0  0  0  0
  1 28  1  0  0  0  0
  2  3  1  0  0  0  0
  2 29  1  0  0  0  0
  3  4  2  0  0  0  0
  3 30  1  0  0  0  0
  4  5  1  0  0  0  0
  4 26  1  0  0  0  0
  5  6  1  0  0  0  0
  5 31  1  0  0  0  0
  5 32  1  0  0  0  0
  6  7  1  0  0  0  0
  6 33  1  0  0  0  0
  6 34  1  0  0  0  0
  7  8  1  0  0  0  0
  7 35  1  0  0  0  0
  8  9  2  0  0  0  0
  8 10  1  0  0  0  0
 10 11  2  0  0  0  0
 10 36  1  0  0  0  0
 11 12  1  0  0  0  0
 11 37  1  0  0  0  0
 12 13  1  0  0  0  0
 12 25  2  0  0  0  0
 13 14  2  0  0  0  0
 13 38  1  0  0  0  0
 14 15  1  0  0  0  0
 14 19  1  0  0  0  0
 15 16  1  0  0  0  0
 16 17  2  0  0  0  0
 16 18  1  0  0  0  0
 18 39  1  0  0  0  0
 18 40  1  0  0  0  0
 18 41  1  0  0  0  0
 19 20  1  0  0  0  0
 19 24  2  0  0  0  0
 20 21  1  0  0  0  0
 21 22  2  0  0  0  0
 21 23  1  0  0  0  0
 23 42  1  0  0  0  0
 23 43  1  0  0  0  0
 23 44  1  0  0  0  0
 24 25  1  0  0  0  0
 24 45  1  0  0  0  0
 25 46  1  0  0  0  0
 26 27  2  0  0  0  0
 26 47  1  0  0  0  0
 27 48  1  0  0  0  0
M  END
>  <DRUGBANK_ID>
DB08753

>  <COMMON_NAME>
4-{(1E)-3-OXO-3-[(2-PHENYLETHYL)AMINO]PROP-1-EN-1-YL}-1,2-PHENYLENE DIACETATE

$$$$
