FOK
 OpenBabel10282417072D

 63 65  0  0  0  0  0  0  0  0999 V2000
   -0.9188   -1.3028    0.0000 C   0  0  1  0  0  0  0  0  0  0  0  0
   -0.5063   -2.0173    0.0000 O   0  0  0  0  0  0  0  0  0  0  0  0
   -1.7438   -1.3028    0.0000 C   0  0  0  0  0  0  0  0  0  0  0  0
   -2.1563   -0.5884    0.0000 C   0  0  0  0  0  0  0  0  0  0  0  0
   -1.7438    0.1261    0.0000 C   0  0  0  0  0  0  0  0  0  0  0  0
   -0.9188    0.1261    0.0000 C   0  0  2  0  0  0  0  0  0  0  0  0
   -0.5063    0.8406    0.0000 C   0  0  2  0  0  0  0  0  0  0  0  0
   -0.9188    1.5551    0.0000 O   0  0  0  0  0  0  0  0  0  0  0  0
    0.3187    0.8406    0.0000 C   0  0  2  0  0  0  0  0  0  0  0  0
    0.7312    1.5551    0.0000 O   0  0  0  0  0  0  0  0  0  0  0  0
    0.7312    0.1261    0.0000 C   0  0  1  0  0  0  0  0  0  0  0  0
    1.5562    0.1261    0.0000 O   0  0  0  0  0  0  0  0  0  0  0  0
    0.3187   -0.5884    0.0000 C   0  0  1  0  0  0  0  0  0  0  0  0
   -0.0938   -1.3028    0.0000 O   0  0  0  0  0  0  0  0  0  0  0  0
   -0.5063   -0.5884    0.0000 C   0  0  1  0  0  0  0  0  0  0  0  0
    0.7312   -1.3028    0.0000 C   0  0  0  0  0  0  0  0  0  0  0  0
    0.3187   -2.0173    0.0000 O   0  0  0  0  0  0  0  0  0  0  0  0
    1.5562   -1.3028    0.0000 C   0  0  0  0  0  0  0  0  0  0  0  0
    1.9687   -0.5884    0.0000 C   0  0  2  0  0  0  0  0  0  0  0  0
    2.6971   -0.9757    0.0000 C   0  0  0  0  0  0  0  0  0  0  0  0
    2.7259   -1.8002    0.0000 C   0  0  0  0  0  0  0  0  0  0  0  0
    2.6971   -0.2010    0.0000 C   0  0  0  0  0  0  0  0  0  0  0  0
    1.1437    0.8406    0.0000 C   0  0  0  0  0  0  0  0  0  0  0  0
   -2.4435    0.5633    0.0000 C   0  0  0  0  0  0  0  0  0  0  0  0
   -1.7726    0.9506    0.0000 C   0  0  0  0  0  0  0  0  0  0  0  0
   -0.5926   -1.4088    0.0000 C   0  0  0  0  0  0  0  0  0  0  0  0
    0.3187    2.2695    0.0000 C   0  0  0  0  0  0  0  0  0  0  0  0
   -0.5063    2.2695    0.0000 O   0  0  0  0  0  0  0  0  0  0  0  0
    0.7312    2.9840    0.0000 C   0  0  0  0  0  0  0  0  0  0  0  0
   -1.3661   -1.6782    0.0000 H   0  0  0  0  0  0  0  0  0  0  0  0
   -1.3661    0.5015    0.0000 H   0  0  0  0  0  0  0  0  0  0  0  0
   -0.9536    1.2159    0.0000 H   0  0  0  0  0  0  0  0  0  0  0  0
    0.0267    1.3463    0.0000 H   0  0  0  0  0  0  0  0  0  0  0  0
   -0.9913   -2.8573    0.0000 H   0  0  0  0  0  0  0  0  0  0  0  0
   -2.2788   -2.2295    0.0000 H   0  0  0  0  0  0  0  0  0  0  0  0
   -2.8138   -1.3028    0.0000 H   0  0  0  0  0  0  0  0  0  0  0  0
   -3.2263   -0.5884    0.0000 H   0  0  0  0  0  0  0  0  0  0  0  0
   -2.6913    0.3382    0.0000 H   0  0  0  0  0  0  0  0  0  0  0  0
   -0.4338    2.3951    0.0000 H   0  0  0  0  0  0  0  0  0  0  0  0
   -1.0638   -1.3028    0.0000 H   0  0  0  0  0  0  0  0  0  0  0  0
    2.0912   -2.2295    0.0000 H   0  0  0  0  0  0  0  0  0  0  0  0
    2.6262   -1.3028    0.0000 H   0  0  0  0  0  0  0  0  0  0  0  0
    3.5723   -0.4288    0.0000 H   0  0  0  0  0  0  0  0  0  0  0  0
    1.8507   -2.3471    0.0000 H   0  0  0  0  0  0  0  0  0  0  0  0
    3.6371   -2.2847    0.0000 H   0  0  0  0  0  0  0  0  0  0  0  0
    3.6046   -0.7679    0.0000 H   0  0  0  0  0  0  0  0  0  0  0  0
    2.7343    0.8684    0.0000 H   0  0  0  0  0  0  0  0  0  0  0  0
    3.6418    0.3014    0.0000 H   0  0  0  0  0  0  0  0  0  0  0  0
    2.2137    0.8406    0.0000 H   0  0  0  0  0  0  0  0  0  0  0  0
    0.6087    1.7672    0.0000 H   0  0  0  0  0  0  0  0  0  0  0  0
    1.6787    1.7673    0.0000 H   0  0  0  0  0  0  0  0  0  0  0  0
   -2.4062    1.6326    0.0000 H   0  0  0  0  0  0  0  0  0  0  0  0
   -3.3882    0.0609    0.0000 H   0  0  0  0  0  0  0  0  0  0  0  0
   -3.3509    1.1303    0.0000 H   0  0  0  0  0  0  0  0  0  0  0  0
   -0.8652    1.5176    0.0000 H   0  0  0  0  0  0  0  0  0  0  0  0
   -2.7174    1.4529    0.0000 H   0  0  0  0  0  0  0  0  0  0  0  0
   -1.8100    2.0199    0.0000 H   0  0  0  0  0  0  0  0  0  0  0  0
   -1.5701   -1.8439    0.0000 H   0  0  0  0  0  0  0  0  0  0  0  0
    0.2730   -2.0378    0.0000 H   0  0  0  0  0  0  0  0  0  0  0  0
   -0.7045   -2.4729    0.0000 H   0  0  0  0  0  0  0  0  0  0  0  0
    1.8012    2.9840    0.0000 H   0  0  0  0  0  0  0  0  0  0  0  0
    0.1962    3.9106    0.0000 H   0  0  0  0  0  0  0  0  0  0  0  0
    1.2662    3.9107    0.0000 H   0  0  0  0  0  0  0  0  0  0  0  0
  1  2  1  0  0  0  0
  1  3  1  0  0  0  0
  1 15  1  0  0  0  0
  1 30  1  6  0  0  0
  2 34  1  0  0  0  0
  3  4  1  0  0  0  0
  3 35  1  0  0  0  0
  3 36  1  0  0  0  0
  4  5  1  0  0  0  0
  4 37  1  0  0  0  0
  4 38  1  0  0  0  0
  5  6  1  0  0  0  0
  5 24  1  0  0  0  0
  5 25  1  0  0  0  0
  6  7  1  0  0  0  0
  6 15  1  0  0  0  0
  6 31  1  1  0  0  0
  7  8  1  0  0  0  0
  7  9  1  0  0  0  0
  7 32  1  1  0  0  0
  8 39  1  0  0  0  0
  9 10  1  0  0  0  0
  9 11  1  0  0  0  0
  9 33  1  1  0  0  0
 10 27  1  0  0  0  0
 11 12  1  0  0  0  0
 11 13  1  0  0  0  0
 11 23  1  6  0  0  0
 12 19  1  0  0  0  0
 13 14  1  1  0  0  0
 13 15  1  0  0  0  0
 13 16  1  0  0  0  0
 14 40  1  0  0  0  0
 15 26  1  6  0  0  0
 16 17  2  0  0  0  0
 16 18  1  0  0  0  0
 18 19  1  0  0  0  0
 18 41  1  0  0  0  0
 18 42  1  0  0  0  0
 19 20  1  1  0  0  0
 19 22  1  0  0  0  0
 20 21  2  0  0  0  0
 20 43  1  0  0  0  0
 21 44  1  0  0  0  0
 21 45  1  0  0  0  0
 22 46  1  0  0  0  0
 22 47  1  0  0  0  0
 22 48  1  0  0  0  0
 23 49  1  0  0  0  0
 23 50  1  0  0  0  0
 23 51  1  0  0  0  0
 24 52  1  0  0  0  0
 24 53  1  0  0  0  0
 24 54  1  0  0  0  0
 25 55  1  0  0  0  0
 25 56  1  0  0  0  0
 25 57  1  0  0  0  0
 26 58  1  0  0  0  0
 26 59  1  0  0  0  0
 26 60  1  0  0  0  0
 27 28  2  0  0  0  0
 27 29  1  0  0  0  0
 29 61  1  0  0  0  0
 29 62  1  0  0  0  0
 29 63  1  0  0  0  0
M  END
>  <DRUGBANK_ID>
DB02587

>  <SECONDARY_ACCESSION_NUMBERS>
EXPT01467

>  <COMMON_NAME>
Colforsin

>  <CAS_NUMBER>
66575-29-9

>  <UNII>
1F7A44V6OU

>  <SYNONYMS>
7β-acetoxy-8,13-epoxy-1α,6β,9α-trihydroxylabd-14-en-11-one; Coleonolk; Colforsin; colforsina; colforsine; colforsinum; Forskolin

$$$$
