
 OpenBabel10282417072D

 97105  0  0  1  0  0  0  0  0999 V2000
   12.6124   -3.3240    0.0000 O   0  0  0  0  0  0  0  0  0  0  0  0
   12.7839   -0.0421    0.0000 O   0  0  0  0  0  0  0  0  0  0  0  0
   11.4563   -2.6566    0.0000 O   0  0  0  0  0  0  0  0  0  0  0  0
   12.0694    1.1954    0.0000 O   0  0  0  0  0  0  0  0  0  0  0  0
   13.4984   -1.2796    0.0000 C   0  0  0  0  0  0  0  0  0  0  0  0
   13.4984   -2.1046    0.0000 C   0  0  0  0  0  0  0  0  0  0  0  0
   12.7839   -2.5171    0.0000 C   0  0  0  0  0  0  0  0  0  0  0  0
   12.7839   -0.8671    0.0000 C   0  0  0  0  0  0  0  0  0  0  0  0
   12.0694   -2.1046    0.0000 C   0  0  0  0  0  0  0  0  0  0  0  0
   12.0694   -1.2796    0.0000 C   0  0  0  0  0  0  0  0  0  0  0  0
   11.7919   -3.4103    0.0000 C   0  0  0  0  0  0  0  0  0  0  0  0
   11.3550   -0.8671    0.0000 C   0  0  0  0  0  0  0  0  0  0  0  0
   12.0694    0.3704    0.0000 C   0  0  0  0  0  0  0  0  0  0  0  0
   11.3550   -0.0421    0.0000 C   0  0  0  0  0  0  0  0  0  0  0  0
   14.2128   -0.8670    0.0000 C   0  0  2  0  0  0  0  0  0  0  0  0
   14.2128   -2.5171    0.0000 C   0  0  1  0  0  0  0  0  0  0  0  0
   14.9273   -2.1046    0.0000 N   0  0  3  0  0  0  0  0  0  0  0  0
   14.9273   -1.2795    0.0000 C   0  0  2  0  0  0  0  0  0  0  0  0
   15.6418   -0.8670    0.0000 C   0  0  2  0  0  0  0  0  0  0  0  0
   15.6418   -2.5171    0.0000 C   0  0  2  0  0  0  0  0  0  0  0  0
   16.3562   -2.1046    0.0000 C   0  0  1  0  0  0  0  0  0  0  0  0
   16.3562   -1.2795    0.0000 N   0  0  0  0  0  0  0  0  0  0  0  0
   12.7839    3.0370    0.0000 C   0  0  0  0  0  0  0  0  0  0  0  0
   12.0694    2.6244    0.0000 C   0  0  0  0  0  0  0  0  0  0  0  0
   12.0694    1.7994    0.0000 C   0  0  0  0  0  0  0  0  0  0  0  0
   12.7839    1.3869    0.0000 C   0  0  0  0  0  0  0  0  0  0  0  0
   13.4984    1.7994    0.0000 C   0  0  0  0  0  0  0  0  0  0  0  0
   13.4984    2.6244    0.0000 C   0  0  0  0  0  0  0  0  0  0  0  0
   14.2128    3.0370    0.0000 C   0  0  0  0  0  0  0  0  0  0  0  0
   14.2128    1.3869    0.0000 C   0  0  2  0  0  0  0  0  0  0  0  0
   14.9273    1.7994    0.0000 N   0  0  0  0  0  0  0  0  0  0  0  0
   14.9273    2.6244    0.0000 C   0  0  0  0  0  0  0  0  0  0  0  0
   11.3550    3.0369    0.0000 O   0  0  0  0  0  0  0  0  0  0  0  0
   11.3550    1.3869    0.0000 O   0  0  0  0  0  0  0  0  0  0  0  0
   10.6405    1.7994    0.0000 C   0  0  0  0  0  0  0  0  0  0  0  0
   14.3307   -1.6626    0.0000 C   0  0  0  0  0  0  0  0  0  0  0  0
   13.8003   -0.3883    0.0000 O   0  0  0  0  0  0  0  0  0  0  0  0
   14.6253   -0.1526    0.0000 S   0  0  0  0  0  0  0  0  0  0  0  0
   14.6253    0.6724    0.0000 C   0  0  0  0  0  0  0  0  0  0  0  0
   13.6295    0.8036    0.0000 C   0  0  0  0  0  0  0  0  0  0  0  0
   16.9890   -0.9215    0.0000 C   0  0  0  0  0  0  0  0  0  0  0  0
   12.8326    1.0171    0.0000 O   0  0  0  0  0  0  0  0  0  0  0  0
   15.6418   -3.3421    0.0000 O   0  0  0  0  0  0  0  0  0  0  0  0
   14.9273   -0.4545    0.0000 H   0  0  0  0  0  0  0  0  0  0  0  0
   17.5946   -0.5362    0.0000 C   0  0  0  0  0  0  0  0  0  0  0  0
   17.5946    1.1138    0.0000 C   0  0  0  0  0  0  0  0  0  0  0  0
   16.8801    0.7013    0.0000 C   0  0  0  0  0  0  0  0  0  0  0  0
   18.3091   -0.1237    0.0000 C   0  0  0  0  0  0  0  0  0  0  0  0
   18.3091    0.7013    0.0000 C   0  0  0  0  0  0  0  0  0  0  0  0
   19.0235    1.1138    0.0000 C   0  0  0  0  0  0  0  0  0  0  0  0
   17.5946    1.9388    0.0000 O   0  0  0  0  0  0  0  0  0  0  0  0
   16.1657    1.1138    0.0000 O   0  0  0  0  0  0  0  0  0  0  0  0
   18.3091    2.3513    0.0000 C   0  0  0  0  0  0  0  0  0  0  0  0
   16.8801   -0.1237    0.0000 C   0  0  0  0  0  0  0  0  0  0  0  0
   17.5946   -1.3612    0.0000 C   0  0  0  0  0  0  0  0  0  0  0  0
   11.2570   -4.3370    0.0000 H   0  0  0  0  0  0  0  0  0  0  0  0
   10.7234   -3.3543    0.0000 H   0  0  0  0  0  0  0  0  0  0  0  0
   11.3550    0.2029    0.0000 H   0  0  0  0  0  0  0  0  0  0  0  0
   10.4283   -1.4021    0.0000 H   0  0  0  0  0  0  0  0  0  0  0  0
   10.4284   -0.3321    0.0000 H   0  0  0  0  0  0  0  0  0  0  0  0
   10.4283    0.4929    0.0000 H   0  0  0  0  0  0  0  0  0  0  0  0
   11.3550   -1.1121    0.0000 H   0  0  0  0  0  0  0  0  0  0  0  0
   10.4284   -0.5771    0.0000 H   0  0  0  0  0  0  0  0  0  0  0  0
   13.4562   -0.1104    0.0000 H   0  0  0  0  0  0  0  0  0  0  0  0
   13.7426   -1.5560    0.0000 H   0  0  0  0  0  0  0  0  0  0  0  0
   15.0989    0.0551    0.0000 H   0  0  0  0  0  0  0  0  0  0  0  0
   14.7152   -3.0521    0.0000 H   0  0  0  0  0  0  0  0  0  0  0  0
   15.8133   -1.1826    0.0000 H   0  0  0  0  0  0  0  0  0  0  0  0
   12.7839    4.0690    0.0000 H   0  0  0  0  0  0  0  0  0  0  0  0
   12.7839    0.3549    0.0000 H   0  0  0  0  0  0  0  0  0  0  0  0
   14.2128    4.1070    0.0000 H   0  0  0  0  0  0  0  0  0  0  0  0
   15.1395    3.5720    0.0000 H   0  0  0  0  0  0  0  0  0  0  0  0
   15.8106    1.2894    0.0000 H   0  0  0  0  0  0  0  0  0  0  0  0
   15.8540    3.1594    0.0000 H   0  0  0  0  0  0  0  0  0  0  0  0
   14.9274    3.6944    0.0000 H   0  0  0  0  0  0  0  0  0  0  0  0
   11.3550    3.9739    0.0000 H   0  0  0  0  0  0  0  0  0  0  0  0
   10.6405    2.8694    0.0000 H   0  0  0  0  0  0  0  0  0  0  0  0
    9.7139    1.2644    0.0000 H   0  0  0  0  0  0  0  0  0  0  0  0
    9.7138    2.3344    0.0000 H   0  0  0  0  0  0  0  0  0  0  0  0
   15.3919   -1.5253    0.0000 H   0  0  0  0  0  0  0  0  0  0  0  0
   14.8659   -0.7361    0.0000 H   0  0  0  0  0  0  0  0  0  0  0  0
   15.6588    0.9493    0.0000 H   0  0  0  0  0  0  0  0  0  0  0  0
   15.0348    1.6609    0.0000 H   0  0  0  0  0  0  0  0  0  0  0  0
   17.9109   -1.4646    0.0000 H   0  0  0  0  0  0  0  0  0  0  0  0
   16.9984    0.1485    0.0000 H   0  0  0  0  0  0  0  0  0  0  0  0
   17.9203   -0.3946    0.0000 H   0  0  0  0  0  0  0  0  0  0  0  0
   14.8018   -3.8271    0.0000 H   0  0  0  0  0  0  0  0  0  0  0  0
   19.2028   -0.6397    0.0000 H   0  0  0  0  0  0  0  0  0  0  0  0
   19.9502    0.5788    0.0000 H   0  0  0  0  0  0  0  0  0  0  0  0
   19.0235    2.1838    0.0000 H   0  0  0  0  0  0  0  0  0  0  0  0
   19.9501    1.6488    0.0000 H   0  0  0  0  0  0  0  0  0  0  0  0
   16.1657    2.0508    0.0000 H   0  0  0  0  0  0  0  0  0  0  0  0
   19.2357    1.8163    0.0000 H   0  0  0  0  0  0  0  0  0  0  0  0
   18.3091    3.4213    0.0000 H   0  0  0  0  0  0  0  0  0  0  0  0
   19.2358    2.8863    0.0000 H   0  0  0  0  0  0  0  0  0  0  0  0
   18.5258   -1.8883    0.0000 H   0  0  0  0  0  0  0  0  0  0  0  0
   17.6083   -2.4311    0.0000 H   0  0  0  0  0  0  0  0  0  0  0  0
  1  7  1  0  0  0  0
  1 11  1  0  0  0  0
  2  8  1  0  0  0  0
  2 13  1  0  0  0  0
  3  9  1  0  0  0  0
  3 11  1  0  0  0  0
  4 13  2  0  0  0  0
  5  8  2  0  0  0  0
  5  6  1  0  0  0  0
  6  7  2  0  0  0  0
  6 16  1  0  0  0  0
  7  9  1  0  0  0  0
  8 10  1  0  0  0  0
  9 10  2  0  0  0  0
 10 12  1  0  0  0  0
 11 56  1  0  0  0  0
 11 57  1  0  0  0  0
 12 58  1  0  0  0  0
 12 59  1  0  0  0  0
 12 60  1  0  0  0  0
 13 14  1  0  0  0  0
 14 61  1  0  0  0  0
 14 62  1  0  0  0  0
 14 63  1  0  0  0  0
 15  5  1  0  0  0  0
 15 18  1  0  0  0  0
 15 38  1  0  0  0  0
 15 64  1  6  0  0  0
 16 17  1  0  0  0  0
 16 36  1  0  0  0  0
 16 65  1  1  0  0  0
 17 20  1  0  0  0  0
 18 17  1  0  0  0  0
 18 44  1  6  0  0  0
 19 18  1  0  0  0  0
 19 22  1  0  0  0  0
 19 54  1  0  0  0  0
 19 66  1  6  0  0  0
 20 21  1  0  0  0  0
 20 43  1  0  0  0  0
 20 67  1  1  0  0  0
 21 22  1  0  0  0  0
 21 55  1  0  0  0  0
 21 68  1  6  0  0  0
 22 41  1  0  0  0  0
 23 24  2  0  0  0  0
 23 28  1  0  0  0  0
 23 69  1  0  0  0  0
 24 25  1  0  0  0  0
 24 33  1  0  0  0  0
 25 26  2  0  0  0  0
 25 34  1  0  0  0  0
 26 27  1  0  0  0  0
 26 70  1  0  0  0  0
 27 28  2  0  0  0  0
 29 28  1  0  0  0  0
 29 32  1  0  0  0  0
 29 71  1  0  0  0  0
 29 72  1  0  0  0  0
 30 27  1  6  0  0  0
 30 31  1  0  0  0  0
 30 39  1  0  0  0  0
 30 40  1  0  0  0  0
 31 32  1  0  0  0  0
 31 73  1  0  0  0  0
 32 74  1  0  0  0  0
 32 75  1  0  0  0  0
 33 76  1  0  0  0  0
 34 35  1  0  0  0  0
 35 77  1  0  0  0  0
 35 78  1  0  0  0  0
 35 79  1  0  0  0  0
 36 37  1  0  0  0  0
 36 80  1  0  0  0  0
 36 81  1  0  0  0  0
 37 40  1  0  0  0  0
 39 38  1  0  0  0  0
 39 82  1  0  0  0  0
 39 83  1  0  0  0  0
 40 42  2  0  0  0  0
 41 84  1  0  0  0  0
 41 85  1  0  0  0  0
 41 86  1  0  0  0  0
 43 87  1  0  0  0  0
 45 48  2  0  0  0  0
 46 47  1  0  0  0  0
 46 49  2  0  0  0  0
 46 51  1  0  0  0  0
 47 54  2  0  0  0  0
 47 52  1  0  0  0  0
 48 49  1  0  0  0  0
 48 88  1  0  0  0  0
 49 50  1  0  0  0  0
 50 89  1  0  0  0  0
 50 90  1  0  0  0  0
 50 91  1  0  0  0  0
 51 53  1  0  0  0  0
 52 92  1  0  0  0  0
 53 93  1  0  0  0  0
 53 94  1  0  0  0  0
 53 95  1  0  0  0  0
 54 45  1  0  0  0  0
 55 45  1  0  0  0  0
 55 96  1  0  0  0  0
 55 97  1  0  0  0  0
M  END
>  <DRUGBANK_ID>
DB05109

>  <COMMON_NAME>
Trabectedin

>  <CAS_NUMBER>
114899-77-3

>  <UNII>
ID0YZQ2TCP

>  <SYNONYMS>
Ecteinascidin 743; Trabectedin; Trabectedina

$$$$
