
 OpenBabel10282417072D

 77 78  0  0  1  0  0  0  0  0999 V2000
   -5.7627   12.3818    0.0000 C   0  0  0  0  0  0  0  0  0  0  0  0
   -4.9780   12.6368    0.0000 C   0  0  0  0  0  0  0  0  0  0  0  0
   -4.3650   12.0848    0.0000 C   0  0  0  0  0  0  0  0  0  0  0  0
   -4.5365   11.2778    0.0000 C   0  0  0  0  0  0  0  0  0  0  0  0
   -5.3211   11.0228    0.0000 C   0  0  0  0  0  0  0  0  0  0  0  0
   -5.9342   11.5749    0.0000 C   0  0  0  0  0  0  0  0  0  0  0  0
   -3.9234   10.7258    0.0000 C   0  0  0  0  0  0  0  0  0  0  0  0
   -3.1388   10.9807    0.0000 C   0  0  0  0  0  0  0  0  0  0  0  0
   -2.5257   10.4287    0.0000 C   0  0  1  0  0  0  0  0  0  0  0  0
   -1.7410   10.6836    0.0000 C   0  0  0  0  0  0  0  0  0  0  0  0
   -1.1280   10.1316    0.0000 C   0  0  0  0  0  0  0  0  0  0  0  0
   -0.3433   10.3865    0.0000 C   0  0  1  0  0  0  0  0  0  0  0  0
   -0.0884   11.1711    0.0000 C   0  0  1  0  0  0  0  0  0  0  0  0
    0.7366   11.1711    0.0000 C   0  0  0  0  0  0  0  0  0  0  0  0
    0.9915   10.3865    0.0000 C   0  0  1  0  0  0  0  0  0  0  0  0
    0.3241    9.9016    0.0000 C   0  0  2  0  0  0  0  0  0  0  0  0
    0.3241    9.0766    0.0000 C   0  0  0  0  0  0  0  0  0  0  0  0
   -0.3904    8.6641    0.0000 C   0  0  0  0  0  0  0  0  0  0  0  0
   -0.3904    7.8391    0.0000 C   0  0  0  0  0  0  0  0  0  0  0  0
    0.3241    7.4266    0.0000 C   0  0  0  0  0  0  0  0  0  0  0  0
    1.0386    7.8391    0.0000 C   0  0  0  0  0  0  0  0  0  0  0  0
    1.7530    7.4266    0.0000 C   0  0  0  0  0  0  0  0  0  0  0  0
    2.4675    7.8391    0.0000 C   0  0  0  0  0  0  0  0  0  0  0  0
    2.4675    8.6641    0.0000 O   0  0  0  0  0  0  0  0  0  0  0  0
    3.1820    7.4266    0.0000 O   0  0  0  0  0  0  0  0  0  0  0  0
    3.8965    7.8391    0.0000 C   0  0  0  0  0  0  0  0  0  0  0  0
    4.6109    7.4266    0.0000 C   0  0  0  0  0  0  0  0  0  0  0  0
    5.3254    7.8391    0.0000 C   0  0  0  0  0  0  0  0  0  0  0  0
    6.0399    7.4266    0.0000 C   0  0  0  0  0  0  0  0  0  0  0  0
    6.7543    7.8391    0.0000 O   0  0  0  0  0  0  0  0  0  0  0  0
    7.4688    7.4266    0.0000 N   0  3  0  0  0  0  0  0  0  0  0  0
    8.1833    7.8391    0.0000 O   0  0  0  0  0  0  0  0  0  0  0  0
    7.4688    6.6016    0.0000 O   0  5  0  0  0  0  0  0  0  0  0  0
    1.7762   10.1316    0.0000 O   0  0  0  0  0  0  0  0  0  0  0  0
   -0.5733   11.8386    0.0000 O   0  0  0  0  0  0  0  0  0  0  0  0
   -2.6972    9.6217    0.0000 O   0  0  0  0  0  0  0  0  0  0  0  0
   -6.5296   13.0723    0.0000 H   0  0  0  0  0  0  0  0  0  0  0  0
   -4.7634   13.6462    0.0000 H   0  0  0  0  0  0  0  0  0  0  0  0
   -3.3835   12.4037    0.0000 H   0  0  0  0  0  0  0  0  0  0  0  0
   -5.5357   10.0133    0.0000 H   0  0  0  0  0  0  0  0  0  0  0  0
   -6.9157   11.2560    0.0000 H   0  0  0  0  0  0  0  0  0  0  0  0
   -4.1459    9.6792    0.0000 H   0  0  0  0  0  0  0  0  0  0  0  0
   -3.1282   10.0098    0.0000 H   0  0  0  0  0  0  0  0  0  0  0  0
   -2.9163   12.0273    0.0000 H   0  0  0  0  0  0  0  0  0  0  0  0
   -2.1212   11.3114    0.0000 H   0  0  0  0  0  0  0  0  0  0  0  0
   -3.5433   10.0980    0.0000 H   0  0  0  0  0  0  0  0  0  0  0  0
   -1.5185   11.7302    0.0000 H   0  0  0  0  0  0  0  0  0  0  0  0
   -0.7234   11.0142    0.0000 H   0  0  0  0  0  0  0  0  0  0  0  0
   -1.3505    9.0850    0.0000 H   0  0  0  0  0  0  0  0  0  0  0  0
   -0.3329    9.4156    0.0000 H   0  0  0  0  0  0  0  0  0  0  0  0
   -1.0999   11.1431    0.0000 H   0  0  0  0  0  0  0  0  0  0  0  0
   -1.1452   11.0037    0.0000 H   0  0  0  0  0  0  0  0  0  0  0  0
    1.3655   12.0367    0.0000 H   0  0  0  0  0  0  0  0  0  0  0  0
    1.7934   11.0037    0.0000 H   0  0  0  0  0  0  0  0  0  0  0  0
    1.7481   11.1431    0.0000 H   0  0  0  0  0  0  0  0  0  0  0  0
    1.2775    9.4158    0.0000 H   0  0  0  0  0  0  0  0  0  0  0  0
    1.2507    8.5416    0.0000 H   0  0  0  0  0  0  0  0  0  0  0  0
    0.3241    8.0066    0.0000 H   0  0  0  0  0  0  0  0  0  0  0  0
   -1.2841    9.1801    0.0000 H   0  0  0  0  0  0  0  0  0  0  0  0
   -1.2841    7.3231    0.0000 H   0  0  0  0  0  0  0  0  0  0  0  0
    0.3241    6.3566    0.0000 H   0  0  0  0  0  0  0  0  0  0  0  0
    1.2507    6.8916    0.0000 H   0  0  0  0  0  0  0  0  0  0  0  0
    1.0386    8.9091    0.0000 H   0  0  0  0  0  0  0  0  0  0  0  0
    1.9653    8.3741    0.0000 H   0  0  0  0  0  0  0  0  0  0  0  0
    1.7530    6.3566    0.0000 H   0  0  0  0  0  0  0  0  0  0  0  0
    2.6796    6.8916    0.0000 H   0  0  0  0  0  0  0  0  0  0  0  0
    3.8965    8.9091    0.0000 H   0  0  0  0  0  0  0  0  0  0  0  0
    4.8232    8.3741    0.0000 H   0  0  0  0  0  0  0  0  0  0  0  0
    4.6109    6.3566    0.0000 H   0  0  0  0  0  0  0  0  0  0  0  0
    5.5375    6.8916    0.0000 H   0  0  0  0  0  0  0  0  0  0  0  0
    5.3254    8.9091    0.0000 H   0  0  0  0  0  0  0  0  0  0  0  0
    6.2520    8.3741    0.0000 H   0  0  0  0  0  0  0  0  0  0  0  0
    6.0399    6.3566    0.0000 H   0  0  0  0  0  0  0  0  0  0  0  0
    6.9666    6.8916    0.0000 H   0  0  0  0  0  0  0  0  0  0  0  0
    1.9779    9.1828    0.0000 H   0  0  0  0  0  0  0  0  0  0  0  0
   -0.1787   12.7247    0.0000 H   0  0  0  0  0  0  0  0  0  0  0  0
   -3.6197    9.3219    0.0000 H   0  0  0  0  0  0  0  0  0  0  0  0
  1  2  2  0  0  0  0
  1  6  1  0  0  0  0
  1 37  1  0  0  0  0
  2  3  1  0  0  0  0
  2 38  1  0  0  0  0
  3  4  2  0  0  0  0
  3 39  1  0  0  0  0
  4  5  1  0  0  0  0
  4  7  1  0  0  0  0
  5  6  2  0  0  0  0
  5 40  1  0  0  0  0
  6 41  1  0  0  0  0
  7  8  1  0  0  0  0
  7 42  1  0  0  0  0
  7 43  1  0  0  0  0
  8  9  1  0  0  0  0
  8 44  1  0  0  0  0
  8 45  1  0  0  0  0
  9 10  1  0  0  0  0
  9 36  1  0  0  0  0
  9 46  1  6  0  0  0
 10 11  1  0  0  0  0
 10 47  1  0  0  0  0
 10 48  1  0  0  0  0
 11 49  1  0  0  0  0
 11 50  1  0  0  0  0
 12 11  1  0  0  0  0
 12 13  1  0  0  0  0
 12 16  1  0  0  0  0
 12 51  1  6  0  0  0
 13 14  1  0  0  0  0
 13 35  1  0  0  0  0
 13 52  1  1  0  0  0
 14 15  1  0  0  0  0
 14 53  1  0  0  0  0
 14 54  1  0  0  0  0
 15 16  1  0  0  0  0
 15 34  1  0  0  0  0
 15 55  1  1  0  0  0
 16 17  1  0  0  0  0
 16 56  1  1  0  0  0
 17 18  1  0  0  0  0
 17 57  1  0  0  0  0
 17 58  1  0  0  0  0
 18 19  2  0  0  0  0
 18 59  1  0  0  0  0
 19 20  1  0  0  0  0
 19 60  1  0  0  0  0
 20 21  1  0  0  0  0
 20 61  1  0  0  0  0
 20 62  1  0  0  0  0
 21 22  1  0  0  0  0
 21 63  1  0  0  0  0
 21 64  1  0  0  0  0
 22 23  1  0  0  0  0
 22 65  1  0  0  0  0
 22 66  1  0  0  0  0
 23 24  2  0  0  0  0
 23 25  1  0  0  0  0
 25 26  1  0  0  0  0
 26 27  1  0  0  0  0
 26 67  1  0  0  0  0
 26 68  1  0  0  0  0
 27 28  1  0  0  0  0
 27 69  1  0  0  0  0
 27 70  1  0  0  0  0
 28 29  1  0  0  0  0
 28 71  1  0  0  0  0
 28 72  1  0  0  0  0
 29 30  1  0  0  0  0
 29 73  1  0  0  0  0
 29 74  1  0  0  0  0
 30 31  1  0  0  0  0
 31 32  2  0  0  0  0
 31 33  1  0  0  0  0
 34 75  1  0  0  0  0
 35 76  1  0  0  0  0
 36 77  1  0  0  0  0
M  CHG  2  31   1  33  -1
M  END
>  <DRUGBANK_ID>
DB11660

>  <COMMON_NAME>
Latanoprostene bunod

>  <CAS_NUMBER>
860005-21-6

>  <UNII>
I6393O0922

>  <SYNONYMS>
Latanoprostene bunod

$$$$
