
 OpenBabel10282417072D

 49 50  0  0  0  0  0  0  0  0999 V2000
   -2.4796   -0.4043    0.0000 O   0  0  0  0  0  0  0  0  0  0  0  0
    5.3210    0.8088    0.0000 O   0  0  0  0  0  0  0  0  0  0  0  0
    3.1820   -1.2344    0.0000 O   0  0  0  0  0  0  0  0  0  0  0  0
   -5.3210    1.2344    0.0000 O   0  0  0  0  0  0  0  0  0  0  0  0
   -1.0748   -1.2344    0.0000 O   0  0  0  0  0  0  0  0  0  0  0  0
    3.8949   -0.0106    0.0000 N   0  0  0  0  0  0  0  0  0  0  0  0
    2.4690   -0.0106    0.0000 N   0  0  0  0  0  0  0  0  0  0  0  0
    0.3192   -0.4043    0.0000 N   0  0  0  0  0  0  0  0  0  0  0  0
    3.1820   -0.4257    0.0000 C   0  0  0  0  0  0  0  0  0  0  0  0
    4.6080   -0.4257    0.0000 C   0  0  0  0  0  0  0  0  0  0  0  0
    3.8949    0.8088    0.0000 C   0  0  0  0  0  0  0  0  0  0  0  0
   -3.1820    0.0000    0.0000 C   0  0  0  0  0  0  0  0  0  0  0  0
    5.3210   -0.0106    0.0000 C   0  0  0  0  0  0  0  0  0  0  0  0
    4.6080    1.2238    0.0000 C   0  0  0  0  0  0  0  0  0  0  0  0
   -3.1820    0.8301    0.0000 C   0  0  0  0  0  0  0  0  0  0  0  0
   -3.8949   -0.4149    0.0000 C   0  0  0  0  0  0  0  0  0  0  0  0
   -4.6080    0.8301    0.0000 C   0  0  0  0  0  0  0  0  0  0  0  0
   -3.8949    1.2344    0.0000 C   0  0  0  0  0  0  0  0  0  0  0  0
   -4.6080    0.0000    0.0000 C   0  0  0  0  0  0  0  0  0  0  0  0
   -1.0748   -0.4043    0.0000 C   0  0  3  0  0  0  0  0  0  0  0  0
   -1.7772    0.0000    0.0000 C   0  0  0  0  0  0  0  0  0  0  0  0
    1.7559   -0.4257    0.0000 C   0  0  0  0  0  0  0  0  0  0  0  0
   -0.3831    0.0000    0.0000 C   0  0  0  0  0  0  0  0  0  0  0  0
    1.0217    0.0000    0.0000 C   0  0  0  0  0  0  0  0  0  0  0  0
   -5.3283    2.1714    0.0000 H   0  0  0  0  0  0  0  0  0  0  0  0
   -1.9148   -1.7194    0.0000 H   0  0  0  0  0  0  0  0  0  0  0  0
    2.4690    0.9739    0.0000 H   0  0  0  0  0  0  0  0  0  0  0  0
    0.3191   -1.4243    0.0000 H   0  0  0  0  0  0  0  0  0  0  0  0
    4.6080   -1.4957    0.0000 H   0  0  0  0  0  0  0  0  0  0  0  0
    5.5356   -0.9590    0.0000 H   0  0  0  0  0  0  0  0  0  0  0  0
    2.9673    1.3422    0.0000 H   0  0  0  0  0  0  0  0  0  0  0  0
    3.8921    1.8788    0.0000 H   0  0  0  0  0  0  0  0  0  0  0  0
    6.2486   -0.5439    0.0000 H   0  0  0  0  0  0  0  0  0  0  0  0
    5.3239   -1.0806    0.0000 H   0  0  0  0  0  0  0  0  0  0  0  0
    4.6080    2.2938    0.0000 H   0  0  0  0  0  0  0  0  0  0  0  0
    3.6804    1.7572    0.0000 H   0  0  0  0  0  0  0  0  0  0  0  0
   -2.2903    1.3495    0.0000 H   0  0  0  0  0  0  0  0  0  0  0  0
   -3.8948   -1.4469    0.0000 H   0  0  0  0  0  0  0  0  0  0  0  0
   -3.8948    2.2664    0.0000 H   0  0  0  0  0  0  0  0  0  0  0  0
   -5.5026   -0.5145    0.0000 H   0  0  0  0  0  0  0  0  0  0  0  0
   -2.0011   -0.9399    0.0000 H   0  0  0  0  0  0  0  0  0  0  0  0
   -1.7772    1.0700    0.0000 H   0  0  0  0  0  0  0  0  0  0  0  0
   -0.8509    0.5356    0.0000 H   0  0  0  0  0  0  0  0  0  0  0  0
    1.7568   -1.4957    0.0000 H   0  0  0  0  0  0  0  0  0  0  0  0
    0.8290   -0.9602    0.0000 H   0  0  0  0  0  0  0  0  0  0  0  0
   -0.3866    1.0700    0.0000 H   0  0  0  0  0  0  0  0  0  0  0  0
   -1.3121    0.5310    0.0000 H   0  0  0  0  0  0  0  0  0  0  0  0
    1.0234    1.0700    0.0000 H   0  0  0  0  0  0  0  0  0  0  0  0
    1.9493    0.5334    0.0000 H   0  0  0  0  0  0  0  0  0  0  0  0
  1 12  1  0  0  0  0
  1 21  1  0  0  0  0
  2 13  1  0  0  0  0
  2 14  1  0  0  0  0
  3  9  2  0  0  0  0
  4 17  1  0  0  0  0
  4 25  1  0  0  0  0
  5 20  1  0  0  0  0
  5 26  1  0  0  0  0
  6  9  1  0  0  0  0
  6 10  1  0  0  0  0
  6 11  1  0  0  0  0
  7  9  1  0  0  0  0
  7 22  1  0  0  0  0
  7 27  1  0  0  0  0
  8 23  1  0  0  0  0
  8 24  1  0  0  0  0
  8 28  1  0  0  0  0
 10 13  1  0  0  0  0
 10 29  1  0  0  0  0
 10 30  1  0  0  0  0
 11 14  1  0  0  0  0
 11 31  1  0  0  0  0
 11 32  1  0  0  0  0
 12 15  2  0  0  0  0
 12 16  1  0  0  0  0
 13 33  1  0  0  0  0
 13 34  1  0  0  0  0
 14 35  1  0  0  0  0
 14 36  1  0  0  0  0
 15 18  1  0  0  0  0
 15 37  1  0  0  0  0
 16 19  2  0  0  0  0
 16 38  1  0  0  0  0
 17 18  2  0  0  0  0
 17 19  1  0  0  0  0
 18 39  1  0  0  0  0
 19 40  1  0  0  0  0
 20 21  1  0  0  0  0
 20 23  1  0  0  0  0
 20 41  1  0  0  0  0
 21 42  1  0  0  0  0
 21 43  1  0  0  0  0
 22 24  1  0  0  0  0
 22 44  1  0  0  0  0
 22 45  1  0  0  0  0
 23 46  1  0  0  0  0
 23 47  1  0  0  0  0
 24 48  1  0  0  0  0
 24 49  1  0  0  0  0
M  END
>  <DRUGBANK_ID>
DB13781

>  <COMMON_NAME>
Xamoterol

>  <CAS_NUMBER>
81801-12-9

>  <UNII>
7HE0JQL703

>  <SYNONYMS>
Xamoterol; Xamoterolum

$$$$
