
 OpenBabel10282417072D

 63 68  0  0  1  0  0  0  0  0999 V2000
    4.3078   -1.1907    0.0000 O   0  0  0  0  0  0  0  0  0  0  0  0
    6.3944   -1.3621    0.0000 O   0  0  0  0  0  0  0  0  0  0  0  0
    4.6437   -1.7207    0.0000 O   0  0  0  0  0  0  0  0  0  0  0  0
    2.2396   -1.3621    0.0000 O   0  0  0  0  0  0  0  0  0  0  0  0
    5.1420    2.2361    0.0000 N   0  0  0  0  0  0  0  0  0  0  0  0
    4.7295    0.0927    0.0000 C   0  0  1  0  0  0  0  0  0  0  0  0
    5.1420    0.8072    0.0000 C   0  0  1  0  0  0  0  0  0  0  0  0
    5.1420   -0.6218    0.0000 C   0  0  3  0  0  0  0  0  0  0  0  0
    5.9670   -0.6218    0.0000 C   0  0  3  0  0  0  0  0  0  0  0  0
    4.7295    1.5217    0.0000 C   0  0  1  0  0  0  0  0  0  0  0  0
    5.7378    0.4227    0.0000 C   0  0  0  0  0  0  0  0  0  0  0  0
    5.4262   -0.2006    0.0000 C   0  0  3  0  0  0  0  0  0  0  0  0
    4.3171    0.8072    0.0000 C   0  0  0  0  0  0  0  0  0  0  0  0
    3.9045    0.0927    0.0000 C   0  0  0  0  0  0  0  0  0  0  0  0
    5.9670    0.8072    0.0000 C   0  0  0  0  0  0  0  0  0  0  0  0
    3.9045    1.5217    0.0000 C   0  0  0  0  0  0  0  0  0  0  0  0
    6.3796    0.0927    0.0000 C   0  0  0  0  0  0  0  0  0  0  0  0
    4.3078    2.3844    0.0000 C   0  0  0  0  0  0  0  0  0  0  0  0
    5.0349   -0.9606    0.0000 C   0  0  3  0  0  0  0  0  0  0  0  0
    3.4920    0.8072    0.0000 C   0  0  0  0  0  0  0  0  0  0  0  0
    3.4920   -0.6218    0.0000 C   0  0  0  0  0  0  0  0  0  0  0  0
    5.7951   -1.3519    0.0000 C   0  0  0  0  0  0  0  0  0  0  0  0
    5.9170    2.5968    0.0000 C   0  0  0  0  0  0  0  0  0  0  0  0
    2.6670    0.8072    0.0000 C   0  0  0  0  0  0  0  0  0  0  0  0
    4.2749   -0.5695    0.0000 C   0  0  0  0  0  0  0  0  0  0  0  0
    2.6670   -0.6218    0.0000 C   0  0  0  0  0  0  0  0  0  0  0  0
    2.2545    0.0927    0.0000 C   0  0  0  0  0  0  0  0  0  0  0  0
    7.2492   -1.3621    0.0000 C   0  0  0  0  0  0  0  0  0  0  0  0
    5.8363   -2.2057    0.0000 C   0  0  0  0  0  0  0  0  0  0  0  0
    6.5964   -2.5968    0.0000 C   0  0  0  0  0  0  0  0  0  0  0  0
    5.3701    1.2821    0.0000 H   0  0  0  0  0  0  0  0  0  0  0  0
    3.6748   -1.7675    0.0000 H   0  0  0  0  0  0  0  0  0  0  0  0
    1.3026   -1.3621    0.0000 H   0  0  0  0  0  0  0  0  0  0  0  0
    4.0988   -0.3838    0.0000 H   0  0  0  0  0  0  0  0  0  0  0  0
    6.7699    0.7051    0.0000 H   0  0  0  0  0  0  0  0  0  0  0  0
    6.4165   -0.4045    0.0000 H   0  0  0  0  0  0  0  0  0  0  0  0
    6.4698    0.0358    0.0000 H   0  0  0  0  0  0  0  0  0  0  0  0
    3.2844    0.5273    0.0000 H   0  0  0  0  0  0  0  0  0  0  0  0
    3.4654    1.4548    0.0000 H   0  0  0  0  0  0  0  0  0  0  0  0
    6.4830    1.7010    0.0000 H   0  0  0  0  0  0  0  0  0  0  0  0
    3.3695    2.4483    0.0000 H   0  0  0  0  0  0  0  0  0  0  0  0
    2.8345    1.5217    0.0000 H   0  0  0  0  0  0  0  0  0  0  0  0
    7.4116    0.0927    0.0000 H   0  0  0  0  0  0  0  0  0  0  0  0
    3.6182    3.2025    0.0000 H   0  0  0  0  0  0  0  0  0  0  0  0
    3.3038    2.0143    0.0000 H   0  0  0  0  0  0  0  0  0  0  0  0
    6.6949   -0.7729    0.0000 H   0  0  0  0  0  0  0  0  0  0  0  0
    6.7465   -1.8416    0.0000 H   0  0  0  0  0  0  0  0  0  0  0  0
    6.7930    1.9824    0.0000 H   0  0  0  0  0  0  0  0  0  0  0  0
    6.0110    3.6627    0.0000 H   0  0  0  0  0  0  0  0  0  0  0  0
    6.8871    3.0483    0.0000 H   0  0  0  0  0  0  0  0  0  0  0  0
    2.1510    1.7009    0.0000 H   0  0  0  0  0  0  0  0  0  0  0  0
    4.2232    0.4993    0.0000 H   0  0  0  0  0  0  0  0  0  0  0  0
    3.3752   -1.1486    0.0000 H   0  0  0  0  0  0  0  0  0  0  0  0
    3.3235   -0.0799    0.0000 H   0  0  0  0  0  0  0  0  0  0  0  0
    1.2225    0.0927    0.0000 H   0  0  0  0  0  0  0  0  0  0  0  0
    7.7842   -2.2887    0.0000 H   0  0  0  0  0  0  0  0  0  0  0  0
    7.7842   -0.4355    0.0000 H   0  0  0  0  0  0  0  0  0  0  0  0
    8.3192   -1.3621    0.0000 H   0  0  0  0  0  0  0  0  0  0  0  0
    4.9366   -2.7848    0.0000 H   0  0  0  0  0  0  0  0  0  0  0  0
    5.8880   -3.2744    0.0000 H   0  0  0  0  0  0  0  0  0  0  0  0
    6.6482   -3.6655    0.0000 H   0  0  0  0  0  0  0  0  0  0  0  0
    7.4961   -2.0176    0.0000 H   0  0  0  0  0  0  0  0  0  0  0  0
    7.5478   -3.0864    0.0000 H   0  0  0  0  0  0  0  0  0  0  0  0
  1  8  1  0  0  0  0
  1 21  1  0  0  0  0
  2  9  1  0  0  0  0
  2 28  1  0  0  0  0
  3 19  1  0  0  0  0
  3 32  1  0  0  0  0
  4 26  1  0  0  0  0
  4 33  1  0  0  0  0
  5 10  1  0  0  0  0
  5 18  1  0  0  0  0
  5 23  1  0  0  0  0
  6  7  1  0  0  0  0
  6  8  1  0  0  0  0
  6 13  1  0  0  0  0
  6 14  1  6  0  0  0
  7 10  1  0  0  0  0
  7 11  1  0  0  0  0
  7 15  1  6  0  0  0
  8  9  1  0  0  0  0
  8 34  1  0  0  0  0
  9 12  1  0  0  0  0
  9 17  1  0  0  0  0
 10 16  1  0  0  0  0
 10 31  1  6  0  0  0
 11 12  1  0  0  0  0
 11 35  1  0  0  0  0
 11 36  1  0  0  0  0
 12 19  1  0  0  0  0
 12 37  1  0  0  0  0
 13 18  1  0  0  0  0
 13 38  1  0  0  0  0
 13 39  1  0  0  0  0
 14 20  2  0  0  0  0
 14 21  1  0  0  0  0
 15 17  2  0  0  0  0
 15 40  1  0  0  0  0
 16 20  1  0  0  0  0
 16 41  1  0  0  0  0
 16 42  1  0  0  0  0
 17 43  1  0  0  0  0
 18 44  1  0  0  0  0
 18 45  1  0  0  0  0
 19 22  1  0  0  0  0
 19 25  1  0  0  0  0
 20 24  1  0  0  0  0
 21 26  2  0  0  0  0
 22 29  1  0  0  0  0
 22 46  1  0  0  0  0
 22 47  1  0  0  0  0
 23 48  1  0  0  0  0
 23 49  1  0  0  0  0
 23 50  1  0  0  0  0
 24 27  2  0  0  0  0
 24 51  1  0  0  0  0
 25 52  1  0  0  0  0
 25 53  1  0  0  0  0
 25 54  1  0  0  0  0
 26 27  1  0  0  0  0
 27 55  1  0  0  0  0
 28 56  1  0  0  0  0
 28 57  1  0  0  0  0
 28 58  1  0  0  0  0
 29 30  1  0  0  0  0
 29 59  1  0  0  0  0
 29 60  1  0  0  0  0
 30 61  1  0  0  0  0
 30 62  1  0  0  0  0
 30 63  1  0  0  0  0
M  END
>  <DRUGBANK_ID>
DB01497

>  <COMMON_NAME>
Etorphine

>  <CAS_NUMBER>
14521-96-1

>  <UNII>
42M2Y6NU9O

>  <SYNONYMS>
etorfina; Etorphine; Etorphinum

$$$$
