4167
 OpenBabel10282417072D

 45 48  0  0  1  0  0  0  0  0999 V2000
    3.8495   -2.4607    0.0000 S   0  0  0  0  0  0  0  0  0  0  0  0
    5.2784    1.6643    0.0000 N   0  0  0  0  0  0  0  0  0  0  0  0
    4.5640    0.4268    0.0000 C   0  0  3  0  0  0  0  0  0  0  0  0
    3.8495    0.0143    0.0000 C   0  0  0  0  0  0  0  0  0  0  0  0
    5.2784    0.0143    0.0000 C   0  0  0  0  0  0  0  0  0  0  0  0
    4.5640    1.2518    0.0000 C   0  0  0  0  0  0  0  0  0  0  0  0
    3.8495   -0.8107    0.0000 C   0  0  0  0  0  0  0  0  0  0  0  0
    5.9929    0.4268    0.0000 C   0  0  0  0  0  0  0  0  0  0  0  0
    5.9929    1.2518    0.0000 C   0  0  0  0  0  0  0  0  0  0  0  0
    4.5640   -1.2232    0.0000 C   0  0  0  0  0  0  0  0  0  0  0  0
    3.1350   -1.2232    0.0000 C   0  0  0  0  0  0  0  0  0  0  0  0
    5.2784    2.4893    0.0000 C   0  0  0  0  0  0  0  0  0  0  0  0
    4.5640   -2.0482    0.0000 C   0  0  0  0  0  0  0  0  0  0  0  0
    3.1350   -2.0482    0.0000 C   0  0  0  0  0  0  0  0  0  0  0  0
    2.3975   -0.7821    0.0000 C   0  0  0  0  0  0  0  0  0  0  0  0
    5.3015   -0.7821    0.0000 C   0  0  0  0  0  0  0  0  0  0  0  0
    5.3015   -2.4893    0.0000 C   0  0  0  0  0  0  0  0  0  0  0  0
    2.3975   -2.4893    0.0000 C   0  0  0  0  0  0  0  0  0  0  0  0
    6.0490   -1.2061    0.0000 C   0  0  0  0  0  0  0  0  0  0  0  0
    1.6500   -1.2061    0.0000 C   0  0  0  0  0  0  0  0  0  0  0  0
    6.0490   -2.0654    0.0000 C   0  0  0  0  0  0  0  0  0  0  0  0
    1.6500   -2.0654    0.0000 C   0  0  0  0  0  0  0  0  0  0  0  0
    4.5640   -0.6432    0.0000 H   0  0  0  0  0  0  0  0  0  0  0  0
    2.9229    0.5493    0.0000 H   0  0  0  0  0  0  0  0  0  0  0  0
    2.9229   -0.5207    0.0000 H   0  0  0  0  0  0  0  0  0  0  0  0
    5.2784   -1.0557    0.0000 H   0  0  0  0  0  0  0  0  0  0  0  0
    6.2050   -0.5207    0.0000 H   0  0  0  0  0  0  0  0  0  0  0  0
    3.6373    1.7868    0.0000 H   0  0  0  0  0  0  0  0  0  0  0  0
    3.6374    0.7168    0.0000 H   0  0  0  0  0  0  0  0  0  0  0  0
    3.8495   -1.8807    0.0000 H   0  0  0  0  0  0  0  0  0  0  0  0
    6.9195   -0.1082    0.0000 H   0  0  0  0  0  0  0  0  0  0  0  0
    6.9195    0.9618    0.0000 H   0  0  0  0  0  0  0  0  0  0  0  0
    6.9195    1.7868    0.0000 H   0  0  0  0  0  0  0  0  0  0  0  0
    6.9195    0.7168    0.0000 H   0  0  0  0  0  0  0  0  0  0  0  0
    6.2050    3.0243    0.0000 H   0  0  0  0  0  0  0  0  0  0  0  0
    4.3518    3.0243    0.0000 H   0  0  0  0  0  0  0  0  0  0  0  0
    5.2784    3.5593    0.0000 H   0  0  0  0  0  0  0  0  0  0  0  0
    2.4094    0.2498    0.0000 H   0  0  0  0  0  0  0  0  0  0  0  0
    5.2896    0.2498    0.0000 H   0  0  0  0  0  0  0  0  0  0  0  0
    5.2896   -3.5212    0.0000 H   0  0  0  0  0  0  0  0  0  0  0  0
    2.4094   -3.5212    0.0000 H   0  0  0  0  0  0  0  0  0  0  0  0
    6.9408   -0.6867    0.0000 H   0  0  0  0  0  0  0  0  0  0  0  0
    0.7582   -0.6867    0.0000 H   0  0  0  0  0  0  0  0  0  0  0  0
    6.9407   -2.5849    0.0000 H   0  0  0  0  0  0  0  0  0  0  0  0
    0.7583   -2.5849    0.0000 H   0  0  0  0  0  0  0  0  0  0  0  0
  1 13  1  0  0  0  0
  1 14  1  0  0  0  0
  2  6  1  0  0  0  0
  2  9  1  0  0  0  0
  2 12  1  0  0  0  0
  3  4  1  0  0  0  0
  3  5  1  0  0  0  0
  3  6  1  0  0  0  0
  3 23  1  0  0  0  0
  4  7  1  0  0  0  0
  4 24  1  0  0  0  0
  4 25  1  0  0  0  0
  5  8  1  0  0  0  0
  5 26  1  0  0  0  0
  5 27  1  0  0  0  0
  6 28  1  0  0  0  0
  6 29  1  0  0  0  0
  7 10  1  0  0  0  0
  7 11  1  0  0  0  0
  7 30  1  0  0  0  0
  8  9  1  0  0  0  0
  8 31  1  0  0  0  0
  8 32  1  0  0  0  0
  9 33  1  0  0  0  0
  9 34  1  0  0  0  0
 10 13  1  0  0  0  0
 10 16  2  0  0  0  0
 11 14  1  0  0  0  0
 11 15  2  0  0  0  0
 12 35  1  0  0  0  0
 12 36  1  0  0  0  0
 12 37  1  0  0  0  0
 13 17  2  0  0  0  0
 14 18  2  0  0  0  0
 15 20  1  0  0  0  0
 15 38  1  0  0  0  0
 16 19  1  0  0  0  0
 16 39  1  0  0  0  0
 17 21  1  0  0  0  0
 17 40  1  0  0  0  0
 18 22  1  0  0  0  0
 18 41  1  0  0  0  0
 19 21  2  0  0  0  0
 19 42  1  0  0  0  0
 20 22  2  0  0  0  0
 20 43  1  0  0  0  0
 21 44  1  0  0  0  0
 22 45  1  0  0  0  0
M  END
>  <DRUGBANK_ID>
DB00340

>  <SECONDARY_ACCESSION_NUMBERS>
APRD01101

>  <COMMON_NAME>
Metixene

>  <CAS_NUMBER>
4969-02-2

>  <UNII>
32VY6L26ZW

>  <SYNONYMS>
Methixen; Methixene; Metisene; Metixene; Métixène; Metixeno; Metixenum

$$$$
