
 OpenBabel10282417072D

 65 68  0  0  0  0  0  0  0  0999 V2000
    5.8656  -12.7691    0.0000 C   0  0  0  0  0  0  0  0  0  0  0  0
    5.8656  -13.5941    0.0000 C   0  0  0  0  0  0  0  0  0  0  0  0
    6.5801  -14.0066    0.0000 C   0  0  0  0  0  0  0  0  0  0  0  0
    7.2945  -13.5941    0.0000 C   0  0  0  0  0  0  0  0  0  0  0  0
    7.2945  -12.7691    0.0000 C   0  0  0  0  0  0  0  0  0  0  0  0
    6.5801  -12.3567    0.0000 N   0  0  0  0  0  0  0  0  0  0  0  0
    8.0090  -14.0066    0.0000 C   0  0  0  0  0  0  0  0  0  0  0  0
    8.7235  -13.5941    0.0000 C   0  0  0  0  0  0  0  0  0  0  0  0
    8.7235  -12.7691    0.0000 C   0  0  0  0  0  0  0  0  0  0  0  0
    8.0090  -12.3567    0.0000 C   0  0  0  0  0  0  0  0  0  0  0  0
    6.5801  -14.8317    0.0000 N   0  0  0  0  0  0  0  0  0  0  0  0
    9.4395  -12.3568    0.0000 O   0  0  0  0  0  0  0  0  0  0  0  0
   10.1551  -12.7699    0.0000 C   0  0  0  0  0  0  0  0  0  0  0  0
    7.2949  -15.2444    0.0000 C   0  0  0  0  0  0  0  0  0  0  0  0
    7.2949  -16.0692    0.0000 C   0  0  0  0  0  0  0  0  0  0  0  0
    8.0094  -16.4817    0.0000 C   0  0  0  0  0  0  0  0  0  0  0  0
    8.7238  -16.0692    0.0000 C   0  0  0  0  0  0  0  0  0  0  0  0
    8.7238  -15.2444    0.0000 C   0  0  0  0  0  0  0  0  0  0  0  0
    8.0094  -14.8319    0.0000 C   0  0  0  0  0  0  0  0  0  0  0  0
    9.4396  -16.4824    0.0000 Cl  0  0  0  0  0  0  0  0  0  0  0  0
   10.8576  -12.3647    0.0000 C   0  0  0  0  0  0  0  0  0  0  0  0
   11.5726  -12.7778    0.0000 C   0  0  0  0  0  0  0  0  0  0  0  0
   12.2682  -12.3764    0.0000 N   0  0  0  0  0  0  0  0  0  0  0  0
   12.9728  -12.7837    0.0000 C   0  0  0  0  0  0  0  0  0  0  0  0
   13.6880  -12.3712    0.0000 C   0  0  0  0  0  0  0  0  0  0  0  0
   13.6883  -11.5456    0.0000 N   0  0  0  0  0  0  0  0  0  0  0  0
   12.9837  -11.1383    0.0000 C   0  0  0  0  0  0  0  0  0  0  0  0
   12.2685  -11.5508    0.0000 C   0  0  0  0  0  0  0  0  0  0  0  0
    9.4318  -14.0241    0.0000 O   0  0  0  0  0  0  0  0  0  0  0  0
   10.1505  -13.6092    0.0000 C   0  0  0  0  0  0  0  0  0  0  0  0
    6.5871  -16.4777    0.0000 Cl  0  0  0  0  0  0  0  0  0  0  0  0
    9.4416  -14.8299    0.0000 O   0  0  0  0  0  0  0  0  0  0  0  0
   10.1661  -15.2484    0.0000 C   0  0  0  0  0  0  0  0  0  0  0  0
    5.1289  -14.0193    0.0000 C   0  0  0  0  0  0  0  0  0  0  0  0
    4.4102  -14.4342    0.0000 N   0  0  0  0  0  0  0  0  0  0  0  0
   14.4148  -11.1267    0.0000 C   0  0  0  0  0  0  0  0  0  0  0  0
    4.9719  -12.2530    0.0000 H   0  0  0  0  0  0  0  0  0  0  0  0
    8.0090  -15.0386    0.0000 H   0  0  0  0  0  0  0  0  0  0  0  0
    8.0090  -11.3247    0.0000 H   0  0  0  0  0  0  0  0  0  0  0  0
    5.7275  -15.3239    0.0000 H   0  0  0  0  0  0  0  0  0  0  0  0
   10.1549  -13.8399    0.0000 H   0  0  0  0  0  0  0  0  0  0  0  0
   11.0816  -13.3052    0.0000 H   0  0  0  0  0  0  0  0  0  0  0  0
    8.0094  -17.5137    0.0000 H   0  0  0  0  0  0  0  0  0  0  0  0
    8.0094  -13.7999    0.0000 H   0  0  0  0  0  0  0  0  0  0  0  0
   10.8580  -11.2947    0.0000 H   0  0  0  0  0  0  0  0  0  0  0  0
   11.7844  -11.8300    0.0000 H   0  0  0  0  0  0  0  0  0  0  0  0
   11.5723  -13.8478    0.0000 H   0  0  0  0  0  0  0  0  0  0  0  0
   12.4991  -13.3130    0.0000 H   0  0  0  0  0  0  0  0  0  0  0  0
   12.9723  -13.8537    0.0000 H   0  0  0  0  0  0  0  0  0  0  0  0
   13.8992  -13.3191    0.0000 H   0  0  0  0  0  0  0  0  0  0  0  0
   14.6144  -12.9066    0.0000 H   0  0  0  0  0  0  0  0  0  0  0  0
   14.6149  -11.8366    0.0000 H   0  0  0  0  0  0  0  0  0  0  0  0
   12.9842  -10.0683    0.0000 H   0  0  0  0  0  0  0  0  0  0  0  0
   12.0573  -10.6029    0.0000 H   0  0  0  0  0  0  0  0  0  0  0  0
   11.3421  -11.0154    0.0000 H   0  0  0  0  0  0  0  0  0  0  0  0
   11.3416  -12.0854    0.0000 H   0  0  0  0  0  0  0  0  0  0  0  0
   11.0771  -14.1442    0.0000 H   0  0  0  0  0  0  0  0  0  0  0  0
   10.1505  -12.5392    0.0000 H   0  0  0  0  0  0  0  0  0  0  0  0
   11.0772  -13.0742    0.0000 H   0  0  0  0  0  0  0  0  0  0  0  0
   10.1659  -16.3184    0.0000 H   0  0  0  0  0  0  0  0  0  0  0  0
   11.0929  -14.7136    0.0000 H   0  0  0  0  0  0  0  0  0  0  0  0
   11.0926  -15.7836    0.0000 H   0  0  0  0  0  0  0  0  0  0  0  0
   15.3411  -11.6622    0.0000 H   0  0  0  0  0  0  0  0  0  0  0  0
   14.4154  -10.0567    0.0000 H   0  0  0  0  0  0  0  0  0  0  0  0
   15.3417  -10.5922    0.0000 H   0  0  0  0  0  0  0  0  0  0  0  0
  1  2  1  0  0  0  0
  1  6  2  0  0  0  0
  1 37  1  0  0  0  0
  2  3  2  0  0  0  0
  2 34  1  0  0  0  0
  3  4  1  0  0  0  0
  3 11  1  0  0  0  0
  4  5  1  0  0  0  0
  4  7  2  0  0  0  0
  5  6  1  0  0  0  0
  5 10  2  0  0  0  0
  7  8  1  0  0  0  0
  7 38  1  0  0  0  0
  8  9  2  0  0  0  0
  8 29  1  0  0  0  0
  9 10  1  0  0  0  0
  9 12  1  0  0  0  0
 10 39  1  0  0  0  0
 11 14  1  0  0  0  0
 11 40  1  0  0  0  0
 12 13  1  0  0  0  0
 13 21  1  0  0  0  0
 13 41  1  0  0  0  0
 13 42  1  0  0  0  0
 14 15  2  0  0  0  0
 14 19  1  0  0  0  0
 15 16  1  0  0  0  0
 15 31  1  0  0  0  0
 16 17  2  0  0  0  0
 16 43  1  0  0  0  0
 17 18  1  0  0  0  0
 17 20  1  0  0  0  0
 18 19  2  0  0  0  0
 18 32  1  0  0  0  0
 19 44  1  0  0  0  0
 21 22  1  0  0  0  0
 21 45  1  0  0  0  0
 21 46  1  0  0  0  0
 22 23  1  0  0  0  0
 22 47  1  0  0  0  0
 22 48  1  0  0  0  0
 23 24  1  0  0  0  0
 23 28  1  0  0  0  0
 24 25  1  0  0  0  0
 24 49  1  0  0  0  0
 24 50  1  0  0  0  0
 25 26  1  0  0  0  0
 25 51  1  0  0  0  0
 25 52  1  0  0  0  0
 26 27  1  0  0  0  0
 26 36  1  0  0  0  0
 27 28  1  0  0  0  0
 27 53  1  0  0  0  0
 27 54  1  0  0  0  0
 28 55  1  0  0  0  0
 28 56  1  0  0  0  0
 29 30  1  0  0  0  0
 30 57  1  0  0  0  0
 30 58  1  0  0  0  0
 30 59  1  0  0  0  0
 32 33  1  0  0  0  0
 33 60  1  0  0  0  0
 33 61  1  0  0  0  0
 33 62  1  0  0  0  0
 34 35  3  0  0  0  0
 36 63  1  0  0  0  0
 36 64  1  0  0  0  0
 36 65  1  0  0  0  0
M  END
>  <DRUGBANK_ID>
DB06616

>  <COMMON_NAME>
Bosutinib

>  <CAS_NUMBER>
380843-75-4

>  <UNII>
5018V4AEZ0

>  <SYNONYMS>
4-((2,4-dichloro-5-methoxyphenyl)amino)-6-methoxy-7-(3-(4-methyl-1-piperazinyl)propoxy)-3-quinolinecarbonitrile; Bosutinib

$$$$
