A56
 OpenBabel10282417072D

 29 31  0  0  0  0  0  0  0  0999 V2000
   -2.9482   -1.3830    0.0000 C   0  0  0  0  0  0  0  0  0  0  0  0
   -2.2337   -1.7955    0.0000 C   0  0  0  0  0  0  0  0  0  0  0  0
   -1.5192   -1.3830    0.0000 C   0  0  0  0  0  0  0  0  0  0  0  0
   -1.5192   -0.5580    0.0000 C   0  0  0  0  0  0  0  0  0  0  0  0
   -2.2337   -0.1455    0.0000 C   0  0  0  0  0  0  0  0  0  0  0  0
   -2.9482   -0.5580    0.0000 C   0  0  0  0  0  0  0  0  0  0  0  0
   -0.8048   -1.7955    0.0000 C   0  0  0  0  0  0  0  0  0  0  0  0
   -0.0903   -1.3830    0.0000 C   0  0  0  0  0  0  0  0  0  0  0  0
   -0.0903   -0.5580    0.0000 C   0  0  0  0  0  0  0  0  0  0  0  0
   -0.8048   -0.1455    0.0000 C   0  0  0  0  0  0  0  0  0  0  0  0
    0.6242   -1.7955    0.0000 Br  0  0  0  0  0  0  0  0  0  0  0  0
    0.6242   -0.1455    0.0000 C   0  0  0  0  0  0  0  0  0  0  0  0
    1.3386   -0.5580    0.0000 N   0  0  0  0  0  0  0  0  0  0  0  0
    2.0531   -0.1455    0.0000 C   0  0  0  0  0  0  0  0  0  0  0  0
    2.0531    0.6795    0.0000 N   0  0  0  0  0  0  0  0  0  0  0  0
    1.3386    1.0920    0.0000 C   0  0  0  0  0  0  0  0  0  0  0  0
    0.6242    0.6795    0.0000 N   0  0  0  0  0  0  0  0  0  0  0  0
    1.3386    1.9170    0.0000 N   0  0  0  0  0  0  0  0  0  0  0  0
    2.7676   -0.5580    0.0000 N   0  0  0  0  0  0  0  0  0  0  0  0
   -3.8419   -1.8990    0.0000 H   0  0  0  0  0  0  0  0  0  0  0  0
   -2.2337   -2.8275    0.0000 H   0  0  0  0  0  0  0  0  0  0  0  0
   -2.2337    0.8865    0.0000 H   0  0  0  0  0  0  0  0  0  0  0  0
   -3.8419   -0.0420    0.0000 H   0  0  0  0  0  0  0  0  0  0  0  0
   -0.8048   -2.8275    0.0000 H   0  0  0  0  0  0  0  0  0  0  0  0
   -0.8048    0.8865    0.0000 H   0  0  0  0  0  0  0  0  0  0  0  0
    2.1912    2.4093    0.0000 H   0  0  0  0  0  0  0  0  0  0  0  0
    0.4860    2.4093    0.0000 H   0  0  0  0  0  0  0  0  0  0  0  0
    2.7676   -1.5425    0.0000 H   0  0  0  0  0  0  0  0  0  0  0  0
    3.6202   -0.0657    0.0000 H   0  0  0  0  0  0  0  0  0  0  0  0
  1  6  2  0  0  0  0
  1  2  1  0  0  0  0
  1 20  1  0  0  0  0
  2  3  2  0  0  0  0
  2 21  1  0  0  0  0
  3  4  1  0  0  0  0
  3  7  1  0  0  0  0
  4 10  1  0  0  0  0
  4  5  2  0  0  0  0
  5  6  1  0  0  0  0
  5 22  1  0  0  0  0
  6 23  1  0  0  0  0
  7  8  2  0  0  0  0
  7 24  1  0  0  0  0
  8  9  1  0  0  0  0
  8 11  1  0  0  0  0
  9 12  1  0  0  0  0
  9 10  2  0  0  0  0
 10 25  1  0  0  0  0
 12 17  2  0  0  0  0
 12 13  1  0  0  0  0
 13 14  2  0  0  0  0
 14 15  1  0  0  0  0
 14 19  1  0  0  0  0
 15 16  2  0  0  0  0
 16 18  1  0  0  0  0
 16 17  1  0  0  0  0
 18 26  1  0  0  0  0
 18 27  1  0  0  0  0
 19 28  1  0  0  0  0
 19 29  1  0  0  0  0
M  END
>  <DRUGBANK_ID>
DB07319

>  <COMMON_NAME>
6-(3-BROMO-2-NAPHTHYL)-1,3,5-TRIAZINE-2,4-DIAMINE

$$$$
