1161
 OpenBabel10282417072D

 37 37  0  0  0  0  0  0  0  0999 V2000
    1.6500   -0.9034    0.0000 Cl  0  0  0  0  0  0  0  0  0  0  0  0
    3.7935    0.3341    0.0000 O   0  0  0  0  0  0  0  0  0  0  0  0
    2.3645    0.3341    0.0000 O   0  0  0  0  0  0  0  0  0  0  0  0
    4.5080    2.3967    0.0000 N   0  0  0  0  0  0  0  0  0  0  0  0
    3.0791   -3.3784    0.0000 N   0  0  0  0  0  0  0  0  0  0  0  0
    4.5080    1.5717    0.0000 C   0  0  0  0  0  0  0  0  0  0  0  0
    5.2224    2.8092    0.0000 C   0  0  0  0  0  0  0  0  0  0  0  0
    3.7935    2.8092    0.0000 C   0  0  0  0  0  0  0  0  0  0  0  0
    3.7935    1.1592    0.0000 C   0  0  0  0  0  0  0  0  0  0  0  0
    5.2224    3.6342    0.0000 C   0  0  0  0  0  0  0  0  0  0  0  0
    3.7935    3.6342    0.0000 C   0  0  0  0  0  0  0  0  0  0  0  0
    3.0791   -0.0784    0.0000 C   0  0  0  0  0  0  0  0  0  0  0  0
    3.0791   -0.9034    0.0000 C   0  0  0  0  0  0  0  0  0  0  0  0
    2.3645   -1.3159    0.0000 C   0  0  0  0  0  0  0  0  0  0  0  0
    3.7935   -1.3159    0.0000 C   0  0  0  0  0  0  0  0  0  0  0  0
    3.0791   -2.5534    0.0000 C   0  0  0  0  0  0  0  0  0  0  0  0
    2.3645   -2.1409    0.0000 C   0  0  0  0  0  0  0  0  0  0  0  0
    3.7935   -2.1409    0.0000 C   0  0  0  0  0  0  0  0  0  0  0  0
    2.2265   -3.8707    0.0000 H   0  0  0  0  0  0  0  0  0  0  0  0
    3.9317   -3.8706    0.0000 H   0  0  0  0  0  0  0  0  0  0  0  0
    5.4346    1.0367    0.0000 H   0  0  0  0  0  0  0  0  0  0  0  0
    4.5080    0.5017    0.0000 H   0  0  0  0  0  0  0  0  0  0  0  0
    6.1491    2.2742    0.0000 H   0  0  0  0  0  0  0  0  0  0  0  0
    6.1490    3.3442    0.0000 H   0  0  0  0  0  0  0  0  0  0  0  0
    2.8669    2.2742    0.0000 H   0  0  0  0  0  0  0  0  0  0  0  0
    2.8669    3.3442    0.0000 H   0  0  0  0  0  0  0  0  0  0  0  0
    2.8669    1.6942    0.0000 H   0  0  0  0  0  0  0  0  0  0  0  0
    3.7935    2.2292    0.0000 H   0  0  0  0  0  0  0  0  0  0  0  0
    6.1490    4.1692    0.0000 H   0  0  0  0  0  0  0  0  0  0  0  0
    4.2958    4.1692    0.0000 H   0  0  0  0  0  0  0  0  0  0  0  0
    5.2224    4.7042    0.0000 H   0  0  0  0  0  0  0  0  0  0  0  0
    4.7201    4.1692    0.0000 H   0  0  0  0  0  0  0  0  0  0  0  0
    2.8669    4.1692    0.0000 H   0  0  0  0  0  0  0  0  0  0  0  0
    3.7935    4.7042    0.0000 H   0  0  0  0  0  0  0  0  0  0  0  0
    4.6872   -0.7999    0.0000 H   0  0  0  0  0  0  0  0  0  0  0  0
    1.4708   -2.6569    0.0000 H   0  0  0  0  0  0  0  0  0  0  0  0
    4.6872   -2.6569    0.0000 H   0  0  0  0  0  0  0  0  0  0  0  0
  1 14  1  0  0  0  0
  2  9  1  0  0  0  0
  2 12  1  0  0  0  0
  3 12  2  0  0  0  0
  4  6  1  0  0  0  0
  4  7  1  0  0  0  0
  4  8  1  0  0  0  0
  5 16  1  0  0  0  0
  5 19  1  0  0  0  0
  5 20  1  0  0  0  0
  6  9  1  0  0  0  0
  6 21  1  0  0  0  0
  6 22  1  0  0  0  0
  7 10  1  0  0  0  0
  7 23  1  0  0  0  0
  7 24  1  0  0  0  0
  8 11  1  0  0  0  0
  8 25  1  0  0  0  0
  8 26  1  0  0  0  0
  9 27  1  0  0  0  0
  9 28  1  0  0  0  0
 10 29  1  0  0  0  0
 10 30  1  0  0  0  0
 10 31  1  0  0  0  0
 11 32  1  0  0  0  0
 11 33  1  0  0  0  0
 11 34  1  0  0  0  0
 12 13  1  0  0  0  0
 13 14  2  0  0  0  0
 13 15  1  0  0  0  0
 14 17  1  0  0  0  0
 15 18  2  0  0  0  0
 15 35  1  0  0  0  0
 16 17  2  0  0  0  0
 16 18  1  0  0  0  0
 17 36  1  0  0  0  0
 18 37  1  0  0  0  0
M  END
>  <DRUGBANK_ID>
DB01161

>  <SECONDARY_ACCESSION_NUMBERS>
APRD00404

>  <COMMON_NAME>
Chloroprocaine

>  <CAS_NUMBER>
133-16-4

>  <UNII>
5YVB0POT2H

>  <SYNONYMS>
2-(Diethylamino)ethyl 4-amino-2-chlorobenzoate; 2-chloroprocaine; 4-amino-2-chlorobenzoic acid 2-(diethylamino)ethyl ester; Chloroprocain; Chloroprocaine; Chloroprocainum; Chlorprocaine; Cloroprocaina

$$$$
