
 OpenBabel10282417072D

 26 26  0  0  0  0  0  0  0  0999 V2000
   -0.0115    0.3964    0.0000 N   0  0  0  0  0  0  0  0  0  0  0  0
   -0.0115   -0.4285    0.0000 C   0  0  2  0  0  0  0  0  0  0  0  0
    0.6559    0.8813    0.0000 C   0  0  0  0  0  0  0  0  0  0  0  0
   -0.6789    0.8813    0.0000 C   0  0  0  0  0  0  0  0  0  0  0  0
    0.7029   -0.8410    0.0000 C   0  0  0  0  0  0  0  0  0  0  0  0
   -0.7260   -0.8410    0.0000 C   0  0  0  0  0  0  0  0  0  0  0  0
    0.4009    1.6660    0.0000 C   0  0  0  0  0  0  0  0  0  0  0  0
    1.4405    0.6264    0.0000 O   0  0  0  0  0  0  0  0  0  0  0  0
   -0.4240    1.6660    0.0000 C   0  0  0  0  0  0  0  0  0  0  0  0
    1.4173   -0.4285    0.0000 N   0  0  0  0  0  0  0  0  0  0  0  0
    0.7029   -1.6660    0.0000 O   0  0  0  0  0  0  0  0  0  0  0  0
   -1.4405   -0.4285    0.0000 C   0  0  0  0  0  0  0  0  0  0  0  0
   -0.9381    0.1065    0.0000 H   0  0  0  0  0  0  0  0  0  0  0  0
   -1.6965    0.5506    0.0000 H   0  0  0  0  0  0  0  0  0  0  0  0
   -1.4355    1.6379    0.0000 H   0  0  0  0  0  0  0  0  0  0  0  0
   -0.7260   -1.9110    0.0000 H   0  0  0  0  0  0  0  0  0  0  0  0
   -1.6526   -1.3760    0.0000 H   0  0  0  0  0  0  0  0  0  0  0  0
    1.0298    2.5317    0.0000 H   0  0  0  0  0  0  0  0  0  0  0  0
   -0.0849    2.6194    0.0000 H   0  0  0  0  0  0  0  0  0  0  0  0
   -1.0530    2.5316    0.0000 H   0  0  0  0  0  0  0  0  0  0  0  0
    0.0618    2.6194    0.0000 H   0  0  0  0  0  0  0  0  0  0  0  0
    2.2699   -0.9207    0.0000 H   0  0  0  0  0  0  0  0  0  0  0  0
    1.4173    0.5560    0.0000 H   0  0  0  0  0  0  0  0  0  0  0  0
   -1.4405    0.6415    0.0000 H   0  0  0  0  0  0  0  0  0  0  0  0
   -2.3671   -0.9635    0.0000 H   0  0  0  0  0  0  0  0  0  0  0  0
   -2.3672    0.1065    0.0000 H   0  0  0  0  0  0  0  0  0  0  0  0
  2  1  1  0  0  0  0
  2  6  1  0  0  0  0
  2 13  1  1  0  0  0
  3  1  1  0  0  0  0
  4  1  1  0  0  0  0
  4 14  1  0  0  0  0
  4 15  1  0  0  0  0
  5  2  1  0  0  0  0
  6 16  1  0  0  0  0
  6 17  1  0  0  0  0
  7  3  1  0  0  0  0
  7 18  1  0  0  0  0
  7 19  1  0  0  0  0
  8  3  2  0  0  0  0
  9  4  1  0  0  0  0
  9  7  1  0  0  0  0
  9 20  1  0  0  0  0
  9 21  1  0  0  0  0
 10  5  1  0  0  0  0
 10 22  1  0  0  0  0
 10 23  1  0  0  0  0
 11  5  2  0  0  0  0
 12  6  1  0  0  0  0
 12 24  1  0  0  0  0
 12 25  1  0  0  0  0
 12 26  1  0  0  0  0
M  END
>  <DRUGBANK_ID>
DB01202

>  <SECONDARY_ACCESSION_NUMBERS>
APRD01068

>  <COMMON_NAME>
Levetiracetam

>  <CAS_NUMBER>
102767-28-2

>  <UNII>
44YRR34555

>  <SYNONYMS>
Levetiracetam; Levetiracetame; Levetiracetamum

$$$$
