MMG
 OpenBabel10282417072D

 38 41  0  0  0  0  0  0  0  0999 V2000
    1.9705   -0.3369    0.0000 C   0  0  0  0  0  0  0  0  0  0  0  0
    2.6850    0.9006    0.0000 C   0  0  0  0  0  0  0  0  0  0  0  0
   -2.0194   -0.3105    0.0000 C   0  0  0  0  0  0  0  0  0  0  0  0
   -0.6604   -0.7520    0.0000 C   0  0  0  0  0  0  0  0  0  0  0  0
   -2.2744   -1.0951    0.0000 C   0  0  0  0  0  0  0  0  0  0  0  0
    0.5416    0.4881    0.0000 C   0  0  0  0  0  0  0  0  0  0  0  0
    1.9705    0.4881    0.0000 C   0  0  0  0  0  0  0  0  0  0  0  0
   -1.7223   -1.7082    0.0000 C   0  0  0  0  0  0  0  0  0  0  0  0
   -0.1729    0.9006    0.0000 C   0  0  0  0  0  0  0  0  0  0  0  0
   -1.9773   -2.4928    0.0000 C   0  0  0  0  0  0  0  0  0  0  0  0
    3.3995   -0.3369    0.0000 C   0  0  0  0  0  0  0  0  0  0  0  0
    2.6850   -0.7494    0.0000 C   0  0  0  0  0  0  0  0  0  0  0  0
    3.3995    0.4881    0.0000 C   0  0  0  0  0  0  0  0  0  0  0  0
   -0.9154   -1.5366    0.0000 C   0  0  0  0  0  0  0  0  0  0  0  0
   -1.4424    1.3131    0.0000 C   0  0  0  0  0  0  0  0  0  0  0  0
    1.2560    1.7256    0.0000 C   0  0  0  0  0  0  0  0  0  0  0  0
   -1.2125   -0.1389    0.0000 C   0  0  0  0  0  0  0  0  0  0  0  0
    1.2560    0.9006    0.0000 C   0  0  0  0  0  0  0  0  0  0  0  0
   -0.9575    0.6457    0.0000 C   0  0  0  0  0  0  0  0  0  0  0  0
   -0.1729    1.7256    0.0000 C   0  0  0  0  0  0  0  0  0  0  0  0
   -0.9575    1.9806    0.0000 N   0  0  0  0  0  0  0  0  0  0  0  0
    0.5416    2.1381    0.0000 N   0  0  0  0  0  0  0  0  0  0  0  0
   -1.4252   -3.1059    0.0000 O   0  0  0  0  0  0  0  0  0  0  0  0
   -2.7843   -2.6643    0.0000 O   0  0  0  0  0  0  0  0  0  0  0  0
    1.0768   -0.8529    0.0000 H   0  0  0  0  0  0  0  0  0  0  0  0
    2.6850    1.9326    0.0000 H   0  0  0  0  0  0  0  0  0  0  0  0
   -2.7100    0.4564    0.0000 H   0  0  0  0  0  0  0  0  0  0  0  0
    0.3491   -0.5374    0.0000 H   0  0  0  0  0  0  0  0  0  0  0  0
   -3.2839   -1.3097    0.0000 H   0  0  0  0  0  0  0  0  0  0  0  0
    0.5416   -0.5439    0.0000 H   0  0  0  0  0  0  0  0  0  0  0  0
    4.2932   -0.8529    0.0000 H   0  0  0  0  0  0  0  0  0  0  0  0
    2.6850   -1.7814    0.0000 H   0  0  0  0  0  0  0  0  0  0  0  0
    4.2932    1.0041    0.0000 H   0  0  0  0  0  0  0  0  0  0  0  0
   -0.2248   -2.3035    0.0000 H   0  0  0  0  0  0  0  0  0  0  0  0
   -2.4744    1.3131    0.0000 H   0  0  0  0  0  0  0  0  0  0  0  0
    2.1497    2.2416    0.0000 H   0  0  0  0  0  0  0  0  0  0  0  0
   -1.2617    2.9169    0.0000 H   0  0  0  0  0  0  0  0  0  0  0  0
   -3.4112   -1.9679    0.0000 H   0  0  0  0  0  0  0  0  0  0  0  0
  1  7  1  0  0  0  0
  1 25  1  0  0  0  0
  2  7  2  0  0  0  0
  2 26  1  0  0  0  0
  3 27  1  0  0  0  0
  4 17  1  0  0  0  0
  4 28  1  0  0  0  0
  5  3  1  0  0  0  0
  5 29  1  0  0  0  0
  6  9  1  0  0  0  0
  6 30  1  0  0  0  0
  7 18  1  0  0  0  0
  8  5  2  0  0  0  0
  9 19  1  0  0  0  0
  9 20  2  0  0  0  0
 10  8  1  0  0  0  0
 10 24  1  0  0  0  0
 11 13  2  0  0  0  0
 11 12  1  0  0  0  0
 11 31  1  0  0  0  0
 12  1  2  0  0  0  0
 12 32  1  0  0  0  0
 13  2  1  0  0  0  0
 13 33  1  0  0  0  0
 14  4  2  0  0  0  0
 14  8  1  0  0  0  0
 14 34  1  0  0  0  0
 15 21  1  0  0  0  0
 15 35  1  0  0  0  0
 16 22  2  0  0  0  0
 16 36  1  0  0  0  0
 17  3  2  0  0  0  0
 17 19  1  0  0  0  0
 18  6  2  0  0  0  0
 18 16  1  0  0  0  0
 19 15  2  0  0  0  0
 20 21  1  0  0  0  0
 21 37  1  0  0  0  0
 22 20  1  0  0  0  0
 23 10  2  0  0  0  0
 24 38  1  0  0  0  0
M  END
>  <DRUGBANK_ID>
DB08191

>  <COMMON_NAME>
4-(5-phenyl-1H-pyrrolo[2,3-b]pyridin-3-yl)benzoic acid

$$$$
