
 OpenBabel10282417072D

 33 35  0  0  1  0  0  0  0  0999 V2000
    3.0892   -2.2186    0.0000 N   0  0  0  0  0  0  0  0  0  0  0  0
    3.8037   -1.8060    0.0000 C   0  0  0  0  0  0  0  0  0  0  0  0
    4.5181   -2.2186    0.0000 O   0  0  0  0  0  0  0  0  0  0  0  0
    3.8037   -0.9811    0.0000 N   0  0  0  0  0  0  0  0  0  0  0  0
    4.5470   -0.6231    0.0000 C   0  0  0  0  0  0  0  0  0  0  0  0
    5.1517   -1.1842    0.0000 C   0  0  0  0  0  0  0  0  0  0  0  0
    5.9401   -0.9411    0.0000 C   0  0  0  0  0  0  0  0  0  0  0  0
    6.1237   -0.1368    0.0000 C   0  0  0  0  0  0  0  0  0  0  0  0
    5.5189    0.4243    0.0000 C   0  0  0  0  0  0  0  0  0  0  0  0
    4.7305    0.1811    0.0000 C   0  0  0  0  0  0  0  0  0  0  0  0
    4.2162    0.8262    0.0000 C   0  0  2  0  0  0  0  0  0  0  0  0
    3.3912    0.8262    0.0000 C   0  0  0  0  0  0  0  0  0  0  0  0
    2.8768    0.1811    0.0000 C   0  0  0  0  0  0  0  0  0  0  0  0
    3.0604   -0.6231    0.0000 C   0  0  0  0  0  0  0  0  0  0  0  0
    2.4556   -1.1842    0.0000 C   0  0  0  0  0  0  0  0  0  0  0  0
    1.6673   -0.9411    0.0000 C   0  0  0  0  0  0  0  0  0  0  0  0
    1.4837   -0.1368    0.0000 C   0  0  0  0  0  0  0  0  0  0  0  0
    2.0884    0.4243    0.0000 C   0  0  0  0  0  0  0  0  0  0  0  0
    4.5518    1.5798    0.0000 O   0  0  0  0  0  0  0  0  0  0  0  0
    2.2366   -1.7264    0.0000 H   0  0  0  0  0  0  0  0  0  0  0  0
    3.0893   -3.2031    0.0000 H   0  0  0  0  0  0  0  0  0  0  0  0
    4.9220   -2.1903    0.0000 H   0  0  0  0  0  0  0  0  0  0  0  0
    6.6966   -1.6431    0.0000 H   0  0  0  0  0  0  0  0  0  0  0  0
    7.1098    0.1674    0.0000 H   0  0  0  0  0  0  0  0  0  0  0  0
    5.7485    1.4304    0.0000 H   0  0  0  0  0  0  0  0  0  0  0  0
    5.2776    0.9618    0.0000 H   0  0  0  0  0  0  0  0  0  0  0  0
    2.9269    1.7902    0.0000 H   0  0  0  0  0  0  0  0  0  0  0  0
    2.3279    0.9460    0.0000 H   0  0  0  0  0  0  0  0  0  0  0  0
    2.6852   -2.1903    0.0000 H   0  0  0  0  0  0  0  0  0  0  0  0
    0.9108   -1.6431    0.0000 H   0  0  0  0  0  0  0  0  0  0  0  0
    0.4975    0.1674    0.0000 H   0  0  0  0  0  0  0  0  0  0  0  0
    1.8588    1.4304    0.0000 H   0  0  0  0  0  0  0  0  0  0  0  0
    5.5165    1.6811    0.0000 H   0  0  0  0  0  0  0  0  0  0  0  0
  1  2  1  0  0  0  0
  1 20  1  0  0  0  0
  1 21  1  0  0  0  0
  2  3  2  0  0  0  0
  2  4  1  0  0  0  0
  4  5  1  0  0  0  0
  4 14  1  0  0  0  0
  5  6  2  0  0  0  0
  5 10  1  0  0  0  0
  6  7  1  0  0  0  0
  6 22  1  0  0  0  0
  7  8  2  0  0  0  0
  7 23  1  0  0  0  0
  8  9  1  0  0  0  0
  8 24  1  0  0  0  0
  9 10  2  0  0  0  0
  9 25  1  0  0  0  0
 10 11  1  0  0  0  0
 11 12  1  0  0  0  0
 11 19  1  0  0  0  0
 11 26  1  1  0  0  0
 12 13  1  0  0  0  0
 12 27  1  0  0  0  0
 12 28  1  0  0  0  0
 13 14  2  0  0  0  0
 13 18  1  0  0  0  0
 14 15  1  0  0  0  0
 15 16  2  0  0  0  0
 15 29  1  0  0  0  0
 16 17  1  0  0  0  0
 16 30  1  0  0  0  0
 17 18  2  0  0  0  0
 17 31  1  0  0  0  0
 18 32  1  0  0  0  0
 19 33  1  0  0  0  0
M  END
>  <DRUGBANK_ID>
DB14575

>  <COMMON_NAME>
Eslicarbazepine

>  <CAS_NUMBER>
104746-04-5

>  <UNII>
S5VXA428R4

>  <SYNONYMS>
Eslicarbazepina; Eslicarbazepine; S(+)-Liscarbazepine

$$$$
