
 OpenBabel10282417072D

 85 92  0  0  0  0  0  0  0  0999 V2000
   -3.4660   -0.8150    0.0000 C   0  0  0  0  0  0  0  0  0  0  0  0
   -2.7684   -0.3746    0.0000 C   0  0  0  0  0  0  0  0  0  0  0  0
   -2.7146    0.4486    0.0000 C   0  0  0  0  0  0  0  0  0  0  0  0
   -3.3490    0.9760    0.0000 C   0  0  0  0  0  0  0  0  0  0  0  0
   -4.1230    0.6903    0.0000 C   0  0  0  0  0  0  0  0  0  0  0  0
   -4.7574    1.2176    0.0000 C   0  0  0  0  0  0  0  0  0  0  0  0
   -5.5313    0.9319    0.0000 O   0  0  0  0  0  0  0  0  0  0  0  0
   -4.6179    2.0308    0.0000 O   0  0  0  0  0  0  0  0  0  0  0  0
   -1.9151    0.6519    0.0000 C   0  0  0  0  0  0  0  0  0  0  0  0
   -1.3945    1.5893    0.0000 C   0  0  0  0  0  0  0  0  0  0  0  0
   -0.6802    2.0020    0.0000 C   0  0  0  0  0  0  0  0  0  0  0  0
   -0.3746    2.7684    0.0000 C   0  0  0  0  0  0  0  0  0  0  0  0
   -0.8150    3.4660    0.0000 C   0  0  0  0  0  0  0  0  0  0  0  0
    0.4486    2.7146    0.0000 C   0  0  0  0  0  0  0  0  0  0  0  0
    0.9760    3.3490    0.0000 C   0  0  0  0  0  0  0  0  0  0  0  0
    1.7891    3.2095    0.0000 C   0  0  0  0  0  0  0  0  0  0  0  0
    2.3165    3.8440    0.0000 C   0  0  0  0  0  0  0  0  0  0  0  0
    2.0308    4.6179    0.0000 O   0  0  0  0  0  0  0  0  0  0  0  0
    3.1296    3.7044    0.0000 O   0  0  0  0  0  0  0  0  0  0  0  0
    0.6519    1.9151    0.0000 C   0  0  0  0  0  0  0  0  0  0  0  0
    1.5893    1.3945    0.0000 C   0  0  0  0  0  0  0  0  0  0  0  0
    2.0020    0.6802    0.0000 C   0  0  0  0  0  0  0  0  0  0  0  0
    1.4746    0.0457    0.0000 N   0  0  0  0  0  0  0  0  0  0  0  0
    1.9151   -0.6519    0.0000 C   0  0  0  0  0  0  0  0  0  0  0  0
    1.3945   -1.5893    0.0000 C   0  0  0  0  0  0  0  0  0  0  0  0
    0.6802   -2.0020    0.0000 C   0  0  0  0  0  0  0  0  0  0  0  0
    0.3746   -2.7684    0.0000 C   0  0  0  0  0  0  0  0  0  0  0  0
    0.8150   -3.4660    0.0000 C   0  0  0  0  0  0  0  0  0  0  0  0
   -0.4486   -2.7146    0.0000 C   0  0  0  0  0  0  0  0  0  0  0  0
   -0.9760   -3.3490    0.0000 C   0  0  0  0  0  0  0  0  0  0  0  0
   -1.7891   -3.2095    0.0000 C   0  0  0  0  0  0  0  0  0  0  0  0
   -2.3165   -3.8440    0.0000 C   0  0  0  0  0  0  0  0  0  0  0  0
   -2.0308   -4.6179    0.0000 O   0  0  0  0  0  0  0  0  0  0  0  0
   -3.1296   -3.7044    0.0000 O   0  0  0  0  0  0  0  0  0  0  0  0
   -0.6519   -1.9151    0.0000 C   0  0  0  0  0  0  0  0  0  0  0  0
   -1.5893   -1.3945    0.0000 C   0  0  0  0  0  0  0  0  0  0  0  0
   -2.0020   -0.6802    0.0000 C   0  0  0  0  0  0  0  0  0  0  0  0
   -1.4746   -0.0457    0.0000 N   0  0  0  0  0  0  0  0  0  0  0  0
    0.0000    0.0000    0.0000 Co  0  0  3  0  0  0  0  0  0  0  0  0
    0.0457   -1.4746    0.0000 N   0  0  0  0  0  0  0  0  0  0  0  0
   -0.0457    1.4746    0.0000 N   0  0  0  0  0  0  0  0  0  0  0  0
    2.7146   -0.4486    0.0000 C   0  0  0  0  0  0  0  0  0  0  0  0
    3.3490   -0.9760    0.0000 C   0  0  0  0  0  0  0  0  0  0  0  0
    4.1230   -0.6903    0.0000 C   0  0  0  0  0  0  0  0  0  0  0  0
    4.7574   -1.2176    0.0000 C   0  0  0  0  0  0  0  0  0  0  0  0
    5.5313   -0.9319    0.0000 O   0  0  0  0  0  0  0  0  0  0  0  0
    4.6179   -2.0308    0.0000 O   0  0  0  0  0  0  0  0  0  0  0  0
    2.7684    0.3746    0.0000 C   0  0  0  0  0  0  0  0  0  0  0  0
    3.4660    0.8150    0.0000 C   0  0  0  0  0  0  0  0  0  0  0  0
   -4.4131   -0.3170    0.0000 H   0  0  0  0  0  0  0  0  0  0  0  0
   -3.4237   -1.8842    0.0000 H   0  0  0  0  0  0  0  0  0  0  0  0
   -4.3708   -1.3862    0.0000 H   0  0  0  0  0  0  0  0  0  0  0  0
   -3.1680    2.0306    0.0000 H   0  0  0  0  0  0  0  0  0  0  0  0
   -4.1718    1.6600    0.0000 H   0  0  0  0  0  0  0  0  0  0  0  0
   -4.3040   -0.3643    0.0000 H   0  0  0  0  0  0  0  0  0  0  0  0
   -5.1268    0.3197    0.0000 H   0  0  0  0  0  0  0  0  0  0  0  0
   -6.2518    1.5309    0.0000 H   0  0  0  0  0  0  0  0  0  0  0  0
   -2.1304    2.3128    0.0000 H   0  0  0  0  0  0  0  0  0  0  0  0
   -0.3170    4.4131    0.0000 H   0  0  0  0  0  0  0  0  0  0  0  0
   -1.8842    3.4237    0.0000 H   0  0  0  0  0  0  0  0  0  0  0  0
   -1.3862    4.3708    0.0000 H   0  0  0  0  0  0  0  0  0  0  0  0
    0.6054    4.3528    0.0000 H   0  0  0  0  0  0  0  0  0  0  0  0
    1.6600    4.1718    0.0000 H   0  0  0  0  0  0  0  0  0  0  0  0
    2.1597    2.2057    0.0000 H   0  0  0  0  0  0  0  0  0  0  0  0
    2.8437    3.0286    0.0000 H   0  0  0  0  0  0  0  0  0  0  0  0
    2.6298    5.3384    0.0000 H   0  0  0  0  0  0  0  0  0  0  0  0
    2.3128    2.1304    0.0000 H   0  0  0  0  0  0  0  0  0  0  0  0
    2.1304   -2.3128    0.0000 H   0  0  0  0  0  0  0  0  0  0  0  0
    0.3170   -4.4131    0.0000 H   0  0  0  0  0  0  0  0  0  0  0  0
    1.8842   -3.4237    0.0000 H   0  0  0  0  0  0  0  0  0  0  0  0
    1.3862   -4.3708    0.0000 H   0  0  0  0  0  0  0  0  0  0  0  0
   -0.6054   -4.3528    0.0000 H   0  0  0  0  0  0  0  0  0  0  0  0
   -1.6600   -4.1718    0.0000 H   0  0  0  0  0  0  0  0  0  0  0  0
   -2.1597   -2.2057    0.0000 H   0  0  0  0  0  0  0  0  0  0  0  0
   -2.8437   -3.0286    0.0000 H   0  0  0  0  0  0  0  0  0  0  0  0
   -2.6298   -5.3384    0.0000 H   0  0  0  0  0  0  0  0  0  0  0  0
   -2.3128   -2.1304    0.0000 H   0  0  0  0  0  0  0  0  0  0  0  0
    3.1680   -2.0306    0.0000 H   0  0  0  0  0  0  0  0  0  0  0  0
    4.1718   -1.6600    0.0000 H   0  0  0  0  0  0  0  0  0  0  0  0
    4.3040    0.3643    0.0000 H   0  0  0  0  0  0  0  0  0  0  0  0
    5.1268   -0.3197    0.0000 H   0  0  0  0  0  0  0  0  0  0  0  0
    6.2518   -1.5309    0.0000 H   0  0  0  0  0  0  0  0  0  0  0  0
    4.4131    0.3170    0.0000 H   0  0  0  0  0  0  0  0  0  0  0  0
    3.4237    1.8842    0.0000 H   0  0  0  0  0  0  0  0  0  0  0  0
    4.3708    1.3862    0.0000 H   0  0  0  0  0  0  0  0  0  0  0  0
  1  2  1  0  0  0  0
  1 50  1  0  0  0  0
  1 51  1  0  0  0  0
  1 52  1  0  0  0  0
  2  3  2  0  0  0  0
  2 37  1  0  0  0  0
  3  4  1  0  0  0  0
  3  9  1  0  0  0  0
  4  5  1  0  0  0  0
  4 53  1  0  0  0  0
  4 54  1  0  0  0  0
  5  6  1  0  0  0  0
  5 55  1  0  0  0  0
  5 56  1  0  0  0  0
  6  7  1  0  0  0  0
  6  8  2  0  0  0  0
  7 57  1  0  0  0  0
  9 10  2  0  0  0  0
  9 38  1  0  0  0  0
 10 11  1  0  0  0  0
 10 58  1  0  0  0  0
 11 12  2  0  0  0  0
 11 41  1  0  0  0  0
 12 13  1  0  0  0  0
 12 14  1  0  0  0  0
 13 59  1  0  0  0  0
 13 60  1  0  0  0  0
 13 61  1  0  0  0  0
 14 15  1  0  0  0  0
 14 20  2  0  0  0  0
 15 16  1  0  0  0  0
 15 62  1  0  0  0  0
 15 63  1  0  0  0  0
 16 17  1  0  0  0  0
 16 64  1  0  0  0  0
 16 65  1  0  0  0  0
 17 18  1  0  0  0  0
 17 19  2  0  0  0  0
 18 66  1  0  0  0  0
 20 21  1  0  0  0  0
 20 41  1  0  0  0  0
 21 22  2  0  0  0  0
 21 67  1  0  0  0  0
 22 23  1  0  0  0  0
 22 48  1  0  0  0  0
 23 24  1  0  0  0  0
 23 39  1  0  0  0  0
 24 25  2  0  0  0  0
 24 42  1  0  0  0  0
 25 26  1  0  0  0  0
 25 68  1  0  0  0  0
 26 27  2  0  0  0  0
 26 40  1  0  0  0  0
 27 28  1  0  0  0  0
 27 29  1  0  0  0  0
 28 69  1  0  0  0  0
 28 70  1  0  0  0  0
 28 71  1  0  0  0  0
 29 30  1  0  0  0  0
 29 35  2  0  0  0  0
 30 31  1  0  0  0  0
 30 72  1  0  0  0  0
 30 73  1  0  0  0  0
 31 32  1  0  0  0  0
 31 74  1  0  0  0  0
 31 75  1  0  0  0  0
 32 33  1  0  0  0  0
 32 34  2  0  0  0  0
 33 76  1  0  0  0  0
 35 36  1  0  0  0  0
 35 40  1  0  0  0  0
 36 37  2  0  0  0  0
 36 77  1  0  0  0  0
 37 38  1  0  0  0  0
 38 39  1  0  0  0  0
 39 40  1  0  0  0  0
 39 41  1  0  0  0  0
 42 43  1  0  0  0  0
 42 48  2  0  0  0  0
 43 44  1  0  0  0  0
 43 78  1  0  0  0  0
 43 79  1  0  0  0  0
 44 45  1  0  0  0  0
 44 80  1  0  0  0  0
 44 81  1  0  0  0  0
 45 46  1  0  0  0  0
 45 47  2  0  0  0  0
 46 82  1  0  0  0  0
 48 49  1  0  0  0  0
 49 83  1  0  0  0  0
 49 84  1  0  0  0  0
 49 85  1  0  0  0  0
M  END
>  <DRUGBANK_ID>
DB04423

>  <SECONDARY_ACCESSION_NUMBERS>
EXPT02513

>  <COMMON_NAME>
Coproporphyrin I containing CO(III)

$$$$
