
 OpenBabel10282417072D

 90 93  0  0  0  0  0  0  0  0999 V2000
   -1.4289   -8.2500    0.0000 C   0  0  0  0  0  0  0  0  0  0  0  0
   -1.4289   -7.4250    0.0000 C   0  0  0  0  0  0  0  0  0  0  0  0
   -0.7145   -7.0125    0.0000 N   0  0  0  0  0  0  0  0  0  0  0  0
    0.0000   -7.4250    0.0000 C   0  0  0  0  0  0  0  0  0  0  0  0
    0.0000   -8.2500    0.0000 N   0  0  0  0  0  0  0  0  0  0  0  0
   -0.7145   -8.6625    0.0000 C   0  0  0  0  0  0  0  0  0  0  0  0
   -0.7145   -9.4875    0.0000 N   0  0  0  0  0  0  0  0  0  0  0  0
    0.7145   -7.0125    0.0000 N   0  0  0  0  0  0  0  0  0  0  0  0
    1.4289   -7.4250    0.0000 C   0  0  0  0  0  0  0  0  0  0  0  0
    2.1434   -7.0125    0.0000 C   0  0  1  0  0  0  0  0  0  0  0  0
    2.1434   -6.1875    0.0000 C   0  0  0  0  0  0  0  0  0  0  0  0
    2.8579   -5.7750    0.0000 C   0  0  0  0  0  0  0  0  0  0  0  0
    3.5724   -6.1875    0.0000 C   0  0  1  0  0  0  0  0  0  0  0  0
    3.5724   -7.0125    0.0000 C   0  0  0  0  0  0  0  0  0  0  0  0
    2.8579   -7.4250    0.0000 C   0  0  0  0  0  0  0  0  0  0  0  0
    4.2868   -5.7750    0.0000 C   0  0  0  0  0  0  0  0  0  0  0  0
    5.0013   -6.1875    0.0000 N   0  0  0  0  0  0  0  0  0  0  0  0
    5.7158   -5.7750    0.0000 C   0  0  0  0  0  0  0  0  0  0  0  0
    6.4302   -6.1875    0.0000 C   0  0  0  0  0  0  0  0  0  0  0  0
    7.1447   -5.7750    0.0000 C   0  0  0  0  0  0  0  0  0  0  0  0
    7.8592   -6.1875    0.0000 N   0  0  0  0  0  0  0  0  0  0  0  0
    8.5737   -5.7750    0.0000 C   0  0  0  0  0  0  0  0  0  0  0  0
    8.5737   -4.9500    0.0000 C   0  0  0  0  0  0  0  0  0  0  0  0
    9.2881   -4.5375    0.0000 C   0  0  0  0  0  0  0  0  0  0  0  0
   10.0026   -4.9500    0.0000 C   0  0  0  0  0  0  0  0  0  0  0  0
   10.0026   -5.7750    0.0000 C   0  0  0  0  0  0  0  0  0  0  0  0
    9.2881   -6.1875    0.0000 C   0  0  0  0  0  0  0  0  0  0  0  0
   -2.1434   -7.0125    0.0000 N   0  0  0  0  0  0  0  0  0  0  0  0
   -2.8579   -7.4250    0.0000 C   0  0  0  0  0  0  0  0  0  0  0  0
   -3.5724   -7.0125    0.0000 C   0  0  0  0  0  0  0  0  0  0  0  0
   -3.5724   -6.1875    0.0000 N   0  0  0  0  0  0  0  0  0  0  0  0
   -2.8579   -5.7750    0.0000 C   0  0  0  0  0  0  0  0  0  0  0  0
   -2.1434   -6.1875    0.0000 C   0  0  0  0  0  0  0  0  0  0  0  0
   -4.2868   -5.7750    0.0000 C   0  0  0  0  0  0  0  0  0  0  0  0
   -4.2868   -4.9500    0.0000 C   0  0  0  0  0  0  0  0  0  0  0  0
   -5.0013   -4.5375    0.0000 P   0  0  0  0  0  0  0  0  0  0  0  0
   -5.7158   -4.1250    0.0000 O   0  0  0  0  0  0  0  0  0  0  0  0
   -4.5888   -3.8230    0.0000 O   0  0  0  0  0  0  0  0  0  0  0  0
   -5.4138   -5.2520    0.0000 O   0  0  0  0  0  0  0  0  0  0  0  0
   -2.3226   -8.7660    0.0000 H   0  0  0  0  0  0  0  0  0  0  0  0
   -1.5671   -9.9798    0.0000 H   0  0  0  0  0  0  0  0  0  0  0  0
    0.1381   -9.9798    0.0000 H   0  0  0  0  0  0  0  0  0  0  0  0
    0.7145   -6.0280    0.0000 H   0  0  0  0  0  0  0  0  0  0  0  0
    1.4289   -8.4950    0.0000 H   0  0  0  0  0  0  0  0  0  0  0  0
    2.3555   -7.9600    0.0000 H   0  0  0  0  0  0  0  0  0  0  0  0
    1.2168   -6.4775    0.0000 H   0  0  0  0  0  0  0  0  0  0  0  0
    1.2168   -5.6525    0.0000 H   0  0  0  0  0  0  0  0  0  0  0  0
    2.1434   -5.1175    0.0000 H   0  0  0  0  0  0  0  0  0  0  0  0
    2.8579   -4.7050    0.0000 H   0  0  0  0  0  0  0  0  0  0  0  0
    3.7845   -5.2400    0.0000 H   0  0  0  0  0  0  0  0  0  0  0  0
    3.5724   -5.1175    0.0000 H   0  0  0  0  0  0  0  0  0  0  0  0
    4.4990   -7.5475    0.0000 H   0  0  0  0  0  0  0  0  0  0  0  0
    3.5724   -8.0825    0.0000 H   0  0  0  0  0  0  0  0  0  0  0  0
    2.8579   -8.4950    0.0000 H   0  0  0  0  0  0  0  0  0  0  0  0
    1.9313   -7.9600    0.0000 H   0  0  0  0  0  0  0  0  0  0  0  0
    4.2868   -4.7050    0.0000 H   0  0  0  0  0  0  0  0  0  0  0  0
    5.2134   -5.2400    0.0000 H   0  0  0  0  0  0  0  0  0  0  0  0
    5.0013   -7.2075    0.0000 H   0  0  0  0  0  0  0  0  0  0  0  0
    5.7158   -4.7050    0.0000 H   0  0  0  0  0  0  0  0  0  0  0  0
    6.6425   -5.2400    0.0000 H   0  0  0  0  0  0  0  0  0  0  0  0
    6.4302   -7.2575    0.0000 H   0  0  0  0  0  0  0  0  0  0  0  0
    7.3568   -6.7225    0.0000 H   0  0  0  0  0  0  0  0  0  0  0  0
    7.1447   -4.7050    0.0000 H   0  0  0  0  0  0  0  0  0  0  0  0
    8.0713   -5.2400    0.0000 H   0  0  0  0  0  0  0  0  0  0  0  0
    7.8592   -7.2075    0.0000 H   0  0  0  0  0  0  0  0  0  0  0  0
    9.5004   -5.2400    0.0000 H   0  0  0  0  0  0  0  0  0  0  0  0
    7.6470   -4.4150    0.0000 H   0  0  0  0  0  0  0  0  0  0  0  0
    8.5737   -3.8800    0.0000 H   0  0  0  0  0  0  0  0  0  0  0  0
    9.2881   -3.4675    0.0000 H   0  0  0  0  0  0  0  0  0  0  0  0
   10.2147   -4.0025    0.0000 H   0  0  0  0  0  0  0  0  0  0  0  0
   10.9292   -4.4150    0.0000 H   0  0  0  0  0  0  0  0  0  0  0  0
   10.9292   -5.4850    0.0000 H   0  0  0  0  0  0  0  0  0  0  0  0
   10.9292   -6.3100    0.0000 H   0  0  0  0  0  0  0  0  0  0  0  0
   10.0026   -6.8450    0.0000 H   0  0  0  0  0  0  0  0  0  0  0  0
    9.2881   -7.2575    0.0000 H   0  0  0  0  0  0  0  0  0  0  0  0
    8.3614   -6.7225    0.0000 H   0  0  0  0  0  0  0  0  0  0  0  0
   -2.8579   -8.4950    0.0000 H   0  0  0  0  0  0  0  0  0  0  0  0
   -3.7845   -7.9600    0.0000 H   0  0  0  0  0  0  0  0  0  0  0  0
   -4.4990   -7.5475    0.0000 H   0  0  0  0  0  0  0  0  0  0  0  0
   -4.4990   -6.4775    0.0000 H   0  0  0  0  0  0  0  0  0  0  0  0
   -2.8579   -4.7050    0.0000 H   0  0  0  0  0  0  0  0  0  0  0  0
   -1.9313   -5.2400    0.0000 H   0  0  0  0  0  0  0  0  0  0  0  0
   -1.2168   -5.6525    0.0000 H   0  0  0  0  0  0  0  0  0  0  0  0
   -1.2168   -6.7225    0.0000 H   0  0  0  0  0  0  0  0  0  0  0  0
   -5.2135   -6.3100    0.0000 H   0  0  0  0  0  0  0  0  0  0  0  0
   -5.2134   -5.2400    0.0000 H   0  0  0  0  0  0  0  0  0  0  0  0
   -3.3602   -4.4150    0.0000 H   0  0  0  0  0  0  0  0  0  0  0  0
   -4.2868   -3.8800    0.0000 H   0  0  0  0  0  0  0  0  0  0  0  0
   -3.6188   -3.8230    0.0000 H   0  0  0  0  0  0  0  0  0  0  0  0
   -6.3838   -5.2520    0.0000 H   0  0  0  0  0  0  0  0  0  0  0  0
  1  2  2  0  0  0  0
  1  6  1  0  0  0  0
  1 40  1  0  0  0  0
  2  3  1  0  0  0  0
  2 28  1  0  0  0  0
  3  4  2  0  0  0  0
  4  5  1  0  0  0  0
  4  8  1  0  0  0  0
  5  6  2  0  0  0  0
  6  7  1  0  0  0  0
  7 41  1  0  0  0  0
  7 42  1  0  0  0  0
  8  9  1  0  0  0  0
  8 43  1  0  0  0  0
  9 44  1  0  0  0  0
  9 45  1  0  0  0  0
 10  9  1  0  0  0  0
 10 11  1  0  0  0  0
 10 15  1  0  0  0  0
 10 46  1  6  0  0  0
 11 12  1  0  0  0  0
 11 47  1  0  0  0  0
 11 48  1  0  0  0  0
 12 13  1  0  0  0  0
 12 49  1  0  0  0  0
 12 50  1  0  0  0  0
 13 14  1  0  0  0  0
 13 16  1  0  0  0  0
 13 51  1  1  0  0  0
 14 15  1  0  0  0  0
 14 52  1  0  0  0  0
 14 53  1  0  0  0  0
 15 54  1  0  0  0  0
 15 55  1  0  0  0  0
 16 17  1  0  0  0  0
 16 56  1  0  0  0  0
 16 57  1  0  0  0  0
 17 18  1  0  0  0  0
 17 58  1  0  0  0  0
 18 19  1  0  0  0  0
 18 59  1  0  0  0  0
 18 60  1  0  0  0  0
 19 20  1  0  0  0  0
 19 61  1  0  0  0  0
 19 62  1  0  0  0  0
 20 21  1  0  0  0  0
 20 63  1  0  0  0  0
 20 64  1  0  0  0  0
 21 22  1  0  0  0  0
 21 65  1  0  0  0  0
 22 23  1  0  0  0  0
 22 27  1  0  0  0  0
 22 66  1  0  0  0  0
 23 24  1  0  0  0  0
 23 67  1  0  0  0  0
 23 68  1  0  0  0  0
 24 25  1  0  0  0  0
 24 69  1  0  0  0  0
 24 70  1  0  0  0  0
 25 26  1  0  0  0  0
 25 71  1  0  0  0  0
 25 72  1  0  0  0  0
 26 27  1  0  0  0  0
 26 73  1  0  0  0  0
 26 74  1  0  0  0  0
 27 75  1  0  0  0  0
 27 76  1  0  0  0  0
 28 29  1  0  0  0  0
 28 33  1  0  0  0  0
 29 30  1  0  0  0  0
 29 77  1  0  0  0  0
 29 78  1  0  0  0  0
 30 31  1  0  0  0  0
 30 79  1  0  0  0  0
 30 80  1  0  0  0  0
 31 32  1  0  0  0  0
 31 34  1  0  0  0  0
 32 33  1  0  0  0  0
 32 81  1  0  0  0  0
 32 82  1  0  0  0  0
 33 83  1  0  0  0  0
 33 84  1  0  0  0  0
 34 35  1  0  0  0  0
 34 85  1  0  0  0  0
 34 86  1  0  0  0  0
 35 36  1  0  0  0  0
 35 87  1  0  0  0  0
 35 88  1  0  0  0  0
 36 37  2  0  0  0  0
 36 38  1  0  0  0  0
 36 39  1  0  0  0  0
 38 89  1  0  0  0  0
 39 90  1  0  0  0  0
M  END
>  <DRUGBANK_ID>
DB11970

>  <COMMON_NAME>
Burixafor

>  <CAS_NUMBER>
1191448-17-5

>  <UNII>
2G17Y0Q20G

>  <SYNONYMS>
Burixafor

$$$$
