
 OpenBabel10282417072D

 52 55  0  0  0  0  0  0  0  0999 V2000
    2.9514    1.6015    0.0000 O   0  0  0  0  0  0  0  0  0  0  0  0
   -2.9514   -1.6524    0.0000 O   0  0  0  0  0  0  0  0  0  0  0  0
    1.4995    0.8628    0.0000 C   0  0  1  0  0  0  0  0  0  0  0  0
    1.4995    0.0413    0.0000 C   0  0  2  0  0  0  0  0  0  0  0  0
    0.7863   -0.3725    0.0000 C   0  0  1  0  0  0  0  0  0  0  0  0
    0.0732    0.0413    0.0000 C   0  0  1  0  0  0  0  0  0  0  0  0
   -0.6781   -0.3789    0.0000 C   0  0  1  0  0  0  0  0  0  0  0  0
    2.2828    1.1175    0.0000 C   0  0  2  0  0  0  0  0  0  0  0  0
    0.7863    1.2767    0.0000 C   0  0  0  0  0  0  0  0  0  0  0  0
    0.0732    0.8628    0.0000 C   0  0  0  0  0  0  0  0  0  0  0  0
    2.2828   -0.2133    0.0000 C   0  0  0  0  0  0  0  0  0  0  0  0
    0.7991   -1.2321    0.0000 C   0  0  0  0  0  0  0  0  0  0  0  0
   -0.6845   -1.2385    0.0000 C   0  0  1  0  0  0  0  0  0  0  0  0
    2.7603    0.4489    0.0000 C   0  0  0  0  0  0  0  0  0  0  0  0
    0.0541   -1.6715    0.0000 C   0  0  0  0  0  0  0  0  0  0  0  0
    1.4995    1.6906    0.0000 C   0  0  0  0  0  0  0  0  0  0  0  0
   -0.6717    0.4489    0.0000 C   0  0  0  0  0  0  0  0  0  0  0  0
    2.0280    1.9007    0.0000 C   0  0  0  0  0  0  0  0  0  0  0  0
   -1.4486    0.0859    0.0000 C   0  0  0  0  0  0  0  0  0  0  0  0
   -1.4613   -1.6906    0.0000 C   0  0  0  0  0  0  0  0  0  0  0  0
   -2.2255   -0.3469    0.0000 C   0  0  0  0  0  0  0  0  0  0  0  0
   -2.2382   -1.2448    0.0000 C   0  0  0  0  0  0  0  0  0  0  0  0
    1.5695   -0.6144    0.0000 H   0  0  0  0  0  0  0  0  0  0  0  0
    1.3595   -0.6972    0.0000 H   0  0  0  0  0  0  0  0  0  0  0  0
    0.6400    0.3660    0.0000 H   0  0  0  0  0  0  0  0  0  0  0  0
   -0.6845   -1.9007    0.0000 H   0  0  0  0  0  0  0  0  0  0  0  0
    3.8369    1.2054    0.0000 H   0  0  0  0  0  0  0  0  0  0  0  0
    0.7863    2.3467    0.0000 H   0  0  0  0  0  0  0  0  0  0  0  0
   -0.1410    1.8106    0.0000 H   0  0  0  0  0  0  0  0  0  0  0  0
   -0.8541    1.3967    0.0000 H   0  0  0  0  0  0  0  0  0  0  0  0
    0.0714    1.9328    0.0000 H   0  0  0  0  0  0  0  0  0  0  0  0
    2.6152   -1.2304    0.0000 H   0  0  0  0  0  0  0  0  0  0  0  0
    3.3401   -0.3779    0.0000 H   0  0  0  0  0  0  0  0  0  0  0  0
    1.7321   -1.7559    0.0000 H   0  0  0  0  0  0  0  0  0  0  0  0
    0.8105   -2.3020    0.0000 H   0  0  0  0  0  0  0  0  0  0  0  0
    3.8303    0.4465    0.0000 H   0  0  0  0  0  0  0  0  0  0  0  0
    3.2467   -0.5042    0.0000 H   0  0  0  0  0  0  0  0  0  0  0  0
    0.0555   -2.7415    0.0000 H   0  0  0  0  0  0  0  0  0  0  0  0
   -0.8740   -2.2040    0.0000 H   0  0  0  0  0  0  0  0  0  0  0  0
    2.4261    2.2256    0.0000 H   0  0  0  0  0  0  0  0  0  0  0  0
    0.5729    2.2256    0.0000 H   0  0  0  0  0  0  0  0  0  0  0  0
    1.4995    2.7606    0.0000 H   0  0  0  0  0  0  0  0  0  0  0  0
    0.2591    0.9767    0.0000 H   0  0  0  0  0  0  0  0  0  0  0  0
   -1.5942    0.9910    0.0000 H   0  0  0  0  0  0  0  0  0  0  0  0
   -0.6634    1.5189    0.0000 H   0  0  0  0  0  0  0  0  0  0  0  0
    2.7437    2.6961    0.0000 H   0  0  0  0  0  0  0  0  0  0  0  0
    0.9813    2.1228    0.0000 H   0  0  0  0  0  0  0  0  0  0  0  0
    1.6970    2.9182    0.0000 H   0  0  0  0  0  0  0  0  0  0  0  0
   -1.4308    1.1177    0.0000 H   0  0  0  0  0  0  0  0  0  0  0  0
   -1.4580   -2.7606    0.0000 H   0  0  0  0  0  0  0  0  0  0  0  0
   -2.3864   -2.2282    0.0000 H   0  0  0  0  0  0  0  0  0  0  0  0
   -3.1115    0.1822    0.0000 H   0  0  0  0  0  0  0  0  0  0  0  0
  1 27  1  0  0  0  0
  2 22  2  0  0  0  0
  3  4  1  0  0  0  0
  3  8  1  0  0  0  0
  3  9  1  0  0  0  0
  3 16  1  1  0  0  0
  4  5  1  0  0  0  0
  4 11  1  0  0  0  0
  4 23  1  6  0  0  0
  5  6  1  0  0  0  0
  5 12  1  0  0  0  0
  5 24  1  1  0  0  0
  6  7  1  0  0  0  0
  6 10  1  0  0  0  0
  6 25  1  6  0  0  0
  7 13  1  0  0  0  0
  7 17  1  1  0  0  0
  7 19  1  0  0  0  0
  8  1  1  1  0  0  0
  8 14  1  0  0  0  0
  8 18  1  0  0  0  0
  9 10  1  0  0  0  0
  9 28  1  0  0  0  0
  9 29  1  0  0  0  0
 10 30  1  0  0  0  0
 10 31  1  0  0  0  0
 11 14  1  0  0  0  0
 11 32  1  0  0  0  0
 11 33  1  0  0  0  0
 12 15  1  0  0  0  0
 12 34  1  0  0  0  0
 12 35  1  0  0  0  0
 13 15  1  0  0  0  0
 13 20  1  0  0  0  0
 13 26  1  6  0  0  0
 14 36  1  0  0  0  0
 14 37  1  0  0  0  0
 15 38  1  0  0  0  0
 15 39  1  0  0  0  0
 16 40  1  0  0  0  0
 16 41  1  0  0  0  0
 16 42  1  0  0  0  0
 17 43  1  0  0  0  0
 17 44  1  0  0  0  0
 17 45  1  0  0  0  0
 18 46  1  0  0  0  0
 18 47  1  0  0  0  0
 18 48  1  0  0  0  0
 19 21  2  0  0  0  0
 19 49  1  0  0  0  0
 20 22  1  0  0  0  0
 20 50  1  0  0  0  0
 20 51  1  0  0  0  0
 21 22  1  0  0  0  0
 21 52  1  0  0  0  0
M  END
>  <DRUGBANK_ID>
DB01572

>  <COMMON_NAME>
Methyl-1-testosterone

>  <CAS_NUMBER>
65-04-3

>  <UNII>
21O907N0NH

>  <SYNONYMS>
(+)-Methyl-1-testosterone; (5α,17β)-17-Hydroxy-17-methylandrost-1-en-3-one; 17alpha-Methyl-17beta-hydroxy-5alpha-androst-1-en-3-one; 17alpha-Methyl-17beta-hydroxy-delta1-5alpha-androsten-3-one; 17beta-Hydroxy-17alpha-methyl-5alpha-androst-1-ene-3-one

$$$$
