
 OpenBabel10282417072D

 39 42  0  0  0  0  0  0  0  0999 V2000
    0.4879   -0.2134    0.0000 C   0  0  0  0  0  0  0  0  0  0  0  0
    1.2806   -0.4573    0.0000 N   0  0  0  0  0  0  0  0  0  0  0  0
    0.4879    0.6228    0.0000 C   0  0  0  0  0  0  0  0  0  0  0  0
   -0.2221    1.0323    0.0000 C   0  0  0  0  0  0  0  0  0  0  0  0
   -0.2221   -0.6185    0.0000 N   0  0  0  0  0  0  0  0  0  0  0  0
    1.2806    0.8711    0.0000 N   0  0  0  0  0  0  0  0  0  0  0  0
   -0.9408    0.6228    0.0000 N   0  0  0  0  0  0  0  0  0  0  0  0
    1.7641    0.2178    0.0000 C   0  0  0  0  0  0  0  0  0  0  0  0
   -0.9408   -0.2134    0.0000 C   0  0  0  0  0  0  0  0  0  0  0  0
    1.2719   -2.1866    0.0000 C   0  0  1  0  0  0  0  0  0  0  0  0
   -0.2221    1.8642    0.0000 N   0  0  0  0  0  0  0  0  0  0  0  0
    1.0106   -2.9924    0.0000 C   0  0  0  0  0  0  0  0  0  0  0  0
   -0.9365    2.2737    0.0000 C   0  0  0  0  0  0  0  0  0  0  0  0
    0.1873   -2.9924    0.0000 C   0  0  0  0  0  0  0  0  0  0  0  0
   -1.7641    2.2824    0.0000 C   0  0  0  0  0  0  0  0  0  0  0  0
   -1.3546    2.9924    0.0000 C   0  0  0  0  0  0  0  0  0  0  0  0
    0.6142   -1.7162    0.0000 C   0  0  0  0  0  0  0  0  0  0  0  0
   -1.6595   -0.6185    0.0000 N   0  0  0  0  0  0  0  0  0  0  0  0
   -0.0522   -2.2084    0.0000 C   0  0  2  0  0  0  0  0  0  0  0  0
   -1.4592   -2.0951    0.0000 O   0  0  0  0  0  0  0  0  0  0  0  0
   -0.6882   -1.7162    0.0000 C   0  0  0  0  0  0  0  0  0  0  0  0
    2.7961    0.2259    0.0000 H   0  0  0  0  0  0  0  0  0  0  0  0
    0.2154   -2.0169    0.0000 H   0  0  0  0  0  0  0  0  0  0  0  0
    0.6297    2.3578    0.0000 H   0  0  0  0  0  0  0  0  0  0  0  0
    1.6174   -3.8271    0.0000 H   0  0  0  0  0  0  0  0  0  0  0  0
   -1.8612    2.8120    0.0000 H   0  0  0  0  0  0  0  0  0  0  0  0
   -0.4267   -3.8219    0.0000 H   0  0  0  0  0  0  0  0  0  0  0  0
   -2.6934    1.7521    0.0000 H   0  0  0  0  0  0  0  0  0  0  0  0
   -2.5190    3.0407    0.0000 H   0  0  0  0  0  0  0  0  0  0  0  0
   -1.3566    4.0624    0.0000 H   0  0  0  0  0  0  0  0  0  0  0  0
   -2.3885    3.2681    0.0000 H   0  0  0  0  0  0  0  0  0  0  0  0
    0.6060   -0.6462    0.0000 H   0  0  0  0  0  0  0  0  0  0  0  0
   -0.3429   -1.2378    0.0000 H   0  0  0  0  0  0  0  0  0  0  0  0
   -2.5070   -0.1175    0.0000 H   0  0  0  0  0  0  0  0  0  0  0  0
   -1.6697   -1.6029    0.0000 H   0  0  0  0  0  0  0  0  0  0  0  0
   -0.0402   -1.1385    0.0000 H   0  0  0  0  0  0  0  0  0  0  0  0
   -2.2650   -1.5551    0.0000 H   0  0  0  0  0  0  0  0  0  0  0  0
   -0.5804   -0.6516    0.0000 H   0  0  0  0  0  0  0  0  0  0  0  0
    0.2950   -1.2940    0.0000 H   0  0  0  0  0  0  0  0  0  0  0  0
  2  1  1  0  0  0  0
  3  1  2  0  0  0  0
  4  3  1  0  0  0  0
  5  1  1  0  0  0  0
  6  3  1  0  0  0  0
  7  9  1  0  0  0  0
  7  4  2  0  0  0  0
  8  2  1  0  0  0  0
  8  6  2  0  0  0  0
  8 22  1  0  0  0  0
  9  5  2  0  0  0  0
 10  2  1  0  0  0  0
 10 23  1  6  0  0  0
 11  4  1  0  0  0  0
 11 24  1  0  0  0  0
 12 10  1  0  0  0  0
 12 25  1  0  0  0  0
 13 11  1  0  0  0  0
 13 26  1  0  0  0  0
 14 12  2  0  0  0  0
 14 27  1  0  0  0  0
 15 13  1  0  0  0  0
 15 28  1  0  0  0  0
 15 29  1  0  0  0  0
 16 13  1  0  0  0  0
 16 15  1  0  0  0  0
 16 30  1  0  0  0  0
 16 31  1  0  0  0  0
 17 10  1  0  0  0  0
 17 32  1  0  0  0  0
 17 33  1  0  0  0  0
 18  9  1  0  0  0  0
 18 34  1  0  0  0  0
 18 35  1  0  0  0  0
 19 17  1  0  0  0  0
 19 21  1  0  0  0  0
 19 14  1  0  0  0  0
 19 36  1  6  0  0  0
 20 21  1  0  0  0  0
 20 37  1  0  0  0  0
 21 38  1  0  0  0  0
 21 39  1  0  0  0  0
M  END
>  <DRUGBANK_ID>
DB01048

>  <SECONDARY_ACCESSION_NUMBERS>
APRD00216

>  <COMMON_NAME>
Abacavir

>  <CAS_NUMBER>
136470-78-5

>  <UNII>
WR2TIP26VS

>  <SYNONYMS>
{(1S-cis)-4-[2-amino-6-(cyclopropylamino)-9H-purin-9-yl]cyclopent-2-en-1-yl}methanol; Abacavir; ABC

$$$$
