
 OpenBabel10282417072D

 72 75  0  0  0  0  0  0  0  0999 V2000
    3.2151   -1.6500    0.0000 C   0  0  0  0  0  0  0  0  0  0  0  0
    2.5006   -1.2374    0.0000 C   0  0  0  0  0  0  0  0  0  0  0  0
    1.7862   -1.6500    0.0000 C   0  0  0  0  0  0  0  0  0  0  0  0
    1.7862   -2.4749    0.0000 C   0  0  0  0  0  0  0  0  0  0  0  0
    2.5006   -2.8875    0.0000 C   0  0  0  0  0  0  0  0  0  0  0  0
    3.2151   -2.4749    0.0000 C   0  0  0  0  0  0  0  0  0  0  0  0
    4.6441   -1.6500    0.0000 C   0  0  0  0  0  0  0  0  0  0  0  0
    3.9296   -1.2374    0.0000 C   0  0  0  0  0  0  0  0  0  0  0  0
    4.6441   -2.4749    0.0000 O   0  0  0  0  0  0  0  0  0  0  0  0
    5.3585   -1.2374    0.0000 O   0  0  0  0  0  0  0  0  0  0  0  0
    1.0717   -1.2374    0.0000 O   0  0  0  0  0  0  0  0  0  0  0  0
    0.3572   -1.6500    0.0000 C   0  0  0  0  0  0  0  0  0  0  0  0
   -0.3572   -1.2374    0.0000 C   0  0  0  0  0  0  0  0  0  0  0  0
   -1.0717   -1.6500    0.0000 C   0  0  0  0  0  0  0  0  0  0  0  0
   -1.7862   -1.2374    0.0000 N   0  0  0  0  0  0  0  0  0  0  0  0
   -2.5006   -1.6500    0.0000 C   0  0  0  0  0  0  0  0  0  0  0  0
   -3.2151   -1.2374    0.0000 C   0  0  0  0  0  0  0  0  0  0  0  0
   -3.2151   -0.4125    0.0000 C   0  0  0  0  0  0  0  0  0  0  0  0
   -2.5006    0.0000    0.0000 C   0  0  0  0  0  0  0  0  0  0  0  0
   -2.5006    0.8250    0.0000 C   0  0  0  0  0  0  0  0  0  0  0  0
   -3.2151    1.2374    0.0000 C   0  0  0  0  0  0  0  0  0  0  0  0
   -3.9296    0.8250    0.0000 C   0  0  0  0  0  0  0  0  0  0  0  0
   -3.9296    0.0000    0.0000 C   0  0  0  0  0  0  0  0  0  0  0  0
   -3.9296   -1.6500    0.0000 C   0  0  0  0  0  0  0  0  0  0  0  0
   -4.6441   -1.2374    0.0000 C   0  0  0  0  0  0  0  0  0  0  0  0
   -5.3585   -1.6500    0.0000 C   0  0  0  0  0  0  0  0  0  0  0  0
   -5.3585   -2.4749    0.0000 C   0  0  0  0  0  0  0  0  0  0  0  0
   -4.6441   -2.8875    0.0000 C   0  0  0  0  0  0  0  0  0  0  0  0
   -3.9296   -2.4749    0.0000 C   0  0  0  0  0  0  0  0  0  0  0  0
   -1.7862   -0.4125    0.0000 C   0  0  0  0  0  0  0  0  0  0  0  0
   -1.0717    0.0000    0.0000 C   0  0  0  0  0  0  0  0  0  0  0  0
   -1.0717    0.8250    0.0000 C   0  0  0  0  0  0  0  0  0  0  0  0
   -0.3572    1.2374    0.0000 C   0  0  0  0  0  0  0  0  0  0  0  0
    0.3572    0.8250    0.0000 C   0  0  0  0  0  0  0  0  0  0  0  0
    0.3572    0.0000    0.0000 C   0  0  0  0  0  0  0  0  0  0  0  0
   -0.3572   -0.4125    0.0000 C   0  0  0  0  0  0  0  0  0  0  0  0
   -0.3572    2.0625    0.0000 C   0  0  0  0  0  0  0  0  0  0  0  0
   -0.3572    2.8875    0.0000 F   0  0  0  0  0  0  0  0  0  0  0  0
    0.3572    2.4749    0.0000 F   0  0  0  0  0  0  0  0  0  0  0  0
   -1.0717    2.4749    0.0000 F   0  0  0  0  0  0  0  0  0  0  0  0
   -1.7862    1.2374    0.0000 Cl  0  0  0  0  0  0  0  0  0  0  0  0
    2.5006   -0.2054    0.0000 H   0  0  0  0  0  0  0  0  0  0  0  0
    0.8924   -2.9908    0.0000 H   0  0  0  0  0  0  0  0  0  0  0  0
    2.5006   -3.9195    0.0000 H   0  0  0  0  0  0  0  0  0  0  0  0
    4.1089   -2.9909    0.0000 H   0  0  0  0  0  0  0  0  0  0  0  0
    3.9296   -0.1674    0.0000 H   0  0  0  0  0  0  0  0  0  0  0  0
    3.0029   -0.7024    0.0000 H   0  0  0  0  0  0  0  0  0  0  0  0
    6.1700   -1.7058    0.0000 H   0  0  0  0  0  0  0  0  0  0  0  0
    0.3572   -2.7200    0.0000 H   0  0  0  0  0  0  0  0  0  0  0  0
    1.2839   -2.1850    0.0000 H   0  0  0  0  0  0  0  0  0  0  0  0
   -0.3572   -0.1674    0.0000 H   0  0  0  0  0  0  0  0  0  0  0  0
   -1.2839   -0.7024    0.0000 H   0  0  0  0  0  0  0  0  0  0  0  0
   -1.0717   -2.7200    0.0000 H   0  0  0  0  0  0  0  0  0  0  0  0
   -1.9984   -2.1850    0.0000 H   0  0  0  0  0  0  0  0  0  0  0  0
   -2.5006   -2.7200    0.0000 H   0  0  0  0  0  0  0  0  0  0  0  0
   -1.5739   -2.1849    0.0000 H   0  0  0  0  0  0  0  0  0  0  0  0
   -4.1418   -0.7024    0.0000 H   0  0  0  0  0  0  0  0  0  0  0  0
   -1.6069   -0.5160    0.0000 H   0  0  0  0  0  0  0  0  0  0  0  0
   -1.6069    1.3411    0.0000 H   0  0  0  0  0  0  0  0  0  0  0  0
   -3.2151    2.2694    0.0000 H   0  0  0  0  0  0  0  0  0  0  0  0
   -4.8233    1.3411    0.0000 H   0  0  0  0  0  0  0  0  0  0  0  0
   -4.8233   -0.5160    0.0000 H   0  0  0  0  0  0  0  0  0  0  0  0
   -4.6441   -0.2054    0.0000 H   0  0  0  0  0  0  0  0  0  0  0  0
   -6.2523   -1.1341    0.0000 H   0  0  0  0  0  0  0  0  0  0  0  0
   -6.2523   -2.9908    0.0000 H   0  0  0  0  0  0  0  0  0  0  0  0
   -4.6441   -3.9195    0.0000 H   0  0  0  0  0  0  0  0  0  0  0  0
   -3.0358   -2.9909    0.0000 H   0  0  0  0  0  0  0  0  0  0  0  0
   -2.7128    0.1225    0.0000 H   0  0  0  0  0  0  0  0  0  0  0  0
   -2.7128   -0.9475    0.0000 H   0  0  0  0  0  0  0  0  0  0  0  0
    1.2509    1.3410    0.0000 H   0  0  0  0  0  0  0  0  0  0  0  0
    1.2509   -0.5160    0.0000 H   0  0  0  0  0  0  0  0  0  0  0  0
   -0.3572   -1.4445    0.0000 H   0  0  0  0  0  0  0  0  0  0  0  0
  1  2  1  0  0  0  0
  1  6  2  0  0  0  0
  1  8  1  0  0  0  0
  2  3  2  0  0  0  0
  2 42  1  0  0  0  0
  3  4  1  0  0  0  0
  3 11  1  0  0  0  0
  4  5  2  0  0  0  0
  4 43  1  0  0  0  0
  5  6  1  0  0  0  0
  5 44  1  0  0  0  0
  6 45  1  0  0  0  0
  7  8  1  0  0  0  0
  7  9  2  0  0  0  0
  7 10  1  0  0  0  0
  8 46  1  0  0  0  0
  8 47  1  0  0  0  0
 10 48  1  0  0  0  0
 11 12  1  0  0  0  0
 12 13  1  0  0  0  0
 12 49  1  0  0  0  0
 12 50  1  0  0  0  0
 13 14  1  0  0  0  0
 13 51  1  0  0  0  0
 13 52  1  0  0  0  0
 14 15  1  0  0  0  0
 14 53  1  0  0  0  0
 14 54  1  0  0  0  0
 15 16  1  0  0  0  0
 15 30  1  0  0  0  0
 16 17  1  0  0  0  0
 16 55  1  0  0  0  0
 16 56  1  0  0  0  0
 17 18  1  0  0  0  0
 17 24  1  0  0  0  0
 17 57  1  0  0  0  0
 18 19  1  0  0  0  0
 18 23  2  0  0  0  0
 19 20  2  0  0  0  0
 19 58  1  0  0  0  0
 20 21  1  0  0  0  0
 20 59  1  0  0  0  0
 21 22  2  0  0  0  0
 21 60  1  0  0  0  0
 22 23  1  0  0  0  0
 22 61  1  0  0  0  0
 23 62  1  0  0  0  0
 24 25  1  0  0  0  0
 24 29  2  0  0  0  0
 25 26  2  0  0  0  0
 25 63  1  0  0  0  0
 26 27  1  0  0  0  0
 26 64  1  0  0  0  0
 27 28  2  0  0  0  0
 27 65  1  0  0  0  0
 28 29  1  0  0  0  0
 28 66  1  0  0  0  0
 29 67  1  0  0  0  0
 30 31  1  0  0  0  0
 30 68  1  0  0  0  0
 30 69  1  0  0  0  0
 31 32  1  0  0  0  0
 31 36  2  0  0  0  0
 32 33  2  0  0  0  0
 32 41  1  0  0  0  0
 33 34  1  0  0  0  0
 33 37  1  0  0  0  0
 34 35  2  0  0  0  0
 34 70  1  0  0  0  0
 35 36  1  0  0  0  0
 35 71  1  0  0  0  0
 36 72  1  0  0  0  0
 37 38  1  0  0  0  0
 37 39  1  0  0  0  0
 37 40  1  0  0  0  0
M  END
>  <DRUGBANK_ID>
DB03791

>  <SECONDARY_ACCESSION_NUMBERS>
EXPT00345

>  <COMMON_NAME>
GW-3965

>  <CAS_NUMBER>
405911-09-3

>  <UNII>
6JI5YOG7RC

$$$$
