ESP
 OpenBabel10282417072D

 20 21  0  0  0  0  0  0  0  0999 V2000
   -1.5451   -0.3678    0.0000 C   0  0  0  0  0  0  0  0  0  0  0  0
   -0.7201   -0.3678    0.0000 C   0  0  0  0  0  0  0  0  0  0  0  0
   -1.9576    0.3467    0.0000 N   0  0  0  0  0  0  0  0  0  0  0  0
   -1.9576   -1.0823    0.0000 N   0  3  0  0  0  0  0  0  0  0  0  0
   -0.2352   -1.0352    0.0000 S   0  0  0  0  0  0  0  0  0  0  0  0
    0.5494   -0.7803    0.0000 C   0  0  0  0  0  0  0  0  0  0  0  0
    0.5494    0.0447    0.0000 C   0  0  0  0  0  0  0  0  0  0  0  0
   -0.2352    0.2996    0.0000 C   0  0  0  0  0  0  0  0  0  0  0  0
    1.2639   -1.1928    0.0000 N   0  0  0  0  0  0  0  0  0  0  0  0
    1.9784   -0.7803    0.0000 C   0  0  0  0  0  0  0  0  0  0  0  0
    1.9784    0.0447    0.0000 C   0  0  0  0  0  0  0  0  0  0  0  0
    1.2639    0.4572    0.0000 C   0  0  0  0  0  0  0  0  0  0  0  0
   -1.4653    1.1993    0.0000 H   0  0  0  0  0  0  0  0  0  0  0  0
   -2.9421    0.3467    0.0000 H   0  0  0  0  0  0  0  0  0  0  0  0
   -2.9421   -1.0823    0.0000 H   0  0  0  0  0  0  0  0  0  0  0  0
   -1.4653   -1.9349    0.0000 H   0  0  0  0  0  0  0  0  0  0  0  0
   -0.5541    1.2811    0.0000 H   0  0  0  0  0  0  0  0  0  0  0  0
    2.8721   -1.2963    0.0000 H   0  0  0  0  0  0  0  0  0  0  0  0
    2.8721    0.5607    0.0000 H   0  0  0  0  0  0  0  0  0  0  0  0
    1.2639    1.4892    0.0000 H   0  0  0  0  0  0  0  0  0  0  0  0
  1  2  1  0  0  0  0
  1  3  1  0  0  0  0
  1  4  2  0  0  0  0
  2  5  1  0  0  0  0
  2  8  2  0  0  0  0
  3 13  1  0  0  0  0
  3 14  1  0  0  0  0
  4 15  1  0  0  0  0
  4 16  1  0  0  0  0
  5  6  1  0  0  0  0
  6  7  2  0  0  0  0
  6  9  1  0  0  0  0
  7  8  1  0  0  0  0
  7 12  1  0  0  0  0
  8 17  1  0  0  0  0
  9 10  2  0  0  0  0
 10 11  1  0  0  0  0
 10 18  1  0  0  0  0
 11 12  2  0  0  0  0
 11 19  1  0  0  0  0
 12 20  1  0  0  0  0
M  CHG  1   4   1
M  END
>  <DRUGBANK_ID>
DB03876

>  <SECONDARY_ACCESSION_NUMBERS>
EXPT01363

>  <COMMON_NAME>
Thieno[2,3-B]Pyridine-2-Carboxamidine

$$$$
