
 OpenBabel10282417072D

 65 67  0  0  0  0  0  0  0  0999 V2000
   -1.3972   -0.3252    0.0000 P   0  0  1  0  0  0  0  0  0  0  0  0
   -1.6744   -1.1040    0.0000 O   0  0  0  0  0  0  0  0  0  0  0  0
   -1.1274    0.4547    0.0000 O   0  0  0  0  0  0  0  0  0  0  0  0
   -0.6185   -0.6023    0.0000 O   0  0  0  0  0  0  0  0  0  0  0  0
    0.0074   -0.0645    0.0000 C   0  0  0  0  0  0  0  0  0  0  0  0
    1.4470    0.1005    0.0000 O   0  0  0  0  0  0  0  0  0  0  0  0
    0.7725   -0.3796    0.0000 C   0  0  1  0  0  0  0  0  0  0  0  0
    1.0187   -1.1641    0.0000 C   0  0  2  0  0  0  0  0  0  0  0  0
    1.8461   -1.1742    0.0000 C   0  0  2  0  0  0  0  0  0  0  0  0
    2.1063   -0.3934    0.0000 C   0  0  2  0  0  0  0  0  0  0  0  0
    3.5408   -0.3827    0.0000 C   0  0  0  0  0  0  0  0  0  0  0  0
    4.2446    0.8598    0.0000 C   0  0  0  0  0  0  0  0  0  0  0  0
    3.5291    1.2684    0.0000 C   0  0  0  0  0  0  0  0  0  0  0  0
    2.8174    0.8503    0.0000 C   0  0  0  0  0  0  0  0  0  0  0  0
    2.8253    0.0257    0.0000 N   0  0  0  0  0  0  0  0  0  0  0  0
    4.9563    1.2779    0.0000 O   0  0  0  0  0  0  0  0  0  0  0  0
    3.5446   -1.2114    0.0000 O   0  0  0  0  0  0  0  0  0  0  0  0
    1.8364   -1.9961    0.0000 F   0  0  0  0  0  0  0  0  0  0  0  0
    2.6670   -1.1326    0.0000 C   0  0  0  0  0  0  0  0  0  0  0  0
   -2.0986    0.9191    0.0000 C   0  0  2  0  0  0  0  0  0  0  0  0
   -2.8088    1.3392    0.0000 C   0  0  0  0  0  0  0  0  0  0  0  0
   -1.3799    1.3242    0.0000 C   0  0  0  0  0  0  0  0  0  0  0  0
   -2.8001    2.1642    0.0000 O   0  0  0  0  0  0  0  0  0  0  0  0
   -3.5275    0.9343    0.0000 O   0  0  0  0  0  0  0  0  0  0  0  0
   -4.2376    1.3543    0.0000 C   0  0  0  0  0  0  0  0  0  0  0  0
   -4.2289    2.1792    0.0000 C   0  0  0  0  0  0  0  0  0  0  0  0
   -4.9563    0.9493    0.0000 C   0  0  0  0  0  0  0  0  0  0  0  0
   -2.4859   -1.2530    0.0000 C   0  0  0  0  0  0  0  0  0  0  0  0
   -3.0180   -0.6229    0.0000 C   0  0  0  0  0  0  0  0  0  0  0  0
   -3.8288   -0.7715    0.0000 C   0  0  0  0  0  0  0  0  0  0  0  0
   -4.1061   -1.5494    0.0000 C   0  0  0  0  0  0  0  0  0  0  0  0
   -3.5665   -2.1792    0.0000 C   0  0  0  0  0  0  0  0  0  0  0  0
   -2.7577   -2.0272    0.0000 C   0  0  0  0  0  0  0  0  0  0  0  0
   -2.1076    0.0942    0.0000 N   0  0  0  0  0  0  0  0  0  0  0  0
    0.5241   -1.8309    0.0000 O   0  0  0  0  0  0  0  0  0  0  0  0
    4.2522    0.0348    0.0000 N   0  0  0  0  0  0  0  0  0  0  0  0
   -0.1626    0.9919    0.0000 H   0  0  0  0  0  0  0  0  0  0  0  0
    0.8462    0.5998    0.0000 H   0  0  0  0  0  0  0  0  0  0  0  0
    0.6508    0.6835    0.0000 H   0  0  0  0  0  0  0  0  0  0  0  0
   -0.0364   -0.9862    0.0000 H   0  0  0  0  0  0  0  0  0  0  0  0
    2.9367   -1.0682    0.0000 H   0  0  0  0  0  0  0  0  0  0  0  0
    3.5228    2.3004    0.0000 H   0  0  0  0  0  0  0  0  0  0  0  0
    1.9193    1.3586    0.0000 H   0  0  0  0  0  0  0  0  0  0  0  0
    3.2482   -2.0310    0.0000 H   0  0  0  0  0  0  0  0  0  0  0  0
    3.1544   -0.1801    0.0000 H   0  0  0  0  0  0  0  0  0  0  0  0
    3.7356   -1.0784    0.0000 H   0  0  0  0  0  0  0  0  0  0  0  0
   -2.0874    1.9890    0.0000 H   0  0  0  0  0  0  0  0  0  0  0  0
   -0.4588    0.7797    0.0000 H   0  0  0  0  0  0  0  0  0  0  0  0
   -1.3688    2.3941    0.0000 H   0  0  0  0  0  0  0  0  0  0  0  0
   -0.4478    1.8496    0.0000 H   0  0  0  0  0  0  0  0  0  0  0  0
   -5.1586    1.8990    0.0000 H   0  0  0  0  0  0  0  0  0  0  0  0
   -3.2967    2.7044    0.0000 H   0  0  0  0  0  0  0  0  0  0  0  0
   -5.1499    2.7239    0.0000 H   0  0  0  0  0  0  0  0  0  0  0  0
   -4.2176    3.2491    0.0000 H   0  0  0  0  0  0  0  0  0  0  0  0
   -5.8773    1.4939    0.0000 H   0  0  0  0  0  0  0  0  0  0  0  0
   -4.9675   -0.1206    0.0000 H   0  0  0  0  0  0  0  0  0  0  0  0
   -5.8885    0.4240    0.0000 H   0  0  0  0  0  0  0  0  0  0  0  0
   -2.6698    0.3486    0.0000 H   0  0  0  0  0  0  0  0  0  0  0  0
   -4.4974    0.0146    0.0000 H   0  0  0  0  0  0  0  0  0  0  0  0
   -5.1209   -1.7372    0.0000 H   0  0  0  0  0  0  0  0  0  0  0  0
   -3.9090   -3.1527    0.0000 H   0  0  0  0  0  0  0  0  0  0  0  0
   -2.0854   -2.8102    0.0000 H   0  0  0  0  0  0  0  0  0  0  0  0
   -2.9962   -0.4067    0.0000 H   0  0  0  0  0  0  0  0  0  0  0  0
   -0.4395   -1.7200    0.0000 H   0  0  0  0  0  0  0  0  0  0  0  0
    5.1088   -0.4505    0.0000 H   0  0  0  0  0  0  0  0  0  0  0  0
  1  4  1  0  0  0  0
  1  2  1  0  0  0  0
  1  3  2  1  0  0  0
  1 34  1  0  0  0  0
  2 28  1  0  0  0  0
  4  5  1  0  0  0  0
  5 37  1  0  0  0  0
  5 38  1  0  0  0  0
  6  7  1  0  0  0  0
  6 10  1  0  0  0  0
  7  8  1  0  0  0  0
  7  5  1  0  0  0  0
  7 39  1  6  0  0  0
  8  9  1  0  0  0  0
  8 35  1  0  0  0  0
  8 40  1  1  0  0  0
  9 18  1  6  0  0  0
  9 19  1  0  0  0  0
  9 10  1  0  0  0  0
 10 15  1  0  0  0  0
 10 41  1  6  0  0  0
 11 17  2  0  0  0  0
 11 15  1  0  0  0  0
 11 36  1  0  0  0  0
 12 16  2  0  0  0  0
 12 13  1  0  0  0  0
 13 14  2  0  0  0  0
 13 42  1  0  0  0  0
 14 15  1  0  0  0  0
 14 43  1  0  0  0  0
 19 44  1  0  0  0  0
 19 45  1  0  0  0  0
 19 46  1  0  0  0  0
 20 21  1  0  0  0  0
 20 22  1  0  0  0  0
 20 47  1  1  0  0  0
 21 23  2  0  0  0  0
 21 24  1  0  0  0  0
 22 48  1  0  0  0  0
 22 49  1  0  0  0  0
 22 50  1  0  0  0  0
 24 25  1  0  0  0  0
 25 26  1  0  0  0  0
 25 27  1  0  0  0  0
 25 51  1  0  0  0  0
 26 52  1  0  0  0  0
 26 53  1  0  0  0  0
 26 54  1  0  0  0  0
 27 55  1  0  0  0  0
 27 56  1  0  0  0  0
 27 57  1  0  0  0  0
 28 29  2  0  0  0  0
 29 30  1  0  0  0  0
 29 58  1  0  0  0  0
 30 31  2  0  0  0  0
 30 59  1  0  0  0  0
 31 32  1  0  0  0  0
 31 60  1  0  0  0  0
 32 33  2  0  0  0  0
 32 61  1  0  0  0  0
 33 28  1  0  0  0  0
 33 62  1  0  0  0  0
 34 20  1  0  0  0  0
 34 63  1  0  0  0  0
 35 64  1  0  0  0  0
 36 12  1  0  0  0  0
 36 65  1  0  0  0  0
M  END
>  <DRUGBANK_ID>
DB08934

>  <COMMON_NAME>
Sofosbuvir

>  <CAS_NUMBER>
1190307-88-0

>  <UNII>
WJ6CA3ZU8B

>  <SYNONYMS>
S)-Isopropyl 2-((S)-(((2R,3R,4R,5R)-5-(2,4-dioxo-3,4- dihydropyrimidin-1(2H)-yl)-4-fluoro-3-hydroxy-4-methyltetrahydrofuran-2-yl)methoxy)- (phenoxy)phosphorylamino)propanoate; Sofosbuvir

$$$$
