
 OpenBabel10282417072D

 70 73  0  0  0  0  0  0  0  0999 V2000
   -2.9117   -0.3460    0.0000 C   0  0  0  0  0  0  0  0  0  0  0  0
   -2.9117   -1.1731    0.0000 C   0  0  0  0  0  0  0  0  0  0  0  0
   -2.1943   -1.5866    0.0000 N   0  0  0  0  0  0  0  0  0  0  0  0
   -1.4854   -1.1731    0.0000 C   0  0  0  0  0  0  0  0  0  0  0  0
   -1.4854   -0.3460    0.0000 N   0  0  0  0  0  0  0  0  0  0  0  0
   -2.1943    0.0675    0.0000 C   0  0  0  0  0  0  0  0  0  0  0  0
   -2.1943    0.8862    0.0000 C   0  0  0  0  0  0  0  0  0  0  0  0
   -0.7680   -1.5866    0.0000 N   0  0  0  0  0  0  0  0  0  0  0  0
   -0.0591   -1.1731    0.0000 C   0  0  0  0  0  0  0  0  0  0  0  0
   -1.5276    1.3672    0.0000 C   0  0  0  0  0  0  0  0  0  0  0  0
   -1.7892    2.1521    0.0000 N   0  0  0  0  0  0  0  0  0  0  0  0
   -2.6078    2.1521    0.0000 C   0  0  0  0  0  0  0  0  0  0  0  0
   -2.8611    1.3672    0.0000 C   0  0  0  0  0  0  0  0  0  0  0  0
   -3.1564    2.7683    0.0000 C   0  0  0  0  0  0  0  0  0  0  0  0
   -3.9667    2.5994    0.0000 C   0  0  0  0  0  0  0  0  0  0  0  0
   -4.2199    1.8145    0.0000 C   0  0  0  0  0  0  0  0  0  0  0  0
   -3.6713    1.1985    0.0000 C   0  0  0  0  0  0  0  0  0  0  0  0
    0.6583   -1.5866    0.0000 C   0  0  0  0  0  0  0  0  0  0  0  0
    1.3672   -1.1731    0.0000 C   0  0  0  0  0  0  0  0  0  0  0  0
    1.3672   -0.3460    0.0000 C   0  0  0  0  0  0  0  0  0  0  0  0
    0.6583    0.0675    0.0000 C   0  0  0  0  0  0  0  0  0  0  0  0
   -0.0591   -0.3460    0.0000 C   0  0  0  0  0  0  0  0  0  0  0  0
    0.6583    0.8862    0.0000 N   0  0  0  0  0  0  0  0  0  0  0  0
    0.6583   -2.4053    0.0000 O   0  0  0  0  0  0  0  0  0  0  0  0
   -0.0591   -2.8189    0.0000 C   0  0  0  0  0  0  0  0  0  0  0  0
    2.0845    0.0675    0.0000 N   0  0  0  0  0  0  0  0  0  0  0  0
    2.7935   -0.3460    0.0000 C   0  0  0  0  0  0  0  0  0  0  0  0
    2.0845    0.8862    0.0000 C   0  0  0  0  0  0  0  0  0  0  0  0
    2.7935   -1.1731    0.0000 C   0  0  0  0  0  0  0  0  0  0  0  0
    3.5108   -1.5866    0.0000 N   0  0  0  0  0  0  0  0  0  0  0  0
    3.5108   -2.4053    0.0000 C   0  0  0  0  0  0  0  0  0  0  0  0
   -0.0591    1.2997    0.0000 C   0  0  0  0  0  0  0  0  0  0  0  0
   -0.0591    2.1268    0.0000 C   0  0  0  0  0  0  0  0  0  0  0  0
   -0.7680    0.8862    0.0000 O   0  0  0  0  0  0  0  0  0  0  0  0
    0.6583    2.5320    0.0000 C   0  0  0  0  0  0  0  0  0  0  0  0
    4.2199   -1.1731    0.0000 C   0  0  0  0  0  0  0  0  0  0  0  0
   -1.2997    2.8189    0.0000 C   0  0  0  0  0  0  0  0  0  0  0  0
   -3.8053    0.1703    0.0000 H   0  0  0  0  0  0  0  0  0  0  0  0
   -3.8053   -1.6894    0.0000 H   0  0  0  0  0  0  0  0  0  0  0  0
   -0.7655   -2.5711    0.0000 H   0  0  0  0  0  0  0  0  0  0  0  0
   -0.5454    1.0504    0.0000 H   0  0  0  0  0  0  0  0  0  0  0  0
   -2.8328    3.7483    0.0000 H   0  0  0  0  0  0  0  0  0  0  0  0
   -4.6565    3.3670    0.0000 H   0  0  0  0  0  0  0  0  0  0  0  0
   -5.2297    1.6016    0.0000 H   0  0  0  0  0  0  0  0  0  0  0  0
   -3.9949    0.2186    0.0000 H   0  0  0  0  0  0  0  0  0  0  0  0
    2.2621   -1.6871    0.0000 H   0  0  0  0  0  0  0  0  0  0  0  0
   -0.9527    0.1703    0.0000 H   0  0  0  0  0  0  0  0  0  0  0  0
    1.5107    1.3788    0.0000 H   0  0  0  0  0  0  0  0  0  0  0  0
   -0.9854   -2.2833    0.0000 H   0  0  0  0  0  0  0  0  0  0  0  0
   -0.0598   -3.8889    0.0000 H   0  0  0  0  0  0  0  0  0  0  0  0
   -0.9861   -3.3533    0.0000 H   0  0  0  0  0  0  0  0  0  0  0  0
    3.7213    0.1870    0.0000 H   0  0  0  0  0  0  0  0  0  0  0  0
    3.7196   -0.8820    0.0000 H   0  0  0  0  0  0  0  0  0  0  0  0
    3.0111    1.4212    0.0000 H   0  0  0  0  0  0  0  0  0  0  0  0
    1.1579    1.4212    0.0000 H   0  0  0  0  0  0  0  0  0  0  0  0
    2.0845    1.9562    0.0000 H   0  0  0  0  0  0  0  0  0  0  0  0
    1.8670   -1.7084    0.0000 H   0  0  0  0  0  0  0  0  0  0  0  0
    2.7940   -2.2431    0.0000 H   0  0  0  0  0  0  0  0  0  0  0  0
    2.5842   -2.9403    0.0000 H   0  0  0  0  0  0  0  0  0  0  0  0
    4.4374   -2.9403    0.0000 H   0  0  0  0  0  0  0  0  0  0  0  0
    3.5108   -3.4753    0.0000 H   0  0  0  0  0  0  0  0  0  0  0  0
   -0.9504    2.6470    0.0000 H   0  0  0  0  0  0  0  0  0  0  0  0
    1.5471    2.0076    0.0000 H   0  0  0  0  0  0  0  0  0  0  0  0
    0.6681    3.5640    0.0000 H   0  0  0  0  0  0  0  0  0  0  0  0
    5.1489   -1.7041    0.0000 H   0  0  0  0  0  0  0  0  0  0  0  0
    4.2153   -0.1031    0.0000 H   0  0  0  0  0  0  0  0  0  0  0  0
    5.1442   -0.6341    0.0000 H   0  0  0  0  0  0  0  0  0  0  0  0
   -0.2361    2.7018    0.0000 H   0  0  0  0  0  0  0  0  0  0  0  0
   -1.7301    3.7985    0.0000 H   0  0  0  0  0  0  0  0  0  0  0  0
   -0.6665    3.6814    0.0000 H   0  0  0  0  0  0  0  0  0  0  0  0
  1  2  2  0  0  0  0
  1  6  1  0  0  0  0
  1 38  1  0  0  0  0
  2  3  1  0  0  0  0
  2 39  1  0  0  0  0
  3  4  2  0  0  0  0
  4  5  1  0  0  0  0
  4  8  1  0  0  0  0
  5  6  2  0  0  0  0
  6  7  1  0  0  0  0
  7 10  2  0  0  0  0
  7 13  1  0  0  0  0
  8  9  1  0  0  0  0
  8 40  1  0  0  0  0
  9 18  2  0  0  0  0
  9 22  1  0  0  0  0
 10 11  1  0  0  0  0
 10 41  1  0  0  0  0
 11 12  1  0  0  0  0
 11 37  1  0  0  0  0
 12 13  2  0  0  0  0
 12 14  1  0  0  0  0
 13 17  1  0  0  0  0
 14 15  2  0  0  0  0
 14 42  1  0  0  0  0
 15 16  1  0  0  0  0
 15 43  1  0  0  0  0
 16 17  2  0  0  0  0
 16 44  1  0  0  0  0
 17 45  1  0  0  0  0
 18 19  1  0  0  0  0
 18 24  1  0  0  0  0
 19 20  2  0  0  0  0
 19 46  1  0  0  0  0
 20 21  1  0  0  0  0
 20 26  1  0  0  0  0
 21 22  2  0  0  0  0
 21 23  1  0  0  0  0
 22 47  1  0  0  0  0
 23 32  1  0  0  0  0
 23 48  1  0  0  0  0
 24 25  1  0  0  0  0
 25 49  1  0  0  0  0
 25 50  1  0  0  0  0
 25 51  1  0  0  0  0
 26 27  1  0  0  0  0
 26 28  1  0  0  0  0
 27 29  1  0  0  0  0
 27 52  1  0  0  0  0
 27 53  1  0  0  0  0
 28 54  1  0  0  0  0
 28 55  1  0  0  0  0
 28 56  1  0  0  0  0
 29 30  1  0  0  0  0
 29 57  1  0  0  0  0
 29 58  1  0  0  0  0
 30 31  1  0  0  0  0
 30 36  1  0  0  0  0
 31 59  1  0  0  0  0
 31 60  1  0  0  0  0
 31 61  1  0  0  0  0
 32 33  1  0  0  0  0
 32 34  2  0  0  0  0
 33 35  2  0  0  0  0
 33 62  1  0  0  0  0
 35 63  1  0  0  0  0
 35 64  1  0  0  0  0
 36 65  1  0  0  0  0
 36 66  1  0  0  0  0
 36 67  1  0  0  0  0
 37 68  1  0  0  0  0
 37 69  1  0  0  0  0
 37 70  1  0  0  0  0
M  END
>  <DRUGBANK_ID>
DB09330

>  <COMMON_NAME>
Osimertinib

>  <CAS_NUMBER>
1421373-65-0

>  <UNII>
3C06JJ0Z2O

>  <SYNONYMS>
Mereletinib; N-(2-{[2-(dimethylamino)ethyl](methyl)amino}-4-methoxy-5-{[4-(1-methyl-1H-indol-3-yl)pyrimidin-2-yl]amino}phenyl)prop-2-enamide; Osimertinib; Osimertinibum

$$$$
