
 OpenBabel10282417072D

 33 33  0  0  0  0  0  0  0  0999 V2000
    3.0099   -0.3266    0.0000 C   0  0  2  0  0  0  0  0  0  0  0  0
    2.6095   -1.0981    0.0000 O   0  0  0  0  0  0  0  0  0  0  0  0
    2.1879   -0.3309    0.0000 C   0  0  2  0  0  0  0  0  0  0  0  0
    3.4147    0.3689    0.0000 C   0  0  0  0  0  0  0  0  0  0  0  0
    1.4670    0.0780    0.0000 C   0  0  0  0  0  0  0  0  0  0  0  0
    4.2493    0.3815    0.0000 O   0  0  0  0  0  0  0  0  0  0  0  0
    1.4670    0.9000    0.0000 O   0  0  0  0  0  0  0  0  0  0  0  0
   -2.8202    0.0780    0.0000 C   0  0  0  0  0  0  0  0  0  0  0  0
   -1.3868    0.0780    0.0000 C   0  0  0  0  0  0  0  0  0  0  0  0
   -3.5284   -0.3309    0.0000 C   0  0  0  0  0  0  0  0  0  0  0  0
    2.9889    1.0981    0.0000 N   0  0  0  0  0  0  0  0  0  0  0  0
   -0.6786   -0.3309    0.0000 C   0  0  0  0  0  0  0  0  0  0  0  0
   -2.0994   -0.3309    0.0000 C   0  0  0  0  0  0  0  0  0  0  0  0
    0.7588   -0.3309    0.0000 C   0  0  0  0  0  0  0  0  0  0  0  0
    0.0379    0.0780    0.0000 C   0  0  0  0  0  0  0  0  0  0  0  0
   -4.2493    0.0780    0.0000 C   0  0  0  0  0  0  0  0  0  0  0  0
    1.6819   -1.0222    0.0000 H   0  0  0  0  0  0  0  0  0  0  0  0
    3.6296   -0.9969    0.0000 H   0  0  0  0  0  0  0  0  0  0  0  0
   -2.8241    1.1100    0.0000 H   0  0  0  0  0  0  0  0  0  0  0  0
   -1.3854    1.1100    0.0000 H   0  0  0  0  0  0  0  0  0  0  0  0
   -3.5244   -1.3629    0.0000 H   0  0  0  0  0  0  0  0  0  0  0  0
    3.4770    1.9531    0.0000 H   0  0  0  0  0  0  0  0  0  0  0  0
    2.0044    1.0933    0.0000 H   0  0  0  0  0  0  0  0  0  0  0  0
   -0.6812   -1.3629    0.0000 H   0  0  0  0  0  0  0  0  0  0  0  0
   -2.0968   -1.4009    0.0000 H   0  0  0  0  0  0  0  0  0  0  0  0
   -1.1728   -0.8660    0.0000 H   0  0  0  0  0  0  0  0  0  0  0  0
    0.7629   -1.4009    0.0000 H   0  0  0  0  0  0  0  0  0  0  0  0
   -0.1648   -0.8712    0.0000 H   0  0  0  0  0  0  0  0  0  0  0  0
    0.0365    1.1480    0.0000 H   0  0  0  0  0  0  0  0  0  0  0  0
    0.9621    0.6171    0.0000 H   0  0  0  0  0  0  0  0  0  0  0  0
   -4.2575    1.1480    0.0000 H   0  0  0  0  0  0  0  0  0  0  0  0
   -5.1718   -0.4641    0.0000 H   0  0  0  0  0  0  0  0  0  0  0  0
   -5.1800    0.6059    0.0000 H   0  0  0  0  0  0  0  0  0  0  0  0
  1  4  1  0  0  0  0
  1 18  1  1  0  0  0
  2  1  1  0  0  0  0
  3  1  1  0  0  0  0
  3  5  1  0  0  0  0
  3 17  1  1  0  0  0
  3  2  1  0  0  0  0
  6  4  2  0  0  0  0
  7  5  2  0  0  0  0
  8 13  1  0  0  0  0
  8 19  1  0  0  0  0
  9 12  2  0  0  0  0
  9 20  1  0  0  0  0
 10  8  2  0  0  0  0
 10 21  1  0  0  0  0
 11  4  1  0  0  0  0
 11 22  1  0  0  0  0
 11 23  1  0  0  0  0
 12 15  1  0  0  0  0
 12 24  1  0  0  0  0
 13  9  1  0  0  0  0
 13 25  1  0  0  0  0
 13 26  1  0  0  0  0
 14  5  1  0  0  0  0
 14 27  1  0  0  0  0
 14 28  1  0  0  0  0
 15 14  1  0  0  0  0
 15 29  1  0  0  0  0
 15 30  1  0  0  0  0
 16 10  1  0  0  0  0
 16 31  1  0  0  0  0
 16 32  1  0  0  0  0
 16 33  1  0  0  0  0
M  END
>  <DRUGBANK_ID>
DB01034

>  <SECONDARY_ACCESSION_NUMBERS>
APRD00703

>  <COMMON_NAME>
Cerulenin

>  <CAS_NUMBER>
17397-89-6

>  <UNII>
MF286Y830Q

>  <SYNONYMS>
(2R,3S)-3-((4E,7E)-Nona-4,7-dienoyl)-oxirane-2-carboxylic acid amide; (2R,3S)-3-((4E,7E)-nona-4,7-dienoyl)oxirane-2-carboxamide; Cerulenin

$$$$
