L23
 OpenBabel10282417072D

 35 37  0  0  0  0  0  0  0  0999 V2000
   -0.5957    2.9452    0.0000 Cl  0  0  0  0  0  0  0  0  0  0  0  0
    0.1188    2.5327    0.0000 C   0  0  0  0  0  0  0  0  0  0  0  0
    0.8332    2.9452    0.0000 C   0  0  0  0  0  0  0  0  0  0  0  0
    1.5477    2.5327    0.0000 C   0  0  0  0  0  0  0  0  0  0  0  0
    1.5477    1.7077    0.0000 C   0  0  0  0  0  0  0  0  0  0  0  0
    0.8332    1.2952    0.0000 C   0  0  0  0  0  0  0  0  0  0  0  0
    0.8332    0.4702    0.0000 Cl  0  0  0  0  0  0  0  0  0  0  0  0
    0.1188    1.7077    0.0000 C   0  0  0  0  0  0  0  0  0  0  0  0
   -0.5957    1.2952    0.0000 C   0  0  0  0  0  0  0  0  0  0  0  0
   -0.5957    0.4702    0.0000 N   0  0  0  0  0  0  0  0  0  0  0  0
    0.0717   -0.0147    0.0000 C   0  0  0  0  0  0  0  0  0  0  0  0
   -1.2631   -0.0147    0.0000 C   0  0  0  0  0  0  0  0  0  0  0  0
   -2.0478    0.2402    0.0000 C   0  0  0  0  0  0  0  0  0  0  0  0
   -1.0082   -0.7993    0.0000 N   0  0  0  0  0  0  0  0  0  0  0  0
   -0.1832   -0.7993    0.0000 C   0  0  0  0  0  0  0  0  0  0  0  0
    0.3017   -1.4668    0.0000 C   0  0  0  0  0  0  0  0  0  0  0  0
    1.1222   -1.3805    0.0000 C   0  0  0  0  0  0  0  0  0  0  0  0
    1.6071   -2.0480    0.0000 C   0  0  0  0  0  0  0  0  0  0  0  0
    1.2716   -2.8017    0.0000 N   0  0  0  0  0  0  0  0  0  0  0  0
    0.4511   -2.8879    0.0000 C   0  0  0  0  0  0  0  0  0  0  0  0
   -0.0338   -2.2205    0.0000 N   0  0  0  0  0  0  0  0  0  0  0  0
    0.1155   -3.6416    0.0000 N   0  0  0  0  0  0  0  0  0  0  0  0
    0.8332    3.9772    0.0000 H   0  0  0  0  0  0  0  0  0  0  0  0
    2.4414    3.0487    0.0000 H   0  0  0  0  0  0  0  0  0  0  0  0
    2.4414    1.1917    0.0000 H   0  0  0  0  0  0  0  0  0  0  0  0
   -1.5223    1.8302    0.0000 H   0  0  0  0  0  0  0  0  0  0  0  0
   -1.5223    0.7602    0.0000 H   0  0  0  0  0  0  0  0  0  0  0  0
    1.0532    0.3042    0.0000 H   0  0  0  0  0  0  0  0  0  0  0  0
   -2.2703    1.2868    0.0000 H   0  0  0  0  0  0  0  0  0  0  0  0
   -2.8429   -0.4758    0.0000 H   0  0  0  0  0  0  0  0  0  0  0  0
   -3.0655    0.5708    0.0000 H   0  0  0  0  0  0  0  0  0  0  0  0
    1.5419   -0.4377    0.0000 H   0  0  0  0  0  0  0  0  0  0  0  0
    2.6334   -1.9401    0.0000 H   0  0  0  0  0  0  0  0  0  0  0  0
   -0.8636   -3.7445    0.0000 H   0  0  0  0  0  0  0  0  0  0  0  0
    0.6941   -4.4381    0.0000 H   0  0  0  0  0  0  0  0  0  0  0  0
  1  2  1  0  0  0  0
  2  3  1  0  0  0  0
  2  8  2  0  0  0  0
  3  4  2  0  0  0  0
  3 23  1  0  0  0  0
  4  5  1  0  0  0  0
  4 24  1  0  0  0  0
  5  6  2  0  0  0  0
  5 25  1  0  0  0  0
  6  7  1  0  0  0  0
  6  8  1  0  0  0  0
  8  9  1  0  0  0  0
  9 10  1  0  0  0  0
  9 26  1  0  0  0  0
  9 27  1  0  0  0  0
 10 11  1  0  0  0  0
 10 12  1  0  0  0  0
 11 15  2  0  0  0  0
 11 28  1  0  0  0  0
 12 13  1  0  0  0  0
 12 14  2  0  0  0  0
 13 29  1  0  0  0  0
 13 30  1  0  0  0  0
 13 31  1  0  0  0  0
 14 15  1  0  0  0  0
 15 16  1  0  0  0  0
 16 17  1  0  0  0  0
 16 21  2  0  0  0  0
 17 18  2  0  0  0  0
 17 32  1  0  0  0  0
 18 19  1  0  0  0  0
 18 33  1  0  0  0  0
 19 20  2  0  0  0  0
 20 21  1  0  0  0  0
 20 22  1  0  0  0  0
 22 34  1  0  0  0  0
 22 35  1  0  0  0  0
M  END
>  <DRUGBANK_ID>
DB08076

>  <COMMON_NAME>
4-[1-(2,6-dichlorobenzyl)-2-methyl-1H-imidazol-4-yl]pyrimidin-2-amine

$$$$
