
 OpenBabel10282417072D

 50 52  0  0  0  0  0  0  0  0999 V2000
    3.0791    3.9683    0.0000 Cl  0  0  0  0  0  0  0  0  0  0  0  0
    4.5080   -1.8068    0.0000 O   0  0  0  0  0  0  0  0  0  0  0  0
    3.0791   -3.4568    0.0000 O   0  0  0  0  0  0  0  0  0  0  0  0
    3.7935    1.9058    0.0000 C   0  0  0  0  0  0  0  0  0  0  0  0
    4.5080    1.4933    0.0000 C   0  0  0  0  0  0  0  0  0  0  0  0
    3.7935    2.7308    0.0000 C   0  0  0  0  0  0  0  0  0  0  0  0
    4.5080    0.6683    0.0000 C   0  0  0  0  0  0  0  0  0  0  0  0
    3.0791    1.4933    0.0000 C   0  0  0  0  0  0  0  0  0  0  0  0
    5.2224    1.9058    0.0000 C   0  0  0  0  0  0  0  0  0  0  0  0
    5.2224    0.2558    0.0000 C   0  0  0  0  0  0  0  0  0  0  0  0
    3.7935    0.2558    0.0000 C   0  0  0  0  0  0  0  0  0  0  0  0
    3.0791    3.1433    0.0000 C   0  0  0  0  0  0  0  0  0  0  0  0
    3.0791    0.6683    0.0000 C   0  0  0  0  0  0  0  0  0  0  0  0
    2.3645    1.9058    0.0000 C   0  0  0  0  0  0  0  0  0  0  0  0
    5.2224    2.7308    0.0000 C   0  0  0  0  0  0  0  0  0  0  0  0
    5.9370    1.4933    0.0000 C   0  0  0  0  0  0  0  0  0  0  0  0
    5.2224   -0.5693    0.0000 C   0  0  0  0  0  0  0  0  0  0  0  0
    3.7935   -0.5693    0.0000 C   0  0  0  0  0  0  0  0  0  0  0  0
    4.5080   -0.9818    0.0000 C   0  0  0  0  0  0  0  0  0  0  0  0
    2.3645    0.2558    0.0000 C   0  0  0  0  0  0  0  0  0  0  0  0
    1.6500    1.4933    0.0000 C   0  0  0  0  0  0  0  0  0  0  0  0
    5.9370    3.1433    0.0000 C   0  0  0  0  0  0  0  0  0  0  0  0
    6.6515    1.9058    0.0000 C   0  0  0  0  0  0  0  0  0  0  0  0
    1.6500    0.6683    0.0000 C   0  0  0  0  0  0  0  0  0  0  0  0
    6.6515    2.7308    0.0000 C   0  0  0  0  0  0  0  0  0  0  0  0
    3.7935   -2.2193    0.0000 C   0  0  0  0  0  0  0  0  0  0  0  0
    3.7935   -3.0443    0.0000 C   0  0  0  0  0  0  0  0  0  0  0  0
    2.2390   -2.9718    0.0000 H   0  0  0  0  0  0  0  0  0  0  0  0
    4.7202    3.2658    0.0000 H   0  0  0  0  0  0  0  0  0  0  0  0
    3.7935    3.8008    0.0000 H   0  0  0  0  0  0  0  0  0  0  0  0
    6.1161    0.7718    0.0000 H   0  0  0  0  0  0  0  0  0  0  0  0
    2.8998    0.7718    0.0000 H   0  0  0  0  0  0  0  0  0  0  0  0
    2.1524    2.6083    0.0000 H   0  0  0  0  0  0  0  0  0  0  0  0
    3.0791    2.0733    0.0000 H   0  0  0  0  0  0  0  0  0  0  0  0
    3.9728    0.1523    0.0000 H   0  0  0  0  0  0  0  0  0  0  0  0
    2.3645    2.9378    0.0000 H   0  0  0  0  0  0  0  0  0  0  0  0
    4.3287    3.2468    0.0000 H   0  0  0  0  0  0  0  0  0  0  0  0
    5.9370    0.4613    0.0000 H   0  0  0  0  0  0  0  0  0  0  0  0
    6.1161   -1.0853    0.0000 H   0  0  0  0  0  0  0  0  0  0  0  0
    2.8998   -1.0853    0.0000 H   0  0  0  0  0  0  0  0  0  0  0  0
    2.3645   -0.7762    0.0000 H   0  0  0  0  0  0  0  0  0  0  0  0
    0.7563    2.0093    0.0000 H   0  0  0  0  0  0  0  0  0  0  0  0
    5.9370    4.1753    0.0000 H   0  0  0  0  0  0  0  0  0  0  0  0
    7.5452    1.3898    0.0000 H   0  0  0  0  0  0  0  0  0  0  0  0
    0.7563    0.1523    0.0000 H   0  0  0  0  0  0  0  0  0  0  0  0
    7.5452    3.2468    0.0000 H   0  0  0  0  0  0  0  0  0  0  0  0
    2.8669   -1.6843    0.0000 H   0  0  0  0  0  0  0  0  0  0  0  0
    2.8669   -2.7543    0.0000 H   0  0  0  0  0  0  0  0  0  0  0  0
    4.7202   -3.5793    0.0000 H   0  0  0  0  0  0  0  0  0  0  0  0
    4.7201   -2.5093    0.0000 H   0  0  0  0  0  0  0  0  0  0  0  0
  1 12  1  0  0  0  0
  2 19  1  0  0  0  0
  2 26  1  0  0  0  0
  3 27  1  0  0  0  0
  3 28  1  0  0  0  0
  4  5  2  0  0  0  0
  4  6  1  0  0  0  0
  4  8  1  0  0  0  0
  5  7  1  0  0  0  0
  5  9  1  0  0  0  0
  6 12  1  0  0  0  0
  6 29  1  0  0  0  0
  6 30  1  0  0  0  0
  7 10  2  0  0  0  0
  7 11  1  0  0  0  0
  8 13  2  0  0  0  0
  8 14  1  0  0  0  0
  9 15  2  0  0  0  0
  9 16  1  0  0  0  0
 10 17  1  0  0  0  0
 10 31  1  0  0  0  0
 11 18  2  0  0  0  0
 11 32  1  0  0  0  0
 12 33  1  0  0  0  0
 12 34  1  0  0  0  0
 13 20  1  0  0  0  0
 13 35  1  0  0  0  0
 14 21  2  0  0  0  0
 14 36  1  0  0  0  0
 15 22  1  0  0  0  0
 15 37  1  0  0  0  0
 16 23  2  0  0  0  0
 16 38  1  0  0  0  0
 17 19  2  0  0  0  0
 17 39  1  0  0  0  0
 18 19  1  0  0  0  0
 18 40  1  0  0  0  0
 20 24  2  0  0  0  0
 20 41  1  0  0  0  0
 21 24  1  0  0  0  0
 21 42  1  0  0  0  0
 22 25  2  0  0  0  0
 22 43  1  0  0  0  0
 23 25  1  0  0  0  0
 23 44  1  0  0  0  0
 24 45  1  0  0  0  0
 25 46  1  0  0  0  0
 26 27  1  0  0  0  0
 26 47  1  0  0  0  0
 26 48  1  0  0  0  0
 27 49  1  0  0  0  0
 27 50  1  0  0  0  0
M  END
>  <DRUGBANK_ID>
DB04938

>  <COMMON_NAME>
Ospemifene

>  <CAS_NUMBER>
128607-22-7

>  <UNII>
B0P231ILBK

>  <SYNONYMS>
2-(4-(4-Chloro-1,2-diphenyl-but-1-enyl)phenoxy)ethanol; 2-(p-((Z)-4-Chloro-1,2-diphenyl-1-butenyl)phenoxy)ethanol; Deamino-hydroxytoremifene; Ospemifene; Ospemifeno

$$$$
