
 OpenBabel10282417072D

 56 59  0  0  1  0  0  0  0  0999 V2000
  -10.5619    0.1594    0.0000 C   0  0  0  0  0  0  0  0  0  0  0  0
   -9.8474    0.5719    0.0000 C   0  0  0  0  0  0  0  0  0  0  0  0
   -9.0937    0.2363    0.0000 C   0  0  0  0  0  0  0  0  0  0  0  0
   -8.5417    0.8494    0.0000 C   0  0  0  0  0  0  0  0  0  0  0  0
   -8.9542    1.5639    0.0000 C   0  0  0  0  0  0  0  0  0  0  0  0
   -9.7612    1.3924    0.0000 N   0  0  0  0  0  0  0  0  0  0  0  0
   -8.5417    2.2784    0.0000 C   0  0  0  0  0  0  0  0  0  0  0  0
   -7.7167    2.2784    0.0000 C   0  0  0  0  0  0  0  0  0  0  0  0
   -7.3042    1.5639    0.0000 C   0  0  0  0  0  0  0  0  0  0  0  0
   -7.7167    0.8494    0.0000 C   0  0  0  0  0  0  0  0  0  0  0  0
   -7.3042    0.1350    0.0000 F   0  0  0  0  0  0  0  0  0  0  0  0
   -6.4792    1.5639    0.0000 O   0  0  0  0  0  0  0  0  0  0  0  0
   -6.0667    0.8494    0.0000 C   0  0  0  0  0  0  0  0  0  0  0  0
   -5.2417    0.8494    0.0000 C   0  0  0  0  0  0  0  0  0  0  0  0
   -4.6897    1.4625    0.0000 C   0  0  0  0  0  0  0  0  0  0  0  0
   -3.9360    1.1270    0.0000 C   0  0  0  0  0  0  0  0  0  0  0  0
   -4.0222    0.3065    0.0000 C   0  0  0  0  0  0  0  0  0  0  0  0
   -4.8292    0.1350    0.0000 N   0  0  0  0  0  0  0  0  0  0  0  0
   -5.2417   -0.5795    0.0000 N   0  0  0  0  0  0  0  0  0  0  0  0
   -6.0667   -0.5795    0.0000 C   0  0  0  0  0  0  0  0  0  0  0  0
   -6.4792    0.1350    0.0000 N   0  0  0  0  0  0  0  0  0  0  0  0
   -3.2215    1.5395    0.0000 O   0  0  0  0  0  0  0  0  0  0  0  0
   -2.5070    1.1270    0.0000 C   0  0  0  0  0  0  0  0  0  0  0  0
   -1.7926    1.5395    0.0000 C   0  0  1  0  0  0  0  0  0  0  0  0
   -1.7926    2.3645    0.0000 C   0  0  0  0  0  0  0  0  0  0  0  0
   -1.0781    1.1270    0.0000 O   0  0  0  0  0  0  0  0  0  0  0  0
   -0.3636    1.5395    0.0000 C   0  0  0  0  0  0  0  0  0  0  0  0
   -0.3636    2.3645    0.0000 O   0  0  0  0  0  0  0  0  0  0  0  0
    0.3508    1.1270    0.0000 C   0  0  2  0  0  0  0  0  0  0  0  0
    1.0653    1.5395    0.0000 C   0  0  0  0  0  0  0  0  0  0  0  0
    0.3508    0.3020    0.0000 N   0  0  0  0  0  0  0  0  0  0  0  0
   -4.8612    2.2695    0.0000 C   0  0  0  0  0  0  0  0  0  0  0  0
  -11.4885    0.6944    0.0000 H   0  0  0  0  0  0  0  0  0  0  0  0
  -10.5619   -0.9106    0.0000 H   0  0  0  0  0  0  0  0  0  0  0  0
  -11.4886   -0.3756    0.0000 H   0  0  0  0  0  0  0  0  0  0  0  0
   -8.8791   -0.7731    0.0000 H   0  0  0  0  0  0  0  0  0  0  0  0
  -10.4928    2.0512    0.0000 H   0  0  0  0  0  0  0  0  0  0  0  0
   -9.0577    3.1721    0.0000 H   0  0  0  0  0  0  0  0  0  0  0  0
   -7.2007    3.1721    0.0000 H   0  0  0  0  0  0  0  0  0  0  0  0
   -3.2553   -0.3840    0.0000 H   0  0  0  0  0  0  0  0  0  0  0  0
   -6.5827   -1.4732    0.0000 H   0  0  0  0  0  0  0  0  0  0  0  0
   -2.5070    0.0570    0.0000 H   0  0  0  0  0  0  0  0  0  0  0  0
   -1.5803    0.5920    0.0000 H   0  0  0  0  0  0  0  0  0  0  0  0
   -2.7193    2.0745    0.0000 H   0  0  0  0  0  0  0  0  0  0  0  0
   -0.8660    2.8995    0.0000 H   0  0  0  0  0  0  0  0  0  0  0  0
   -2.7192    2.8995    0.0000 H   0  0  0  0  0  0  0  0  0  0  0  0
   -1.7926    3.4345    0.0000 H   0  0  0  0  0  0  0  0  0  0  0  0
   -0.5759    0.5920    0.0000 H   0  0  0  0  0  0  0  0  0  0  0  0
    1.9919    1.0045    0.0000 H   0  0  0  0  0  0  0  0  0  0  0  0
    1.0653    2.6095    0.0000 H   0  0  0  0  0  0  0  0  0  0  0  0
    1.9920    2.0745    0.0000 H   0  0  0  0  0  0  0  0  0  0  0  0
   -0.5325   -0.2080    0.0000 H   0  0  0  0  0  0  0  0  0  0  0  0
    1.2341   -0.2080    0.0000 H   0  0  0  0  0  0  0  0  0  0  0  0
   -4.0660    2.9854    0.0000 H   0  0  0  0  0  0  0  0  0  0  0  0
   -5.8788    2.6002    0.0000 H   0  0  0  0  0  0  0  0  0  0  0  0
   -5.0836    3.3161    0.0000 H   0  0  0  0  0  0  0  0  0  0  0  0
  1  2  1  0  0  0  0
  1 33  1  0  0  0  0
  1 34  1  0  0  0  0
  1 35  1  0  0  0  0
  2  3  2  0  0  0  0
  2  6  1  0  0  0  0
  3  4  1  0  0  0  0
  3 36  1  0  0  0  0
  4  5  1  0  0  0  0
  4 10  2  0  0  0  0
  5  6  1  0  0  0  0
  5  7  2  0  0  0  0
  6 37  1  0  0  0  0
  7  8  1  0  0  0  0
  7 38  1  0  0  0  0
  8  9  2  0  0  0  0
  8 39  1  0  0  0  0
  9 10  1  0  0  0  0
  9 12  1  0  0  0  0
 10 11  1  0  0  0  0
 12 13  1  0  0  0  0
 13 14  1  0  0  0  0
 13 21  2  0  0  0  0
 14 15  2  0  0  0  0
 14 18  1  0  0  0  0
 15 16  1  0  0  0  0
 15 32  1  0  0  0  0
 16 17  2  0  0  0  0
 16 22  1  0  0  0  0
 17 18  1  0  0  0  0
 17 40  1  0  0  0  0
 18 19  1  0  0  0  0
 19 20  2  0  0  0  0
 20 21  1  0  0  0  0
 20 41  1  0  0  0  0
 22 23  1  0  0  0  0
 23 24  1  0  0  0  0
 23 42  1  0  0  0  0
 23 43  1  0  0  0  0
 24 25  1  0  0  0  0
 24 26  1  0  0  0  0
 24 44  1  6  0  0  0
 25 45  1  0  0  0  0
 25 46  1  0  0  0  0
 25 47  1  0  0  0  0
 26 27  1  0  0  0  0
 27 28  2  0  0  0  0
 27 29  1  0  0  0  0
 29 30  1  0  0  0  0
 29 31  1  0  0  0  0
 29 48  1  1  0  0  0
 30 49  1  0  0  0  0
 30 50  1  0  0  0  0
 30 51  1  0  0  0  0
 31 52  1  0  0  0  0
 31 53  1  0  0  0  0
 32 54  1  0  0  0  0
 32 55  1  0  0  0  0
 32 56  1  0  0  0  0
M  END
>  <DRUGBANK_ID>
DB11865

>  <COMMON_NAME>
Brivanib alaninate

>  <CAS_NUMBER>
649735-63-7

>  <UNII>
U2Y5OFN795

>  <SYNONYMS>
Brivanib alaninate

$$$$
