DPK
 OpenBabel10282417072D

 33 33  0  0  0  0  0  0  0  0999 V2000
   -2.8256   -0.0361    0.0000 C   0  0  0  0  0  0  0  0  0  0  0  0
   -2.1111    0.3764    0.0000 C   0  0  0  0  0  0  0  0  0  0  0  0
   -1.3967   -0.0361    0.0000 C   0  0  0  0  0  0  0  0  0  0  0  0
   -0.6822    0.3764    0.0000 N   0  0  0  0  0  0  0  0  0  0  0  0
   -0.6822    1.2014    0.0000 C   0  0  0  0  0  0  0  0  0  0  0  0
    0.0323   -0.0361    0.0000 C   0  0  2  0  0  0  0  0  0  0  0  0
    0.0323   -0.8611    0.0000 C   0  0  0  0  0  0  0  0  0  0  0  0
    0.7468    0.3764    0.0000 C   0  0  0  0  0  0  0  0  0  0  0  0
    1.4612   -0.0361    0.0000 C   0  0  0  0  0  0  0  0  0  0  0  0
    2.1757    0.3764    0.0000 C   0  0  0  0  0  0  0  0  0  0  0  0
    2.8902   -0.0361    0.0000 C   0  0  0  0  0  0  0  0  0  0  0  0
    2.8902   -0.8611    0.0000 C   0  0  0  0  0  0  0  0  0  0  0  0
    2.1757   -1.2736    0.0000 C   0  0  0  0  0  0  0  0  0  0  0  0
    1.4612   -0.8611    0.0000 C   0  0  0  0  0  0  0  0  0  0  0  0
   -0.4734   -0.3281    0.0000 H   0  0  0  0  0  0  0  0  0  0  0  0
   -3.7193    0.4799    0.0000 H   0  0  0  0  0  0  0  0  0  0  0  0
   -2.8256   -1.0681    0.0000 H   0  0  0  0  0  0  0  0  0  0  0  0
   -2.1111    1.4084    0.0000 H   0  0  0  0  0  0  0  0  0  0  0  0
   -1.3967   -1.1061    0.0000 H   0  0  0  0  0  0  0  0  0  0  0  0
   -0.4701   -0.5711    0.0000 H   0  0  0  0  0  0  0  0  0  0  0  0
    0.2444    1.7364    0.0000 H   0  0  0  0  0  0  0  0  0  0  0  0
   -1.6088    1.7364    0.0000 H   0  0  0  0  0  0  0  0  0  0  0  0
   -0.6822    2.2714    0.0000 H   0  0  0  0  0  0  0  0  0  0  0  0
   -0.8943   -1.3961    0.0000 H   0  0  0  0  0  0  0  0  0  0  0  0
    0.9589   -1.3961    0.0000 H   0  0  0  0  0  0  0  0  0  0  0  0
    0.0323   -1.9311    0.0000 H   0  0  0  0  0  0  0  0  0  0  0  0
    0.7468    1.4464    0.0000 H   0  0  0  0  0  0  0  0  0  0  0  0
    1.6735    0.9114    0.0000 H   0  0  0  0  0  0  0  0  0  0  0  0
    2.1757    1.4084    0.0000 H   0  0  0  0  0  0  0  0  0  0  0  0
    3.7839    0.4799    0.0000 H   0  0  0  0  0  0  0  0  0  0  0  0
    3.7839   -1.3771    0.0000 H   0  0  0  0  0  0  0  0  0  0  0  0
    2.1757   -2.3056    0.0000 H   0  0  0  0  0  0  0  0  0  0  0  0
    0.5675   -1.3771    0.0000 H   0  0  0  0  0  0  0  0  0  0  0  0
  1  2  2  0  0  0  0
  1 16  1  0  0  0  0
  1 17  1  0  0  0  0
  2  3  1  0  0  0  0
  2 18  1  0  0  0  0
  3  4  1  0  0  0  0
  3 19  1  0  0  0  0
  3 20  1  0  0  0  0
  4  5  1  0  0  0  0
  4  6  1  0  0  0  0
  5 21  1  0  0  0  0
  5 22  1  0  0  0  0
  5 23  1  0  0  0  0
  6  7  1  0  0  0  0
  6  8  1  0  0  0  0
  6 15  1  6  0  0  0
  7 24  1  0  0  0  0
  7 25  1  0  0  0  0
  7 26  1  0  0  0  0
  8  9  1  0  0  0  0
  8 27  1  0  0  0  0
  8 28  1  0  0  0  0
  9 10  2  0  0  0  0
  9 14  1  0  0  0  0
 10 11  1  0  0  0  0
 10 29  1  0  0  0  0
 11 12  2  0  0  0  0
 11 30  1  0  0  0  0
 12 13  1  0  0  0  0
 12 31  1  0  0  0  0
 13 14  2  0  0  0  0
 13 32  1  0  0  0  0
 14 33  1  0  0  0  0
M  END
>  <DRUGBANK_ID>
DB04677

>  <COMMON_NAME>
N-METHYL-N-[(1R)-1-METHYL-2-PHENYLETHYL]PROP-2-EN-1-AMINE

$$$$
