
 OpenBabel10282417072D

 65 68  0  0  0  0  0  0  0  0999 V2000
   -5.7158   -4.1250    0.0000 C   0  0  0  0  0  0  0  0  0  0  0  0
   -5.0013   -3.7125    0.0000 C   0  0  0  0  0  0  0  0  0  0  0  0
   -5.0013   -2.8875    0.0000 C   0  0  0  0  0  0  0  0  0  0  0  0
   -4.2868   -2.4750    0.0000 C   0  0  0  0  0  0  0  0  0  0  0  0
   -4.2868   -1.6500    0.0000 C   0  0  0  0  0  0  0  0  0  0  0  0
   -3.5724   -1.2375    0.0000 C   0  0  0  0  0  0  0  0  0  0  0  0
   -2.8579   -1.6500    0.0000 C   0  0  0  0  0  0  0  0  0  0  0  0
   -2.1434   -1.2375    0.0000 C   0  0  0  0  0  0  0  0  0  0  0  0
   -1.4289   -1.6500    0.0000 O   0  0  0  0  0  0  0  0  0  0  0  0
   -0.7145   -1.2375    0.0000 C   0  0  0  0  0  0  0  0  0  0  0  0
    0.0000   -1.6500    0.0000 C   0  0  0  0  0  0  0  0  0  0  0  0
    0.7145   -1.2375    0.0000 C   0  0  0  0  0  0  0  0  0  0  0  0
    0.7145   -0.4125    0.0000 C   0  0  0  0  0  0  0  0  0  0  0  0
    0.0000   -0.0000    0.0000 C   0  0  0  0  0  0  0  0  0  0  0  0
   -0.7145   -0.4125    0.0000 C   0  0  0  0  0  0  0  0  0  0  0  0
    1.4289   -0.0000    0.0000 C   0  0  0  0  0  0  0  0  0  0  0  0
    1.4289    0.8250    0.0000 C   0  0  0  0  0  0  0  0  0  0  0  0
    2.1434   -0.4125    0.0000 C   0  0  0  0  0  0  0  0  0  0  0  0
    2.8579   -0.0000    0.0000 C   0  0  0  0  0  0  0  0  0  0  0  0
    3.5724   -0.4125    0.0000 N   0  0  0  0  0  0  0  0  0  0  0  0
    4.3692   -0.1990    0.0000 C   0  0  0  0  0  0  0  0  0  0  0  0
    4.5828   -0.9959    0.0000 C   0  0  3  0  0  0  0  0  0  0  0  0
    3.7859   -1.2094    0.0000 C   0  0  0  0  0  0  0  0  0  0  0  0
    5.2972   -1.4084    0.0000 C   0  0  0  0  0  0  0  0  0  0  0  0
    6.0117   -0.9959    0.0000 O   0  0  0  0  0  0  0  0  0  0  0  0
    5.2972   -2.2334    0.0000 O   0  0  0  0  0  0  0  0  0  0  0  0
    2.1434   -1.2375    0.0000 C   0  0  0  0  0  0  0  0  0  0  0  0
    1.4289   -1.6500    0.0000 C   0  0  0  0  0  0  0  0  0  0  0  0
   -2.8579   -2.4750    0.0000 C   0  0  0  0  0  0  0  0  0  0  0  0
   -2.1434   -2.8875    0.0000 O   0  0  0  0  0  0  0  0  0  0  0  0
   -2.1434   -3.7125    0.0000 C   0  0  0  0  0  0  0  0  0  0  0  0
   -3.5724   -2.8875    0.0000 C   0  0  0  0  0  0  0  0  0  0  0  0
   -6.6424   -3.5900    0.0000 H   0  0  0  0  0  0  0  0  0  0  0  0
   -5.7158   -5.1950    0.0000 H   0  0  0  0  0  0  0  0  0  0  0  0
   -6.6425   -4.6600    0.0000 H   0  0  0  0  0  0  0  0  0  0  0  0
   -4.0747   -4.2475    0.0000 H   0  0  0  0  0  0  0  0  0  0  0  0
   -4.0747   -3.1775    0.0000 H   0  0  0  0  0  0  0  0  0  0  0  0
   -5.9279   -2.3525    0.0000 H   0  0  0  0  0  0  0  0  0  0  0  0
   -5.0013   -1.8175    0.0000 H   0  0  0  0  0  0  0  0  0  0  0  0
   -5.1805   -1.1340    0.0000 H   0  0  0  0  0  0  0  0  0  0  0  0
   -3.5724   -0.2055    0.0000 H   0  0  0  0  0  0  0  0  0  0  0  0
   -2.1434   -0.1675    0.0000 H   0  0  0  0  0  0  0  0  0  0  0  0
   -1.2168   -0.7025    0.0000 H   0  0  0  0  0  0  0  0  0  0  0  0
    0.0000   -2.6820    0.0000 H   0  0  0  0  0  0  0  0  0  0  0  0
    0.0000    1.0320    0.0000 H   0  0  0  0  0  0  0  0  0  0  0  0
   -1.6082    0.1035    0.0000 H   0  0  0  0  0  0  0  0  0  0  0  0
    2.3555    1.3600    0.0000 H   0  0  0  0  0  0  0  0  0  0  0  0
    0.5023    1.3600    0.0000 H   0  0  0  0  0  0  0  0  0  0  0  0
    1.4289    1.8950    0.0000 H   0  0  0  0  0  0  0  0  0  0  0  0
    2.8579    1.0700    0.0000 H   0  0  0  0  0  0  0  0  0  0  0  0
    3.7845    0.5350    0.0000 H   0  0  0  0  0  0  0  0  0  0  0  0
    4.9042    0.7277    0.0000 H   0  0  0  0  0  0  0  0  0  0  0  0
    5.4301   -0.3386    0.0000 H   0  0  0  0  0  0  0  0  0  0  0  0
    3.6561   -0.4609    0.0000 H   0  0  0  0  0  0  0  0  0  0  0  0
    3.2509   -2.1360    0.0000 H   0  0  0  0  0  0  0  0  0  0  0  0
    2.7251   -1.0697    0.0000 H   0  0  0  0  0  0  0  0  0  0  0  0
    6.8232   -1.4644    0.0000 H   0  0  0  0  0  0  0  0  0  0  0  0
    3.0700   -1.7725    0.0000 H   0  0  0  0  0  0  0  0  0  0  0  0
    2.1434   -2.3075    0.0000 H   0  0  0  0  0  0  0  0  0  0  0  0
    1.4289   -2.7200    0.0000 H   0  0  0  0  0  0  0  0  0  0  0  0
    0.5022   -2.1850    0.0000 H   0  0  0  0  0  0  0  0  0  0  0  0
   -3.0700   -4.2475    0.0000 H   0  0  0  0  0  0  0  0  0  0  0  0
   -1.2168   -4.2475    0.0000 H   0  0  0  0  0  0  0  0  0  0  0  0
   -2.1434   -4.7825    0.0000 H   0  0  0  0  0  0  0  0  0  0  0  0
   -3.5724   -3.9195    0.0000 H   0  0  0  0  0  0  0  0  0  0  0  0
  1  2  1  0  0  0  0
  1 33  1  0  0  0  0
  1 34  1  0  0  0  0
  1 35  1  0  0  0  0
  2  3  1  0  0  0  0
  2 36  1  0  0  0  0
  2 37  1  0  0  0  0
  3  4  1  0  0  0  0
  3 38  1  0  0  0  0
  3 39  1  0  0  0  0
  4  5  2  0  0  0  0
  4 32  1  0  0  0  0
  5  6  1  0  0  0  0
  5 40  1  0  0  0  0
  6  7  2  0  0  0  0
  6 41  1  0  0  0  0
  7  8  1  0  0  0  0
  7 29  1  0  0  0  0
  8  9  1  0  0  0  0
  8 42  1  0  0  0  0
  8 43  1  0  0  0  0
  9 10  1  0  0  0  0
 10 11  2  0  0  0  0
 10 15  1  0  0  0  0
 11 12  1  0  0  0  0
 11 44  1  0  0  0  0
 12 13  2  0  0  0  0
 12 28  1  0  0  0  0
 13 14  1  0  0  0  0
 13 16  1  0  0  0  0
 14 15  2  0  0  0  0
 14 45  1  0  0  0  0
 15 46  1  0  0  0  0
 16 17  1  0  0  0  0
 16 18  2  0  0  0  0
 17 47  1  0  0  0  0
 17 48  1  0  0  0  0
 17 49  1  0  0  0  0
 18 19  1  0  0  0  0
 18 27  1  0  0  0  0
 19 20  1  0  0  0  0
 19 50  1  0  0  0  0
 19 51  1  0  0  0  0
 20 21  1  0  0  0  0
 20 23  1  0  0  0  0
 21 22  1  0  0  0  0
 21 52  1  0  0  0  0
 21 53  1  0  0  0  0
 22 23  1  0  0  0  0
 22 24  1  0  0  0  0
 22 54  1  0  0  0  0
 23 55  1  0  0  0  0
 23 56  1  0  0  0  0
 24 25  1  0  0  0  0
 24 26  2  0  0  0  0
 25 57  1  0  0  0  0
 27 28  1  0  0  0  0
 27 58  1  0  0  0  0
 27 59  1  0  0  0  0
 28 60  1  0  0  0  0
 28 61  1  0  0  0  0
 29 30  1  0  0  0  0
 29 32  2  0  0  0  0
 30 31  1  0  0  0  0
 31 62  1  0  0  0  0
 31 63  1  0  0  0  0
 31 64  1  0  0  0  0
 32 65  1  0  0  0  0
M  END
>  <DRUGBANK_ID>
DB16123

>  <COMMON_NAME>
Ceralifimod

>  <CAS_NUMBER>
891859-12-4

>  <UNII>
BZ2O8A84A4

>  <SYNONYMS>
Ceralifimod

$$$$
