
 OpenBabel10282417072D

 64 67  0  0  1  0  0  0  0  0999 V2000
   -5.6843   -3.8380    0.0000 C   0  0  0  0  0  0  0  0  0  0  0  0
   -4.9698   -3.4255    0.0000 C   0  0  0  0  0  0  0  0  0  0  0  0
   -4.2553   -3.8380    0.0000 C   0  0  0  0  0  0  0  0  0  0  0  0
   -3.5408   -3.4255    0.0000 C   0  0  0  0  0  0  0  0  0  0  0  0
   -2.8264   -3.8380    0.0000 C   0  0  0  0  0  0  0  0  0  0  0  0
   -2.1119   -3.4255    0.0000 N   0  0  0  0  0  0  0  0  0  0  0  0
   -1.3974   -3.8380    0.0000 C   0  0  0  0  0  0  0  0  0  0  0  0
   -1.3974   -4.6630    0.0000 O   0  0  0  0  0  0  0  0  0  0  0  0
   -0.6830   -3.4255    0.0000 C   0  0  0  0  0  0  0  0  0  0  0  0
   -0.5967   -2.6050    0.0000 C   0  0  0  0  0  0  0  0  0  0  0  0
    0.2102   -2.4335    0.0000 O   0  0  0  0  0  0  0  0  0  0  0  0
    0.6227   -3.1480    0.0000 C   0  0  0  0  0  0  0  0  0  0  0  0
    0.0707   -3.7611    0.0000 N   0  0  0  0  0  0  0  0  0  0  0  0
    1.4432   -3.2342    0.0000 C   0  0  2  0  0  0  0  0  0  0  0  0
    1.7788   -3.9879    0.0000 C   0  0  1  0  0  0  0  0  0  0  0  0
    2.5993   -4.0741    0.0000 C   0  0  0  0  0  0  0  0  0  0  0  0
    3.0842   -3.4067    0.0000 C   0  0  0  0  0  0  0  0  0  0  0  0
    2.7486   -2.6530    0.0000 C   0  0  1  0  0  0  0  0  0  0  0  0
    1.9282   -2.5668    0.0000 C   0  0  2  0  0  0  0  0  0  0  0  0
    1.5926   -1.8131    0.0000 C   0  0  0  0  0  0  0  0  0  0  0  0
    2.0775   -1.1457    0.0000 C   0  0  0  0  0  0  0  0  0  0  0  0
    1.7420   -0.3920    0.0000 C   0  0  0  0  0  0  0  0  0  0  0  0
    2.2269    0.2755    0.0000 C   0  0  0  0  0  0  0  0  0  0  0  0
    3.0474    0.1892    0.0000 C   0  0  0  0  0  0  0  0  0  0  0  0
    3.3829   -0.5644    0.0000 C   0  0  0  0  0  0  0  0  0  0  0  0
    2.8980   -1.2319    0.0000 C   0  0  0  0  0  0  0  0  0  0  0  0
    3.2336   -1.9856    0.0000 C   0  0  0  0  0  0  0  0  0  0  0  0
    4.0540   -2.0718    0.0000 C   0  0  0  0  0  0  0  0  0  0  0  0
    4.3896   -2.8255    0.0000 C   0  0  0  0  0  0  0  0  0  0  0  0
    5.2101   -2.9117    0.0000 O   0  0  0  0  0  0  0  0  0  0  0  0
    3.9047   -3.4929    0.0000 O   0  0  0  0  0  0  0  0  0  0  0  0
    2.0969   -3.1992    0.0000 O   0  0  0  0  0  0  0  0  0  0  0  0
   -6.6109   -3.3030    0.0000 H   0  0  0  0  0  0  0  0  0  0  0  0
   -5.6843   -4.9080    0.0000 H   0  0  0  0  0  0  0  0  0  0  0  0
   -6.6110   -4.3730    0.0000 H   0  0  0  0  0  0  0  0  0  0  0  0
   -4.9698   -2.3555    0.0000 H   0  0  0  0  0  0  0  0  0  0  0  0
   -4.0432   -2.8905    0.0000 H   0  0  0  0  0  0  0  0  0  0  0  0
   -4.2553   -4.9080    0.0000 H   0  0  0  0  0  0  0  0  0  0  0  0
   -3.3287   -4.3730    0.0000 H   0  0  0  0  0  0  0  0  0  0  0  0
   -3.5408   -2.3555    0.0000 H   0  0  0  0  0  0  0  0  0  0  0  0
   -2.6141   -2.8905    0.0000 H   0  0  0  0  0  0  0  0  0  0  0  0
   -2.8264   -4.9080    0.0000 H   0  0  0  0  0  0  0  0  0  0  0  0
   -1.8998   -4.3730    0.0000 H   0  0  0  0  0  0  0  0  0  0  0  0
   -2.1119   -2.4410    0.0000 H   0  0  0  0  0  0  0  0  0  0  0  0
   -1.3636   -1.9144    0.0000 H   0  0  0  0  0  0  0  0  0  0  0  0
    0.8143   -4.0999    0.0000 H   0  0  0  0  0  0  0  0  0  0  0  0
    1.7598   -2.9181    0.0000 H   0  0  0  0  0  0  0  0  0  0  0  0
    3.0345   -5.0516    0.0000 H   0  0  0  0  0  0  0  0  0  0  0  0
    3.6634   -4.1859    0.0000 H   0  0  0  0  0  0  0  0  0  0  0  0
    4.1483   -3.5185    0.0000 H   0  0  0  0  0  0  0  0  0  0  0  0
    3.7131   -2.5410    0.0000 H   0  0  0  0  0  0  0  0  0  0  0  0
    2.5076   -3.6955    0.0000 H   0  0  0  0  0  0  0  0  0  0  0  0
    2.5571   -1.7011    0.0000 H   0  0  0  0  0  0  0  0  0  0  0  0
    0.5285   -1.7013    0.0000 H   0  0  0  0  0  0  0  0  0  0  0  0
    1.1574   -0.8356    0.0000 H   0  0  0  0  0  0  0  0  0  0  0  0
    0.7157   -0.2841    0.0000 H   0  0  0  0  0  0  0  0  0  0  0  0
    1.8072    1.2183    0.0000 H   0  0  0  0  0  0  0  0  0  0  0  0
    3.6540    1.0241    0.0000 H   0  0  0  0  0  0  0  0  0  0  0  0
    4.4092   -0.6723    0.0000 H   0  0  0  0  0  0  0  0  0  0  0  0
    2.6047   -2.8513    0.0000 H   0  0  0  0  0  0  0  0  0  0  0  0
    3.6688   -2.9631    0.0000 H   0  0  0  0  0  0  0  0  0  0  0  0
    4.6829   -1.2061    0.0000 H   0  0  0  0  0  0  0  0  0  0  0  0
    5.1181   -2.1836    0.0000 H   0  0  0  0  0  0  0  0  0  0  0  0
    2.9728   -3.3950    0.0000 H   0  0  0  0  0  0  0  0  0  0  0  0
  1  2  1  0  0  0  0
  1 33  1  0  0  0  0
  1 34  1  0  0  0  0
  1 35  1  0  0  0  0
  2  3  1  0  0  0  0
  2 36  1  0  0  0  0
  2 37  1  0  0  0  0
  3  4  1  0  0  0  0
  3 38  1  0  0  0  0
  3 39  1  0  0  0  0
  4  5  1  0  0  0  0
  4 40  1  0  0  0  0
  4 41  1  0  0  0  0
  5  6  1  0  0  0  0
  5 42  1  0  0  0  0
  5 43  1  0  0  0  0
  6  7  1  0  0  0  0
  6 44  1  0  0  0  0
  7  8  2  0  0  0  0
  7  9  1  0  0  0  0
  9 10  2  0  0  0  0
  9 13  1  0  0  0  0
 10 11  1  0  0  0  0
 10 45  1  0  0  0  0
 11 12  1  0  0  0  0
 12 13  2  0  0  0  0
 14 12  1  0  0  0  0
 14 15  1  0  0  0  0
 14 19  1  0  0  0  0
 14 46  1  6  0  0  0
 15 16  1  0  0  0  0
 15 32  1  0  0  0  0
 15 47  1  1  0  0  0
 16 17  1  0  0  0  0
 16 48  1  0  0  0  0
 16 49  1  0  0  0  0
 17 18  1  0  0  0  0
 17 50  1  0  0  0  0
 17 51  1  0  0  0  0
 18 19  1  0  0  0  0
 18 32  1  0  0  0  0
 18 52  1  1  0  0  0
 19 20  1  0  0  0  0
 19 53  1  6  0  0  0
 20 21  1  0  0  0  0
 20 54  1  0  0  0  0
 20 55  1  0  0  0  0
 21 22  2  0  0  0  0
 21 26  1  0  0  0  0
 22 23  1  0  0  0  0
 22 56  1  0  0  0  0
 23 24  2  0  0  0  0
 23 57  1  0  0  0  0
 24 25  1  0  0  0  0
 24 58  1  0  0  0  0
 25 26  2  0  0  0  0
 25 59  1  0  0  0  0
 26 27  1  0  0  0  0
 27 28  1  0  0  0  0
 27 60  1  0  0  0  0
 27 61  1  0  0  0  0
 28 29  1  0  0  0  0
 28 62  1  0  0  0  0
 28 63  1  0  0  0  0
 29 30  2  0  0  0  0
 29 31  1  0  0  0  0
 31 64  1  0  0  0  0
M  END
>  <DRUGBANK_ID>
DB12321

>  <COMMON_NAME>
Ifetroban

>  <CAS_NUMBER>
143443-90-7

>  <UNII>
E833KT807K

>  <SYNONYMS>
Ifetroban

$$$$
