
 OpenBabel10282417072D

 15 12  0  0  0  0  0  0  0  0999 V2000
    0.0682   -0.6725    0.0000 Zn  0  2  0  0  0  0  0  0  0  0  0  0
   -1.2032   -0.6830    0.0000 O   0  5  0  0  0  0  0  0  0  0  0  0
    1.2033   -0.5622    0.0000 O   0  5  0  0  0  0  0  0  0  0  0  0
   -1.9126    0.5569    0.0000 O   0  0  0  0  0  0  0  0  0  0  0  0
    1.9126    0.6830    0.0000 O   0  0  0  0  0  0  0  0  0  0  0  0
   -1.9126   -0.2732    0.0000 C   0  0  0  0  0  0  0  0  0  0  0  0
    1.9126   -0.1471    0.0000 C   0  0  0  0  0  0  0  0  0  0  0  0
   -2.6271   -0.6830    0.0000 C   0  0  0  0  0  0  0  0  0  0  0  0
    2.6271   -0.5622    0.0000 C   0  0  0  0  0  0  0  0  0  0  0  0
   -3.5522   -0.1454    0.0000 H   0  0  0  0  0  0  0  0  0  0  0  0
   -2.6302   -1.7530    0.0000 H   0  0  0  0  0  0  0  0  0  0  0  0
   -3.5553   -1.2154    0.0000 H   0  0  0  0  0  0  0  0  0  0  0  0
    2.6242   -1.6322    0.0000 H   0  0  0  0  0  0  0  0  0  0  0  0
    3.5552   -0.0297    0.0000 H   0  0  0  0  0  0  0  0  0  0  0  0
    3.5523   -1.0997    0.0000 H   0  0  0  0  0  0  0  0  0  0  0  0
  2  6  1  0  0  0  0
  3  7  1  0  0  0  0
  4  6  2  0  0  0  0
  5  7  2  0  0  0  0
  6  8  1  0  0  0  0
  7  9  1  0  0  0  0
  8 10  1  0  0  0  0
  8 11  1  0  0  0  0
  8 12  1  0  0  0  0
  9 13  1  0  0  0  0
  9 14  1  0  0  0  0
  9 15  1  0  0  0  0
M  CHG  3   1   2   2  -1   3  -1
M  END
>  <DRUGBANK_ID>
DB14487

>  <SECONDARY_ACCESSION_NUMBERS>
DBSALT001308

>  <COMMON_NAME>
Zinc acetate

>  <CAS_NUMBER>
557-34-6

>  <UNII>
H2ZEY72PME

>  <SYNONYMS>
Acetic acid, zinc salt; Dicarbomethoxyzinc; Zinc acetate anhydrous; Zinc acetato; Zinc diacetate; Zinc(II) acetate

$$$$
