
 OpenBabel10282417072D

 73 78  0  0  1  0  0  0  0  0999 V2000
    1.8905   -5.6599    0.0000 C   0  0  0  0  0  0  0  0  0  0  0  0
    2.1454   -4.8753    0.0000 C   0  0  0  0  0  0  0  0  0  0  0  0
    1.5934   -4.2622    0.0000 C   0  0  1  0  0  0  0  0  0  0  0  0
    2.2608   -3.7773    0.0000 O   0  0  0  0  0  0  0  0  0  0  0  0
    1.0413   -4.8753    0.0000 C   0  0  0  0  0  0  0  0  0  0  0  0
    0.2877   -4.5397    0.0000 C   0  0  0  0  0  0  0  0  0  0  0  0
    0.3739   -3.7192    0.0000 C   0  0  0  0  0  0  0  0  0  0  0  0
   -0.1781   -3.1062    0.0000 C   0  0  0  0  0  0  0  0  0  0  0  0
    0.0768   -2.3215    0.0000 C   0  0  0  0  0  0  0  0  0  0  0  0
    0.8838   -2.1500    0.0000 C   0  0  0  0  0  0  0  0  0  0  0  0
    1.4358   -2.7631    0.0000 N   0  0  0  0  0  0  0  0  0  0  0  0
    1.1809   -3.5477    0.0000 C   0  0  0  0  0  0  0  0  0  0  0  0
    1.1387   -1.3654    0.0000 N   0  0  0  0  0  0  0  0  0  0  0  0
    0.6538   -0.6979    0.0000 N   0  0  0  0  0  0  0  0  0  0  0  0
   -0.1712   -0.6979    0.0000 C   0  0  0  0  0  0  0  0  0  0  0  0
   -0.5837   -1.4124    0.0000 C   0  0  0  0  0  0  0  0  0  0  0  0
   -1.4087   -1.4124    0.0000 C   0  0  0  0  0  0  0  0  0  0  0  0
    1.1387   -0.0305    0.0000 C   0  0  0  0  0  0  0  0  0  0  0  0
    0.8838    0.7541    0.0000 O   0  0  0  0  0  0  0  0  0  0  0  0
    1.9233   -0.2854    0.0000 C   0  0  0  0  0  0  0  0  0  0  0  0
    2.6378    0.1271    0.0000 C   0  0  0  0  0  0  0  0  0  0  0  0
    3.3523   -0.2854    0.0000 N   0  0  0  0  0  0  0  0  0  0  0  0
    3.3523   -1.1104    0.0000 C   0  0  0  0  0  0  0  0  0  0  0  0
    4.0668   -1.5229    0.0000 N   0  0  0  0  0  0  0  0  0  0  0  0
    4.0668   -2.3479    0.0000 C   0  0  0  0  0  0  0  0  0  0  0  0
    4.7812   -2.7604    0.0000 C   0  0  0  0  0  0  0  0  0  0  0  0
    4.7812   -3.5854    0.0000 C   0  0  0  0  0  0  0  0  0  0  0  0
    4.0668   -3.9979    0.0000 C   0  0  0  0  0  0  0  0  0  0  0  0
    3.3523   -3.5854    0.0000 C   0  0  0  0  0  0  0  0  0  0  0  0
    3.3523   -2.7604    0.0000 C   0  0  0  0  0  0  0  0  0  0  0  0
    4.0668   -4.8229    0.0000 N   0  0  0  0  0  0  0  0  0  0  0  0
    4.7812   -5.2354    0.0000 C   0  0  0  0  0  0  0  0  0  0  0  0
    4.7812   -6.0604    0.0000 C   0  0  0  0  0  0  0  0  0  0  0  0
    4.0668   -6.4729    0.0000 N   0  0  0  0  0  0  0  0  0  0  0  0
    4.0668   -7.2979    0.0000 C   0  0  0  0  0  0  0  0  0  0  0  0
    3.3523   -6.0604    0.0000 C   0  0  0  0  0  0  0  0  0  0  0  0
    3.3523   -5.2354    0.0000 C   0  0  0  0  0  0  0  0  0  0  0  0
    2.6378   -1.5229    0.0000 N   0  0  0  0  0  0  0  0  0  0  0  0
    1.9233   -1.1104    0.0000 C   0  0  0  0  0  0  0  0  0  0  0  0
    0.8439   -5.8824    0.0000 H   0  0  0  0  0  0  0  0  0  0  0  0
    2.6065   -6.4550    0.0000 H   0  0  0  0  0  0  0  0  0  0  0  0
    1.5599   -6.6775    0.0000 H   0  0  0  0  0  0  0  0  0  0  0  0
    3.1920   -4.6528    0.0000 H   0  0  0  0  0  0  0  0  0  0  0  0
    2.4761   -3.8577    0.0000 H   0  0  0  0  0  0  0  0  0  0  0  0
    3.1469   -4.1718    0.0000 H   0  0  0  0  0  0  0  0  0  0  0  0
    1.2637   -5.9219    0.0000 H   0  0  0  0  0  0  0  0  0  0  0  0
    0.2097   -5.5486    0.0000 H   0  0  0  0  0  0  0  0  0  0  0  0
   -0.6390   -5.0747    0.0000 H   0  0  0  0  0  0  0  0  0  0  0  0
   -0.6097   -3.9569    0.0000 H   0  0  0  0  0  0  0  0  0  0  0  0
   -1.1875   -3.3208    0.0000 H   0  0  0  0  0  0  0  0  0  0  0  0
   -0.6138   -1.5546    0.0000 H   0  0  0  0  0  0  0  0  0  0  0  0
   -0.7062    0.2287    0.0000 H   0  0  0  0  0  0  0  0  0  0  0  0
   -1.2412   -0.6979    0.0000 H   0  0  0  0  0  0  0  0  0  0  0  0
   -0.0677   -2.3061    0.0000 H   0  0  0  0  0  0  0  0  0  0  0  0
   -1.9247   -0.5187    0.0000 H   0  0  0  0  0  0  0  0  0  0  0  0
   -1.9247   -2.3061    0.0000 H   0  0  0  0  0  0  0  0  0  0  0  0
    2.6378    1.1591    0.0000 H   0  0  0  0  0  0  0  0  0  0  0  0
    4.9194   -1.0306    0.0000 H   0  0  0  0  0  0  0  0  0  0  0  0
    5.6749   -2.2444    0.0000 H   0  0  0  0  0  0  0  0  0  0  0  0
    5.6749   -4.1014    0.0000 H   0  0  0  0  0  0  0  0  0  0  0  0
    2.4586   -4.1014    0.0000 H   0  0  0  0  0  0  0  0  0  0  0  0
    2.4586   -2.2444    0.0000 H   0  0  0  0  0  0  0  0  0  0  0  0
    5.7079   -4.7004    0.0000 H   0  0  0  0  0  0  0  0  0  0  0  0
    5.7078   -5.7704    0.0000 H   0  0  0  0  0  0  0  0  0  0  0  0
    5.7079   -6.5954    0.0000 H   0  0  0  0  0  0  0  0  0  0  0  0
    4.7812   -7.1304    0.0000 H   0  0  0  0  0  0  0  0  0  0  0  0
    3.1402   -7.8329    0.0000 H   0  0  0  0  0  0  0  0  0  0  0  0
    4.9934   -7.8329    0.0000 H   0  0  0  0  0  0  0  0  0  0  0  0
    4.0668   -8.3679    0.0000 H   0  0  0  0  0  0  0  0  0  0  0  0
    2.4257   -6.5954    0.0000 H   0  0  0  0  0  0  0  0  0  0  0  0
    2.4257   -5.5254    0.0000 H   0  0  0  0  0  0  0  0  0  0  0  0
    2.4257   -4.7004    0.0000 H   0  0  0  0  0  0  0  0  0  0  0  0
    3.3523   -4.1654    0.0000 H   0  0  0  0  0  0  0  0  0  0  0  0
  1  2  1  0  0  0  0
  1 40  1  0  0  0  0
  1 41  1  0  0  0  0
  1 42  1  0  0  0  0
  2 43  1  0  0  0  0
  2 44  1  0  0  0  0
  3  2  1  0  0  0  0
  3  4  1  6  0  0  0
  3  5  1  0  0  0  0
  3 12  1  0  0  0  0
  4 45  1  0  0  0  0
  5  6  1  0  0  0  0
  5 46  1  0  0  0  0
  5 47  1  0  0  0  0
  6  7  1  0  0  0  0
  6 48  1  0  0  0  0
  6 49  1  0  0  0  0
  7  8  2  0  0  0  0
  7 12  1  0  0  0  0
  8  9  1  0  0  0  0
  8 50  1  0  0  0  0
  9 10  2  0  0  0  0
  9 51  1  0  0  0  0
 10 11  1  0  0  0  0
 10 13  1  0  0  0  0
 11 12  2  0  0  0  0
 13 14  1  0  0  0  0
 13 39  1  0  0  0  0
 14 15  1  0  0  0  0
 14 18  1  0  0  0  0
 15 16  1  0  0  0  0
 15 52  1  0  0  0  0
 15 53  1  0  0  0  0
 16 17  2  0  0  0  0
 16 54  1  0  0  0  0
 17 55  1  0  0  0  0
 17 56  1  0  0  0  0
 18 19  2  0  0  0  0
 18 20  1  0  0  0  0
 20 21  2  0  0  0  0
 20 39  1  0  0  0  0
 21 22  1  0  0  0  0
 21 57  1  0  0  0  0
 22 23  2  0  0  0  0
 23 24  1  0  0  0  0
 23 38  1  0  0  0  0
 24 25  1  0  0  0  0
 24 58  1  0  0  0  0
 25 26  2  0  0  0  0
 25 30  1  0  0  0  0
 26 27  1  0  0  0  0
 26 59  1  0  0  0  0
 27 28  2  0  0  0  0
 27 60  1  0  0  0  0
 28 29  1  0  0  0  0
 28 31  1  0  0  0  0
 29 30  2  0  0  0  0
 29 61  1  0  0  0  0
 30 62  1  0  0  0  0
 31 32  1  0  0  0  0
 31 37  1  0  0  0  0
 32 33  1  0  0  0  0
 32 63  1  0  0  0  0
 32 64  1  0  0  0  0
 33 34  1  0  0  0  0
 33 65  1  0  0  0  0
 33 66  1  0  0  0  0
 34 35  1  0  0  0  0
 34 36  1  0  0  0  0
 35 67  1  0  0  0  0
 35 68  1  0  0  0  0
 35 69  1  0  0  0  0
 36 37  1  0  0  0  0
 36 70  1  0  0  0  0
 36 71  1  0  0  0  0
 37 72  1  0  0  0  0
 37 73  1  0  0  0  0
 38 39  2  0  0  0  0
M  END
>  <DRUGBANK_ID>
DB18028

>  <COMMON_NAME>
Azenosertib

>  <CAS_NUMBER>
2376146-48-2

>  <UNII>
9J13XU96Z1

>  <SYNONYMS>
3h-pyrazolo(3,4-d)pyrimidin-3-one, 1-((7r)-7-ethyl-6,7-dihydro-7-hydroxy-5h-cyclopenta(b)pyridin-2-yl)-1,2-dihydro-6-((4-(4-methyl-1-piperazinyl)phenyl)amino)-2-(2-propen-1-yl)-

$$$$
