
 OpenBabel10282417072D

 52 53  0  0  0  0  0  0  0  0999 V2000
   -5.0013    3.7125    0.0000 C   0  0  0  0  0  0  0  0  0  0  0  0
   -4.2868    3.3000    0.0000 C   0  0  0  0  0  0  0  0  0  0  0  0
   -4.6993    2.5855    0.0000 C   0  0  0  0  0  0  0  0  0  0  0  0
   -3.8743    4.0145    0.0000 C   0  0  0  0  0  0  0  0  0  0  0  0
   -3.5724    2.8875    0.0000 C   0  0  0  0  0  0  0  0  0  0  0  0
   -3.5724    2.0625    0.0000 O   0  0  0  0  0  0  0  0  0  0  0  0
   -2.8579    3.3000    0.0000 O   0  0  0  0  0  0  0  0  0  0  0  0
   -2.1434    2.8875    0.0000 C   0  0  0  0  0  0  0  0  0  0  0  0
   -1.4289    3.3000    0.0000 C   0  0  0  0  0  0  0  0  0  0  0  0
   -0.7145    2.8875    0.0000 C   0  0  0  0  0  0  0  0  0  0  0  0
   -0.7145    2.0625    0.0000 C   0  0  0  0  0  0  0  0  0  0  0  0
   -1.4289    1.6500    0.0000 C   0  0  0  0  0  0  0  0  0  0  0  0
   -2.1434    2.0625    0.0000 C   0  0  0  0  0  0  0  0  0  0  0  0
    0.0000    1.6500    0.0000 S   0  0  0  0  0  0  0  0  0  0  0  0
   -0.4125    0.9355    0.0000 O   0  0  0  0  0  0  0  0  0  0  0  0
    0.4125    2.3645    0.0000 O   0  0  0  0  0  0  0  0  0  0  0  0
    0.7145    1.2375    0.0000 N   0  0  0  0  0  0  0  0  0  0  0  0
    1.4289    1.6500    0.0000 C   0  0  0  0  0  0  0  0  0  0  0  0
    1.4289    2.4750    0.0000 C   0  0  0  0  0  0  0  0  0  0  0  0
    2.1434    2.8875    0.0000 C   0  0  0  0  0  0  0  0  0  0  0  0
    2.8579    2.4750    0.0000 C   0  0  0  0  0  0  0  0  0  0  0  0
    2.8579    1.6500    0.0000 C   0  0  0  0  0  0  0  0  0  0  0  0
    2.1434    1.2375    0.0000 C   0  0  0  0  0  0  0  0  0  0  0  0
    2.1434    0.4125    0.0000 C   0  0  0  0  0  0  0  0  0  0  0  0
    1.4289    0.0000    0.0000 O   0  0  0  0  0  0  0  0  0  0  0  0
    2.8579    0.0000    0.0000 N   0  0  0  0  0  0  0  0  0  0  0  0
    3.5724    0.4125    0.0000 C   0  0  0  0  0  0  0  0  0  0  0  0
    4.2868    0.0000    0.0000 C   0  0  0  0  0  0  0  0  0  0  0  0
    5.0013    0.4125    0.0000 O   0  0  0  0  0  0  0  0  0  0  0  0
    4.2868   -0.8250    0.0000 O   0  0  0  0  0  0  0  0  0  0  0  0
   -5.0013    4.7825    0.0000 H   0  0  0  0  0  0  0  0  0  0  0  0
   -5.9279    3.1775    0.0000 H   0  0  0  0  0  0  0  0  0  0  0  0
   -5.9280    4.2475    0.0000 H   0  0  0  0  0  0  0  0  0  0  0  0
   -5.7693    2.5855    0.0000 H   0  0  0  0  0  0  0  0  0  0  0  0
   -4.1643    1.6589    0.0000 H   0  0  0  0  0  0  0  0  0  0  0  0
   -5.2343    1.6588    0.0000 H   0  0  0  0  0  0  0  0  0  0  0  0
   -2.8043    4.0145    0.0000 H   0  0  0  0  0  0  0  0  0  0  0  0
   -4.4093    4.9411    0.0000 H   0  0  0  0  0  0  0  0  0  0  0  0
   -3.3393    4.9412    0.0000 H   0  0  0  0  0  0  0  0  0  0  0  0
   -1.4289    4.3320    0.0000 H   0  0  0  0  0  0  0  0  0  0  0  0
    0.1792    3.4035    0.0000 H   0  0  0  0  0  0  0  0  0  0  0  0
   -1.4289    0.6180    0.0000 H   0  0  0  0  0  0  0  0  0  0  0  0
   -3.0371    1.5465    0.0000 H   0  0  0  0  0  0  0  0  0  0  0  0
    0.7145    0.2530    0.0000 H   0  0  0  0  0  0  0  0  0  0  0  0
    0.5352    2.9910    0.0000 H   0  0  0  0  0  0  0  0  0  0  0  0
    2.1434    3.9195    0.0000 H   0  0  0  0  0  0  0  0  0  0  0  0
    3.7516    2.9910    0.0000 H   0  0  0  0  0  0  0  0  0  0  0  0
    3.7516    1.1340    0.0000 H   0  0  0  0  0  0  0  0  0  0  0  0
    2.8579   -0.9845    0.0000 H   0  0  0  0  0  0  0  0  0  0  0  0
    3.5724    1.4825    0.0000 H   0  0  0  0  0  0  0  0  0  0  0  0
    4.4991    0.9475    0.0000 H   0  0  0  0  0  0  0  0  0  0  0  0
    3.4753   -1.2935    0.0000 H   0  0  0  0  0  0  0  0  0  0  0  0
  1  2  1  0  0  0  0
  1 31  1  0  0  0  0
  1 32  1  0  0  0  0
  1 33  1  0  0  0  0
  2  3  1  0  0  0  0
  2  4  1  0  0  0  0
  2  5  1  0  0  0  0
  3 34  1  0  0  0  0
  3 35  1  0  0  0  0
  3 36  1  0  0  0  0
  4 37  1  0  0  0  0
  4 38  1  0  0  0  0
  4 39  1  0  0  0  0
  5  6  2  0  0  0  0
  5  7  1  0  0  0  0
  7  8  1  0  0  0  0
  8  9  2  0  0  0  0
  8 13  1  0  0  0  0
  9 10  1  0  0  0  0
  9 40  1  0  0  0  0
 10 11  2  0  0  0  0
 10 41  1  0  0  0  0
 11 12  1  0  0  0  0
 11 14  1  0  0  0  0
 12 13  2  0  0  0  0
 12 42  1  0  0  0  0
 13 43  1  0  0  0  0
 14 15  2  0  0  0  0
 14 16  2  0  0  0  0
 14 17  1  0  0  0  0
 17 18  1  0  0  0  0
 17 44  1  0  0  0  0
 18 19  2  0  0  0  0
 18 23  1  0  0  0  0
 19 20  1  0  0  0  0
 19 45  1  0  0  0  0
 20 21  2  0  0  0  0
 20 46  1  0  0  0  0
 21 22  1  0  0  0  0
 21 47  1  0  0  0  0
 22 23  2  0  0  0  0
 22 48  1  0  0  0  0
 23 24  1  0  0  0  0
 24 25  2  0  0  0  0
 24 26  1  0  0  0  0
 26 27  1  0  0  0  0
 26 49  1  0  0  0  0
 27 28  1  0  0  0  0
 27 50  1  0  0  0  0
 27 51  1  0  0  0  0
 28 29  2  0  0  0  0
 28 30  1  0  0  0  0
 30 52  1  0  0  0  0
M  END
>  <DRUGBANK_ID>
DB12863

>  <COMMON_NAME>
Sivelestat

>  <CAS_NUMBER>
127373-66-4

>  <UNII>
DWI62G0P59

>  <SYNONYMS>
Sivelestat

$$$$
