5CN
 OpenBabel10282417072D

 46 48  0  0  0  0  0  0  0  0999 V2000
   -1.3570    2.7646    0.0000 C   0  0  0  0  0  0  0  0  0  0  0  0
   -1.3570    3.5896    0.0000 C   0  0  0  0  0  0  0  0  0  0  0  0
   -0.6426    4.0021    0.0000 C   0  0  0  0  0  0  0  0  0  0  0  0
   -2.7860    1.1146    0.0000 C   0  0  0  0  0  0  0  0  0  0  0  0
   -2.0715    1.5271    0.0000 C   0  0  0  0  0  0  0  0  0  0  0  0
   -2.7860    2.7646    0.0000 C   0  0  0  0  0  0  0  0  0  0  0  0
   -3.5005    2.3521    0.0000 C   0  0  0  0  0  0  0  0  0  0  0  0
   -3.5005    1.5271    0.0000 C   0  0  0  0  0  0  0  0  0  0  0  0
   -4.2149    1.1146    0.0000 C   0  0  0  0  0  0  0  0  0  0  0  0
    0.7864    4.0021    0.0000 C   0  0  0  0  0  0  0  0  0  0  0  0
    0.0719    1.1146    0.0000 C   0  0  0  0  0  0  0  0  0  0  0  0
    0.0719    0.2896    0.0000 C   0  0  0  0  0  0  0  0  0  0  0  0
   -0.5955   -0.1954    0.0000 C   0  0  0  0  0  0  0  0  0  0  0  0
    0.9693   -1.6474    0.0000 C   0  0  0  0  0  0  0  0  0  0  0  0
    0.0719    3.5896    0.0000 C   0  0  0  0  0  0  0  0  0  0  0  0
    0.0719    2.7646    0.0000 C   0  0  0  0  0  0  0  0  0  0  0  0
   -0.6426    2.3521    0.0000 C   0  0  0  0  0  0  0  0  0  0  0  0
   -2.0715    2.3521    0.0000 N   0  0  0  0  0  0  0  0  0  0  0  0
    1.5008    3.5896    0.0000 O   0  0  0  0  0  0  0  0  0  0  0  0
   -0.6426    1.5271    0.0000 N   0  0  0  0  0  0  0  0  0  0  0  0
    0.7864    1.5271    0.0000 O   0  0  0  0  0  0  0  0  0  0  0  0
   -0.3406   -0.9800    0.0000 C   0  0  0  0  0  0  0  0  0  0  0  0
    0.4844   -0.9800    0.0000 C   0  0  0  0  0  0  0  0  0  0  0  0
    0.7393   -0.1954    0.0000 O   0  0  0  0  0  0  0  0  0  0  0  0
    1.4542   -2.3149    0.0000 N   0  0  0  0  0  0  0  0  0  0  0  0
   -2.2507    4.1056    0.0000 H   0  0  0  0  0  0  0  0  0  0  0  0
   -0.6426    5.0341    0.0000 H   0  0  0  0  0  0  0  0  0  0  0  0
   -2.7860    0.0446    0.0000 H   0  0  0  0  0  0  0  0  0  0  0  0
   -1.8594    0.5796    0.0000 H   0  0  0  0  0  0  0  0  0  0  0  0
   -1.1449    0.9921    0.0000 H   0  0  0  0  0  0  0  0  0  0  0  0
   -1.1449    2.0621    0.0000 H   0  0  0  0  0  0  0  0  0  0  0  0
   -2.7860    3.8346    0.0000 H   0  0  0  0  0  0  0  0  0  0  0  0
   -1.8594    3.2996    0.0000 H   0  0  0  0  0  0  0  0  0  0  0  0
   -4.4271    2.8871    0.0000 H   0  0  0  0  0  0  0  0  0  0  0  0
   -4.4271    1.8171    0.0000 H   0  0  0  0  0  0  0  0  0  0  0  0
   -4.4272    2.0621    0.0000 H   0  0  0  0  0  0  0  0  0  0  0  0
   -5.1416    1.6496    0.0000 H   0  0  0  0  0  0  0  0  0  0  0  0
   -4.2149    0.0446    0.0000 H   0  0  0  0  0  0  0  0  0  0  0  0
   -5.1415    0.5796    0.0000 H   0  0  0  0  0  0  0  0  0  0  0  0
    0.7864    5.0721    0.0000 H   0  0  0  0  0  0  0  0  0  0  0  0
    1.7131    4.5371    0.0000 H   0  0  0  0  0  0  0  0  0  0  0  0
   -1.5770    0.1235    0.0000 H   0  0  0  0  0  0  0  0  0  0  0  0
    0.9656    2.2486    0.0000 H   0  0  0  0  0  0  0  0  0  0  0  0
    1.5008    2.6196    0.0000 H   0  0  0  0  0  0  0  0  0  0  0  0
   -1.4952    1.0348    0.0000 H   0  0  0  0  0  0  0  0  0  0  0  0
   -0.9472   -1.8149    0.0000 H   0  0  0  0  0  0  0  0  0  0  0  0
  1 18  1  0  0  0  0
  1  2  2  0  0  0  0
  1 17  1  0  0  0  0
  2  3  1  0  0  0  0
  2 26  1  0  0  0  0
  3 15  2  0  0  0  0
  3 27  1  0  0  0  0
  4  8  1  0  0  0  0
  4  5  1  0  0  0  0
  4 28  1  0  0  0  0
  4 29  1  0  0  0  0
  5 18  1  0  0  0  0
  5 30  1  0  0  0  0
  5 31  1  0  0  0  0
  6  7  1  0  0  0  0
  6 18  1  0  0  0  0
  6 32  1  0  0  0  0
  6 33  1  0  0  0  0
  7  8  1  0  0  0  0
  7 34  1  0  0  0  0
  7 35  1  0  0  0  0
  8  9  1  0  0  0  0
  8 36  1  0  0  0  0
  9 37  1  0  0  0  0
  9 38  1  0  0  0  0
  9 39  1  0  0  0  0
 10 15  1  0  0  0  0
 10 19  1  0  0  0  0
 10 40  1  0  0  0  0
 10 41  1  0  0  0  0
 11 12  1  0  0  0  0
 11 20  1  0  0  0  0
 11 21  2  0  0  0  0
 12 24  1  0  0  0  0
 12 13  2  0  0  0  0
 13 22  1  0  0  0  0
 13 42  1  0  0  0  0
 14 25  3  0  0  0  0
 14 23  1  0  0  0  0
 15 16  1  0  0  0  0
 16 17  2  0  0  0  0
 16 43  1  0  0  0  0
 17 20  1  0  0  0  0
 19 44  1  0  0  0  0
 20 45  1  0  0  0  0
 22 23  2  0  0  0  0
 22 46  1  0  0  0  0
 23 24  1  0  0  0  0
M  END
>  <DRUGBANK_ID>
DB07167

>  <COMMON_NAME>
5-CYANO-FURAN-2-CARBOXYLIC ACID [5-HYDROXYMETHYL-2-(4-METHYL-PIPERIDIN-1-YL)-PHENYL]-AMIDE

$$$$
