GPI
 OpenBabel10282417072D

 54 55  0  0  0  0  0  0  0  0999 V2000
   -0.3541    0.2193    0.0000 C   0  0  1  0  0  0  0  0  0  0  0  0
   -1.1077   -0.1163    0.0000 N   0  0  0  0  0  0  0  0  0  0  0  0
   -1.6598    0.4968    0.0000 C   0  0  0  0  0  0  0  0  0  0  0  0
   -0.4403    1.0398    0.0000 C   0  0  0  0  0  0  0  0  0  0  0  0
   -1.2473    1.2113    0.0000 C   0  0  0  0  0  0  0  0  0  0  0  0
    0.3604   -0.1932    0.0000 C   0  0  0  0  0  0  0  0  0  0  0  0
    0.3604   -1.0182    0.0000 O   0  0  0  0  0  0  0  0  0  0  0  0
    1.0749    0.2193    0.0000 O   0  0  0  0  0  0  0  0  0  0  0  0
    1.7893   -0.1932    0.0000 C   0  0  0  0  0  0  0  0  0  0  0  0
    2.5038    0.2193    0.0000 C   0  0  0  0  0  0  0  0  0  0  0  0
    3.2183   -0.1932    0.0000 C   0  0  0  0  0  0  0  0  0  0  0  0
    4.6472    1.4568    0.0000 N   0  0  0  0  0  0  0  0  0  0  0  0
    5.3617    1.0443    0.0000 C   0  0  0  0  0  0  0  0  0  0  0  0
    5.3617    0.2193    0.0000 C   0  0  0  0  0  0  0  0  0  0  0  0
    4.6472   -0.1932    0.0000 C   0  0  0  0  0  0  0  0  0  0  0  0
    3.9328    0.2193    0.0000 C   0  0  0  0  0  0  0  0  0  0  0  0
    3.9328    1.0443    0.0000 C   0  0  0  0  0  0  0  0  0  0  0  0
   -1.2793   -0.9233    0.0000 C   0  0  0  0  0  0  0  0  0  0  0  0
   -0.6662   -1.4753    0.0000 O   0  0  0  0  0  0  0  0  0  0  0  0
   -2.0639   -1.1782    0.0000 C   0  0  0  0  0  0  0  0  0  0  0  0
   -2.2354   -1.9852    0.0000 O   0  0  0  0  0  0  0  0  0  0  0  0
   -2.6770   -0.6262    0.0000 C   0  0  0  0  0  0  0  0  0  0  0  0
   -2.1250   -0.0131    0.0000 C   0  0  0  0  0  0  0  0  0  0  0  0
   -3.2290   -1.2393    0.0000 C   0  0  0  0  0  0  0  0  0  0  0  0
   -3.2901   -0.0741    0.0000 C   0  0  0  0  0  0  0  0  0  0  0  0
   -4.0747   -0.3291    0.0000 C   0  0  0  0  0  0  0  0  0  0  0  0
   -0.3846   -0.3639    0.0000 H   0  0  0  0  0  0  0  0  0  0  0  0
   -2.7239    0.3849    0.0000 H   0  0  0  0  0  0  0  0  0  0  0  0
   -2.2426    1.3942    0.0000 H   0  0  0  0  0  0  0  0  0  0  0  0
    0.3549    1.7558    0.0000 H   0  0  0  0  0  0  0  0  0  0  0  0
   -0.7173    2.0733    0.0000 H   0  0  0  0  0  0  0  0  0  0  0  0
   -1.6825    2.1888    0.0000 H   0  0  0  0  0  0  0  0  0  0  0  0
   -0.5740    2.0429    0.0000 H   0  0  0  0  0  0  0  0  0  0  0  0
    1.7893   -1.2632    0.0000 H   0  0  0  0  0  0  0  0  0  0  0  0
    2.7159   -0.7282    0.0000 H   0  0  0  0  0  0  0  0  0  0  0  0
    2.5038    1.2893    0.0000 H   0  0  0  0  0  0  0  0  0  0  0  0
    3.4304    0.7543    0.0000 H   0  0  0  0  0  0  0  0  0  0  0  0
    3.2183   -1.2632    0.0000 H   0  0  0  0  0  0  0  0  0  0  0  0
    4.1449   -0.7282    0.0000 H   0  0  0  0  0  0  0  0  0  0  0  0
    6.2554    1.5603    0.0000 H   0  0  0  0  0  0  0  0  0  0  0  0
    6.2554   -0.2967    0.0000 H   0  0  0  0  0  0  0  0  0  0  0  0
    4.6472   -1.2252    0.0000 H   0  0  0  0  0  0  0  0  0  0  0  0
    3.0391    1.5603    0.0000 H   0  0  0  0  0  0  0  0  0  0  0  0
   -1.0784   -0.2355    0.0000 H   0  0  0  0  0  0  0  0  0  0  0  0
   -2.4557    1.0045    0.0000 H   0  0  0  0  0  0  0  0  0  0  0  0
   -1.4091    0.7821    0.0000 H   0  0  0  0  0  0  0  0  0  0  0  0
   -4.2756   -1.0169    0.0000 H   0  0  0  0  0  0  0  0  0  0  0  0
   -2.8983   -2.2569    0.0000 H   0  0  0  0  0  0  0  0  0  0  0  0
   -3.9449   -2.0345    0.0000 H   0  0  0  0  0  0  0  0  0  0  0  0
   -3.0676    0.9725    0.0000 H   0  0  0  0  0  0  0  0  0  0  0  0
   -4.0853    0.6418    0.0000 H   0  0  0  0  0  0  0  0  0  0  0  0
   -4.8699    0.3868    0.0000 H   0  0  0  0  0  0  0  0  0  0  0  0
   -4.2971   -1.3757    0.0000 H   0  0  0  0  0  0  0  0  0  0  0  0
   -5.0923   -0.6598    0.0000 H   0  0  0  0  0  0  0  0  0  0  0  0
  1  2  1  0  0  0  0
  1  4  1  0  0  0  0
  1  6  1  0  0  0  0
  1 27  1  6  0  0  0
  2  3  1  0  0  0  0
  2 18  1  0  0  0  0
  3  5  1  0  0  0  0
  3 28  1  0  0  0  0
  3 29  1  0  0  0  0
  4  5  1  0  0  0  0
  4 30  1  0  0  0  0
  4 31  1  0  0  0  0
  5 32  1  0  0  0  0
  5 33  1  0  0  0  0
  6  7  2  0  0  0  0
  6  8  1  0  0  0  0
  8  9  1  0  0  0  0
  9 10  1  0  0  0  0
  9 34  1  0  0  0  0
  9 35  1  0  0  0  0
 10 11  1  0  0  0  0
 10 36  1  0  0  0  0
 10 37  1  0  0  0  0
 11 16  1  0  0  0  0
 11 38  1  0  0  0  0
 11 39  1  0  0  0  0
 12 13  2  0  0  0  0
 12 17  1  0  0  0  0
 13 14  1  0  0  0  0
 13 40  1  0  0  0  0
 14 15  2  0  0  0  0
 14 41  1  0  0  0  0
 15 16  1  0  0  0  0
 15 42  1  0  0  0  0
 16 17  2  0  0  0  0
 17 43  1  0  0  0  0
 18 19  2  0  0  0  0
 18 20  1  0  0  0  0
 20 21  2  0  0  0  0
 20 22  1  0  0  0  0
 22 23  1  0  0  0  0
 22 24  1  0  0  0  0
 22 25  1  0  0  0  0
 23 44  1  0  0  0  0
 23 45  1  0  0  0  0
 23 46  1  0  0  0  0
 24 47  1  0  0  0  0
 24 48  1  0  0  0  0
 24 49  1  0  0  0  0
 25 26  1  0  0  0  0
 25 50  1  0  0  0  0
 25 51  1  0  0  0  0
 26 52  1  0  0  0  0
 26 53  1  0  0  0  0
 26 54  1  0  0  0  0
M  END
>  <DRUGBANK_ID>
DB01951

>  <SECONDARY_ACCESSION_NUMBERS>
EXPT01638

>  <COMMON_NAME>
Gpi-1046

$$$$
