
 OpenBabel10282417072D

 44 46  0  0  0  0  0  0  0  0999 V2000
   -3.5045    1.7625    0.0000 C   0  0  0  0  0  0  0  0  0  0  0  0
   -4.2189    1.3500    0.0000 C   0  0  0  0  0  0  0  0  0  0  0  0
   -4.2189    0.5249    0.0000 C   0  0  0  0  0  0  0  0  0  0  0  0
   -3.5045    0.1124    0.0000 C   0  0  0  0  0  0  0  0  0  0  0  0
   -2.7900    0.5249    0.0000 C   0  0  0  0  0  0  0  0  0  0  0  0
   -2.7900    1.3500    0.0000 C   0  0  0  0  0  0  0  0  0  0  0  0
   -2.0754    0.1124    0.0000 C   0  0  0  0  0  0  0  0  0  0  0  0
   -1.3610    0.5250    0.0000 N   0  0  0  0  0  0  0  0  0  0  0  0
   -1.3609    1.3500    0.0000 N   0  0  0  0  0  0  0  0  0  0  0  0
   -2.0755    1.7625    0.0000 C   0  0  0  0  0  0  0  0  0  0  0  0
   -0.6465    0.1125    0.0000 C   0  0  0  0  0  0  0  0  0  0  0  0
    0.0678    0.5250    0.0000 C   0  0  0  0  0  0  0  0  0  0  0  0
    0.7823    0.1125    0.0000 N   0  0  0  0  0  0  0  0  0  0  0  0
    1.4968    0.5250    0.0000 C   0  0  0  0  0  0  0  0  0  0  0  0
    0.7823   -0.7124    0.0000 C   0  0  0  0  0  0  0  0  0  0  0  0
   -2.0753   -0.7125    0.0000 O   0  0  0  0  0  0  0  0  0  0  0  0
   -2.0755    2.5875    0.0000 C   0  0  0  0  0  0  0  0  0  0  0  0
   -1.3610    3.0000    0.0000 C   0  0  0  0  0  0  0  0  0  0  0  0
   -0.6466    2.5875    0.0000 C   0  0  0  0  0  0  0  0  0  0  0  0
    0.0679    3.0001    0.0000 C   0  0  0  0  0  0  0  0  0  0  0  0
    0.0679    3.8250    0.0000 C   0  0  0  0  0  0  0  0  0  0  0  0
   -0.6464    4.2376    0.0000 C   0  0  0  0  0  0  0  0  0  0  0  0
   -1.3610    3.8250    0.0000 C   0  0  0  0  0  0  0  0  0  0  0  0
   -3.5045    2.7945    0.0000 H   0  0  0  0  0  0  0  0  0  0  0  0
   -5.1126    1.8660    0.0000 H   0  0  0  0  0  0  0  0  0  0  0  0
   -5.1126    0.0089    0.0000 H   0  0  0  0  0  0  0  0  0  0  0  0
   -3.5045   -0.9196    0.0000 H   0  0  0  0  0  0  0  0  0  0  0  0
   -0.6464   -0.9575    0.0000 H   0  0  0  0  0  0  0  0  0  0  0  0
    0.2802   -0.4224    0.0000 H   0  0  0  0  0  0  0  0  0  0  0  0
    0.0677    1.5950    0.0000 H   0  0  0  0  0  0  0  0  0  0  0  0
    0.9944    1.0600    0.0000 H   0  0  0  0  0  0  0  0  0  0  0  0
    2.4234   -0.0100    0.0000 H   0  0  0  0  0  0  0  0  0  0  0  0
    1.4968    1.5950    0.0000 H   0  0  0  0  0  0  0  0  0  0  0  0
    2.4235    1.0600    0.0000 H   0  0  0  0  0  0  0  0  0  0  0  0
   -0.1443   -1.2474    0.0000 H   0  0  0  0  0  0  0  0  0  0  0  0
    1.7089   -1.2474    0.0000 H   0  0  0  0  0  0  0  0  0  0  0  0
    0.7823   -1.7824    0.0000 H   0  0  0  0  0  0  0  0  0  0  0  0
   -3.0021    3.1225    0.0000 H   0  0  0  0  0  0  0  0  0  0  0  0
   -2.0755    3.6575    0.0000 H   0  0  0  0  0  0  0  0  0  0  0  0
   -0.6466    1.5555    0.0000 H   0  0  0  0  0  0  0  0  0  0  0  0
    0.9617    2.4841    0.0000 H   0  0  0  0  0  0  0  0  0  0  0  0
    0.9617    4.3409    0.0000 H   0  0  0  0  0  0  0  0  0  0  0  0
   -0.6463    5.2696    0.0000 H   0  0  0  0  0  0  0  0  0  0  0  0
   -2.2547    4.3410    0.0000 H   0  0  0  0  0  0  0  0  0  0  0  0
  1  2  2  0  0  0  0
  1 24  1  0  0  0  0
  2  3  1  0  0  0  0
  2 25  1  0  0  0  0
  3  4  2  0  0  0  0
  3 26  1  0  0  0  0
  4  5  1  0  0  0  0
  4 27  1  0  0  0  0
  5  6  2  0  0  0  0
  5  7  1  0  0  0  0
  6  1  1  0  0  0  0
  6 10  1  0  0  0  0
  7  8  1  0  0  0  0
  7 16  2  0  0  0  0
  8  9  1  0  0  0  0
  8 11  1  0  0  0  0
  9 10  2  0  0  0  0
 10 17  1  0  0  0  0
 11 12  1  0  0  0  0
 11 28  1  0  0  0  0
 11 29  1  0  0  0  0
 12 13  1  0  0  0  0
 12 30  1  0  0  0  0
 12 31  1  0  0  0  0
 13 14  1  0  0  0  0
 13 15  1  0  0  0  0
 14 32  1  0  0  0  0
 14 33  1  0  0  0  0
 14 34  1  0  0  0  0
 15 35  1  0  0  0  0
 15 36  1  0  0  0  0
 15 37  1  0  0  0  0
 17 18  1  0  0  0  0
 17 38  1  0  0  0  0
 17 39  1  0  0  0  0
 18 19  2  0  0  0  0
 19 20  1  0  0  0  0
 19 40  1  0  0  0  0
 20 21  2  0  0  0  0
 20 41  1  0  0  0  0
 21 22  1  0  0  0  0
 21 42  1  0  0  0  0
 22 23  2  0  0  0  0
 22 43  1  0  0  0  0
 23 18  1  0  0  0  0
 23 44  1  0  0  0  0
M  END
>  <DRUGBANK_ID>
DB13349

>  <COMMON_NAME>
Talastine

>  <CAS_NUMBER>
16188-61-7

>  <UNII>
49AB2PA48B

>  <SYNONYMS>
Talastine

$$$$
