CKE
 OpenBabel10282417072D

 65 69  0  0  0  0  0  0  0  0999 V2000
    0.7290   -0.4671    0.0000 C   0  0  0  0  0  0  0  0  0  0  0  0
   -0.0960   -0.4671    0.0000 C   0  0  0  0  0  0  0  0  0  0  0  0
   -0.5085    0.2474    0.0000 C   0  0  0  0  0  0  0  0  0  0  0  0
   -0.0960    0.9619    0.0000 C   0  0  0  0  0  0  0  0  0  0  0  0
   -0.5085    1.6764    0.0000 C   0  0  0  0  0  0  0  0  0  0  0  0
   -1.3335    1.6764    0.0000 C   0  0  0  0  0  0  0  0  0  0  0  0
   -1.3335    3.1053    0.0000 C   0  0  0  0  0  0  0  0  0  0  0  0
   -1.7460    3.8198    0.0000 C   0  0  0  0  0  0  0  0  0  0  0  0
   -2.5710    2.3908    0.0000 C   0  0  0  0  0  0  0  0  0  0  0  0
    1.5110   -2.5322    0.0000 C   0  0  0  0  0  0  0  0  0  0  0  0
    0.4491   -3.4884    0.0000 C   0  0  0  0  0  0  0  0  0  0  0  0
   -2.9835    4.5342    0.0000 C   0  0  0  0  0  0  0  0  0  0  0  0
    3.4275   -0.0546    0.0000 N   0  0  0  0  0  0  0  0  0  0  0  0
    2.7130    0.3579    0.0000 C   0  0  0  0  0  0  0  0  0  0  0  0
    1.9985   -0.0546    0.0000 C   0  0  0  0  0  0  0  0  0  0  0  0
    1.9985   -0.8796    0.0000 C   0  0  0  0  0  0  0  0  0  0  0  0
    2.7130   -1.2921    0.0000 N   0  0  0  0  0  0  0  0  0  0  0  0
    3.4275   -0.8796    0.0000 C   0  0  0  0  0  0  0  0  0  0  0  0
    1.2139    0.2004    0.0000 C   0  0  0  0  0  0  0  0  0  0  0  0
    1.2139   -1.1345    0.0000 N   0  0  0  0  0  0  0  0  0  0  0  0
    4.8564   -0.8796    0.0000 N   0  0  0  0  0  0  0  0  0  0  0  0
   -1.7460    0.9619    0.0000 C   0  0  0  0  0  0  0  0  0  0  0  0
   -1.3335    0.2474    0.0000 C   0  0  0  0  0  0  0  0  0  0  0  0
   -1.7460    2.3908    0.0000 N   0  0  0  0  0  0  0  0  0  0  0  0
   -2.5710    3.8198    0.0000 N   0  0  0  0  0  0  0  0  0  0  0  0
   -2.9835    3.1053    0.0000 C   0  0  0  0  0  0  0  0  0  0  0  0
    0.9590   -1.9191    0.0000 C   0  0  0  0  0  0  0  0  0  0  0  0
    0.1520   -2.0906    0.0000 C   0  0  0  0  0  0  0  0  0  0  0  0
   -0.1030   -2.8753    0.0000 C   0  0  0  0  0  0  0  0  0  0  0  0
    1.2561   -3.3168    0.0000 C   0  0  0  0  0  0  0  0  0  0  0  0
    4.1419   -1.2921    0.0000 C   0  0  0  0  0  0  0  0  0  0  0  0
   -0.6310   -1.3937    0.0000 H   0  0  0  0  0  0  0  0  0  0  0  0
    0.4390   -1.3937    0.0000 H   0  0  0  0  0  0  0  0  0  0  0  0
    0.9360    0.9619    0.0000 H   0  0  0  0  0  0  0  0  0  0  0  0
    0.0075    2.5701    0.0000 H   0  0  0  0  0  0  0  0  0  0  0  0
   -0.2635    3.1053    0.0000 H   0  0  0  0  0  0  0  0  0  0  0  0
   -0.7985    2.1787    0.0000 H   0  0  0  0  0  0  0  0  0  0  0  0
   -1.2110    4.7464    0.0000 H   0  0  0  0  0  0  0  0  0  0  0  0
   -2.2810    4.7464    0.0000 H   0  0  0  0  0  0  0  0  0  0  0  0
   -3.1060    1.4642    0.0000 H   0  0  0  0  0  0  0  0  0  0  0  0
   -3.6410    2.3908    0.0000 H   0  0  0  0  0  0  0  0  0  0  0  0
    2.5576   -2.3097    0.0000 H   0  0  0  0  0  0  0  0  0  0  0  0
    2.2270   -3.3274    0.0000 H   0  0  0  0  0  0  0  0  0  0  0  0
    0.1185   -4.5061    0.0000 H   0  0  0  0  0  0  0  0  0  0  0  0
   -0.5975   -3.7109    0.0000 H   0  0  0  0  0  0  0  0  0  0  0  0
   -2.4485    5.4609    0.0000 H   0  0  0  0  0  0  0  0  0  0  0  0
   -4.0535    4.5342    0.0000 H   0  0  0  0  0  0  0  0  0  0  0  0
   -3.5185    5.4608    0.0000 H   0  0  0  0  0  0  0  0  0  0  0  0
    2.7130    1.3899    0.0000 H   0  0  0  0  0  0  0  0  0  0  0  0
    0.8950    1.1819    0.0000 H   0  0  0  0  0  0  0  0  0  0  0  0
    5.7397   -1.3896    0.0000 H   0  0  0  0  0  0  0  0  0  0  0  0
    4.8564    0.1404    0.0000 H   0  0  0  0  0  0  0  0  0  0  0  0
   -2.7780    0.9619    0.0000 H   0  0  0  0  0  0  0  0  0  0  0  0
   -1.8495   -0.6463    0.0000 H   0  0  0  0  0  0  0  0  0  0  0  0
   -4.0535    3.1053    0.0000 H   0  0  0  0  0  0  0  0  0  0  0  0
   -3.5185    4.0319    0.0000 H   0  0  0  0  0  0  0  0  0  0  0  0
    0.2430   -1.1239    0.0000 H   0  0  0  0  0  0  0  0  0  0  0  0
   -0.5639   -1.2954    0.0000 H   0  0  0  0  0  0  0  0  0  0  0  0
   -0.8946   -2.3130    0.0000 H   0  0  0  0  0  0  0  0  0  0  0  0
   -1.1496   -3.0978    0.0000 H   0  0  0  0  0  0  0  0  0  0  0  0
   -0.8190   -2.0801    0.0000 H   0  0  0  0  0  0  0  0  0  0  0  0
    1.9721   -4.1119    0.0000 H   0  0  0  0  0  0  0  0  0  0  0  0
    2.3027   -3.0943    0.0000 H   0  0  0  0  0  0  0  0  0  0  0  0
    4.1419   -2.3621    0.0000 H   0  0  0  0  0  0  0  0  0  0  0  0
    5.0685   -1.8271    0.0000 H   0  0  0  0  0  0  0  0  0  0  0  0
  1 19  2  0  0  0  0
  2  3  1  0  0  0  0
  2  1  1  0  0  0  0
  2 32  1  0  0  0  0
  2 33  1  0  0  0  0
  3 23  2  0  0  0  0
  4  5  2  0  0  0  0
  4  3  1  0  0  0  0
  4 34  1  0  0  0  0
  5  6  1  0  0  0  0
  5 35  1  0  0  0  0
  6 24  1  0  0  0  0
  6 22  2  0  0  0  0
  7 36  1  0  0  0  0
  7 37  1  0  0  0  0
  8  7  1  0  0  0  0
  8 38  1  0  0  0  0
  8 39  1  0  0  0  0
  9 24  1  0  0  0  0
  9 40  1  0  0  0  0
  9 41  1  0  0  0  0
 10 42  1  0  0  0  0
 10 43  1  0  0  0  0
 11 30  1  0  0  0  0
 11 44  1  0  0  0  0
 11 45  1  0  0  0  0
 12 25  1  0  0  0  0
 12 46  1  0  0  0  0
 12 47  1  0  0  0  0
 12 48  1  0  0  0  0
 14 13  1  0  0  0  0
 14 49  1  0  0  0  0
 15 14  2  0  0  0  0
 16 17  2  0  0  0  0
 16 15  1  0  0  0  0
 17 18  1  0  0  0  0
 18 31  1  0  0  0  0
 18 13  2  0  0  0  0
 19 15  1  0  0  0  0
 19 50  1  0  0  0  0
 20  1  1  0  0  0  0
 20 16  1  0  0  0  0
 21 51  1  0  0  0  0
 21 52  1  0  0  0  0
 22 53  1  0  0  0  0
 23 22  1  0  0  0  0
 23 54  1  0  0  0  0
 24  7  1  0  0  0  0
 25  8  1  0  0  0  0
 26  9  1  0  0  0  0
 26 25  1  0  0  0  0
 26 55  1  0  0  0  0
 26 56  1  0  0  0  0
 27 10  1  0  0  0  0
 27 20  1  0  0  0  0
 27 57  1  0  0  0  0
 28 27  1  0  0  0  0
 28 58  1  0  0  0  0
 28 59  1  0  0  0  0
 29 11  1  0  0  0  0
 29 28  1  0  0  0  0
 29 60  1  0  0  0  0
 29 61  1  0  0  0  0
 30 10  1  0  0  0  0
 30 62  1  0  0  0  0
 30 63  1  0  0  0  0
 31 21  1  0  0  0  0
 31 64  1  0  0  0  0
 31 65  1  0  0  0  0
M  END
>  <DRUGBANK_ID>
DB07563

>  <COMMON_NAME>
1-{7-cyclohexyl-6-[4-(4-methylpiperazin-1-yl)benzyl]-7H-pyrrolo[2,3-d]pyrimidin-2-yl}methanamine

$$$$
