
 OpenBabel10282417072D

 51 55  0  0  1  0  0  0  0  0999 V2000
   -1.2654    5.4918    0.0000 N   0  0  0  0  0  0  0  0  0  0  0  0
   -1.2654    4.6668    0.0000 C   0  0  0  0  0  0  0  0  0  0  0  0
   -0.5510    4.2543    0.0000 N   0  0  0  0  0  0  0  0  0  0  0  0
   -0.5510    3.4293    0.0000 C   0  0  0  0  0  0  0  0  0  0  0  0
   -1.2654    3.0168    0.0000 C   0  0  0  0  0  0  0  0  0  0  0  0
   -1.9799    3.4293    0.0000 C   0  0  0  0  0  0  0  0  0  0  0  0
   -1.9799    4.2543    0.0000 C   0  0  0  0  0  0  0  0  0  0  0  0
   -2.6944    4.6668    0.0000 O   0  0  0  0  0  0  0  0  0  0  0  0
   -2.6944    5.4918    0.0000 C   0  0  0  0  0  0  0  0  0  0  0  0
   -3.4088    5.9043    0.0000 F   0  0  0  0  0  0  0  0  0  0  0  0
   -1.9799    5.9043    0.0000 F   0  0  0  0  0  0  0  0  0  0  0  0
   -1.2654    2.1918    0.0000 C   0  0  0  0  0  0  0  0  0  0  0  0
   -0.5510    1.7793    0.0000 C   0  0  0  0  0  0  0  0  0  0  0  0
   -0.5510    0.9543    0.0000 C   0  0  0  0  0  0  0  0  0  0  0  0
   -1.2654    0.5418    0.0000 N   0  0  0  0  0  0  0  0  0  0  0  0
   -1.9799    0.9543    0.0000 C   0  0  0  0  0  0  0  0  0  0  0  0
   -1.9799    1.7793    0.0000 N   0  0  0  0  0  0  0  0  0  0  0  0
   -2.6944    0.5418    0.0000 N   0  0  0  0  0  0  0  0  0  0  0  0
   -2.7806   -0.2787    0.0000 C   0  0  0  0  0  0  0  0  0  0  0  0
   -3.5876   -0.4502    0.0000 C   0  0  0  0  0  0  0  0  0  0  0  0
   -4.0001    0.2642    0.0000 C   0  0  0  0  0  0  0  0  0  0  0  0
   -4.6675   -0.2207    0.0000 F   0  0  0  0  0  0  0  0  0  0  0  0
   -4.5521    0.8773    0.0000 F   0  0  0  0  0  0  0  0  0  0  0  0
   -3.4480    0.8773    0.0000 C   0  0  0  0  0  0  0  0  0  0  0  0
    0.1635    0.5418    0.0000 N   0  0  0  0  0  0  0  0  0  0  0  0
    0.1635   -0.2832    0.0000 C   0  0  0  0  0  0  0  0  0  0  0  0
    0.8780   -0.6957    0.0000 C   0  0  2  0  0  0  0  0  0  0  0  0
    0.6717    0.1293    0.0000 C   0  0  0  0  0  0  0  0  0  0  0  0
    0.8780    0.9543    0.0000 C   0  0  1  0  0  0  0  0  0  0  0  0
    1.5925    0.5418    0.0000 C   0  0  0  0  0  0  0  0  0  0  0  0
    1.5925   -0.2832    0.0000 O   0  0  0  0  0  0  0  0  0  0  0  0
   -0.4128    5.9840    0.0000 H   0  0  0  0  0  0  0  0  0  0  0  0
   -2.1180    5.9840    0.0000 H   0  0  0  0  0  0  0  0  0  0  0  0
    0.3427    2.9133    0.0000 H   0  0  0  0  0  0  0  0  0  0  0  0
   -2.8736    2.9133    0.0000 H   0  0  0  0  0  0  0  0  0  0  0  0
   -2.6944    6.5618    0.0000 H   0  0  0  0  0  0  0  0  0  0  0  0
    0.3427    2.2953    0.0000 H   0  0  0  0  0  0  0  0  0  0  0  0
   -1.9854   -0.9947    0.0000 H   0  0  0  0  0  0  0  0  0  0  0  0
   -3.0576   -1.3122    0.0000 H   0  0  0  0  0  0  0  0  0  0  0  0
   -4.0228   -1.4277    0.0000 H   0  0  0  0  0  0  0  0  0  0  0  0
   -4.6561   -0.5062    0.0000 H   0  0  0  0  0  0  0  0  0  0  0  0
   -3.6705    1.9239    0.0000 H   0  0  0  0  0  0  0  0  0  0  0  0
   -2.6165    1.5507    0.0000 H   0  0  0  0  0  0  0  0  0  0  0  0
   -0.7631   -0.8182    0.0000 H   0  0  0  0  0  0  0  0  0  0  0  0
    0.1635   -1.3532    0.0000 H   0  0  0  0  0  0  0  0  0  0  0  0
    0.2338    0.1586    0.0000 H   0  0  0  0  0  0  0  0  0  0  0  0
   -0.3983    0.1293    0.0000 H   0  0  0  0  0  0  0  0  0  0  0  0
    0.0132    0.9727    0.0000 H   0  0  0  0  0  0  0  0  0  0  0  0
    0.2338    0.1000    0.0000 H   0  0  0  0  0  0  0  0  0  0  0  0
    2.5191    1.0768    0.0000 H   0  0  0  0  0  0  0  0  0  0  0  0
    2.5191    0.0068    0.0000 H   0  0  0  0  0  0  0  0  0  0  0  0
  1  2  1  0  0  0  0
  1 32  1  0  0  0  0
  1 33  1  0  0  0  0
  2  3  2  0  0  0  0
  2  7  1  0  0  0  0
  3  4  1  0  0  0  0
  4  5  2  0  0  0  0
  4 34  1  0  0  0  0
  5  6  1  0  0  0  0
  5 12  1  0  0  0  0
  6  7  2  0  0  0  0
  6 35  1  0  0  0  0
  7  8  1  0  0  0  0
  8  9  1  0  0  0  0
  9 10  1  0  0  0  0
  9 11  1  0  0  0  0
  9 36  1  0  0  0  0
 12 13  2  0  0  0  0
 12 17  1  0  0  0  0
 13 14  1  0  0  0  0
 13 37  1  0  0  0  0
 14 15  2  0  0  0  0
 14 25  1  0  0  0  0
 15 16  1  0  0  0  0
 16 17  2  0  0  0  0
 16 18  1  0  0  0  0
 18 19  1  0  0  0  0
 18 24  1  0  0  0  0
 19 20  1  0  0  0  0
 19 38  1  0  0  0  0
 19 39  1  0  0  0  0
 20 21  1  0  0  0  0
 20 40  1  0  0  0  0
 20 41  1  0  0  0  0
 21 22  1  0  0  0  0
 21 23  1  0  0  0  0
 21 24  1  0  0  0  0
 24 42  1  0  0  0  0
 24 43  1  0  0  0  0
 25 26  1  0  0  0  0
 26 44  1  0  0  0  0
 26 45  1  0  0  0  0
 27 26  1  0  0  0  0
 27 28  1  0  0  0  0
 27 31  1  0  0  0  0
 27 46  1  1  0  0  0
 28 47  1  0  0  0  0
 28 48  1  0  0  0  0
 29 28  1  0  0  0  0
 29 25  1  0  0  0  0
 29 30  1  0  0  0  0
 29 49  1  1  0  0  0
 30 31  1  0  0  0  0
 30 50  1  0  0  0  0
 30 51  1  0  0  0  0
M  END
>  <DRUGBANK_ID>
DB17079

>  <COMMON_NAME>
GDC-0134

>  <CAS_NUMBER>
1637394-01-4

>  <UNII>
4N6KQ7D685

>  <SYNONYMS>
2-pyridinamine, 3-(difluoromethoxy)-5-(2-(3,3-difluoro-1-pyrrolidinyl)-6-(1s,4s)-2-oxa-5-azabicyclo(2.2.1)hept-5-yl-4-pyrimidinyl)-

$$$$
