MR4
 OpenBabel10282417072D

 31 33  0  0  0  0  0  0  0  0999 V2000
   -2.1110    1.4090    0.0000 C   0  0  0  0  0  0  0  0  0  0  0  0
   -1.6985    0.6946    0.0000 C   0  0  0  0  0  0  0  0  0  0  0  0
   -0.8735    0.6946    0.0000 C   0  0  0  0  0  0  0  0  0  0  0  0
   -2.1110   -0.0199    0.0000 C   0  0  0  0  0  0  0  0  0  0  0  0
   -2.9360   -0.0199    0.0000 O   0  0  0  0  0  0  0  0  0  0  0  0
   -1.6985   -0.7344    0.0000 C   0  0  0  0  0  0  0  0  0  0  0  0
   -2.1110   -1.4489    0.0000 C   0  0  0  0  0  0  0  0  0  0  0  0
   -0.8735   -0.7344    0.0000 C   0  0  0  0  0  0  0  0  0  0  0  0
   -0.4610   -0.0199    0.0000 C   0  0  0  0  0  0  0  0  0  0  0  0
    0.3640   -0.0199    0.0000 C   0  0  0  0  0  0  0  0  0  0  0  0
    0.8489    0.6475    0.0000 O   0  0  0  0  0  0  0  0  0  0  0  0
    1.6335    0.3926    0.0000 C   0  0  0  0  0  0  0  0  0  0  0  0
    2.3480    0.8051    0.0000 C   0  0  0  0  0  0  0  0  0  0  0  0
    3.0625    0.3926    0.0000 C   0  0  0  0  0  0  0  0  0  0  0  0
    3.0625   -0.4324    0.0000 C   0  0  0  0  0  0  0  0  0  0  0  0
    2.3480   -0.8449    0.0000 C   0  0  0  0  0  0  0  0  0  0  0  0
    1.6335   -0.4324    0.0000 C   0  0  0  0  0  0  0  0  0  0  0  0
    0.8489   -0.6874    0.0000 N   0  0  0  0  0  0  0  0  0  0  0  0
   -1.5760    2.3357    0.0000 H   0  0  0  0  0  0  0  0  0  0  0  0
   -3.1810    1.4090    0.0000 H   0  0  0  0  0  0  0  0  0  0  0  0
   -2.6460    2.3356    0.0000 H   0  0  0  0  0  0  0  0  0  0  0  0
   -0.3575    1.5883    0.0000 H   0  0  0  0  0  0  0  0  0  0  0  0
   -3.4045    0.7916    0.0000 H   0  0  0  0  0  0  0  0  0  0  0  0
   -3.1810   -1.4489    0.0000 H   0  0  0  0  0  0  0  0  0  0  0  0
   -1.5760   -2.3755    0.0000 H   0  0  0  0  0  0  0  0  0  0  0  0
   -2.6460   -2.3756    0.0000 H   0  0  0  0  0  0  0  0  0  0  0  0
   -0.3575   -1.6281    0.0000 H   0  0  0  0  0  0  0  0  0  0  0  0
    2.3480    1.8371    0.0000 H   0  0  0  0  0  0  0  0  0  0  0  0
    3.9562    0.9086    0.0000 H   0  0  0  0  0  0  0  0  0  0  0  0
    3.9562   -0.9484    0.0000 H   0  0  0  0  0  0  0  0  0  0  0  0
    2.3480   -1.8769    0.0000 H   0  0  0  0  0  0  0  0  0  0  0  0
  1  2  1  0  0  0  0
  1 19  1  0  0  0  0
  1 20  1  0  0  0  0
  1 21  1  0  0  0  0
  2  3  2  0  0  0  0
  2  4  1  0  0  0  0
  3  9  1  0  0  0  0
  3 22  1  0  0  0  0
  4  6  2  0  0  0  0
  4  5  1  0  0  0  0
  5 23  1  0  0  0  0
  6  8  1  0  0  0  0
  6  7  1  0  0  0  0
  7 24  1  0  0  0  0
  7 25  1  0  0  0  0
  7 26  1  0  0  0  0
  8  9  2  0  0  0  0
  8 27  1  0  0  0  0
  9 10  1  0  0  0  0
 10 18  2  0  0  0  0
 10 11  1  0  0  0  0
 11 12  1  0  0  0  0
 12 13  2  0  0  0  0
 12 17  1  0  0  0  0
 13 14  1  0  0  0  0
 13 28  1  0  0  0  0
 14 15  2  0  0  0  0
 14 29  1  0  0  0  0
 15 16  1  0  0  0  0
 15 30  1  0  0  0  0
 16 17  2  0  0  0  0
 16 31  1  0  0  0  0
 17 18  1  0  0  0  0
M  END
>  <DRUGBANK_ID>
DB08205

>  <COMMON_NAME>
4-(1,3-BENZOXAZOL-2-YL)-2,6-DIMETHYLPHENOL

$$$$
