
 OpenBabel10282417072D

 43 45  0  0  1  0  0  0  0  0999 V2000
    2.0800    0.1722    0.0000 C   0  0  0  0  0  0  0  0  0  0  0  0
    2.4380    0.9155    0.0000 C   0  0  0  0  0  0  0  0  0  0  0  0
    2.0800    1.6588    0.0000 C   0  0  2  0  0  0  0  0  0  0  0  0
    1.2757    1.8423    0.0000 N   0  0  0  0  0  0  0  0  0  0  0  0
    1.0440    0.9155    0.0000 C   0  0  0  0  0  0  0  0  0  0  0  0
    1.2757   -0.0114    0.0000 C   0  0  2  0  0  0  0  0  0  0  0  0
    0.6307    0.5030    0.0000 N   0  0  0  0  0  0  0  0  0  0  0  0
    0.6307    1.3280    0.0000 C   0  0  0  0  0  0  0  0  0  0  0  0
   -0.1126    1.6859    0.0000 O   0  0  0  0  0  0  0  0  0  0  0  0
   -0.1126    0.1450    0.0000 O   0  0  0  0  0  0  0  0  0  0  0  0
   -0.1743   -0.6777    0.0000 S   0  0  0  0  0  0  0  0  0  0  0  0
   -0.2359   -1.5004    0.0000 O   0  0  0  0  0  0  0  0  0  0  0  0
    0.6484   -0.7393    0.0000 O   0  0  0  0  0  0  0  0  0  0  0  0
   -0.9969   -0.6160    0.0000 O   0  0  0  0  0  0  0  0  0  0  0  0
    2.5944    2.3038    0.0000 C   0  0  0  0  0  0  0  0  0  0  0  0
    3.4102    2.1808    0.0000 O   0  0  0  0  0  0  0  0  0  0  0  0
    2.2930    3.0717    0.0000 N   0  0  0  0  0  0  0  0  0  0  0  0
    2.8074    3.7168    0.0000 C   0  0  0  0  0  0  0  0  0  0  0  0
    2.5060    4.4847    0.0000 C   0  0  0  0  0  0  0  0  0  0  0  0
    3.0204    5.1297    0.0000 C   0  0  0  0  0  0  0  0  0  0  0  0
    3.8361    5.0068    0.0000 N   0  0  0  0  0  0  0  0  0  0  0  0
    4.1375    4.2388    0.0000 C   0  0  0  0  0  0  0  0  0  0  0  0
    3.6232    3.5938    0.0000 C   0  0  0  0  0  0  0  0  0  0  0  0
    2.7471   -0.6644    0.0000 H   0  0  0  0  0  0  0  0  0  0  0  0
    1.7266   -0.8378    0.0000 H   0  0  0  0  0  0  0  0  0  0  0  0
    3.5080    0.9155    0.0000 H   0  0  0  0  0  0  0  0  0  0  0  0
    3.0073    1.8215    0.0000 H   0  0  0  0  0  0  0  0  0  0  0  0
    3.1433    1.5390    0.0000 H   0  0  0  0  0  0  0  0  0  0  0  0
   -0.0260    0.9155    0.0000 H   0  0  0  0  0  0  0  0  0  0  0  0
    0.3855    0.0721    0.0000 H   0  0  0  0  0  0  0  0  0  0  0  0
    1.8356    0.9004    0.0000 H   0  0  0  0  0  0  0  0  0  0  0  0
   -1.4177    0.2580    0.0000 H   0  0  0  0  0  0  0  0  0  0  0  0
    1.3195    3.2184    0.0000 H   0  0  0  0  0  0  0  0  0  0  0  0
    3.4745    4.5534    0.0000 H   0  0  0  0  0  0  0  0  0  0  0  0
    1.4480    4.6442    0.0000 H   0  0  0  0  0  0  0  0  0  0  0  0
    2.1151    5.4807    0.0000 H   0  0  0  0  0  0  0  0  0  0  0  0
    2.6295    6.1257    0.0000 H   0  0  0  0  0  0  0  0  0  0  0  0
    3.6875    5.9663    0.0000 H   0  0  0  0  0  0  0  0  0  0  0  0
    4.4720    5.8043    0.0000 H   0  0  0  0  0  0  0  0  0  0  0  0
    5.1956    4.0793    0.0000 H   0  0  0  0  0  0  0  0  0  0  0  0
    4.5285    3.2428    0.0000 H   0  0  0  0  0  0  0  0  0  0  0  0
    4.0141    2.5978    0.0000 H   0  0  0  0  0  0  0  0  0  0  0  0
    2.9561    2.7573    0.0000 H   0  0  0  0  0  0  0  0  0  0  0  0
  1  2  1  0  0  0  0
  1  6  1  0  0  0  0
  1 24  1  0  0  0  0
  1 25  1  0  0  0  0
  2  3  1  0  0  0  0
  2 26  1  0  0  0  0
  2 27  1  0  0  0  0
  3  4  1  0  0  0  0
  3 15  1  0  0  0  0
  3 28  1  1  0  0  0
  4  5  1  0  0  0  0
  4  8  1  0  0  0  0
  5 29  1  0  0  0  0
  5 30  1  0  0  0  0
  6  5  1  0  0  0  0
  6  7  1  0  0  0  0
  6 31  1  6  0  0  0
  7  8  1  0  0  0  0
  7 10  1  0  0  0  0
  8  9  2  0  0  0  0
 10 11  1  0  0  0  0
 11 12  2  0  0  0  0
 11 13  2  0  0  0  0
 11 14  1  0  0  0  0
 14 32  1  0  0  0  0
 15 16  2  0  0  0  0
 15 17  1  0  0  0  0
 17 18  1  0  0  0  0
 17 33  1  0  0  0  0
 18 19  1  0  0  0  0
 18 23  1  0  0  0  0
 18 34  1  0  0  0  0
 19 20  1  0  0  0  0
 19 35  1  0  0  0  0
 19 36  1  0  0  0  0
 20 21  1  0  0  0  0
 20 37  1  0  0  0  0
 20 38  1  0  0  0  0
 21 22  1  0  0  0  0
 21 39  1  0  0  0  0
 22 23  1  0  0  0  0
 22 40  1  0  0  0  0
 22 41  1  0  0  0  0
 23 42  1  0  0  0  0
 23 43  1  0  0  0  0
M  END
>  <DRUGBANK_ID>
DB12377

>  <COMMON_NAME>
Relebactam

>  <CAS_NUMBER>
1174018-99-5

>  <UNII>
1OQF7TT3PF

>  <SYNONYMS>
Relebactam; Relebactam anhydrous

$$$$
