
 OpenBabel10282417072D

 47 46  0  0  0  0  0  0  0  0999 V2000
   -3.9170   -0.8375    0.0000 O   0  0  0  0  0  0  0  0  0  0  0  0
   -3.2045   -0.4208    0.0000 N   0  0  0  0  0  0  0  0  0  0  0  0
   -2.4919   -0.8334    0.0000 C   0  0  0  0  0  0  0  0  0  0  0  0
   -1.7794   -0.4166    0.0000 C   0  0  1  0  0  0  0  0  0  0  0  0
   -1.0667   -0.8292    0.0000 C   0  0  0  0  0  0  0  0  0  0  0  0
   -2.4960   -1.6585    0.0000 C   0  0  0  0  0  0  0  0  0  0  0  0
   -1.7812    0.4083    0.0000 N   0  0  0  0  0  0  0  0  0  0  0  0
   -1.0708    0.8251    0.0000 C   0  0  0  0  0  0  0  0  0  0  0  0
   -0.3583    0.4125    0.0000 C   0  0  0  0  0  0  0  0  0  0  0  0
   -0.7751   -0.3000    0.0000 C   0  0  0  0  0  0  0  0  0  0  0  0
    0.0499   -0.3000    0.0000 C   0  0  0  0  0  0  0  0  0  0  0  0
    0.3542    0.8292    0.0000 C   0  0  0  0  0  0  0  0  0  0  0  0
    1.0667    0.4166    0.0000 N   0  0  0  0  0  0  0  0  0  0  0  0
    1.7794    0.8334    0.0000 C   0  0  1  0  0  0  0  0  0  0  0  0
    2.4919    0.4208    0.0000 C   0  0  0  0  0  0  0  0  0  0  0  0
    2.4877   -0.4041    0.0000 C   0  0  0  0  0  0  0  0  0  0  0  0
    3.2045    0.8376    0.0000 N   0  0  0  0  0  0  0  0  0  0  0  0
    3.9170    0.4251    0.0000 O   0  0  0  0  0  0  0  0  0  0  0  0
    1.7776    1.6585    0.0000 C   0  0  0  0  0  0  0  0  0  0  0  0
   -4.7311   -0.3736    0.0000 H   0  0  0  0  0  0  0  0  0  0  0  0
   -2.7081    0.1147    0.0000 H   0  0  0  0  0  0  0  0  0  0  0  0
   -1.0680   -1.8992    0.0000 H   0  0  0  0  0  0  0  0  0  0  0  0
   -0.1394   -0.2953    0.0000 H   0  0  0  0  0  0  0  0  0  0  0  0
   -0.1407   -1.3653    0.0000 H   0  0  0  0  0  0  0  0  0  0  0  0
   -3.4253   -2.1889    0.0000 H   0  0  0  0  0  0  0  0  0  0  0  0
   -1.5720   -2.1981    0.0000 H   0  0  0  0  0  0  0  0  0  0  0  0
   -2.5013   -2.7285    0.0000 H   0  0  0  0  0  0  0  0  0  0  0  0
   -2.6669    0.9142    0.0000 H   0  0  0  0  0  0  0  0  0  0  0  0
   -1.0738    1.8951    0.0000 H   0  0  0  0  0  0  0  0  0  0  0  0
   -0.1446    1.3608    0.0000 H   0  0  0  0  0  0  0  0  0  0  0  0
   -1.8451   -0.2939    0.0000 H   0  0  0  0  0  0  0  0  0  0  0  0
   -0.2454   -1.2297    0.0000 H   0  0  0  0  0  0  0  0  0  0  0  0
   -1.3154   -1.2236    0.0000 H   0  0  0  0  0  0  0  0  0  0  0  0
   -0.4882   -1.2249    0.0000 H   0  0  0  0  0  0  0  0  0  0  0  0
    1.1199   -0.3036    0.0000 H   0  0  0  0  0  0  0  0  0  0  0  0
    0.5818   -1.2284    0.0000 H   0  0  0  0  0  0  0  0  0  0  0  0
    0.3519    1.8992    0.0000 H   0  0  0  0  0  0  0  0  0  0  0  0
    1.2806    1.3646    0.0000 H   0  0  0  0  0  0  0  0  0  0  0  0
    1.0689   -0.6034    0.0000 H   0  0  0  0  0  0  0  0  0  0  0  0
    0.8507    1.3648    0.0000 H   0  0  0  0  0  0  0  0  0  0  0  0
    1.5583   -0.9344    0.0000 H   0  0  0  0  0  0  0  0  0  0  0  0
    3.4116   -0.9438    0.0000 H   0  0  0  0  0  0  0  0  0  0  0  0
    2.4823   -1.4741    0.0000 H   0  0  0  0  0  0  0  0  0  0  0  0
    3.9159   -0.5119    0.0000 H   0  0  0  0  0  0  0  0  0  0  0  0
    2.7031    2.1955    0.0000 H   0  0  0  0  0  0  0  0  0  0  0  0
    0.8498    2.1915    0.0000 H   0  0  0  0  0  0  0  0  0  0  0  0
    1.7753    2.7285    0.0000 H   0  0  0  0  0  0  0  0  0  0  0  0
  1  2  1  0  0  0  0
  1 20  1  0  0  0  0
  2  3  2  0  0  0  0
  3  6  1  0  0  0  0
  3  4  1  0  0  0  0
  4  7  1  0  0  0  0
  4  5  1  0  0  0  0
  4 21  1  1  0  0  0
  5 22  1  0  0  0  0
  5 23  1  0  0  0  0
  5 24  1  0  0  0  0
  6 25  1  0  0  0  0
  6 26  1  0  0  0  0
  6 27  1  0  0  0  0
  7  8  1  0  0  0  0
  7 28  1  0  0  0  0
  8  9  1  0  0  0  0
  8 29  1  0  0  0  0
  8 30  1  0  0  0  0
  9 10  1  0  0  0  0
  9 11  1  0  0  0  0
  9 12  1  0  0  0  0
 10 31  1  0  0  0  0
 10 32  1  0  0  0  0
 10 33  1  0  0  0  0
 11 34  1  0  0  0  0
 11 35  1  0  0  0  0
 11 36  1  0  0  0  0
 12 13  1  0  0  0  0
 12 37  1  0  0  0  0
 12 38  1  0  0  0  0
 13 14  1  0  0  0  0
 13 39  1  0  0  0  0
 14 15  1  0  0  0  0
 14 19  1  0  0  0  0
 14 40  1  1  0  0  0
 15 16  1  0  0  0  0
 15 17  2  0  0  0  0
 16 41  1  0  0  0  0
 16 42  1  0  0  0  0
 16 43  1  0  0  0  0
 17 18  1  0  0  0  0
 18 44  1  0  0  0  0
 19 45  1  0  0  0  0
 19 46  1  0  0  0  0
 19 47  1  0  0  0  0
M  END
>  <DRUGBANK_ID>
DB11179

>  <COMMON_NAME>
Exametazime

>  <CAS_NUMBER>
105613-48-7

>  <UNII>
G29272NCKL

>  <SYNONYMS>
Exametazima; Exametazime

$$$$
