
 OpenBabel10282417072D

 91 90  0  0  1  0  0  0  0  0999 V2000
   15.3730   -8.8756    0.0000 C   0  0  0  0  0  0  0  0  0  0  0  0
   16.0875   -9.2881    0.0000 C   0  0  0  0  0  0  0  0  0  0  0  0
   16.8020   -8.8756    0.0000 C   0  0  0  0  0  0  0  0  0  0  0  0
   17.5164   -9.2881    0.0000 C   0  0  0  0  0  0  0  0  0  0  0  0
   18.2309   -8.8756    0.0000 C   0  0  0  0  0  0  0  0  0  0  0  0
   18.9454   -9.2881    0.0000 C   0  0  0  0  0  0  0  0  0  0  0  0
   19.6599   -8.8756    0.0000 C   0  0  0  0  0  0  0  0  0  0  0  0
   20.3743   -9.2881    0.0000 C   0  0  0  0  0  0  0  0  0  0  0  0
   21.0888   -8.8756    0.0000 C   0  0  0  0  0  0  0  0  0  0  0  0
   21.8033   -9.2881    0.0000 C   0  0  0  0  0  0  0  0  0  0  0  0
   22.5177   -8.8756    0.0000 C   0  0  0  0  0  0  0  0  0  0  0  0
   23.2322   -9.2881    0.0000 C   0  0  0  0  0  0  0  0  0  0  0  0
   23.9467   -8.8756    0.0000 C   0  0  0  0  0  0  0  0  0  0  0  0
   24.6612   -9.2881    0.0000 C   0  0  0  0  0  0  0  0  0  0  0  0
   25.3756   -8.8756    0.0000 C   0  0  0  0  0  0  0  0  0  0  0  0
   26.0901   -9.2881    0.0000 C   0  0  0  0  0  0  0  0  0  0  0  0
   26.8046   -8.8756    0.0000 C   0  0  0  0  0  0  0  0  0  0  0  0
   27.5190   -9.2881    0.0000 C   0  0  0  0  0  0  0  0  0  0  0  0
   28.2335   -8.8756    0.0000 O   0  0  0  0  0  0  0  0  0  0  0  0
   28.9480   -9.2881    0.0000 C   0  0  0  0  0  0  0  0  0  0  0  0
   29.6624   -8.8756    0.0000 C   0  0  1  0  0  0  0  0  0  0  0  0
   29.6624   -8.0506    0.0000 O   0  0  0  0  0  0  0  0  0  0  0  0
   30.3769   -9.2881    0.0000 C   0  0  0  0  0  0  0  0  0  0  0  0
   31.0914   -8.8756    0.0000 O   0  0  0  0  0  0  0  0  0  0  0  0
   31.8059   -9.2881    0.0000 P   0  0  1  0  0  0  0  0  0  0  0  0
   31.3934  -10.0026    0.0000 O   0  0  0  0  0  0  0  0  0  0  0  0
   32.2184   -8.5737    0.0000 O   0  0  0  0  0  0  0  0  0  0  0  0
   32.5203   -9.7006    0.0000 O   0  0  0  0  0  0  0  0  0  0  0  0
   33.2348   -9.2881    0.0000 C   0  0  0  0  0  0  0  0  0  0  0  0
   33.9493   -9.7006    0.0000 C   0  0  0  0  0  0  0  0  0  0  0  0
   34.6637   -9.2881    0.0000 N   0  3  0  0  0  0  0  0  0  0  0  0
   35.3782   -8.8756    0.0000 C   0  0  0  0  0  0  0  0  0  0  0  0
   35.0762  -10.0026    0.0000 C   0  0  0  0  0  0  0  0  0  0  0  0
   34.2512   -8.5737    0.0000 C   0  0  0  0  0  0  0  0  0  0  0  0
   15.3730   -7.8056    0.0000 H   0  0  0  0  0  0  0  0  0  0  0  0
   14.4464   -9.4106    0.0000 H   0  0  0  0  0  0  0  0  0  0  0  0
   14.4463   -8.3406    0.0000 H   0  0  0  0  0  0  0  0  0  0  0  0
   16.0875  -10.3581    0.0000 H   0  0  0  0  0  0  0  0  0  0  0  0
   17.0141   -9.8231    0.0000 H   0  0  0  0  0  0  0  0  0  0  0  0
   16.8020   -7.8056    0.0000 H   0  0  0  0  0  0  0  0  0  0  0  0
   17.7287   -8.3406    0.0000 H   0  0  0  0  0  0  0  0  0  0  0  0
   17.5164  -10.3581    0.0000 H   0  0  0  0  0  0  0  0  0  0  0  0
   18.4430   -9.8231    0.0000 H   0  0  0  0  0  0  0  0  0  0  0  0
   18.2309   -7.8056    0.0000 H   0  0  0  0  0  0  0  0  0  0  0  0
   19.1575   -8.3406    0.0000 H   0  0  0  0  0  0  0  0  0  0  0  0
   18.9454  -10.3581    0.0000 H   0  0  0  0  0  0  0  0  0  0  0  0
   19.8720   -9.8231    0.0000 H   0  0  0  0  0  0  0  0  0  0  0  0
   19.6599   -7.8056    0.0000 H   0  0  0  0  0  0  0  0  0  0  0  0
   20.5866   -8.3406    0.0000 H   0  0  0  0  0  0  0  0  0  0  0  0
   20.3743  -10.3581    0.0000 H   0  0  0  0  0  0  0  0  0  0  0  0
   21.3009   -9.8231    0.0000 H   0  0  0  0  0  0  0  0  0  0  0  0
   21.0888   -7.8056    0.0000 H   0  0  0  0  0  0  0  0  0  0  0  0
   22.0154   -8.3406    0.0000 H   0  0  0  0  0  0  0  0  0  0  0  0
   21.8033  -10.3581    0.0000 H   0  0  0  0  0  0  0  0  0  0  0  0
   22.7300   -9.8231    0.0000 H   0  0  0  0  0  0  0  0  0  0  0  0
   22.5177   -7.8056    0.0000 H   0  0  0  0  0  0  0  0  0  0  0  0
   23.4443   -8.3406    0.0000 H   0  0  0  0  0  0  0  0  0  0  0  0
   23.2322  -10.3581    0.0000 H   0  0  0  0  0  0  0  0  0  0  0  0
   24.1588   -9.8231    0.0000 H   0  0  0  0  0  0  0  0  0  0  0  0
   23.9467   -7.8056    0.0000 H   0  0  0  0  0  0  0  0  0  0  0  0
   24.8733   -8.3406    0.0000 H   0  0  0  0  0  0  0  0  0  0  0  0
   24.6612  -10.3581    0.0000 H   0  0  0  0  0  0  0  0  0  0  0  0
   25.5879   -9.8231    0.0000 H   0  0  0  0  0  0  0  0  0  0  0  0
   25.3756   -7.8056    0.0000 H   0  0  0  0  0  0  0  0  0  0  0  0
   26.3022   -8.3406    0.0000 H   0  0  0  0  0  0  0  0  0  0  0  0
   26.0901  -10.3581    0.0000 H   0  0  0  0  0  0  0  0  0  0  0  0
   27.0167   -9.8231    0.0000 H   0  0  0  0  0  0  0  0  0  0  0  0
   26.8046   -7.8056    0.0000 H   0  0  0  0  0  0  0  0  0  0  0  0
   27.7313   -8.3406    0.0000 H   0  0  0  0  0  0  0  0  0  0  0  0
   27.5190  -10.3581    0.0000 H   0  0  0  0  0  0  0  0  0  0  0  0
   28.4456   -9.8231    0.0000 H   0  0  0  0  0  0  0  0  0  0  0  0
   28.9480  -10.3581    0.0000 H   0  0  0  0  0  0  0  0  0  0  0  0
   29.8747   -9.8231    0.0000 H   0  0  0  0  0  0  0  0  0  0  0  0
   28.7357   -8.3406    0.0000 H   0  0  0  0  0  0  0  0  0  0  0  0
   30.5024   -7.5656    0.0000 H   0  0  0  0  0  0  0  0  0  0  0  0
   30.3769  -10.3581    0.0000 H   0  0  0  0  0  0  0  0  0  0  0  0
   31.3035   -9.8231    0.0000 H   0  0  0  0  0  0  0  0  0  0  0  0
   30.4234  -10.0026    0.0000 H   0  0  0  0  0  0  0  0  0  0  0  0
   33.2348   -8.2181    0.0000 H   0  0  0  0  0  0  0  0  0  0  0  0
   34.1614   -8.7531    0.0000 H   0  0  0  0  0  0  0  0  0  0  0  0
   33.9493  -10.7706    0.0000 H   0  0  0  0  0  0  0  0  0  0  0  0
   34.8760  -10.2356    0.0000 H   0  0  0  0  0  0  0  0  0  0  0  0
   36.3048   -9.4106    0.0000 H   0  0  0  0  0  0  0  0  0  0  0  0
   35.3782   -7.8056    0.0000 H   0  0  0  0  0  0  0  0  0  0  0  0
   36.3049   -8.3406    0.0000 H   0  0  0  0  0  0  0  0  0  0  0  0
   34.5412  -10.9292    0.0000 H   0  0  0  0  0  0  0  0  0  0  0  0
   36.1462  -10.0026    0.0000 H   0  0  0  0  0  0  0  0  0  0  0  0
   35.6112  -10.9293    0.0000 H   0  0  0  0  0  0  0  0  0  0  0  0
   34.7862   -7.6470    0.0000 H   0  0  0  0  0  0  0  0  0  0  0  0
   33.1812   -8.5737    0.0000 H   0  0  0  0  0  0  0  0  0  0  0  0
   33.7162   -7.6471    0.0000 H   0  0  0  0  0  0  0  0  0  0  0  0
  1  2  1  0  0  0  0
  1 35  1  0  0  0  0
  1 36  1  0  0  0  0
  1 37  1  0  0  0  0
  2  3  1  0  0  0  0
  2 38  1  0  0  0  0
  2 39  1  0  0  0  0
  3  4  1  0  0  0  0
  3 40  1  0  0  0  0
  3 41  1  0  0  0  0
  4  5  1  0  0  0  0
  4 42  1  0  0  0  0
  4 43  1  0  0  0  0
  5  6  1  0  0  0  0
  5 44  1  0  0  0  0
  5 45  1  0  0  0  0
  6  7  1  0  0  0  0
  6 46  1  0  0  0  0
  6 47  1  0  0  0  0
  7  8  1  0  0  0  0
  7 48  1  0  0  0  0
  7 49  1  0  0  0  0
  8  9  1  0  0  0  0
  8 50  1  0  0  0  0
  8 51  1  0  0  0  0
  9 10  1  0  0  0  0
  9 52  1  0  0  0  0
  9 53  1  0  0  0  0
 10 11  1  0  0  0  0
 10 54  1  0  0  0  0
 10 55  1  0  0  0  0
 11 12  1  0  0  0  0
 11 56  1  0  0  0  0
 11 57  1  0  0  0  0
 12 13  1  0  0  0  0
 12 58  1  0  0  0  0
 12 59  1  0  0  0  0
 13 14  1  0  0  0  0
 13 60  1  0  0  0  0
 13 61  1  0  0  0  0
 14 15  1  0  0  0  0
 14 62  1  0  0  0  0
 14 63  1  0  0  0  0
 15 16  1  0  0  0  0
 15 64  1  0  0  0  0
 15 65  1  0  0  0  0
 16 17  1  0  0  0  0
 16 66  1  0  0  0  0
 16 67  1  0  0  0  0
 17 18  1  0  0  0  0
 17 68  1  0  0  0  0
 17 69  1  0  0  0  0
 18 19  1  0  0  0  0
 18 70  1  0  0  0  0
 18 71  1  0  0  0  0
 19 20  1  0  0  0  0
 20 21  1  0  0  0  0
 20 72  1  0  0  0  0
 20 73  1  0  0  0  0
 21 22  1  0  0  0  0
 21 23  1  0  0  0  0
 21 74  1  6  0  0  0
 22 75  1  0  0  0  0
 23 24  1  0  0  0  0
 23 76  1  0  0  0  0
 23 77  1  0  0  0  0
 25 24  1  0  0  0  0
 25 26  1  0  0  0  0
 25 27  2  6  0  0  0
 25 28  1  0  0  0  0
 26 78  1  0  0  0  0
 28 29  1  0  0  0  0
 29 30  1  0  0  0  0
 29 79  1  0  0  0  0
 29 80  1  0  0  0  0
 30 31  1  0  0  0  0
 30 81  1  0  0  0  0
 30 82  1  0  0  0  0
 31 32  1  0  0  0  0
 31 33  1  0  0  0  0
 31 34  1  0  0  0  0
 32 83  1  0  0  0  0
 32 84  1  0  0  0  0
 32 85  1  0  0  0  0
 33 86  1  0  0  0  0
 33 87  1  0  0  0  0
 33 88  1  0  0  0  0
 34 89  1  0  0  0  0
 34 90  1  0  0  0  0
 34 91  1  0  0  0  0
M  CHG  1  31   1
M  END
>  <DRUGBANK_ID>
DB03633

>  <SECONDARY_ACCESSION_NUMBERS>
EXPT02056

>  <COMMON_NAME>
Lpc-Ether

$$$$
