
 OpenBabel10282417072D

 21 21  0  0  0  0  0  0  0  0999 V2000
    1.9967    1.9393    0.0000 O   0  0  0  0  0  0  0  0  0  0  0  0
    1.2822    2.3518    0.0000 C   0  0  3  0  0  0  0  0  0  0  0  0
    1.2822    3.1768    0.0000 C   0  0  0  0  0  0  0  0  0  0  0  0
    1.9967    3.5893    0.0000 F   0  0  0  0  0  0  0  0  0  0  0  0
    0.5678    1.9393    0.0000 C   0  0  0  0  0  0  0  0  0  0  0  0
    0.5678    1.1143    0.0000 N   0  0  0  0  0  0  0  0  0  0  0  0
    1.2352    0.6294    0.0000 C   0  0  0  0  0  0  0  0  0  0  0  0
    0.9803   -0.1553    0.0000 C   0  0  0  0  0  0  0  0  0  0  0  0
    0.1553   -0.1553    0.0000 N   0  0  0  0  0  0  0  0  0  0  0  0
   -0.0997    0.6294    0.0000 C   0  0  0  0  0  0  0  0  0  0  0  0
   -0.8843    0.8843    0.0000 N   0  3  0  0  0  0  0  0  0  0  0  0
   -1.4974    0.3323    0.0000 O   0  5  0  0  0  0  0  0  0  0  0  0
   -1.0558    1.6913    0.0000 O   0  0  0  0  0  0  0  0  0  0  0  0
    1.9967    0.9693    0.0000 H   0  0  0  0  0  0  0  0  0  0  0  0
    2.2088    2.8868    0.0000 H   0  0  0  0  0  0  0  0  0  0  0  0
    0.3556    3.7118    0.0000 H   0  0  0  0  0  0  0  0  0  0  0  0
    1.2822    4.2468    0.0000 H   0  0  0  0  0  0  0  0  0  0  0  0
   -0.3589    2.4743    0.0000 H   0  0  0  0  0  0  0  0  0  0  0  0
   -0.3588    1.4043    0.0000 H   0  0  0  0  0  0  0  0  0  0  0  0
    2.2167    0.9483    0.0000 H   0  0  0  0  0  0  0  0  0  0  0  0
    1.5869   -0.9902    0.0000 H   0  0  0  0  0  0  0  0  0  0  0  0
  1  2  1  0  0  0  0
  1 14  1  0  0  0  0
  2  3  1  0  0  0  0
  2  5  1  0  0  0  0
  2 15  1  0  0  0  0
  3  4  1  0  0  0  0
  3 16  1  0  0  0  0
  3 17  1  0  0  0  0
  5  6  1  0  0  0  0
  5 18  1  0  0  0  0
  5 19  1  0  0  0  0
  6  7  1  0  0  0  0
  6 10  1  0  0  0  0
  7  8  2  0  0  0  0
  7 20  1  0  0  0  0
  8  9  1  0  0  0  0
  8 21  1  0  0  0  0
  9 10  2  0  0  0  0
 10 11  1  0  0  0  0
 11 12  1  0  0  0  0
 11 13  2  0  0  0  0
M  ISO  1   4  18
M  CHG  2  11   1  12  -1
M  END
>  <DRUGBANK_ID>
DB14830

>  <COMMON_NAME>
Fluoromisonidazole F-18

>  <CAS_NUMBER>
104613-87-8

>  <UNII>
8MSY49469G

>  <SYNONYMS>
1-(2-Nitro-Imidazolyl)-3-[18F]Fluoro-2-Propanol; 18F-MISO; 18F-Misonidazole; 1H-1-(3-[18F]Fluoro-2-Hydroxypropyl-2-Nitroimidazole 18F

$$$$
