11979494
 OpenBabel10282417072D

214228  0  0  1  0  0  0  0  0999 V2000
    4.7749   15.6403    0.0000 O   0  0  0  0  0  0  0  0  0  0  0  0
    4.7749    8.0968    0.0000 O   0  0  0  0  0  0  0  0  0  0  0  0
    2.3576   14.7536    0.0000 O   0  0  0  0  0  0  0  0  0  0  0  0
    2.3576    7.2101    0.0000 O   0  0  0  0  0  0  0  0  0  0  0  0
    5.9164    7.1778    0.0000 O   0  0  0  0  0  0  0  0  0  0  0  0
    5.9164   14.7212    0.0000 O   0  0  0  0  0  0  0  0  0  0  0  0
    2.8792    3.4304    0.0000 O   0  0  0  0  0  0  0  0  0  0  0  0
    2.8792   10.9738    0.0000 O   0  0  0  0  0  0  0  0  0  0  0  0
    1.6814    4.1219    0.0000 O   0  0  0  0  0  0  0  0  0  0  0  0
    1.6814   11.6654    0.0000 O   0  0  0  0  0  0  0  0  0  0  0  0
    5.9300   11.0412    0.0000 O   0  0  0  0  0  0  0  0  0  0  0  0
    7.3589    5.9726    0.0000 O   0  0  0  0  0  0  0  0  0  0  0  0
    7.3589   13.5161    0.0000 O   0  0  0  0  0  0  0  0  0  0  0  0
    5.9300    3.4977    0.0000 O   0  0  0  0  0  0  0  0  0  0  0  0
   12.8066   10.4362    0.0000 O   0  0  0  0  0  0  0  0  0  0  0  0
   12.8066    1.8414    0.0000 O   0  0  0  0  0  0  0  0  0  0  0  0
    7.3589    4.3226    0.0000 O   0  0  0  0  0  0  0  0  0  0  0  0
    7.3589   11.8661    0.0000 O   0  0  0  0  0  0  0  0  0  0  0  0
   11.3399   10.4449    0.0000 O   0  0  0  0  0  0  0  0  0  0  0  0
   11.3399    1.8500    0.0000 O   0  0  0  0  0  0  0  0  0  0  0  0
   10.6206   12.5499    0.0000 O   0  0  0  0  0  0  0  0  0  0  0  0
   10.6206    3.9551    0.0000 O   0  0  0  0  0  0  0  0  0  0  0  0
   15.7440   12.7786    0.0000 O   0  0  0  0  0  0  0  0  0  0  0  0
   15.7440    4.1838    0.0000 O   0  0  0  0  0  0  0  0  0  0  0  0
   15.7440    2.8559    0.0000 O   0  0  0  0  0  0  0  0  0  0  0  0
   15.7440   11.4509    0.0000 O   0  0  0  0  0  0  0  0  0  0  0  0
   11.3399    5.1898    0.0000 O   0  0  0  0  0  0  0  0  0  0  0  0
   11.3399   13.7846    0.0000 O   0  0  0  0  0  0  0  0  0  0  0  0
   11.3968   15.4596    0.0000 O   0  0  0  0  0  0  0  0  0  0  0  0
   11.3968    6.8648    0.0000 O   0  0  0  0  0  0  0  0  0  0  0  0
   14.2545   15.4265    0.0000 O   0  0  0  0  0  0  0  0  0  0  0  0
   14.2545    6.8318    0.0000 O   0  0  0  0  0  0  0  0  0  0  0  0
   12.8352    7.6732    0.0000 O   0  0  0  0  0  0  0  0  0  0  0  0
   12.8352   16.2681    0.0000 O   0  0  0  0  0  0  0  0  0  0  0  0
    3.7867   14.7536    0.0000 C   0  0  3  0  0  0  0  0  0  0  0  0
    3.7867    7.2101    0.0000 C   0  0  3  0  0  0  0  0  0  0  0  0
    4.5011   14.3411    0.0000 C   0  0  3  0  0  0  0  0  0  0  0  0
    4.5011    6.7976    0.0000 C   0  0  3  0  0  0  0  0  0  0  0  0
    4.5011    5.9726    0.0000 C   0  0  3  0  0  0  0  0  0  0  0  0
    4.5011   13.5161    0.0000 C   0  0  3  0  0  0  0  0  0  0  0  0
    3.0722    6.7976    0.0000 C   0  0  3  0  0  0  0  0  0  0  0  0
    3.0722   14.3411    0.0000 C   0  0  3  0  0  0  0  0  0  0  0  0
    3.7867   13.1036    0.0000 C   0  0  0  0  0  0  0  0  0  0  0  0
    3.7867    5.5601    0.0000 C   0  0  0  0  0  0  0  0  0  0  0  0
    3.9592    8.0118    0.0000 C   0  0  0  0  0  0  0  0  0  0  0  0
    3.9592   15.5553    0.0000 C   0  0  0  0  0  0  0  0  0  0  0  0
    3.0722   13.5161    0.0000 C   0  0  0  0  0  0  0  0  0  0  0  0
    3.0722    5.9726    0.0000 C   0  0  0  0  0  0  0  0  0  0  0  0
    5.1091    7.3480    0.0000 C   0  0  0  0  0  0  0  0  0  0  0  0
    5.1091   14.8914    0.0000 C   0  0  0  0  0  0  0  0  0  0  0  0
    5.2155    5.5601    0.0000 C   0  0  0  0  0  0  0  0  0  0  0  0
    5.2155   13.1036    0.0000 C   0  0  0  0  0  0  0  0  0  0  0  0
    3.7999   12.2443    0.0000 C   0  0  0  0  0  0  0  0  0  0  0  0
    3.7999    4.7009    0.0000 C   0  0  0  0  0  0  0  0  0  0  0  0
    2.3215   13.0979    0.0000 C   0  0  0  0  0  0  0  0  0  0  0  0
    2.3214    5.5544    0.0000 C   0  0  0  0  0  0  0  0  0  0  0  0
    3.0590   11.8090    0.0000 C   0  0  0  0  0  0  0  0  0  0  0  0
    3.0590    4.2655    0.0000 C   0  0  0  0  0  0  0  0  0  0  0  0
    2.3148   12.2386    0.0000 C   0  0  0  0  0  0  0  0  0  0  0  0
    2.3148    4.6951    0.0000 C   0  0  0  0  0  0  0  0  0  0  0  0
    5.9300   13.5161    0.0000 C   0  0  0  0  0  0  0  0  0  0  0  0
    5.2155    4.7352    0.0000 C   0  0  0  0  0  0  0  0  0  0  0  0
    5.2155   12.2786    0.0000 C   0  0  0  0  0  0  0  0  0  0  0  0
    5.9300    5.9726    0.0000 C   0  0  0  0  0  0  0  0  0  0  0  0
   12.0496   11.6851    0.0000 C   0  0  3  0  0  0  0  0  0  0  0  0
   12.0496    3.0903    0.0000 C   0  0  3  0  0  0  0  0  0  0  0  0
   12.0496   12.5444    0.0000 C   0  0  3  0  0  0  0  0  0  0  0  0
   12.0496    3.9496    0.0000 C   0  0  3  0  0  0  0  0  0  0  0  0
   12.7970    4.3734    0.0000 C   0  0  3  0  0  0  0  0  0  0  0  0
   12.7970   12.9683    0.0000 C   0  0  3  0  0  0  0  0  0  0  0  0
    6.6445    5.5601    0.0000 C   0  0  0  0  0  0  0  0  0  0  0  0
    5.9300   11.8661    0.0000 C   0  0  0  0  0  0  0  0  0  0  0  0
    5.9300    4.3226    0.0000 C   0  0  0  0  0  0  0  0  0  0  0  0
    6.6445   13.1036    0.0000 C   0  0  0  0  0  0  0  0  0  0  0  0
   12.7970    2.6663    0.0000 C   0  0  3  0  0  0  0  0  0  0  0  0
   12.7970   11.2612    0.0000 C   0  0  3  0  0  0  0  0  0  0  0  0
   13.5345    3.9325    0.0000 C   0  0  0  0  0  0  0  0  0  0  0  0
   13.5345   12.5273    0.0000 C   0  0  0  0  0  0  0  0  0  0  0  0
   13.5345    3.1074    0.0000 C   0  0  0  0  0  0  0  0  0  0  0  0
   13.5345   11.7023    0.0000 C   0  0  0  0  0  0  0  0  0  0  0  0
    2.0296   10.8853    0.0000 C   0  0  0  0  0  0  0  0  0  0  0  0
    2.0296    3.3418    0.0000 C   0  0  0  0  0  0  0  0  0  0  0  0
    6.6445   12.2786    0.0000 C   0  0  0  0  0  0  0  0  0  0  0  0
    6.6445    4.7352    0.0000 C   0  0  0  0  0  0  0  0  0  0  0  0
   11.3367   11.2698    0.0000 C   0  0  0  0  0  0  0  0  0  0  0  0
   11.3367    2.6750    0.0000 C   0  0  0  0  0  0  0  0  0  0  0  0
   12.8066    5.1985    0.0000 C   0  0  0  0  0  0  0  0  0  0  0  0
   12.8066   13.7932    0.0000 C   0  0  0  0  0  0  0  0  0  0  0  0
   11.3367    4.3648    0.0000 C   0  0  0  0  0  0  0  0  0  0  0  0
   11.3367   12.9597    0.0000 C   0  0  0  0  0  0  0  0  0  0  0  0
   14.2490   12.9398    0.0000 C   0  0  0  0  0  0  0  0  0  0  0  0
   14.2490    4.3449    0.0000 C   0  0  0  0  0  0  0  0  0  0  0  0
   14.2490   11.2898    0.0000 C   0  0  0  0  0  0  0  0  0  0  0  0
   14.2490    2.6949    0.0000 C   0  0  0  0  0  0  0  0  0  0  0  0
   14.9634   12.5273    0.0000 C   0  0  0  0  0  0  0  0  0  0  0  0
   14.9634    3.9325    0.0000 C   0  0  0  0  0  0  0  0  0  0  0  0
   14.9634   11.7023    0.0000 C   0  0  0  0  0  0  0  0  0  0  0  0
   14.9634    3.1074    0.0000 C   0  0  0  0  0  0  0  0  0  0  0  0
   13.5258    5.6026    0.0000 C   0  0  0  0  0  0  0  0  0  0  0  0
   13.5258   14.1974    0.0000 C   0  0  0  0  0  0  0  0  0  0  0  0
   12.0969    5.6191    0.0000 C   0  0  0  0  0  0  0  0  0  0  0  0
   12.0969   14.2140    0.0000 C   0  0  0  0  0  0  0  0  0  0  0  0
    6.6445   10.6287    0.0000 C   0  0  0  0  0  0  0  0  0  0  0  0
    7.3589    6.7976    0.0000 C   0  0  0  0  0  0  0  0  0  0  0  0
    7.3589   14.3411    0.0000 C   0  0  0  0  0  0  0  0  0  0  0  0
    6.6445    3.0852    0.0000 C   0  0  0  0  0  0  0  0  0  0  0  0
   12.1065    6.4441    0.0000 C   0  0  0  0  0  0  0  0  0  0  0  0
   12.1065   15.0390    0.0000 C   0  0  0  0  0  0  0  0  0  0  0  0
   13.5353    6.4275    0.0000 C   0  0  0  0  0  0  0  0  0  0  0  0
   13.5353   15.0225    0.0000 C   0  0  0  0  0  0  0  0  0  0  0  0
   16.2254   12.1147    0.0000 C   0  0  0  0  0  0  0  0  0  0  0  0
   16.2254    3.5200    0.0000 C   0  0  0  0  0  0  0  0  0  0  0  0
   12.8257   15.4430    0.0000 C   0  0  0  0  0  0  0  0  0  0  0  0
   12.8257    6.8483    0.0000 C   0  0  0  0  0  0  0  0  0  0  0  0
    8.0733   12.2786    0.0000 C   0  0  0  0  0  0  0  0  0  0  0  0
    8.0733    4.7352    0.0000 C   0  0  0  0  0  0  0  0  0  0  0  0
   11.4064    7.6897    0.0000 C   0  0  0  0  0  0  0  0  0  0  0  0
   11.4064   16.2846    0.0000 C   0  0  0  0  0  0  0  0  0  0  0  0
   14.9641    6.4110    0.0000 C   0  0  0  0  0  0  0  0  0  0  0  0
   14.9641   15.0059    0.0000 C   0  0  0  0  0  0  0  0  0  0  0  0
   13.5544   16.6723    0.0000 C   0  0  0  0  0  0  0  0  0  0  0  0
   13.5544    8.0774    0.0000 C   0  0  0  0  0  0  0  0  0  0  0  0
    2.3575   15.7236    0.0000 H   0  0  0  0  0  0  0  0  0  0  0  0
    2.3575    8.1801    0.0000 H   0  0  0  0  0  0  0  0  0  0  0  0
   11.9723    9.9415    0.0000 H   0  0  0  0  0  0  0  0  0  0  0  0
   11.9723    1.3467    0.0000 H   0  0  0  0  0  0  0  0  0  0  0  0
   10.5017    9.9566    0.0000 H   0  0  0  0  0  0  0  0  0  0  0  0
   10.5017    1.3617    0.0000 H   0  0  0  0  0  0  0  0  0  0  0  0
    9.8109   13.0215    0.0000 H   0  0  0  0  0  0  0  0  0  0  0  0
    9.8110    4.4268    0.0000 H   0  0  0  0  0  0  0  0  0  0  0  0
    3.7867   13.6836    0.0000 H   0  0  0  0  0  0  0  0  0  0  0  0
    3.7867    6.1401    0.0000 H   0  0  0  0  0  0  0  0  0  0  0  0
    3.5744   13.8061    0.0000 H   0  0  0  0  0  0  0  0  0  0  0  0
    3.5744    6.2626    0.0000 H   0  0  0  0  0  0  0  0  0  0  0  0
    3.5744    6.5076    0.0000 H   0  0  0  0  0  0  0  0  0  0  0  0
    3.5744   14.0511    0.0000 H   0  0  0  0  0  0  0  0  0  0  0  0
    3.0722    7.8676    0.0000 H   0  0  0  0  0  0  0  0  0  0  0  0
    3.0722   15.4111    0.0000 H   0  0  0  0  0  0  0  0  0  0  0  0
    3.2446    8.8082    0.0000 H   0  0  0  0  0  0  0  0  0  0  0  0
    2.9251    7.7370    0.0000 H   0  0  0  0  0  0  0  0  0  0  0  0
    3.2446   16.3517    0.0000 H   0  0  0  0  0  0  0  0  0  0  0  0
    2.9251   15.2805    0.0000 H   0  0  0  0  0  0  0  0  0  0  0  0
    4.6995   11.7386    0.0000 H   0  0  0  0  0  0  0  0  0  0  0  0
    4.6995    4.1952    0.0000 H   0  0  0  0  0  0  0  0  0  0  0  0
    1.4338   13.6242    0.0000 H   0  0  0  0  0  0  0  0  0  0  0  0
    1.4337    6.0807    0.0000 H   0  0  0  0  0  0  0  0  0  0  0  0
    5.9300   14.5481    0.0000 H   0  0  0  0  0  0  0  0  0  0  0  0
    4.3217    4.2192    0.0000 H   0  0  0  0  0  0  0  0  0  0  0  0
    4.3218   11.7626    0.0000 H   0  0  0  0  0  0  0  0  0  0  0  0
    5.9300    7.0046    0.0000 H   0  0  0  0  0  0  0  0  0  0  0  0
   12.9742   12.2237    0.0000 H   0  0  0  0  0  0  0  0  0  0  0  0
   12.9742    3.6288    0.0000 H   0  0  0  0  0  0  0  0  0  0  0  0
   12.9742   12.0058    0.0000 H   0  0  0  0  0  0  0  0  0  0  0  0
   12.9742    3.4110    0.0000 H   0  0  0  0  0  0  0  0  0  0  0  0
   12.7847    3.3035    0.0000 H   0  0  0  0  0  0  0  0  0  0  0  0
   12.7847   11.8984    0.0000 H   0  0  0  0  0  0  0  0  0  0  0  0
   11.8755    2.1224    0.0000 H   0  0  0  0  0  0  0  0  0  0  0  0
   11.8756   10.7173    0.0000 H   0  0  0  0  0  0  0  0  0  0  0  0
    1.4946    9.9587    0.0000 H   0  0  0  0  0  0  0  0  0  0  0  0
    0.9610   10.9408    0.0000 H   0  0  0  0  0  0  0  0  0  0  0  0
    1.4947    2.4151    0.0000 H   0  0  0  0  0  0  0  0  0  0  0  0
    0.9610    3.3973    0.0000 H   0  0  0  0  0  0  0  0  0  0  0  0
   10.4080   11.8012    0.0000 H   0  0  0  0  0  0  0  0  0  0  0  0
   11.3325   12.3398    0.0000 H   0  0  0  0  0  0  0  0  0  0  0  0
   10.4080    3.2064    0.0000 H   0  0  0  0  0  0  0  0  0  0  0  0
   11.3325    3.7450    0.0000 H   0  0  0  0  0  0  0  0  0  0  0  0
   14.2490   13.9718    0.0000 H   0  0  0  0  0  0  0  0  0  0  0  0
   14.2490    5.3769    0.0000 H   0  0  0  0  0  0  0  0  0  0  0  0
   14.2490   10.2578    0.0000 H   0  0  0  0  0  0  0  0  0  0  0  0
   14.2490    1.6629    0.0000 H   0  0  0  0  0  0  0  0  0  0  0  0
   14.4135    5.0763    0.0000 H   0  0  0  0  0  0  0  0  0  0  0  0
   14.4135   13.6711    0.0000 H   0  0  0  0  0  0  0  0  0  0  0  0
   11.1973    5.1134    0.0000 H   0  0  0  0  0  0  0  0  0  0  0  0
   11.1972   13.7084    0.0000 H   0  0  0  0  0  0  0  0  0  0  0  0
    6.6445    9.5587    0.0000 H   0  0  0  0  0  0  0  0  0  0  0  0
    7.5711   11.1637    0.0000 H   0  0  0  0  0  0  0  0  0  0  0  0
    7.5712   10.0937    0.0000 H   0  0  0  0  0  0  0  0  0  0  0  0
    8.2855    7.3326    0.0000 H   0  0  0  0  0  0  0  0  0  0  0  0
    6.4323    7.3326    0.0000 H   0  0  0  0  0  0  0  0  0  0  0  0
    7.3589    7.8676    0.0000 H   0  0  0  0  0  0  0  0  0  0  0  0
    8.2855   14.8761    0.0000 H   0  0  0  0  0  0  0  0  0  0  0  0
    6.4323   14.8761    0.0000 H   0  0  0  0  0  0  0  0  0  0  0  0
    7.3589   15.4111    0.0000 H   0  0  0  0  0  0  0  0  0  0  0  0
    6.6445    2.0152    0.0000 H   0  0  0  0  0  0  0  0  0  0  0  0
    7.5711    3.6202    0.0000 H   0  0  0  0  0  0  0  0  0  0  0  0
    7.5712    2.5502    0.0000 H   0  0  0  0  0  0  0  0  0  0  0  0
   17.2954   12.1147    0.0000 H   0  0  0  0  0  0  0  0  0  0  0  0
   16.7116   11.1615    0.0000 H   0  0  0  0  0  0  0  0  0  0  0  0
   17.2954    3.5201    0.0000 H   0  0  0  0  0  0  0  0  0  0  0  0
   16.7117    2.5669    0.0000 H   0  0  0  0  0  0  0  0  0  0  0  0
    9.0000   11.7436    0.0000 H   0  0  0  0  0  0  0  0  0  0  0  0
    8.0733   13.3486    0.0000 H   0  0  0  0  0  0  0  0  0  0  0  0
    8.9999   12.8136    0.0000 H   0  0  0  0  0  0  0  0  0  0  0  0
    9.0000    4.2003    0.0000 H   0  0  0  0  0  0  0  0  0  0  0  0
    8.0731    5.8052    0.0000 H   0  0  0  0  0  0  0  0  0  0  0  0
    8.9999    5.2703    0.0000 H   0  0  0  0  0  0  0  0  0  0  0  0
   12.3392    8.2139    0.0000 H   0  0  0  0  0  0  0  0  0  0  0  0
   10.4860    8.2354    0.0000 H   0  0  0  0  0  0  0  0  0  0  0  0
   11.4189    8.7596    0.0000 H   0  0  0  0  0  0  0  0  0  0  0  0
   12.3392   16.8088    0.0000 H   0  0  0  0  0  0  0  0  0  0  0  0
   10.4860   16.8303    0.0000 H   0  0  0  0  0  0  0  0  0  0  0  0
   11.4189   17.3545    0.0000 H   0  0  0  0  0  0  0  0  0  0  0  0
   14.9516    5.3411    0.0000 H   0  0  0  0  0  0  0  0  0  0  0  0
   15.8969    6.9352    0.0000 H   0  0  0  0  0  0  0  0  0  0  0  0
   15.8844    5.8652    0.0000 H   0  0  0  0  0  0  0  0  0  0  0  0
   14.9518   13.9360    0.0000 H   0  0  0  0  0  0  0  0  0  0  0  0
   15.8968   15.5302    0.0000 H   0  0  0  0  0  0  0  0  0  0  0  0
   15.8846   14.4603    0.0000 H   0  0  0  0  0  0  0  0  0  0  0  0
   14.4748   16.1266    0.0000 H   0  0  0  0  0  0  0  0  0  0  0  0
   13.5668   17.7422    0.0000 H   0  0  0  0  0  0  0  0  0  0  0  0
   14.4872   17.1965    0.0000 H   0  0  0  0  0  0  0  0  0  0  0  0
   14.4748    7.5317    0.0000 H   0  0  0  0  0  0  0  0  0  0  0  0
   13.5668    9.1473    0.0000 H   0  0  0  0  0  0  0  0  0  0  0  0
   14.4872    8.6016    0.0000 H   0  0  0  0  0  0  0  0  0  0  0  0
  1 46  1  0  0  0  0
  1 50  1  0  0  0  0
  2 45  1  0  0  0  0
  2 49  1  0  0  0  0
  3 42  1  0  0  0  0
  3123  1  0  0  0  0
  4 41  1  0  0  0  0
  4124  1  0  0  0  0
  5 49  2  0  0  0  0
  6 50  2  0  0  0  0
  7 58  1  0  0  0  0
  7 82  1  0  0  0  0
  8 57  1  0  0  0  0
  8 81  1  0  0  0  0
  9 60  1  0  0  0  0
  9 82  1  0  0  0  0
 10 59  1  0  0  0  0
 10 81  1  0  0  0  0
 11 72  1  0  0  0  0
 11103  1  0  0  0  0
 12 71  1  0  0  0  0
 12104  1  0  0  0  0
 13 74  1  0  0  0  0
 13105  1  0  0  0  0
 14 73  1  0  0  0  0
 14106  1  0  0  0  0
 15 76  1  0  0  0  0
 15125  1  0  0  0  0
 16 75  1  0  0  0  0
 16126  1  0  0  0  0
 17 84  1  0  0  0  0
 17116  1  0  0  0  0
 18 83  1  0  0  0  0
 18115  1  0  0  0  0
 19 85  1  0  0  0  0
 19127  1  0  0  0  0
 20 86  1  0  0  0  0
 20128  1  0  0  0  0
 21 90  1  0  0  0  0
 21129  1  0  0  0  0
 22 89  1  0  0  0  0
 22130  1  0  0  0  0
 23 95  1  0  0  0  0
 23111  1  0  0  0  0
 24 96  1  0  0  0  0
 24112  1  0  0  0  0
 25 98  1  0  0  0  0
 25112  1  0  0  0  0
 26 97  1  0  0  0  0
 26111  1  0  0  0  0
 27 89  2  0  0  0  0
 28 90  2  0  0  0  0
 29108  1  0  0  0  0
 29118  1  0  0  0  0
 30107  1  0  0  0  0
 30117  1  0  0  0  0
 31110  1  0  0  0  0
 31120  1  0  0  0  0
 32109  1  0  0  0  0
 32119  1  0  0  0  0
 33114  1  0  0  0  0
 33122  1  0  0  0  0
 34113  1  0  0  0  0
 34121  1  0  0  0  0
 35 37  1  0  0  0  0
 35 42  1  0  0  0  0
 35 46  1  0  0  0  0
 35131  1  0  0  0  0
 36 38  1  0  0  0  0
 36 41  1  0  0  0  0
 36 45  1  0  0  0  0
 36132  1  0  0  0  0
 37 40  1  0  0  0  0
 37 50  1  0  0  0  0
 37133  1  0  0  0  0
 38 39  1  0  0  0  0
 38 49  1  0  0  0  0
 38134  1  0  0  0  0
 39 44  1  0  0  0  0
 39 51  1  0  0  0  0
 39135  1  0  0  0  0
 40 43  1  0  0  0  0
 40 52  1  0  0  0  0
 40136  1  0  0  0  0
 41 48  1  0  0  0  0
 41137  1  0  0  0  0
 42 47  1  0  0  0  0
 42138  1  0  0  0  0
 43 47  1  0  0  0  0
 43 53  2  0  0  0  0
 44 48  1  0  0  0  0
 44 54  2  0  0  0  0
 45139  1  0  0  0  0
 45140  1  0  0  0  0
 46141  1  0  0  0  0
 46142  1  0  0  0  0
 47 55  2  0  0  0  0
 48 56  2  0  0  0  0
 51 62  2  0  0  0  0
 51 64  1  0  0  0  0
 52 61  2  0  0  0  0
 52 63  1  0  0  0  0
 53 57  1  0  0  0  0
 53143  1  0  0  0  0
 54 58  1  0  0  0  0
 54144  1  0  0  0  0
 55 59  1  0  0  0  0
 55145  1  0  0  0  0
 56 60  1  0  0  0  0
 56146  1  0  0  0  0
 57 59  2  0  0  0  0
 58 60  2  0  0  0  0
 61 74  1  0  0  0  0
 61147  1  0  0  0  0
 62 73  1  0  0  0  0
 62148  1  0  0  0  0
 63 72  2  0  0  0  0
 63149  1  0  0  0  0
 64 71  2  0  0  0  0
 64150  1  0  0  0  0
 65 67  1  0  0  0  0
 65 76  1  0  0  0  0
 65 85  1  0  0  0  0
 65151  1  0  0  0  0
 66 68  1  0  0  0  0
 66 75  1  0  0  0  0
 66 86  1  0  0  0  0
 66152  1  0  0  0  0
 67 70  1  0  0  0  0
 67 90  1  0  0  0  0
 67153  1  0  0  0  0
 68 69  1  0  0  0  0
 68 89  1  0  0  0  0
 68154  1  0  0  0  0
 69 77  1  0  0  0  0
 69 87  1  0  0  0  0
 69155  1  0  0  0  0
 70 78  1  0  0  0  0
 70 88  1  0  0  0  0
 70156  1  0  0  0  0
 71 84  1  0  0  0  0
 72 83  1  0  0  0  0
 73 84  2  0  0  0  0
 74 83  2  0  0  0  0
 75 79  1  0  0  0  0
 75157  1  0  0  0  0
 76 80  1  0  0  0  0
 76158  1  0  0  0  0
 77 79  1  0  0  0  0
 77 92  2  0  0  0  0
 78 80  1  0  0  0  0
 78 91  2  0  0  0  0
 79 94  2  0  0  0  0
 80 93  2  0  0  0  0
 81159  1  0  0  0  0
 81160  1  0  0  0  0
 82161  1  0  0  0  0
 82162  1  0  0  0  0
 85163  1  0  0  0  0
 85164  1  0  0  0  0
 86165  1  0  0  0  0
 86166  1  0  0  0  0
 87 99  2  0  0  0  0
 87101  1  0  0  0  0
 88100  2  0  0  0  0
 88102  1  0  0  0  0
 91 95  1  0  0  0  0
 91167  1  0  0  0  0
 92 96  1  0  0  0  0
 92168  1  0  0  0  0
 93 97  1  0  0  0  0
 93169  1  0  0  0  0
 94 98  1  0  0  0  0
 94170  1  0  0  0  0
 95 97  2  0  0  0  0
 96 98  2  0  0  0  0
 99109  1  0  0  0  0
 99171  1  0  0  0  0
100110  1  0  0  0  0
100172  1  0  0  0  0
101107  2  0  0  0  0
101173  1  0  0  0  0
102108  2  0  0  0  0
102174  1  0  0  0  0
103175  1  0  0  0  0
103176  1  0  0  0  0
103177  1  0  0  0  0
104178  1  0  0  0  0
104179  1  0  0  0  0
104180  1  0  0  0  0
105181  1  0  0  0  0
105182  1  0  0  0  0
105183  1  0  0  0  0
106184  1  0  0  0  0
106185  1  0  0  0  0
106186  1  0  0  0  0
107114  1  0  0  0  0
108113  1  0  0  0  0
109114  2  0  0  0  0
110113  2  0  0  0  0
111187  1  0  0  0  0
111188  1  0  0  0  0
112189  1  0  0  0  0
112190  1  0  0  0  0
115191  1  0  0  0  0
115192  1  0  0  0  0
115193  1  0  0  0  0
116194  1  0  0  0  0
116195  1  0  0  0  0
116196  1  0  0  0  0
117197  1  0  0  0  0
117198  1  0  0  0  0
117199  1  0  0  0  0
118200  1  0  0  0  0
118201  1  0  0  0  0
118202  1  0  0  0  0
119203  1  0  0  0  0
119204  1  0  0  0  0
119205  1  0  0  0  0
120206  1  0  0  0  0
120207  1  0  0  0  0
120208  1  0  0  0  0
121209  1  0  0  0  0
121210  1  0  0  0  0
121211  1  0  0  0  0
122212  1  0  0  0  0
122213  1  0  0  0  0
122214  1  0  0  0  0
M  END
>  <DRUGBANK_ID>
DB09094

>  <COMMON_NAME>
Podophyllin

>  <CAS_NUMBER>
9000-55-9

>  <UNII>
16902YVY2B

>  <SYNONYMS>
Podofillina; Podophyllum (resin); Podophyllum resin

$$$$
