784
 OpenBabel10282417072D

 33 34  0  0  0  0  0  0  0  0999 V2000
    3.0791    2.3472    0.0000 O   0  0  0  0  0  0  0  0  0  0  0  0
    2.3645    1.1096    0.0000 O   0  0  0  0  0  0  0  0  0  0  0  0
    3.0791   -0.1279    0.0000 N   0  0  0  0  0  0  0  0  0  0  0  0
    2.3645   -1.3654    0.0000 C   0  0  0  0  0  0  0  0  0  0  0  0
    3.0791   -0.9529    0.0000 C   0  0  0  0  0  0  0  0  0  0  0  0
    2.3645   -2.1904    0.0000 C   0  0  0  0  0  0  0  0  0  0  0  0
    3.7935    0.2846    0.0000 C   0  0  0  0  0  0  0  0  0  0  0  0
    3.7935   -1.3654    0.0000 C   0  0  0  0  0  0  0  0  0  0  0  0
    3.0791   -2.6029    0.0000 C   0  0  0  0  0  0  0  0  0  0  0  0
    1.6500   -0.9529    0.0000 C   0  0  0  0  0  0  0  0  0  0  0  0
    3.7935   -2.1904    0.0000 C   0  0  0  0  0  0  0  0  0  0  0  0
    3.7935    1.1096    0.0000 C   0  0  0  0  0  0  0  0  0  0  0  0
    1.6500   -2.6029    0.0000 C   0  0  0  0  0  0  0  0  0  0  0  0
    4.5080   -0.1279    0.0000 C   0  0  0  0  0  0  0  0  0  0  0  0
    4.5080    1.5222    0.0000 C   0  0  0  0  0  0  0  0  0  0  0  0
    5.2224    0.2846    0.0000 C   0  0  0  0  0  0  0  0  0  0  0  0
    5.2224    1.1096    0.0000 C   0  0  0  0  0  0  0  0  0  0  0  0
    3.0791    1.5222    0.0000 C   0  0  0  0  0  0  0  0  0  0  0  0
    3.8906    2.8157    0.0000 H   0  0  0  0  0  0  0  0  0  0  0  0
    2.2265    0.3643    0.0000 H   0  0  0  0  0  0  0  0  0  0  0  0
    4.6872   -0.8494    0.0000 H   0  0  0  0  0  0  0  0  0  0  0  0
    3.0792   -3.6349    0.0000 H   0  0  0  0  0  0  0  0  0  0  0  0
    1.6500    0.1171    0.0000 H   0  0  0  0  0  0  0  0  0  0  0  0
    0.7234   -1.4879    0.0000 H   0  0  0  0  0  0  0  0  0  0  0  0
    0.7233   -0.4179    0.0000 H   0  0  0  0  0  0  0  0  0  0  0  0
    4.6872   -2.7064    0.0000 H   0  0  0  0  0  0  0  0  0  0  0  0
    0.7234   -2.0679    0.0000 H   0  0  0  0  0  0  0  0  0  0  0  0
    1.6500   -3.6729    0.0000 H   0  0  0  0  0  0  0  0  0  0  0  0
    0.7233   -3.1379    0.0000 H   0  0  0  0  0  0  0  0  0  0  0  0
    4.5080   -1.1599    0.0000 H   0  0  0  0  0  0  0  0  0  0  0  0
    4.5080    2.5542    0.0000 H   0  0  0  0  0  0  0  0  0  0  0  0
    6.1161   -0.2314    0.0000 H   0  0  0  0  0  0  0  0  0  0  0  0
    6.1162    1.6255    0.0000 H   0  0  0  0  0  0  0  0  0  0  0  0
  1 18  1  0  0  0  0
  1 19  1  0  0  0  0
  2 18  2  0  0  0  0
  3  5  1  0  0  0  0
  3  7  1  0  0  0  0
  3 20  1  0  0  0  0
  4  5  1  0  0  0  0
  4  6  2  0  0  0  0
  4 10  1  0  0  0  0
  5  8  2  0  0  0  0
  6  9  1  0  0  0  0
  6 13  1  0  0  0  0
  7 12  1  0  0  0  0
  7 14  2  0  0  0  0
  8 11  1  0  0  0  0
  8 21  1  0  0  0  0
  9 11  2  0  0  0  0
  9 22  1  0  0  0  0
 10 23  1  0  0  0  0
 10 24  1  0  0  0  0
 10 25  1  0  0  0  0
 11 26  1  0  0  0  0
 12 15  2  0  0  0  0
 12 18  1  0  0  0  0
 13 27  1  0  0  0  0
 13 28  1  0  0  0  0
 13 29  1  0  0  0  0
 14 16  1  0  0  0  0
 14 30  1  0  0  0  0
 15 17  1  0  0  0  0
 15 31  1  0  0  0  0
 16 17  2  0  0  0  0
 16 32  1  0  0  0  0
 17 33  1  0  0  0  0
M  END
>  <DRUGBANK_ID>
DB00784

>  <SECONDARY_ACCESSION_NUMBERS>
APRD00730

>  <COMMON_NAME>
Mefenamic acid

>  <CAS_NUMBER>
61-68-7

>  <UNII>
367589PJ2C

>  <SYNONYMS>
Acide méfénamique; ácido mefenámico; Acidum mefenamicum; Mefenamic acid; Mefenaminsäure; N-(2,3-xylyl)-2-aminobenzoic acid; N-2,3-xylylanthranilic acid

$$$$
