
 OpenBabel10282417072D

 51 52  0  0  0  0  0  0  0  0999 V2000
   -1.1451   -1.2378    0.0000 C   0  0  0  0  0  0  0  0  0  0  0  0
   -1.8606   -1.6492    0.0000 N   0  0  0  0  0  0  0  0  0  0  0  0
   -0.5742   -1.5688    0.0000 O   0  0  0  0  0  0  0  0  0  0  0  0
   -2.5738   -1.2337    0.0000 N   0  0  0  0  0  0  0  0  0  0  0  0
   -1.8626   -2.4746    0.0000 C   0  0  0  0  0  0  0  0  0  0  0  0
   -2.5781   -2.8862    0.0000 C   0  0  0  0  0  0  0  0  0  0  0  0
   -2.5801   -3.7115    0.0000 O   0  0  0  0  0  0  0  0  0  0  0  0
   -3.1489   -2.5550    0.0000 O   0  0  0  0  0  0  0  0  0  0  0  0
   -1.1431   -0.4123    0.0000 C   0  0  0  0  0  0  0  0  0  0  0  0
   -0.4276   -0.0009    0.0000 C   0  0  2  0  0  0  0  0  0  0  0  0
   -1.1562    0.4199    0.0000 O   0  0  0  0  0  0  0  0  0  0  0  0
   -0.4257    0.8244    0.0000 C   0  0  0  0  0  0  0  0  0  0  0  0
    0.2898    1.2360    0.0000 N   0  0  0  0  0  0  0  0  0  0  0  0
   -0.9965    1.1556    0.0000 O   0  0  0  0  0  0  0  0  0  0  0  0
    1.0046    0.8232    0.0000 C   0  0  0  0  0  0  0  0  0  0  0  0
    0.2893    2.0614    0.0000 C   0  0  0  0  0  0  0  0  0  0  0  0
   -0.4255    2.4740    0.0000 C   0  0  0  0  0  0  0  0  0  0  0  0
   -0.4255    3.2991    0.0000 C   0  0  0  0  0  0  0  0  0  0  0  0
   -1.1399    3.7115    0.0000 C   0  0  0  0  0  0  0  0  0  0  0  0
   -1.8543    3.2991    0.0000 C   0  0  0  0  0  0  0  0  0  0  0  0
   -1.8543    2.4740    0.0000 C   0  0  0  0  0  0  0  0  0  0  0  0
   -1.1399    2.0616    0.0000 C   0  0  0  0  0  0  0  0  0  0  0  0
    1.7196    1.2356    0.0000 C   0  0  0  0  0  0  0  0  0  0  0  0
    1.7200    2.0605    0.0000 C   0  0  0  0  0  0  0  0  0  0  0  0
    2.4347    2.4726    0.0000 C   0  0  0  0  0  0  0  0  0  0  0  0
    3.1489    2.0598    0.0000 C   0  0  0  0  0  0  0  0  0  0  0  0
    3.1485    1.2349    0.0000 C   0  0  0  0  0  0  0  0  0  0  0  0
    2.4339    0.8227    0.0000 C   0  0  0  0  0  0  0  0  0  0  0  0
   -2.5719   -0.6837    0.0000 H   0  0  0  0  0  0  0  0  0  0  0  0
   -3.0511   -1.5068    0.0000 H   0  0  0  0  0  0  0  0  0  0  0  0
    0.0480   -0.2768    0.0000 H   0  0  0  0  0  0  0  0  0  0  0  0
   -0.9370   -3.0114    0.0000 H   0  0  0  0  0  0  0  0  0  0  0  0
   -1.8645   -3.5446    0.0000 H   0  0  0  0  0  0  0  0  0  0  0  0
   -3.3927   -4.1780    0.0000 H   0  0  0  0  0  0  0  0  0  0  0  0
   -2.0686    0.1246    0.0000 H   0  0  0  0  0  0  0  0  0  0  0  0
   -1.1410    0.6577    0.0000 H   0  0  0  0  0  0  0  0  0  0  0  0
   -1.1561    1.3899    0.0000 H   0  0  0  0  0  0  0  0  0  0  0  0
    1.0043   -0.2468    0.0000 H   0  0  0  0  0  0  0  0  0  0  0  0
    1.9311    0.2879    0.0000 H   0  0  0  0  0  0  0  0  0  0  0  0
    1.2158    2.5967    0.0000 H   0  0  0  0  0  0  0  0  0  0  0  0
    0.2891    3.1314    0.0000 H   0  0  0  0  0  0  0  0  0  0  0  0
    0.4682    3.8151    0.0000 H   0  0  0  0  0  0  0  0  0  0  0  0
   -1.1399    4.7435    0.0000 H   0  0  0  0  0  0  0  0  0  0  0  0
   -2.7480    3.8151    0.0000 H   0  0  0  0  0  0  0  0  0  0  0  0
   -2.7480    1.9580    0.0000 H   0  0  0  0  0  0  0  0  0  0  0  0
   -1.1399    1.0296    0.0000 H   0  0  0  0  0  0  0  0  0  0  0  0
    0.8265    2.5770    0.0000 H   0  0  0  0  0  0  0  0  0  0  0  0
    2.4352    3.5046    0.0000 H   0  0  0  0  0  0  0  0  0  0  0  0
    4.0429    2.5754    0.0000 H   0  0  0  0  0  0  0  0  0  0  0  0
    4.0420    0.7185    0.0000 H   0  0  0  0  0  0  0  0  0  0  0  0
    2.4334   -0.2093    0.0000 H   0  0  0  0  0  0  0  0  0  0  0  0
  1  2  1  0  0  0  0
  1  3  2  0  0  0  0
  1  9  1  0  0  0  0
  2  4  1  0  0  0  0
  5  2  1  0  0  0  0
  5  6  1  0  0  0  0
  5 32  1  0  0  0  0
  5 33  1  0  0  0  0
  6  7  1  0  0  0  0
  6  8  2  0  0  0  0
  7 34  1  0  0  0  0
  9 35  1  0  0  0  0
  9 36  1  0  0  0  0
 10  9  1  0  0  0  0
 10 11  1  0  0  0  0
 10 12  1  0  0  0  0
 10 31  1  1  0  0  0
 11 37  1  0  0  0  0
 12 13  1  0  0  0  0
 12 14  2  0  0  0  0
 15 13  1  0  0  0  0
 15 23  1  0  0  0  0
 15 38  1  0  0  0  0
 15 39  1  0  0  0  0
 16 13  1  0  0  0  0
 16 17  1  0  0  0  0
 16 40  1  0  0  0  0
 16 41  1  0  0  0  0
 17 18  2  0  0  0  0
 17 22  1  0  0  0  0
 18 19  1  0  0  0  0
 18 42  1  0  0  0  0
 19 20  2  0  0  0  0
 19 43  1  0  0  0  0
 20 21  1  0  0  0  0
 20 44  1  0  0  0  0
 21 22  2  0  0  0  0
 21 45  1  0  0  0  0
 22 46  1  0  0  0  0
 23 24  2  0  0  0  0
 23 28  1  0  0  0  0
 24 25  1  0  0  0  0
 24 47  1  0  0  0  0
 25 26  2  0  0  0  0
 25 48  1  0  0  0  0
 26 27  1  0  0  0  0
 26 49  1  0  0  0  0
 27 28  2  0  0  0  0
 27 50  1  0  0  0  0
 28 51  1  0  0  0  0
 29  4  1  0  0  0  0
 30  4  1  0  0  0  0
M  END
>  <DRUGBANK_ID>
DB08229

>  <COMMON_NAME>
[N-(3-dibenzylcarbamoyl-oxiranecarbonyl)-hydrazino]-acetic acid

$$$$
