
 OpenBabel10282417072D

 47 46  0  0  0  0  0  0  0  0999 V2000
   -4.8395   -2.4454    0.0000 C   0  0  0  0  0  0  0  0  0  0  0  0
    3.7342   -2.4454    0.0000 C   0  0  0  0  0  0  0  0  0  0  0  0
   -1.9816    0.8546    0.0000 C   0  0  0  0  0  0  0  0  0  0  0  0
   -4.1250   -2.8579    0.0000 C   0  0  0  0  0  0  0  0  0  0  0  0
    3.0197   -2.8579    0.0000 C   0  0  0  0  0  0  0  0  0  0  0  0
   -1.9816    0.0296    0.0000 C   0  0  0  0  0  0  0  0  0  0  0  0
   -3.4105   -2.4454    0.0000 C   0  0  0  0  0  0  0  0  0  0  0  0
    2.3052   -2.4454    0.0000 C   0  0  0  0  0  0  0  0  0  0  0  0
   -1.2671   -0.3829    0.0000 C   0  0  0  0  0  0  0  0  0  0  0  0
   -1.2671   -2.8579    0.0000 C   0  0  0  0  0  0  0  0  0  0  0  0
    0.1618   -2.8579    0.0000 C   0  0  0  0  0  0  0  0  0  0  0  0
   -0.5526   -2.4454    0.0000 C   0  0  0  0  0  0  0  0  0  0  0  0
   -2.6961   -2.8579    0.0000 C   0  0  0  0  0  0  0  0  0  0  0  0
    1.5908   -2.8579    0.0000 C   0  0  0  0  0  0  0  0  0  0  0  0
   -1.2671   -1.2079    0.0000 C   0  0  0  0  0  0  0  0  0  0  0  0
   -2.6961   -3.6829    0.0000 O   0  0  0  0  0  0  0  0  0  0  0  0
    1.5908   -3.6829    0.0000 O   0  0  0  0  0  0  0  0  0  0  0  0
   -1.9816   -1.6204    0.0000 O   0  0  0  0  0  0  0  0  0  0  0  0
   -1.9816   -2.4454    0.0000 O   0  0  0  0  0  0  0  0  0  0  0  0
    0.8763   -2.4454    0.0000 O   0  0  0  0  0  0  0  0  0  0  0  0
   -0.5526   -1.6204    0.0000 O   0  0  0  0  0  0  0  0  0  0  0  0
   -4.8395   -1.3754    0.0000 H   0  0  0  0  0  0  0  0  0  0  0  0
   -5.7661   -2.9804    0.0000 H   0  0  0  0  0  0  0  0  0  0  0  0
   -5.7662   -1.9104    0.0000 H   0  0  0  0  0  0  0  0  0  0  0  0
    4.6608   -2.9804    0.0000 H   0  0  0  0  0  0  0  0  0  0  0  0
    3.7342   -1.3754    0.0000 H   0  0  0  0  0  0  0  0  0  0  0  0
    4.6609   -1.9104    0.0000 H   0  0  0  0  0  0  0  0  0  0  0  0
   -1.0550    1.3896    0.0000 H   0  0  0  0  0  0  0  0  0  0  0  0
   -2.9082    1.3896    0.0000 H   0  0  0  0  0  0  0  0  0  0  0  0
   -1.9816    1.9246    0.0000 H   0  0  0  0  0  0  0  0  0  0  0  0
   -4.1250   -3.9279    0.0000 H   0  0  0  0  0  0  0  0  0  0  0  0
   -3.1984   -3.3929    0.0000 H   0  0  0  0  0  0  0  0  0  0  0  0
    3.0197   -3.9279    0.0000 H   0  0  0  0  0  0  0  0  0  0  0  0
    2.0931   -3.3929    0.0000 H   0  0  0  0  0  0  0  0  0  0  0  0
   -2.9082   -0.5054    0.0000 H   0  0  0  0  0  0  0  0  0  0  0  0
   -1.9816   -1.0404    0.0000 H   0  0  0  0  0  0  0  0  0  0  0  0
   -3.4105   -1.3754    0.0000 H   0  0  0  0  0  0  0  0  0  0  0  0
   -2.4838   -1.9104    0.0000 H   0  0  0  0  0  0  0  0  0  0  0  0
    2.3052   -1.3754    0.0000 H   0  0  0  0  0  0  0  0  0  0  0  0
    1.3785   -1.9104    0.0000 H   0  0  0  0  0  0  0  0  0  0  0  0
   -0.3405    0.1521    0.0000 H   0  0  0  0  0  0  0  0  0  0  0  0
   -0.3405   -0.9179    0.0000 H   0  0  0  0  0  0  0  0  0  0  0  0
   -1.2671   -3.9279    0.0000 H   0  0  0  0  0  0  0  0  0  0  0  0
   -2.1937   -3.3929    0.0000 H   0  0  0  0  0  0  0  0  0  0  0  0
    0.1618   -3.9279    0.0000 H   0  0  0  0  0  0  0  0  0  0  0  0
    1.0884   -3.3929    0.0000 H   0  0  0  0  0  0  0  0  0  0  0  0
    0.3741   -1.9104    0.0000 H   0  0  0  0  0  0  0  0  0  0  0  0
  1 22  1  0  0  0  0
  1 23  1  0  0  0  0
  1 24  1  0  0  0  0
  2 25  1  0  0  0  0
  2 26  1  0  0  0  0
  2 27  1  0  0  0  0
  3 28  1  0  0  0  0
  3 29  1  0  0  0  0
  3 30  1  0  0  0  0
  4  1  1  0  0  0  0
  4 31  1  0  0  0  0
  4 32  1  0  0  0  0
  5  2  1  0  0  0  0
  5 33  1  0  0  0  0
  5 34  1  0  0  0  0
  6  3  1  0  0  0  0
  6 35  1  0  0  0  0
  6 36  1  0  0  0  0
  7  4  1  0  0  0  0
  7 37  1  0  0  0  0
  7 38  1  0  0  0  0
  8  5  1  0  0  0  0
  8 39  1  0  0  0  0
  8 40  1  0  0  0  0
  9  6  1  0  0  0  0
  9 41  1  0  0  0  0
  9 42  1  0  0  0  0
 10 43  1  0  0  0  0
 10 44  1  0  0  0  0
 11 45  1  0  0  0  0
 11 46  1  0  0  0  0
 12 10  1  0  0  0  0
 12 11  1  0  0  0  0
 12 47  1  0  0  0  0
 13  7  1  0  0  0  0
 14  8  1  0  0  0  0
 15  9  1  0  0  0  0
 16 13  2  0  0  0  0
 17 14  2  0  0  0  0
 18 15  2  0  0  0  0
 19 10  1  0  0  0  0
 19 13  1  0  0  0  0
 20 11  1  0  0  0  0
 20 14  1  0  0  0  0
 21 12  1  0  0  0  0
 21 15  1  0  0  0  0
M  END
>  <DRUGBANK_ID>
DB12709

>  <COMMON_NAME>
Tributyrin

>  <CAS_NUMBER>
60-01-5

>  <UNII>
S05LZ624MF

$$$$
