
 OpenBabel10282417072D

224227  0  0  0  0  0  0  0  0999 V2000
    4.6647  -11.3735    0.0000 S   0  0  0  0  0  0  0  0  0  0  0  0
   -3.5864    9.6430    0.0000 O   0  0  0  0  0  0  0  0  0  0  0  0
   -2.7085    5.4296    0.0000 O   0  0  0  0  0  0  0  0  0  0  0  0
   -1.1034    7.9627    0.0000 O   0  0  0  0  0  0  0  0  0  0  0  0
   -1.0533   12.1760    0.0000 O   0  0  0  0  0  0  0  0  0  0  0  0
   -2.9593    4.6522    0.0000 O   0  0  0  0  0  0  0  0  0  0  0  0
    5.4422   -9.0161    0.0000 O   0  0  0  0  0  0  0  0  0  0  0  0
    5.6428   -6.0316    0.0000 O   0  0  0  0  0  0  0  0  0  0  0  0
   -3.6114   -4.3011    0.0000 O   0  0  0  0  0  0  0  0  0  0  0  0
   -5.0158   -1.6677    0.0000 O   0  0  0  0  0  0  0  0  0  0  0  0
   -4.9155    7.9125    0.0000 O   0  0  0  0  0  0  0  0  0  0  0  0
   -0.9278   -2.9969    0.0000 O   0  0  0  0  0  0  0  0  0  0  0  0
    0.4764   -5.6554    0.0000 O   0  0  0  0  0  0  0  0  0  0  0  0
   -3.4358    0.8652    0.0000 O   0  0  0  0  0  0  0  0  0  0  0  0
   -3.1850    1.6677    0.0000 O   0  0  0  0  0  0  0  0  0  0  0  0
    3.1850   -4.3512    0.0000 O   0  0  0  0  0  0  0  0  0  0  0  0
    2.4326   -8.9157    0.0000 O   0  0  0  0  0  0  0  0  0  0  0  0
   -1.5047   -0.1881    0.0000 O   0  0  0  0  0  0  0  0  0  0  0  0
   -5.9187    2.5455    0.0000 O   0  0  0  0  0  0  0  0  0  0  0  0
   -1.7305   10.8719    0.0000 N   0  0  0  0  0  0  0  0  0  0  0  0
   -2.1819    7.0096    0.0000 N   0  0  0  0  0  0  0  0  0  0  0  0
   -2.2320    9.2166    0.0000 N   0  0  0  0  0  0  0  0  0  0  0  0
   -1.3292    4.9782    0.0000 N   0  0  0  0  0  0  0  0  0  0  0  0
    4.5895   -6.9846    0.0000 N   0  0  0  0  0  0  0  0  0  0  0  0
   -2.6584    3.2477    0.0000 N   0  0  0  0  0  0  0  0  0  0  0  0
   -3.6616   -2.1192    0.0000 N   0  0  0  0  0  0  0  0  0  0  0  0
    4.0628   -8.5645    0.0000 N   0  0  0  0  0  0  0  0  0  0  0  0
    0.5015    8.3138    0.0000 N   0  0  0  0  0  0  0  0  0  0  0  0
   -0.6270   -4.4014    0.0000 N   0  0  0  0  0  0  0  0  0  0  0  0
   -2.5330   -3.3480    0.0000 N   0  0  0  0  0  0  0  0  0  0  0  0
   -4.5142   -0.0878    0.0000 N   0  0  0  0  0  0  0  0  0  0  0  0
    3.4860   -5.7557    0.0000 N   0  0  0  0  0  0  0  0  0  0  0  0
   -4.5393    2.1191    0.0000 N   0  0  0  0  0  0  0  0  0  0  0  0
   -4.9907   -5.2039    0.0000 N   0  0  0  0  0  0  0  0  0  0  0  0
    1.5549   -4.6773    0.0000 N   0  0  0  0  0  0  0  0  0  0  0  0
   -5.2165    9.3169    0.0000 N   0  0  0  0  0  0  0  0  0  0  0  0
    5.9689   -5.1788    0.0000 N   0  0  0  0  0  0  0  0  0  0  0  0
    2.7336  -10.3202    0.0000 N   0  0  0  0  0  0  0  0  0  0  0  0
    1.5799    9.2668    0.0000 N   0  0  0  0  0  0  0  0  0  0  0  0
    6.5205   -3.9500    0.0000 N   0  0  0  0  0  0  0  0  0  0  0  0
    1.8809    7.8623    0.0000 N   0  0  0  0  0  0  0  0  0  0  0  0
   -1.8057    1.2163    0.0000 N   0  0  0  0  0  0  0  0  0  0  0  0
   -6.9721    1.5925    0.0000 N   0  0  0  0  0  0  0  0  0  0  0  0
   -2.5079   10.6211    0.0000 C   0  0  1  0  0  0  0  0  0  0  0  0
   -1.6301    6.4078    0.0000 C   0  0  1  0  0  0  0  0  0  0  0  0
   -3.0095   11.2982    0.0000 C   0  0  0  0  0  0  0  0  0  0  0  0
   -2.4829    8.4141    0.0000 C   0  0  1  0  0  0  0  0  0  0  0  0
   -1.5799    4.2008    0.0000 C   0  0  1  0  0  0  0  0  0  0  0  0
   -1.0282    3.5737    0.0000 C   0  0  0  0  0  0  0  0  0  0  0  0
   -0.8275    6.5582    0.0000 C   0  0  0  0  0  0  0  0  0  0  0  0
   -2.5079   11.9503    0.0000 C   0  0  0  0  0  0  0  0  0  0  0  0
   -0.2257    3.7494    0.0000 C   0  0  0  0  0  0  0  0  0  0  0  0
   -2.7837    9.8186    0.0000 C   0  0  0  0  0  0  0  0  0  0  0  0
   -3.2854    8.2385    0.0000 C   0  0  0  0  0  0  0  0  0  0  0  0
   -1.8809    5.6051    0.0000 C   0  0  0  0  0  0  0  0  0  0  0  0
   -1.9310    7.8121    0.0000 C   0  0  0  0  0  0  0  0  0  0  0  0
   -0.5517    7.3608    0.0000 C   0  0  0  0  0  0  0  0  0  0  0  0
   -1.7305   11.6995    0.0000 C   0  0  0  0  0  0  0  0  0  0  0  0
    5.9438   -7.4360    0.0000 C   0  0  0  0  0  0  0  0  0  0  0  0
    5.1413   -7.6116    0.0000 C   0  0  1  0  0  0  0  0  0  0  0  0
   -2.4075    4.0252    0.0000 C   0  0  0  0  0  0  0  0  0  0  0  0
    6.4955   -8.0380    0.0000 C   0  0  0  0  0  0  0  0  0  0  0  0
   -3.8371    8.8655    0.0000 C   0  0  0  0  0  0  0  0  0  0  0  0
    0.0250    4.5519    0.0000 C   0  0  0  0  0  0  0  0  0  0  0  0
    0.3260    3.1474    0.0000 C   0  0  0  0  0  0  0  0  0  0  0  0
    0.2508    7.5363    0.0000 C   0  0  0  0  0  0  0  0  0  0  0  0
   -3.9123   -2.8966    0.0000 C   0  0  1  0  0  0  0  0  0  0  0  0
   -4.7149   -3.0722    0.0000 C   0  0  0  0  0  0  0  0  0  0  0  0
    0.1755   -4.2259    0.0000 C   0  0  1  0  0  0  0  0  0  0  0  0
   -3.9375   -0.7147    0.0000 C   0  0  1  0  0  0  0  0  0  0  0  0
    4.8905   -8.3890    0.0000 C   0  0  0  0  0  0  0  0  0  0  0  0
    0.4514   -3.4484    0.0000 C   0  0  0  0  0  0  0  0  0  0  0  0
   -4.9907   -3.8497    0.0000 C   0  0  0  0  0  0  0  0  0  0  0  0
    4.2885   -5.5801    0.0000 C   0  0  2  0  0  0  0  0  0  0  0  0
    6.2448   -8.8405    0.0000 C   0  0  0  0  0  0  0  0  0  0  0  0
    7.3232   -7.8875    0.0000 C   0  0  0  0  0  0  0  0  0  0  0  0
    4.8403   -6.2071    0.0000 C   0  0  0  0  0  0  0  0  0  0  0  0
   -3.3606   -3.5237    0.0000 C   0  0  0  0  0  0  0  0  0  0  0  0
   -1.9812   -3.9750    0.0000 C   0  0  2  0  0  0  0  0  0  0  0  0
   -3.1348   -0.5392    0.0000 C   0  0  0  0  0  0  0  0  0  0  0  0
   -4.2132   -1.4921    0.0000 C   0  0  0  0  0  0  0  0  0  0  0  0
   -3.4609    3.0722    0.0000 C   0  0  0  0  0  0  0  0  0  0  0  0
   -5.7682   -4.1004    0.0000 C   0  0  0  0  0  0  0  0  0  0  0  0
   -4.6647    8.6900    0.0000 C   0  0  0  0  0  0  0  0  0  0  0  0
    3.8120   -9.3420    0.0000 C   0  0  1  0  0  0  0  0  0  0  0  0
   -4.7902    1.3166    0.0000 C   0  0  2  0  0  0  0  0  0  0  0  0
    4.5393   -4.7776    0.0000 C   0  0  0  0  0  0  0  0  0  0  0  0
   -1.1787   -3.7995    0.0000 C   0  0  0  0  0  0  0  0  0  0  0  0
   -5.7682   -4.9532    0.0000 C   0  0  0  0  0  0  0  0  0  0  0  0
   -4.4892   -4.5269    0.0000 C   0  0  0  0  0  0  0  0  0  0  0  0
    0.7523   -4.8528    0.0000 C   0  0  0  0  0  0  0  0  0  0  0  0
   -4.2383    0.7147    0.0000 C   0  0  0  0  0  0  0  0  0  0  0  0
   -0.1002   -2.8214    0.0000 C   0  0  0  0  0  0  0  0  0  0  0  0
    1.2539   -3.2728    0.0000 C   0  0  0  0  0  0  0  0  0  0  0  0
    4.3638   -9.9690    0.0000 C   0  0  0  0  0  0  0  0  0  0  0  0
   -3.7368    2.2696    0.0000 C   0  0  0  0  0  0  0  0  0  0  0  0
   -2.8841    0.2633    0.0000 C   0  0  0  0  0  0  0  0  0  0  0  0
   -5.6177    1.1411    0.0000 C   0  0  0  0  0  0  0  0  0  0  0  0
   -2.2571   -4.7525    0.0000 C   0  0  0  0  0  0  0  0  0  0  0  0
    2.1067   -5.3043    0.0000 C   0  0  0  0  0  0  0  0  0  0  0  0
   -6.4955   -3.6992    0.0000 C   0  0  0  0  0  0  0  0  0  0  0  0
    2.9092   -5.1287    0.0000 C   0  0  0  0  0  0  0  0  0  0  0  0
    5.3669   -4.6272    0.0000 C   0  0  0  0  0  0  0  0  0  0  0  0
   -6.4955   -5.3544    0.0000 C   0  0  0  0  0  0  0  0  0  0  0  0
    2.9844   -9.5176    0.0000 C   0  0  0  0  0  0  0  0  0  0  0  0
    1.3292    8.4893    0.0000 C   0  0  0  0  0  0  0  0  0  0  0  0
    4.1130  -10.7465    0.0000 C   0  0  0  0  0  0  0  0  0  0  0  0
   -7.1977   -4.1004    0.0000 C   0  0  0  0  0  0  0  0  0  0  0  0
   -7.1977   -4.9532    0.0000 C   0  0  0  0  0  0  0  0  0  0  0  0
   -2.0564    0.4389    0.0000 C   0  0  0  0  0  0  0  0  0  0  0  0
    5.6930   -3.8497    0.0000 C   0  0  0  0  0  0  0  0  0  0  0  0
   -6.1695    1.7680    0.0000 C   0  0  0  0  0  0  0  0  0  0  0  0
    6.6962   -4.7525    0.0000 C   0  0  0  0  0  0  0  0  0  0  0  0
    4.4139  -12.1760    0.0000 C   0  0  0  0  0  0  0  0  0  0  0  0
   -1.3040   10.5710    0.0000 H   0  0  0  0  0  0  0  0  0  0  0  0
   -2.6834    6.9093    0.0000 H   0  0  0  0  0  0  0  0  0  0  0  0
   -1.7305    9.3169    0.0000 H   0  0  0  0  0  0  0  0  0  0  0  0
   -0.8275    5.1036    0.0000 H   0  0  0  0  0  0  0  0  0  0  0  0
    4.0879   -7.0849    0.0000 H   0  0  0  0  0  0  0  0  0  0  0  0
   -2.3072    2.8465    0.0000 H   0  0  0  0  0  0  0  0  0  0  0  0
   -3.1599   -1.9938    0.0000 H   0  0  0  0  0  0  0  0  0  0  0  0
    3.7117   -8.1884    0.0000 H   0  0  0  0  0  0  0  0  0  0  0  0
    0.1755    8.6900    0.0000 H   0  0  0  0  0  0  0  0  0  0  0  0
   -0.7774   -4.9030    0.0000 H   0  0  0  0  0  0  0  0  0  0  0  0
   -2.3825   -2.8465    0.0000 H   0  0  0  0  0  0  0  0  0  0  0  0
   -5.0158   -0.1881    0.0000 H   0  0  0  0  0  0  0  0  0  0  0  0
    3.3104   -6.2322    0.0000 H   0  0  0  0  0  0  0  0  0  0  0  0
   -4.8905    2.4953    0.0000 H   0  0  0  0  0  0  0  0  0  0  0  0
   -4.8152   -5.6805    0.0000 H   0  0  0  0  0  0  0  0  0  0  0  0
    1.7054   -4.2008    0.0000 H   0  0  0  0  0  0  0  0  0  0  0  0
   -5.0409    9.7935    0.0000 H   0  0  0  0  0  0  0  0  0  0  0  0
   -5.7180    9.2166    0.0000 H   0  0  0  0  0  0  0  0  0  0  0  0
    3.0847  -10.6963    0.0000 H   0  0  0  0  0  0  0  0  0  0  0  0
    2.2320  -10.4205    0.0000 H   0  0  0  0  0  0  0  0  0  0  0  0
    6.8717   -3.5738    0.0000 H   0  0  0  0  0  0  0  0  0  0  0  0
    1.2288    9.6680    0.0000 H   0  0  0  0  0  0  0  0  0  0  0  0
    2.0816    9.3922    0.0000 H   0  0  0  0  0  0  0  0  0  0  0  0
    2.3825    7.9627    0.0000 H   0  0  0  0  0  0  0  0  0  0  0  0
   -2.1568    1.5925    0.0000 H   0  0  0  0  0  0  0  0  0  0  0  0
   -1.3040    1.3166    0.0000 H   0  0  0  0  0  0  0  0  0  0  0  0
   -7.1476    1.1159    0.0000 H   0  0  0  0  0  0  0  0  0  0  0  0
   -7.3232    1.9687    0.0000 H   0  0  0  0  0  0  0  0  0  0  0  0
   -1.7585    9.8574    0.0000 H   0  0  0  0  0  0  0  0  0  0  0  0
   -1.2918    7.4229    0.0000 H   0  0  0  0  0  0  0  0  0  0  0  0
   -4.0795   11.3079    0.0000 H   0  0  0  0  0  0  0  0  0  0  0  0
   -3.4778   12.2603    0.0000 H   0  0  0  0  0  0  0  0  0  0  0  0
   -3.2057    9.2031    0.0000 H   0  0  0  0  0  0  0  0  0  0  0  0
   -0.5323    4.4184    0.0000 H   0  0  0  0  0  0  0  0  0  0  0  0
   -1.3616    2.5570    0.0000 H   0  0  0  0  0  0  0  0  0  0  0  0
   -0.3109    2.7798    0.0000 H   0  0  0  0  0  0  0  0  0  0  0  0
   -0.1280    5.7485    0.0000 H   0  0  0  0  0  0  0  0  0  0  0  0
    0.2231    6.7611    0.0000 H   0  0  0  0  0  0  0  0  0  0  0  0
   -2.8257   12.9720    0.0000 H   0  0  0  0  0  0  0  0  0  0  0  0
   -1.7473   12.7029    0.0000 H   0  0  0  0  0  0  0  0  0  0  0  0
    0.8186    3.9824    0.0000 H   0  0  0  0  0  0  0  0  0  0  0  0
   -3.6188    7.2218    0.0000 H   0  0  0  0  0  0  0  0  0  0  0  0
   -4.3336    8.0235    0.0000 H   0  0  0  0  0  0  0  0  0  0  0  0
   -1.2633    8.1599    0.0000 H   0  0  0  0  0  0  0  0  0  0  0  0
   -0.2212    8.3785    0.0000 H   0  0  0  0  0  0  0  0  0  0  0  0
    6.2669   -6.4160    0.0000 H   0  0  0  0  0  0  0  0  0  0  0  0
    6.9886   -7.2051    0.0000 H   0  0  0  0  0  0  0  0  0  0  0  0
    5.4747   -6.5949    0.0000 H   0  0  0  0  0  0  0  0  0  0  0  0
    7.2042   -8.8397    0.0000 H   0  0  0  0  0  0  0  0  0  0  0  0
   -3.5004    9.8811    0.0000 H   0  0  0  0  0  0  0  0  0  0  0  0
   -4.5505    9.6630    0.0000 H   0  0  0  0  0  0  0  0  0  0  0  0
    1.0690    4.7862    0.0000 H   0  0  0  0  0  0  0  0  0  0  0  0
   -0.7000    5.3389    0.0000 H   0  0  0  0  0  0  0  0  0  0  0  0
    0.3441    5.5732    0.0000 H   0  0  0  0  0  0  0  0  0  0  0  0
    0.0043    2.1269    0.0000 H   0  0  0  0  0  0  0  0  0  0  0  0
    1.3706    3.3791    0.0000 H   0  0  0  0  0  0  0  0  0  0  0  0
    1.0489    2.3586    0.0000 H   0  0  0  0  0  0  0  0  0  0  0  0
    0.9700    6.7440    0.0000 H   0  0  0  0  0  0  0  0  0  0  0  0
   -0.0748    6.5170    0.0000 H   0  0  0  0  0  0  0  0  0  0  0  0
   -4.6315   -2.1044    0.0000 H   0  0  0  0  0  0  0  0  0  0  0  0
   -5.4226   -2.2696    0.0000 H   0  0  0  0  0  0  0  0  0  0  0  0
   -5.7655   -3.2752    0.0000 H   0  0  0  0  0  0  0  0  0  0  0  0
   -0.5321   -3.4233    0.0000 H   0  0  0  0  0  0  0  0  0  0  0  0
   -3.6153    0.3056    0.0000 H   0  0  0  0  0  0  0  0  0  0  0  0
    0.7849   -2.4317    0.0000 H   0  0  0  0  0  0  0  0  0  0  0  0
    3.9551   -6.5968    0.0000 H   0  0  0  0  0  0  0  0  0  0  0  0
    5.2008   -9.0748    0.0000 H   0  0  0  0  0  0  0  0  0  0  0  0
    6.9698   -9.6275    0.0000 H   0  0  0  0  0  0  0  0  0  0  0  0
    5.9257   -9.8618    0.0000 H   0  0  0  0  0  0  0  0  0  0  0  0
    8.0153   -8.7035    0.0000 H   0  0  0  0  0  0  0  0  0  0  0  0
    7.6838   -6.8801    0.0000 H   0  0  0  0  0  0  0  0  0  0  0  0
    8.3759   -7.6961    0.0000 H   0  0  0  0  0  0  0  0  0  0  0  0
   -1.6478   -2.9583    0.0000 H   0  0  0  0  0  0  0  0  0  0  0  0
   -2.4120   -1.3282    0.0000 H   0  0  0  0  0  0  0  0  0  0  0  0
   -2.0905   -0.3063    0.0000 H   0  0  0  0  0  0  0  0  0  0  0  0
   -4.1725    3.8713    0.0000 H   0  0  0  0  0  0  0  0  0  0  0  0
   -4.5100    2.8615    0.0000 H   0  0  0  0  0  0  0  0  0  0  0  0
    4.8596   -9.1244    0.0000 H   0  0  0  0  0  0  0  0  0  0  0  0
   -3.7459    1.5496    0.0000 H   0  0  0  0  0  0  0  0  0  0  0  0
    3.8307   -3.9759    0.0000 H   0  0  0  0  0  0  0  0  0  0  0  0
    4.8897   -3.7666    0.0000 H   0  0  0  0  0  0  0  0  0  0  0  0
   -3.4572   -4.5270    0.0000 H   0  0  0  0  0  0  0  0  0  0  0  0
    0.2422   -1.8076    0.0000 H   0  0  0  0  0  0  0  0  0  0  0  0
   -1.1493   -3.0318    0.0000 H   0  0  0  0  0  0  0  0  0  0  0  0
   -0.8070   -2.0180    0.0000 H   0  0  0  0  0  0  0  0  0  0  0  0
    1.9746   -4.0637    0.0000 H   0  0  0  0  0  0  0  0  0  0  0  0
    1.5785   -2.2532    0.0000 H   0  0  0  0  0  0  0  0  0  0  0  0
    2.2992   -3.0441    0.0000 H   0  0  0  0  0  0  0  0  0  0  0  0
    5.4114   -9.7514    0.0000 H   0  0  0  0  0  0  0  0  0  0  0  0
    5.0788  -10.7651    0.0000 H   0  0  0  0  0  0  0  0  0  0  0  0
   -3.6044    1.0545    0.0000 H   0  0  0  0  0  0  0  0  0  0  0  0
   -2.5561    1.2818    0.0000 H   0  0  0  0  0  0  0  0  0  0  0  0
   -5.9543    0.1254    0.0000 H   0  0  0  0  0  0  0  0  0  0  0  0
   -6.6662    0.9276    0.0000 H   0  0  0  0  0  0  0  0  0  0  0  0
   -3.3093   -4.9468    0.0000 H   0  0  0  0  0  0  0  0  0  0  0  0
   -1.5627   -5.5666    0.0000 H   0  0  0  0  0  0  0  0  0  0  0  0
   -2.6149   -5.7609    0.0000 H   0  0  0  0  0  0  0  0  0  0  0  0
    1.7733   -6.3210    0.0000 H   0  0  0  0  0  0  0  0  0  0  0  0
    2.8240   -6.0983    0.0000 H   0  0  0  0  0  0  0  0  0  0  0  0
   -6.5032   -2.6672    0.0000 H   0  0  0  0  0  0  0  0  0  0  0  0
   -6.5032   -6.3864    0.0000 H   0  0  0  0  0  0  0  0  0  0  0  0
    3.0654  -10.9641    0.0000 H   0  0  0  0  0  0  0  0  0  0  0  0
    3.3980   -9.9504    0.0000 H   0  0  0  0  0  0  0  0  0  0  0  0
   -8.0903   -3.5824    0.0000 H   0  0  0  0  0  0  0  0  0  0  0  0
   -8.0903   -5.4712    0.0000 H   0  0  0  0  0  0  0  0  0  0  0  0
    5.1744   -2.9575    0.0000 H   0  0  0  0  0  0  0  0  0  0  0  0
    7.6416   -5.1663    0.0000 H   0  0  0  0  0  0  0  0  0  0  0  0
    3.3699  -12.4102    0.0000 H   0  0  0  0  0  0  0  0  0  0  0  0
    5.1388  -12.9631    0.0000 H   0  0  0  0  0  0  0  0  0  0  0  0
    4.0947  -13.1973    0.0000 H   0  0  0  0  0  0  0  0  0  0  0  0
  1107  1  0  0  0  0
  1114  1  0  0  0  0
  2 53  2  0  0  0  0
  3 55  2  0  0  0  0
  4 56  2  0  0  0  0
  5 58  2  0  0  0  0
  6 61  2  0  0  0  0
  7 71  2  0  0  0  0
  8 77  2  0  0  0  0
  9 78  2  0  0  0  0
 10 81  2  0  0  0  0
 11 84  2  0  0  0  0
 12 88  2  0  0  0  0
 13 91  2  0  0  0  0
 14 92  2  0  0  0  0
 15 96  2  0  0  0  0
 16102  2  0  0  0  0
 17105  2  0  0  0  0
 18110  2  0  0  0  0
 19112  2  0  0  0  0
 20 44  1  0  0  0  0
 20 58  1  0  0  0  0
 20115  1  0  0  0  0
 21 56  1  0  0  0  0
 21116  1  0  0  0  0
 22 53  1  0  0  0  0
 22117  1  0  0  0  0
 23 55  1  0  0  0  0
 23118  1  0  0  0  0
 24 77  1  0  0  0  0
 24119  1  0  0  0  0
 25 61  1  0  0  0  0
 25 82  1  0  0  0  0
 25120  1  0  0  0  0
 26 81  1  0  0  0  0
 26121  1  0  0  0  0
 27 71  1  0  0  0  0
 27122  1  0  0  0  0
 28 66  1  0  0  0  0
 28106  1  0  0  0  0
 28123  1  0  0  0  0
 29 88  1  0  0  0  0
 29124  1  0  0  0  0
 30 78  1  0  0  0  0
 30125  1  0  0  0  0
 31 92  1  0  0  0  0
 31126  1  0  0  0  0
 32102  1  0  0  0  0
 32127  1  0  0  0  0
 33 96  1  0  0  0  0
 33128  1  0  0  0  0
 34 89  1  0  0  0  0
 34 90  1  0  0  0  0
 34129  1  0  0  0  0
 35 91  1  0  0  0  0
 35100  1  0  0  0  0
 35130  1  0  0  0  0
 36 84  1  0  0  0  0
 36131  1  0  0  0  0
 36132  1  0  0  0  0
 37103  1  0  0  0  0
 37113  2  0  0  0  0
 38105  1  0  0  0  0
 38133  1  0  0  0  0
 38134  1  0  0  0  0
 39106  1  0  0  0  0
 39136  1  0  0  0  0
 39137  1  0  0  0  0
 40111  1  0  0  0  0
 40113  1  0  0  0  0
 40135  1  0  0  0  0
 41106  2  0  0  0  0
 41138  1  0  0  0  0
 42110  1  0  0  0  0
 42139  1  0  0  0  0
 42140  1  0  0  0  0
 43112  1  0  0  0  0
 43141  1  0  0  0  0
 43142  1  0  0  0  0
 44 46  1  0  0  0  0
 44 53  1  0  0  0  0
 44143  1  1  0  0  0
 45 21  1  0  0  0  0
 45 50  1  0  0  0  0
 45 55  1  0  0  0  0
 45144  1  6  0  0  0
 46 51  1  0  0  0  0
 46145  1  0  0  0  0
 46146  1  0  0  0  0
 47 22  1  0  0  0  0
 47 54  1  0  0  0  0
 47 56  1  0  0  0  0
 47147  1  1  0  0  0
 48 23  1  0  0  0  0
 48 49  1  0  0  0  0
 48 61  1  0  0  0  0
 48148  1  6  0  0  0
 49 52  1  0  0  0  0
 49149  1  0  0  0  0
 49150  1  0  0  0  0
 50 57  1  0  0  0  0
 50151  1  0  0  0  0
 50152  1  0  0  0  0
 51 58  1  0  0  0  0
 51153  1  0  0  0  0
 51154  1  0  0  0  0
 52 64  1  0  0  0  0
 52 65  1  0  0  0  0
 52155  1  0  0  0  0
 54 63  1  0  0  0  0
 54156  1  0  0  0  0
 54157  1  0  0  0  0
 57 66  1  0  0  0  0
 57158  1  0  0  0  0
 57159  1  0  0  0  0
 59 60  1  0  0  0  0
 59 62  1  0  0  0  0
 59160  1  0  0  0  0
 59161  1  0  0  0  0
 60 24  1  0  0  0  0
 60 71  1  0  0  0  0
 60162  1  6  0  0  0
 62 75  1  0  0  0  0
 62 76  1  0  0  0  0
 62163  1  0  0  0  0
 63 84  1  0  0  0  0
 63164  1  0  0  0  0
 63165  1  0  0  0  0
 64166  1  0  0  0  0
 64167  1  0  0  0  0
 64168  1  0  0  0  0
 65169  1  0  0  0  0
 65170  1  0  0  0  0
 65171  1  0  0  0  0
 66172  1  0  0  0  0
 66173  1  0  0  0  0
 67 26  1  0  0  0  0
 67 68  1  0  0  0  0
 67 78  1  0  0  0  0
 67174  1  1  0  0  0
 68 73  1  0  0  0  0
 68175  1  0  0  0  0
 68176  1  0  0  0  0
 69 29  1  0  0  0  0
 69 72  1  0  0  0  0
 69 91  1  0  0  0  0
 69177  1  6  0  0  0
 70 31  1  0  0  0  0
 70 80  1  0  0  0  0
 70 81  1  0  0  0  0
 70178  1  6  0  0  0
 72 93  1  0  0  0  0
 72 94  1  0  0  0  0
 72179  1  0  0  0  0
 73 83  1  0  0  0  0
 73 90  2  0  0  0  0
 74 32  1  0  0  0  0
 74 77  1  0  0  0  0
 74 87  1  0  0  0  0
 74180  1  6  0  0  0
 75181  1  0  0  0  0
 75182  1  0  0  0  0
 75183  1  0  0  0  0
 76184  1  0  0  0  0
 76185  1  0  0  0  0
 76186  1  0  0  0  0
 79 30  1  0  0  0  0
 79 88  1  0  0  0  0
 79 99  1  0  0  0  0
 79187  1  1  0  0  0
 80 97  1  0  0  0  0
 80188  1  0  0  0  0
 80189  1  0  0  0  0
 82 96  1  0  0  0  0
 82190  1  0  0  0  0
 82191  1  0  0  0  0
 83 89  1  0  0  0  0
 83101  2  0  0  0  0
 85 27  1  0  0  0  0
 85 95  1  0  0  0  0
 85105  1  0  0  0  0
 85192  1  6  0  0  0
 86 33  1  0  0  0  0
 86 92  1  0  0  0  0
 86 98  1  0  0  0  0
 86193  1  1  0  0  0
 87103  1  0  0  0  0
 87194  1  0  0  0  0
 87195  1  0  0  0  0
 89104  2  0  0  0  0
 90196  1  0  0  0  0
 93197  1  0  0  0  0
 93198  1  0  0  0  0
 93199  1  0  0  0  0
 94200  1  0  0  0  0
 94201  1  0  0  0  0
 94202  1  0  0  0  0
 95107  1  0  0  0  0
 95203  1  0  0  0  0
 95204  1  0  0  0  0
 97110  1  0  0  0  0
 97205  1  0  0  0  0
 97206  1  0  0  0  0
 98112  1  0  0  0  0
 98207  1  0  0  0  0
 98208  1  0  0  0  0
 99209  1  0  0  0  0
 99210  1  0  0  0  0
 99211  1  0  0  0  0
100102  1  0  0  0  0
100212  1  0  0  0  0
100213  1  0  0  0  0
101108  1  0  0  0  0
101214  1  0  0  0  0
103111  2  0  0  0  0
104109  1  0  0  0  0
104215  1  0  0  0  0
107216  1  0  0  0  0
107217  1  0  0  0  0
108109  2  0  0  0  0
108218  1  0  0  0  0
109219  1  0  0  0  0
111220  1  0  0  0  0
113221  1  0  0  0  0
114222  1  0  0  0  0
114223  1  0  0  0  0
114224  1  0  0  0  0
M  END
>  <DRUGBANK_ID>
DB11724

>  <COMMON_NAME>
Bombesin

>  <CAS_NUMBER>
31362-50-2

>  <UNII>
PX9AZU7QPK

$$$$
