676
 OpenBabel10282417072D

 28 29  0  0  0  0  0  0  0  0999 V2000
    3.0791    0.2063    0.0000 O   0  0  0  0  0  0  0  0  0  0  0  0
    1.6500    0.2063    0.0000 O   0  0  0  0  0  0  0  0  0  0  0  0
    3.7935    1.4438    0.0000 C   0  0  0  0  0  0  0  0  0  0  0  0
    3.0791    1.0313    0.0000 C   0  0  0  0  0  0  0  0  0  0  0  0
    2.3645   -1.0313    0.0000 C   0  0  0  0  0  0  0  0  0  0  0  0
    3.7935    2.2688    0.0000 C   0  0  0  0  0  0  0  0  0  0  0  0
    4.5080    1.0313    0.0000 C   0  0  0  0  0  0  0  0  0  0  0  0
    2.3645   -0.2063    0.0000 C   0  0  0  0  0  0  0  0  0  0  0  0
    4.5080    2.6813    0.0000 C   0  0  0  0  0  0  0  0  0  0  0  0
    5.2224    1.4438    0.0000 C   0  0  0  0  0  0  0  0  0  0  0  0
    3.0791   -1.4438    0.0000 C   0  0  0  0  0  0  0  0  0  0  0  0
    1.6500   -1.4438    0.0000 C   0  0  0  0  0  0  0  0  0  0  0  0
    5.2224    2.2688    0.0000 C   0  0  0  0  0  0  0  0  0  0  0  0
    3.0791   -2.2688    0.0000 C   0  0  0  0  0  0  0  0  0  0  0  0
    1.6500   -2.2688    0.0000 C   0  0  0  0  0  0  0  0  0  0  0  0
    2.3645   -2.6813    0.0000 C   0  0  0  0  0  0  0  0  0  0  0  0
    2.1524    1.5663    0.0000 H   0  0  0  0  0  0  0  0  0  0  0  0
    3.0791    2.1013    0.0000 H   0  0  0  0  0  0  0  0  0  0  0  0
    2.8998    2.7848    0.0000 H   0  0  0  0  0  0  0  0  0  0  0  0
    4.5080   -0.0007    0.0000 H   0  0  0  0  0  0  0  0  0  0  0  0
    4.5080    3.7133    0.0000 H   0  0  0  0  0  0  0  0  0  0  0  0
    6.1161    0.9278    0.0000 H   0  0  0  0  0  0  0  0  0  0  0  0
    3.9728   -0.9278    0.0000 H   0  0  0  0  0  0  0  0  0  0  0  0
    0.7563   -0.9278    0.0000 H   0  0  0  0  0  0  0  0  0  0  0  0
    6.1161    2.7848    0.0000 H   0  0  0  0  0  0  0  0  0  0  0  0
    3.9728   -2.7848    0.0000 H   0  0  0  0  0  0  0  0  0  0  0  0
    0.7563   -2.7848    0.0000 H   0  0  0  0  0  0  0  0  0  0  0  0
    2.3645   -3.7133    0.0000 H   0  0  0  0  0  0  0  0  0  0  0  0
  1  4  1  0  0  0  0
  1  8  1  0  0  0  0
  2  8  2  0  0  0  0
  3  4  1  0  0  0  0
  3  6  2  0  0  0  0
  3  7  1  0  0  0  0
  4 17  1  0  0  0  0
  4 18  1  0  0  0  0
  5  8  1  0  0  0  0
  5 11  2  0  0  0  0
  5 12  1  0  0  0  0
  6  9  1  0  0  0  0
  6 19  1  0  0  0  0
  7 10  2  0  0  0  0
  7 20  1  0  0  0  0
  9 13  2  0  0  0  0
  9 21  1  0  0  0  0
 10 13  1  0  0  0  0
 10 22  1  0  0  0  0
 11 14  1  0  0  0  0
 11 23  1  0  0  0  0
 12 15  2  0  0  0  0
 12 24  1  0  0  0  0
 13 25  1  0  0  0  0
 14 16  2  0  0  0  0
 14 26  1  0  0  0  0
 15 16  1  0  0  0  0
 15 27  1  0  0  0  0
 16 28  1  0  0  0  0
M  END
>  <DRUGBANK_ID>
DB00676

>  <SECONDARY_ACCESSION_NUMBERS>
APRD00821; EXPT00792; DB02775

>  <COMMON_NAME>
Benzyl benzoate

>  <CAS_NUMBER>
120-51-4

>  <UNII>
N863NB338G

>  <SYNONYMS>
Acarobenzyl; Benylate; Benzevan; Benzoate de benzyle; BenzoesÃ¤urebenzylester; Benzoic acid phenylmethylester; Benzoic acid, benzyl ester; Benzoic acid, phenylmethyl ester; Benzyl benzoat; Benzyl benzoate; Benzylis benzoas; Phenylmethyl benzoate

$$$$
