
 OpenBabel10282417072D

 44 47  0  0  0  0  0  0  0  0999 V2000
   -2.2539    2.0329    0.0000 C   0  0  0  0  0  0  0  0  0  0  0  0
   -1.8414    2.7474    0.0000 C   0  0  0  0  0  0  0  0  0  0  0  0
   -1.0164    2.7474    0.0000 C   0  0  0  0  0  0  0  0  0  0  0  0
   -0.6039    2.0329    0.0000 C   0  0  0  0  0  0  0  0  0  0  0  0
   -1.0164    1.3184    0.0000 C   0  0  0  0  0  0  0  0  0  0  0  0
   -1.8414    1.3184    0.0000 C   0  0  0  0  0  0  0  0  0  0  0  0
   -2.2539    0.6039    0.0000 C   0  0  0  0  0  0  0  0  0  0  0  0
   -1.8414   -0.1105    0.0000 C   0  0  0  0  0  0  0  0  0  0  0  0
   -2.2539   -0.8250    0.0000 C   0  0  0  0  0  0  0  0  0  0  0  0
   -1.8414   -1.5395    0.0000 C   0  0  0  0  0  0  0  0  0  0  0  0
   -1.0164   -1.5395    0.0000 C   0  0  0  0  0  0  0  0  0  0  0  0
   -0.6039   -2.2539    0.0000 C   0  0  0  0  0  0  0  0  0  0  0  0
    0.2211   -2.2539    0.0000 C   0  0  0  0  0  0  0  0  0  0  0  0
    0.6336   -1.5395    0.0000 C   0  0  0  0  0  0  0  0  0  0  0  0
    0.2211   -0.8250    0.0000 C   0  0  0  0  0  0  0  0  0  0  0  0
   -0.6039   -0.8250    0.0000 C   0  0  0  0  0  0  0  0  0  0  0  0
   -1.0164   -0.1105    0.0000 N   0  0  0  0  0  0  0  0  0  0  0  0
    0.6336   -0.1105    0.0000 C   0  0  0  0  0  0  0  0  0  0  0  0
    1.4586   -0.1105    0.0000 C   0  0  0  0  0  0  0  0  0  0  0  0
    1.8711   -0.8250    0.0000 C   0  0  0  0  0  0  0  0  0  0  0  0
    1.4586   -1.5395    0.0000 C   0  0  0  0  0  0  0  0  0  0  0  0
   -2.2539   -2.2539    0.0000 C   0  0  0  0  0  0  0  0  0  0  0  0
   -1.8414   -2.9684    0.0000 O   0  0  0  0  0  0  0  0  0  0  0  0
   -3.0789   -2.2539    0.0000 O   0  0  0  0  0  0  0  0  0  0  0  0
   -3.0789   -0.8250    0.0000 O   0  0  0  0  0  0  0  0  0  0  0  0
   -0.6039    3.4618    0.0000 Cl  0  0  0  0  0  0  0  0  0  0  0  0
   -3.2859    2.0329    0.0000 H   0  0  0  0  0  0  0  0  0  0  0  0
   -2.3574    3.6411    0.0000 H   0  0  0  0  0  0  0  0  0  0  0  0
    0.4281    2.0329    0.0000 H   0  0  0  0  0  0  0  0  0  0  0  0
   -0.5004    0.4247    0.0000 H   0  0  0  0  0  0  0  0  0  0  0  0
   -3.3239    0.6039    0.0000 H   0  0  0  0  0  0  0  0  0  0  0  0
   -2.7889   -0.3228    0.0000 H   0  0  0  0  0  0  0  0  0  0  0  0
   -1.1199   -3.1476    0.0000 H   0  0  0  0  0  0  0  0  0  0  0  0
    0.7371   -3.1476    0.0000 H   0  0  0  0  0  0  0  0  0  0  0  0
    0.0986    0.8161    0.0000 H   0  0  0  0  0  0  0  0  0  0  0  0
    1.1686    0.8161    0.0000 H   0  0  0  0  0  0  0  0  0  0  0  0
    1.9936    0.8161    0.0000 H   0  0  0  0  0  0  0  0  0  0  0  0
    2.5286   -0.1105    0.0000 H   0  0  0  0  0  0  0  0  0  0  0  0
    2.9411   -0.8250    0.0000 H   0  0  0  0  0  0  0  0  0  0  0  0
    2.4061   -1.7516    0.0000 H   0  0  0  0  0  0  0  0  0  0  0  0
    1.9936   -2.4661    0.0000 H   0  0  0  0  0  0  0  0  0  0  0  0
    0.9236   -2.4661    0.0000 H   0  0  0  0  0  0  0  0  0  0  0  0
   -3.5474   -1.4424    0.0000 H   0  0  0  0  0  0  0  0  0  0  0  0
   -3.5474   -0.0135    0.0000 H   0  0  0  0  0  0  0  0  0  0  0  0
  1  2  2  0  0  0  0
  1  6  1  0  0  0  0
  1 27  1  0  0  0  0
  2  3  1  0  0  0  0
  2 28  1  0  0  0  0
  3  4  2  0  0  0  0
  3 26  1  0  0  0  0
  4  5  1  0  0  0  0
  4 29  1  0  0  0  0
  5  6  2  0  0  0  0
  5 30  1  0  0  0  0
  6  7  1  0  0  0  0
  7  8  1  0  0  0  0
  7 31  1  0  0  0  0
  7 32  1  0  0  0  0
  8  9  2  0  0  0  0
  8 17  1  0  0  0  0
  9 10  1  0  0  0  0
  9 25  1  0  0  0  0
 10 11  2  0  0  0  0
 10 22  1  0  0  0  0
 11 12  1  0  0  0  0
 11 16  1  0  0  0  0
 12 13  2  0  0  0  0
 12 33  1  0  0  0  0
 13 14  1  0  0  0  0
 13 34  1  0  0  0  0
 14 15  2  0  0  0  0
 14 21  1  0  0  0  0
 15 16  1  0  0  0  0
 15 18  1  0  0  0  0
 16 17  2  0  0  0  0
 18 19  1  0  0  0  0
 18 35  1  0  0  0  0
 18 36  1  0  0  0  0
 19 20  1  0  0  0  0
 19 37  1  0  0  0  0
 19 38  1  0  0  0  0
 20 21  1  0  0  0  0
 20 39  1  0  0  0  0
 20 40  1  0  0  0  0
 21 41  1  0  0  0  0
 21 42  1  0  0  0  0
 22 23  2  0  0  0  0
 22 24  1  0  0  0  0
 24 43  1  0  0  0  0
 25 44  1  0  0  0  0
M  END
>  <DRUGBANK_ID>
DB12211

>  <COMMON_NAME>
PSI-697

>  <CAS_NUMBER>
851546-61-7

>  <UNII>
LH1XC916ME

$$$$
