1482
 OpenBabel10282417072D

 48 50  0  0  1  0  0  0  0  0999 V2000
    1.8720    3.8116    0.0000 O   0  0  0  0  0  0  0  0  0  0  0  0
    0.4430    1.3365    0.0000 O   0  0  0  0  0  0  0  0  0  0  0  0
    3.3671    2.8254    0.0000 N   0  0  0  0  0  0  0  0  0  0  0  0
    4.6870    4.5640    0.0000 N   0  0  0  0  0  0  0  0  0  0  0  0
    1.8720    1.3365    0.0000 N   0  0  0  0  0  0  0  0  0  0  0  0
    1.1575    2.5741    0.0000 N   0  0  0  0  0  0  0  0  0  0  0  0
    3.3671    1.4977    0.0000 N   0  0  0  0  0  0  0  0  0  0  0  0
    5.4943    4.7341    0.0000 C   0  0  3  0  0  0  0  0  0  0  0  0
    3.6234    3.6097    0.0000 C   0  0  0  0  0  0  0  0  0  0  0  0
    4.4306    3.7798    0.0000 C   0  0  0  0  0  0  0  0  0  0  0  0
    2.5863    2.5741    0.0000 C   0  0  0  0  0  0  0  0  0  0  0  0
    5.7505    5.5183    0.0000 C   0  0  0  0  0  0  0  0  0  0  0  0
    2.5863    1.7490    0.0000 C   0  0  0  0  0  0  0  0  0  0  0  0
    6.0452    4.1201    0.0000 C   0  0  0  0  0  0  0  0  0  0  0  0
    3.8485    2.1615    0.0000 C   0  0  0  0  0  0  0  0  0  0  0  0
    1.8720    2.9866    0.0000 C   0  0  0  0  0  0  0  0  0  0  0  0
    6.5578    5.6884    0.0000 C   0  0  0  0  0  0  0  0  0  0  0  0
    1.1575    1.7490    0.0000 C   0  0  0  0  0  0  0  0  0  0  0  0
    1.8720    0.5115    0.0000 C   0  0  0  0  0  0  0  0  0  0  0  0
    0.4430    2.9866    0.0000 C   0  0  0  0  0  0  0  0  0  0  0  0
    6.8142    6.4727    0.0000 C   0  0  0  0  0  0  0  0  0  0  0  0
    7.1089    5.0744    0.0000 C   0  0  0  0  0  0  0  0  0  0  0  0
    7.6214    6.6428    0.0000 C   0  0  0  0  0  0  0  0  0  0  0  0
    7.9161    5.2446    0.0000 C   0  0  0  0  0  0  0  0  0  0  0  0
    8.1724    6.0287    0.0000 C   0  0  0  0  0  0  0  0  0  0  0  0
    4.0059    5.3232    0.0000 H   0  0  0  0  0  0  0  0  0  0  0  0
    4.7797    5.5305    0.0000 H   0  0  0  0  0  0  0  0  0  0  0  0
    2.9088    4.4061    0.0000 H   0  0  0  0  0  0  0  0  0  0  0  0
    3.9558    4.6268    0.0000 H   0  0  0  0  0  0  0  0  0  0  0  0
    5.1451    2.9834    0.0000 H   0  0  0  0  0  0  0  0  0  0  0  0
    4.0981    2.7628    0.0000 H   0  0  0  0  0  0  0  0  0  0  0  0
    5.0359    6.3147    0.0000 H   0  0  0  0  0  0  0  0  0  0  0  0
    6.0829    6.5354    0.0000 H   0  0  0  0  0  0  0  0  0  0  0  0
    5.7128    3.1031    0.0000 H   0  0  0  0  0  0  0  0  0  0  0  0
    7.0922    4.3407    0.0000 H   0  0  0  0  0  0  0  0  0  0  0  0
    6.7598    3.3237    0.0000 H   0  0  0  0  0  0  0  0  0  0  0  0
    4.8805    2.1615    0.0000 H   0  0  0  0  0  0  0  0  0  0  0  0
    0.9454   -0.0235    0.0000 H   0  0  0  0  0  0  0  0  0  0  0  0
    2.7986   -0.0235    0.0000 H   0  0  0  0  0  0  0  0  0  0  0  0
    1.8720   -0.5585    0.0000 H   0  0  0  0  0  0  0  0  0  0  0  0
    0.4430    4.0566    0.0000 H   0  0  0  0  0  0  0  0  0  0  0  0
   -0.4836    2.4516    0.0000 H   0  0  0  0  0  0  0  0  0  0  0  0
   -0.4837    3.5216    0.0000 H   0  0  0  0  0  0  0  0  0  0  0  0
    6.1250    7.2409    0.0000 H   0  0  0  0  0  0  0  0  0  0  0  0
    6.7884    4.0934    0.0000 H   0  0  0  0  0  0  0  0  0  0  0  0
    7.9420    7.6237    0.0000 H   0  0  0  0  0  0  0  0  0  0  0  0
    8.6053    4.4765    0.0000 H   0  0  0  0  0  0  0  0  0  0  0  0
    9.1822    6.2415    0.0000 H   0  0  0  0  0  0  0  0  0  0  0  0
  1 16  2  0  0  0  0
  2 18  2  0  0  0  0
  3  9  1  0  0  0  0
  3 11  1  0  0  0  0
  3 15  1  0  0  0  0
  4  8  1  0  0  0  0
  4 10  1  0  0  0  0
  4 26  1  0  0  0  0
  5 13  1  0  0  0  0
  5 18  1  0  0  0  0
  5 19  1  0  0  0  0
  6 16  1  0  0  0  0
  6 18  1  0  0  0  0
  6 20  1  0  0  0  0
  7 13  1  0  0  0  0
  7 15  2  0  0  0  0
  8 12  1  0  0  0  0
  8 14  1  0  0  0  0
  8 27  1  0  0  0  0
  9 10  1  0  0  0  0
  9 28  1  0  0  0  0
  9 29  1  0  0  0  0
 10 30  1  0  0  0  0
 10 31  1  0  0  0  0
 11 13  2  0  0  0  0
 11 16  1  0  0  0  0
 12 17  1  0  0  0  0
 12 32  1  0  0  0  0
 12 33  1  0  0  0  0
 14 34  1  0  0  0  0
 14 35  1  0  0  0  0
 14 36  1  0  0  0  0
 15 37  1  0  0  0  0
 17 21  2  0  0  0  0
 17 22  1  0  0  0  0
 19 38  1  0  0  0  0
 19 39  1  0  0  0  0
 19 40  1  0  0  0  0
 20 41  1  0  0  0  0
 20 42  1  0  0  0  0
 20 43  1  0  0  0  0
 21 23  1  0  0  0  0
 21 44  1  0  0  0  0
 22 24  2  0  0  0  0
 22 45  1  0  0  0  0
 23 25  2  0  0  0  0
 23 46  1  0  0  0  0
 24 25  1  0  0  0  0
 24 47  1  0  0  0  0
 25 48  1  0  0  0  0
M  END
>  <DRUGBANK_ID>
DB01482

>  <COMMON_NAME>
Fenethylline

>  <CAS_NUMBER>
3736-08-1

>  <UNII>
YZ0N7VL5R3

>  <SYNONYMS>
Amfetyline; Fenethylline; Fenetilina; Fenetillina; Fenetylline; Fenetyllinum

$$$$
