
 OpenBabel10282417072D

 16 15  0  0  0  0  0  0  0  0999 V2000
    3.0788    0.2063    0.0000 O   0  0  0  0  0  0  0  0  0  0  0  0
    3.7932   -1.0312    0.0000 O   0  0  0  0  0  0  0  0  0  0  0  0
    4.5076    1.0312    0.0000 O   0  0  0  0  0  0  0  0  0  0  0  0
    2.3643   -0.2063    0.0000 C   0  0  0  0  0  0  0  0  0  0  0  0
    1.6498    0.2063    0.0000 C   0  0  0  0  0  0  0  0  0  0  0  0
    3.7932   -0.2063    0.0000 C   0  0  0  0  0  0  0  0  0  0  0  0
    4.5076    0.2063    0.0000 C   0  0  0  0  0  0  0  0  0  0  0  0
    5.2219   -0.2063    0.0000 C   0  0  0  0  0  0  0  0  0  0  0  0
    2.3643   -1.2763    0.0000 H   0  0  0  0  0  0  0  0  0  0  0  0
    1.4376   -0.7413    0.0000 H   0  0  0  0  0  0  0  0  0  0  0  0
    1.6499    1.2763    0.0000 H   0  0  0  0  0  0  0  0  0  0  0  0
    0.7231   -0.3286    0.0000 H   0  0  0  0  0  0  0  0  0  0  0  0
    0.7232    0.7414    0.0000 H   0  0  0  0  0  0  0  0  0  0  0  0
    5.2217   -1.2763    0.0000 H   0  0  0  0  0  0  0  0  0  0  0  0
    6.1487    0.3285    0.0000 H   0  0  0  0  0  0  0  0  0  0  0  0
    6.1484   -0.7415    0.0000 H   0  0  0  0  0  0  0  0  0  0  0  0
  1  4  1  0  0  0  0
  1  6  1  0  0  0  0
  2  6  2  0  0  0  0
  3  7  2  0  0  0  0
  4  5  1  0  0  0  0
  4  9  1  0  0  0  0
  4 10  1  0  0  0  0
  5 11  1  0  0  0  0
  5 12  1  0  0  0  0
  5 13  1  0  0  0  0
  6  7  1  0  0  0  0
  7  8  1  0  0  0  0
  8 14  1  0  0  0  0
  8 15  1  0  0  0  0
  8 16  1  0  0  0  0
M  END
>  <DRUGBANK_ID>
DB05869

>  <COMMON_NAME>
Ethyl pyruvate

>  <CAS_NUMBER>
617-35-6

>  <UNII>
03O98E01OB

>  <SYNONYMS>
2-oxopropanoic acid ethyl ester; 2-oxopropionic acid ethyl ester; Ethyl 2-oxopropanoate; Ethyl 2-oxopropionate; Ethyl methylglyoxylate; Pyruvic acid ethyl ester; Pyruvic acid, ethyl ester

$$$$
