
 OpenBabel10282417072D

 30 31  0  0  0  0  0  0  0  0999 V2000
    0.5229   -1.1664    0.0000 O   0  0  0  0  0  0  0  0  0  0  0  0
   -1.0418   -2.6185    0.0000 O   0  0  0  0  0  0  0  0  0  0  0  0
    1.5734   -2.5323    0.0000 O   0  0  0  0  0  0  0  0  0  0  0  0
   -1.5734    0.1435    0.0000 O   0  0  0  0  0  0  0  0  0  0  0  0
   -0.1444    2.6185    0.0000 O   0  0  0  0  0  0  0  0  0  0  0  0
   -0.1444    0.1435    0.0000 N   0  0  0  0  0  0  0  0  0  0  0  0
   -0.8589    1.3810    0.0000 N   0  0  0  0  0  0  0  0  0  0  0  0
   -0.1444   -0.6814    0.0000 C   0  0  3  0  0  0  0  0  0  0  0  0
   -0.8119   -1.1664    0.0000 C   0  0  0  0  0  0  0  0  0  0  0  0
   -0.5569   -1.9510    0.0000 C   0  0  1  0  0  0  0  0  0  0  0  0
    0.2680   -1.9510    0.0000 C   0  0  1  0  0  0  0  0  0  0  0  0
    0.5699    0.5560    0.0000 C   0  0  0  0  0  0  0  0  0  0  0  0
    0.7528   -2.6185    0.0000 C   0  0  0  0  0  0  0  0  0  0  0  0
    0.5699    1.3810    0.0000 C   0  0  0  0  0  0  0  0  0  0  0  0
   -0.8589    0.5560    0.0000 C   0  0  0  0  0  0  0  0  0  0  0  0
   -0.1444    1.7935    0.0000 C   0  0  0  0  0  0  0  0  0  0  0  0
   -1.3019    1.6367    0.0000 H   0  0  0  0  0  0  0  0  0  0  0  0
   -2.0065   -2.5172    0.0000 H   0  0  0  0  0  0  0  0  0  0  0  0
    2.1435   -3.3171    0.0000 H   0  0  0  0  0  0  0  0  0  0  0  0
    0.8090   -0.1957    0.0000 H   0  0  0  0  0  0  0  0  0  0  0  0
   -1.8295   -0.8358    0.0000 H   0  0  0  0  0  0  0  0  0  0  0  0
   -1.5685   -1.9231    0.0000 H   0  0  0  0  0  0  0  0  0  0  0  0
   -1.6137   -1.7837    0.0000 H   0  0  0  0  0  0  0  0  0  0  0  0
    1.3248   -1.7837    0.0000 H   0  0  0  0  0  0  0  0  0  0  0  0
    1.4966    0.0210    0.0000 H   0  0  0  0  0  0  0  0  0  0  0  0
    1.4965    1.0910    0.0000 H   0  0  0  0  0  0  0  0  0  0  0  0
    0.3175   -3.5959    0.0000 H   0  0  0  0  0  0  0  0  0  0  0  0
   -0.3114   -2.7302    0.0000 H   0  0  0  0  0  0  0  0  0  0  0  0
    1.4966    1.9160    0.0000 H   0  0  0  0  0  0  0  0  0  0  0  0
    0.5700    2.4510    0.0000 H   0  0  0  0  0  0  0  0  0  0  0  0
  1  8  1  0  0  0  0
  1 11  1  0  0  0  0
  2 18  1  0  0  0  0
  3 13  1  0  0  0  0
  3 19  1  0  0  0  0
  4 15  2  0  0  0  0
  5 16  2  0  0  0  0
  6  8  1  0  0  0  0
  6 12  1  0  0  0  0
  6 15  1  0  0  0  0
  7 15  1  0  0  0  0
  7 16  1  0  0  0  0
  7 17  1  0  0  0  0
  8  9  1  0  0  0  0
  8 20  1  0  0  0  0
  9 10  1  0  0  0  0
  9 21  1  0  0  0  0
  9 22  1  0  0  0  0
 10  2  1  0  0  0  0
 10 11  1  0  0  0  0
 10 23  1  6  0  0  0
 11 13  1  0  0  0  0
 11 24  1  1  0  0  0
 12 14  1  0  0  0  0
 12 25  1  0  0  0  0
 12 26  1  0  0  0  0
 13 27  1  0  0  0  0
 13 28  1  0  0  0  0
 14 16  1  0  0  0  0
 14 29  1  0  0  0  0
 14 30  1  0  0  0  0
M  END
>  <DRUGBANK_ID>
DB03562

>  <SECONDARY_ACCESSION_NUMBERS>
EXPT03059

>  <COMMON_NAME>
Tetrahydrodeoxyuridine

$$$$
