201
 OpenBabel10282417072D

 24 25  0  0  0  0  0  0  0  0999 V2000
    3.0791    1.6500    0.0000 O   0  0  0  0  0  0  0  0  0  0  0  0
    1.6500   -0.8250    0.0000 O   0  0  0  0  0  0  0  0  0  0  0  0
    3.0791   -0.8250    0.0000 N   0  0  0  0  0  0  0  0  0  0  0  0
    4.5741    0.6639    0.0000 N   0  0  0  0  0  0  0  0  0  0  0  0
    2.3645    0.4125    0.0000 N   0  0  0  0  0  0  0  0  0  0  0  0
    4.5741   -0.6639    0.0000 N   0  0  0  0  0  0  0  0  0  0  0  0
    3.7935    0.4125    0.0000 C   0  0  0  0  0  0  0  0  0  0  0  0
    3.7935   -0.4125    0.0000 C   0  0  0  0  0  0  0  0  0  0  0  0
    3.0791    0.8250    0.0000 C   0  0  0  0  0  0  0  0  0  0  0  0
    2.3645   -0.4125    0.0000 C   0  0  0  0  0  0  0  0  0  0  0  0
    5.0556    0.0000    0.0000 C   0  0  0  0  0  0  0  0  0  0  0  0
    3.0791   -1.6500    0.0000 C   0  0  0  0  0  0  0  0  0  0  0  0
    4.8305    1.4482    0.0000 C   0  0  0  0  0  0  0  0  0  0  0  0
    1.6500    0.8250    0.0000 C   0  0  0  0  0  0  0  0  0  0  0  0
    6.0876    0.0000    0.0000 H   0  0  0  0  0  0  0  0  0  0  0  0
    2.1525   -2.1850    0.0000 H   0  0  0  0  0  0  0  0  0  0  0  0
    4.0057   -2.1850    0.0000 H   0  0  0  0  0  0  0  0  0  0  0  0
    3.0791   -2.7200    0.0000 H   0  0  0  0  0  0  0  0  0  0  0  0
    5.8775    1.6688    0.0000 H   0  0  0  0  0  0  0  0  0  0  0  0
    4.1160    2.2447    0.0000 H   0  0  0  0  0  0  0  0  0  0  0  0
    5.1630    2.4652    0.0000 H   0  0  0  0  0  0  0  0  0  0  0  0
    1.6500    1.8950    0.0000 H   0  0  0  0  0  0  0  0  0  0  0  0
    0.7234    0.2900    0.0000 H   0  0  0  0  0  0  0  0  0  0  0  0
    0.7233    1.3600    0.0000 H   0  0  0  0  0  0  0  0  0  0  0  0
  1  9  2  0  0  0  0
  2 10  2  0  0  0  0
  3  8  1  0  0  0  0
  3 10  1  0  0  0  0
  3 12  1  0  0  0  0
  4  7  1  0  0  0  0
  4 11  1  0  0  0  0
  4 13  1  0  0  0  0
  5  9  1  0  0  0  0
  5 10  1  0  0  0  0
  5 14  1  0  0  0  0
  6  8  1  0  0  0  0
  6 11  2  0  0  0  0
  7  8  2  0  0  0  0
  7  9  1  0  0  0  0
 11 15  1  0  0  0  0
 12 16  1  0  0  0  0
 12 17  1  0  0  0  0
 12 18  1  0  0  0  0
 13 19  1  0  0  0  0
 13 20  1  0  0  0  0
 13 21  1  0  0  0  0
 14 22  1  0  0  0  0
 14 23  1  0  0  0  0
 14 24  1  0  0  0  0
M  END
>  <DRUGBANK_ID>
DB00201

>  <SECONDARY_ACCESSION_NUMBERS>
APRD00673

>  <COMMON_NAME>
Caffeine

>  <CAS_NUMBER>
58-08-2

>  <UNII>
3G6A5W338E

>  <SYNONYMS>
1-methyltheobromine; 1,3,7-trimethyl-2,6-dioxopurine; 1,3,7-trimethylpurine-2,6-dione; 1,3,7-trimethylxanthine; 3,7-Dihydro-1,3,7-trimethyl-1H-purin-2,6-dion; 7-methyltheophylline; Anhydrous caffeine; Cafeína; Caféine; Caffeine; Caffeinum; Coffein; Coffeinum; Guaranine; Koffein; Mateína; Methyltheobromine; Teína; Thein; Theine

$$$$
