
 OpenBabel10282417072D

 28 29  0  0  0  0  0  0  0  0999 V2000
    1.5827   -0.1169    0.0000 C   0  0  0  0  0  0  0  0  0  0  0  0
    2.4031   -0.2032    0.0000 C   0  0  0  0  0  0  0  0  0  0  0  0
    2.5748   -1.0102    0.0000 N   0  0  0  0  0  0  0  0  0  0  0  0
    1.8601   -1.4227    0.0000 S   0  0  0  0  0  0  0  0  0  0  0  0
    1.2470   -0.8706    0.0000 N   0  0  0  0  0  0  0  0  0  0  0  0
   -0.8926    1.3121    0.0000 C   0  0  0  0  0  0  0  0  0  0  0  0
   -1.7176    1.3121    0.0000 C   0  0  0  0  0  0  0  0  0  0  0  0
   -2.1303    0.5977    0.0000 C   0  0  0  0  0  0  0  0  0  0  0  0
   -1.7176   -0.1169    0.0000 C   0  0  0  0  0  0  0  0  0  0  0  0
   -0.8926   -0.1169    0.0000 C   0  0  0  0  0  0  0  0  0  0  0  0
   -0.4800    0.5977    0.0000 C   0  0  0  0  0  0  0  0  0  0  0  0
   -2.9553    0.5977    0.0000 N   0  0  0  0  0  0  0  0  0  0  0  0
    0.3450    0.5977    0.0000 S   0  0  0  0  0  0  0  0  0  0  0  0
    0.3450   -0.2273    0.0000 O   0  0  0  0  0  0  0  0  0  0  0  0
    0.3450    1.4227    0.0000 O   0  0  0  0  0  0  0  0  0  0  0  0
    1.1701    0.5977    0.0000 N   0  0  0  0  0  0  0  0  0  0  0  0
    2.9554    0.4099    0.0000 O   0  0  0  0  0  0  0  0  0  0  0  0
    2.7003    1.1947    0.0000 C   0  0  0  0  0  0  0  0  0  0  0  0
   -0.3767    2.2059    0.0000 H   0  0  0  0  0  0  0  0  0  0  0  0
   -2.2335    2.2059    0.0000 H   0  0  0  0  0  0  0  0  0  0  0  0
   -2.2335   -1.0107    0.0000 H   0  0  0  0  0  0  0  0  0  0  0  0
   -0.3766   -1.0106    0.0000 H   0  0  0  0  0  0  0  0  0  0  0  0
   -3.4475    1.4503    0.0000 H   0  0  0  0  0  0  0  0  0  0  0  0
   -3.4475   -0.2549    0.0000 H   0  0  0  0  0  0  0  0  0  0  0  0
    1.6623    1.4503    0.0000 H   0  0  0  0  0  0  0  0  0  0  0  0
    3.4162    1.9899    0.0000 H   0  0  0  0  0  0  0  0  0  0  0  0
    1.6537    1.4170    0.0000 H   0  0  0  0  0  0  0  0  0  0  0  0
    2.3695    2.2123    0.0000 H   0  0  0  0  0  0  0  0  0  0  0  0
  1  2  1  0  0  0  0
  2  3  2  0  0  0  0
  2 17  1  0  0  0  0
  3  4  1  0  0  0  0
  4  5  1  0  0  0  0
  5  1  2  0  0  0  0
  6 11  2  0  0  0  0
  6  7  1  0  0  0  0
  6 19  1  0  0  0  0
  7  8  2  0  0  0  0
  7 20  1  0  0  0  0
  8  9  1  0  0  0  0
  8 12  1  0  0  0  0
  9 10  2  0  0  0  0
  9 21  1  0  0  0  0
 10 11  1  0  0  0  0
 10 22  1  0  0  0  0
 11 13  1  0  0  0  0
 12 23  1  0  0  0  0
 12 24  1  0  0  0  0
 13 14  2  0  0  0  0
 13 15  2  0  0  0  0
 13 16  1  0  0  0  0
 16  1  1  0  0  0  0
 16 25  1  0  0  0  0
 17 18  1  0  0  0  0
 18 26  1  0  0  0  0
 18 27  1  0  0  0  0
 18 28  1  0  0  0  0
M  END
>  <DRUGBANK_ID>
DB15975

>  <COMMON_NAME>
Sulfametrole

>  <CAS_NUMBER>
32909-92-5

>  <UNII>
F5AK41IPQG

>  <SYNONYMS>
Sulfametrole

$$$$
