
 OpenBabel10282417072D

 62 66  0  0  0  0  0  0  0  0999 V2000
   -7.1447   -4.1250    0.0000 C   0  0  0  0  0  0  0  0  0  0  0  0
   -6.4302   -3.7125    0.0000 C   0  0  0  0  0  0  0  0  0  0  0  0
   -6.4302   -2.8875    0.0000 C   0  0  0  0  0  0  0  0  0  0  0  0
   -7.1447   -2.4750    0.0000 C   0  0  0  0  0  0  0  0  0  0  0  0
   -7.8592   -2.8875    0.0000 C   0  0  0  0  0  0  0  0  0  0  0  0
   -7.8592   -3.7125    0.0000 C   0  0  0  0  0  0  0  0  0  0  0  0
   -8.5737   -2.4750    0.0000 C   0  0  0  0  0  0  0  0  0  0  0  0
   -8.5737   -1.6500    0.0000 C   0  0  0  0  0  0  0  0  0  0  0  0
   -7.8592   -1.2375    0.0000 C   0  0  0  0  0  0  0  0  0  0  0  0
   -7.1447   -1.6500    0.0000 C   0  0  0  0  0  0  0  0  0  0  0  0
   -6.4302   -1.2375    0.0000 N   0  0  0  0  0  0  0  0  0  0  0  0
   -6.4302   -0.4125    0.0000 C   0  0  0  0  0  0  0  0  0  0  0  0
   -5.7158    0.0000    0.0000 C   0  0  0  0  0  0  0  0  0  0  0  0
   -5.0013   -0.4125    0.0000 N   0  0  0  0  0  0  0  0  0  0  0  0
   -5.0013   -1.2375    0.0000 C   0  0  0  0  0  0  0  0  0  0  0  0
   -5.7158   -1.6500    0.0000 C   0  0  0  0  0  0  0  0  0  0  0  0
   -4.2868    0.0000    0.0000 C   0  0  0  0  0  0  0  0  0  0  0  0
   -3.5724   -0.4125    0.0000 C   0  0  0  0  0  0  0  0  0  0  0  0
   -2.8579    0.0000    0.0000 C   0  0  0  0  0  0  0  0  0  0  0  0
   -2.1434   -0.4125    0.0000 C   0  0  0  0  0  0  0  0  0  0  0  0
   -1.4289    0.0000    0.0000 O   0  0  0  0  0  0  0  0  0  0  0  0
   -0.7145   -0.4125    0.0000 C   0  0  0  0  0  0  0  0  0  0  0  0
   -0.7145   -1.2375    0.0000 C   0  0  0  0  0  0  0  0  0  0  0  0
    0.0000   -1.6500    0.0000 C   0  0  0  0  0  0  0  0  0  0  0  0
    0.7145   -1.2375    0.0000 C   0  0  0  0  0  0  0  0  0  0  0  0
    0.7145   -0.4125    0.0000 C   0  0  0  0  0  0  0  0  0  0  0  0
    0.0000   -0.0000    0.0000 N   0  0  0  0  0  0  0  0  0  0  0  0
    1.4289   -0.0000    0.0000 N   0  0  0  0  0  0  0  0  0  0  0  0
    2.1434   -0.4125    0.0000 C   0  0  0  0  0  0  0  0  0  0  0  0
    2.8579   -0.0000    0.0000 O   0  0  0  0  0  0  0  0  0  0  0  0
    2.1434   -1.2375    0.0000 C   0  0  0  0  0  0  0  0  0  0  0  0
    1.4289   -1.6500    0.0000 C   0  0  0  0  0  0  0  0  0  0  0  0
   -7.1447   -5.1570    0.0000 H   0  0  0  0  0  0  0  0  0  0  0  0
   -5.5365   -4.2285    0.0000 H   0  0  0  0  0  0  0  0  0  0  0  0
   -5.5365   -2.3715    0.0000 H   0  0  0  0  0  0  0  0  0  0  0  0
   -8.7529   -4.2285    0.0000 H   0  0  0  0  0  0  0  0  0  0  0  0
   -9.4674   -2.9910    0.0000 H   0  0  0  0  0  0  0  0  0  0  0  0
   -9.4674   -1.1340    0.0000 H   0  0  0  0  0  0  0  0  0  0  0  0
   -7.8592   -0.2055    0.0000 H   0  0  0  0  0  0  0  0  0  0  0  0
   -7.3569    0.1225    0.0000 H   0  0  0  0  0  0  0  0  0  0  0  0
   -6.4302    0.6575    0.0000 H   0  0  0  0  0  0  0  0  0  0  0  0
   -5.7158    1.0700    0.0000 H   0  0  0  0  0  0  0  0  0  0  0  0
   -4.7892    0.5350    0.0000 H   0  0  0  0  0  0  0  0  0  0  0  0
   -4.0747   -1.7725    0.0000 H   0  0  0  0  0  0  0  0  0  0  0  0
   -5.0013   -2.3075    0.0000 H   0  0  0  0  0  0  0  0  0  0  0  0
   -5.7158   -2.7200    0.0000 H   0  0  0  0  0  0  0  0  0  0  0  0
   -6.6425   -2.1850    0.0000 H   0  0  0  0  0  0  0  0  0  0  0  0
   -4.2868    1.0700    0.0000 H   0  0  0  0  0  0  0  0  0  0  0  0
   -3.3601    0.5350    0.0000 H   0  0  0  0  0  0  0  0  0  0  0  0
   -3.5724   -1.4825    0.0000 H   0  0  0  0  0  0  0  0  0  0  0  0
   -2.6458   -0.9475    0.0000 H   0  0  0  0  0  0  0  0  0  0  0  0
   -2.8579    1.0700    0.0000 H   0  0  0  0  0  0  0  0  0  0  0  0
   -1.9313    0.5350    0.0000 H   0  0  0  0  0  0  0  0  0  0  0  0
   -2.1434   -1.4825    0.0000 H   0  0  0  0  0  0  0  0  0  0  0  0
   -1.2168   -0.9475    0.0000 H   0  0  0  0  0  0  0  0  0  0  0  0
   -1.6082   -1.7535    0.0000 H   0  0  0  0  0  0  0  0  0  0  0  0
    0.0000   -2.6820    0.0000 H   0  0  0  0  0  0  0  0  0  0  0  0
    1.4289    0.9845    0.0000 H   0  0  0  0  0  0  0  0  0  0  0  0
    3.0700   -1.7725    0.0000 H   0  0  0  0  0  0  0  0  0  0  0  0
    2.1434   -2.3075    0.0000 H   0  0  0  0  0  0  0  0  0  0  0  0
    1.4289   -2.7200    0.0000 H   0  0  0  0  0  0  0  0  0  0  0  0
    0.5022   -2.1850    0.0000 H   0  0  0  0  0  0  0  0  0  0  0  0
  1  2  2  0  0  0  0
  1  6  1  0  0  0  0
  1 33  1  0  0  0  0
  2  3  1  0  0  0  0
  2 34  1  0  0  0  0
  3  4  2  0  0  0  0
  3 35  1  0  0  0  0
  4  5  1  0  0  0  0
  4 10  1  0  0  0  0
  5  6  2  0  0  0  0
  5  7  1  0  0  0  0
  6 36  1  0  0  0  0
  7  8  2  0  0  0  0
  7 37  1  0  0  0  0
  8  9  1  0  0  0  0
  8 38  1  0  0  0  0
  9 10  2  0  0  0  0
  9 39  1  0  0  0  0
 10 11  1  0  0  0  0
 11 12  1  0  0  0  0
 11 16  1  0  0  0  0
 12 13  1  0  0  0  0
 12 40  1  0  0  0  0
 12 41  1  0  0  0  0
 13 14  1  0  0  0  0
 13 42  1  0  0  0  0
 13 43  1  0  0  0  0
 14 15  1  0  0  0  0
 14 17  1  0  0  0  0
 15 16  1  0  0  0  0
 15 44  1  0  0  0  0
 15 45  1  0  0  0  0
 16 46  1  0  0  0  0
 16 47  1  0  0  0  0
 17 18  1  0  0  0  0
 17 48  1  0  0  0  0
 17 49  1  0  0  0  0
 18 19  1  0  0  0  0
 18 50  1  0  0  0  0
 18 51  1  0  0  0  0
 19 20  1  0  0  0  0
 19 52  1  0  0  0  0
 19 53  1  0  0  0  0
 20 21  1  0  0  0  0
 20 54  1  0  0  0  0
 20 55  1  0  0  0  0
 21 22  1  0  0  0  0
 22 23  2  0  0  0  0
 22 27  1  0  0  0  0
 23 24  1  0  0  0  0
 23 56  1  0  0  0  0
 24 25  2  0  0  0  0
 24 57  1  0  0  0  0
 25 26  1  0  0  0  0
 25 32  1  0  0  0  0
 26 27  2  0  0  0  0
 26 28  1  0  0  0  0
 28 29  1  0  0  0  0
 28 58  1  0  0  0  0
 29 30  2  0  0  0  0
 29 31  1  0  0  0  0
 31 32  1  0  0  0  0
 31 59  1  0  0  0  0
 31 60  1  0  0  0  0
 32 61  1  0  0  0  0
 32 62  1  0  0  0  0
M  END
>  <DRUGBANK_ID>
DB12998

>  <COMMON_NAME>
PF-00217830

>  <CAS_NUMBER>
846032-02-8

>  <UNII>
8BC08N1MS5

$$$$
