
 OpenBabel10282417072D

 50 50  0  0  0  0  0  0  0  0999 V2000
   -2.3125    1.8250    0.0000 C   0  0  0  0  0  0  0  0  0  0  0  0
   -3.0270    1.4125    0.0000 C   0  0  0  0  0  0  0  0  0  0  0  0
   -3.0270    0.5875    0.0000 C   0  0  0  0  0  0  0  0  0  0  0  0
   -2.3125    0.1750    0.0000 C   0  0  0  0  0  0  0  0  0  0  0  0
   -1.5980    0.5875    0.0000 C   0  0  0  0  0  0  0  0  0  0  0  0
   -1.5980    1.4125    0.0000 C   0  0  0  0  0  0  0  0  0  0  0  0
   -2.3125    2.6500    0.0000 C   0  0  0  0  0  0  0  0  0  0  0  0
   -3.7414    1.8250    0.0000 C   0  0  0  0  0  0  0  0  0  0  0  0
   -4.4559    0.5875    0.0000 C   0  0  0  0  0  0  0  0  0  0  0  0
   -0.8836    0.1750    0.0000 C   0  0  0  0  0  0  0  0  0  0  0  0
   -0.8836    1.8250    0.0000 C   0  0  0  0  0  0  0  0  0  0  0  0
   -0.1691    1.4125    0.0000 C   0  0  0  0  0  0  0  0  0  0  0  0
    1.2599    1.4125    0.0000 C   0  0  0  0  0  0  0  0  0  0  0  0
    1.9743    1.8250    0.0000 C   0  0  0  0  0  0  0  0  0  0  0  0
    2.6888    1.4125    0.0000 C   0  0  0  0  0  0  0  0  0  0  0  0
    4.1177    1.4125    0.0000 C   0  0  0  0  0  0  0  0  0  0  0  0
   -3.7414    0.1750    0.0000 O   0  0  0  0  0  0  0  0  0  0  0  0
    4.8322    2.6500    0.0000 O   0  0  0  0  0  0  0  0  0  0  0  0
    4.8322    1.8250    0.0000 C   0  0  0  0  0  0  0  0  0  0  0  0
    5.5467    1.4125    0.0000 O   0  0  0  0  0  0  0  0  0  0  0  0
    0.5454    1.8250    0.0000 C   0  0  0  0  0  0  0  0  0  0  0  0
    0.5454    2.6500    0.0000 C   0  0  0  0  0  0  0  0  0  0  0  0
    3.4033    1.8250    0.0000 C   0  0  0  0  0  0  0  0  0  0  0  0
    3.4033    2.6500    0.0000 C   0  0  0  0  0  0  0  0  0  0  0  0
   -2.3125   -0.8570    0.0000 H   0  0  0  0  0  0  0  0  0  0  0  0
   -1.3859    3.1850    0.0000 H   0  0  0  0  0  0  0  0  0  0  0  0
   -3.2391    3.1850    0.0000 H   0  0  0  0  0  0  0  0  0  0  0  0
   -2.3125    3.7200    0.0000 H   0  0  0  0  0  0  0  0  0  0  0  0
   -3.7414    2.8950    0.0000 H   0  0  0  0  0  0  0  0  0  0  0  0
   -4.6681    1.2900    0.0000 H   0  0  0  0  0  0  0  0  0  0  0  0
   -4.6680    2.3600    0.0000 H   0  0  0  0  0  0  0  0  0  0  0  0
   -4.4559    1.6575    0.0000 H   0  0  0  0  0  0  0  0  0  0  0  0
   -5.3825    0.0525    0.0000 H   0  0  0  0  0  0  0  0  0  0  0  0
   -5.3826    1.1225    0.0000 H   0  0  0  0  0  0  0  0  0  0  0  0
   -0.8836   -0.8950    0.0000 H   0  0  0  0  0  0  0  0  0  0  0  0
    0.0431    0.7100    0.0000 H   0  0  0  0  0  0  0  0  0  0  0  0
    0.0430   -0.3600    0.0000 H   0  0  0  0  0  0  0  0  0  0  0  0
   -0.8836    2.8570    0.0000 H   0  0  0  0  0  0  0  0  0  0  0  0
   -0.1691    0.3805    0.0000 H   0  0  0  0  0  0  0  0  0  0  0  0
    1.2599    0.3805    0.0000 H   0  0  0  0  0  0  0  0  0  0  0  0
    1.9743    2.8570    0.0000 H   0  0  0  0  0  0  0  0  0  0  0  0
    2.6888    0.3805    0.0000 H   0  0  0  0  0  0  0  0  0  0  0  0
    4.1177    0.3805    0.0000 H   0  0  0  0  0  0  0  0  0  0  0  0
    5.5467    0.4755    0.0000 H   0  0  0  0  0  0  0  0  0  0  0  0
    1.4720    3.1850    0.0000 H   0  0  0  0  0  0  0  0  0  0  0  0
   -0.3812    3.1850    0.0000 H   0  0  0  0  0  0  0  0  0  0  0  0
    0.5454    3.7200    0.0000 H   0  0  0  0  0  0  0  0  0  0  0  0
    4.3299    3.1850    0.0000 H   0  0  0  0  0  0  0  0  0  0  0  0
    2.4767    3.1850    0.0000 H   0  0  0  0  0  0  0  0  0  0  0  0
    3.4033    3.7200    0.0000 H   0  0  0  0  0  0  0  0  0  0  0  0
  1  2  1  0  0  0  0
  1  6  2  0  0  0  0
  1  7  1  0  0  0  0
  2  3  2  0  0  0  0
  2  8  1  0  0  0  0
  3  4  1  0  0  0  0
  3 17  1  0  0  0  0
  4  5  2  0  0  0  0
  4 25  1  0  0  0  0
  5  6  1  0  0  0  0
  5 10  1  0  0  0  0
  6 11  1  0  0  0  0
  7 26  1  0  0  0  0
  7 27  1  0  0  0  0
  7 28  1  0  0  0  0
  8 29  1  0  0  0  0
  8 30  1  0  0  0  0
  8 31  1  0  0  0  0
  9 32  1  0  0  0  0
  9 33  1  0  0  0  0
  9 34  1  0  0  0  0
 10 35  1  0  0  0  0
 10 36  1  0  0  0  0
 10 37  1  0  0  0  0
 11 12  2  0  0  0  0
 11 38  1  0  0  0  0
 12 21  1  0  0  0  0
 12 39  1  0  0  0  0
 13 14  1  0  0  0  0
 13 40  1  0  0  0  0
 14 15  2  0  0  0  0
 14 41  1  0  0  0  0
 15 23  1  0  0  0  0
 15 42  1  0  0  0  0
 16 19  1  0  0  0  0
 16 43  1  0  0  0  0
 17  9  1  0  0  0  0
 19 18  2  0  0  0  0
 19 20  1  0  0  0  0
 20 44  1  0  0  0  0
 21 13  2  0  0  0  0
 21 22  1  0  0  0  0
 22 45  1  0  0  0  0
 22 46  1  0  0  0  0
 22 47  1  0  0  0  0
 23 16  2  0  0  0  0
 23 24  1  0  0  0  0
 24 48  1  0  0  0  0
 24 49  1  0  0  0  0
 24 50  1  0  0  0  0
M  END
>  <DRUGBANK_ID>
DB00459

>  <SECONDARY_ACCESSION_NUMBERS>
APRD00778

>  <COMMON_NAME>
Acitretin

>  <CAS_NUMBER>
55079-83-9

>  <UNII>
LCH760E9T7

>  <SYNONYMS>
(all-E)-9-(4-Methoxy-2,3,6-trimethylphenyl)-3,7-dimethyl-2,4,6,8-nonatetraenoic acid; Acitretin; Acitretina; Acitretine; Acitretinum; all-trans-3,7-Dimethyl-9-(4-methoxy-2,3,6-trimethylphenyl)-2,4,6,8-nonatetraenoic acid; Etretin

$$$$
