
 OpenBabel10282417072D

 70 73  0  0  0  0  0  0  0  0999 V2000
   -2.0502   -1.0073    0.0000 C   0  0  1  0  0  0  0  0  0  0  0  0
    0.1190    0.1796    0.0000 C   0  0  1  0  0  0  0  0  0  0  0  0
   -2.0585   -1.8307    0.0000 C   0  0  0  0  0  0  0  0  0  0  0  0
    0.1150   -0.6437    0.0000 C   0  0  2  0  0  0  0  0  0  0  0  0
   -0.6122   -1.0407    0.0000 C   0  0  1  0  0  0  0  0  0  0  0  0
   -1.3270   -0.6103    0.0000 C   0  0  2  0  0  0  0  0  0  0  0  0
    0.8966    0.4220    0.0000 C   0  0  2  0  0  0  0  0  0  0  0  0
   -2.7690   -0.5767    0.0000 C   0  0  0  0  0  0  0  0  0  0  0  0
   -0.5997    0.6059    0.0000 C   0  0  0  0  0  0  0  0  0  0  0  0
   -1.3229    0.2132    0.0000 C   0  0  2  0  0  0  0  0  0  0  0  0
    0.8966   -0.9196    0.0000 C   0  0  0  0  0  0  0  0  0  0  0  0
    1.3897   -0.2633    0.0000 C   0  0  1  0  0  0  0  0  0  0  0  0
   -0.6165   -1.8643    0.0000 C   0  0  0  0  0  0  0  0  0  0  0  0
   -1.3395   -2.2613    0.0000 C   0  0  2  0  0  0  0  0  0  0  0  0
   -2.7816   -2.2278    0.0000 C   0  0  0  0  0  0  0  0  0  0  0  0
    3.0450    2.3030    0.0000 C   0  0  0  0  0  0  0  0  0  0  0  0
   -3.4880   -0.9740    0.0000 C   0  0  0  0  0  0  0  0  0  0  0  0
    1.1724    1.2037    0.0000 C   0  0  0  0  0  0  0  0  0  0  0  0
   -3.4963   -1.7973    0.0000 C   0  0  0  0  0  0  0  0  0  0  0  0
    3.5967    1.6803    0.0000 C   0  0  0  0  0  0  0  0  0  0  0  0
    2.2467    2.1442    0.0000 O   0  0  0  0  0  0  0  0  0  0  0  0
    3.3167    3.0847    0.0000 O   0  0  0  0  0  0  0  0  0  0  0  0
    1.9708    1.3626    0.0000 C   0  0  0  0  0  0  0  0  0  0  0  0
    0.6166    1.8265    0.0000 O   0  0  0  0  0  0  0  0  0  0  0  0
   -4.2194   -2.1943    0.0000 O   0  0  0  0  0  0  0  0  0  0  0  0
   -2.0459   -0.1840    0.0000 C   0  0  0  0  0  0  0  0  0  0  0  0
    0.0773    1.0115    0.0000 C   0  0  0  0  0  0  0  0  0  0  0  0
   -1.3437   -3.0847    0.0000 F   0  0  0  0  0  0  0  0  0  0  0  0
   -2.0376    0.6436    0.0000 O   0  0  0  0  0  0  0  0  0  0  0  0
    2.2132   -0.2675    0.0000 C   0  0  0  0  0  0  0  0  0  0  0  0
    2.9740    1.1243    0.0000 C   0  0  0  0  0  0  0  0  0  0  0  0
    4.2194    2.2320    0.0000 C   0  0  0  0  0  0  0  0  0  0  0  0
    4.1484    1.0573    0.0000 C   0  0  0  0  0  0  0  0  0  0  0  0
   -1.3312   -1.4379    0.0000 H   0  0  0  0  0  0  0  0  0  0  0  0
   -0.6165   -0.2090    0.0000 H   0  0  0  0  0  0  0  0  0  0  0  0
    0.1107   -1.4337    0.0000 H   0  0  0  0  0  0  0  0  0  0  0  0
    0.1541    1.1925    0.0000 H   0  0  0  0  0  0  0  0  0  0  0  0
   -2.7510    0.4551    0.0000 H   0  0  0  0  0  0  0  0  0  0  0  0
   -0.5794    1.6757    0.0000 H   0  0  0  0  0  0  0  0  0  0  0  0
   -1.5140    1.1617    0.0000 H   0  0  0  0  0  0  0  0  0  0  0  0
   -1.2990    1.2829    0.0000 H   0  0  0  0  0  0  0  0  0  0  0  0
    1.2062   -1.9438    0.0000 H   0  0  0  0  0  0  0  0  0  0  0  0
    1.9502   -1.1063    0.0000 H   0  0  0  0  0  0  0  0  0  0  0  0
    1.8654   -1.2218    0.0000 H   0  0  0  0  0  0  0  0  0  0  0  0
    0.3029   -2.4116    0.0000 H   0  0  0  0  0  0  0  0  0  0  0  0
    0.3151   -1.3379    0.0000 H   0  0  0  0  0  0  0  0  0  0  0  0
   -0.4200   -2.8086    0.0000 H   0  0  0  0  0  0  0  0  0  0  0  0
   -2.8022   -3.2596    0.0000 H   0  0  0  0  0  0  0  0  0  0  0  0
   -4.3742   -0.4452    0.0000 H   0  0  0  0  0  0  0  0  0  0  0  0
    2.6715    0.5539    0.0000 H   0  0  0  0  0  0  0  0  0  0  0  0
    1.6239    0.3504    0.0000 H   0  0  0  0  0  0  0  0  0  0  0  0
   -1.1165    0.3462    0.0000 H   0  0  0  0  0  0  0  0  0  0  0  0
   -2.9697    0.3558    0.0000 H   0  0  0  0  0  0  0  0  0  0  0  0
   -2.0403    0.8860    0.0000 H   0  0  0  0  0  0  0  0  0  0  0  0
    0.9760    1.5922    0.0000 H   0  0  0  0  0  0  0  0  0  0  0  0
   -0.8750    1.4994    0.0000 H   0  0  0  0  0  0  0  0  0  0  0  0
    0.0237    2.0802    0.0000 H   0  0  0  0  0  0  0  0  0  0  0  0
   -2.0197    1.6134    0.0000 H   0  0  0  0  0  0  0  0  0  0  0  0
    2.7435   -1.1969    0.0000 H   0  0  0  0  0  0  0  0  0  0  0  0
    2.7529    0.6564    0.0000 H   0  0  0  0  0  0  0  0  0  0  0  0
    3.2832   -0.2730    0.0000 H   0  0  0  0  0  0  0  0  0  0  0  0
    1.9578    1.4592    0.0000 H   0  0  0  0  0  0  0  0  0  0  0  0
    3.1921    0.0768    0.0000 H   0  0  0  0  0  0  0  0  0  0  0  0
    2.1759    0.4117    0.0000 H   0  0  0  0  0  0  0  0  0  0  0  0
    5.2343    1.8932    0.0000 H   0  0  0  0  0  0  0  0  0  0  0  0
    4.0053    3.2804    0.0000 H   0  0  0  0  0  0  0  0  0  0  0  0
    5.0203    2.9416    0.0000 H   0  0  0  0  0  0  0  0  0  0  0  0
    3.8094    0.0424    0.0000 H   0  0  0  0  0  0  0  0  0  0  0  0
    5.1968    1.2711    0.0000 H   0  0  0  0  0  0  0  0  0  0  0  0
    4.8578    0.2562    0.0000 H   0  0  0  0  0  0  0  0  0  0  0  0
  1 26  1  1  0  0  0
  2  9  1  0  0  0  0
  2 27  1  1  0  0  0
  2  4  1  0  0  0  0
  3  1  1  0  0  0  0
  4  5  1  0  0  0  0
  4 36  1  6  0  0  0
  5  6  1  0  0  0  0
  5 35  1  1  0  0  0
  5 13  1  0  0  0  0
  6  1  1  0  0  0  0
  6 34  1  6  0  0  0
  7  2  1  0  0  0  0
  7 18  1  0  0  0  0
  7 37  1  6  0  0  0
  8  1  1  0  0  0  0
  8 38  1  0  0  0  0
  9 10  1  0  0  0  0
  9 39  1  0  0  0  0
  9 40  1  0  0  0  0
 10  6  1  0  0  0  0
 10 29  1  0  0  0  0
 10 41  1  6  0  0  0
 11  4  1  0  0  0  0
 11 42  1  0  0  0  0
 11 43  1  0  0  0  0
 12 11  1  0  0  0  0
 12 30  1  0  0  0  0
 12  7  1  0  0  0  0
 12 44  1  1  0  0  0
 13 14  1  0  0  0  0
 13 45  1  0  0  0  0
 13 46  1  0  0  0  0
 14  3  1  0  0  0  0
 14 28  1  0  0  0  0
 14 47  1  1  0  0  0
 15  3  2  0  0  0  0
 15 48  1  0  0  0  0
 16 21  1  0  0  0  0
 17  8  2  0  0  0  0
 17 19  1  0  0  0  0
 17 49  1  0  0  0  0
 19 15  1  0  0  0  0
 20 16  1  0  0  0  0
 21 23  1  0  0  0  0
 22 16  2  0  0  0  0
 23 18  1  0  0  0  0
 23 50  1  0  0  0  0
 23 51  1  0  0  0  0
 24 18  2  0  0  0  0
 25 19  2  0  0  0  0
 26 52  1  0  0  0  0
 26 53  1  0  0  0  0
 26 54  1  0  0  0  0
 27 55  1  0  0  0  0
 27 56  1  0  0  0  0
 27 57  1  0  0  0  0
 29 58  1  0  0  0  0
 30 59  1  0  0  0  0
 30 60  1  0  0  0  0
 30 61  1  0  0  0  0
 31 20  1  0  0  0  0
 31 62  1  0  0  0  0
 31 63  1  0  0  0  0
 31 64  1  0  0  0  0
 32 20  1  0  0  0  0
 32 65  1  0  0  0  0
 32 66  1  0  0  0  0
 32 67  1  0  0  0  0
 33 20  1  0  0  0  0
 33 68  1  0  0  0  0
 33 69  1  0  0  0  0
 33 70  1  0  0  0  0
M  END
>  <DRUGBANK_ID>
DB15777

>  <COMMON_NAME>
Fluocortolone pivalate

>  <CAS_NUMBER>
29205-06-9

>  <UNII>
9J8AL6K50Q

>  <SYNONYMS>
Fluocortolone 21-pivalate; Fluocortolone trimethylacetate

$$$$
