GVB
 OpenBabel10282417072D

 50 52  0  0  0  0  0  0  0  0999 V2000
    0.9367    2.7670    0.0000 C   0  0  0  0  0  0  0  0  0  0  0  0
    1.6511    2.3545    0.0000 O   0  0  0  0  0  0  0  0  0  0  0  0
    1.6511    1.5295    0.0000 C   0  0  0  0  0  0  0  0  0  0  0  0
    2.3656    1.1170    0.0000 C   0  0  0  0  0  0  0  0  0  0  0  0
    2.3656    0.2920    0.0000 C   0  0  0  0  0  0  0  0  0  0  0  0
    0.9367    1.1170    0.0000 C   0  0  0  0  0  0  0  0  0  0  0  0
    0.2222    1.5295    0.0000 O   0  0  0  0  0  0  0  0  0  0  0  0
   -0.4923    1.1170    0.0000 C   0  0  0  0  0  0  0  0  0  0  0  0
    0.9367    0.2920    0.0000 C   0  0  0  0  0  0  0  0  0  0  0  0
    1.6511   -0.1205    0.0000 C   0  0  0  0  0  0  0  0  0  0  0  0
    1.6511   -0.9455    0.0000 N   0  0  0  0  0  0  0  0  0  0  0  0
    2.3656   -1.3580    0.0000 C   0  0  0  0  0  0  0  0  0  0  0  0
    0.9367   -1.3580    0.0000 C   0  0  0  0  0  0  0  0  0  0  0  0
    0.9367   -2.1830    0.0000 C   0  0  0  0  0  0  0  0  0  0  0  0
    1.6511   -2.5955    0.0000 C   0  0  2  0  0  0  0  0  0  0  0  0
    1.6511   -3.4205    0.0000 N   0  0  0  0  0  0  0  0  0  0  0  0
    2.3656   -2.1830    0.0000 C   0  0  2  0  0  0  0  0  0  0  0  0
    3.0801   -2.5955    0.0000 C   0  0  0  0  0  0  0  0  0  0  0  0
    3.7946   -2.1830    0.0000 C   0  0  0  0  0  0  0  0  0  0  0  0
    4.5090   -2.5955    0.0000 C   0  0  0  0  0  0  0  0  0  0  0  0
    4.5090   -3.4205    0.0000 C   0  0  0  0  0  0  0  0  0  0  0  0
    3.7946   -3.8330    0.0000 C   0  0  0  0  0  0  0  0  0  0  0  0
    3.0801   -3.4205    0.0000 C   0  0  0  0  0  0  0  0  0  0  0  0
    3.7946   -4.6580    0.0000 C   0  0  0  0  0  0  0  0  0  0  0  0
    2.8713   -1.8911    0.0000 H   0  0  0  0  0  0  0  0  0  0  0  0
    1.1454   -2.8875    0.0000 H   0  0  0  0  0  0  0  0  0  0  0  0
    0.9367    3.8370    0.0000 H   0  0  0  0  0  0  0  0  0  0  0  0
    0.0100    2.2320    0.0000 H   0  0  0  0  0  0  0  0  0  0  0  0
    0.0101    3.3020    0.0000 H   0  0  0  0  0  0  0  0  0  0  0  0
    3.2593    1.6330    0.0000 H   0  0  0  0  0  0  0  0  0  0  0  0
    3.2593   -0.2240    0.0000 H   0  0  0  0  0  0  0  0  0  0  0  0
   -1.4189    1.6520    0.0000 H   0  0  0  0  0  0  0  0  0  0  0  0
   -0.4923    0.0470    0.0000 H   0  0  0  0  0  0  0  0  0  0  0  0
   -1.4190    0.5820    0.0000 H   0  0  0  0  0  0  0  0  0  0  0  0
    0.0430   -0.2240    0.0000 H   0  0  0  0  0  0  0  0  0  0  0  0
    3.2922   -0.8230    0.0000 H   0  0  0  0  0  0  0  0  0  0  0  0
    3.2922   -1.8930    0.0000 H   0  0  0  0  0  0  0  0  0  0  0  0
    0.0100   -0.8230    0.0000 H   0  0  0  0  0  0  0  0  0  0  0  0
    0.0101   -1.8930    0.0000 H   0  0  0  0  0  0  0  0  0  0  0  0
    0.0100   -2.7180    0.0000 H   0  0  0  0  0  0  0  0  0  0  0  0
    0.9367   -3.2530    0.0000 H   0  0  0  0  0  0  0  0  0  0  0  0
    0.7678   -3.9305    0.0000 H   0  0  0  0  0  0  0  0  0  0  0  0
    2.5344   -3.9305    0.0000 H   0  0  0  0  0  0  0  0  0  0  0  0
    3.7946   -1.1510    0.0000 H   0  0  0  0  0  0  0  0  0  0  0  0
    5.4027   -2.0795    0.0000 H   0  0  0  0  0  0  0  0  0  0  0  0
    5.4027   -3.9365    0.0000 H   0  0  0  0  0  0  0  0  0  0  0  0
    2.1864   -3.9365    0.0000 H   0  0  0  0  0  0  0  0  0  0  0  0
    2.8680   -5.1930    0.0000 H   0  0  0  0  0  0  0  0  0  0  0  0
    4.7212   -5.1930    0.0000 H   0  0  0  0  0  0  0  0  0  0  0  0
    3.7946   -5.7280    0.0000 H   0  0  0  0  0  0  0  0  0  0  0  0
  1  2  1  0  0  0  0
  1 27  1  0  0  0  0
  1 28  1  0  0  0  0
  1 29  1  0  0  0  0
  2  3  1  0  0  0  0
  3  4  1  0  0  0  0
  3  6  2  0  0  0  0
  4  5  2  0  0  0  0
  4 30  1  0  0  0  0
  5 10  1  0  0  0  0
  5 31  1  0  0  0  0
  6  7  1  0  0  0  0
  6  9  1  0  0  0  0
  7  8  1  0  0  0  0
  8 32  1  0  0  0  0
  8 33  1  0  0  0  0
  8 34  1  0  0  0  0
  9 10  2  0  0  0  0
  9 35  1  0  0  0  0
 10 11  1  0  0  0  0
 11 12  1  0  0  0  0
 11 13  1  0  0  0  0
 12 17  1  0  0  0  0
 12 36  1  0  0  0  0
 12 37  1  0  0  0  0
 13 14  1  0  0  0  0
 13 38  1  0  0  0  0
 13 39  1  0  0  0  0
 14 15  1  0  0  0  0
 14 40  1  0  0  0  0
 14 41  1  0  0  0  0
 15 26  1  6  0  0  0
 15 16  1  0  0  0  0
 15 17  1  0  0  0  0
 16 42  1  0  0  0  0
 16 43  1  0  0  0  0
 17 25  1  6  0  0  0
 17 18  1  0  0  0  0
 18 19  1  0  0  0  0
 18 23  2  0  0  0  0
 19 20  2  0  0  0  0
 19 44  1  0  0  0  0
 20 21  1  0  0  0  0
 20 45  1  0  0  0  0
 21 22  2  0  0  0  0
 21 46  1  0  0  0  0
 22 23  1  0  0  0  0
 22 24  1  0  0  0  0
 23 47  1  0  0  0  0
 24 48  1  0  0  0  0
 24 49  1  0  0  0  0
 24 50  1  0  0  0  0
M  END
>  <DRUGBANK_ID>
DB07851

>  <COMMON_NAME>
(3R,4S)-1-(3,4-DIMETHOXYPHENYL)-3-(3-METHYLPHENYL)PIPERIDIN-4-AMINE

$$$$
