LK3
 OpenBabel10282417072D

 54 55  0  0  0  0  0  0  0  0999 V2000
    1.3199    0.9804    0.0000 O   0  0  0  0  0  0  0  0  0  0  0  0
    0.9074    0.2659    0.0000 S   0  0  0  0  0  0  0  0  0  0  0  0
    0.4949   -0.4485    0.0000 O   0  0  0  0  0  0  0  0  0  0  0  0
    1.6218   -0.1466    0.0000 N   0  0  0  0  0  0  0  0  0  0  0  0
    2.3363    0.2659    0.0000 C   0  0  1  0  0  0  0  0  0  0  0  0
    2.3363    1.0909    0.0000 C   0  0  0  0  0  0  0  0  0  0  0  0
    3.0508    1.5034    0.0000 O   0  0  0  0  0  0  0  0  0  0  0  0
    1.6218    1.5034    0.0000 O   0  0  0  0  0  0  0  0  0  0  0  0
    3.0508   -0.1466    0.0000 C   0  0  0  0  0  0  0  0  0  0  0  0
    3.7652    0.2659    0.0000 C   0  0  0  0  0  0  0  0  0  0  0  0
    4.4797   -0.1466    0.0000 C   0  0  0  0  0  0  0  0  0  0  0  0
    5.1942    0.2659    0.0000 O   0  0  0  0  0  0  0  0  0  0  0  0
    4.4797   -0.9716    0.0000 O   0  0  0  0  0  0  0  0  0  0  0  0
    0.1929    0.6784    0.0000 C   0  0  0  0  0  0  0  0  0  0  0  0
   -0.5216    0.2659    0.0000 C   0  0  0  0  0  0  0  0  0  0  0  0
   -1.2361    0.6784    0.0000 C   0  0  0  0  0  0  0  0  0  0  0  0
   -1.2361    1.5034    0.0000 C   0  0  0  0  0  0  0  0  0  0  0  0
   -1.9505    1.9159    0.0000 C   0  0  0  0  0  0  0  0  0  0  0  0
   -1.9505    2.7409    0.0000 C   0  0  0  0  0  0  0  0  0  0  0  0
   -1.2361    3.1534    0.0000 C   0  0  0  0  0  0  0  0  0  0  0  0
   -0.5216    2.7409    0.0000 C   0  0  0  0  0  0  0  0  0  0  0  0
   -0.5216    1.9159    0.0000 C   0  0  0  0  0  0  0  0  0  0  0  0
    0.1929    1.5034    0.0000 C   0  0  0  0  0  0  0  0  0  0  0  0
   -2.6650    3.1534    0.0000 O   0  0  0  0  0  0  0  0  0  0  0  0
   -3.3795    2.7409    0.0000 C   0  0  0  0  0  0  0  0  0  0  0  0
   -4.0939    3.1534    0.0000 C   0  0  0  0  0  0  0  0  0  0  0  0
   -4.8084    2.7409    0.0000 C   0  0  0  0  0  0  0  0  0  0  0  0
   -5.5229    3.1534    0.0000 C   0  0  0  0  0  0  0  0  0  0  0  0
   -6.2374    2.7409    0.0000 C   0  0  0  0  0  0  0  0  0  0  0  0
    1.8306    0.5579    0.0000 H   0  0  0  0  0  0  0  0  0  0  0  0
    1.6218   -1.1666    0.0000 H   0  0  0  0  0  0  0  0  0  0  0  0
    3.8623    1.0349    0.0000 H   0  0  0  0  0  0  0  0  0  0  0  0
    3.0508   -1.2166    0.0000 H   0  0  0  0  0  0  0  0  0  0  0  0
    3.9775   -0.6816    0.0000 H   0  0  0  0  0  0  0  0  0  0  0  0
    3.7652    1.3359    0.0000 H   0  0  0  0  0  0  0  0  0  0  0  0
    4.6918    0.8009    0.0000 H   0  0  0  0  0  0  0  0  0  0  0  0
    3.6682   -1.4401    0.0000 H   0  0  0  0  0  0  0  0  0  0  0  0
   -0.5216   -0.7661    0.0000 H   0  0  0  0  0  0  0  0  0  0  0  0
   -2.1298    0.1624    0.0000 H   0  0  0  0  0  0  0  0  0  0  0  0
   -2.8442    1.3999    0.0000 H   0  0  0  0  0  0  0  0  0  0  0  0
   -1.2361    4.1854    0.0000 H   0  0  0  0  0  0  0  0  0  0  0  0
    0.3721    3.2569    0.0000 H   0  0  0  0  0  0  0  0  0  0  0  0
    1.0866    2.0194    0.0000 H   0  0  0  0  0  0  0  0  0  0  0  0
   -3.3795    1.6709    0.0000 H   0  0  0  0  0  0  0  0  0  0  0  0
   -4.3062    2.2059    0.0000 H   0  0  0  0  0  0  0  0  0  0  0  0
   -4.0939    4.2234    0.0000 H   0  0  0  0  0  0  0  0  0  0  0  0
   -5.0205    3.6884    0.0000 H   0  0  0  0  0  0  0  0  0  0  0  0
   -4.8084    1.6709    0.0000 H   0  0  0  0  0  0  0  0  0  0  0  0
   -5.7350    2.2059    0.0000 H   0  0  0  0  0  0  0  0  0  0  0  0
   -5.5229    4.2234    0.0000 H   0  0  0  0  0  0  0  0  0  0  0  0
   -6.4495    3.6884    0.0000 H   0  0  0  0  0  0  0  0  0  0  0  0
   -7.1640    3.2759    0.0000 H   0  0  0  0  0  0  0  0  0  0  0  0
   -6.2374    1.6709    0.0000 H   0  0  0  0  0  0  0  0  0  0  0  0
   -7.1641    2.2059    0.0000 H   0  0  0  0  0  0  0  0  0  0  0  0
  2  4  1  0  0  0  0
  2 14  1  0  0  0  0
  2  1  2  0  0  0  0
  3  2  2  0  0  0  0
  4 31  1  0  0  0  0
  5  4  1  0  0  0  0
  5  6  1  0  0  0  0
  5  9  1  0  0  0  0
  5 30  1  6  0  0  0
  6  7  1  0  0  0  0
  6  8  2  0  0  0  0
  7 32  1  0  0  0  0
  9 10  1  0  0  0  0
  9 33  1  0  0  0  0
  9 34  1  0  0  0  0
 10 11  1  0  0  0  0
 10 35  1  0  0  0  0
 10 36  1  0  0  0  0
 11 12  2  0  0  0  0
 11 13  1  0  0  0  0
 13 37  1  0  0  0  0
 14 15  1  0  0  0  0
 14 23  2  0  0  0  0
 15 16  2  0  0  0  0
 15 38  1  0  0  0  0
 16 17  1  0  0  0  0
 16 39  1  0  0  0  0
 17 18  1  0  0  0  0
 17 22  2  0  0  0  0
 18 19  2  0  0  0  0
 18 40  1  0  0  0  0
 19 20  1  0  0  0  0
 19 24  1  0  0  0  0
 20 21  2  0  0  0  0
 20 41  1  0  0  0  0
 21 22  1  0  0  0  0
 21 42  1  0  0  0  0
 22 23  1  0  0  0  0
 23 43  1  0  0  0  0
 24 25  1  0  0  0  0
 25 26  1  0  0  0  0
 25 44  1  0  0  0  0
 25 45  1  0  0  0  0
 26 27  1  0  0  0  0
 26 46  1  0  0  0  0
 26 47  1  0  0  0  0
 27 28  1  0  0  0  0
 27 48  1  0  0  0  0
 27 49  1  0  0  0  0
 28 29  1  0  0  0  0
 28 50  1  0  0  0  0
 28 51  1  0  0  0  0
 29 52  1  0  0  0  0
 29 53  1  0  0  0  0
 29 54  1  0  0  0  0
M  END
>  <DRUGBANK_ID>
DB08107

>  <COMMON_NAME>
N-{[6-(PENTYLOXY)NAPHTHALEN-2-YL]SULFONYL}-D-GLUTAMIC ACID

$$$$
