
 OpenBabel10282417072D

206213  0  0  1  0  0  0  0  0999 V2000
    7.8339   -4.8884    0.0000 C   0  0  0  0  0  0  0  0  0  0  0  0
    7.8248   -4.0635    0.0000 C   0  0  3  0  0  0  0  0  0  0  0  0
    8.5347   -3.6431    0.0000 O   0  0  0  0  0  0  0  0  0  0  0  0
    7.1058   -3.6589    0.0000 C   0  0  0  0  0  0  0  0  0  0  0  0
    7.0967   -2.8339    0.0000 O   0  0  0  0  0  0  0  0  0  0  0  0
    6.3777   -2.4293    0.0000 C   0  0  0  0  0  0  0  0  0  0  0  0
    6.3686   -1.6044    0.0000 C   0  0  1  0  0  0  0  0  0  0  0  0
    7.0812   -1.1949    0.0000 O   0  0  0  0  0  0  0  0  0  0  0  0
    7.1052   -0.3506    0.0000 C   0  0  2  0  0  0  0  0  0  0  0  0
    7.9615   -0.2250    0.0000 O   0  0  0  0  0  0  0  0  0  0  0  0
    8.7858   -0.4617    0.0000 C   0  0  2  0  0  0  0  0  0  0  0  0
    8.9316   -1.2927    0.0000 C   0  0  1  0  0  0  0  0  0  0  0  0
    8.2923   -1.8141    0.0000 C   0  0  0  0  0  0  0  0  0  0  0  0
    8.4242   -2.6285    0.0000 O   0  0  0  0  0  0  0  0  0  0  0  0
    9.6960   -1.5944    0.0000 O   0  0  0  0  0  0  0  0  0  0  0  0
   10.3711   -1.0868    0.0000 C   0  0  2  0  0  0  0  0  0  0  0  0
   11.0032   -1.6780    0.0000 O   0  0  0  0  0  0  0  0  0  0  0  0
   11.3321   -2.4700    0.0000 C   0  0  2  0  0  0  0  0  0  0  0  0
   10.7733   -3.1021    0.0000 C   0  0  1  0  0  0  0  0  0  0  0  0
    9.9670   -2.9274    0.0000 C   0  0  0  0  0  0  0  0  0  0  0  0
    9.4125   -3.5383    0.0000 O   0  0  0  0  0  0  0  0  0  0  0  0
   11.0139   -3.8879    0.0000 O   0  0  0  0  0  0  0  0  0  0  0  0
   11.8317   -4.0992    0.0000 C   0  0  2  0  0  0  0  0  0  0  0  0
   11.7636   -4.9620    0.0000 O   0  0  0  0  0  0  0  0  0  0  0  0
   11.3494   -5.7129    0.0000 C   0  0  2  0  0  0  0  0  0  0  0  0
   11.6999   -6.4848    0.0000 C   0  0  1  0  0  0  0  0  0  0  0  0
   12.5221   -6.5529    0.0000 C   0  0  0  0  0  0  0  0  0  0  0  0
   12.8743   -7.2989    0.0000 O   0  0  0  0  0  0  0  0  0  0  0  0
   11.2336   -7.1794    0.0000 O   0  0  0  0  0  0  0  0  0  0  0  0
   10.3872   -7.1194    0.0000 C   0  0  2  0  0  0  0  0  0  0  0  0
    9.6702   -7.6041    0.0000 O   0  0  0  0  0  0  0  0  0  0  0  0
    8.8249   -7.7484    0.0000 C   0  0  2  0  0  0  0  0  0  0  0  0
    8.4399   -8.5037    0.0000 C   0  0  1  0  0  0  0  0  0  0  0  0
    8.8993   -9.1889    0.0000 C   0  0  0  0  0  0  0  0  0  0  0  0
    8.5356   -9.9294    0.0000 O   0  0  0  0  0  0  0  0  0  0  0  0
    8.9951  -10.6147    0.0000 C   0  0  0  0  0  0  0  0  0  0  0  0
    8.6314  -11.3552    0.0000 C   0  0  3  0  0  0  0  0  0  0  0  0
    9.0908  -12.0404    0.0000 C   0  0  0  0  0  0  0  0  0  0  0  0
    7.8082  -11.4105    0.0000 O   0  0  0  0  0  0  0  0  0  0  0  0
    7.6061   -8.5722    0.0000 O   0  0  0  0  0  0  0  0  0  0  0  0
    7.1254   -7.8731    0.0000 C   0  0  2  0  0  0  0  0  0  0  0  0
    6.2993   -7.6147    0.0000 O   0  0  0  0  0  0  0  0  0  0  0  0
    5.6594   -7.0438    0.0000 C   0  0  2  0  0  0  0  0  0  0  0  0
    4.8289   -7.2137    0.0000 C   0  0  1  0  0  0  0  0  0  0  0  0
    4.5796   -8.0001    0.0000 C   0  0  0  0  0  0  0  0  0  0  0  0
    3.7739   -8.1775    0.0000 O   0  0  0  0  0  0  0  0  0  0  0  0
    4.2555   -6.6045    0.0000 O   0  0  0  0  0  0  0  0  0  0  0  0
    4.5024   -5.7927    0.0000 C   0  0  2  0  0  0  0  0  0  0  0  0
    4.1893   -4.9858    0.0000 O   0  0  0  0  0  0  0  0  0  0  0  0
    4.2367   -4.1296    0.0000 C   0  0  2  0  0  0  0  0  0  0  0  0
    3.5860   -3.5862    0.0000 C   0  0  1  0  0  0  0  0  0  0  0  0
    2.8157   -3.8816    0.0000 C   0  0  0  0  0  0  0  0  0  0  0  0
    2.1747   -3.3622    0.0000 O   0  0  0  0  0  0  0  0  0  0  0  0
    2.3040   -2.5474    0.0000 C   0  0  0  0  0  0  0  0  0  0  0  0
    1.6630   -2.0281    0.0000 C   0  0  3  0  0  0  0  0  0  0  0  0
    0.8927   -2.3235    0.0000 C   0  0  0  0  0  0  0  0  0  0  0  0
    1.7923   -1.2133    0.0000 O   0  0  0  0  0  0  0  0  0  0  0  0
    3.7048   -2.7581    0.0000 O   0  0  0  0  0  0  0  0  0  0  0  0
    4.4934   -2.4449    0.0000 C   0  0  2  0  0  0  0  0  0  0  0  0
    4.9291   -1.6971    0.0000 O   0  0  0  0  0  0  0  0  0  0  0  0
    5.6281   -1.2003    0.0000 C   0  0  1  0  0  0  0  0  0  0  0  0
    5.6472   -0.3527    0.0000 C   0  0  0  0  0  0  0  0  0  0  0  0
    6.3688    0.0707    0.0000 C   0  0  1  0  0  0  0  0  0  0  0  0
    6.3642    0.8957    0.0000 O   0  0  0  0  0  0  0  0  0  0  0  0
    5.1385   -2.9902    0.0000 C   0  0  2  0  0  0  0  0  0  0  0  0
    5.9110   -2.7005    0.0000 O   0  0  0  0  0  0  0  0  0  0  0  0
    5.0144   -3.8025    0.0000 C   0  0  1  0  0  0  0  0  0  0  0  0
    5.6650   -4.3098    0.0000 O   0  0  0  0  0  0  0  0  0  0  0  0
    5.3309   -5.6283    0.0000 C   0  0  2  0  0  0  0  0  0  0  0  0
    5.5860   -4.8438    0.0000 O   0  0  0  0  0  0  0  0  0  0  0  0
    5.8886   -6.2319    0.0000 C   0  0  1  0  0  0  0  0  0  0  0  0
    6.6908   -6.0394    0.0000 O   0  0  0  0  0  0  0  0  0  0  0  0
    6.9253   -5.2484    0.0000 C   0  0  0  0  0  0  0  0  0  0  0  0
    6.3575   -4.6499    0.0000 C   0  0  3  0  0  0  0  0  0  0  0  0
    5.9266   -3.9464    0.0000 C   0  0  0  0  0  0  0  0  0  0  0  0
    6.5920   -3.8589    0.0000 O   0  0  0  0  0  0  0  0  0  0  0  0
    7.5134   -7.1228    0.0000 C   0  0  2  0  0  0  0  0  0  0  0  0
    7.0591   -6.4341    0.0000 O   0  0  0  0  0  0  0  0  0  0  0  0
    8.3330   -7.0630    0.0000 C   0  0  1  0  0  0  0  0  0  0  0  0
    8.6827   -6.3158    0.0000 O   0  0  0  0  0  0  0  0  0  0  0  0
   10.0426   -6.3482    0.0000 C   0  0  2  0  0  0  0  0  0  0  0  0
    9.2209   -6.2740    0.0000 O   0  0  0  0  0  0  0  0  0  0  0  0
   10.5069   -5.6702    0.0000 C   0  0  1  0  0  0  0  0  0  0  0  0
   10.1408   -4.9308    0.0000 O   0  0  0  0  0  0  0  0  0  0  0  0
   12.4063   -3.4749    0.0000 C   0  0  2  0  0  0  0  0  0  0  0  0
   13.2116   -3.6541    0.0000 O   0  0  0  0  0  0  0  0  0  0  0  0
   13.7694   -3.0462    0.0000 C   0  0  0  0  0  0  0  0  0  0  0  0
   14.5747   -3.2253    0.0000 C   0  0  3  0  0  0  0  0  0  0  0  0
   14.8223   -4.0123    0.0000 C   0  0  0  0  0  0  0  0  0  0  0  0
   15.1325   -2.6174    0.0000 O   0  0  0  0  0  0  0  0  0  0  0  0
   12.1541   -2.6773    0.0000 C   0  0  1  0  0  0  0  0  0  0  0  0
   12.7199   -2.0769    0.0000 O   0  0  0  0  0  0  0  0  0  0  0  0
   10.2413   -0.2484    0.0000 C   0  0  2  0  0  0  0  0  0  0  0  0
   10.8834    0.2696    0.0000 O   0  0  0  0  0  0  0  0  0  0  0  0
   10.7559    1.0847    0.0000 C   0  0  0  0  0  0  0  0  0  0  0  0
   11.3981    1.6026    0.0000 C   0  0  3  0  0  0  0  0  0  0  0  0
   12.1677    1.3055    0.0000 C   0  0  0  0  0  0  0  0  0  0  0  0
   11.2706    2.4177    0.0000 O   0  0  0  0  0  0  0  0  0  0  0  0
    9.4604    0.0517    0.0000 C   0  0  1  0  0  0  0  0  0  0  0  0
    9.3437    0.8684    0.0000 O   0  0  0  0  0  0  0  0  0  0  0  0
    6.9132   -5.4336    0.0000 H   0  0  0  0  0  0  0  0  0  0  0  0
    8.7664   -5.4131    0.0000 H   0  0  0  0  0  0  0  0  0  0  0  0
    7.8457   -5.9583    0.0000 H   0  0  0  0  0  0  0  0  0  0  0  0
    8.7573   -4.5882    0.0000 H   0  0  0  0  0  0  0  0  0  0  0  0
    9.3801   -4.1188    0.0000 H   0  0  0  0  0  0  0  0  0  0  0  0
    6.1851   -4.2041    0.0000 H   0  0  0  0  0  0  0  0  0  0  0  0
    6.1733   -3.1342    0.0000 H   0  0  0  0  0  0  0  0  0  0  0  0
    5.4570   -2.9745    0.0000 H   0  0  0  0  0  0  0  0  0  0  0  0
    5.4452   -1.9046    0.0000 H   0  0  0  0  0  0  0  0  0  0  0  0
    7.2976   -2.1352    0.0000 H   0  0  0  0  0  0  0  0  0  0  0  0
    7.9048   -1.0616    0.0000 H   0  0  0  0  0  0  0  0  0  0  0  0
    7.9902   -1.1772    0.0000 H   0  0  0  0  0  0  0  0  0  0  0  0
    7.9289   -0.9193    0.0000 H   0  0  0  0  0  0  0  0  0  0  0  0
    7.2920   -1.4341    0.0000 H   0  0  0  0  0  0  0  0  0  0  0  0
    7.4631   -2.4904    0.0000 H   0  0  0  0  0  0  0  0  0  0  0  0
    7.6725   -3.2416    0.0000 H   0  0  0  0  0  0  0  0  0  0  0  0
   10.3137   -2.1553    0.0000 H   0  0  0  0  0  0  0  0  0  0  0  0
   10.2767   -2.2941    0.0000 H   0  0  0  0  0  0  0  0  0  0  0  0
   10.4400   -2.0853    0.0000 H   0  0  0  0  0  0  0  0  0  0  0  0
    9.6404   -1.9085    0.0000 H   0  0  0  0  0  0  0  0  0  0  0  0
    8.9213   -2.7008    0.0000 H   0  0  0  0  0  0  0  0  0  0  0  0
    8.4645   -3.3328    0.0000 H   0  0  0  0  0  0  0  0  0  0  0  0
   10.9606   -4.7206    0.0000 H   0  0  0  0  0  0  0  0  0  0  0  0
   12.4186   -5.7545    0.0000 H   0  0  0  0  0  0  0  0  0  0  0  0
   12.3160   -5.6100    0.0000 H   0  0  0  0  0  0  0  0  0  0  0  0
   13.1317   -5.6735    0.0000 H   0  0  0  0  0  0  0  0  0  0  0  0
   13.5885   -6.6411    0.0000 H   0  0  0  0  0  0  0  0  0  0  0  0
   12.3217   -8.0961    0.0000 H   0  0  0  0  0  0  0  0  0  0  0  0
   10.6642   -8.1529    0.0000 H   0  0  0  0  0  0  0  0  0  0  0  0
    9.4589   -8.6103    0.0000 H   0  0  0  0  0  0  0  0  0  0  0  0
    9.5080   -8.4400    0.0000 H   0  0  0  0  0  0  0  0  0  0  0  0
    9.9669   -9.1172    0.0000 H   0  0  0  0  0  0  0  0  0  0  0  0
    9.4952  -10.0776    0.0000 H   0  0  0  0  0  0  0  0  0  0  0  0
   10.0627  -10.5430    0.0000 H   0  0  0  0  0  0  0  0  0  0  0  0
    9.5910  -11.5034    0.0000 H   0  0  0  0  0  0  0  0  0  0  0  0
    9.6990  -11.2835    0.0000 H   0  0  0  0  0  0  0  0  0  0  0  0
    8.6191  -13.0008    0.0000 H   0  0  0  0  0  0  0  0  0  0  0  0
   10.1584  -11.9687    0.0000 H   0  0  0  0  0  0  0  0  0  0  0  0
    9.6867  -12.9291    0.0000 H   0  0  0  0  0  0  0  0  0  0  0  0
    7.2680  -10.6049    0.0000 H   0  0  0  0  0  0  0  0  0  0  0  0
    6.4900   -8.7340    0.0000 H   0  0  0  0  0  0  0  0  0  0  0  0
    5.3809   -8.0769    0.0000 H   0  0  0  0  0  0  0  0  0  0  0  0
    5.5447   -8.0090    0.0000 H   0  0  0  0  0  0  0  0  0  0  0  0
    5.3013   -8.7901    0.0000 H   0  0  0  0  0  0  0  0  0  0  0  0
    4.2563   -9.0201    0.0000 H   0  0  0  0  0  0  0  0  0  0  0  0
    3.1196   -7.4614    0.0000 H   0  0  0  0  0  0  0  0  0  0  0  0
    3.4332   -5.8328    0.0000 H   0  0  0  0  0  0  0  0  0  0  0  0
    3.2553   -4.5560    0.0000 H   0  0  0  0  0  0  0  0  0  0  0  0
    3.4105   -4.6417    0.0000 H   0  0  0  0  0  0  0  0  0  0  0  0
    2.6480   -4.9384    0.0000 H   0  0  0  0  0  0  0  0  0  0  0  0
    1.8166   -4.2647    0.0000 H   0  0  0  0  0  0  0  0  0  0  0  0
    3.3030   -2.1642    0.0000 H   0  0  0  0  0  0  0  0  0  0  0  0
    2.4716   -1.4906    0.0000 H   0  0  0  0  0  0  0  0  0  0  0  0
    1.4953   -3.0849    0.0000 H   0  0  0  0  0  0  0  0  0  0  0  0
    0.0614   -1.6499    0.0000 H   0  0  0  0  0  0  0  0  0  0  0  0
    0.7250   -3.3803    0.0000 H   0  0  0  0  0  0  0  0  0  0  0  0
   -0.1064   -2.7066    0.0000 H   0  0  0  0  0  0  0  0  0  0  0  0
    2.6980   -0.8660    0.0000 H   0  0  0  0  0  0  0  0  0  0  0  0
    3.7954   -1.6339    0.0000 H   0  0  0  0  0  0  0  0  0  0  0  0
    5.6914   -2.2684    0.0000 H   0  0  0  0  0  0  0  0  0  0  0  0
    4.7247    0.1895    0.0000 H   0  0  0  0  0  0  0  0  0  0  0  0
    5.6476    0.7173    0.0000 H   0  0  0  0  0  0  0  0  0  0  0  0
    5.4388    0.5999    0.0000 H   0  0  0  0  0  0  0  0  0  0  0  0
    7.2015    1.3854    0.0000 H   0  0  0  0  0  0  0  0  0  0  0  0
    5.3211   -1.9359    0.0000 H   0  0  0  0  0  0  0  0  0  0  0  0
    6.6601   -3.3168    0.0000 H   0  0  0  0  0  0  0  0  0  0  0  0
    6.0087   -3.4071    0.0000 H   0  0  0  0  0  0  0  0  0  0  0  0
    5.5309   -5.2705    0.0000 H   0  0  0  0  0  0  0  0  0  0  0  0
    4.6204   -4.8282    0.0000 H   0  0  0  0  0  0  0  0  0  0  0  0
    6.5348   -4.6423    0.0000 H   0  0  0  0  0  0  0  0  0  0  0  0
    6.1994   -5.2080    0.0000 H   0  0  0  0  0  0  0  0  0  0  0  0
    7.9658   -4.9988    0.0000 H   0  0  0  0  0  0  0  0  0  0  0  0
    7.2294   -4.2225    0.0000 H   0  0  0  0  0  0  0  0  0  0  0  0
    7.2065   -3.9987    0.0000 H   0  0  0  0  0  0  0  0  0  0  0  0
    6.4374   -3.0062    0.0000 H   0  0  0  0  0  0  0  0  0  0  0  0
    4.8570   -3.9742    0.0000 H   0  0  0  0  0  0  0  0  0  0  0  0
    5.3677   -3.0340    0.0000 H   0  0  0  0  0  0  0  0  0  0  0  0
    7.5353   -3.6327    0.0000 H   0  0  0  0  0  0  0  0  0  0  0  0
    6.4449   -7.1794    0.0000 H   0  0  0  0  0  0  0  0  0  0  0  0
    7.4933   -5.5667    0.0000 H   0  0  0  0  0  0  0  0  0  0  0  0
    7.7262   -6.1817    0.0000 H   0  0  0  0  0  0  0  0  0  0  0  0
    9.6491   -6.2326    0.0000 H   0  0  0  0  0  0  0  0  0  0  0  0
    9.4206   -7.2189    0.0000 H   0  0  0  0  0  0  0  0  0  0  0  0
    8.8134   -5.3937    0.0000 H   0  0  0  0  0  0  0  0  0  0  0  0
    9.4395   -5.5950    0.0000 H   0  0  0  0  0  0  0  0  0  0  0  0
   10.6784   -4.1234    0.0000 H   0  0  0  0  0  0  0  0  0  0  0  0
   12.7265   -4.4959    0.0000 H   0  0  0  0  0  0  0  0  0  0  0  0
   13.4483   -2.0255    0.0000 H   0  0  0  0  0  0  0  0  0  0  0  0
   14.4928   -2.2578    0.0000 H   0  0  0  0  0  0  0  0  0  0  0  0
   13.8513   -4.0137    0.0000 H   0  0  0  0  0  0  0  0  0  0  0  0
   14.0989   -4.8007    0.0000 H   0  0  0  0  0  0  0  0  0  0  0  0
   15.8668   -4.2445    0.0000 H   0  0  0  0  0  0  0  0  0  0  0  0
   15.1434   -5.0330    0.0000 H   0  0  0  0  0  0  0  0  0  0  0  0
   16.0794   -2.8280    0.0000 H   0  0  0  0  0  0  0  0  0  0  0  0
   13.1972   -2.9158    0.0000 H   0  0  0  0  0  0  0  0  0  0  0  0
   13.6639   -2.3001    0.0000 H   0  0  0  0  0  0  0  0  0  0  0  0
   11.2392   -0.6345    0.0000 H   0  0  0  0  0  0  0  0  0  0  0  0
    9.7577    1.4701    0.0000 H   0  0  0  0  0  0  0  0  0  0  0  0
   10.5906    2.1419    0.0000 H   0  0  0  0  0  0  0  0  0  0  0  0
   11.5634    0.5454    0.0000 H   0  0  0  0  0  0  0  0  0  0  0  0
   12.3331    0.2484    0.0000 H   0  0  0  0  0  0  0  0  0  0  0  0
   13.0005    1.9773    0.0000 H   0  0  0  0  0  0  0  0  0  0  0  0
   13.1659    0.9201    0.0000 H   0  0  0  0  0  0  0  0  0  0  0  0
   12.0256    3.0267    0.0000 H   0  0  0  0  0  0  0  0  0  0  0  0
   10.2971    0.7186    0.0000 H   0  0  0  0  0  0  0  0  0  0  0  0
   10.1067    1.4674    0.0000 H   0  0  0  0  0  0  0  0  0  0  0  0
  1  2  1  0  0  0  0
  1101  1  0  0  0  0
  1102  1  0  0  0  0
  1103  1  0  0  0  0
  2  3  1  0  0  0  0
  2  4  1  0  0  0  0
  2104  1  0  0  0  0
  3105  1  0  0  0  0
  4  5  1  0  0  0  0
  4106  1  0  0  0  0
  4107  1  0  0  0  0
  5  6  1  0  0  0  0
  6108  1  0  0  0  0
  6109  1  0  0  0  0
  7  6  1  0  0  0  0
  7  8  1  0  0  0  0
  7 61  1  0  0  0  0
  7110  1  1  0  0  0
  9  8  1  0  0  0  0
  9 10  1  0  0  0  0
  9 63  1  0  0  0  0
  9111  1  6  0  0  0
 11 10  1  0  0  0  0
 11 12  1  0  0  0  0
 11 99  1  0  0  0  0
 11112  1  6  0  0  0
 12 13  1  0  0  0  0
 12 15  1  0  0  0  0
 12113  1  1  0  0  0
 13 14  1  0  0  0  0
 13114  1  0  0  0  0
 13115  1  0  0  0  0
 14116  1  0  0  0  0
 16 15  1  0  0  0  0
 16 17  1  0  0  0  0
 16117  1  6  0  0  0
 18 17  1  0  0  0  0
 18 19  1  0  0  0  0
 18 91  1  0  0  0  0
 18118  1  6  0  0  0
 19 20  1  0  0  0  0
 19 22  1  0  0  0  0
 19119  1  1  0  0  0
 20 21  1  0  0  0  0
 20120  1  0  0  0  0
 20121  1  0  0  0  0
 21122  1  0  0  0  0
 23 22  1  0  0  0  0
 23 24  1  0  0  0  0
 23123  1  6  0  0  0
 25 24  1  0  0  0  0
 25 26  1  0  0  0  0
 25 83  1  0  0  0  0
 25124  1  1  0  0  0
 26 27  1  0  0  0  0
 26 29  1  0  0  0  0
 26125  1  6  0  0  0
 27 28  1  0  0  0  0
 27126  1  0  0  0  0
 27127  1  0  0  0  0
 28128  1  0  0  0  0
 30 29  1  0  0  0  0
 30 31  1  0  0  0  0
 30129  1  1  0  0  0
 32 31  1  0  0  0  0
 32 33  1  0  0  0  0
 32 79  1  0  0  0  0
 32130  1  1  0  0  0
 33 34  1  0  0  0  0
 33 40  1  0  0  0  0
 33131  1  6  0  0  0
 34 35  1  0  0  0  0
 34132  1  0  0  0  0
 34133  1  0  0  0  0
 35 36  1  0  0  0  0
 36 37  1  0  0  0  0
 36134  1  0  0  0  0
 36135  1  0  0  0  0
 37 38  1  0  0  0  0
 37 39  1  0  0  0  0
 37136  1  0  0  0  0
 38137  1  0  0  0  0
 38138  1  0  0  0  0
 38139  1  0  0  0  0
 39140  1  0  0  0  0
 41 40  1  0  0  0  0
 41 42  1  0  0  0  0
 41141  1  1  0  0  0
 43 42  1  0  0  0  0
 43 44  1  0  0  0  0
 43 71  1  0  0  0  0
 43142  1  1  0  0  0
 44 45  1  0  0  0  0
 44 47  1  0  0  0  0
 44143  1  6  0  0  0
 45 46  1  0  0  0  0
 45144  1  0  0  0  0
 45145  1  0  0  0  0
 46146  1  0  0  0  0
 48 47  1  0  0  0  0
 48 49  1  0  0  0  0
 48147  1  1  0  0  0
 50 49  1  0  0  0  0
 50 51  1  0  0  0  0
 50 67  1  0  0  0  0
 50148  1  1  0  0  0
 51 52  1  0  0  0  0
 51 58  1  0  0  0  0
 51149  1  6  0  0  0
 52 53  1  0  0  0  0
 52150  1  0  0  0  0
 52151  1  0  0  0  0
 53 54  1  0  0  0  0
 54 55  1  0  0  0  0
 54152  1  0  0  0  0
 54153  1  0  0  0  0
 55 56  1  0  0  0  0
 55 57  1  0  0  0  0
 55154  1  0  0  0  0
 56155  1  0  0  0  0
 56156  1  0  0  0  0
 56157  1  0  0  0  0
 57158  1  0  0  0  0
 59 58  1  0  0  0  0
 59 60  1  0  0  0  0
 59159  1  1  0  0  0
 61 60  1  0  0  0  0
 61 62  1  0  0  0  0
 61160  1  6  0  0  0
 62161  1  0  0  0  0
 62162  1  0  0  0  0
 63 62  1  0  0  0  0
 63 64  1  0  0  0  0
 63163  1  6  0  0  0
 64164  1  0  0  0  0
 65 59  1  0  0  0  0
 65 66  1  0  0  0  0
 65165  1  1  0  0  0
 66166  1  0  0  0  0
 67 65  1  0  0  0  0
 67 68  1  0  0  0  0
 67167  1  6  0  0  0
 68168  1  0  0  0  0
 69 48  1  0  0  0  0
 69 70  1  0  0  0  0
 69169  1  1  0  0  0
 70170  1  0  0  0  0
 71 69  1  0  0  0  0
 71 72  1  0  0  0  0
 71171  1  6  0  0  0
 72 73  1  0  0  0  0
 73 74  1  0  0  0  0
 73172  1  0  0  0  0
 73173  1  0  0  0  0
 74 75  1  0  0  0  0
 74 76  1  0  0  0  0
 74174  1  0  0  0  0
 75175  1  0  0  0  0
 75176  1  0  0  0  0
 75177  1  0  0  0  0
 76178  1  0  0  0  0
 77 41  1  0  0  0  0
 77 78  1  0  0  0  0
 77179  1  1  0  0  0
 78180  1  0  0  0  0
 79 77  1  0  0  0  0
 79 80  1  0  0  0  0
 79181  1  6  0  0  0
 80182  1  0  0  0  0
 81 30  1  0  0  0  0
 81 82  1  0  0  0  0
 81183  1  1  0  0  0
 82184  1  0  0  0  0
 83 81  1  0  0  0  0
 83 84  1  0  0  0  0
 83185  1  6  0  0  0
 84186  1  0  0  0  0
 85 23  1  0  0  0  0
 85 86  1  0  0  0  0
 85187  1  6  0  0  0
 86 87  1  0  0  0  0
 87 88  1  0  0  0  0
 87188  1  0  0  0  0
 87189  1  0  0  0  0
 88 89  1  0  0  0  0
 88 90  1  0  0  0  0
 88190  1  0  0  0  0
 89191  1  0  0  0  0
 89192  1  0  0  0  0
 89193  1  0  0  0  0
 90194  1  0  0  0  0
 91 85  1  0  0  0  0
 91 92  1  0  0  0  0
 91195  1  1  0  0  0
 92196  1  0  0  0  0
 93 16  1  0  0  0  0
 93 94  1  0  0  0  0
 93197  1  6  0  0  0
 94 95  1  0  0  0  0
 95 96  1  0  0  0  0
 95198  1  0  0  0  0
 95199  1  0  0  0  0
 96 97  1  0  0  0  0
 96 98  1  0  0  0  0
 96200  1  0  0  0  0
 97201  1  0  0  0  0
 97202  1  0  0  0  0
 97203  1  0  0  0  0
 98204  1  0  0  0  0
 99 93  1  0  0  0  0
 99100  1  0  0  0  0
 99205  1  1  0  0  0
100206  1  0  0  0  0
M  END
>  <DRUGBANK_ID>
DB15379

>  <COMMON_NAME>
Hydroxypropyl betadex

>  <CAS_NUMBER>
128446-35-5

>  <UNII>
1I96OHX6EK

>  <SYNONYMS>
2-Hydroxylpropyl-beta-cyclodextrin; 2-Hydroxypropyl-b-cyclodextrin; 2-HYDROXYPROPYL-BETA-CYCLODEXTRIN; HP-beta-CD; HPB; Hydroxypropyl beta cyclodextrin

$$$$
