PB2
 OpenBabel10282417072D

 32 34  0  0  0  0  0  0  0  0999 V2000
   -1.9990    0.6005    0.0000 C   0  0  0  0  0  0  0  0  0  0  0  0
   -2.7135    1.0130    0.0000 C   0  0  0  0  0  0  0  0  0  0  0  0
   -2.7135    1.8380    0.0000 C   0  0  0  0  0  0  0  0  0  0  0  0
   -1.9990    2.2505    0.0000 C   0  0  0  0  0  0  0  0  0  0  0  0
   -1.2845    1.8380    0.0000 C   0  0  0  0  0  0  0  0  0  0  0  0
   -1.2845    1.0130    0.0000 C   0  0  0  0  0  0  0  0  0  0  0  0
   -0.5701    0.6005    0.0000 C   0  0  0  0  0  0  0  0  0  0  0  0
    0.1444    1.0130    0.0000 C   0  0  0  0  0  0  0  0  0  0  0  0
    0.8589    0.6005    0.0000 C   0  0  0  0  0  0  0  0  0  0  0  0
   -0.5701   -0.2245    0.0000 C   0  0  0  0  0  0  0  0  0  0  0  0
    0.1444   -0.6370    0.0000 C   0  0  0  0  0  0  0  0  0  0  0  0
    0.8589   -0.2245    0.0000 C   0  0  0  0  0  0  0  0  0  0  0  0
    1.5733   -0.6370    0.0000 C   0  0  0  0  0  0  0  0  0  0  0  0
    1.5733   -1.4620    0.0000 N   0  0  0  0  0  0  0  0  0  0  0  0
    2.2408   -1.9470    0.0000 C   0  0  0  0  0  0  0  0  0  0  0  0
    1.9858   -2.7316    0.0000 C   0  0  0  0  0  0  0  0  0  0  0  0
    1.1608   -2.7316    0.0000 N   0  0  0  0  0  0  0  0  0  0  0  0
    0.9059   -1.9470    0.0000 C   0  0  0  0  0  0  0  0  0  0  0  0
   -1.9990   -0.4315    0.0000 H   0  0  0  0  0  0  0  0  0  0  0  0
   -3.6072    0.4970    0.0000 H   0  0  0  0  0  0  0  0  0  0  0  0
   -3.6072    2.3540    0.0000 H   0  0  0  0  0  0  0  0  0  0  0  0
   -1.9990    3.2825    0.0000 H   0  0  0  0  0  0  0  0  0  0  0  0
   -0.3908    2.3540    0.0000 H   0  0  0  0  0  0  0  0  0  0  0  0
    0.1444    2.0450    0.0000 H   0  0  0  0  0  0  0  0  0  0  0  0
    1.7526    1.1165    0.0000 H   0  0  0  0  0  0  0  0  0  0  0  0
   -1.4638   -0.7405    0.0000 H   0  0  0  0  0  0  0  0  0  0  0  0
    0.1444   -1.6690    0.0000 H   0  0  0  0  0  0  0  0  0  0  0  0
    2.5000   -0.1020    0.0000 H   0  0  0  0  0  0  0  0  0  0  0  0
    2.4999   -1.1720    0.0000 H   0  0  0  0  0  0  0  0  0  0  0  0
    3.2223   -1.6281    0.0000 H   0  0  0  0  0  0  0  0  0  0  0  0
    2.5924   -3.5665    0.0000 H   0  0  0  0  0  0  0  0  0  0  0  0
   -0.0756   -1.6281    0.0000 H   0  0  0  0  0  0  0  0  0  0  0  0
  1  2  2  0  0  0  0
  1  6  1  0  0  0  0
  1 19  1  0  0  0  0
  2  3  1  0  0  0  0
  2 20  1  0  0  0  0
  3  4  2  0  0  0  0
  3 21  1  0  0  0  0
  4  5  1  0  0  0  0
  4 22  1  0  0  0  0
  5  6  2  0  0  0  0
  5 23  1  0  0  0  0
  6  7  1  0  0  0  0
  7  8  2  0  0  0  0
  7 10  1  0  0  0  0
  8  9  1  0  0  0  0
  8 24  1  0  0  0  0
  9 12  2  0  0  0  0
  9 25  1  0  0  0  0
 10 11  2  0  0  0  0
 10 26  1  0  0  0  0
 11 12  1  0  0  0  0
 11 27  1  0  0  0  0
 12 13  1  0  0  0  0
 13 14  1  0  0  0  0
 13 28  1  0  0  0  0
 13 29  1  0  0  0  0
 14 15  1  0  0  0  0
 14 18  1  0  0  0  0
 15 16  2  0  0  0  0
 15 30  1  0  0  0  0
 16 17  1  0  0  0  0
 16 31  1  0  0  0  0
 17 18  2  0  0  0  0
 18 32  1  0  0  0  0
M  END
>  <DRUGBANK_ID>
DB08369

>  <COMMON_NAME>
1-(biphenyl-4-ylmethyl)-1H-imidazole

$$$$
