
 OpenBabel10282417072D

 13 12  0  0  0  0  0  0  0  0999 V2000
    0.1105   -2.0625    0.0000 O   0  0  0  0  0  0  0  0  0  0  0  0
    0.1105   -1.2375    0.0000 C   0  0  0  0  0  0  0  0  0  0  0  0
   -0.6039   -0.8250    0.0000 O   0  0  0  0  0  0  0  0  0  0  0  0
    0.8250   -0.8250    0.0000 C   0  0  0  0  0  0  0  0  0  0  0  0
    0.8250    0.0000    0.0000 P   0  0  0  0  0  0  0  0  0  0  0  0
    0.8250    0.8250    0.0000 O   0  0  0  0  0  0  0  0  0  0  0  0
    1.6500    0.0000    0.0000 O   0  0  0  0  0  0  0  0  0  0  0  0
    0.0000    0.0000    0.0000 O   0  0  0  0  0  0  0  0  0  0  0  0
   -0.7010   -2.5310    0.0000 H   0  0  0  0  0  0  0  0  0  0  0  0
    1.7516   -1.3600    0.0000 H   0  0  0  0  0  0  0  0  0  0  0  0
    1.7516   -0.2900    0.0000 H   0  0  0  0  0  0  0  0  0  0  0  0
    1.6650    1.3100    0.0000 H   0  0  0  0  0  0  0  0  0  0  0  0
    2.1350   -0.8400    0.0000 H   0  0  0  0  0  0  0  0  0  0  0  0
  1  2  1  0  0  0  0
  1  9  1  0  0  0  0
  2  3  2  0  0  0  0
  2  4  1  0  0  0  0
  4  5  1  0  0  0  0
  4 10  1  0  0  0  0
  4 11  1  0  0  0  0
  5  6  1  0  0  0  0
  5  7  1  0  0  0  0
  5  8  2  0  0  0  0
  6 12  1  0  0  0  0
  7 13  1  0  0  0  0
M  END
>  <DRUGBANK_ID>
DB02823

>  <SECONDARY_ACCESSION_NUMBERS>
EXPT02488

>  <COMMON_NAME>
Phosphonoacetic Acid

>  <CAS_NUMBER>
4408-78-0

>  <UNII>
N919E46723

$$$$
