
 OpenBabel10282417072D

 37 39  0  0  0  0  0  0  0  0999 V2000
   -1.7712    1.4826    0.0000 C   0  0  0  0  0  0  0  0  0  0  0  0
   -1.0299    1.8956    0.0000 C   0  0  0  0  0  0  0  0  0  0  0  0
   -0.3701    1.4826    0.0000 C   0  0  0  0  0  0  0  0  0  0  0  0
   -0.4527    0.6587    0.0000 C   0  0  0  0  0  0  0  0  0  0  0  0
   -1.1125    0.2478    0.0000 C   0  0  0  0  0  0  0  0  0  0  0  0
   -1.7712    0.6587    0.0000 C   0  0  0  0  0  0  0  0  0  0  0  0
   -2.5136    0.2478    0.0000 O   0  0  0  0  0  0  0  0  0  0  0  0
    0.3711    1.8956    0.0000 C   0  0  0  0  0  0  0  0  0  0  0  0
    1.1124    1.4010    0.0000 C   0  0  3  0  0  0  0  0  0  0  0  0
    1.1124    0.5760    0.0000 C   0  0  0  0  0  0  0  0  0  0  0  0
    0.4527    0.1652    0.0000 C   0  0  0  0  0  0  0  0  0  0  0  0
    0.3711   -0.6587    0.0000 C   0  0  0  0  0  0  0  0  0  0  0  0
   -0.2875   -1.0706    0.0000 O   0  0  0  0  0  0  0  0  0  0  0  0
    1.8548    1.8130    0.0000 N   0  0  0  0  0  0  0  0  0  0  0  0
    2.5136    1.4010    0.0000 C   0  0  0  0  0  0  0  0  0  0  0  0
    2.5136    0.5760    0.0000 C   0  0  0  0  0  0  0  0  0  0  0  0
    1.8548    0.1652    0.0000 C   0  0  0  0  0  0  0  0  0  0  0  0
    1.8548   -0.6587    0.0000 C   0  0  0  0  0  0  0  0  0  0  0  0
    1.1124   -1.0706    0.0000 C   0  0  0  0  0  0  0  0  0  0  0  0
    1.1124   -1.8956    0.0000 O   0  0  0  0  0  0  0  0  0  0  0  0
   -2.6610    2.0054    0.0000 H   0  0  0  0  0  0  0  0  0  0  0  0
   -1.0036    2.9273    0.0000 H   0  0  0  0  0  0  0  0  0  0  0  0
    0.4234    0.1133    0.0000 H   0  0  0  0  0  0  0  0  0  0  0  0
   -1.1129   -0.7842    0.0000 H   0  0  0  0  0  0  0  0  0  0  0  0
   -3.3165    0.7309    0.0000 H   0  0  0  0  0  0  0  0  0  0  0  0
    0.4139    2.9647    0.0000 H   0  0  0  0  0  0  0  0  0  0  0  0
    1.3245    2.3813    0.0000 H   0  0  0  0  0  0  0  0  0  0  0  0
    0.1689    0.8963    0.0000 H   0  0  0  0  0  0  0  0  0  0  0  0
   -0.4237    0.7101    0.0000 H   0  0  0  0  0  0  0  0  0  0  0  0
   -1.1150   -0.6310    0.0000 H   0  0  0  0  0  0  0  0  0  0  0  0
    1.8814    2.8327    0.0000 H   0  0  0  0  0  0  0  0  0  0  0  0
    3.4495    1.9196    0.0000 H   0  0  0  0  0  0  0  0  0  0  0  0
    3.4355    0.8578    0.0000 H   0  0  0  0  0  0  0  0  0  0  0  0
    3.4492    0.0568    0.0000 H   0  0  0  0  0  0  0  0  0  0  0  0
    2.5409   -0.4937    0.0000 H   0  0  0  0  0  0  0  0  0  0  0  0
    2.7441   -1.1823    0.0000 H   0  0  0  0  0  0  0  0  0  0  0  0
    0.3009   -2.3641    0.0000 H   0  0  0  0  0  0  0  0  0  0  0  0
  1  2  2  0  0  0  0
  1  6  1  0  0  0  0
  1 21  1  0  0  0  0
  2  3  1  0  0  0  0
  2 22  1  0  0  0  0
  3  4  2  0  0  0  0
  3  8  1  0  0  0  0
  4  5  1  0  0  0  0
  4 23  1  0  0  0  0
  5  6  2  0  0  0  0
  5 24  1  0  0  0  0
  6  7  1  0  0  0  0
  7 25  1  0  0  0  0
  8  9  1  0  0  0  0
  8 26  1  0  0  0  0
  8 27  1  0  0  0  0
  9 10  1  0  0  0  0
  9 14  1  0  0  0  0
  9 28  1  0  0  0  0
 10 11  1  0  0  0  0
 10 17  2  0  0  0  0
 11 12  2  0  0  0  0
 11 29  1  0  0  0  0
 12 13  1  0  0  0  0
 12 19  1  0  0  0  0
 13 30  1  0  0  0  0
 14 15  1  0  0  0  0
 14 31  1  0  0  0  0
 15 16  1  0  0  0  0
 15 32  1  0  0  0  0
 15 33  1  0  0  0  0
 16 17  1  0  0  0  0
 16 34  1  0  0  0  0
 16 35  1  0  0  0  0
 17 18  1  0  0  0  0
 18 19  2  0  0  0  0
 18 36  1  0  0  0  0
 19 20  1  0  0  0  0
 20 37  1  0  0  0  0
M  END
>  <DRUGBANK_ID>
DB12779

>  <COMMON_NAME>
Higenamine

>  <CAS_NUMBER>
5843-65-2

>  <UNII>
TBV5O16GAP

$$$$
