
 OpenBabel10282417072D

 32 32  0  0  0  0  0  0  0  0999 V2000
    2.8578    0.8250    0.0000 C   0  0  0  0  0  0  0  0  0  0  0  0
    2.1434   -0.4125    0.0000 C   0  0  0  0  0  0  0  0  0  0  0  0
    0.7144   -0.4125    0.0000 C   0  0  0  0  0  0  0  0  0  0  0  0
   -1.4289    0.8250    0.0000 C   0  0  0  0  0  0  0  0  0  0  0  0
   -0.7144   -0.4125    0.0000 C   0  0  0  0  0  0  0  0  0  0  0  0
   -2.1434    0.4125    0.0000 C   0  0  0  0  0  0  0  0  0  0  0  0
   -1.4289   -0.8250    0.0000 C   0  0  0  0  0  0  0  0  0  0  0  0
    0.0000    0.8250    0.0000 C   0  0  0  0  0  0  0  0  0  0  0  0
    2.1434    0.4125    0.0000 C   0  0  0  0  0  0  0  0  0  0  0  0
    0.7144    0.4125    0.0000 C   0  0  3  0  0  0  0  0  0  0  0  0
   -0.7144    0.4125    0.0000 C   0  0  0  0  0  0  0  0  0  0  0  0
   -2.1434   -0.4125    0.0000 C   0  0  0  0  0  0  0  0  0  0  0  0
   -2.8578   -0.8250    0.0000 I   0  0  0  0  0  0  0  0  0  0  0  0
    1.4289    0.8250    0.0000 N   0  0  0  0  0  0  0  0  0  0  0  0
    3.7845    0.2900    0.0000 H   0  0  0  0  0  0  0  0  0  0  0  0
    2.8578    1.8950    0.0000 H   0  0  0  0  0  0  0  0  0  0  0  0
    3.7844    1.3600    0.0000 H   0  0  0  0  0  0  0  0  0  0  0  0
    1.2168   -0.9475    0.0000 H   0  0  0  0  0  0  0  0  0  0  0  0
    3.0700   -0.9475    0.0000 H   0  0  0  0  0  0  0  0  0  0  0  0
    2.1434   -1.4825    0.0000 H   0  0  0  0  0  0  0  0  0  0  0  0
   -0.2122   -0.9475    0.0000 H   0  0  0  0  0  0  0  0  0  0  0  0
    1.6410   -0.9475    0.0000 H   0  0  0  0  0  0  0  0  0  0  0  0
    0.7144   -1.4825    0.0000 H   0  0  0  0  0  0  0  0  0  0  0  0
   -1.4289    1.8570    0.0000 H   0  0  0  0  0  0  0  0  0  0  0  0
    0.1793   -0.9285    0.0000 H   0  0  0  0  0  0  0  0  0  0  0  0
   -3.0371    0.9285    0.0000 H   0  0  0  0  0  0  0  0  0  0  0  0
   -1.4289   -1.8570    0.0000 H   0  0  0  0  0  0  0  0  0  0  0  0
    0.0000    1.8950    0.0000 H   0  0  0  0  0  0  0  0  0  0  0  0
   -0.9267    1.3600    0.0000 H   0  0  0  0  0  0  0  0  0  0  0  0
    1.2168   -0.1225    0.0000 H   0  0  0  0  0  0  0  0  0  0  0  0
   -0.2123   -0.1225    0.0000 H   0  0  0  0  0  0  0  0  0  0  0  0
    1.4289    1.8450    0.0000 H   0  0  0  0  0  0  0  0  0  0  0  0
  1 15  1  0  0  0  0
  1 16  1  0  0  0  0
  1 17  1  0  0  0  0
  2 18  1  0  0  0  0
  2 19  1  0  0  0  0
  2 20  1  0  0  0  0
  3 21  1  0  0  0  0
  3 22  1  0  0  0  0
  3 23  1  0  0  0  0
  4 24  1  0  0  0  0
  5 25  1  0  0  0  0
  6  4  1  0  0  0  0
  6 26  1  0  0  0  0
  7  5  2  0  0  0  0
  7 27  1  0  0  0  0
  8 28  1  0  0  0  0
  8 29  1  0  0  0  0
  9  1  1  0  0  0  0
  9  2  1  0  0  0  0
  9 30  1  0  0  0  0
 10  3  1  0  0  0  0
 10  8  1  0  0  0  0
 10 31  1  0  0  0  0
 11  4  2  0  0  0  0
 11  5  1  0  0  0  0
 11  8  1  0  0  0  0
 12  6  2  0  0  0  0
 12  7  1  0  0  0  0
 13 12  1  0  0  0  0
 14  9  1  0  0  0  0
 14 10  1  0  0  0  0
 14 32  1  0  0  0  0
M  ISO  1  13 123
M  END
>  <DRUGBANK_ID>
DB09480

>  <COMMON_NAME>
Iofetamine I-123

>  <CAS_NUMBER>
75917-92-9

>  <UNII>
LV23B78IJC

>  <SYNONYMS>
Iodine iofetamine (123I); Iofetamine (123 I); Iofetamine (123I); Iofetamine I 123; Iofetamine, I-123

$$$$
