
 OpenBabel10282417072D

 15 16  0  0  0  0  0  0  0  0999 V2000
   -1.3492   -0.4124    0.0000 C   0  0  0  0  0  0  0  0  0  0  0  0
   -1.3492    0.4125    0.0000 C   0  0  0  0  0  0  0  0  0  0  0  0
   -0.6347   -0.8250    0.0000 C   0  0  0  0  0  0  0  0  0  0  0  0
    0.0797   -0.4124    0.0000 C   0  0  0  0  0  0  0  0  0  0  0  0
    0.0797    0.4125    0.0000 C   0  0  0  0  0  0  0  0  0  0  0  0
   -0.6347    0.8250    0.0000 C   0  0  0  0  0  0  0  0  0  0  0  0
    0.8643   -0.6674    0.0000 O   0  0  0  0  0  0  0  0  0  0  0  0
    1.3492    0.0000    0.0000 C   0  0  0  0  0  0  0  0  0  0  0  0
    0.8643    0.6674    0.0000 C   0  0  0  0  0  0  0  0  0  0  0  0
   -2.2430   -0.9284    0.0000 H   0  0  0  0  0  0  0  0  0  0  0  0
   -2.2429    0.9285    0.0000 H   0  0  0  0  0  0  0  0  0  0  0  0
   -0.6347   -1.8570    0.0000 H   0  0  0  0  0  0  0  0  0  0  0  0
   -0.6347    1.8570    0.0000 H   0  0  0  0  0  0  0  0  0  0  0  0
    2.3812    0.0000    0.0000 H   0  0  0  0  0  0  0  0  0  0  0  0
    1.1832    1.6489    0.0000 H   0  0  0  0  0  0  0  0  0  0  0  0
  1 10  1  0  0  0  0
  2  1  2  0  0  0  0
  2 11  1  0  0  0  0
  3  1  1  0  0  0  0
  3 12  1  0  0  0  0
  4  3  2  0  0  0  0
  5  4  1  0  0  0  0
  6  2  1  0  0  0  0
  6  5  2  0  0  0  0
  6 13  1  0  0  0  0
  7  4  1  0  0  0  0
  8  7  1  0  0  0  0
  8 14  1  0  0  0  0
  9  5  1  0  0  0  0
  9  8  2  0  0  0  0
  9 15  1  0  0  0  0
M  END
>  <DRUGBANK_ID>
DB04179

>  <SECONDARY_ACCESSION_NUMBERS>
EXPT00790

>  <COMMON_NAME>
Benzofuran

>  <CAS_NUMBER>
271-89-6

>  <UNII>
LK6946W774

>  <SYNONYMS>
1-benzofuran; Coumaron; Coumarone; Cumarone

$$$$
