AGA
 OpenBabel10282417072D

 66 65  0  0  0  0  0  0  0  0999 V2000
   -6.2184    0.9943    0.0000 O   0  0  0  0  0  0  0  0  0  0  0  0
   -5.4724    0.6419    0.0000 C   0  0  0  0  0  0  0  0  0  0  0  0
   -4.7942    1.1118    0.0000 C   0  0  2  0  0  0  0  0  0  0  0  0
   -4.8621    1.9340    0.0000 O   0  0  0  0  0  0  0  0  0  0  0  0
   -4.0483    0.7594    0.0000 C   0  0  0  0  0  0  0  0  0  0  0  0
   -2.6242    0.8769    0.0000 P   0  0  1  0  0  0  0  0  0  0  0  0
   -2.9766    0.1309    0.0000 O   0  5  0  0  0  0  0  0  0  0  0  0
   -2.2718    1.6228    0.0000 O   0  0  0  0  0  0  0  0  0  0  0  0
   -3.3701    1.2292    0.0000 O   0  0  0  0  0  0  0  0  0  0  0  0
   -1.8782    0.5245    0.0000 O   0  0  0  0  0  0  0  0  0  0  0  0
   -1.2001    0.9943    0.0000 C   0  0  0  0  0  0  0  0  0  0  0  0
   -0.4541    0.6419    0.0000 C   0  0  1  0  0  0  0  0  0  0  0  0
   -0.3863   -0.1803    0.0000 C   0  0  0  0  0  0  0  0  0  0  0  0
    0.3597   -0.5326    0.0000 O   0  0  0  0  0  0  0  0  0  0  0  0
    0.4275   -1.3548    0.0000 C   0  0  0  0  0  0  0  0  0  0  0  0
   -0.2507   -1.8247    0.0000 O   0  0  0  0  0  0  0  0  0  0  0  0
    1.1734   -1.7072    0.0000 C   0  0  0  0  0  0  0  0  0  0  0  0
    1.2413   -2.5294    0.0000 C   0  0  0  0  0  0  0  0  0  0  0  0
    1.9872   -2.8818    0.0000 C   0  0  0  0  0  0  0  0  0  0  0  0
    2.0550   -3.7040    0.0000 C   0  0  0  0  0  0  0  0  0  0  0  0
    0.2240    1.1118    0.0000 O   0  0  0  0  0  0  0  0  0  0  0  0
    0.9700    0.7594    0.0000 C   0  0  0  0  0  0  0  0  0  0  0  0
    1.0378   -0.0628    0.0000 O   0  0  0  0  0  0  0  0  0  0  0  0
    1.6481    1.2292    0.0000 C   0  0  0  0  0  0  0  0  0  0  0  0
    2.3941    0.8769    0.0000 C   0  0  0  0  0  0  0  0  0  0  0  0
    3.0722    1.3467    0.0000 C   0  0  0  0  0  0  0  0  0  0  0  0
    3.8182    0.9943    0.0000 C   0  0  0  0  0  0  0  0  0  0  0  0
    4.4964    1.4642    0.0000 C   0  0  0  0  0  0  0  0  0  0  0  0
    5.2423    1.1118    0.0000 C   0  0  0  0  0  0  0  0  0  0  0  0
    5.9205    1.5816    0.0000 C   0  0  0  0  0  0  0  0  0  0  0  0
   -5.3222    1.3612    0.0000 H   0  0  0  0  0  0  0  0  0  0  0  0
   -0.9341    0.3094    0.0000 H   0  0  0  0  0  0  0  0  0  0  0  0
   -6.2981    1.9610    0.0000 H   0  0  0  0  0  0  0  0  0  0  0  0
   -5.3844   -0.4245    0.0000 H   0  0  0  0  0  0  0  0  0  0  0  0
   -4.5049    0.1849    0.0000 H   0  0  0  0  0  0  0  0  0  0  0  0
   -4.0648    2.4865    0.0000 H   0  0  0  0  0  0  0  0  0  0  0  0
   -3.9604   -0.3070    0.0000 H   0  0  0  0  0  0  0  0  0  0  0  0
   -3.0808    0.3023    0.0000 H   0  0  0  0  0  0  0  0  0  0  0  0
   -1.2880    2.0607    0.0000 H   0  0  0  0  0  0  0  0  0  0  0  0
   -0.3206    1.6037    0.0000 H   0  0  0  0  0  0  0  0  0  0  0  0
   -1.2658   -0.7897    0.0000 H   0  0  0  0  0  0  0  0  0  0  0  0
   -0.2983   -1.2467    0.0000 H   0  0  0  0  0  0  0  0  0  0  0  0
    2.0529   -1.0978    0.0000 H   0  0  0  0  0  0  0  0  0  0  0  0
    2.1409   -2.1642    0.0000 H   0  0  0  0  0  0  0  0  0  0  0  0
    0.3618   -3.1388    0.0000 H   0  0  0  0  0  0  0  0  0  0  0  0
    1.3292   -3.5958    0.0000 H   0  0  0  0  0  0  0  0  0  0  0  0
    2.8668   -2.2725    0.0000 H   0  0  0  0  0  0  0  0  0  0  0  0
    2.9547   -3.3388    0.0000 H   0  0  0  0  0  0  0  0  0  0  0  0
    1.1755   -4.3133    0.0000 H   0  0  0  0  0  0  0  0  0  0  0  0
    3.0225   -4.1610    0.0000 H   0  0  0  0  0  0  0  0  0  0  0  0
    2.1429   -4.7704    0.0000 H   0  0  0  0  0  0  0  0  0  0  0  0
    1.5601    2.2956    0.0000 H   0  0  0  0  0  0  0  0  0  0  0  0
    2.5276    1.8386    0.0000 H   0  0  0  0  0  0  0  0  0  0  0  0
    2.4821   -0.1895    0.0000 H   0  0  0  0  0  0  0  0  0  0  0  0
    3.3616    0.4199    0.0000 H   0  0  0  0  0  0  0  0  0  0  0  0
    2.9843    2.4131    0.0000 H   0  0  0  0  0  0  0  0  0  0  0  0
    3.9517    1.9561    0.0000 H   0  0  0  0  0  0  0  0  0  0  0  0
    3.9062   -0.0721    0.0000 H   0  0  0  0  0  0  0  0  0  0  0  0
    4.7857    0.5373    0.0000 H   0  0  0  0  0  0  0  0  0  0  0  0
    4.4085    2.5306    0.0000 H   0  0  0  0  0  0  0  0  0  0  0  0
    5.3760    2.0735    0.0000 H   0  0  0  0  0  0  0  0  0  0  0  0
    5.3302    0.0454    0.0000 H   0  0  0  0  0  0  0  0  0  0  0  0
    6.2098    0.6547    0.0000 H   0  0  0  0  0  0  0  0  0  0  0  0
    6.8880    1.1245    0.0000 H   0  0  0  0  0  0  0  0  0  0  0  0
    5.8326    2.6480    0.0000 H   0  0  0  0  0  0  0  0  0  0  0  0
    6.8001    2.1909    0.0000 H   0  0  0  0  0  0  0  0  0  0  0  0
  1  2  1  0  0  0  0
  1 33  1  0  0  0  0
  2  3  1  0  0  0  0
  2 34  1  0  0  0  0
  2 35  1  0  0  0  0
  3  4  1  0  0  0  0
  3  5  1  0  0  0  0
  3 31  1  1  0  0  0
  4 36  1  0  0  0  0
  5  9  1  0  0  0  0
  5 37  1  0  0  0  0
  5 38  1  0  0  0  0
  6  7  1  6  0  0  0
  6  8  2  0  0  0  0
  6  9  1  0  0  0  0
  6 10  1  0  0  0  0
 10 11  1  0  0  0  0
 11 12  1  0  0  0  0
 11 39  1  0  0  0  0
 11 40  1  0  0  0  0
 12 13  1  0  0  0  0
 12 21  1  0  0  0  0
 12 32  1  1  0  0  0
 13 14  1  0  0  0  0
 13 41  1  0  0  0  0
 13 42  1  0  0  0  0
 14 15  1  0  0  0  0
 15 16  2  0  0  0  0
 15 17  1  0  0  0  0
 17 18  1  0  0  0  0
 17 43  1  0  0  0  0
 17 44  1  0  0  0  0
 18 19  1  0  0  0  0
 18 45  1  0  0  0  0
 18 46  1  0  0  0  0
 19 20  1  0  0  0  0
 19 47  1  0  0  0  0
 19 48  1  0  0  0  0
 20 49  1  0  0  0  0
 20 50  1  0  0  0  0
 20 51  1  0  0  0  0
 21 22  1  0  0  0  0
 22 23  2  0  0  0  0
 22 24  1  0  0  0  0
 24 25  1  0  0  0  0
 24 52  1  0  0  0  0
 24 53  1  0  0  0  0
 25 26  1  0  0  0  0
 25 54  1  0  0  0  0
 25 55  1  0  0  0  0
 26 27  1  0  0  0  0
 26 56  1  0  0  0  0
 26 57  1  0  0  0  0
 27 28  1  0  0  0  0
 27 58  1  0  0  0  0
 27 59  1  0  0  0  0
 28 29  1  0  0  0  0
 28 60  1  0  0  0  0
 28 61  1  0  0  0  0
 29 30  1  0  0  0  0
 29 62  1  0  0  0  0
 29 63  1  0  0  0  0
 30 64  1  0  0  0  0
 30 65  1  0  0  0  0
 30 66  1  0  0  0  0
M  CHG  1   7  -1
M  END
>  <DRUGBANK_ID>
DB07349

>  <COMMON_NAME>
(1S)-2-{[{[(2S)-2,3-DIHYDROXYPROPYL]OXY}(HYDROXY)PHOSPHORYL]OXY}-1-[(PENTANOYLOXY)METHYL]ETHYL OCTANOATE

$$$$
