
 OpenBabel10282417072D

 34 33  0  0  0  0  0  0  0  0999 V2000
   -3.5889    0.6221    0.0000 C   0  0  0  0  0  0  0  0  0  0  0  0
   -2.8712    0.2153    0.0000 C   0  0  0  0  0  0  0  0  0  0  0  0
   -2.1533    0.6221    0.0000 C   0  0  0  0  0  0  0  0  0  0  0  0
   -1.4355    0.2153    0.0000 C   0  0  0  0  0  0  0  0  0  0  0  0
   -0.7177    0.6221    0.0000 C   0  0  0  0  0  0  0  0  0  0  0  0
    0.0239    0.2153    0.0000 C   0  0  0  0  0  0  0  0  0  0  0  0
    0.7178    0.6221    0.0000 C   0  0  0  0  0  0  0  0  0  0  0  0
    1.4356    0.2153    0.0000 C   0  0  0  0  0  0  0  0  0  0  0  0
    2.1534    0.6221    0.0000 C   0  0  0  0  0  0  0  0  0  0  0  0
    2.8712    0.2153    0.0000 C   0  0  0  0  0  0  0  0  0  0  0  0
    3.5889    0.6221    0.0000 C   0  0  0  0  0  0  0  0  0  0  0  0
   -2.8712   -0.6221    0.0000 O   0  0  0  0  0  0  0  0  0  0  0  0
   -3.5974    1.6921    0.0000 H   0  0  0  0  0  0  0  0  0  0  0  0
   -4.5113    0.0798    0.0000 H   0  0  0  0  0  0  0  0  0  0  0  0
   -4.5198    1.1497    0.0000 H   0  0  0  0  0  0  0  0  0  0  0  0
   -2.1533    1.6921    0.0000 H   0  0  0  0  0  0  0  0  0  0  0  0
   -1.2288    1.1608    0.0000 H   0  0  0  0  0  0  0  0  0  0  0  0
   -1.4355   -0.8547    0.0000 H   0  0  0  0  0  0  0  0  0  0  0  0
   -0.5110   -0.3234    0.0000 H   0  0  0  0  0  0  0  0  0  0  0  0
   -0.7251    1.6921    0.0000 H   0  0  0  0  0  0  0  0  0  0  0  0
    0.2011    1.1704    0.0000 H   0  0  0  0  0  0  0  0  0  0  0  0
    0.0392   -0.8546    0.0000 H   0  0  0  0  0  0  0  0  0  0  0  0
    0.9561   -0.3100    0.0000 H   0  0  0  0  0  0  0  0  0  0  0  0
    0.7100    1.6921    0.0000 H   0  0  0  0  0  0  0  0  0  0  0  0
    1.6403    1.1642    0.0000 H   0  0  0  0  0  0  0  0  0  0  0  0
    1.4356   -0.8547    0.0000 H   0  0  0  0  0  0  0  0  0  0  0  0
    2.3601   -0.3234    0.0000 H   0  0  0  0  0  0  0  0  0  0  0  0
    2.1534    1.6921    0.0000 H   0  0  0  0  0  0  0  0  0  0  0  0
    3.0779    1.1608    0.0000 H   0  0  0  0  0  0  0  0  0  0  0  0
    2.8712   -0.8547    0.0000 H   0  0  0  0  0  0  0  0  0  0  0  0
    3.7957   -0.3234    0.0000 H   0  0  0  0  0  0  0  0  0  0  0  0
    4.5113    0.0798    0.0000 H   0  0  0  0  0  0  0  0  0  0  0  0
    3.5974    1.6921    0.0000 H   0  0  0  0  0  0  0  0  0  0  0  0
    4.5198    1.1497    0.0000 H   0  0  0  0  0  0  0  0  0  0  0  0
  1 13  1  0  0  0  0
  1 14  1  0  0  0  0
  1 15  1  0  0  0  0
  2  1  1  0  0  0  0
  3  2  1  0  0  0  0
  3 16  1  0  0  0  0
  3 17  1  0  0  0  0
  4  3  1  0  0  0  0
  4 18  1  0  0  0  0
  4 19  1  0  0  0  0
  5  4  1  0  0  0  0
  5 20  1  0  0  0  0
  5 21  1  0  0  0  0
  6  5  1  0  0  0  0
  6 22  1  0  0  0  0
  6 23  1  0  0  0  0
  7  6  1  0  0  0  0
  7 24  1  0  0  0  0
  7 25  1  0  0  0  0
  8  7  1  0  0  0  0
  8 26  1  0  0  0  0
  8 27  1  0  0  0  0
  9  8  1  0  0  0  0
  9 28  1  0  0  0  0
  9 29  1  0  0  0  0
 10  9  1  0  0  0  0
 10 30  1  0  0  0  0
 10 31  1  0  0  0  0
 11 10  1  0  0  0  0
 11 32  1  0  0  0  0
 11 33  1  0  0  0  0
 11 34  1  0  0  0  0
 12  2  2  0  0  0  0
M  END
>  <DRUGBANK_ID>
DB08688

>  <COMMON_NAME>
2-Undecanone

>  <CAS_NUMBER>
112-12-9

>  <UNII>
YV5DSO8CY9

>  <SYNONYMS>
2-hendecanone; Methyl nonyl ketone; Rue ketone; Undecan-2-one

$$$$
