
 OpenBabel10282417072D

 44 46  0  0  0  0  0  0  0  0999 V2000
    1.1256    0.6202    0.0000 C   0  0  2  0  0  0  0  0  0  0  0  0
    1.1256   -0.2048    0.0000 N   0  0  0  0  0  0  0  0  0  0  0  0
    1.8403   -0.6173    0.0000 C   0  0  0  0  0  0  0  0  0  0  0  0
    2.5549   -0.2048    0.0000 C   0  0  0  0  0  0  0  0  0  0  0  0
    2.5549    0.6202    0.0000 C   0  0  0  0  0  0  0  0  0  0  0  0
    1.8403    1.0328    0.0000 S   0  0  0  0  0  0  0  0  0  0  0  0
    0.3005    0.6202    0.0000 C   0  0  1  0  0  0  0  0  0  0  0  0
    0.3005   -0.2048    0.0000 C   0  0  0  0  0  0  0  0  0  0  0  0
   -0.4138    1.0328    0.0000 N   0  0  0  0  0  0  0  0  0  0  0  0
   -1.1285    0.6202    0.0000 C   0  0  0  0  0  0  0  0  0  0  0  0
   -1.1285   -0.2048    0.0000 O   0  0  0  0  0  0  0  0  0  0  0  0
   -0.4138   -0.6173    0.0000 O   0  0  0  0  0  0  0  0  0  0  0  0
   -1.8430    1.0328    0.0000 C   0  0  1  0  0  0  0  0  0  0  0  0
    3.2804   -0.6238    0.0000 O   0  0  0  0  0  0  0  0  0  0  0  0
    1.8403   -1.4423    0.0000 C   0  0  0  0  0  0  0  0  0  0  0  0
    1.1157   -1.8606    0.0000 O   0  0  0  0  0  0  0  0  0  0  0  0
    2.5448   -1.8491    0.0000 O   0  0  0  0  0  0  0  0  0  0  0  0
   -2.5691    0.6134    0.0000 C   0  0  0  0  0  0  0  0  0  0  0  0
   -3.2829    1.0254    0.0000 C   0  0  0  0  0  0  0  0  0  0  0  0
   -3.9966    0.6134    0.0000 C   0  0  0  0  0  0  0  0  0  0  0  0
   -3.9966   -0.2105    0.0000 C   0  0  0  0  0  0  0  0  0  0  0  0
   -3.2829   -0.6227    0.0000 C   0  0  0  0  0  0  0  0  0  0  0  0
   -2.5691   -0.2105    0.0000 C   0  0  0  0  0  0  0  0  0  0  0  0
   -1.8430    1.8606    0.0000 N   0  0  0  0  0  0  0  0  0  0  0  0
    1.1256    1.4462    0.0000 H   0  0  0  0  0  0  0  0  0  0  0  0
    3.9966   -0.2104    0.0000 C   0  0  0  0  0  0  0  0  0  0  0  0
    3.4816    1.1552    0.0000 H   0  0  0  0  0  0  0  0  0  0  0  0
    2.5549    1.6902    0.0000 H   0  0  0  0  0  0  0  0  0  0  0  0
    0.5775    1.6537    0.0000 H   0  0  0  0  0  0  0  0  0  0  0  0
   -0.4137    2.0173    0.0000 H   0  0  0  0  0  0  0  0  0  0  0  0
   -0.9163    1.5678    0.0000 H   0  0  0  0  0  0  0  0  0  0  0  0
    2.5447   -2.7861    0.0000 H   0  0  0  0  0  0  0  0  0  0  0  0
   -3.2829    2.0954    0.0000 H   0  0  0  0  0  0  0  0  0  0  0  0
   -4.2095    1.5604    0.0000 H   0  0  0  0  0  0  0  0  0  0  0  0
   -4.8903    1.1294    0.0000 H   0  0  0  0  0  0  0  0  0  0  0  0
   -4.8904   -0.7264    0.0000 H   0  0  0  0  0  0  0  0  0  0  0  0
   -3.2829   -1.6927    0.0000 H   0  0  0  0  0  0  0  0  0  0  0  0
   -2.3562   -1.1577    0.0000 H   0  0  0  0  0  0  0  0  0  0  0  0
   -1.6753   -0.7265    0.0000 H   0  0  0  0  0  0  0  0  0  0  0  0
   -0.9597    2.3706    0.0000 H   0  0  0  0  0  0  0  0  0  0  0  0
   -2.7263    2.3706    0.0000 H   0  0  0  0  0  0  0  0  0  0  0  0
    4.9232   -0.7455    0.0000 H   0  0  0  0  0  0  0  0  0  0  0  0
    3.9967    0.8596    0.0000 H   0  0  0  0  0  0  0  0  0  0  0  0
    4.9233    0.3245    0.0000 H   0  0  0  0  0  0  0  0  0  0  0  0
  1  2  1  0  0  0  0
  1  6  1  0  0  0  0
  1  7  1  0  0  0  0
  1 25  1  6  0  0  0
  2  3  1  0  0  0  0
  2  8  1  0  0  0  0
  3  4  2  0  0  0  0
  3 15  1  0  0  0  0
  4  5  1  0  0  0  0
  4 14  1  0  0  0  0
  5  6  1  0  0  0  0
  5 27  1  0  0  0  0
  5 28  1  0  0  0  0
  7  8  1  0  0  0  0
  7  9  1  0  0  0  0
  7 29  1  6  0  0  0
  8 12  2  0  0  0  0
  9 10  1  0  0  0  0
  9 30  1  0  0  0  0
 10 11  2  0  0  0  0
 10 13  1  0  0  0  0
 13 18  1  0  0  0  0
 13 24  1  0  0  0  0
 13 31  1  6  0  0  0
 14 26  1  0  0  0  0
 15 16  2  0  0  0  0
 15 17  1  0  0  0  0
 17 32  1  0  0  0  0
 18 19  1  0  0  0  0
 18 23  2  0  0  0  0
 19 20  1  0  0  0  0
 19 33  1  0  0  0  0
 19 34  1  0  0  0  0
 20 21  2  0  0  0  0
 20 35  1  0  0  0  0
 21 22  1  0  0  0  0
 21 36  1  0  0  0  0
 22 23  1  0  0  0  0
 22 37  1  0  0  0  0
 22 38  1  0  0  0  0
 23 39  1  0  0  0  0
 24 40  1  0  0  0  0
 24 41  1  0  0  0  0
 26 42  1  0  0  0  0
 26 43  1  0  0  0  0
 26 44  1  0  0  0  0
M  END
>  <DRUGBANK_ID>
DB11367

>  <COMMON_NAME>
Cefroxadine

>  <CAS_NUMBER>
51762-05-1

>  <UNII>
B908C4MV2R

>  <SYNONYMS>
Cefroxadine; cefroxadino

$$$$
