
 OpenBabel10282417072D

 59 63  0  0  1  0  0  0  0  0999 V2000
    5.2525    2.1851    0.0000 O   0  0  0  0  0  0  0  0  0  0  0  0
    4.7545    1.5274    0.0000 C   0  0  0  0  0  0  0  0  0  0  0  0
    5.0752    0.7672    0.0000 O   0  0  0  0  0  0  0  0  0  0  0  0
    3.9359    1.6298    0.0000 C   0  0  0  0  0  0  0  0  0  0  0  0
    3.4379    0.9720    0.0000 C   0  0  1  0  0  0  0  0  0  0  0  0
    3.6774    0.1825    0.0000 C   0  0  0  0  0  0  0  0  0  0  0  0
    3.0005   -0.2892    0.0000 C   0  0  0  0  0  0  0  0  0  0  0  0
    2.3427    0.2088    0.0000 C   0  0  0  0  0  0  0  0  0  0  0  0
    2.6131    0.9883    0.0000 C   0  0  0  0  0  0  0  0  0  0  0  0
    1.9554    1.4863    0.0000 N   0  0  0  0  0  0  0  0  0  0  0  0
    1.2785    1.0146    0.0000 C   0  0  0  0  0  0  0  0  0  0  0  0
    1.5179    0.2251    0.0000 C   0  0  0  0  0  0  0  0  0  0  0  0
    0.9539   -0.3770    0.0000 C   0  0  0  0  0  0  0  0  0  0  0  0
    0.1505   -0.1896    0.0000 C   0  0  0  0  0  0  0  0  0  0  0  0
   -0.4136   -0.7917    0.0000 O   0  0  0  0  0  0  0  0  0  0  0  0
   -0.1741   -1.5812    0.0000 C   0  0  0  0  0  0  0  0  0  0  0  0
   -0.7381   -2.1833    0.0000 C   0  0  0  0  0  0  0  0  0  0  0  0
   -0.4987   -2.9728    0.0000 C   0  0  0  0  0  0  0  0  0  0  0  0
   -1.0627   -3.5749    0.0000 C   0  0  0  0  0  0  0  0  0  0  0  0
   -1.8662   -3.3875    0.0000 C   0  0  0  0  0  0  0  0  0  0  0  0
   -2.1056   -2.5980    0.0000 C   0  0  0  0  0  0  0  0  0  0  0  0
   -1.5416   -1.9959    0.0000 C   0  0  0  0  0  0  0  0  0  0  0  0
   -2.4302   -3.9896    0.0000 C   0  0  0  0  0  0  0  0  0  0  0  0
   -2.2746   -4.7997    0.0000 C   0  0  0  0  0  0  0  0  0  0  0  0
   -2.9971   -5.1981    0.0000 C   0  0  0  0  0  0  0  0  0  0  0  0
   -3.5991   -4.6341    0.0000 C   0  0  0  0  0  0  0  0  0  0  0  0
   -3.2488   -3.8872    0.0000 C   0  0  0  0  0  0  0  0  0  0  0  0
   -0.8233   -4.3644    0.0000 C   0  0  0  0  0  0  0  0  0  0  0  0
   -0.5839   -5.1539    0.0000 F   0  0  0  0  0  0  0  0  0  0  0  0
   -1.6128   -4.6038    0.0000 F   0  0  0  0  0  0  0  0  0  0  0  0
   -0.0338   -4.1249    0.0000 F   0  0  0  0  0  0  0  0  0  0  0  0
   -0.0890    0.5999    0.0000 C   0  0  0  0  0  0  0  0  0  0  0  0
    0.4750    1.2020    0.0000 C   0  0  0  0  0  0  0  0  0  0  0  0
    6.1822    2.0688    0.0000 H   0  0  0  0  0  0  0  0  0  0  0  0
    3.5200    2.6157    0.0000 H   0  0  0  0  0  0  0  0  0  0  0  0
    2.8742    1.7626    0.0000 H   0  0  0  0  0  0  0  0  0  0  0  0
    4.4912    0.7839    0.0000 H   0  0  0  0  0  0  0  0  0  0  0  0
    4.6883   -0.1681    0.0000 H   0  0  0  0  0  0  0  0  0  0  0  0
    3.8239   -0.8774    0.0000 H   0  0  0  0  0  0  0  0  0  0  0  0
    2.9794   -1.3590    0.0000 H   0  0  0  0  0  0  0  0  0  0  0  0
    2.0377   -0.7561    0.0000 H   0  0  0  0  0  0  0  0  0  0  0  0
    1.9748    2.4706    0.0000 H   0  0  0  0  0  0  0  0  0  0  0  0
    1.2534   -1.3646    0.0000 H   0  0  0  0  0  0  0  0  0  0  0  0
    0.8679   -1.8242    0.0000 H   0  0  0  0  0  0  0  0  0  0  0  0
    0.1365   -2.6051    0.0000 H   0  0  0  0  0  0  0  0  0  0  0  0
    0.5063   -3.2072    0.0000 H   0  0  0  0  0  0  0  0  0  0  0  0
   -3.1106   -2.3636    0.0000 H   0  0  0  0  0  0  0  0  0  0  0  0
   -1.8411   -1.0083    0.0000 H   0  0  0  0  0  0  0  0  0  0  0  0
   -3.1617   -4.7705    0.0000 H   0  0  0  0  0  0  0  0  0  0  0  0
   -1.3059   -5.2541    0.0000 H   0  0  0  0  0  0  0  0  0  0  0  0
   -2.2396   -5.8691    0.0000 H   0  0  0  0  0  0  0  0  0  0  0  0
   -3.1299   -6.2598    0.0000 H   0  0  0  0  0  0  0  0  0  0  0  0
   -4.0034   -5.5617    0.0000 H   0  0  0  0  0  0  0  0  0  0  0  0
   -4.6499   -4.8359    0.0000 H   0  0  0  0  0  0  0  0  0  0  0  0
   -4.2560   -3.7895    0.0000 H   0  0  0  0  0  0  0  0  0  0  0  0
   -3.7654   -2.9502    0.0000 H   0  0  0  0  0  0  0  0  0  0  0  0
   -2.6485   -3.0015    0.0000 H   0  0  0  0  0  0  0  0  0  0  0  0
   -1.0940    0.8343    0.0000 H   0  0  0  0  0  0  0  0  0  0  0  0
    0.1755    2.1896    0.0000 H   0  0  0  0  0  0  0  0  0  0  0  0
  1  2  1  0  0  0  0
  1 34  1  0  0  0  0
  2  3  2  0  0  0  0
  2  4  1  0  0  0  0
  4 35  1  0  0  0  0
  4 36  1  0  0  0  0
  5  4  1  0  0  0  0
  5  6  1  0  0  0  0
  5  9  1  0  0  0  0
  5 37  1  6  0  0  0
  6  7  1  0  0  0  0
  6 38  1  0  0  0  0
  6 39  1  0  0  0  0
  7  8  1  0  0  0  0
  7 40  1  0  0  0  0
  7 41  1  0  0  0  0
  8  9  2  0  0  0  0
  8 12  1  0  0  0  0
  9 10  1  0  0  0  0
 10 11  1  0  0  0  0
 10 42  1  0  0  0  0
 11 12  2  0  0  0  0
 11 33  1  0  0  0  0
 12 13  1  0  0  0  0
 13 14  2  0  0  0  0
 13 43  1  0  0  0  0
 14 15  1  0  0  0  0
 14 32  1  0  0  0  0
 15 16  1  0  0  0  0
 16 17  1  0  0  0  0
 16 44  1  0  0  0  0
 16 45  1  0  0  0  0
 17 18  2  0  0  0  0
 17 22  1  0  0  0  0
 18 19  1  0  0  0  0
 18 46  1  0  0  0  0
 19 20  2  0  0  0  0
 19 28  1  0  0  0  0
 20 21  1  0  0  0  0
 20 23  1  0  0  0  0
 21 22  2  0  0  0  0
 21 47  1  0  0  0  0
 22 48  1  0  0  0  0
 23 24  1  0  0  0  0
 23 27  1  0  0  0  0
 23 49  1  0  0  0  0
 24 25  1  0  0  0  0
 24 50  1  0  0  0  0
 24 51  1  0  0  0  0
 25 26  1  0  0  0  0
 25 52  1  0  0  0  0
 25 53  1  0  0  0  0
 26 27  1  0  0  0  0
 26 54  1  0  0  0  0
 26 55  1  0  0  0  0
 27 56  1  0  0  0  0
 27 57  1  0  0  0  0
 28 29  1  0  0  0  0
 28 30  1  0  0  0  0
 28 31  1  0  0  0  0
 32 33  2  0  0  0  0
 32 58  1  0  0  0  0
 33 59  1  0  0  0  0
M  END
>  <DRUGBANK_ID>
DB14766

>  <COMMON_NAME>
Etrasimod

>  <CAS_NUMBER>
1206123-37-6

>  <UNII>
6WH8495MMH

>  <SYNONYMS>
Etrasimod

$$$$
