CK8
 OpenBabel10282417072D

 42 44  0  0  0  0  0  0  0  0999 V2000
   -2.5206    1.3703    0.0000 C   0  0  0  0  0  0  0  0  0  0  0  0
   -1.8061    1.7828    0.0000 N   0  0  0  0  0  0  0  0  0  0  0  0
   -1.0916    1.3703    0.0000 C   0  0  0  0  0  0  0  0  0  0  0  0
   -1.0916    0.5453    0.0000 N   0  0  0  0  0  0  0  0  0  0  0  0
   -1.8061    0.1328    0.0000 C   0  0  0  0  0  0  0  0  0  0  0  0
   -2.5206    0.5453    0.0000 C   0  0  0  0  0  0  0  0  0  0  0  0
   -1.8061   -0.6922    0.0000 C   0  0  0  0  0  0  0  0  0  0  0  0
   -1.1387   -1.1771    0.0000 C   0  0  0  0  0  0  0  0  0  0  0  0
   -1.3936   -1.9617    0.0000 N   0  0  0  0  0  0  0  0  0  0  0  0
   -2.2186   -1.9617    0.0000 C   0  0  0  0  0  0  0  0  0  0  0  0
   -2.4735   -1.1771    0.0000 S   0  0  0  0  0  0  0  0  0  0  0  0
   -0.3540   -0.9222    0.0000 C   0  0  0  0  0  0  0  0  0  0  0  0
   -2.7035   -2.6292    0.0000 C   0  0  0  0  0  0  0  0  0  0  0  0
   -0.3772    1.7828    0.0000 N   0  0  0  0  0  0  0  0  0  0  0  0
    0.3373    1.3703    0.0000 C   0  0  0  0  0  0  0  0  0  0  0  0
    1.0518    1.7828    0.0000 C   0  0  0  0  0  0  0  0  0  0  0  0
    1.7663    1.3703    0.0000 C   0  0  0  0  0  0  0  0  0  0  0  0
    1.7663    0.5453    0.0000 C   0  0  0  0  0  0  0  0  0  0  0  0
    1.0518    0.1328    0.0000 C   0  0  0  0  0  0  0  0  0  0  0  0
    0.3373    0.5453    0.0000 C   0  0  0  0  0  0  0  0  0  0  0  0
    2.4807    0.1328    0.0000 N   0  0  0  0  0  0  0  0  0  0  0  0
    3.1952    0.5453    0.0000 C   0  0  0  0  0  0  0  0  0  0  0  0
    2.4807   -0.6922    0.0000 C   0  0  0  0  0  0  0  0  0  0  0  0
   -3.4143    1.8863    0.0000 H   0  0  0  0  0  0  0  0  0  0  0  0
   -3.4143    0.0293    0.0000 H   0  0  0  0  0  0  0  0  0  0  0  0
    0.4411   -1.6382    0.0000 H   0  0  0  0  0  0  0  0  0  0  0  0
   -0.1315    0.1244    0.0000 H   0  0  0  0  0  0  0  0  0  0  0  0
    0.6637   -0.5916    0.0000 H   0  0  0  0  0  0  0  0  0  0  0  0
   -3.7676   -2.5174    0.0000 H   0  0  0  0  0  0  0  0  0  0  0  0
   -2.2682   -3.6067    0.0000 H   0  0  0  0  0  0  0  0  0  0  0  0
   -3.3324   -3.4949    0.0000 H   0  0  0  0  0  0  0  0  0  0  0  0
   -0.3772    2.7673    0.0000 H   0  0  0  0  0  0  0  0  0  0  0  0
    1.0518    2.8148    0.0000 H   0  0  0  0  0  0  0  0  0  0  0  0
    2.6600    1.8863    0.0000 H   0  0  0  0  0  0  0  0  0  0  0  0
    1.0518   -0.8992    0.0000 H   0  0  0  0  0  0  0  0  0  0  0  0
   -0.5564    0.0293    0.0000 H   0  0  0  0  0  0  0  0  0  0  0  0
    4.1218    0.0103    0.0000 H   0  0  0  0  0  0  0  0  0  0  0  0
    3.1952    1.6153    0.0000 H   0  0  0  0  0  0  0  0  0  0  0  0
    4.1219    1.0803    0.0000 H   0  0  0  0  0  0  0  0  0  0  0  0
    1.5541   -1.2272    0.0000 H   0  0  0  0  0  0  0  0  0  0  0  0
    3.4073   -1.2272    0.0000 H   0  0  0  0  0  0  0  0  0  0  0  0
    2.4807   -1.7622    0.0000 H   0  0  0  0  0  0  0  0  0  0  0  0
  1  2  2  0  0  0  0
  1  6  1  0  0  0  0
  1 24  1  0  0  0  0
  2  3  1  0  0  0  0
  3  4  2  0  0  0  0
  3 14  1  0  0  0  0
  4  5  1  0  0  0  0
  5  6  2  0  0  0  0
  5  7  1  0  0  0  0
  6 25  1  0  0  0  0
  7  8  2  0  0  0  0
  7 11  1  0  0  0  0
  8  9  1  0  0  0  0
  8 12  1  0  0  0  0
  9 10  2  0  0  0  0
 10 11  1  0  0  0  0
 10 13  1  0  0  0  0
 12 26  1  0  0  0  0
 12 27  1  0  0  0  0
 12 28  1  0  0  0  0
 13 29  1  0  0  0  0
 13 30  1  0  0  0  0
 13 31  1  0  0  0  0
 14 15  1  0  0  0  0
 14 32  1  0  0  0  0
 15 16  2  0  0  0  0
 15 20  1  0  0  0  0
 16 17  1  0  0  0  0
 16 33  1  0  0  0  0
 17 18  2  0  0  0  0
 17 34  1  0  0  0  0
 18 19  1  0  0  0  0
 18 21  1  0  0  0  0
 19 20  2  0  0  0  0
 19 35  1  0  0  0  0
 20 36  1  0  0  0  0
 21 22  1  0  0  0  0
 21 23  1  0  0  0  0
 22 37  1  0  0  0  0
 22 38  1  0  0  0  0
 22 39  1  0  0  0  0
 23 40  1  0  0  0  0
 23 41  1  0  0  0  0
 23 42  1  0  0  0  0
M  END
>  <DRUGBANK_ID>
DB07562

>  <COMMON_NAME>
N-[4-(2,4-DIMETHYL-THIAZOL-5-YL)-PYRIMIDIN-2-YL]-N',N'-DIMETHYL-BENZENE-1,4-DIAMINE

$$$$
