675
 OpenBabel10282417072D

 37 39  0  0  0  0  0  0  0  0999 V2000
   -3.0662   -2.3980    0.0000 N   0  0  0  0  0  0  0  0  0  0  0  0
   -3.0662   -1.5730    0.0000 C   0  0  0  0  0  0  0  0  0  0  0  0
   -3.7807   -1.1605    0.0000 N   0  0  0  0  0  0  0  0  0  0  0  0
   -2.3518   -1.1605    0.0000 C   0  0  0  0  0  0  0  0  0  0  0  0
   -2.3518   -0.3355    0.0000 C   0  0  0  0  0  0  0  0  0  0  0  0
   -1.6373    0.0770    0.0000 C   0  0  0  0  0  0  0  0  0  0  0  0
   -0.9228   -0.3355    0.0000 C   0  0  0  0  0  0  0  0  0  0  0  0
   -0.2083    0.0770    0.0000 C   0  0  0  0  0  0  0  0  0  0  0  0
    0.5061   -0.3355    0.0000 C   0  0  0  0  0  0  0  0  0  0  0  0
    0.5061   -1.1605    0.0000 C   0  0  0  0  0  0  0  0  0  0  0  0
   -0.2083   -1.5730    0.0000 C   0  0  0  0  0  0  0  0  0  0  0  0
   -0.9228   -1.1605    0.0000 C   0  0  0  0  0  0  0  0  0  0  0  0
   -1.6373   -1.5730    0.0000 C   0  0  0  0  0  0  0  0  0  0  0  0
    1.2206    0.0770    0.0000 C   0  0  0  0  0  0  0  0  0  0  0  0
    1.9351   -0.3355    0.0000 O   0  0  0  0  0  0  0  0  0  0  0  0
    1.2206    0.9020    0.0000 N   0  0  0  0  0  0  0  0  0  0  0  0
    1.9351    1.3145    0.0000 C   0  0  0  0  0  0  0  0  0  0  0  0
    1.9351    2.1395    0.0000 C   0  0  0  0  0  0  0  0  0  0  0  0
    2.6495    2.5520    0.0000 C   0  0  0  0  0  0  0  0  0  0  0  0
    3.3640    2.1395    0.0000 C   0  0  0  0  0  0  0  0  0  0  0  0
    3.3640    1.3145    0.0000 C   0  0  0  0  0  0  0  0  0  0  0  0
    2.6495    0.9020    0.0000 C   0  0  0  0  0  0  0  0  0  0  0  0
   -3.9188   -2.8902    0.0000 H   0  0  0  0  0  0  0  0  0  0  0  0
   -3.7807   -0.1760    0.0000 H   0  0  0  0  0  0  0  0  0  0  0  0
   -4.6333   -1.6528    0.0000 H   0  0  0  0  0  0  0  0  0  0  0  0
   -3.2455    0.1805    0.0000 H   0  0  0  0  0  0  0  0  0  0  0  0
   -1.6373    1.1090    0.0000 H   0  0  0  0  0  0  0  0  0  0  0  0
   -0.2083    1.1090    0.0000 H   0  0  0  0  0  0  0  0  0  0  0  0
    1.3998   -1.6765    0.0000 H   0  0  0  0  0  0  0  0  0  0  0  0
   -0.2083   -2.6050    0.0000 H   0  0  0  0  0  0  0  0  0  0  0  0
   -1.6373   -2.6050    0.0000 H   0  0  0  0  0  0  0  0  0  0  0  0
    0.3680    1.3943    0.0000 H   0  0  0  0  0  0  0  0  0  0  0  0
    1.0414    2.6555    0.0000 H   0  0  0  0  0  0  0  0  0  0  0  0
    2.6495    3.5840    0.0000 H   0  0  0  0  0  0  0  0  0  0  0  0
    4.2577    2.6555    0.0000 H   0  0  0  0  0  0  0  0  0  0  0  0
    4.2577    0.7985    0.0000 H   0  0  0  0  0  0  0  0  0  0  0  0
    2.6495   -0.1300    0.0000 H   0  0  0  0  0  0  0  0  0  0  0  0
  1  2  2  0  0  0  0
  1 23  1  0  0  0  0
  2  3  1  0  0  0  0
  2  4  1  0  0  0  0
  3 24  1  0  0  0  0
  3 25  1  0  0  0  0
  4  5  2  0  0  0  0
  4 13  1  0  0  0  0
  5  6  1  0  0  0  0
  5 26  1  0  0  0  0
  6  7  2  0  0  0  0
  6 27  1  0  0  0  0
  7  8  1  0  0  0  0
  7 12  1  0  0  0  0
  8  9  2  0  0  0  0
  8 28  1  0  0  0  0
  9 10  1  0  0  0  0
  9 14  1  0  0  0  0
 10 11  2  0  0  0  0
 10 29  1  0  0  0  0
 11 12  1  0  0  0  0
 11 30  1  0  0  0  0
 12 13  2  0  0  0  0
 13 31  1  0  0  0  0
 14 15  2  0  0  0  0
 14 16  1  0  0  0  0
 16 17  1  0  0  0  0
 16 32  1  0  0  0  0
 17 18  2  0  0  0  0
 17 22  1  0  0  0  0
 18 19  1  0  0  0  0
 18 33  1  0  0  0  0
 19 20  2  0  0  0  0
 19 34  1  0  0  0  0
 20 21  1  0  0  0  0
 20 35  1  0  0  0  0
 21 22  2  0  0  0  0
 21 36  1  0  0  0  0
 22 37  1  0  0  0  0
M  END
>  <DRUGBANK_ID>
DB01977

>  <SECONDARY_ACCESSION_NUMBERS>
EXPT00275

>  <COMMON_NAME>
6-(N-Phenylcarbamyl)-2-Naphthalenecarboxamidine

$$$$
