
 OpenBabel10282417072D

 19 18  0  0  0  0  0  0  0  0999 V2000
   -1.7862    0.2062    0.0000 O   0  0  0  0  0  0  0  0  0  0  0  0
    0.3572    0.6187    0.0000 N   0  0  0  0  0  0  0  0  0  0  0  0
   -1.0716    0.6187    0.0000 N   0  0  0  0  0  0  0  0  0  0  0  0
   -0.3572   -0.6187    0.0000 N   0  0  0  0  0  0  0  0  0  0  0  0
    1.0716    0.2062    0.0000 C   0  0  0  0  0  0  0  0  0  0  0  0
    1.7862    0.6187    0.0000 C   0  0  0  0  0  0  0  0  0  0  0  0
    1.0716   -0.6187    0.0000 C   0  0  0  0  0  0  0  0  0  0  0  0
   -0.3572    0.2062    0.0000 C   0  0  0  0  0  0  0  0  0  0  0  0
   -2.6262    0.6913    0.0000 H   0  0  0  0  0  0  0  0  0  0  0  0
   -1.0715    1.6032    0.0000 H   0  0  0  0  0  0  0  0  0  0  0  0
   -1.2098   -1.1110    0.0000 H   0  0  0  0  0  0  0  0  0  0  0  0
    0.4954   -1.1110    0.0000 H   0  0  0  0  0  0  0  0  0  0  0  0
    1.9982   -0.3288    0.0000 H   0  0  0  0  0  0  0  0  0  0  0  0
    2.7128    0.0836    0.0000 H   0  0  0  0  0  0  0  0  0  0  0  0
    1.7863    1.6887    0.0000 H   0  0  0  0  0  0  0  0  0  0  0  0
    2.7129    1.1536    0.0000 H   0  0  0  0  0  0  0  0  0  0  0  0
    0.1450   -1.1537    0.0000 H   0  0  0  0  0  0  0  0  0  0  0  0
    1.9982   -1.1537    0.0000 H   0  0  0  0  0  0  0  0  0  0  0  0
    1.0716   -1.6887    0.0000 H   0  0  0  0  0  0  0  0  0  0  0  0
  1  3  1  0  0  0  0
  1  9  1  0  0  0  0
  2  5  1  0  0  0  0
  2  8  2  0  0  0  0
  3  8  1  0  0  0  0
  3 10  1  0  0  0  0
  4  8  1  0  0  0  0
  4 11  1  0  0  0  0
  4 12  1  0  0  0  0
  5  6  1  0  0  0  0
  5  7  1  0  0  0  0
  5 13  1  0  0  0  0
  6 14  1  0  0  0  0
  6 15  1  0  0  0  0
  6 16  1  0  0  0  0
  7 17  1  0  0  0  0
  7 18  1  0  0  0  0
  7 19  1  0  0  0  0
M  END
>  <DRUGBANK_ID>
DB02143

>  <SECONDARY_ACCESSION_NUMBERS>
EXPT01853

>  <COMMON_NAME>
1-hydroxy-2-isopropylguanidine

>  <CAS_NUMBER>
478806-77-8

>  <SYNONYMS>
1-hydroxy-2-propan-2-ylguanidine; N-isopropyl-N'-hydroxyguanidine

$$$$
