
 OpenBabel10282417072D

 61 63  0  0  0  0  0  0  0  0999 V2000
   -0.0810   -2.0860    0.0000 C   0  0  0  0  0  0  0  0  0  0  0  0
    0.1740   -1.3014    0.0000 C   0  0  0  0  0  0  0  0  0  0  0  0
   -0.3780   -0.6883    0.0000 N   0  0  0  0  0  0  0  0  0  0  0  0
   -1.1850   -0.8598    0.0000 C   0  0  0  0  0  0  0  0  0  0  0  0
   -0.1231    0.0963    0.0000 C   0  0  0  0  0  0  0  0  0  0  0  0
   -0.6751    0.7094    0.0000 N   0  0  0  0  0  0  0  0  0  0  0  0
   -0.4202    1.4940    0.0000 C   0  0  0  0  0  0  0  0  0  0  0  0
    0.3868    1.6656    0.0000 C   0  0  0  0  0  0  0  0  0  0  0  0
    0.9388    1.0525    0.0000 C   0  0  0  0  0  0  0  0  0  0  0  0
    0.6839    0.2678    0.0000 N   0  0  0  0  0  0  0  0  0  0  0  0
    1.7458    1.2240    0.0000 N   0  0  0  0  0  0  0  0  0  0  0  0
    2.2978    0.6109    0.0000 C   0  0  0  0  0  0  0  0  0  0  0  0
    3.1048    0.7824    0.0000 C   0  0  0  0  0  0  0  0  0  0  0  0
    3.6568    0.1693    0.0000 C   0  0  0  0  0  0  0  0  0  0  0  0
    3.4019   -0.6153    0.0000 C   0  0  0  0  0  0  0  0  0  0  0  0
    2.5949   -0.7868    0.0000 C   0  0  0  0  0  0  0  0  0  0  0  0
    2.0429   -0.1737    0.0000 N   0  0  0  0  0  0  0  0  0  0  0  0
    4.4638    0.3409    0.0000 C   0  0  0  0  0  0  0  0  0  0  0  0
    0.4730    2.4860    0.0000 N   0  0  0  0  0  0  0  0  0  0  0  0
   -0.2807    2.8216    0.0000 N   0  0  0  0  0  0  0  0  0  0  0  0
   -0.8327    2.2085    0.0000 C   0  0  0  0  0  0  0  0  0  0  0  0
   -1.6532    2.2947    0.0000 C   0  0  0  0  0  0  0  0  0  0  0  0
   -2.1381    1.6273    0.0000 O   0  0  0  0  0  0  0  0  0  0  0  0
   -1.9887    3.0484    0.0000 N   0  0  0  0  0  0  0  0  0  0  0  0
   -1.5038    3.7159    0.0000 S   0  0  0  0  0  0  0  0  0  0  0  0
   -0.8364    3.2309    0.0000 O   0  0  0  0  0  0  0  0  0  0  0  0
   -2.1713    4.2008    0.0000 O   0  0  0  0  0  0  0  0  0  0  0  0
   -1.0189    4.3833    0.0000 C   0  0  0  0  0  0  0  0  0  0  0  0
    1.1875    2.8985    0.0000 C   0  0  0  0  0  0  0  0  0  0  0  0
    1.9019    2.4860    0.0000 C   0  0  0  0  0  0  0  0  0  0  0  0
    2.6164    2.8985    0.0000 O   0  0  0  0  0  0  0  0  0  0  0  0
    3.3309    2.4860    0.0000 C   0  0  0  0  0  0  0  0  0  0  0  0
    4.0454    2.8985    0.0000 C   0  0  0  0  0  0  0  0  0  0  0  0
   -1.1276   -2.3084    0.0000 H   0  0  0  0  0  0  0  0  0  0  0  0
    0.6349   -2.8812    0.0000 H   0  0  0  0  0  0  0  0  0  0  0  0
   -0.4117   -3.1036    0.0000 H   0  0  0  0  0  0  0  0  0  0  0  0
    1.2206   -1.0790    0.0000 H   0  0  0  0  0  0  0  0  0  0  0  0
    0.5047   -0.2838    0.0000 H   0  0  0  0  0  0  0  0  0  0  0  0
   -1.9009   -0.0646    0.0000 H   0  0  0  0  0  0  0  0  0  0  0  0
   -1.5157   -1.8774    0.0000 H   0  0  0  0  0  0  0  0  0  0  0  0
   -2.2316   -1.0822    0.0000 H   0  0  0  0  0  0  0  0  0  0  0  0
    2.0501    2.1603    0.0000 H   0  0  0  0  0  0  0  0  0  0  0  0
    3.4237    1.7639    0.0000 H   0  0  0  0  0  0  0  0  0  0  0  0
    4.0924   -1.3822    0.0000 H   0  0  0  0  0  0  0  0  0  0  0  0
    2.2760   -1.7683    0.0000 H   0  0  0  0  0  0  0  0  0  0  0  0
    5.1798   -0.4542    0.0000 H   0  0  0  0  0  0  0  0  0  0  0  0
    4.7944    1.3586    0.0000 H   0  0  0  0  0  0  0  0  0  0  0  0
    5.5104    0.5634    0.0000 H   0  0  0  0  0  0  0  0  0  0  0  0
   -2.9678    3.1513    0.0000 H   0  0  0  0  0  0  0  0  0  0  0  0
    0.0452    4.2714    0.0000 H   0  0  0  0  0  0  0  0  0  0  0  0
   -1.4541    5.3608    0.0000 H   0  0  0  0  0  0  0  0  0  0  0  0
   -0.3900    5.2489    0.0000 H   0  0  0  0  0  0  0  0  0  0  0  0
    1.1875    3.9685    0.0000 H   0  0  0  0  0  0  0  0  0  0  0  0
    2.1142    3.4335    0.0000 H   0  0  0  0  0  0  0  0  0  0  0  0
    1.9019    1.4160    0.0000 H   0  0  0  0  0  0  0  0  0  0  0  0
    2.8285    1.9510    0.0000 H   0  0  0  0  0  0  0  0  0  0  0  0
    3.3309    1.4160    0.0000 H   0  0  0  0  0  0  0  0  0  0  0  0
    4.2575    1.9510    0.0000 H   0  0  0  0  0  0  0  0  0  0  0  0
    4.9720    2.3635    0.0000 H   0  0  0  0  0  0  0  0  0  0  0  0
    4.0454    3.9685    0.0000 H   0  0  0  0  0  0  0  0  0  0  0  0
    4.9721    3.4335    0.0000 H   0  0  0  0  0  0  0  0  0  0  0  0
  1  2  1  0  0  0  0
  1 34  1  0  0  0  0
  1 35  1  0  0  0  0
  1 36  1  0  0  0  0
  2  3  1  0  0  0  0
  2 37  1  0  0  0  0
  2 38  1  0  0  0  0
  3  4  1  0  0  0  0
  3  5  1  0  0  0  0
  4 39  1  0  0  0  0
  4 40  1  0  0  0  0
  4 41  1  0  0  0  0
  5  6  1  0  0  0  0
  5 10  2  0  0  0  0
  6  7  2  0  0  0  0
  7  8  1  0  0  0  0
  7 21  1  0  0  0  0
  8  9  2  0  0  0  0
  8 19  1  0  0  0  0
  9 10  1  0  0  0  0
  9 11  1  0  0  0  0
 11 12  1  0  0  0  0
 11 42  1  0  0  0  0
 12 13  2  0  0  0  0
 12 17  1  0  0  0  0
 13 14  1  0  0  0  0
 13 43  1  0  0  0  0
 14 15  2  0  0  0  0
 14 18  1  0  0  0  0
 15 16  1  0  0  0  0
 15 44  1  0  0  0  0
 16 17  2  0  0  0  0
 16 45  1  0  0  0  0
 18 46  1  0  0  0  0
 18 47  1  0  0  0  0
 18 48  1  0  0  0  0
 19 20  1  0  0  0  0
 19 29  1  0  0  0  0
 20 21  2  0  0  0  0
 21 22  1  0  0  0  0
 22 23  2  0  0  0  0
 22 24  1  0  0  0  0
 24 25  1  0  0  0  0
 24 49  1  0  0  0  0
 25 26  2  0  0  0  0
 25 27  2  0  0  0  0
 25 28  1  0  0  0  0
 28 50  1  0  0  0  0
 28 51  1  0  0  0  0
 28 52  1  0  0  0  0
 29 30  1  0  0  0  0
 29 53  1  0  0  0  0
 29 54  1  0  0  0  0
 30 31  1  0  0  0  0
 30 55  1  0  0  0  0
 30 56  1  0  0  0  0
 31 32  1  0  0  0  0
 32 33  1  0  0  0  0
 32 57  1  0  0  0  0
 32 58  1  0  0  0  0
 33 59  1  0  0  0  0
 33 60  1  0  0  0  0
 33 61  1  0  0  0  0
M  END
>  <DRUGBANK_ID>
DB11736

>  <COMMON_NAME>
PF-00489791

>  <CAS_NUMBER>
853003-48-2

>  <UNII>
2S27T3DSZ3

$$$$
