1656
 OpenBabel10282417072D

 40 42  0  0  0  0  0  0  0  0999 V2000
    7.4765    2.0625    0.0000 Cl  0  0  0  0  0  0  0  0  0  0  0  0
    4.6185    2.0625    0.0000 Cl  0  0  0  0  0  0  0  0  0  0  0  0
    6.7620   -2.4751    0.0000 F   0  0  0  0  0  0  0  0  0  0  0  0
    6.0475   -3.7126    0.0000 F   0  0  0  0  0  0  0  0  0  0  0  0
    3.9041   -1.6500    0.0000 O   0  0  0  0  0  0  0  0  0  0  0  0
    5.3330   -2.4751    0.0000 O   0  0  0  0  0  0  0  0  0  0  0  0
    4.6185    1.2375    0.0000 O   0  0  0  0  0  0  0  0  0  0  0  0
    6.0475    1.2375    0.0000 N   0  0  0  0  0  0  0  0  0  0  0  0
    6.0475    3.7126    0.0000 N   0  0  0  0  0  0  0  0  0  0  0  0
    2.4751   -1.6500    0.0000 C   0  0  0  0  0  0  0  0  0  0  0  0
    2.0625   -2.3645    0.0000 C   0  0  0  0  0  0  0  0  0  0  0  0
    1.6500   -1.6500    0.0000 C   0  0  0  0  0  0  0  0  0  0  0  0
    3.1895   -1.2375    0.0000 C   0  0  0  0  0  0  0  0  0  0  0  0
    4.6185   -1.2375    0.0000 C   0  0  0  0  0  0  0  0  0  0  0  0
    5.3330   -1.6500    0.0000 C   0  0  0  0  0  0  0  0  0  0  0  0
    4.6185   -0.4125    0.0000 C   0  0  0  0  0  0  0  0  0  0  0  0
    5.3330    0.0000    0.0000 C   0  0  0  0  0  0  0  0  0  0  0  0
    6.0475   -1.2375    0.0000 C   0  0  0  0  0  0  0  0  0  0  0  0
    6.0475   -0.4125    0.0000 C   0  0  0  0  0  0  0  0  0  0  0  0
    5.3330    0.8250    0.0000 C   0  0  0  0  0  0  0  0  0  0  0  0
    6.0475    2.0625    0.0000 C   0  0  0  0  0  0  0  0  0  0  0  0
    6.0475   -2.8876    0.0000 C   0  0  0  0  0  0  0  0  0  0  0  0
    6.7620    2.4751    0.0000 C   0  0  0  0  0  0  0  0  0  0  0  0
    5.3330    2.4751    0.0000 C   0  0  0  0  0  0  0  0  0  0  0  0
    6.7620    3.3001    0.0000 C   0  0  0  0  0  0  0  0  0  0  0  0
    5.3330    3.3001    0.0000 C   0  0  0  0  0  0  0  0  0  0  0  0
    6.9001    0.7452    0.0000 H   0  0  0  0  0  0  0  0  0  0  0  0
    2.1981   -0.6165    0.0000 H   0  0  0  0  0  0  0  0  0  0  0  0
    2.0624   -3.4345    0.0000 H   0  0  0  0  0  0  0  0  0  0  0  0
    1.0289   -2.6414    0.0000 H   0  0  0  0  0  0  0  0  0  0  0  0
    0.7234   -1.1150    0.0000 H   0  0  0  0  0  0  0  0  0  0  0  0
    0.8934   -2.4066    0.0000 H   0  0  0  0  0  0  0  0  0  0  0  0
    3.1894   -0.1675    0.0000 H   0  0  0  0  0  0  0  0  0  0  0  0
    2.2628   -0.7025    0.0000 H   0  0  0  0  0  0  0  0  0  0  0  0
    3.7248    0.1035    0.0000 H   0  0  0  0  0  0  0  0  0  0  0  0
    6.9412   -1.7535    0.0000 H   0  0  0  0  0  0  0  0  0  0  0  0
    6.9412    0.1035    0.0000 H   0  0  0  0  0  0  0  0  0  0  0  0
    5.1209   -3.4226    0.0000 H   0  0  0  0  0  0  0  0  0  0  0  0
    7.6557    3.8161    0.0000 H   0  0  0  0  0  0  0  0  0  0  0  0
    4.4393    3.8161    0.0000 H   0  0  0  0  0  0  0  0  0  0  0  0
  1 23  1  0  0  0  0
  2 24  1  0  0  0  0
  3 22  1  0  0  0  0
  4 22  1  0  0  0  0
  5 13  1  0  0  0  0
  5 14  1  0  0  0  0
  6 15  1  0  0  0  0
  6 22  1  0  0  0  0
  7 20  2  0  0  0  0
  8 20  1  0  0  0  0
  8 21  1  0  0  0  0
  8 27  1  0  0  0  0
  9 25  2  0  0  0  0
  9 26  1  0  0  0  0
 10 11  1  0  0  0  0
 10 12  1  0  0  0  0
 10 13  1  0  0  0  0
 10 28  1  0  0  0  0
 11 12  1  0  0  0  0
 11 29  1  0  0  0  0
 11 30  1  0  0  0  0
 12 31  1  0  0  0  0
 12 32  1  0  0  0  0
 13 33  1  0  0  0  0
 13 34  1  0  0  0  0
 14 15  2  0  0  0  0
 14 16  1  0  0  0  0
 15 18  1  0  0  0  0
 16 17  2  0  0  0  0
 16 35  1  0  0  0  0
 17 19  1  0  0  0  0
 17 20  1  0  0  0  0
 18 19  2  0  0  0  0
 18 36  1  0  0  0  0
 19 37  1  0  0  0  0
 21 23  2  0  0  0  0
 21 24  1  0  0  0  0
 22 38  1  0  0  0  0
 23 25  1  0  0  0  0
 24 26  2  0  0  0  0
 25 39  1  0  0  0  0
 26 40  1  0  0  0  0
M  END
>  <DRUGBANK_ID>
DB01656

>  <SECONDARY_ACCESSION_NUMBERS>
EXPT02802

>  <COMMON_NAME>
Roflumilast

>  <CAS_NUMBER>
162401-32-3

>  <UNII>
0P6C6ZOP5U

>  <SYNONYMS>
Roflumilast; Roflumilastum

$$$$
