
 OpenBabel10282417072D

 54 57  0  0  0  0  0  0  0  0999 V2000
    5.4823   -1.1653    0.0000 C   0  0  0  0  0  0  0  0  0  0  0  0
    1.5661    0.5783    0.0000 C   0  0  0  0  0  0  0  0  0  0  0  0
    2.7512    7.2402    0.0000 C   0  0  0  0  0  0  0  0  0  0  0  0
    5.8178   -0.4116    0.0000 C   0  0  0  0  0  0  0  0  0  0  0  0
    4.6618   -1.2515    0.0000 C   0  0  0  0  0  0  0  0  0  0  0  0
    2.0510   -0.0891    0.0000 C   0  0  0  0  0  0  0  0  0  0  0  0
    1.9016    1.3320    0.0000 C   0  0  0  0  0  0  0  0  0  0  0  0
    2.0367    6.8277    0.0000 C   0  0  0  0  0  0  0  0  0  0  0  0
    3.4656    6.8277    0.0000 C   0  0  0  0  0  0  0  0  0  0  0  0
    5.3329    0.2558    0.0000 C   0  0  0  0  0  0  0  0  0  0  0  0
    4.1769   -0.5841    0.0000 C   0  0  0  0  0  0  0  0  0  0  0  0
    2.8715   -0.0029    0.0000 C   0  0  0  0  0  0  0  0  0  0  0  0
    2.7221    1.4182    0.0000 C   0  0  0  0  0  0  0  0  0  0  0  0
    3.4656    4.3527    0.0000 C   0  0  0  0  0  0  0  0  0  0  0  0
    2.0367    6.0027    0.0000 C   0  0  0  0  0  0  0  0  0  0  0  0
    3.4656    6.0027    0.0000 C   0  0  0  0  0  0  0  0  0  0  0  0
    2.7512    4.7652    0.0000 C   0  0  0  0  0  0  0  0  0  0  0  0
    4.3631    1.5907    0.0000 C   0  0  0  0  0  0  0  0  0  0  0  0
    4.5124    0.1696    0.0000 C   0  0  0  0  0  0  0  0  0  0  0  0
    3.2070    0.7508    0.0000 C   0  0  0  0  0  0  0  0  0  0  0  0
    4.0275    0.8370    0.0000 C   0  0  0  0  0  0  0  0  0  0  0  0
    3.8781    2.2581    0.0000 C   0  0  0  0  0  0  0  0  0  0  0  0
    3.4656    3.5277    0.0000 C   0  0  0  0  0  0  0  0  0  0  0  0
    4.1331    3.0428    0.0000 N   0  0  0  0  0  0  0  0  0  0  0  0
    3.0531    2.2581    0.0000 N   0  0  0  0  0  0  0  0  0  0  0  0
    2.7512    5.5902    0.0000 N   0  0  0  0  0  0  0  0  0  0  0  0
    2.7982    3.0428    0.0000 O   0  0  0  0  0  0  0  0  0  0  0  0
    6.0889   -2.0002    0.0000 H   0  0  0  0  0  0  0  0  0  0  0  0
    0.5398    0.4704    0.0000 H   0  0  0  0  0  0  0  0  0  0  0  0
    2.7512    8.3102    0.0000 H   0  0  0  0  0  0  0  0  0  0  0  0
    3.6779    7.7752    0.0000 H   0  0  0  0  0  0  0  0  0  0  0  0
    6.8441   -0.3037    0.0000 H   0  0  0  0  0  0  0  0  0  0  0  0
    4.2420   -2.1943    0.0000 H   0  0  0  0  0  0  0  0  0  0  0  0
    1.6312   -1.0319    0.0000 H   0  0  0  0  0  0  0  0  0  0  0  0
    1.2950    2.1669    0.0000 H   0  0  0  0  0  0  0  0  0  0  0  0
    1.1101    7.3627    0.0000 H   0  0  0  0  0  0  0  0  0  0  0  0
    1.1101    6.2927    0.0000 H   0  0  0  0  0  0  0  0  0  0  0  0
    4.3923    7.3627    0.0000 H   0  0  0  0  0  0  0  0  0  0  0  0
    4.3922    6.2927    0.0000 H   0  0  0  0  0  0  0  0  0  0  0  0
    5.7527    1.1986    0.0000 H   0  0  0  0  0  0  0  0  0  0  0  0
    3.1506   -0.6920    0.0000 H   0  0  0  0  0  0  0  0  0  0  0  0
    3.4781   -0.8378    0.0000 H   0  0  0  0  0  0  0  0  0  0  0  0
    3.1419    2.3610    0.0000 H   0  0  0  0  0  0  0  0  0  0  0  0
    4.3923    4.8877    0.0000 H   0  0  0  0  0  0  0  0  0  0  0  0
    4.3922    3.8177    0.0000 H   0  0  0  0  0  0  0  0  0  0  0  0
    1.1101    5.4677    0.0000 H   0  0  0  0  0  0  0  0  0  0  0  0
    2.0367    4.9327    0.0000 H   0  0  0  0  0  0  0  0  0  0  0  0
    4.3923    5.4677    0.0000 H   0  0  0  0  0  0  0  0  0  0  0  0
    3.4656    4.9327    0.0000 H   0  0  0  0  0  0  0  0  0  0  0  0
    1.8245    4.2302    0.0000 H   0  0  0  0  0  0  0  0  0  0  0  0
    1.8246    5.3002    0.0000 H   0  0  0  0  0  0  0  0  0  0  0  0
    5.4272    1.7026    0.0000 H   0  0  0  0  0  0  0  0  0  0  0  0
    4.7982    2.5682    0.0000 H   0  0  0  0  0  0  0  0  0  0  0  0
    3.5923   -0.1405    0.0000 H   0  0  0  0  0  0  0  0  0  0  0  0
  1 28  1  0  0  0  0
  2 29  1  0  0  0  0
  3 30  1  0  0  0  0
  3 31  1  0  0  0  0
  4  1  2  0  0  0  0
  4 32  1  0  0  0  0
  5  1  1  0  0  0  0
  5 33  1  0  0  0  0
  6  2  2  0  0  0  0
  6 34  1  0  0  0  0
  7  2  1  0  0  0  0
  7 35  1  0  0  0  0
  8  3  1  0  0  0  0
  8 36  1  0  0  0  0
  8 37  1  0  0  0  0
  9  3  1  0  0  0  0
  9 38  1  0  0  0  0
  9 39  1  0  0  0  0
 10  4  1  0  0  0  0
 10 40  1  0  0  0  0
 11  5  2  0  0  0  0
 11 41  1  0  0  0  0
 12  6  1  0  0  0  0
 12 42  1  0  0  0  0
 13  7  2  0  0  0  0
 13 43  1  0  0  0  0
 14 44  1  0  0  0  0
 14 45  1  0  0  0  0
 15  8  1  0  0  0  0
 15 46  1  0  0  0  0
 15 47  1  0  0  0  0
 16  9  1  0  0  0  0
 16 48  1  0  0  0  0
 16 49  1  0  0  0  0
 17 14  1  0  0  0  0
 17 50  1  0  0  0  0
 17 51  1  0  0  0  0
 18 52  1  0  0  0  0
 18 53  1  0  0  0  0
 19 10  2  0  0  0  0
 19 11  1  0  0  0  0
 20 12  2  0  0  0  0
 20 13  1  0  0  0  0
 21 18  1  0  0  0  0
 21 19  1  0  0  0  0
 21 20  1  0  0  0  0
 21 54  1  0  0  0  0
 22 18  1  0  0  0  0
 23 14  1  0  0  0  0
 24 22  1  0  0  0  0
 24 23  2  0  0  0  0
 25 22  2  0  0  0  0
 26 15  1  0  0  0  0
 26 16  1  0  0  0  0
 26 17  1  0  0  0  0
 27 23  1  0  0  0  0
 27 25  1  0  0  0  0
M  END
>  <DRUGBANK_ID>
DB13397

>  <COMMON_NAME>
Prenoxdiazine

>  <CAS_NUMBER>
47543-65-7

>  <UNII>
S491HH391H

>  <SYNONYMS>
Prenoxdiazine

$$$$
