
 OpenBabel10282417072D

 53 56  0  0  0  0  0  0  0  0999 V2000
    3.9641   -7.3602    0.0000 C   0  0  0  0  0  0  0  0  0  0  0  0
    3.9641   -8.1852    0.0000 N   0  0  0  0  0  0  0  0  0  0  0  0
    4.6315   -8.6701    0.0000 C   0  0  0  0  0  0  0  0  0  0  0  0
    4.3766   -9.4548    0.0000 C   0  0  0  0  0  0  0  0  0  0  0  0
    3.5516   -9.4548    0.0000 C   0  0  0  0  0  0  0  0  0  0  0  0
    3.2966   -8.6701    0.0000 N   0  0  0  0  0  0  0  0  0  0  0  0
    4.8615  -10.1222    0.0000 C   0  0  0  0  0  0  0  0  0  0  0  0
    5.6820  -10.0360    0.0000 C   0  0  0  0  0  0  0  0  0  0  0  0
    6.1669  -10.7034    0.0000 C   0  0  0  0  0  0  0  0  0  0  0  0
    5.8314  -11.4571    0.0000 C   0  0  0  0  0  0  0  0  0  0  0  0
    5.0109  -11.5433    0.0000 C   0  0  0  0  0  0  0  0  0  0  0  0
    4.5260  -10.8759    0.0000 C   0  0  0  0  0  0  0  0  0  0  0  0
    6.3163  -12.1245    0.0000 S   0  0  0  0  0  0  0  0  0  0  0  0
    5.6488  -12.6094    0.0000 O   0  0  0  0  0  0  0  0  0  0  0  0
    6.9837  -11.6396    0.0000 O   0  0  0  0  0  0  0  0  0  0  0  0
    6.8012  -12.7919    0.0000 N   0  0  0  0  0  0  0  0  0  0  0  0
    7.6262  -12.7919    0.0000 C   0  0  0  0  0  0  0  0  0  0  0  0
    7.8811  -13.5766    0.0000 C   0  0  0  0  0  0  0  0  0  0  0  0
    7.2137  -14.0615    0.0000 C   0  0  0  0  0  0  0  0  0  0  0  0
    7.2137  -14.8865    0.0000 C   0  0  0  0  0  0  0  0  0  0  0  0
    6.4992  -15.2990    0.0000 C   0  0  0  0  0  0  0  0  0  0  0  0
    6.4992  -16.1240    0.0000 C   0  0  0  0  0  0  0  0  0  0  0  0
    5.7848  -16.5365    0.0000 O   0  0  0  0  0  0  0  0  0  0  0  0
    7.2137  -16.5365    0.0000 N   0  0  0  0  0  0  0  0  0  0  0  0
    7.2137  -17.3615    0.0000 C   0  0  0  0  0  0  0  0  0  0  0  0
    7.9282  -17.7740    0.0000 C   0  0  0  0  0  0  0  0  0  0  0  0
    7.9282  -18.5990    0.0000 C   0  0  0  0  0  0  0  0  0  0  0  0
    7.2137  -19.0115    0.0000 C   0  0  0  0  0  0  0  0  0  0  0  0
    6.4992  -18.5990    0.0000 C   0  0  0  0  0  0  0  0  0  0  0  0
    6.4992  -17.7740    0.0000 C   0  0  0  0  0  0  0  0  0  0  0  0
    5.7848  -17.3615    0.0000 N   0  0  0  0  0  0  0  0  0  0  0  0
    6.5463  -13.5766    0.0000 C   0  0  0  0  0  0  0  0  0  0  0  0
    4.8907   -6.8252    0.0000 H   0  0  0  0  0  0  0  0  0  0  0  0
    3.0375   -6.8252    0.0000 H   0  0  0  0  0  0  0  0  0  0  0  0
    3.9641   -6.2902    0.0000 H   0  0  0  0  0  0  0  0  0  0  0  0
    5.6130   -8.3512    0.0000 H   0  0  0  0  0  0  0  0  0  0  0  0
    2.9450  -10.2897    0.0000 H   0  0  0  0  0  0  0  0  0  0  0  0
    6.1018   -9.0932    0.0000 H   0  0  0  0  0  0  0  0  0  0  0  0
    7.1932  -10.5955    0.0000 H   0  0  0  0  0  0  0  0  0  0  0  0
    4.5911  -12.4861    0.0000 H   0  0  0  0  0  0  0  0  0  0  0  0
    3.4997  -10.9838    0.0000 H   0  0  0  0  0  0  0  0  0  0  0  0
    8.2328  -11.9570    0.0000 H   0  0  0  0  0  0  0  0  0  0  0  0
    8.8626  -13.8955    0.0000 H   0  0  0  0  0  0  0  0  0  0  0  0
    8.1074  -15.4025    0.0000 H   0  0  0  0  0  0  0  0  0  0  0  0
    5.6055  -14.7830    0.0000 H   0  0  0  0  0  0  0  0  0  0  0  0
    8.0663  -16.0442    0.0000 H   0  0  0  0  0  0  0  0  0  0  0  0
    8.8219  -17.2580    0.0000 H   0  0  0  0  0  0  0  0  0  0  0  0
    8.8219  -19.1150    0.0000 H   0  0  0  0  0  0  0  0  0  0  0  0
    7.2137  -20.0435    0.0000 H   0  0  0  0  0  0  0  0  0  0  0  0
    5.6055  -19.1150    0.0000 H   0  0  0  0  0  0  0  0  0  0  0  0
    5.7848  -16.3770    0.0000 H   0  0  0  0  0  0  0  0  0  0  0  0
    4.9322  -17.8537    0.0000 H   0  0  0  0  0  0  0  0  0  0  0  0
    5.5648  -13.8955    0.0000 H   0  0  0  0  0  0  0  0  0  0  0  0
  1  2  1  0  0  0  0
  1 33  1  0  0  0  0
  1 34  1  0  0  0  0
  1 35  1  0  0  0  0
  2  3  1  0  0  0  0
  2  6  1  0  0  0  0
  3  4  2  0  0  0  0
  3 36  1  0  0  0  0
  4  5  1  0  0  0  0
  4  7  1  0  0  0  0
  5  6  2  0  0  0  0
  5 37  1  0  0  0  0
  7  8  2  0  0  0  0
  7 12  1  0  0  0  0
  8  9  1  0  0  0  0
  8 38  1  0  0  0  0
  9 10  2  0  0  0  0
  9 39  1  0  0  0  0
 10 11  1  0  0  0  0
 10 13  1  0  0  0  0
 11 12  2  0  0  0  0
 11 40  1  0  0  0  0
 12 41  1  0  0  0  0
 13 14  2  0  0  0  0
 13 15  2  0  0  0  0
 13 16  1  0  0  0  0
 16 17  1  0  0  0  0
 16 32  1  0  0  0  0
 17 18  2  0  0  0  0
 17 42  1  0  0  0  0
 18 19  1  0  0  0  0
 18 43  1  0  0  0  0
 19 20  1  0  0  0  0
 19 32  2  0  0  0  0
 20 21  2  0  0  0  0
 20 44  1  0  0  0  0
 21 22  1  0  0  0  0
 21 45  1  0  0  0  0
 22 23  2  0  0  0  0
 22 24  1  0  0  0  0
 24 25  1  0  0  0  0
 24 46  1  0  0  0  0
 25 26  2  0  0  0  0
 25 30  1  0  0  0  0
 26 27  1  0  0  0  0
 26 47  1  0  0  0  0
 27 28  2  0  0  0  0
 27 48  1  0  0  0  0
 28 29  1  0  0  0  0
 28 49  1  0  0  0  0
 29 30  2  0  0  0  0
 29 50  1  0  0  0  0
 30 31  1  0  0  0  0
 31 51  1  0  0  0  0
 31 52  1  0  0  0  0
 32 53  1  0  0  0  0
M  END
>  <DRUGBANK_ID>
DB17521

>  <COMMON_NAME>
Domatinostat

>  <CAS_NUMBER>
910462-43-0

>  <UNII>
264ARM7UXX

>  <SYNONYMS>
(e)-n-(2-aminophenyl)-3-(1-((4-(1-methyl-1h-pyrazol-4-yl)phenyl)sulfonyl)-1h-pyrrol-3-yl)acrylamide; 2-propenamide, n-(2-aminophenyl)-3-(1-((4-(1-methyl-1h-pyrazol-4-yl)phenyl)sulfonyl)-1h-pyrrol-3-yl)-, (2e)-; Hdac inhibitor 4sc-202

$$$$
