
 OpenBabel10282417072D

 20 19  0  0  0  0  0  0  0  0999 V2000
   -3.1875    1.3438    0.0000 N   0  0  0  0  0  0  0  0  0  0  0  0
   -2.4730    0.1063    0.0000 N   0  0  0  0  0  0  0  0  0  0  0  0
   -2.4730    0.9313    0.0000 C   0  0  0  0  0  0  0  0  0  0  0  0
   -1.7586    1.3438    0.0000 N   0  0  0  0  0  0  0  0  0  0  0  0
   -1.0441    0.1063    0.0000 N   0  0  0  0  0  0  0  0  0  0  0  0
   -1.0441    0.9313    0.0000 C   0  0  0  0  0  0  0  0  0  0  0  0
   -0.3296    2.1688    0.0000 C   0  0  0  0  0  0  0  0  0  0  0  0
   -0.3296    1.3438    0.0000 N   0  0  0  0  0  0  0  0  0  0  0  0
    0.3849    0.9313    0.0000 C   0  0  0  0  0  0  0  0  0  0  0  0
   -3.1875    2.3283    0.0000 H   0  0  0  0  0  0  0  0  0  0  0  0
   -4.0401    0.8515    0.0000 H   0  0  0  0  0  0  0  0  0  0  0  0
   -3.3256   -0.3860    0.0000 H   0  0  0  0  0  0  0  0  0  0  0  0
   -1.7586    2.3283    0.0000 H   0  0  0  0  0  0  0  0  0  0  0  0
   -1.8967   -0.3860    0.0000 H   0  0  0  0  0  0  0  0  0  0  0  0
    0.5970    2.7038    0.0000 H   0  0  0  0  0  0  0  0  0  0  0  0
   -1.2562    2.7038    0.0000 H   0  0  0  0  0  0  0  0  0  0  0  0
   -0.3296    3.2388    0.0000 H   0  0  0  0  0  0  0  0  0  0  0  0
    0.3849   -0.1387    0.0000 H   0  0  0  0  0  0  0  0  0  0  0  0
    1.3115    1.4663    0.0000 H   0  0  0  0  0  0  0  0  0  0  0  0
    1.3116    0.3963    0.0000 H   0  0  0  0  0  0  0  0  0  0  0  0
  1  3  1  0  0  0  0
  1 10  1  0  0  0  0
  1 11  1  0  0  0  0
  2 12  1  0  0  0  0
  3  2  2  0  0  0  0
  3  4  1  0  0  0  0
  4  6  1  0  0  0  0
  4 13  1  0  0  0  0
  5 14  1  0  0  0  0
  6  5  2  0  0  0  0
  6  8  1  0  0  0  0
  7 15  1  0  0  0  0
  7 16  1  0  0  0  0
  7 17  1  0  0  0  0
  8  7  1  0  0  0  0
  8  9  1  0  0  0  0
  9 18  1  0  0  0  0
  9 19  1  0  0  0  0
  9 20  1  0  0  0  0
M  END
>  <DRUGBANK_ID>
DB00331

>  <SECONDARY_ACCESSION_NUMBERS>
APRD01099

>  <COMMON_NAME>
Metformin

>  <CAS_NUMBER>
657-24-9

>  <UNII>
9100L32L2N

>  <SYNONYMS>
1,1-Dimethylbiguanide; Dimethylbiguanid; Metformin; Metformina; Metformine; Metforminum

$$$$
