
 OpenBabel10282417072D

 61 65  0  0  1  0  0  0  0  0999 V2000
    0.4776   -1.0747    0.0000 C   0  0  0  0  0  0  0  0  0  0  0  0
   -0.2368   -1.4872    0.0000 N   0  0  0  0  0  0  0  0  0  0  0  0
   -0.9513   -1.0747    0.0000 C   0  0  1  0  0  0  0  0  0  0  0  0
   -1.6658   -1.4872    0.0000 C   0  0  0  0  0  0  0  0  0  0  0  0
   -2.3803   -1.0747    0.0000 C   0  0  0  0  0  0  0  0  0  0  0  0
   -2.3803   -0.2497    0.0000 C   0  0  2  0  0  0  0  0  0  0  0  0
   -3.1339   -0.5853    0.0000 C   0  0  0  0  0  0  0  0  0  0  0  0
   -3.6860    0.0278    0.0000 C   0  0  0  0  0  0  0  0  0  0  0  0
   -3.2735    0.7423    0.0000 C   0  0  0  0  0  0  0  0  0  0  0  0
   -2.4665    0.5707    0.0000 O   0  0  0  0  0  0  0  0  0  0  0  0
   -1.6658    0.1628    0.0000 C   0  0  0  0  0  0  0  0  0  0  0  0
   -0.9513   -0.2497    0.0000 C   0  0  2  0  0  0  0  0  0  0  0  0
   -0.2368    0.1628    0.0000 N   0  0  0  0  0  0  0  0  0  0  0  0
   -0.1506    0.9832    0.0000 C   0  0  0  0  0  0  0  0  0  0  0  0
    0.6564    1.1548    0.0000 C   0  0  0  0  0  0  0  0  0  0  0  0
    1.0689    0.4403    0.0000 C   0  0  0  0  0  0  0  0  0  0  0  0
    0.5168   -0.1728    0.0000 C   0  0  0  0  0  0  0  0  0  0  0  0
   -0.2368   -2.3122    0.0000 C   0  0  0  0  0  0  0  0  0  0  0  0
   -0.9513   -2.7247    0.0000 O   0  0  0  0  0  0  0  0  0  0  0  0
    0.4776   -2.7247    0.0000 C   0  0  0  0  0  0  0  0  0  0  0  0
    0.4776   -3.5497    0.0000 C   0  0  0  0  0  0  0  0  0  0  0  0
    1.1921   -3.9622    0.0000 C   0  0  0  0  0  0  0  0  0  0  0  0
    1.1921   -4.7872    0.0000 C   0  0  0  0  0  0  0  0  0  0  0  0
    0.4776   -5.1997    0.0000 C   0  0  0  0  0  0  0  0  0  0  0  0
   -0.2368   -4.7872    0.0000 C   0  0  0  0  0  0  0  0  0  0  0  0
   -0.2368   -3.9622    0.0000 C   0  0  0  0  0  0  0  0  0  0  0  0
   -1.0215   -3.7073    0.0000 C   0  0  0  0  0  0  0  0  0  0  0  0
   -1.5064   -4.3747    0.0000 C   0  0  0  0  0  0  0  0  0  0  0  0
   -1.0215   -5.0422    0.0000 O   0  0  0  0  0  0  0  0  0  0  0  0
    1.4043   -1.6097    0.0000 H   0  0  0  0  0  0  0  0  0  0  0  0
    0.4776   -0.0047    0.0000 H   0  0  0  0  0  0  0  0  0  0  0  0
    1.4042   -0.5397    0.0000 H   0  0  0  0  0  0  0  0  0  0  0  0
   -0.9513   -2.1447    0.0000 H   0  0  0  0  0  0  0  0  0  0  0  0
   -1.6658   -2.5572    0.0000 H   0  0  0  0  0  0  0  0  0  0  0  0
   -2.5924   -2.0222    0.0000 H   0  0  0  0  0  0  0  0  0  0  0  0
   -3.3069   -1.6097    0.0000 H   0  0  0  0  0  0  0  0  0  0  0  0
   -3.3069   -0.5397    0.0000 H   0  0  0  0  0  0  0  0  0  0  0  0
   -3.3563   -1.6319    0.0000 H   0  0  0  0  0  0  0  0  0  0  0  0
   -4.1674   -0.8623    0.0000 H   0  0  0  0  0  0  0  0  0  0  0  0
   -4.7501   -0.0841    0.0000 H   0  0  0  0  0  0  0  0  0  0  0  0
   -4.2688    0.9252    0.0000 H   0  0  0  0  0  0  0  0  0  0  0  0
   -3.7087    1.7198    0.0000 H   0  0  0  0  0  0  0  0  0  0  0  0
   -2.6001    1.5738    0.0000 H   0  0  0  0  0  0  0  0  0  0  0  0
   -1.6658    1.2328    0.0000 H   0  0  0  0  0  0  0  0  0  0  0  0
   -0.7392    0.6978    0.0000 H   0  0  0  0  0  0  0  0  0  0  0  0
   -0.9513    0.8203    0.0000 H   0  0  0  0  0  0  0  0  0  0  0  0
   -0.9458    1.6991    0.0000 H   0  0  0  0  0  0  0  0  0  0  0  0
    0.1263    2.0168    0.0000 H   0  0  0  0  0  0  0  0  0  0  0  0
    1.0916    2.1323    0.0000 H   0  0  0  0  0  0  0  0  0  0  0  0
    1.7249    1.2108    0.0000 H   0  0  0  0  0  0  0  0  0  0  0  0
    2.1330    0.3284    0.0000 H   0  0  0  0  0  0  0  0  0  0  0  0
    1.4523   -0.5586    0.0000 H   0  0  0  0  0  0  0  0  0  0  0  0
    0.7392   -1.2194    0.0000 H   0  0  0  0  0  0  0  0  0  0  0  0
   -0.3148   -0.8461    0.0000 H   0  0  0  0  0  0  0  0  0  0  0  0
    1.4043   -2.1897    0.0000 H   0  0  0  0  0  0  0  0  0  0  0  0
    1.4042   -3.2597    0.0000 H   0  0  0  0  0  0  0  0  0  0  0  0
    2.0858   -3.4462    0.0000 H   0  0  0  0  0  0  0  0  0  0  0  0
    2.0858   -5.3032    0.0000 H   0  0  0  0  0  0  0  0  0  0  0  0
    0.4776   -6.2317    0.0000 H   0  0  0  0  0  0  0  0  0  0  0  0
   -1.3404   -2.7258    0.0000 H   0  0  0  0  0  0  0  0  0  0  0  0
   -2.5384   -4.3747    0.0000 H   0  0  0  0  0  0  0  0  0  0  0  0
  1  2  1  0  0  0  0
  1 30  1  0  0  0  0
  1 31  1  0  0  0  0
  1 32  1  0  0  0  0
  2 18  1  0  0  0  0
  3  2  1  0  0  0  0
  3  4  1  0  0  0  0
  3 12  1  0  0  0  0
  3 33  1  6  0  0  0
  4  5  1  0  0  0  0
  4 34  1  0  0  0  0
  4 35  1  0  0  0  0
  5 36  1  0  0  0  0
  5 37  1  0  0  0  0
  6  5  1  0  0  0  0
  6  7  1  0  0  0  0
  6 10  1  6  0  0  0
  6 11  1  0  0  0  0
  7  8  1  0  0  0  0
  7 38  1  0  0  0  0
  7 39  1  0  0  0  0
  8  9  1  0  0  0  0
  8 40  1  0  0  0  0
  8 41  1  0  0  0  0
  9 10  1  0  0  0  0
  9 42  1  0  0  0  0
  9 43  1  0  0  0  0
 11 44  1  0  0  0  0
 11 45  1  0  0  0  0
 12 11  1  0  0  0  0
 12 13  1  0  0  0  0
 12 46  1  1  0  0  0
 13 14  1  0  0  0  0
 13 17  1  0  0  0  0
 14 15  1  0  0  0  0
 14 47  1  0  0  0  0
 14 48  1  0  0  0  0
 15 16  1  0  0  0  0
 15 49  1  0  0  0  0
 15 50  1  0  0  0  0
 16 17  1  0  0  0  0
 16 51  1  0  0  0  0
 16 52  1  0  0  0  0
 17 53  1  0  0  0  0
 17 54  1  0  0  0  0
 18 19  2  0  0  0  0
 18 20  1  0  0  0  0
 20 21  1  0  0  0  0
 20 55  1  0  0  0  0
 20 56  1  0  0  0  0
 21 22  2  0  0  0  0
 21 26  1  0  0  0  0
 22 23  1  0  0  0  0
 22 57  1  0  0  0  0
 23 24  2  0  0  0  0
 23 58  1  0  0  0  0
 24 25  1  0  0  0  0
 24 59  1  0  0  0  0
 25 26  2  0  0  0  0
 25 29  1  0  0  0  0
 26 27  1  0  0  0  0
 27 28  2  0  0  0  0
 27 60  1  0  0  0  0
 28 29  1  0  0  0  0
 28 61  1  0  0  0  0
M  END
>  <DRUGBANK_ID>
DB16967

>  <COMMON_NAME>
Enadoline

>  <CAS_NUMBER>
124378-77-4

>  <UNII>
KJL283326C

$$$$
