1568
 OpenBabel10282417072D

 44 48  0  0  1  0  0  0  0  0999 V2000
    1.9356   -0.1190    0.0000 O   0  0  0  0  0  0  0  0  0  0  0  0
    5.5383   -1.8353    0.0000 O   0  5  0  0  0  0  0  0  0  0  0  0
    1.7349   -2.2486    0.0000 O   0  0  0  0  0  0  0  0  0  0  0  0
    1.7349    1.9190    0.0000 O   0  0  0  0  0  0  0  0  0  0  0  0
    5.3440   -0.9899    0.0000 N   0  3  2  0  0  0  0  0  0  0  0  0
    3.2006   -0.5773    0.0000 C   0  0  1  0  0  0  0  0  0  0  0  0
    3.9151   -0.9899    0.0000 C   0  0  2  0  0  0  0  0  0  0  0  0
    4.6296   -0.5773    0.0000 C   0  0  1  0  0  0  0  0  0  0  0  0
    2.4861   -0.9899    0.0000 C   0  0  2  0  0  0  0  0  0  0  0  0
    3.6773    0.0277    0.0000 C   0  0  0  0  0  0  0  0  0  0  0  0
    3.2006    0.2477    0.0000 C   0  0  0  0  0  0  0  0  0  0  0  0
    4.8506    0.0277    0.0000 C   0  0  0  0  0  0  0  0  0  0  0  0
    4.6296    0.2477    0.0000 C   0  0  0  0  0  0  0  0  0  0  0  0
    3.9151    0.6602    0.0000 C   0  0  0  0  0  0  0  0  0  0  0  0
    2.4861   -1.8149    0.0000 C   0  0  2  0  0  0  0  0  0  0  0  0
    3.9151   -1.8149    0.0000 C   0  0  0  0  0  0  0  0  0  0  0  0
    2.4861    0.6602    0.0000 C   0  0  0  0  0  0  0  0  0  0  0  0
    3.2006   -2.2274    0.0000 C   0  0  0  0  0  0  0  0  0  0  0  0
    6.1733   -1.2444    0.0000 C   0  0  0  0  0  0  0  0  0  0  0  0
    3.9151    1.4852    0.0000 C   0  0  0  0  0  0  0  0  0  0  0  0
    2.4861    1.4852    0.0000 C   0  0  0  0  0  0  0  0  0  0  0  0
    3.2006    1.8977    0.0000 C   0  0  0  0  0  0  0  0  0  0  0  0
    1.7349    2.7864    0.0000 C   0  0  0  0  0  0  0  0  0  0  0  0
    4.3612   -1.5214    0.0000 H   0  0  0  0  0  0  0  0  0  0  0  0
    4.8675   -1.2293    0.0000 H   0  0  0  0  0  0  0  0  0  0  0  0
    1.8196   -1.1829    0.0000 H   0  0  0  0  0  0  0  0  0  0  0  0
    0.8949   -1.7636    0.0000 H   0  0  0  0  0  0  0  0  0  0  0  0
    3.2102    0.9904    0.0000 H   0  0  0  0  0  0  0  0  0  0  0  0
    4.2452    0.9345    0.0000 H   0  0  0  0  0  0  0  0  0  0  0  0
    5.4187    0.9345    0.0000 H   0  0  0  0  0  0  0  0  0  0  0  0
    4.3324    0.9638    0.0000 H   0  0  0  0  0  0  0  0  0  0  0  0
    5.5562    0.7827    0.0000 H   0  0  0  0  0  0  0  0  0  0  0  0
    4.6296    1.3177    0.0000 H   0  0  0  0  0  0  0  0  0  0  0  0
    1.5595   -1.2799    0.0000 H   0  0  0  0  0  0  0  0  0  0  0  0
    4.8088   -2.3309    0.0000 H   0  0  0  0  0  0  0  0  0  0  0  0
    3.2006   -3.2594    0.0000 H   0  0  0  0  0  0  0  0  0  0  0  0
    6.4129   -2.2872    0.0000 H   0  0  0  0  0  0  0  0  0  0  0  0
    6.9566   -0.5155    0.0000 H   0  0  0  0  0  0  0  0  0  0  0  0
    7.1962   -1.5583    0.0000 H   0  0  0  0  0  0  0  0  0  0  0  0
    4.8088    2.0012    0.0000 H   0  0  0  0  0  0  0  0  0  0  0  0
    3.2006    2.9297    0.0000 H   0  0  0  0  0  0  0  0  0  0  0  0
    2.6615    3.3214    0.0000 H   0  0  0  0  0  0  0  0  0  0  0  0
    0.8083    3.3214    0.0000 H   0  0  0  0  0  0  0  0  0  0  0  0
    1.7349    3.8564    0.0000 H   0  0  0  0  0  0  0  0  0  0  0  0
  1  9  1  0  0  0  0
  1 17  1  0  0  0  0
  3 27  1  0  0  0  0
  4 21  1  0  0  0  0
  4 23  1  0  0  0  0
  5  2  1  6  0  0  0
  5  8  1  0  0  0  0
  5 12  1  0  0  0  0
  5 19  1  0  0  0  0
  6  7  1  0  0  0  0
  6  9  1  0  0  0  0
  6 10  1  0  0  0  0
  6 11  1  6  0  0  0
  7  8  1  0  0  0  0
  7 16  1  0  0  0  0
  7 24  1  1  0  0  0
  8 13  1  0  0  0  0
  8 25  1  6  0  0  0
  9 15  1  0  0  0  0
  9 26  1  1  0  0  0
 10 12  1  0  0  0  0
 10 28  1  0  0  0  0
 10 29  1  0  0  0  0
 11 14  2  0  0  0  0
 11 17  1  0  0  0  0
 12 30  1  0  0  0  0
 12 31  1  0  0  0  0
 13 14  1  0  0  0  0
 13 32  1  0  0  0  0
 13 33  1  0  0  0  0
 14 20  1  0  0  0  0
 15  3  1  0  0  0  0
 15 18  1  0  0  0  0
 15 34  1  1  0  0  0
 16 18  2  0  0  0  0
 16 35  1  0  0  0  0
 17 21  2  0  0  0  0
 18 36  1  0  0  0  0
 19 37  1  0  0  0  0
 19 38  1  0  0  0  0
 19 39  1  0  0  0  0
 20 22  2  0  0  0  0
 20 40  1  0  0  0  0
 21 22  1  0  0  0  0
 22 41  1  0  0  0  0
 23 42  1  0  0  0  0
 23 43  1  0  0  0  0
 23 44  1  0  0  0  0
M  CHG  2   2  -1   5   1
M  END
>  <DRUGBANK_ID>
DB01568

>  <COMMON_NAME>
Codeine-N-oxide

>  <CAS_NUMBER>
3688-65-1

>  <UNII>
Z32OFX7V17

$$$$
