
 OpenBabel10282417072D

 36 39  0  0  1  0  0  0  0  0999 V2000
    0.8648    0.5073    0.0000 C   0  0  0  0  0  0  0  0  0  0  0  0
    1.4044   -0.7010    0.0000 C   0  0  1  0  0  0  0  0  0  0  0  0
    0.6896   -0.2813    0.0000 C   0  0  1  0  0  0  0  0  0  0  0  0
   -0.0207   -0.7010    0.0000 C   0  0  0  0  0  0  0  0  0  0  0  0
   -0.0207   -1.5220    0.0000 C   0  0  0  0  0  0  0  0  0  0  0  0
    1.6858    0.5903    0.0000 C   0  0  0  0  0  0  0  0  0  0  0  0
    0.6896   -1.9418    0.0000 O   0  0  0  0  0  0  0  0  0  0  0  0
   -0.7264   -1.9418    0.0000 C   0  0  0  0  0  0  0  0  0  0  0  0
    0.3805    1.1715    0.0000 C   0  0  0  0  0  0  0  0  0  0  0  0
    2.0225   -0.1522    0.0000 C   0  0  0  0  0  0  0  0  0  0  0  0
    2.0225    1.3422    0.0000 C   0  0  0  0  0  0  0  0  0  0  0  0
   -0.7264   -0.2813    0.0000 C   0  0  0  0  0  0  0  0  0  0  0  0
    0.7079    1.9325    0.0000 C   0  0  0  0  0  0  0  0  0  0  0  0
    1.4044   -1.5220    0.0000 C   0  0  0  0  0  0  0  0  0  0  0  0
    1.5382    2.0110    0.0000 C   0  0  0  0  0  0  0  0  0  0  0  0
   -1.4460   -1.5220    0.0000 C   0  0  0  0  0  0  0  0  0  0  0  0
   -1.4460   -0.7010    0.0000 C   0  0  0  0  0  0  0  0  0  0  0  0
    2.1609   -1.0423    0.0000 O   0  0  0  0  0  0  0  0  0  0  0  0
   -0.7264   -2.7628    0.0000 O   0  0  0  0  0  0  0  0  0  0  0  0
    0.2329    2.5967    0.0000 O   0  0  0  0  0  0  0  0  0  0  0  0
    1.8750    2.7628    0.0000 O   0  0  0  0  0  0  0  0  0  0  0  0
   -2.1609   -1.9418    0.0000 O   0  0  0  0  0  0  0  0  0  0  0  0
   -0.0254    0.1336    0.0000 H   0  0  0  0  0  0  0  0  0  0  0  0
   -0.6450    1.0563    0.0000 H   0  0  0  0  0  0  0  0  0  0  0  0
    3.0691   -0.3747    0.0000 H   0  0  0  0  0  0  0  0  0  0  0  0
    2.2958   -1.1867    0.0000 H   0  0  0  0  0  0  0  0  0  0  0  0
    3.0490    1.4482    0.0000 H   0  0  0  0  0  0  0  0  0  0  0  0
   -0.7220    0.7507    0.0000 H   0  0  0  0  0  0  0  0  0  0  0  0
    2.3330   -2.0536    0.0000 H   0  0  0  0  0  0  0  0  0  0  0  0
    1.4104   -2.5920    0.0000 H   0  0  0  0  0  0  0  0  0  0  0  0
   -2.3409   -0.1870    0.0000 H   0  0  0  0  0  0  0  0  0  0  0  0
    2.2575   -2.0075    0.0000 H   0  0  0  0  0  0  0  0  0  0  0  0
   -1.5379   -3.2313    0.0000 H   0  0  0  0  0  0  0  0  0  0  0  0
    0.6204    3.4498    0.0000 H   0  0  0  0  0  0  0  0  0  0  0  0
    2.8071    2.8586    0.0000 H   0  0  0  0  0  0  0  0  0  0  0  0
   -2.9758   -1.4793    0.0000 H   0  0  0  0  0  0  0  0  0  0  0  0
  2  3  1  0  0  0  0
  2 18  1  6  0  0  0
  3  1  1  0  0  0  0
  3 23  1  6  0  0  0
  4  3  1  0  0  0  0
  5  4  2  0  0  0  0
  6  1  1  0  0  0  0
  7  5  1  0  0  0  0
  8  5  1  0  0  0  0
  9  1  2  0  0  0  0
  9 24  1  0  0  0  0
 10  6  1  0  0  0  0
 10  2  1  0  0  0  0
 10 25  1  0  0  0  0
 10 26  1  0  0  0  0
 11  6  2  0  0  0  0
 11 27  1  0  0  0  0
 12  4  1  0  0  0  0
 12 28  1  0  0  0  0
 13  9  1  0  0  0  0
 14  2  1  0  0  0  0
 14  7  1  0  0  0  0
 14 29  1  0  0  0  0
 14 30  1  0  0  0  0
 15 13  2  0  0  0  0
 15 11  1  0  0  0  0
 16  8  2  0  0  0  0
 16 17  1  0  0  0  0
 17 12  2  0  0  0  0
 17 31  1  0  0  0  0
 18 32  1  0  0  0  0
 19  8  1  0  0  0  0
 19 33  1  0  0  0  0
 20 13  1  0  0  0  0
 20 34  1  0  0  0  0
 21 15  1  0  0  0  0
 21 35  1  0  0  0  0
 22 16  1  0  0  0  0
 22 36  1  0  0  0  0
M  END
>  <DRUGBANK_ID>
DB16871

>  <COMMON_NAME>
Hematoxylin

>  <CAS_NUMBER>
517-28-2

>  <UNII>
YKM8PY2Z55

>  <SYNONYMS>
Haematoxylin; Hydroxybrasilin; Hydroxybrazilin

$$$$
