
 OpenBabel10282417072D

 61 64  0  0  0  0  0  0  0  0999 V2000
   10.0026   -6.6000    0.0000 C   0  0  0  0  0  0  0  0  0  0  0  0
    9.2881   -6.1875    0.0000 C   0  0  0  0  0  0  0  0  0  0  0  0
    9.2881   -5.3625    0.0000 C   0  0  0  0  0  0  0  0  0  0  0  0
   10.0026   -4.9500    0.0000 C   0  0  0  0  0  0  0  0  0  0  0  0
   10.7171   -5.3625    0.0000 C   0  0  0  0  0  0  0  0  0  0  0  0
   10.7171   -6.1875    0.0000 C   0  0  0  0  0  0  0  0  0  0  0  0
   10.0026   -4.1250    0.0000 C   0  0  0  0  0  0  0  0  0  0  0  0
    9.2881   -3.7125    0.0000 N   0  0  0  0  0  0  0  0  0  0  0  0
    9.2881   -2.8875    0.0000 C   0  0  0  0  0  0  0  0  0  0  0  0
   10.0026   -2.4750    0.0000 O   0  0  0  0  0  0  0  0  0  0  0  0
    8.5737   -2.4750    0.0000 C   0  0  0  0  0  0  0  0  0  0  0  0
    8.5737   -1.6500    0.0000 C   0  0  0  0  0  0  0  0  0  0  0  0
    7.8592   -1.2375    0.0000 C   0  0  0  0  0  0  0  0  0  0  0  0
    7.8592   -0.4125    0.0000 C   0  0  0  0  0  0  0  0  0  0  0  0
    8.5737    0.0000    0.0000 C   0  0  0  0  0  0  0  0  0  0  0  0
    9.2881   -0.4125    0.0000 C   0  0  0  0  0  0  0  0  0  0  0  0
    9.2881   -1.2375    0.0000 N   0  0  0  0  0  0  0  0  0  0  0  0
    8.5737    0.8250    0.0000 C   0  0  0  0  0  0  0  0  0  0  0  0
    7.8592    1.2375    0.0000 C   0  0  0  0  0  0  0  0  0  0  0  0
    7.8592    2.0625    0.0000 C   0  0  0  0  0  0  0  0  0  0  0  0
    8.5737    2.4750    0.0000 C   0  0  0  0  0  0  0  0  0  0  0  0
    9.2881    2.0625    0.0000 C   0  0  0  0  0  0  0  0  0  0  0  0
    9.2881    1.2375    0.0000 C   0  0  0  0  0  0  0  0  0  0  0  0
    8.5737    3.3000    0.0000 O   0  0  0  0  0  0  0  0  0  0  0  0
    9.2881    3.7125    0.0000 C   0  0  0  0  0  0  0  0  0  0  0  0
    9.2881    4.5375    0.0000 C   0  0  0  0  0  0  0  0  0  0  0  0
   10.0026    4.9500    0.0000 N   0  0  0  0  0  0  0  0  0  0  0  0
   10.0026    5.7750    0.0000 C   0  0  0  0  0  0  0  0  0  0  0  0
   10.7171    6.1875    0.0000 C   0  0  0  0  0  0  0  0  0  0  0  0
   11.4315    5.7750    0.0000 O   0  0  0  0  0  0  0  0  0  0  0  0
   11.4315    4.9500    0.0000 C   0  0  0  0  0  0  0  0  0  0  0  0
   10.7171    4.5375    0.0000 C   0  0  0  0  0  0  0  0  0  0  0  0
   10.0026   -7.6320    0.0000 H   0  0  0  0  0  0  0  0  0  0  0  0
    8.3944   -6.7035    0.0000 H   0  0  0  0  0  0  0  0  0  0  0  0
    8.3944   -4.8465    0.0000 H   0  0  0  0  0  0  0  0  0  0  0  0
   11.6108   -4.8465    0.0000 H   0  0  0  0  0  0  0  0  0  0  0  0
   11.6108   -6.7035    0.0000 H   0  0  0  0  0  0  0  0  0  0  0  0
   10.9292   -3.5900    0.0000 H   0  0  0  0  0  0  0  0  0  0  0  0
   10.0026   -3.0550    0.0000 H   0  0  0  0  0  0  0  0  0  0  0  0
    8.4355   -4.2048    0.0000 H   0  0  0  0  0  0  0  0  0  0  0  0
    7.6470   -3.0100    0.0000 H   0  0  0  0  0  0  0  0  0  0  0  0
    7.6471   -1.9400    0.0000 H   0  0  0  0  0  0  0  0  0  0  0  0
    6.9655   -1.7535    0.0000 H   0  0  0  0  0  0  0  0  0  0  0  0
    6.9655    0.1035    0.0000 H   0  0  0  0  0  0  0  0  0  0  0  0
   10.1818    0.1035    0.0000 H   0  0  0  0  0  0  0  0  0  0  0  0
    6.9655    0.7215    0.0000 H   0  0  0  0  0  0  0  0  0  0  0  0
    6.9655    2.5785    0.0000 H   0  0  0  0  0  0  0  0  0  0  0  0
   10.1818    2.5785    0.0000 H   0  0  0  0  0  0  0  0  0  0  0  0
   10.1818    0.7215    0.0000 H   0  0  0  0  0  0  0  0  0  0  0  0
   10.2148    3.1775    0.0000 H   0  0  0  0  0  0  0  0  0  0  0  0
   10.2147    4.2475    0.0000 H   0  0  0  0  0  0  0  0  0  0  0  0
    8.3615    5.0725    0.0000 H   0  0  0  0  0  0  0  0  0  0  0  0
    9.2881    5.6075    0.0000 H   0  0  0  0  0  0  0  0  0  0  0  0
    9.0760    6.3100    0.0000 H   0  0  0  0  0  0  0  0  0  0  0  0
   10.0026    6.8450    0.0000 H   0  0  0  0  0  0  0  0  0  0  0  0
   10.7171    7.2575    0.0000 H   0  0  0  0  0  0  0  0  0  0  0  0
   11.6438    6.7225    0.0000 H   0  0  0  0  0  0  0  0  0  0  0  0
   12.3582    4.4150    0.0000 H   0  0  0  0  0  0  0  0  0  0  0  0
   11.4315    3.8800    0.0000 H   0  0  0  0  0  0  0  0  0  0  0  0
   10.7171    3.4675    0.0000 H   0  0  0  0  0  0  0  0  0  0  0  0
    9.7905    4.0025    0.0000 H   0  0  0  0  0  0  0  0  0  0  0  0
  1  2  2  0  0  0  0
  1  6  1  0  0  0  0
  1 33  1  0  0  0  0
  2  3  1  0  0  0  0
  2 34  1  0  0  0  0
  3  4  2  0  0  0  0
  3 35  1  0  0  0  0
  4  5  1  0  0  0  0
  4  7  1  0  0  0  0
  5  6  2  0  0  0  0
  5 36  1  0  0  0  0
  6 37  1  0  0  0  0
  7  8  1  0  0  0  0
  7 38  1  0  0  0  0
  7 39  1  0  0  0  0
  8  9  1  0  0  0  0
  8 40  1  0  0  0  0
  9 10  2  0  0  0  0
  9 11  1  0  0  0  0
 11 12  1  0  0  0  0
 11 41  1  0  0  0  0
 11 42  1  0  0  0  0
 12 13  2  0  0  0  0
 12 17  1  0  0  0  0
 13 14  1  0  0  0  0
 13 43  1  0  0  0  0
 14 15  2  0  0  0  0
 14 44  1  0  0  0  0
 15 16  1  0  0  0  0
 15 18  1  0  0  0  0
 16 17  2  0  0  0  0
 16 45  1  0  0  0  0
 18 19  2  0  0  0  0
 18 23  1  0  0  0  0
 19 20  1  0  0  0  0
 19 46  1  0  0  0  0
 20 21  2  0  0  0  0
 20 47  1  0  0  0  0
 21 22  1  0  0  0  0
 21 24  1  0  0  0  0
 22 23  2  0  0  0  0
 22 48  1  0  0  0  0
 23 49  1  0  0  0  0
 24 25  1  0  0  0  0
 25 26  1  0  0  0  0
 25 50  1  0  0  0  0
 25 51  1  0  0  0  0
 26 27  1  0  0  0  0
 26 52  1  0  0  0  0
 26 53  1  0  0  0  0
 27 28  1  0  0  0  0
 27 32  1  0  0  0  0
 28 29  1  0  0  0  0
 28 54  1  0  0  0  0
 28 55  1  0  0  0  0
 29 30  1  0  0  0  0
 29 56  1  0  0  0  0
 29 57  1  0  0  0  0
 30 31  1  0  0  0  0
 31 32  1  0  0  0  0
 31 58  1  0  0  0  0
 31 59  1  0  0  0  0
 32 60  1  0  0  0  0
 32 61  1  0  0  0  0
M  END
>  <DRUGBANK_ID>
DB06137

>  <COMMON_NAME>
Tirbanibulin

>  <CAS_NUMBER>
897016-82-9

>  <UNII>
4V9848RS5G

>  <SYNONYMS>
Tirbanibulin

$$$$
