
 OpenBabel10282417072D

 15 15  0  0  0  0  0  0  0  0999 V2000
   -0.3572   -1.2374    0.0000 N   0  0  0  0  0  0  0  0  0  0  0  0
   -1.0716   -0.8250    0.0000 C   0  0  0  0  0  0  0  0  0  0  0  0
   -1.0716    0.0000    0.0000 C   0  0  0  0  0  0  0  0  0  0  0  0
   -0.3572    0.4125    0.0000 N   0  0  0  0  0  0  0  0  0  0  0  0
    0.3572    0.0000    0.0000 C   0  0  0  0  0  0  0  0  0  0  0  0
    0.3572   -0.8250    0.0000 C   0  0  0  0  0  0  0  0  0  0  0  0
    1.0717   -1.2374    0.0000 O   0  0  0  0  0  0  0  0  0  0  0  0
    1.0717    0.4125    0.0000 C   0  0  0  0  0  0  0  0  0  0  0  0
    1.7861    0.0000    0.0000 N   0  0  0  0  0  0  0  0  0  0  0  0
    1.0717    1.2374    0.0000 O   0  0  0  0  0  0  0  0  0  0  0  0
   -1.7861    0.4125    0.0000 F   0  0  0  0  0  0  0  0  0  0  0  0
   -1.9653   -1.3410    0.0000 H   0  0  0  0  0  0  0  0  0  0  0  0
    1.0718   -2.1744    0.0000 H   0  0  0  0  0  0  0  0  0  0  0  0
    1.7861   -0.9845    0.0000 H   0  0  0  0  0  0  0  0  0  0  0  0
    2.6387    0.4922    0.0000 H   0  0  0  0  0  0  0  0  0  0  0  0
  1  2  1  0  0  0  0
  1  6  2  0  0  0  0
  2  3  2  0  0  0  0
  2 12  1  0  0  0  0
  3  4  1  0  0  0  0
  3 11  1  0  0  0  0
  4  5  2  0  0  0  0
  5  6  1  0  0  0  0
  5  8  1  0  0  0  0
  6  7  1  0  0  0  0
  7 13  1  0  0  0  0
  8  9  1  0  0  0  0
  8 10  2  0  0  0  0
  9 14  1  0  0  0  0
  9 15  1  0  0  0  0
M  END
>  <DRUGBANK_ID>
DB12466

>  <SECONDARY_ACCESSION_NUMBERS>
DB06046; DB15625

>  <COMMON_NAME>
Favipiravir

>  <CAS_NUMBER>
259793-96-9

>  <UNII>
EW5GL2X7E0

>  <SYNONYMS>
Fapilavir; Favilavir; Favipiravir

$$$$
