
 OpenBabel10282417072D

 51 54  0  0  0  0  0  0  0  0999 V2000
   -2.0602   -0.3162    0.0000 C   0  0  0  0  0  0  0  0  0  0  0  0
   -2.0602   -1.1472    0.0000 C   0  0  1  0  0  0  0  0  0  0  0  0
   -1.3496   -1.5576    0.0000 C   0  0  0  0  0  0  0  0  0  0  0  0
   -0.6340   -1.1472    0.0000 C   0  0  1  0  0  0  0  0  0  0  0  0
   -0.6340   -0.3162    0.0000 C   0  0  2  0  0  0  0  0  0  0  0  0
   -1.3496    0.0943    0.0000 C   0  0  0  0  0  0  0  0  0  0  0  0
    0.0765    0.0943    0.0000 C   0  0  2  0  0  0  0  0  0  0  0  0
    0.7923   -0.3162    0.0000 C   0  0  1  0  0  0  0  0  0  0  0  0
    0.7923   -1.1472    0.0000 C   0  0  0  0  0  0  0  0  0  0  0  0
    0.0765   -1.5576    0.0000 C   0  0  0  0  0  0  0  0  0  0  0  0
    1.5080    0.0943    0.0000 C   0  0  1  0  0  0  0  0  0  0  0  0
    1.5080    0.9154    0.0000 C   0  0  2  0  0  0  0  0  0  0  0  0
    0.7923    1.3266    0.0000 C   0  0  0  0  0  0  0  0  0  0  0  0
    0.0765    0.9154    0.0000 C   0  0  0  0  0  0  0  0  0  0  0  0
    2.2875    1.1683    0.0000 C   0  0  2  0  0  0  0  0  0  0  0  0
    2.7760    0.5047    0.0000 C   0  0  0  0  0  0  0  0  0  0  0  0
    2.2875   -0.1631    0.0000 C   0  0  0  0  0  0  0  0  0  0  0  0
    2.5450    1.9577    0.0000 O   0  0  0  0  0  0  0  0  0  0  0  0
    1.5080    1.7418    0.0000 C   0  0  0  0  0  0  0  0  0  0  0  0
    1.5080   -0.7366    0.0000 H   0  0  0  0  0  0  0  0  0  0  0  0
    0.7923    0.5047    0.0000 H   0  0  0  0  0  0  0  0  0  0  0  0
    0.0765   -0.7366    0.0000 H   0  0  0  0  0  0  0  0  0  0  0  0
   -0.6340    0.5047    0.0000 C   0  0  0  0  0  0  0  0  0  0  0  0
   -0.6340   -1.9577    0.0000 H   0  0  0  0  0  0  0  0  0  0  0  0
   -2.7760   -1.5576    0.0000 O   0  0  0  0  0  0  0  0  0  0  0  0
   -2.9540    0.1997    0.0000 H   0  0  0  0  0  0  0  0  0  0  0  0
   -2.9860   -0.6108    0.0000 H   0  0  0  0  0  0  0  0  0  0  0  0
   -1.3512   -2.6276    0.0000 H   0  0  0  0  0  0  0  0  0  0  0  0
   -0.4241   -2.0946    0.0000 H   0  0  0  0  0  0  0  0  0  0  0  0
   -1.3512    1.1263    0.0000 H   0  0  0  0  0  0  0  0  0  0  0  0
    1.7181   -1.6836    0.0000 H   0  0  0  0  0  0  0  0  0  0  0  0
    0.7899   -2.2172    0.0000 H   0  0  0  0  0  0  0  0  0  0  0  0
    0.0748   -2.6276    0.0000 H   0  0  0  0  0  0  0  0  0  0  0  0
   -0.8506   -2.0918    0.0000 H   0  0  0  0  0  0  0  0  0  0  0  0
    0.7923    2.3966    0.0000 H   0  0  0  0  0  0  0  0  0  0  0  0
   -0.1338    1.8626    0.0000 H   0  0  0  0  0  0  0  0  0  0  0  0
   -0.8496    1.4514    0.0000 H   0  0  0  0  0  0  0  0  0  0  0  0
   -0.8504    0.3809    0.0000 H   0  0  0  0  0  0  0  0  0  0  0  0
    1.5315    1.9255    0.0000 H   0  0  0  0  0  0  0  0  0  0  0  0
    3.8460    0.5063    0.0000 H   0  0  0  0  0  0  0  0  0  0  0  0
    3.2609   -0.4491    0.0000 H   0  0  0  0  0  0  0  0  0  0  0  0
    2.6141   -1.1820    0.0000 H   0  0  0  0  0  0  0  0  0  0  0  0
    1.5276   -0.9164    0.0000 H   0  0  0  0  0  0  0  0  0  0  0  0
    3.4940    2.1583    0.0000 H   0  0  0  0  0  0  0  0  0  0  0  0
    2.4346    2.2768    0.0000 H   0  0  0  0  0  0  0  0  0  0  0  0
    0.5814    2.2768    0.0000 H   0  0  0  0  0  0  0  0  0  0  0  0
    1.5080    2.8118    0.0000 H   0  0  0  0  0  0  0  0  0  0  0  0
    0.2926    1.0397    0.0000 H   0  0  0  0  0  0  0  0  0  0  0  0
   -1.5606    1.0397    0.0000 H   0  0  0  0  0  0  0  0  0  0  0  0
   -0.6340    1.5747    0.0000 H   0  0  0  0  0  0  0  0  0  0  0  0
   -3.6146   -1.0701    0.0000 H   0  0  0  0  0  0  0  0  0  0  0  0
  1  2  1  0  0  0  0
  1  6  2  0  0  0  0
  1 26  1  0  0  0  0
  2  3  1  0  0  0  0
  2 25  1  0  0  0  0
  2 27  1  6  0  0  0
  3  4  1  0  0  0  0
  3 28  1  0  0  0  0
  3 29  1  0  0  0  0
  4  5  1  0  0  0  0
  4 10  1  0  0  0  0
  4 24  1  6  0  0  0
  5  6  1  0  0  0  0
  5  7  1  0  0  0  0
  5 23  1  1  0  0  0
  6 30  1  0  0  0  0
  7 14  1  0  0  0  0
  7 22  1  6  0  0  0
  8  7  1  0  0  0  0
  8 11  1  0  0  0  0
  8 21  1  1  0  0  0
  9  8  1  0  0  0  0
  9 31  1  0  0  0  0
  9 32  1  0  0  0  0
 10  9  1  0  0  0  0
 10 33  1  0  0  0  0
 10 34  1  0  0  0  0
 11 12  1  0  0  0  0
 11 17  1  0  0  0  0
 11 20  1  6  0  0  0
 12 13  1  0  0  0  0
 12 15  1  0  0  0  0
 12 19  1  1  0  0  0
 13 14  1  0  0  0  0
 13 35  1  0  0  0  0
 13 36  1  0  0  0  0
 14 37  1  0  0  0  0
 14 38  1  0  0  0  0
 15 18  1  0  0  0  0
 15 39  1  6  0  0  0
 16 15  1  0  0  0  0
 16 40  1  0  0  0  0
 16 41  1  0  0  0  0
 17 16  1  0  0  0  0
 17 42  1  0  0  0  0
 17 43  1  0  0  0  0
 18 44  1  0  0  0  0
 19 45  1  0  0  0  0
 19 46  1  0  0  0  0
 19 47  1  0  0  0  0
 23 48  1  0  0  0  0
 23 49  1  0  0  0  0
 23 50  1  0  0  0  0
 25 51  1  0  0  0  0
M  END
>  <DRUGBANK_ID>
DB01503

>  <COMMON_NAME>
1-Androstenediol

>  <CAS_NUMBER>
5323-27-3

>  <UNII>
V7W74907I7

$$$$
