
 OpenBabel10282417072D

 66 71  0  0  0  0  0  0  0  0999 V2000
   -0.8631   -2.1972    0.0000 C   0  0  0  0  0  0  0  0  0  0  0  0
   -0.0793   -1.9498    0.0000 N   0  0  0  0  0  0  0  0  0  0  0  0
   -0.8631   -3.0222    0.0000 C   0  0  0  0  0  0  0  0  0  0  0  0
    0.4156   -2.6098    0.0000 C   0  0  0  0  0  0  0  0  0  0  0  0
   -0.0793   -3.3110    0.0000 N   0  0  0  0  0  0  0  0  0  0  0  0
   -1.5643   -3.4348    0.0000 C   0  0  0  0  0  0  0  0  0  0  0  0
   -2.2656   -2.1972    0.0000 C   0  0  0  0  0  0  0  0  0  0  0  0
   -1.5643   -0.9598    0.0000 C   0  0  0  0  0  0  0  0  0  0  0  0
    1.2406   -2.6098    0.0000 O   0  0  0  0  0  0  0  0  0  0  0  0
   -2.2656   -3.0222    0.0000 C   0  0  0  0  0  0  0  0  0  0  0  0
   -0.8323   -0.5289    0.0000 O   0  0  0  0  0  0  0  0  0  0  0  0
    1.6531   -3.3523    0.0000 C   0  0  0  0  0  0  0  0  0  0  0  0
    2.4782   -3.3523    0.0000 C   0  0  0  0  0  0  0  0  0  0  0  0
    2.7786    1.3503    0.0000 C   0  0  0  0  0  0  0  0  0  0  0  0
    2.0038    1.7377    0.0000 C   0  0  0  0  0  0  0  0  0  0  0  0
    1.8931    2.5309    0.0000 N   0  0  0  0  0  0  0  0  0  0  0  0
    1.2658    1.3687    0.0000 N   0  0  0  0  0  0  0  0  0  0  0  0
    1.0813    2.6600    0.0000 C   0  0  0  0  0  0  0  0  0  0  0  0
    0.7124    1.9221    0.0000 O   0  0  0  0  0  0  0  0  0  0  0  0
    0.7309    3.4348    0.0000 O   0  0  0  0  0  0  0  0  0  0  0  0
   -2.2754   -0.5414    0.0000 O   0  0  0  0  0  0  0  0  0  0  0  0
   -2.2686    0.2835    0.0000 C   0  0  0  0  0  0  0  0  0  0  0  0
   -2.9698    0.6960    0.0000 C   0  0  0  0  0  0  0  0  0  0  0  0
   -3.7418    0.4589    0.0000 C   0  0  0  0  0  0  0  0  0  0  0  0
   -4.2075    1.1189    0.0000 O   0  0  0  0  0  0  0  0  0  0  0  0
   -3.7238    1.7657    0.0000 C   0  0  0  0  0  0  0  0  0  0  0  0
   -2.9592    1.5053    0.0000 O   0  0  0  0  0  0  0  0  0  0  0  0
   -4.0079   -0.3197    0.0000 C   0  0  0  0  0  0  0  0  0  0  0  0
   -3.9723    2.5683    0.0000 O   0  0  0  0  0  0  0  0  0  0  0  0
    3.4930    1.7628    0.0000 C   0  0  0  0  0  0  0  0  0  0  0  0
    2.7786    0.5251    0.0000 C   0  0  0  0  0  0  0  0  0  0  0  0
    3.4930    0.1127    0.0000 C   0  0  0  0  0  0  0  0  0  0  0  0
    4.2075    0.5251    0.0000 C   0  0  0  0  0  0  0  0  0  0  0  0
    4.2075    1.3503    0.0000 C   0  0  0  0  0  0  0  0  0  0  0  0
    2.0640    0.1128    0.0000 C   0  0  0  0  0  0  0  0  0  0  0  0
    1.3495    0.5253    0.0000 C   0  0  0  0  0  0  0  0  0  0  0  0
    0.6351    0.1128    0.0000 C   0  0  0  0  0  0  0  0  0  0  0  0
    0.6351   -0.7122    0.0000 C   0  0  0  0  0  0  0  0  0  0  0  0
    1.3495   -1.1248    0.0000 C   0  0  0  0  0  0  0  0  0  0  0  0
    2.0640   -0.7122    0.0000 C   0  0  0  0  0  0  0  0  0  0  0  0
   -0.0793   -1.1248    0.0000 C   0  0  0  0  0  0  0  0  0  0  0  0
   -1.5643   -1.7848    0.0000 C   0  0  0  0  0  0  0  0  0  0  0  0
   -1.5643   -4.4668    0.0000 H   0  0  0  0  0  0  0  0  0  0  0  0
   -3.1614   -1.6848    0.0000 H   0  0  0  0  0  0  0  0  0  0  0  0
   -3.1614   -3.5345    0.0000 H   0  0  0  0  0  0  0  0  0  0  0  0
    1.1105   -4.2745    0.0000 H   0  0  0  0  0  0  0  0  0  0  0  0
    2.1843   -4.2811    0.0000 H   0  0  0  0  0  0  0  0  0  0  0  0
    3.0132   -4.2789    0.0000 H   0  0  0  0  0  0  0  0  0  0  0  0
    3.0132   -2.4257    0.0000 H   0  0  0  0  0  0  0  0  0  0  0  0
    3.5482   -3.3523    0.0000 H   0  0  0  0  0  0  0  0  0  0  0  0
    2.5958    3.2204    0.0000 H   0  0  0  0  0  0  0  0  0  0  0  0
   -1.3376    0.8109    0.0000 H   0  0  0  0  0  0  0  0  0  0  0  0
   -2.2598    1.3535    0.0000 H   0  0  0  0  0  0  0  0  0  0  0  0
   -5.0578   -0.5263    0.0000 H   0  0  0  0  0  0  0  0  0  0  0  0
   -3.3041   -1.1256    0.0000 H   0  0  0  0  0  0  0  0  0  0  0  0
   -4.3539   -1.3322    0.0000 H   0  0  0  0  0  0  0  0  0  0  0  0
    3.4930    2.7948    0.0000 H   0  0  0  0  0  0  0  0  0  0  0  0
    3.4930   -0.9193    0.0000 H   0  0  0  0  0  0  0  0  0  0  0  0
    5.1012    0.0090    0.0000 H   0  0  0  0  0  0  0  0  0  0  0  0
    5.1012    1.8663    0.0000 H   0  0  0  0  0  0  0  0  0  0  0  0
    1.3495    1.5573    0.0000 H   0  0  0  0  0  0  0  0  0  0  0  0
   -0.2586    0.6288    0.0000 H   0  0  0  0  0  0  0  0  0  0  0  0
    1.3495   -2.1568    0.0000 H   0  0  0  0  0  0  0  0  0  0  0  0
    2.9578   -1.2282    0.0000 H   0  0  0  0  0  0  0  0  0  0  0  0
   -1.0060   -0.5899    0.0000 H   0  0  0  0  0  0  0  0  0  0  0  0
   -0.0794   -0.0548    0.0000 H   0  0  0  0  0  0  0  0  0  0  0  0
  1  2  1  0  0  0  0
  1  3  2  0  0  0  0
  1 42  1  0  0  0  0
  2  4  1  0  0  0  0
  2 41  1  0  0  0  0
  3  5  1  0  0  0  0
  3  6  1  0  0  0  0
  4  9  1  0  0  0  0
  4  5  2  0  0  0  0
  6 10  2  0  0  0  0
  6 43  1  0  0  0  0
  7 10  1  0  0  0  0
  7 44  1  0  0  0  0
  8 11  2  0  0  0  0
  8 21  1  0  0  0  0
  8 42  1  0  0  0  0
  9 12  1  0  0  0  0
 10 45  1  0  0  0  0
 12 13  1  0  0  0  0
 12 46  1  0  0  0  0
 12 47  1  0  0  0  0
 13 48  1  0  0  0  0
 13 49  1  0  0  0  0
 13 50  1  0  0  0  0
 14 15  1  0  0  0  0
 14 31  1  0  0  0  0
 15 16  1  0  0  0  0
 15 17  2  0  0  0  0
 16 18  1  0  0  0  0
 16 51  1  0  0  0  0
 17 19  1  0  0  0  0
 18 19  1  0  0  0  0
 18 20  2  0  0  0  0
 21 22  1  0  0  0  0
 22 23  1  0  0  0  0
 22 52  1  0  0  0  0
 22 53  1  0  0  0  0
 23 24  2  0  0  0  0
 23 27  1  0  0  0  0
 24 25  1  0  0  0  0
 24 28  1  0  0  0  0
 25 26  1  0  0  0  0
 26 27  1  0  0  0  0
 26 29  2  0  0  0  0
 28 54  1  0  0  0  0
 28 55  1  0  0  0  0
 28 56  1  0  0  0  0
 30 14  2  0  0  0  0
 30 34  1  0  0  0  0
 30 57  1  0  0  0  0
 31 32  2  0  0  0  0
 31 35  1  0  0  0  0
 32 33  1  0  0  0  0
 32 58  1  0  0  0  0
 33 34  2  0  0  0  0
 33 59  1  0  0  0  0
 34 60  1  0  0  0  0
 36 35  1  0  0  0  0
 36 37  2  0  0  0  0
 36 61  1  0  0  0  0
 37 38  1  0  0  0  0
 37 62  1  0  0  0  0
 38 39  2  0  0  0  0
 38 41  1  0  0  0  0
 39 40  1  0  0  0  0
 39 63  1  0  0  0  0
 40 35  2  0  0  0  0
 40 64  1  0  0  0  0
 41 65  1  0  0  0  0
 41 66  1  0  0  0  0
 42  7  2  0  0  0  0
M  END
>  <DRUGBANK_ID>
DB08822

>  <SECONDARY_ACCESSION_NUMBERS>
DB05358

>  <COMMON_NAME>
Azilsartan medoxomil

>  <CAS_NUMBER>
863031-21-4

>  <UNII>
LL0G25K7I2

>  <SYNONYMS>
Azilsartan; Azilsartan medoxomil; Azilsartan médoxomil; Azilsartán medoxomilo; Azilsartanum medoxomilum

$$$$
