
 OpenBabel10282417072D

 25 24  0  0  0  0  0  0  0  0999 V2000
   -0.7144   -0.2615    0.0000 C   0  0  0  0  0  0  0  0  0  0  0  0
    0.0000    0.1509    0.0000 C   0  0  0  0  0  0  0  0  0  0  0  0
   -1.4289   -0.6740    0.0000 C   0  0  0  0  0  0  0  0  0  0  0  0
   -1.1269    0.4530    0.0000 C   0  0  0  0  0  0  0  0  0  0  0  0
   -0.3019   -0.9760    0.0000 Br  0  0  0  0  0  0  0  0  0  0  0  0
    0.7144   -0.2615    0.0000 N   0  0  0  0  0  0  0  0  0  0  0  0
    0.0000    0.9760    0.0000 O   0  0  0  0  0  0  0  0  0  0  0  0
   -2.1434   -0.2615    0.0000 C   0  0  0  0  0  0  0  0  0  0  0  0
   -1.9519    0.4530    0.0000 C   0  0  0  0  0  0  0  0  0  0  0  0
    1.4289    0.1509    0.0000 C   0  0  0  0  0  0  0  0  0  0  0  0
    2.1434   -0.2615    0.0000 N   0  0  0  0  0  0  0  0  0  0  0  0
    1.4289    0.9760    0.0000 O   0  0  0  0  0  0  0  0  0  0  0  0
   -1.4289   -1.7440    0.0000 H   0  0  0  0  0  0  0  0  0  0  0  0
   -2.3555   -1.2090    0.0000 H   0  0  0  0  0  0  0  0  0  0  0  0
   -0.5919    1.3796    0.0000 H   0  0  0  0  0  0  0  0  0  0  0  0
   -1.6619    1.3796    0.0000 H   0  0  0  0  0  0  0  0  0  0  0  0
    0.7144   -1.2460    0.0000 H   0  0  0  0  0  0  0  0  0  0  0  0
   -2.1434    0.8085    0.0000 H   0  0  0  0  0  0  0  0  0  0  0  0
   -3.0700   -0.7965    0.0000 H   0  0  0  0  0  0  0  0  0  0  0  0
   -3.0701    0.2735    0.0000 H   0  0  0  0  0  0  0  0  0  0  0  0
   -2.4869    1.3796    0.0000 H   0  0  0  0  0  0  0  0  0  0  0  0
   -2.4869   -0.4736    0.0000 H   0  0  0  0  0  0  0  0  0  0  0  0
   -3.0219    0.4530    0.0000 H   0  0  0  0  0  0  0  0  0  0  0  0
    2.1435   -1.2460    0.0000 H   0  0  0  0  0  0  0  0  0  0  0  0
    2.9959    0.2309    0.0000 H   0  0  0  0  0  0  0  0  0  0  0  0
  1  2  1  0  0  0  0
  1  3  1  0  0  0  0
  1  4  1  0  0  0  0
  1  5  1  0  0  0  0
  2  6  1  0  0  0  0
  2  7  2  0  0  0  0
  3  8  1  0  0  0  0
  3 13  1  0  0  0  0
  3 14  1  0  0  0  0
  4  9  1  0  0  0  0
  4 15  1  0  0  0  0
  4 16  1  0  0  0  0
  6 10  1  0  0  0  0
  6 17  1  0  0  0  0
  8 18  1  0  0  0  0
  8 19  1  0  0  0  0
  8 20  1  0  0  0  0
  9 21  1  0  0  0  0
  9 22  1  0  0  0  0
  9 23  1  0  0  0  0
 10 11  1  0  0  0  0
 10 12  2  0  0  0  0
 11 24  1  0  0  0  0
 11 25  1  0  0  0  0
M  END
>  <DRUGBANK_ID>
DB13817

>  <COMMON_NAME>
Carbromal

>  <CAS_NUMBER>
77-65-6

>  <UNII>
0Y299JY9V3

>  <SYNONYMS>
Carbromal; Carbromalum

$$$$
