
 OpenBabel10282417072D

 22 22  0  0  0  0  0  0  0  0999 V2000
    1.0313   -0.3019    0.0000 C   0  0  0  0  0  0  0  0  0  0  0  0
    0.6187   -1.0164    0.0000 C   0  0  0  0  0  0  0  0  0  0  0  0
    0.6187    0.4125    0.0000 C   0  0  0  0  0  0  0  0  0  0  0  0
    1.8563   -0.3019    0.0000 S   0  0  0  0  0  0  0  0  0  0  0  0
   -0.2062   -1.0164    0.0000 C   0  0  0  0  0  0  0  0  0  0  0  0
   -0.2062    0.4125    0.0000 C   0  0  0  0  0  0  0  0  0  0  0  0
    2.6814   -0.3019    0.0000 Cl  0  0  0  0  0  0  0  0  0  0  0  0
    1.8563    0.5230    0.0000 O   0  0  0  0  0  0  0  0  0  0  0  0
    1.8563   -1.1271    0.0000 O   0  0  0  0  0  0  0  0  0  0  0  0
   -0.6187   -0.3019    0.0000 C   0  0  0  0  0  0  0  0  0  0  0  0
   -1.4438   -0.3019    0.0000 N   0  0  0  0  0  0  0  0  0  0  0  0
   -1.8563    0.4125    0.0000 C   0  0  0  0  0  0  0  0  0  0  0  0
   -2.6814    0.4125    0.0000 C   0  0  0  0  0  0  0  0  0  0  0  0
   -1.4438    1.1271    0.0000 O   0  0  0  0  0  0  0  0  0  0  0  0
    1.1347   -1.9102    0.0000 H   0  0  0  0  0  0  0  0  0  0  0  0
    1.1346    1.3063    0.0000 H   0  0  0  0  0  0  0  0  0  0  0  0
   -0.7222   -1.9101    0.0000 H   0  0  0  0  0  0  0  0  0  0  0  0
   -0.7222    1.3062    0.0000 H   0  0  0  0  0  0  0  0  0  0  0  0
   -1.9360   -1.1545    0.0000 H   0  0  0  0  0  0  0  0  0  0  0  0
   -3.2164    1.3391    0.0000 H   0  0  0  0  0  0  0  0  0  0  0  0
   -3.2164   -0.5141    0.0000 H   0  0  0  0  0  0  0  0  0  0  0  0
   -3.7514    0.4125    0.0000 H   0  0  0  0  0  0  0  0  0  0  0  0
  1  2  2  0  0  0  0
  1  3  1  0  0  0  0
  1  4  1  0  0  0  0
  2  5  1  0  0  0  0
  2 15  1  0  0  0  0
  3  6  2  0  0  0  0
  3 16  1  0  0  0  0
  4  7  1  0  0  0  0
  4  8  2  0  0  0  0
  4  9  2  0  0  0  0
  5 10  2  0  0  0  0
  5 17  1  0  0  0  0
  6 10  1  0  0  0  0
  6 18  1  0  0  0  0
 10 11  1  0  0  0  0
 11 12  1  0  0  0  0
 11 19  1  0  0  0  0
 12 13  1  0  0  0  0
 12 14  2  0  0  0  0
 13 20  1  0  0  0  0
 13 21  1  0  0  0  0
 13 22  1  0  0  0  0
M  END
>  <DRUGBANK_ID>
DB12337

>  <COMMON_NAME>
N-acetylsulfanilyl chloride

>  <CAS_NUMBER>
121-60-8

>  <UNII>
LIX4M9AIVM

>  <SYNONYMS>
4-(acetylamino)benzenesulfonyl chloride; ASC

$$$$
