420
 OpenBabel10282417072D

 40 42  0  0  0  0  0  0  0  0999 V2000
    3.6958   -2.3626    0.0000 S   0  0  0  0  0  0  0  0  0  0  0  0
    3.6958   -0.7784    0.0000 N   0  0  0  0  0  0  0  0  0  0  0  0
    5.0678    1.5979    0.0000 N   0  0  0  0  0  0  0  0  0  0  0  0
    3.6958    0.0137    0.0000 C   0  0  0  0  0  0  0  0  0  0  0  0
    4.3819    0.4097    0.0000 C   0  0  0  0  0  0  0  0  0  0  0  0
    4.3819    1.2018    0.0000 C   0  0  0  0  0  0  0  0  0  0  0  0
    4.3819   -1.1744    0.0000 C   0  0  0  0  0  0  0  0  0  0  0  0
    3.0099   -1.1744    0.0000 C   0  0  0  0  0  0  0  0  0  0  0  0
    4.3819   -1.9665    0.0000 C   0  0  0  0  0  0  0  0  0  0  0  0
    3.0099   -1.9665    0.0000 C   0  0  0  0  0  0  0  0  0  0  0  0
    5.0899   -0.7508    0.0000 C   0  0  0  0  0  0  0  0  0  0  0  0
    2.3019   -0.7508    0.0000 C   0  0  0  0  0  0  0  0  0  0  0  0
    5.0899   -2.3899    0.0000 C   0  0  0  0  0  0  0  0  0  0  0  0
    2.3019   -2.3899    0.0000 C   0  0  0  0  0  0  0  0  0  0  0  0
    5.7537    1.2018    0.0000 C   0  0  0  0  0  0  0  0  0  0  0  0
    5.0678    2.3899    0.0000 C   0  0  0  0  0  0  0  0  0  0  0  0
    5.8076   -1.1579    0.0000 C   0  0  0  0  0  0  0  0  0  0  0  0
    1.5842   -1.1579    0.0000 C   0  0  0  0  0  0  0  0  0  0  0  0
    5.8076   -1.9830    0.0000 C   0  0  0  0  0  0  0  0  0  0  0  0
    1.5842   -1.9830    0.0000 C   0  0  0  0  0  0  0  0  0  0  0  0
    2.7692    0.5488    0.0000 H   0  0  0  0  0  0  0  0  0  0  0  0
    3.6959    1.0837    0.0000 H   0  0  0  0  0  0  0  0  0  0  0  0
    5.3085   -0.1254    0.0000 H   0  0  0  0  0  0  0  0  0  0  0  0
    5.3086    0.9447    0.0000 H   0  0  0  0  0  0  0  0  0  0  0  0
    3.4552    1.7368    0.0000 H   0  0  0  0  0  0  0  0  0  0  0  0
    3.4553    0.6668    0.0000 H   0  0  0  0  0  0  0  0  0  0  0  0
    5.0779    0.2811    0.0000 H   0  0  0  0  0  0  0  0  0  0  0  0
    2.3139    0.2811    0.0000 H   0  0  0  0  0  0  0  0  0  0  0  0
    5.0779   -3.4218    0.0000 H   0  0  0  0  0  0  0  0  0  0  0  0
    2.3139   -3.4218    0.0000 H   0  0  0  0  0  0  0  0  0  0  0  0
    5.7536    0.1318    0.0000 H   0  0  0  0  0  0  0  0  0  0  0  0
    6.6804    1.7367    0.0000 H   0  0  0  0  0  0  0  0  0  0  0  0
    6.6803    0.6667    0.0000 H   0  0  0  0  0  0  0  0  0  0  0  0
    5.9944    2.9249    0.0000 H   0  0  0  0  0  0  0  0  0  0  0  0
    4.1412    2.9249    0.0000 H   0  0  0  0  0  0  0  0  0  0  0  0
    5.0678    3.4599    0.0000 H   0  0  0  0  0  0  0  0  0  0  0  0
    6.6994   -0.6385    0.0000 H   0  0  0  0  0  0  0  0  0  0  0  0
    0.6924   -0.6385    0.0000 H   0  0  0  0  0  0  0  0  0  0  0  0
    6.6993   -2.5025    0.0000 H   0  0  0  0  0  0  0  0  0  0  0  0
    0.6925   -2.5025    0.0000 H   0  0  0  0  0  0  0  0  0  0  0  0
  1  9  1  0  0  0  0
  1 10  1  0  0  0  0
  2  4  1  0  0  0  0
  2  7  1  0  0  0  0
  2  8  1  0  0  0  0
  3  6  1  0  0  0  0
  3 15  1  0  0  0  0
  3 16  1  0  0  0  0
  4  5  1  0  0  0  0
  4 21  1  0  0  0  0
  4 22  1  0  0  0  0
  5  6  1  0  0  0  0
  5 23  1  0  0  0  0
  5 24  1  0  0  0  0
  6 25  1  0  0  0  0
  6 26  1  0  0  0  0
  7  9  1  0  0  0  0
  7 11  2  0  0  0  0
  8 10  1  0  0  0  0
  8 12  2  0  0  0  0
  9 13  2  0  0  0  0
 10 14  2  0  0  0  0
 11 17  1  0  0  0  0
 11 27  1  0  0  0  0
 12 18  1  0  0  0  0
 12 28  1  0  0  0  0
 13 19  1  0  0  0  0
 13 29  1  0  0  0  0
 14 20  1  0  0  0  0
 14 30  1  0  0  0  0
 15 31  1  0  0  0  0
 15 32  1  0  0  0  0
 15 33  1  0  0  0  0
 16 34  1  0  0  0  0
 16 35  1  0  0  0  0
 16 36  1  0  0  0  0
 17 19  2  0  0  0  0
 17 37  1  0  0  0  0
 18 20  2  0  0  0  0
 18 38  1  0  0  0  0
 19 39  1  0  0  0  0
 20 40  1  0  0  0  0
M  END
>  <DRUGBANK_ID>
DB00420

>  <SECONDARY_ACCESSION_NUMBERS>
APRD00358

>  <COMMON_NAME>
Promazine

>  <CAS_NUMBER>
58-40-2

>  <UNII>
O9M39HTM5W

>  <SYNONYMS>
10-(3-(Dimethylamino)propyl)phenothiazine; N-(3-Dimethylaminopropyl)phenothiazine; N-Dimethylamino-1-methylethyl thiodiphenylamine; N,N-dimethyl-3-(10H-phenothiazin-10-yl)-propan-1-amine; Promazin; Promazina; Promazine; Promazinum

$$$$
