299
 OpenBabel10282417072D

 33 34  0  0  0  0  0  0  0  0999 V2000
    6.0424    2.5350    0.0000 O   0  0  0  0  0  0  0  0  0  0  0  0
    7.4006    2.0911    0.0000 O   0  0  0  0  0  0  0  0  0  0  0  0
    3.5220   -2.9157    0.0000 O   0  0  0  0  0  0  0  0  0  0  0  0
    5.0171   -0.6018    0.0000 N   0  0  0  0  0  0  0  0  0  0  0  0
    3.5220   -0.4406    0.0000 N   0  0  0  0  0  0  0  0  0  0  0  0
    5.0171   -1.9296    0.0000 N   0  0  0  0  0  0  0  0  0  0  0  0
    2.8075   -1.6782    0.0000 N   0  0  0  0  0  0  0  0  0  0  0  0
    2.0930   -0.4406    0.0000 N   0  0  0  0  0  0  0  0  0  0  0  0
    6.3370    1.1368    0.0000 C   0  0  0  0  0  0  0  0  0  0  0  0
    6.0807    0.3525    0.0000 C   0  0  0  0  0  0  0  0  0  0  0  0
    5.2734    0.1824    0.0000 C   0  0  0  0  0  0  0  0  0  0  0  0
    5.7860    1.7509    0.0000 C   0  0  0  0  0  0  0  0  0  0  0  0
    7.1443    1.3069    0.0000 C   0  0  0  0  0  0  0  0  0  0  0  0
    4.2365   -0.8532    0.0000 C   0  0  0  0  0  0  0  0  0  0  0  0
    4.2365   -1.6782    0.0000 C   0  0  0  0  0  0  0  0  0  0  0  0
    5.4986   -1.2657    0.0000 C   0  0  0  0  0  0  0  0  0  0  0  0
    3.5220   -2.0907    0.0000 C   0  0  0  0  0  0  0  0  0  0  0  0
    2.8075   -0.8532    0.0000 C   0  0  0  0  0  0  0  0  0  0  0  0
    6.9916    2.7349    0.0000 H   0  0  0  0  0  0  0  0  0  0  0  0
    8.3498    2.2911    0.0000 H   0  0  0  0  0  0  0  0  0  0  0  0
    3.5220    0.5439    0.0000 H   0  0  0  0  0  0  0  0  0  0  0  0
    2.0931    0.5439    0.0000 H   0  0  0  0  0  0  0  0  0  0  0  0
    1.2404   -0.9328    0.0000 H   0  0  0  0  0  0  0  0  0  0  0  0
    6.6694    2.1538    0.0000 H   0  0  0  0  0  0  0  0  0  0  0  0
    6.7953   -0.4439    0.0000 H   0  0  0  0  0  0  0  0  0  0  0  0
    5.7483   -0.6645    0.0000 H   0  0  0  0  0  0  0  0  0  0  0  0
    4.5588    0.9788    0.0000 H   0  0  0  0  0  0  0  0  0  0  0  0
    5.6058    1.1994    0.0000 H   0  0  0  0  0  0  0  0  0  0  0  0
    4.7390    1.5303    0.0000 H   0  0  0  0  0  0  0  0  0  0  0  0
    5.4535    0.7339    0.0000 H   0  0  0  0  0  0  0  0  0  0  0  0
    7.8589    0.5105    0.0000 H   0  0  0  0  0  0  0  0  0  0  0  0
    6.8119    0.2899    0.0000 H   0  0  0  0  0  0  0  0  0  0  0  0
    6.5306   -1.2657    0.0000 H   0  0  0  0  0  0  0  0  0  0  0  0
  1 12  1  0  0  0  0
  1 19  1  0  0  0  0
  2 13  1  0  0  0  0
  2 20  1  0  0  0  0
  3 17  2  0  0  0  0
  4 11  1  0  0  0  0
  4 14  1  0  0  0  0
  4 16  1  0  0  0  0
  5 14  1  0  0  0  0
  5 18  1  0  0  0  0
  5 21  1  0  0  0  0
  6 15  1  0  0  0  0
  6 16  2  0  0  0  0
  7 17  1  0  0  0  0
  7 18  2  0  0  0  0
  8 18  1  0  0  0  0
  8 22  1  0  0  0  0
  8 23  1  0  0  0  0
  9 10  1  0  0  0  0
  9 12  1  0  0  0  0
  9 13  1  0  0  0  0
  9 24  1  0  0  0  0
 10 11  1  0  0  0  0
 10 25  1  0  0  0  0
 10 26  1  0  0  0  0
 11 27  1  0  0  0  0
 11 28  1  0  0  0  0
 12 29  1  0  0  0  0
 12 30  1  0  0  0  0
 13 31  1  0  0  0  0
 13 32  1  0  0  0  0
 14 15  2  0  0  0  0
 15 17  1  0  0  0  0
 16 33  1  0  0  0  0
M  END
>  <DRUGBANK_ID>
DB00299

>  <SECONDARY_ACCESSION_NUMBERS>
APRD00041; DB01730

>  <COMMON_NAME>
Penciclovir

>  <CAS_NUMBER>
39809-25-1

>  <UNII>
359HUE8FJC

>  <SYNONYMS>
9-(4-hydroxy-3-(hydroxymethyl)butyl)guanine; 9-(4-hydroxy-3-hydroxymethylbut-1-yl)-guanine; 9-[2-hydroxy-1-(hydroxymethyl)-ethoxymethyl]guanine; 9-[4-hydroxy-3-(hydroxymethyl)but-1-yl]guanine; PCV; PE2; Penciclovir; Penciclovirum

$$$$
