
 OpenBabel10282417072D

 47 47  0  0  0  0  0  0  0  0999 V2000
   -4.2868    6.6000    0.0000 C   0  0  0  0  0  0  0  0  0  0  0  0
   -0.7145    7.8375    0.0000 C   0  0  0  0  0  0  0  0  0  0  0  0
    5.0013    8.6625    0.0000 C   0  0  0  0  0  0  0  0  0  0  0  0
   -3.5724    6.1875    0.0000 C   0  0  0  0  0  0  0  0  0  0  0  0
   -1.4289    7.4250    0.0000 C   0  0  0  0  0  0  0  0  0  0  0  0
   -2.8579    6.6000    0.0000 C   0  0  0  0  0  0  0  0  0  0  0  0
   -2.1434    6.1875    0.0000 C   0  0  0  0  0  0  0  0  0  0  0  0
    3.5724    6.1875    0.0000 C   0  0  0  0  0  0  0  0  0  0  0  0
    2.8579    7.4250    0.0000 C   0  0  0  0  0  0  0  0  0  0  0  0
    2.1434    6.1875    0.0000 C   0  0  0  0  0  0  0  0  0  0  0  0
    4.2868    6.6000    0.0000 C   0  0  0  0  0  0  0  0  0  0  0  0
    3.5724    7.8375    0.0000 C   0  0  0  0  0  0  0  0  0  0  0  0
    1.4289    6.6000    0.0000 C   0  0  0  0  0  0  0  0  0  0  0  0
   -0.7145    6.1875    0.0000 C   0  0  0  0  0  0  0  0  0  0  0  0
   -1.4289    6.6000    0.0000 C   0  0  3  0  0  0  0  0  0  0  0  0
    2.8579    6.6000    0.0000 C   0  0  0  0  0  0  0  0  0  0  0  0
    4.2868    7.4250    0.0000 C   0  0  0  0  0  0  0  0  0  0  0  0
    0.7145    6.1875    0.0000 C   0  0  0  0  0  0  0  0  0  0  0  0
    0.7145    5.3625    0.0000 O   0  0  0  0  0  0  0  0  0  0  0  0
    5.0013    7.8375    0.0000 O   0  0  0  0  0  0  0  0  0  0  0  0
    0.0000    6.6000    0.0000 O   0  0  0  0  0  0  0  0  0  0  0  0
    2.1434    5.3625    0.0000 H   0  0  0  0  0  0  0  0  0  0  0  0
    1.4289    7.4250    0.0000 H   0  0  0  0  0  0  0  0  0  0  0  0
   -4.2868    7.6700    0.0000 H   0  0  0  0  0  0  0  0  0  0  0  0
   -5.2135    6.0650    0.0000 H   0  0  0  0  0  0  0  0  0  0  0  0
   -5.2134    7.1350    0.0000 H   0  0  0  0  0  0  0  0  0  0  0  0
    0.2122    7.3025    0.0000 H   0  0  0  0  0  0  0  0  0  0  0  0
   -0.7145    8.9075    0.0000 H   0  0  0  0  0  0  0  0  0  0  0  0
    0.2121    8.3725    0.0000 H   0  0  0  0  0  0  0  0  0  0  0  0
    5.9279    9.1975    0.0000 H   0  0  0  0  0  0  0  0  0  0  0  0
    4.0747    9.1975    0.0000 H   0  0  0  0  0  0  0  0  0  0  0  0
    5.0013    9.7325    0.0000 H   0  0  0  0  0  0  0  0  0  0  0  0
   -3.5724    5.1175    0.0000 H   0  0  0  0  0  0  0  0  0  0  0  0
   -2.6458    5.6525    0.0000 H   0  0  0  0  0  0  0  0  0  0  0  0
   -2.3556    7.9600    0.0000 H   0  0  0  0  0  0  0  0  0  0  0  0
   -2.3555    6.8900    0.0000 H   0  0  0  0  0  0  0  0  0  0  0  0
   -2.8579    7.6700    0.0000 H   0  0  0  0  0  0  0  0  0  0  0  0
   -1.9313    7.1350    0.0000 H   0  0  0  0  0  0  0  0  0  0  0  0
   -2.1434    5.1175    0.0000 H   0  0  0  0  0  0  0  0  0  0  0  0
   -1.2168    5.6525    0.0000 H   0  0  0  0  0  0  0  0  0  0  0  0
    3.5724    5.1555    0.0000 H   0  0  0  0  0  0  0  0  0  0  0  0
    1.9642    7.9410    0.0000 H   0  0  0  0  0  0  0  0  0  0  0  0
    5.1805    6.0840    0.0000 H   0  0  0  0  0  0  0  0  0  0  0  0
    3.5724    8.8695    0.0000 H   0  0  0  0  0  0  0  0  0  0  0  0
   -0.7145    5.1175    0.0000 H   0  0  0  0  0  0  0  0  0  0  0  0
    0.2121    5.6525    0.0000 H   0  0  0  0  0  0  0  0  0  0  0  0
   -2.3555    7.1350    0.0000 H   0  0  0  0  0  0  0  0  0  0  0  0
  1 24  1  0  0  0  0
  1 25  1  0  0  0  0
  1 26  1  0  0  0  0
  2 27  1  0  0  0  0
  2 28  1  0  0  0  0
  2 29  1  0  0  0  0
  3 30  1  0  0  0  0
  3 31  1  0  0  0  0
  3 32  1  0  0  0  0
  4  1  1  0  0  0  0
  4 33  1  0  0  0  0
  4 34  1  0  0  0  0
  5  2  1  0  0  0  0
  5 35  1  0  0  0  0
  5 36  1  0  0  0  0
  6  4  1  0  0  0  0
  6 37  1  0  0  0  0
  6 38  1  0  0  0  0
  7  6  1  0  0  0  0
  7 39  1  0  0  0  0
  7 40  1  0  0  0  0
  8 41  1  0  0  0  0
  9 42  1  0  0  0  0
 11  8  1  0  0  0  0
 11 43  1  0  0  0  0
 12  9  2  0  0  0  0
 12 44  1  0  0  0  0
 13 10  2  0  0  0  0
 14 45  1  0  0  0  0
 14 46  1  0  0  0  0
 15  5  1  0  0  0  0
 15  7  1  0  0  0  0
 15 14  1  0  0  0  0
 15 47  1  0  0  0  0
 16  8  2  0  0  0  0
 16  9  1  0  0  0  0
 16 10  1  0  0  0  0
 17 11  2  0  0  0  0
 17 12  1  0  0  0  0
 18 13  1  0  0  0  0
 19 18  2  0  0  0  0
 20  3  1  0  0  0  0
 20 17  1  0  0  0  0
 21 14  1  0  0  0  0
 21 18  1  0  0  0  0
 22 10  1  0  0  0  0
 23 13  1  0  0  0  0
M  END
>  <DRUGBANK_ID>
DB09496

>  <COMMON_NAME>
Octinoxate

>  <CAS_NUMBER>
5466-77-3

>  <UNII>
4Y5P7MUD51

>  <SYNONYMS>
ethylhexyl methoxycinnamate; ethylhexyl p-methoxycinnamate; Octinoxate; octyl methoxycinnamate; parsol

$$$$
