
 OpenBabel10282417072D

 53 56  0  0  1  0  0  0  0  0999 V2000
    3.7637    1.8273    0.0000 O   0  0  0  0  0  0  0  0  0  0  0  0
    6.2785    0.3490    0.0000 O   0  0  0  0  0  0  0  0  0  0  0  0
    2.5060   -0.3702    0.0000 O   0  0  0  0  0  0  0  0  0  0  0  0
    3.7408   -1.0897    0.0000 O   0  0  0  0  0  0  0  0  0  0  0  0
    3.7495   -2.5500    0.0000 O   0  0  0  0  0  0  0  0  0  0  0  0
    2.4748    1.0898    0.0000 C   0  0  1  0  0  0  0  0  0  0  0  0
    2.9102    0.3490    0.0000 C   0  0  1  0  0  0  0  0  0  0  0  0
    2.9045    1.8339    0.0000 C   0  0  1  0  0  0  0  0  0  0  0  0
    3.7694    0.3622    0.0000 C   0  0  0  0  0  0  0  0  0  0  0  0
    4.1819    1.0766    0.0000 C   0  0  0  0  0  0  0  0  0  0  0  0
    5.0068    1.0766    0.0000 C   0  0  0  0  0  0  0  0  0  0  0  0
    4.1819   -0.3523    0.0000 C   0  0  0  0  0  0  0  0  0  0  0  0
    5.0068   -0.3523    0.0000 C   0  0  0  0  0  0  0  0  0  0  0  0
    5.4193    0.3622    0.0000 C   0  0  0  0  0  0  0  0  0  0  0  0
    1.6499    1.0866    0.0000 C   0  0  0  0  0  0  0  0  0  0  0  0
    6.7138    1.0898    0.0000 C   0  0  0  0  0  0  0  0  0  0  0  0
    2.4947    2.5500    0.0000 C   0  0  0  0  0  0  0  0  0  0  0  0
    5.4479   -1.0897    0.0000 C   0  0  0  0  0  0  0  0  0  0  0  0
    5.4249    1.8273    0.0000 C   0  0  0  0  0  0  0  0  0  0  0  0
    6.2842    1.8339    0.0000 C   0  0  0  0  0  0  0  0  0  0  0  0
    6.2727   -1.0801    0.0000 C   0  0  0  0  0  0  0  0  0  0  0  0
    7.4299    1.4995    0.0000 C   0  0  0  0  0  0  0  0  0  0  0  0
    7.4267    0.6746    0.0000 C   0  0  0  0  0  0  0  0  0  0  0  0
    5.0240   -1.8372    0.0000 C   0  0  0  0  0  0  0  0  0  0  0  0
    4.1647   -1.8372    0.0000 C   0  0  0  0  0  0  0  0  0  0  0  0
    6.6935   -1.7897    0.0000 C   0  0  0  0  0  0  0  0  0  0  0  0
    7.5184   -1.7802    0.0000 C   0  0  0  0  0  0  0  0  0  0  0  0
    1.5361   -0.3814    0.0000 H   0  0  0  0  0  0  0  0  0  0  0  0
    1.9452    0.1601    0.0000 H   0  0  0  0  0  0  0  0  0  0  0  0
    1.8403    0.3387    0.0000 H   0  0  0  0  0  0  0  0  0  0  0  0
    3.4448    2.7575    0.0000 H   0  0  0  0  0  0  0  0  0  0  0  0
    1.1113    2.0112    0.0000 H   0  0  0  0  0  0  0  0  0  0  0  0
    1.1185    0.1579    0.0000 H   0  0  0  0  0  0  0  0  0  0  0  0
    0.5799    1.0824    0.0000 H   0  0  0  0  0  0  0  0  0  0  0  0
    3.0332    3.4746    0.0000 H   0  0  0  0  0  0  0  0  0  0  0  0
    1.4247    2.5541    0.0000 H   0  0  0  0  0  0  0  0  0  0  0  0
    1.9632    3.4787    0.0000 H   0  0  0  0  0  0  0  0  0  0  0  0
    4.8986    2.7150    0.0000 H   0  0  0  0  0  0  0  0  0  0  0  0
    6.7968    2.7296    0.0000 H   0  0  0  0  0  0  0  0  0  0  0  0
    6.7969   -0.1473    0.0000 H   0  0  0  0  0  0  0  0  0  0  0  0
    7.3426   -1.0676    0.0000 H   0  0  0  0  0  0  0  0  0  0  0  0
    8.3544    0.9609    0.0000 H   0  0  0  0  0  0  0  0  0  0  0  0
    7.4341    2.5695    0.0000 H   0  0  0  0  0  0  0  0  0  0  0  0
    8.3586    2.0309    0.0000 H   0  0  0  0  0  0  0  0  0  0  0  0
    7.4226   -0.3954    0.0000 H   0  0  0  0  0  0  0  0  0  0  0  0
    8.3554    1.2061    0.0000 H   0  0  0  0  0  0  0  0  0  0  0  0
    8.3513    0.1361    0.0000 H   0  0  0  0  0  0  0  0  0  0  0  0
    5.5435   -2.7289    0.0000 H   0  0  0  0  0  0  0  0  0  0  0  0
    6.1693   -2.7225    0.0000 H   0  0  0  0  0  0  0  0  0  0  0  0
    7.2392   -2.7101    0.0000 H   0  0  0  0  0  0  0  0  0  0  0  0
    8.0640   -2.7006    0.0000 H   0  0  0  0  0  0  0  0  0  0  0  0
    8.0427   -0.8475    0.0000 H   0  0  0  0  0  0  0  0  0  0  0  0
    8.5883   -1.7679    0.0000 H   0  0  0  0  0  0  0  0  0  0  0  0
  1  8  1  0  0  0  0
  1 10  1  0  0  0  0
  2 14  1  0  0  0  0
  2 16  1  0  0  0  0
  3 28  1  0  0  0  0
  4 12  1  0  0  0  0
  4 25  1  0  0  0  0
  5 25  2  0  0  0  0
  6  7  1  0  0  0  0
  6  8  1  0  0  0  0
  6 15  1  0  0  0  0
  6 29  1  1  0  0  0
  7  3  1  0  0  0  0
  7  9  1  0  0  0  0
  7 30  1  6  0  0  0
  8 17  1  0  0  0  0
  8 31  1  6  0  0  0
  9 10  2  0  0  0  0
  9 12  1  0  0  0  0
 10 11  1  0  0  0  0
 11 14  2  0  0  0  0
 11 19  1  0  0  0  0
 12 13  2  0  0  0  0
 13 14  1  0  0  0  0
 13 18  1  0  0  0  0
 15 32  1  0  0  0  0
 15 33  1  0  0  0  0
 15 34  1  0  0  0  0
 16 20  1  0  0  0  0
 16 22  1  0  0  0  0
 16 23  1  0  0  0  0
 17 35  1  0  0  0  0
 17 36  1  0  0  0  0
 17 37  1  0  0  0  0
 18 21  1  0  0  0  0
 18 24  2  0  0  0  0
 19 20  2  0  0  0  0
 19 38  1  0  0  0  0
 20 39  1  0  0  0  0
 21 26  1  0  0  0  0
 21 40  1  0  0  0  0
 21 41  1  0  0  0  0
 22 42  1  0  0  0  0
 22 43  1  0  0  0  0
 22 44  1  0  0  0  0
 23 45  1  0  0  0  0
 23 46  1  0  0  0  0
 23 47  1  0  0  0  0
 24 25  1  0  0  0  0
 24 48  1  0  0  0  0
 26 27  1  0  0  0  0
 26 49  1  0  0  0  0
 26 50  1  0  0  0  0
 27 51  1  0  0  0  0
 27 52  1  0  0  0  0
 27 53  1  0  0  0  0
M  END
>  <DRUGBANK_ID>
DB04886

>  <COMMON_NAME>
Calanolide A

>  <CAS_NUMBER>
142632-32-4

>  <UNII>
S5A9TQN46W

>  <SYNONYMS>
(+)-calanolide A

$$$$
