
 OpenBabel10282417072D

 40 41  0  0  0  0  0  0  0  0999 V2000
    1.6500   -0.6188    0.0000 Cl  0  0  0  0  0  0  0  0  0  0  0  0
    6.6515    1.4438    0.0000 S   0  0  0  0  0  0  0  0  0  0  0  0
    4.5080   -2.2688    0.0000 S   0  0  0  0  0  0  0  0  0  0  0  0
    3.7935    1.4438    0.0000 N   0  0  0  0  0  0  0  0  0  0  0  0
    3.0791    0.2063    0.0000 N   0  0  0  0  0  0  0  0  0  0  0  0
    4.5080    0.2063    0.0000 N   0  0  0  0  0  0  0  0  0  0  0  0
    4.5080    1.8563    0.0000 C   0  0  0  0  0  0  0  0  0  0  0  0
    5.2224    1.4438    0.0000 C   0  0  0  0  0  0  0  0  0  0  0  0
    3.7935    0.6188    0.0000 C   0  0  0  0  0  0  0  0  0  0  0  0
    4.5080    2.6813    0.0000 C   0  0  0  0  0  0  0  0  0  0  0  0
    3.0791    1.8563    0.0000 C   0  0  0  0  0  0  0  0  0  0  0  0
    5.9370    1.8563    0.0000 C   0  0  0  0  0  0  0  0  0  0  0  0
    3.0791   -0.6188    0.0000 C   0  0  0  0  0  0  0  0  0  0  0  0
    5.2224    3.0938    0.0000 C   0  0  0  0  0  0  0  0  0  0  0  0
    5.9370    2.6813    0.0000 C   0  0  0  0  0  0  0  0  0  0  0  0
    3.7935   -1.0313    0.0000 C   0  0  0  0  0  0  0  0  0  0  0  0
    2.3645   -1.0313    0.0000 C   0  0  0  0  0  0  0  0  0  0  0  0
    3.7935   -1.8563    0.0000 C   0  0  0  0  0  0  0  0  0  0  0  0
    2.3645   -1.8563    0.0000 C   0  0  0  0  0  0  0  0  0  0  0  0
    3.0791   -2.2688    0.0000 C   0  0  0  0  0  0  0  0  0  0  0  0
    7.3659    1.8563    0.0000 C   0  0  0  0  0  0  0  0  0  0  0  0
    4.5080   -3.0938    0.0000 C   0  0  0  0  0  0  0  0  0  0  0  0
    4.5080   -0.7782    0.0000 H   0  0  0  0  0  0  0  0  0  0  0  0
    5.3606    0.6986    0.0000 H   0  0  0  0  0  0  0  0  0  0  0  0
    5.2223    0.4118    0.0000 H   0  0  0  0  0  0  0  0  0  0  0  0
    3.6143    3.1973    0.0000 H   0  0  0  0  0  0  0  0  0  0  0  0
    3.0791    2.9263    0.0000 H   0  0  0  0  0  0  0  0  0  0  0  0
    2.1524    1.3213    0.0000 H   0  0  0  0  0  0  0  0  0  0  0  0
    2.1525    2.3913    0.0000 H   0  0  0  0  0  0  0  0  0  0  0  0
    5.2223    4.1258    0.0000 H   0  0  0  0  0  0  0  0  0  0  0  0
    6.8307    3.1973    0.0000 H   0  0  0  0  0  0  0  0  0  0  0  0
    4.6872   -0.5153    0.0000 H   0  0  0  0  0  0  0  0  0  0  0  0
    1.4708   -2.3723    0.0000 H   0  0  0  0  0  0  0  0  0  0  0  0
    3.0792   -3.3008    0.0000 H   0  0  0  0  0  0  0  0  0  0  0  0
    8.2926    1.3213    0.0000 H   0  0  0  0  0  0  0  0  0  0  0  0
    7.3659    2.9263    0.0000 H   0  0  0  0  0  0  0  0  0  0  0  0
    8.2925    2.3913    0.0000 H   0  0  0  0  0  0  0  0  0  0  0  0
    3.5814   -3.6288    0.0000 H   0  0  0  0  0  0  0  0  0  0  0  0
    5.4346   -3.6288    0.0000 H   0  0  0  0  0  0  0  0  0  0  0  0
    4.5080   -4.1638    0.0000 H   0  0  0  0  0  0  0  0  0  0  0  0
  1 17  1  0  0  0  0
  2 12  1  0  0  0  0
  2 21  1  0  0  0  0
  3 18  1  0  0  0  0
  3 22  1  0  0  0  0
  4  7  1  0  0  0  0
  4  9  1  0  0  0  0
  4 11  1  0  0  0  0
  5  9  2  0  0  0  0
  5 13  1  0  0  0  0
  6  9  1  0  0  0  0
  6 23  1  0  0  0  0
  6 24  1  0  0  0  0
  7  8  2  0  0  0  0
  7 10  1  0  0  0  0
  8 12  1  0  0  0  0
  8 25  1  0  0  0  0
 10 14  2  0  0  0  0
 10 26  1  0  0  0  0
 11 27  1  0  0  0  0
 11 28  1  0  0  0  0
 11 29  1  0  0  0  0
 12 15  2  0  0  0  0
 13 16  1  0  0  0  0
 13 17  2  0  0  0  0
 14 15  1  0  0  0  0
 14 30  1  0  0  0  0
 15 31  1  0  0  0  0
 16 18  2  0  0  0  0
 16 32  1  0  0  0  0
 17 19  1  0  0  0  0
 18 20  1  0  0  0  0
 19 20  2  0  0  0  0
 19 33  1  0  0  0  0
 20 34  1  0  0  0  0
 21 35  1  0  0  0  0
 21 36  1  0  0  0  0
 21 37  1  0  0  0  0
 22 38  1  0  0  0  0
 22 39  1  0  0  0  0
 22 40  1  0  0  0  0
M  END
>  <DRUGBANK_ID>
DB05824

>  <COMMON_NAME>
CNS-5161

>  <UNII>
58S83M36V6

$$$$
