
 OpenBabel10282417072D

 73 76  0  0  1  0  0  0  0  0999 V2000
   10.0026   -2.4750    0.0000 C   0  0  0  0  0  0  0  0  0  0  0  0
    9.2881   -2.8875    0.0000 C   0  0  0  0  0  0  0  0  0  0  0  0
    9.2881   -3.7125    0.0000 O   0  0  0  0  0  0  0  0  0  0  0  0
    8.5737   -2.4750    0.0000 O   0  0  0  0  0  0  0  0  0  0  0  0
    8.5737   -1.6500    0.0000 C   0  0  2  0  0  0  0  0  0  0  0  0
    9.2881   -1.2375    0.0000 C   0  0  0  0  0  0  0  0  0  0  0  0
    9.2881   -0.4125    0.0000 C   0  0  1  0  0  0  0  0  0  0  0  0
    8.5737    0.0000    0.0000 C   0  0  1  0  0  0  0  0  0  0  0  0
    8.7452    0.8070    0.0000 C   0  0  0  0  0  0  0  0  0  0  0  0
    9.5657    0.8932    0.0000 C   0  0  0  0  0  0  0  0  0  0  0  0
    9.9012    0.1395    0.0000 C   0  0  0  0  0  0  0  0  0  0  0  0
   10.7082   -0.0320    0.0000 O   0  0  0  0  0  0  0  0  0  0  0  0
    7.8592   -0.4125    0.0000 C   0  0  0  0  0  0  0  0  0  0  0  0
    7.8592   -1.2375    0.0000 C   0  0  0  0  0  0  0  0  0  0  0  0
    7.1447   -1.6500    0.0000 C   0  0  1  0  0  0  0  0  0  0  0  0
    7.1447   -2.4750    0.0000 C   0  0  2  0  0  0  0  0  0  0  0  0
    6.4302   -2.8875    0.0000 O   0  0  0  0  0  0  0  0  0  0  0  0
    5.7158   -2.4750    0.0000 C   0  0  0  0  0  0  0  0  0  0  0  0
    5.0013   -2.8875    0.0000 O   0  0  0  0  0  0  0  0  0  0  0  0
    5.7158   -1.6500    0.0000 C   0  0  0  0  0  0  0  0  0  0  0  0
    5.0013   -1.2375    0.0000 C   0  0  0  0  0  0  0  0  0  0  0  0
    5.0013   -0.4125    0.0000 N   0  0  0  0  0  0  0  0  0  0  0  0
    4.2868    0.0000    0.0000 C   0  0  0  0  0  0  0  0  0  0  0  0
    4.2868    0.8250    0.0000 C   0  0  0  0  0  0  0  0  0  0  0  0
    3.5724    1.2375    0.0000 C   0  0  0  0  0  0  0  0  0  0  0  0
    5.7158    0.0000    0.0000 C   0  0  0  0  0  0  0  0  0  0  0  0
    5.7158    0.8250    0.0000 C   0  0  0  0  0  0  0  0  0  0  0  0
    5.0013    1.2375    0.0000 C   0  0  0  0  0  0  0  0  0  0  0  0
    6.4302   -1.2375    0.0000 C   0  0  0  0  0  0  0  0  0  0  0  0
    6.4302   -0.4125    0.0000 C   0  0  0  0  0  0  0  0  0  0  0  0
    7.1447    0.0000    0.0000 C   0  0  0  0  0  0  0  0  0  0  0  0
    7.1447    0.8250    0.0000 O   0  0  0  0  0  0  0  0  0  0  0  0
    6.0947    0.3412    0.0000 O   0  0  0  0  0  0  0  0  0  0  0  0
    7.8592   -2.8875    0.0000 C   0  0  0  0  0  0  0  0  0  0  0  0
    7.8592   -3.7125    0.0000 O   0  0  0  0  0  0  0  0  0  0  0  0
    7.1447   -4.1250    0.0000 C   0  0  0  0  0  0  0  0  0  0  0  0
    7.8592   -2.0625    0.0000 C   0  0  0  0  0  0  0  0  0  0  0  0
   10.0418   -0.7481    0.0000 C   0  0  0  0  0  0  0  0  0  0  0  0
   10.9292   -3.0100    0.0000 H   0  0  0  0  0  0  0  0  0  0  0  0
   10.0026   -1.4050    0.0000 H   0  0  0  0  0  0  0  0  0  0  0  0
   10.9293   -1.9400    0.0000 H   0  0  0  0  0  0  0  0  0  0  0  0
    9.5004   -2.1850    0.0000 H   0  0  0  0  0  0  0  0  0  0  0  0
   10.2148   -1.7725    0.0000 H   0  0  0  0  0  0  0  0  0  0  0  0
   10.2147   -0.7025    0.0000 H   0  0  0  0  0  0  0  0  0  0  0  0
    9.5512    0.4352    0.0000 H   0  0  0  0  0  0  0  0  0  0  0  0
    8.0292    1.6022    0.0000 H   0  0  0  0  0  0  0  0  0  0  0  0
    9.1287    1.8059    0.0000 H   0  0  0  0  0  0  0  0  0  0  0  0
   10.1008    1.8198    0.0000 H   0  0  0  0  0  0  0  0  0  0  0  0
   10.6342    0.8371    0.0000 H   0  0  0  0  0  0  0  0  0  0  0  0
    8.0713   -1.9400    0.0000 H   0  0  0  0  0  0  0  0  0  0  0  0
    4.1076   -1.7535    0.0000 H   0  0  0  0  0  0  0  0  0  0  0  0
    3.3602   -0.5350    0.0000 H   0  0  0  0  0  0  0  0  0  0  0  0
    3.3602    0.5350    0.0000 H   0  0  0  0  0  0  0  0  0  0  0  0
    5.1805    1.3410    0.0000 H   0  0  0  0  0  0  0  0  0  0  0  0
    3.5724    2.2695    0.0000 H   0  0  0  0  0  0  0  0  0  0  0  0
    2.6786    0.7215    0.0000 H   0  0  0  0  0  0  0  0  0  0  0  0
    6.6424   -0.5350    0.0000 H   0  0  0  0  0  0  0  0  0  0  0  0
    6.6424    0.5350    0.0000 H   0  0  0  0  0  0  0  0  0  0  0  0
    6.6095    1.3410    0.0000 H   0  0  0  0  0  0  0  0  0  0  0  0
    5.0013    2.2695    0.0000 H   0  0  0  0  0  0  0  0  0  0  0  0
    4.1076    0.7215    0.0000 H   0  0  0  0  0  0  0  0  0  0  0  0
    6.6455    1.0992    0.0000 H   0  0  0  0  0  0  0  0  0  0  0  0
    8.7858   -2.3525    0.0000 H   0  0  0  0  0  0  0  0  0  0  0  0
    8.7858   -3.4225    0.0000 H   0  0  0  0  0  0  0  0  0  0  0  0
    6.2181   -3.5900    0.0000 H   0  0  0  0  0  0  0  0  0  0  0  0
    7.1447   -5.1950    0.0000 H   0  0  0  0  0  0  0  0  0  0  0  0
    6.2180   -4.6600    0.0000 H   0  0  0  0  0  0  0  0  0  0  0  0
    7.8592   -3.1325    0.0000 H   0  0  0  0  0  0  0  0  0  0  0  0
    8.7858   -1.5275    0.0000 H   0  0  0  0  0  0  0  0  0  0  0  0
    8.7859   -2.5975    0.0000 H   0  0  0  0  0  0  0  0  0  0  0  0
   10.1536   -1.8122    0.0000 H   0  0  0  0  0  0  0  0  0  0  0  0
   10.9075   -0.1192    0.0000 H   0  0  0  0  0  0  0  0  0  0  0  0
   11.0193   -1.1833    0.0000 H   0  0  0  0  0  0  0  0  0  0  0  0
  1  2  1  0  0  0  0
  1 39  1  0  0  0  0
  1 40  1  0  0  0  0
  1 41  1  0  0  0  0
  2  3  2  0  0  0  0
  2  4  1  0  0  0  0
  5  4  1  0  0  0  0
  5  6  1  0  0  0  0
  5 14  1  0  0  0  0
  5 42  1  6  0  0  0
  6  7  1  0  0  0  0
  6 43  1  0  0  0  0
  6 44  1  0  0  0  0
  7  8  1  0  0  0  0
  7 11  1  0  0  0  0
  7 38  1  6  0  0  0
  8  9  1  0  0  0  0
  8 13  1  0  0  0  0
  8 45  1  1  0  0  0
  9 10  1  0  0  0  0
  9 46  1  0  0  0  0
  9 47  1  0  0  0  0
 10 11  1  0  0  0  0
 10 48  1  0  0  0  0
 10 49  1  0  0  0  0
 11 12  2  0  0  0  0
 13 14  2  0  0  0  0
 13 31  1  0  0  0  0
 14 15  1  0  0  0  0
 15 16  1  0  0  0  0
 15 29  1  0  0  0  0
 15 37  1  6  0  0  0
 16 17  1  0  0  0  0
 16 34  1  0  0  0  0
 16 50  1  6  0  0  0
 17 18  1  0  0  0  0
 18 19  2  0  0  0  0
 18 20  1  0  0  0  0
 20 21  2  0  0  0  0
 20 29  1  0  0  0  0
 21 22  1  0  0  0  0
 21 51  1  0  0  0  0
 22 23  1  0  0  0  0
 22 26  1  0  0  0  0
 23 24  1  0  0  0  0
 23 52  1  0  0  0  0
 23 53  1  0  0  0  0
 24 25  2  0  0  0  0
 24 54  1  0  0  0  0
 25 55  1  0  0  0  0
 25 56  1  0  0  0  0
 26 27  1  0  0  0  0
 26 57  1  0  0  0  0
 26 58  1  0  0  0  0
 27 28  2  0  0  0  0
 27 59  1  0  0  0  0
 28 60  1  0  0  0  0
 28 61  1  0  0  0  0
 29 30  2  0  0  0  0
 30 31  1  0  0  0  0
 30 33  1  0  0  0  0
 31 32  2  0  0  0  0
 33 62  1  0  0  0  0
 34 35  1  0  0  0  0
 34 63  1  0  0  0  0
 34 64  1  0  0  0  0
 35 36  1  0  0  0  0
 36 65  1  0  0  0  0
 36 66  1  0  0  0  0
 36 67  1  0  0  0  0
 37 68  1  0  0  0  0
 37 69  1  0  0  0  0
 37 70  1  0  0  0  0
 38 71  1  0  0  0  0
 38 72  1  0  0  0  0
 38 73  1  0  0  0  0
M  END
>  <DRUGBANK_ID>
DB12601

>  <COMMON_NAME>
Sonolisib

>  <CAS_NUMBER>
502632-66-8

>  <UNII>
987796874T

>  <SYNONYMS>
Sonolisib

$$$$
