
 OpenBabel10282417072D

 46 48  0  0  0  0  0  0  0  0999 V2000
   -0.3877    0.3875    0.0000 O   0  0  0  0  0  0  0  0  0  0  0  0
    0.3332   -0.0339    0.0000 C   0  0  1  0  0  0  0  0  0  0  0  0
    0.3332   -0.8636    0.0000 C   0  0  2  0  0  0  0  0  0  0  0  0
   -0.3742   -1.2898    0.0000 O   0  0  0  0  0  0  0  0  0  0  0  0
   -0.3742   -2.0696    0.0000 C   0  0  0  0  0  0  0  0  0  0  0  0
    0.3332   -2.4279    0.0000 C   0  0  0  0  0  0  0  0  0  0  0  0
    1.0405   -1.9927    0.0000 N   0  0  0  0  0  0  0  0  0  0  0  0
    1.0405   -1.2082    0.0000 C   0  0  0  0  0  0  0  0  0  0  0  0
    1.2726   -0.6934    0.0000 H   0  0  0  0  0  0  0  0  0  0  0  0
    1.0494    0.3875    0.0000 C   0  0  0  0  0  0  0  0  0  0  0  0
    1.0494    1.2128    0.0000 C   0  0  0  0  0  0  0  0  0  0  0  0
    1.7568    1.6344    0.0000 C   0  0  0  0  0  0  0  0  0  0  0  0
    2.4822    1.2219    0.0000 C   0  0  0  0  0  0  0  0  0  0  0  0
    2.4822    0.3876    0.0000 C   0  0  0  0  0  0  0  0  0  0  0  0
    1.7704   -0.0294    0.0000 C   0  0  0  0  0  0  0  0  0  0  0  0
   -1.1040   -0.0339    0.0000 C   0  0  0  0  0  0  0  0  0  0  0  0
   -1.7659    0.3558    0.0000 C   0  0  0  0  0  0  0  0  0  0  0  0
   -1.7659    1.1856    0.0000 O   0  0  0  0  0  0  0  0  0  0  0  0
   -2.4822    1.6026    0.0000 C   0  0  0  0  0  0  0  0  0  0  0  0
   -2.4822    2.4279    0.0000 C   0  0  0  0  0  0  0  0  0  0  0  0
   -2.4461   -0.0248    0.0000 C   0  0  0  0  0  0  0  0  0  0  0  0
   -2.4461   -0.7957    0.0000 C   0  0  0  0  0  0  0  0  0  0  0  0
   -1.7750   -1.1856    0.0000 C   0  0  0  0  0  0  0  0  0  0  0  0
   -1.1040   -0.8047    0.0000 C   0  0  0  0  0  0  0  0  0  0  0  0
    0.3317    1.0361    0.0000 H   0  0  0  0  0  0  0  0  0  0  0  0
   -1.2859   -2.6298    0.0000 H   0  0  0  0  0  0  0  0  0  0  0  0
   -0.3303   -3.1387    0.0000 H   0  0  0  0  0  0  0  0  0  0  0  0
    0.3775   -3.4970    0.0000 H   0  0  0  0  0  0  0  0  0  0  0  0
    1.2778   -2.9304    0.0000 H   0  0  0  0  0  0  0  0  0  0  0  0
    1.9309   -2.4903    0.0000 H   0  0  0  0  0  0  0  0  0  0  0  0
    1.9478   -0.6410    0.0000 H   0  0  0  0  0  0  0  0  0  0  0  0
    0.9842   -0.1397    0.0000 H   0  0  0  0  0  0  0  0  0  0  0  0
    0.1521    1.7226    0.0000 H   0  0  0  0  0  0  0  0  0  0  0  0
    1.7463    2.6663    0.0000 H   0  0  0  0  0  0  0  0  0  0  0  0
    3.3742    1.7408    0.0000 H   0  0  0  0  0  0  0  0  0  0  0  0
    3.3776   -0.1256    0.0000 H   0  0  0  0  0  0  0  0  0  0  0  0
    1.7733   -1.0614    0.0000 H   0  0  0  0  0  0  0  0  0  0  0  0
   -3.4098    1.0693    0.0000 H   0  0  0  0  0  0  0  0  0  0  0  0
   -3.4084    2.1384    0.0000 H   0  0  0  0  0  0  0  0  0  0  0  0
   -1.5556    2.9629    0.0000 H   0  0  0  0  0  0  0  0  0  0  0  0
   -3.4088    2.9629    0.0000 H   0  0  0  0  0  0  0  0  0  0  0  0
   -2.4822    3.4979    0.0000 H   0  0  0  0  0  0  0  0  0  0  0  0
   -3.3363    0.4972    0.0000 H   0  0  0  0  0  0  0  0  0  0  0  0
   -3.3405   -1.3105    0.0000 H   0  0  0  0  0  0  0  0  0  0  0  0
   -1.7802   -2.2176    0.0000 H   0  0  0  0  0  0  0  0  0  0  0  0
   -0.2122   -1.3240    0.0000 H   0  0  0  0  0  0  0  0  0  0  0  0
  2  1  1  0  0  0  0
  2 10  1  0  0  0  0
  2 25  1  1  0  0  0
  3  2  1  0  0  0  0
  3  4  1  0  0  0  0
  3  9  1  6  0  0  0
  5  4  1  0  0  0  0
  5 26  1  0  0  0  0
  5 27  1  0  0  0  0
  6  5  1  0  0  0  0
  6  7  1  0  0  0  0
  6 28  1  0  0  0  0
  6 29  1  0  0  0  0
  7  8  1  0  0  0  0
  7 30  1  0  0  0  0
  8  3  1  0  0  0  0
  8 31  1  0  0  0  0
  8 32  1  0  0  0  0
 11 10  1  0  0  0  0
 11 33  1  0  0  0  0
 12 11  2  0  0  0  0
 12 34  1  0  0  0  0
 13 12  1  0  0  0  0
 13 14  2  0  0  0  0
 13 35  1  0  0  0  0
 14 15  1  0  0  0  0
 14 36  1  0  0  0  0
 15 10  2  0  0  0  0
 15 37  1  0  0  0  0
 16  1  1  0  0  0  0
 17 16  1  0  0  0  0
 18 17  1  0  0  0  0
 19 18  1  0  0  0  0
 19 38  1  0  0  0  0
 19 39  1  0  0  0  0
 20 19  1  0  0  0  0
 20 40  1  0  0  0  0
 20 41  1  0  0  0  0
 20 42  1  0  0  0  0
 21 17  2  0  0  0  0
 21 43  1  0  0  0  0
 22 21  1  0  0  0  0
 22 23  2  0  0  0  0
 22 44  1  0  0  0  0
 23 24  1  0  0  0  0
 23 45  1  0  0  0  0
 24 16  2  0  0  0  0
 24 46  1  0  0  0  0
M  END
>  <DRUGBANK_ID>
DB00234

>  <SECONDARY_ACCESSION_NUMBERS>
APRD00198

>  <COMMON_NAME>
Reboxetine

>  <CAS_NUMBER>
71620-89-8

>  <UNII>
947S0YZ36I

>  <SYNONYMS>
Reboxetina; Reboxetine

$$$$
