
 OpenBabel10282417072D

 74 79  0  0  0  0  0  0  0  0999 V2000
   -3.5276   -0.7462    0.0000 C   0  0  0  0  0  0  0  0  0  0  0  0
   -2.8133   -1.9837    0.0000 C   0  0  0  0  0  0  0  0  0  0  0  0
   -1.3842   -1.9837    0.0000 C   0  0  0  0  0  0  0  0  0  0  0  0
   -0.6698   -1.5712    0.0000 C   0  0  0  0  0  0  0  0  0  0  0  0
   -0.6698    0.9037    0.0000 C   0  0  0  0  0  0  0  0  0  0  0  0
   -1.3842    0.4912    0.0000 C   0  0  0  0  0  0  0  0  0  0  0  0
    0.8292   -0.5886    0.0000 C   0  0  0  0  0  0  0  0  0  0  0  0
   -2.8133   -0.3337    0.0000 C   0  0  0  0  0  0  0  0  0  0  0  0
   -3.5276   -1.5712    0.0000 C   0  0  1  0  0  0  0  0  0  0  0  0
   -4.2421   -1.9837    0.0000 O   0  0  0  0  0  0  0  0  0  0  0  0
    1.3142    0.0787    0.0000 C   0  0  2  0  0  0  0  0  0  0  0  0
    1.7991   -0.5886    0.0000 H   0  0  0  0  0  0  0  0  0  0  0  0
    2.0988    0.3336    0.0000 O   0  0  0  0  0  0  0  0  0  0  0  0
   -1.3842   -0.3337    0.0000 C   0  0  1  0  0  0  0  0  0  0  0  0
   -1.3842   -1.1587    0.0000 H   0  0  0  0  0  0  0  0  0  0  0  0
    0.0446   -0.3337    0.0000 C   0  0  2  0  0  0  0  0  0  0  0  0
    0.0446   -1.1587    0.0000 H   0  0  0  0  0  0  0  0  0  0  0  0
    0.8292    0.7461    0.0000 C   0  0  1  0  0  0  0  0  0  0  0  0
    0.7373    1.5711    0.0000 H   0  0  0  0  0  0  0  0  0  0  0  0
    0.0446    0.4912    0.0000 C   0  0  1  0  0  0  0  0  0  0  0  0
    0.0446    1.3162    0.0000 C   0  0  0  0  0  0  0  0  0  0  0  0
   -0.6698   -0.7462    0.0000 C   0  0  2  0  0  0  0  0  0  0  0  0
   -0.6698    0.0787    0.0000 H   0  0  0  0  0  0  0  0  0  0  0  0
   -2.0987   -0.7462    0.0000 C   0  0  1  0  0  0  0  0  0  0  0  0
   -2.0987    0.0787    0.0000 C   0  0  0  0  0  0  0  0  0  0  0  0
   -2.0987   -1.5712    0.0000 C   0  0  1  0  0  0  0  0  0  0  0  0
   -2.0987   -2.3962    0.0000 H   0  0  0  0  0  0  0  0  0  0  0  0
    1.3142    1.4136    0.0000 C   0  0  2  0  0  0  0  0  0  0  0  0
    1.1303    2.2386    0.0000 C   0  0  0  0  0  0  0  0  0  0  0  0
    2.8131    0.7461    0.0000 C   0  0  0  0  0  0  0  0  0  0  0  0
    3.5276    1.1586    0.0000 C   0  0  0  0  0  0  0  0  0  0  0  0
    2.8131    2.3962    0.0000 C   0  0  0  0  0  0  0  0  0  0  0  0
    2.0988    1.1586    0.0000 C   0  0  1  0  0  0  0  0  0  0  0  0
    2.0988    1.9837    0.0000 O   0  0  0  0  0  0  0  0  0  0  0  0
    3.5276    1.9837    0.0000 C   0  0  2  0  0  0  0  0  0  0  0  0
    4.2422    2.3962    0.0000 C   0  0  0  0  0  0  0  0  0  0  0  0
   -4.4543   -0.2112    0.0000 H   0  0  0  0  0  0  0  0  0  0  0  0
   -4.4542   -1.2812    0.0000 H   0  0  0  0  0  0  0  0  0  0  0  0
   -2.8134   -3.0537    0.0000 H   0  0  0  0  0  0  0  0  0  0  0  0
   -1.8867   -2.5188    0.0000 H   0  0  0  0  0  0  0  0  0  0  0  0
   -1.3842   -3.0537    0.0000 H   0  0  0  0  0  0  0  0  0  0  0  0
   -0.4575   -2.5187    0.0000 H   0  0  0  0  0  0  0  0  0  0  0  0
    0.2569   -2.1062    0.0000 H   0  0  0  0  0  0  0  0  0  0  0  0
    0.2568   -1.0362    0.0000 H   0  0  0  0  0  0  0  0  0  0  0  0
   -0.6698    1.9737    0.0000 H   0  0  0  0  0  0  0  0  0  0  0  0
    0.2569    1.4387    0.0000 H   0  0  0  0  0  0  0  0  0  0  0  0
   -2.3109    1.0262    0.0000 H   0  0  0  0  0  0  0  0  0  0  0  0
   -2.3108   -0.0438    0.0000 H   0  0  0  0  0  0  0  0  0  0  0  0
    1.1598   -1.6063    0.0000 H   0  0  0  0  0  0  0  0  0  0  0  0
    1.8860   -0.7561    0.0000 H   0  0  0  0  0  0  0  0  0  0  0  0
   -2.8134    0.7363    0.0000 H   0  0  0  0  0  0  0  0  0  0  0  0
   -1.8867    0.2014    0.0000 H   0  0  0  0  0  0  0  0  0  0  0  0
   -4.4542   -1.0362    0.0000 H   0  0  0  0  0  0  0  0  0  0  0  0
   -5.0821   -1.4987    0.0000 H   0  0  0  0  0  0  0  0  0  0  0  0
    0.9712    1.8512    0.0000 H   0  0  0  0  0  0  0  0  0  0  0  0
   -0.8820    1.8512    0.0000 H   0  0  0  0  0  0  0  0  0  0  0  0
    0.0446    2.3862    0.0000 H   0  0  0  0  0  0  0  0  0  0  0  0
   -1.1721    0.6137    0.0000 H   0  0  0  0  0  0  0  0  0  0  0  0
   -3.0253    0.6137    0.0000 H   0  0  0  0  0  0  0  0  0  0  0  0
   -2.0987    1.1487    0.0000 H   0  0  0  0  0  0  0  0  0  0  0  0
    0.2665    1.6309    0.0000 H   0  0  0  0  0  0  0  0  0  0  0  0
    1.9183    2.9624    0.0000 H   0  0  0  0  0  0  0  0  0  0  0  0
    0.1095    2.5592    0.0000 H   0  0  0  0  0  0  0  0  0  0  0  0
    0.8975    3.2830    0.0000 H   0  0  0  0  0  0  0  0  0  0  0  0
    2.8130   -0.3239    0.0000 H   0  0  0  0  0  0  0  0  0  0  0  0
    1.8864    0.2112    0.0000 H   0  0  0  0  0  0  0  0  0  0  0  0
    4.4542    0.6236    0.0000 H   0  0  0  0  0  0  0  0  0  0  0  0
    4.4542    1.6936    0.0000 H   0  0  0  0  0  0  0  0  0  0  0  0
    2.8130    3.4662    0.0000 H   0  0  0  0  0  0  0  0  0  0  0  0
    1.8864    2.9311    0.0000 H   0  0  0  0  0  0  0  0  0  0  0  0
    4.4542    1.4487    0.0000 H   0  0  0  0  0  0  0  0  0  0  0  0
    5.1688    1.8611    0.0000 H   0  0  0  0  0  0  0  0  0  0  0  0
    4.2423    3.4662    0.0000 H   0  0  0  0  0  0  0  0  0  0  0  0
    5.1689    2.9311    0.0000 H   0  0  0  0  0  0  0  0  0  0  0  0
  1  9  1  0  0  0  0
  1 37  1  0  0  0  0
  1 38  1  0  0  0  0
  2 39  1  0  0  0  0
  2 40  1  0  0  0  0
  3  4  1  0  0  0  0
  3 41  1  0  0  0  0
  3 42  1  0  0  0  0
  4 43  1  0  0  0  0
  4 44  1  0  0  0  0
  5  6  1  0  0  0  0
  5 45  1  0  0  0  0
  5 46  1  0  0  0  0
  6 47  1  0  0  0  0
  6 48  1  0  0  0  0
  7 49  1  0  0  0  0
  7 50  1  0  0  0  0
  8  1  1  0  0  0  0
  8 51  1  0  0  0  0
  8 52  1  0  0  0  0
  9  2  1  0  0  0  0
  9 10  1  0  0  0  0
  9 53  1  6  0  0  0
 10 54  1  0  0  0  0
 11  7  1  0  0  0  0
 11 13  1  0  0  0  0
 11 12  1  6  0  0  0
 14  6  1  0  0  0  0
 14 24  1  0  0  0  0
 14 15  1  6  0  0  0
 16  7  1  0  0  0  0
 16 22  1  0  0  0  0
 16 20  1  0  0  0  0
 16 17  1  6  0  0  0
 18 11  1  0  0  0  0
 18 28  1  0  0  0  0
 18 19  1  6  0  0  0
 20  5  1  0  0  0  0
 20 18  1  0  0  0  0
 20 21  1  1  0  0  0
 21 55  1  0  0  0  0
 21 56  1  0  0  0  0
 21 57  1  0  0  0  0
 22  4  1  0  0  0  0
 22 14  1  0  0  0  0
 22 23  1  1  0  0  0
 24  8  1  0  0  0  0
 24 26  1  0  0  0  0
 24 25  1  1  0  0  0
 25 58  1  0  0  0  0
 25 59  1  0  0  0  0
 25 60  1  0  0  0  0
 26  2  1  0  0  0  0
 26  3  1  0  0  0  0
 26 27  1  1  0  0  0
 28 33  1  0  0  0  0
 28 29  1  0  0  0  0
 28 61  1  1  0  0  0
 29 62  1  0  0  0  0
 29 63  1  0  0  0  0
 29 64  1  0  0  0  0
 30 31  1  0  0  0  0
 30 65  1  0  0  0  0
 30 66  1  0  0  0  0
 31 35  1  0  0  0  0
 31 67  1  0  0  0  0
 31 68  1  0  0  0  0
 32 34  1  0  0  0  0
 32 69  1  0  0  0  0
 32 70  1  0  0  0  0
 33 13  1  6  0  0  0
 33 30  1  0  0  0  0
 33 34  1  0  0  0  0
 35 32  1  0  0  0  0
 35 36  1  0  0  0  0
 35 71  1  1  0  0  0
 36 72  1  0  0  0  0
 36 73  1  0  0  0  0
 36 74  1  0  0  0  0
M  END
>  <DRUGBANK_ID>
DB05450

>  <COMMON_NAME>
Smilagenin

>  <CAS_NUMBER>
126-18-1

>  <UNII>
GQE3Q7YMVZ

>  <SYNONYMS>
(25R)-5beta-Spirostan-3beta-ol; (25R)-Spirostan-3beta-ol; Isosarsapogenin; Smilagenin

$$$$
