
 OpenBabel10282417072D

 42 44  0  0  0  0  0  0  0  0999 V2000
    1.9860    0.7381    0.0000 N   0  0  0  0  0  0  0  0  0  0  0  0
    1.9180   -0.7909    0.0000 C   0  0  1  0  0  0  0  0  0  0  0  0
    1.2005    0.9873    0.0000 C   0  0  0  0  0  0  0  0  0  0  0  0
    2.4693    1.3989    0.0000 C   0  0  0  0  0  0  0  0  0  0  0  0
    1.6726   -1.5612    0.0000 C   0  0  1  0  0  0  0  0  0  0  0  0
    1.2422   -0.3002    0.0000 O   0  0  0  0  0  0  0  0  0  0  0  0
    1.2005    1.8179    0.0000 C   0  0  0  0  0  0  0  0  0  0  0  0
    0.4794    0.5681    0.0000 N   0  0  0  0  0  0  0  0  0  0  0  0
    1.9897    2.0747    0.0000 N   0  0  0  0  0  0  0  0  0  0  0  0
    0.8382   -1.5612    0.0000 C   0  0  1  0  0  0  0  0  0  0  0  0
    2.1558   -2.2219    0.0000 O   0  0  0  0  0  0  0  0  0  0  0  0
    0.5776   -0.7796    0.0000 C   0  0  1  0  0  0  0  0  0  0  0  0
    0.4794    2.2295    0.0000 C   0  0  0  0  0  0  0  0  0  0  0  0
   -0.2340    0.9873    0.0000 C   0  0  0  0  0  0  0  0  0  0  0  0
    0.3663   -2.2295    0.0000 O   0  0  0  0  0  0  0  0  0  0  0  0
   -0.2416   -0.0812    0.0000 C   0  0  0  0  0  0  0  0  0  0  0  0
   -0.2340    1.8179    0.0000 N   0  0  0  0  0  0  0  0  0  0  0  0
    0.4757    3.0488    0.0000 N   0  0  0  0  0  0  0  0  0  0  0  0
   -0.4568   -2.2295    0.0000 P   0  0  0  0  0  0  0  0  0  0  0  0
   -0.8306   -0.6589    0.0000 O   0  0  0  0  0  0  0  0  0  0  0  0
   -1.2723   -2.2295    0.0000 O   0  0  0  0  0  0  0  0  0  0  0  0
   -0.4606   -3.0488    0.0000 O   0  0  0  0  0  0  0  0  0  0  0  0
   -0.4568   -1.4064    0.0000 O   0  0  0  0  0  0  0  0  0  0  0  0
   -1.6499   -0.6589    0.0000 P   0  0  0  0  0  0  0  0  0  0  0  0
   -2.4693   -0.6626    0.0000 O   0  0  0  0  0  0  0  0  0  0  0  0
   -1.6538   -1.4820    0.0000 O   0  0  0  0  0  0  0  0  0  0  0  0
   -1.6538    0.1604    0.0000 O   0  0  0  0  0  0  0  0  0  0  0  0
    0.8646   -0.6031    0.0000 H   0  0  0  0  0  0  0  0  0  0  0  0
    3.5013    1.3915    0.0000 H   0  0  0  0  0  0  0  0  0  0  0  0
    2.7287   -1.3891    0.0000 H   0  0  0  0  0  0  0  0  0  0  0  0
    1.3304   -2.5113    0.0000 H   0  0  0  0  0  0  0  0  0  0  0  0
    1.7640   -3.1093    0.0000 H   0  0  0  0  0  0  0  0  0  0  0  0
    0.6210    0.2895    0.0000 H   0  0  0  0  0  0  0  0  0  0  0  0
   -1.1297    0.4747    0.0000 H   0  0  0  0  0  0  0  0  0  0  0  0
   -0.2789    0.9881    0.0000 H   0  0  0  0  0  0  0  0  0  0  0  0
   -1.2352    0.3158    0.0000 H   0  0  0  0  0  0  0  0  0  0  0  0
    1.3261    3.5449    0.0000 H   0  0  0  0  0  0  0  0  0  0  0  0
   -0.3791    3.5372    0.0000 H   0  0  0  0  0  0  0  0  0  0  0  0
   -1.7573   -1.3895    0.0000 H   0  0  0  0  0  0  0  0  0  0  0  0
   -1.3029   -3.5299    0.0000 H   0  0  0  0  0  0  0  0  0  0  0  0
   -2.9581    0.1752    0.0000 H   0  0  0  0  0  0  0  0  0  0  0  0
   -2.4961   -1.9630    0.0000 H   0  0  0  0  0  0  0  0  0  0  0  0
  1  3  1  0  0  0  0
  1  4  1  0  0  0  0
  2  1  1  0  0  0  0
  2  5  1  0  0  0  0
  2  6  1  0  0  0  0
  2 28  1  6  0  0  0
  3  7  2  0  0  0  0
  3  8  1  0  0  0  0
  4  9  2  0  0  0  0
  4 29  1  0  0  0  0
  5 10  1  0  0  0  0
  5 11  1  0  0  0  0
  5 30  1  1  0  0  0
  6 12  1  0  0  0  0
  7 13  1  0  0  0  0
  7  9  1  0  0  0  0
  8 14  2  0  0  0  0
 10 15  1  0  0  0  0
 10 12  1  0  0  0  0
 10 31  1  1  0  0  0
 11 32  1  0  0  0  0
 12 16  1  0  0  0  0
 12 33  1  6  0  0  0
 13 17  2  0  0  0  0
 13 18  1  0  0  0  0
 14 17  1  0  0  0  0
 14 34  1  0  0  0  0
 15 19  1  0  0  0  0
 16 20  1  0  0  0  0
 16 35  1  0  0  0  0
 16 36  1  0  0  0  0
 18 37  1  0  0  0  0
 18 38  1  0  0  0  0
 19 21  1  0  0  0  0
 19 22  1  0  0  0  0
 19 23  2  0  0  0  0
 20 24  1  0  0  0  0
 21 39  1  0  0  0  0
 22 40  1  0  0  0  0
 24 25  1  0  0  0  0
 24 26  1  0  0  0  0
 24 27  2  0  0  0  0
 25 41  1  0  0  0  0
 26 42  1  0  0  0  0
M  END
>  <DRUGBANK_ID>
DB01812

>  <SECONDARY_ACCESSION_NUMBERS>
EXPT00370

>  <COMMON_NAME>
Adenosine 3',5'-diphosphate

>  <CAS_NUMBER>
1053-73-2

>  <UNII>
C65F80D52U

>  <SYNONYMS>
3'-Phosphoadenosine 5'-phosphate; 3',5'-ADP; Adenosine 3'-phosphate-5'-phosphate; Adenosine 3',5'-bismonophosphate; Phosphoadenosine phosphate

$$$$
