5EE
 OpenBabel10282417072D

 35 37  0  0  0  0  0  0  0  0999 V2000
    0.8904   -1.3439    0.0000 S   0  0  0  0  0  0  0  0  0  0  0  0
    1.7154   -1.3439    0.0000 O   0  0  0  0  0  0  0  0  0  0  0  0
    0.0654   -1.3439    0.0000 O   0  0  0  0  0  0  0  0  0  0  0  0
    0.8904   -0.5189    0.0000 N   0  0  0  0  0  0  0  0  0  0  0  0
    0.8904   -2.1689    0.0000 C   0  0  0  0  0  0  0  0  0  0  0  0
    1.5578   -2.6539    0.0000 S   0  0  0  0  0  0  0  0  0  0  0  0
    1.3029   -3.4385    0.0000 C   0  0  0  0  0  0  0  0  0  0  0  0
    0.4779   -3.4385    0.0000 C   0  0  0  0  0  0  0  0  0  0  0  0
    0.2229   -2.6539    0.0000 C   0  0  0  0  0  0  0  0  0  0  0  0
   -1.0529    1.6392    0.0000 C   0  0  0  0  0  0  0  0  0  0  0  0
   -0.5680    2.3067    0.0000 C   0  0  0  0  0  0  0  0  0  0  0  0
   -0.9035    3.0604    0.0000 C   0  0  0  0  0  0  0  0  0  0  0  0
   -0.4186    3.7278    0.0000 C   0  0  0  0  0  0  0  0  0  0  0  0
    0.7374    2.8879    0.0000 C   0  0  0  0  0  0  0  0  0  0  0  0
    0.4019    3.6416    0.0000 C   0  0  0  0  0  0  0  0  0  0  0  0
    0.8868    4.3090    0.0000 Cl  0  0  0  0  0  0  0  0  0  0  0  0
    0.1759   -0.1064    0.0000 N   0  0  0  0  0  0  0  0  0  0  0  0
   -0.5778   -0.4420    0.0000 C   0  0  0  0  0  0  0  0  0  0  0  0
   -0.7173    0.8856    0.0000 C   0  0  2  0  0  0  0  0  0  0  0  0
    0.0897    0.7140    0.0000 C   0  0  0  0  0  0  0  0  0  0  0  0
    0.2525    2.2204    0.0000 C   0  0  0  0  0  0  0  0  0  0  0  0
   -1.1298    0.1711    0.0000 S   0  0  0  0  0  0  0  0  0  0  0  0
   -0.7493   -1.2490    0.0000 S   0  0  0  0  0  0  0  0  0  0  0  0
    0.7027    1.2661    0.0000 O   0  0  0  0  0  0  0  0  0  0  0  0
    1.5579    2.8016    0.0000 Cl  0  0  0  0  0  0  0  0  0  0  0  0
   -0.3498    1.3394    0.0000 H   0  0  0  0  0  0  0  0  0  0  0  0
    1.7737   -0.0089    0.0000 H   0  0  0  0  0  0  0  0  0  0  0  0
    1.9095   -4.2734    0.0000 H   0  0  0  0  0  0  0  0  0  0  0  0
   -0.1287   -4.2734    0.0000 H   0  0  0  0  0  0  0  0  0  0  0  0
   -0.7586   -2.3350    0.0000 H   0  0  0  0  0  0  0  0  0  0  0  0
   -2.1170    1.7510    0.0000 H   0  0  0  0  0  0  0  0  0  0  0  0
   -1.6818    0.7735    0.0000 H   0  0  0  0  0  0  0  0  0  0  0  0
   -1.9298    3.1683    0.0000 H   0  0  0  0  0  0  0  0  0  0  0  0
   -0.8384    4.6706    0.0000 H   0  0  0  0  0  0  0  0  0  0  0  0
    0.6722    1.2776    0.0000 H   0  0  0  0  0  0  0  0  0  0  0  0
  1  2  2  0  0  0  0
  1  3  2  0  0  0  0
  1  4  1  0  0  0  0
  1  5  1  0  0  0  0
  4 17  1  0  0  0  0
  4 27  1  0  0  0  0
  5  6  1  0  0  0  0
  5  9  2  0  0  0  0
  6  7  1  0  0  0  0
  7  8  2  0  0  0  0
  7 28  1  0  0  0  0
  8  9  1  0  0  0  0
  8 29  1  0  0  0  0
  9 30  1  0  0  0  0
 10 11  1  0  0  0  0
 10 31  1  0  0  0  0
 10 32  1  0  0  0  0
 11 12  2  0  0  0  0
 11 21  1  0  0  0  0
 12 13  1  0  0  0  0
 12 33  1  0  0  0  0
 13 15  2  0  0  0  0
 13 34  1  0  0  0  0
 14 15  1  0  0  0  0
 14 21  2  0  0  0  0
 14 25  1  0  0  0  0
 15 16  1  0  0  0  0
 17 18  1  0  0  0  0
 17 20  1  0  0  0  0
 18 22  1  0  0  0  0
 18 23  2  0  0  0  0
 19 10  1  0  0  0  0
 19 20  1  0  0  0  0
 19 22  1  0  0  0  0
 19 26  1  1  0  0  0
 20 24  2  0  0  0  0
 21 35  1  0  0  0  0
M  END
>  <DRUGBANK_ID>
DB07169

>  <COMMON_NAME>
5R-(3,4-DICHLOROPHENYLMETHYL)-3-(2-THIOPHENESULFONYLAMINO)-4-OXO-2-THIONOTHIAZOLIDINE

$$$$
