
 OpenBabel10282417072D

182187  0  0  1  0  0  0  0  0999 V2000
   -1.5388    2.4462    0.0000 C   0  0  1  0  0  0  0  0  0  0  0  0
   -1.3417   -0.2847    0.0000 C   0  0  2  0  0  0  0  0  0  0  0  0
   -1.8932    0.2519    0.0000 C   0  0  2  0  0  0  0  0  0  0  0  0
   -0.2683   -3.5817    0.0000 C   0  0  1  0  0  0  0  0  0  0  0  0
   -1.0898   -3.4428    0.0000 C   0  0  1  0  0  0  0  0  0  0  0  0
   -1.4658   -4.1877    0.0000 C   0  0  1  0  0  0  0  0  0  0  0  0
   -3.8244   -3.1399    0.0000 C   0  0  1  0  0  0  0  0  0  0  0  0
   -0.8853   -4.7828    0.0000 C   0  0  2  0  0  0  0  0  0  0  0  0
    1.5754   -0.2628    0.0000 C   0  0  2  0  0  0  0  0  0  0  0  0
    2.0902    3.2313    0.0000 C   0  0  1  0  0  0  0  0  0  0  0  0
    1.5390    3.7824    0.0000 C   0  0  1  0  0  0  0  0  0  0  0  0
   -1.3161    3.7205    0.0000 C   0  0  1  0  0  0  0  0  0  0  0  0
   -1.8894    3.1399    0.0000 C   0  0  2  0  0  0  0  0  0  0  0  0
   -0.7685    2.5959    0.0000 N   0  0  0  0  0  0  0  0  0  0  0  0
   -0.6005    3.3809    0.0000 C   0  0  0  0  0  0  0  0  0  0  0  0
    0.1114    3.7642    0.0000 C   0  0  0  0  0  0  0  0  0  0  0  0
    0.1076    4.5822    0.0000 C   0  0  0  0  0  0  0  0  0  0  0  0
    0.8014    3.3955    0.0000 C   0  0  0  0  0  0  0  0  0  0  0  0
    0.9511    2.5850    0.0000 N   0  0  0  0  0  0  0  0  0  0  0  0
    1.6996    2.4754    0.0000 C   0  0  0  0  0  0  0  0  0  0  0  0
    2.0975    1.7598    0.0000 C   0  0  0  0  0  0  0  0  0  0  0  0
    1.7360    1.0735    0.0000 C   0  0  0  0  0  0  0  0  0  0  0  0
    0.9401    0.8872    0.0000 N   0  0  0  0  0  0  0  0  0  0  0  0
    0.8014    0.1059    0.0000 C   0  0  0  0  0  0  0  0  0  0  0  0
    0.1114   -0.2701    0.0000 C   0  0  0  0  0  0  0  0  0  0  0  0
   -0.6005    0.1241    0.0000 C   0  0  0  0  0  0  0  0  0  0  0  0
   -1.5242    1.0113    0.0000 C   0  0  3  0  0  0  0  0  0  0  0  0
   -0.7246    0.8726    0.0000 N   0  5  0  0  0  0  0  0  0  0  0  0
    0.9621   -1.8144    0.0000 N   0  0  0  0  0  4  0  0  0  0  0  0
    0.2100   -2.1650    0.0000 C   0  0  0  0  0  0  0  0  0  0  0  0
    0.3122   -2.9901    0.0000 N   0  0  0  0  0  0  0  0  0  0  0  0
   -2.1887   -4.5966    0.0000 O   0  0  0  0  0  0  0  0  0  0  0  0
   -3.8281   -4.5747    0.0000 P   0  0  3  0  0  0  0  0  0  0  0  0
   -4.2371   -3.8554    0.0000 O   0  0  0  0  0  0  0  0  0  0  0  0
   -4.2371   -2.4242    0.0000 C   0  0  0  0  0  0  0  0  0  0  0  0
   -3.8135   -1.7049    0.0000 N   0  0  0  0  0  0  0  0  0  0  0  0
   -2.9957   -1.7087    0.0000 C   0  0  0  0  0  0  0  0  0  0  0  0
   -2.5756   -1.0003    0.0000 C   0  0  0  0  0  0  0  0  0  0  0  0
   -1.7616   -1.0039    0.0000 C   0  0  0  0  0  0  0  0  0  0  0  0
   -2.5866   -2.4315    0.0000 O   0  0  0  0  0  0  0  0  0  0  0  0
   -2.9994   -3.1399    0.0000 C   0  0  0  0  0  0  0  0  0  0  0  0
   -3.8317   -5.3999    0.0000 O   0  5  0  0  0  0  0  0  0  0  0  0
   -4.5511   -4.9872    0.0000 O   0  0  0  0  0  0  0  0  0  0  0  0
   -0.1442   -4.4068    0.0000 O   0  0  0  0  0  0  0  0  0  0  0  0
   -1.3015   -5.4912    0.0000 C   0  0  0  0  0  0  0  0  0  0  0  0
   -0.8891   -6.2104    0.0000 O   0  0  0  0  0  0  0  0  0  0  0  0
   -1.4950   -2.7272    0.0000 O   0  0  0  0  0  0  0  0  0  0  0  0
    1.1227   -3.1544    0.0000 C   0  0  0  0  0  0  0  0  0  0  0  0
    1.5243   -2.4242    0.0000 C   0  0  0  0  0  0  0  0  0  0  0  0
    2.3532   -2.4060    0.0000 C   0  0  0  0  0  0  0  0  0  0  0  0
    2.7803   -3.1217    0.0000 C   0  0  0  0  0  0  0  0  0  0  0  0
    2.3786   -3.8554    0.0000 C   0  0  0  0  0  0  0  0  0  0  0  0
    1.5536   -3.8627    0.0000 C   0  0  0  0  0  0  0  0  0  0  0  0
    2.7876   -4.5747    0.0000 C   0  0  0  0  0  0  0  0  0  0  0  0
    3.5982   -3.1143    0.0000 C   0  0  0  0  0  0  0  0  0  0  0  0
   -2.7181    0.2556    0.0000 C   0  0  0  0  0  0  0  0  0  0  0  0
   -3.4337    0.6754    0.0000 C   0  0  0  0  0  0  0  0  0  0  0  0
   -3.4337    1.5116    0.0000 O   0  0  0  0  0  0  0  0  0  0  0  0
   -4.1458    0.2556    0.0000 N   0  0  0  0  0  0  0  0  0  0  0  0
   -0.9329   -1.0076    0.0000 C   0  0  0  0  0  0  0  0  0  0  0  0
    0.1114   -1.1062    0.0000 C   0  0  0  0  0  0  0  0  0  0  0  0
    2.1157    0.2921    0.0000 C   0  0  0  0  0  0  0  0  0  0  0  0
    2.8239    0.7082    0.0000 C   0  0  0  0  0  0  0  0  0  0  0  0
    2.8277   -0.1241    0.0000 C   0  0  0  0  0  0  0  0  0  0  0  0
    1.5717   -1.0916    0.0000 C   0  0  0  0  0  0  0  0  0  0  0  0
    2.2801   -1.5040    0.0000 C   0  0  0  0  0  0  0  0  0  0  0  0
    3.0979   -1.5040    0.0000 C   0  0  0  0  0  0  0  0  0  0  0  0
    3.4959   -0.7923    0.0000 O   0  0  0  0  0  0  0  0  0  0  0  0
    3.4959   -2.2088    0.0000 N   0  0  0  0  0  0  0  0  0  0  0  0
    1.5389    4.6004    0.0000 C   0  0  0  0  0  0  0  0  0  0  0  0
    2.2434    5.0202    0.0000 C   0  0  0  0  0  0  0  0  0  0  0  0
    2.2434    5.8417    0.0000 O   0  0  0  0  0  0  0  0  0  0  0  0
    2.9627    4.6004    0.0000 N   0  0  0  0  0  0  0  0  0  0  0  0
    2.3604    3.7824    0.0000 C   0  0  0  0  0  0  0  0  0  0  0  0
    2.9081    3.2275    0.0000 C   0  0  0  0  0  0  0  0  0  0  0  0
    3.3170    2.5119    0.0000 C   0  0  0  0  0  0  0  0  0  0  0  0
    4.1457    2.5119    0.0000 C   0  0  0  0  0  0  0  0  0  0  0  0
    4.5511    3.2348    0.0000 O   0  0  0  0  0  0  0  0  0  0  0  0
    4.5511    1.7891    0.0000 N   0  0  0  0  0  0  0  0  0  0  0  0
   -2.6013    3.5561    0.0000 C   0  0  0  0  0  0  0  0  0  0  0  0
   -3.4337    3.5598    0.0000 C   0  0  0  0  0  0  0  0  0  0  0  0
   -3.8464    4.2754    0.0000 O   0  0  0  0  0  0  0  0  0  0  0  0
   -3.8464    2.8406    0.0000 N   0  0  0  0  0  0  0  0  0  0  0  0
   -2.6013    2.7273    0.0000 C   0  0  0  0  0  0  0  0  0  0  0  0
   -1.3234    4.5493    0.0000 C   0  0  0  0  0  0  0  0  0  0  0  0
   -0.6151    4.9618    0.0000 C   0  0  0  0  0  0  0  0  0  0  0  0
   -0.6188    5.7907    0.0000 C   0  0  0  0  0  0  0  0  0  0  0  0
   -1.3308    6.2104    0.0000 O   0  0  0  0  0  0  0  0  0  0  0  0
    0.0894    6.2069    0.0000 N   0  0  0  0  0  0  0  0  0  0  0  0
   -2.2581    2.0335    0.0000 C   0  0  0  0  0  0  0  0  0  0  0  0
    0.1478    2.4937    0.0000 C   0  5  0  0  0  0  0  0  0  0  0  0
    0.1478    3.0706    0.0000 N   0  0  0  0  0  0  0  0  0  0  0  0
    0.1340    1.7923    0.0000 Co  0  1  0  0  0  0  0  0  0  0  0  0
   -2.2981   -0.7385    0.0000 H   0  0  0  0  0  0  0  0  0  0  0  0
   -0.5985   -2.5639    0.0000 H   0  0  0  0  0  0  0  0  0  0  0  0
   -0.4755   -2.5667    0.0000 H   0  0  0  0  0  0  0  0  0  0  0  0
   -2.2401   -3.4492    0.0000 H   0  0  0  0  0  0  0  0  0  0  0  0
   -3.2892   -4.0664    0.0000 H   0  0  0  0  0  0  0  0  0  0  0  0
   -1.9475   -4.9118    0.0000 H   0  0  0  0  0  0  0  0  0  0  0  0
    0.6693   -0.8320    0.0000 H   0  0  0  0  0  0  0  0  0  0  0  0
    2.5019    4.2189    0.0000 H   0  0  0  0  0  0  0  0  0  0  0  0
   -2.3077    4.1225    0.0000 H   0  0  0  0  0  0  0  0  0  0  0  0
    1.0318    5.1215    0.0000 H   0  0  0  0  0  0  0  0  0  0  0  0
   -0.8215    5.1129    0.0000 H   0  0  0  0  0  0  0  0  0  0  0  0
    0.1026    5.6522    0.0000 H   0  0  0  0  0  0  0  0  0  0  0  0
    3.1294    1.7715    0.0000 H   0  0  0  0  0  0  0  0  0  0  0  0
   -2.5682    1.2459    0.0000 H   0  0  0  0  0  0  0  0  0  0  0  0
    1.1528   -0.8485    0.0000 H   0  0  0  0  0  0  0  0  0  0  0  0
   -0.6928   -1.6651    0.0000 H   0  0  0  0  0  0  0  0  0  0  0  0
   -5.3071   -2.4193    0.0000 H   0  0  0  0  0  0  0  0  0  0  0  0
   -4.7660   -1.4940    0.0000 H   0  0  0  0  0  0  0  0  0  0  0  0
   -4.3001   -0.8491    0.0000 H   0  0  0  0  0  0  0  0  0  0  0  0
   -3.1031   -0.0694    0.0000 H   0  0  0  0  0  0  0  0  0  0  0  0
   -2.0348   -0.0770    0.0000 H   0  0  0  0  0  0  0  0  0  0  0  0
   -1.2309   -1.9330    0.0000 H   0  0  0  0  0  0  0  0  0  0  0  0
   -2.3008   -1.9281    0.0000 H   0  0  0  0  0  0  0  0  0  0  0  0
   -2.4644   -4.0665    0.0000 H   0  0  0  0  0  0  0  0  0  0  0  0
   -2.4644   -2.2133    0.0000 H   0  0  0  0  0  0  0  0  0  0  0  0
   -1.9294   -3.1399    0.0000 H   0  0  0  0  0  0  0  0  0  0  0  0
   -2.3715   -5.4856    0.0000 H   0  0  0  0  0  0  0  0  0  0  0  0
   -1.8403   -6.4156    0.0000 H   0  0  0  0  0  0  0  0  0  0  0  0
   -1.3766   -7.0490    0.0000 H   0  0  0  0  0  0  0  0  0  0  0  0
   -1.0030   -1.8912    0.0000 H   0  0  0  0  0  0  0  0  0  0  0  0
    2.8529   -1.5030    0.0000 H   0  0  0  0  0  0  0  0  0  0  0  0
    1.0519   -4.7645    0.0000 H   0  0  0  0  0  0  0  0  0  0  0  0
    2.2465   -5.4978    0.0000 H   0  0  0  0  0  0  0  0  0  0  0  0
    3.8576   -4.5817    0.0000 H   0  0  0  0  0  0  0  0  0  0  0  0
    3.3165   -5.5048    0.0000 H   0  0  0  0  0  0  0  0  0  0  0  0
    4.1416   -4.0361    0.0000 H   0  0  0  0  0  0  0  0  0  0  0  0
    4.1248   -2.1829    0.0000 H   0  0  0  0  0  0  0  0  0  0  0  0
    4.6682   -3.1046    0.0000 H   0  0  0  0  0  0  0  0  0  0  0  0
   -3.0009   -0.7763    0.0000 H   0  0  0  0  0  0  0  0  0  0  0  0
   -3.7092   -0.1476    0.0000 H   0  0  0  0  0  0  0  0  0  0  0  0
   -5.0028    0.7401    0.0000 H   0  0  0  0  0  0  0  0  0  0  0  0
   -4.1369   -0.7289    0.0000 H   0  0  0  0  0  0  0  0  0  0  0  0
   -1.4762   -1.9294    0.0000 H   0  0  0  0  0  0  0  0  0  0  0  0
    0.1371   -1.0172    0.0000 H   0  0  0  0  0  0  0  0  0  0  0  0
   -0.4062   -1.9390    0.0000 H   0  0  0  0  0  0  0  0  0  0  0  0
   -0.8152   -1.6412    0.0000 H   0  0  0  0  0  0  0  0  0  0  0  0
    1.0380   -1.6412    0.0000 H   0  0  0  0  0  0  0  0  0  0  0  0
    0.1114   -2.1762    0.0000 H   0  0  0  0  0  0  0  0  0  0  0  0
    3.7546    0.1803    0.0000 H   0  0  0  0  0  0  0  0  0  0  0  0
    2.8158    1.7782    0.0000 H   0  0  0  0  0  0  0  0  0  0  0  0
    3.7464    1.2502    0.0000 H   0  0  0  0  0  0  0  0  0  0  0  0
    2.8219   -1.1941    0.0000 H   0  0  0  0  0  0  0  0  0  0  0  0
    3.7572    0.4059    0.0000 H   0  0  0  0  0  0  0  0  0  0  0  0
    3.7515   -0.6641    0.0000 H   0  0  0  0  0  0  0  0  0  0  0  0
    0.6429   -1.6229    0.0000 H   0  0  0  0  0  0  0  0  0  0  0  0
    1.5676   -2.1616    0.0000 H   0  0  0  0  0  0  0  0  0  0  0  0
    2.0013   -2.5370    0.0000 H   0  0  0  0  0  0  0  0  0  0  0  0
    2.9307   -2.3535    0.0000 H   0  0  0  0  0  0  0  0  0  0  0  0
    2.9955   -3.0567    0.0000 H   0  0  0  0  0  0  0  0  0  0  0  0
    4.4804   -2.2182    0.0000 H   0  0  0  0  0  0  0  0  0  0  0  0
    0.6086    5.1289    0.0000 H   0  0  0  0  0  0  0  0  0  0  0  0
    1.5278    5.6703    0.0000 H   0  0  0  0  0  0  0  0  0  0  0  0
    2.9581    3.6159    0.0000 H   0  0  0  0  0  0  0  0  0  0  0  0
    3.8176    5.0886    0.0000 H   0  0  0  0  0  0  0  0  0  0  0  0
    2.8954    2.8558    0.0000 H   0  0  0  0  0  0  0  0  0  0  0  0
    2.8954    4.7090    0.0000 H   0  0  0  0  0  0  0  0  0  0  0  0
    3.4304    3.7824    0.0000 H   0  0  0  0  0  0  0  0  0  0  0  0
    3.4473    4.1517    0.0000 H   0  0  0  0  0  0  0  0  0  0  0  0
    3.9781    3.2227    0.0000 H   0  0  0  0  0  0  0  0  0  0  0  0
    2.7799    1.5865    0.0000 H   0  0  0  0  0  0  0  0  0  0  0  0
    3.8510    1.5847    0.0000 H   0  0  0  0  0  0  0  0  0  0  0  0
    4.0483    0.9427    0.0000 H   0  0  0  0  0  0  0  0  0  0  0  0
    5.5355    1.7768    0.0000 H   0  0  0  0  0  0  0  0  0  0  0  0
   -2.3193    4.5883    0.0000 H   0  0  0  0  0  0  0  0  0  0  0  0
   -3.2487    4.4080    0.0000 H   0  0  0  0  0  0  0  0  0  0  0  0
   -4.8309    2.8380    0.0000 H   0  0  0  0  0  0  0  0  0  0  0  0
   -3.3519    1.9893    0.0000 H   0  0  0  0  0  0  0  0  0  0  0  0
   -3.5288    3.2608    0.0000 H   0  0  0  0  0  0  0  0  0  0  0  0
   -2.5995    1.6573    0.0000 H   0  0  0  0  0  0  0  0  0  0  0  0
   -3.5271    2.1908    0.0000 H   0  0  0  0  0  0  0  0  0  0  0  0
   -2.2534    5.0785    0.0000 H   0  0  0  0  0  0  0  0  0  0  0  0
   -1.3288    5.6193    0.0000 H   0  0  0  0  0  0  0  0  0  0  0  0
    0.3137    4.4306    0.0000 H   0  0  0  0  0  0  0  0  0  0  0  0
    0.3092    5.5008    0.0000 H   0  0  0  0  0  0  0  0  0  0  0  0
    0.9458    5.7212    0.0000 H   0  0  0  0  0  0  0  0  0  0  0  0
    0.0818    7.1914    0.0000 H   0  0  0  0  0  0  0  0  0  0  0  0
   -3.1833    2.5710    0.0000 H   0  0  0  0  0  0  0  0  0  0  0  0
   -2.2610    0.9635    0.0000 H   0  0  0  0  0  0  0  0  0  0  0  0
   -3.1862    1.5010    0.0000 H   0  0  0  0  0  0  0  0  0  0  0  0
  1 90  1  6  0  0  0
  2  3  1  0  0  0  0
  2 39  1  6  0  0  0
  2 60  1  0  0  0  0
  3 27  1  0  0  0  0
  3 56  1  0  0  0  0
  3 94  1  6  0  0  0
  4  5  1  0  0  0  0
  4 31  1  0  0  0  0
  4 44  1  0  0  0  0
  4 95  1  6  0  0  0
  5  6  1  0  0  0  0
  5 47  1  0  0  0  0
  5 96  1  6  0  0  0
  6 32  1  0  0  0  0
  6 97  1  6  0  0  0
  7 35  1  0  0  0  0
  7 41  1  0  0  0  0
  7 98  1  6  0  0  0
  8  6  1  0  0  0  0
  8 45  1  0  0  0  0
  8 99  1  1  0  0  0
  9 24  1  0  0  0  0
  9 65  1  0  0  0  0
  9100  1  1  0  0  0
 10 11  1  0  0  0  0
 10 75  1  0  0  0  0
 10101  1  1  0  0  0
 11 18  1  0  0  0  0
 11 70  1  1  0  0  0
 11 74  1  0  0  0  0
 12 13  1  0  0  0  0
 12 85  1  0  0  0  0
 12102  1  1  0  0  0
 13  1  1  0  0  0  0
 13 80  1  1  0  0  0
 13 84  1  0  0  0  0
 14  1  1  0  0  0  0
 15 14  2  0  0  0  0
 15 12  1  0  0  0  0
 16 15  1  0  0  0  0
 17 16  1  0  0  0  0
 17103  1  0  0  0  0
 17104  1  0  0  0  0
 17105  1  0  0  0  0
 18 16  2  0  0  0  0
 19 18  1  0  0  0  0
 20 19  2  0  0  0  0
 20 10  1  0  0  0  0
 21 20  1  0  0  0  0
 21 22  2  0  0  0  0
 21106  1  0  0  0  0
 22 23  1  0  0  0  0
 22 62  1  0  0  0  0
 23 24  2  0  0  0  0
 24 25  1  0  0  0  0
 25 26  2  0  0  0  0
 26  2  1  0  0  0  0
 26 28  1  0  0  0  0
 27  1  1  0  0  0  0
 27107  1  0  0  0  0
 28 27  1  0  0  0  0
 29 30  2  0  0  0  0
 29 49  1  0  0  0  0
 29108  1  0  0  0  0
 30 31  1  0  0  0  0
 30109  1  0  0  0  0
 32 33  1  0  0  0  0
 33 34  1  0  0  0  0
 34  7  1  0  0  0  0
 35 36  1  0  0  0  0
 35110  1  0  0  0  0
 35111  1  0  0  0  0
 36 37  1  0  0  0  0
 36112  1  0  0  0  0
 37 38  1  0  0  0  0
 38 39  1  0  0  0  0
 38113  1  0  0  0  0
 38114  1  0  0  0  0
 39115  1  0  0  0  0
 39116  1  0  0  0  0
 40 37  2  0  0  0  0
 41117  1  0  0  0  0
 41118  1  0  0  0  0
 41119  1  0  0  0  0
 42 33  1  0  0  0  0
 43 33  2  0  0  0  0
 44  8  1  0  0  0  0
 45120  1  0  0  0  0
 45121  1  0  0  0  0
 46 45  1  0  0  0  0
 46122  1  0  0  0  0
 47123  1  0  0  0  0
 48 31  1  0  0  0  0
 49 48  2  0  0  0  0
 50 49  1  0  0  0  0
 50 51  2  0  0  0  0
 50124  1  0  0  0  0
 51 52  1  0  0  0  0
 52 53  2  0  0  0  0
 53 48  1  0  0  0  0
 53125  1  0  0  0  0
 54 52  1  0  0  0  0
 54126  1  0  0  0  0
 54127  1  0  0  0  0
 54128  1  0  0  0  0
 55 51  1  0  0  0  0
 55129  1  0  0  0  0
 55130  1  0  0  0  0
 55131  1  0  0  0  0
 56132  1  0  0  0  0
 56133  1  0  0  0  0
 57 56  1  0  0  0  0
 58 57  2  0  0  0  0
 59 57  1  0  0  0  0
 59134  1  0  0  0  0
 59135  1  0  0  0  0
 60136  1  0  0  0  0
 60137  1  0  0  0  0
 60138  1  0  0  0  0
 61 25  1  0  0  0  0
 61139  1  0  0  0  0
 61140  1  0  0  0  0
 61141  1  0  0  0  0
 62  9  1  0  0  0  0
 63 62  1  0  0  0  0
 63142  1  0  0  0  0
 63143  1  0  0  0  0
 63144  1  0  0  0  0
 64 62  1  0  0  0  0
 64145  1  0  0  0  0
 64146  1  0  0  0  0
 64147  1  0  0  0  0
 65148  1  0  0  0  0
 65149  1  0  0  0  0
 66 65  1  0  0  0  0
 66150  1  0  0  0  0
 66151  1  0  0  0  0
 67 66  1  0  0  0  0
 68 67  2  0  0  0  0
 69 67  1  0  0  0  0
 69152  1  0  0  0  0
 69153  1  0  0  0  0
 70154  1  0  0  0  0
 70155  1  0  0  0  0
 71 70  1  0  0  0  0
 72 71  2  0  0  0  0
 73 71  1  0  0  0  0
 73156  1  0  0  0  0
 73157  1  0  0  0  0
 74158  1  0  0  0  0
 74159  1  0  0  0  0
 74160  1  0  0  0  0
 75161  1  0  0  0  0
 75162  1  0  0  0  0
 76 75  1  0  0  0  0
 76163  1  0  0  0  0
 76164  1  0  0  0  0
 77 76  1  0  0  0  0
 78 77  2  0  0  0  0
 79 77  1  0  0  0  0
 79165  1  0  0  0  0
 79166  1  0  0  0  0
 80167  1  0  0  0  0
 80168  1  0  0  0  0
 81 80  1  0  0  0  0
 82 81  2  0  0  0  0
 83 81  1  0  0  0  0
 83169  1  0  0  0  0
 83170  1  0  0  0  0
 84171  1  0  0  0  0
 84172  1  0  0  0  0
 84173  1  0  0  0  0
 85174  1  0  0  0  0
 85175  1  0  0  0  0
 86 85  1  0  0  0  0
 86176  1  0  0  0  0
 86177  1  0  0  0  0
 87 86  1  0  0  0  0
 88 87  2  0  0  0  0
 89 87  1  0  0  0  0
 89178  1  0  0  0  0
 89179  1  0  0  0  0
 90180  1  0  0  0  0
 90181  1  0  0  0  0
 90182  1  0  0  0  0
 91 92  3  0  0  0  0
M  ISO  1  93  57
M  CHG  4  28  -1  42  -1  91  -1  93   3
M  END
>  <DRUGBANK_ID>
DB09385

>  <COMMON_NAME>
Cyanocobalamin Co-57

>  <CAS_NUMBER>
13115-03-2

>  <UNII>
025P9I542Y

>  <SYNONYMS>
(57Co)Vitamin B12; Cianocobalamina (57 Co); Cyanocobalamin (57 Co); Cyanocobalamin (57Co); Cyanocobalamin Co 57; Cyanocobalamine (57 Co); Cyanocobalaminum (57 Co)

$$$$
