
 OpenBabel10282417072D

 28 28  0  0  0  0  0  0  0  0999 V2000
   -1.4236   -0.8236    0.0000 C   0  0  0  0  0  0  0  0  0  0  0  0
   -2.1380   -1.2361    0.0000 C   0  0  0  0  0  0  0  0  0  0  0  0
   -2.8527   -0.8232    0.0000 C   0  0  0  0  0  0  0  0  0  0  0  0
   -2.8530    0.0022    0.0000 C   0  0  0  0  0  0  0  0  0  0  0  0
   -2.1385    0.4147    0.0000 C   0  0  0  0  0  0  0  0  0  0  0  0
   -1.4239    0.0015    0.0000 C   0  0  0  0  0  0  0  0  0  0  0  0
   -0.7095    0.4141    0.0000 O   0  0  0  0  0  0  0  0  0  0  0  0
    0.0002   -0.0015    0.0000 C   0  0  0  0  0  0  0  0  0  0  0  0
    0.7147    0.4109    0.0000 C   0  0  3  0  0  0  0  0  0  0  0  0
    1.4235    0.0076    0.0000 C   0  0  0  0  0  0  0  0  0  0  0  0
    0.7143    1.2361    0.0000 O   0  0  0  0  0  0  0  0  0  0  0  0
    2.1380    0.4201    0.0000 O   0  0  0  0  0  0  0  0  0  0  0  0
   -3.5670   -1.2356    0.0000 Cl  0  0  0  0  0  0  0  0  0  0  0  0
    2.8527    0.0073    0.0000 C   0  0  0  0  0  0  0  0  0  0  0  0
    2.8530   -0.8182    0.0000 O   0  0  0  0  0  0  0  0  0  0  0  0
    3.5670    0.4196    0.0000 N   0  0  0  0  0  0  0  0  0  0  0  0
   -0.5298   -1.3394    0.0000 H   0  0  0  0  0  0  0  0  0  0  0  0
   -2.1381   -2.2681    0.0000 H   0  0  0  0  0  0  0  0  0  0  0  0
   -3.7468    0.5180    0.0000 H   0  0  0  0  0  0  0  0  0  0  0  0
   -2.1382    1.4467    0.0000 H   0  0  0  0  0  0  0  0  0  0  0  0
   -0.0032   -1.0715    0.0000 H   0  0  0  0  0  0  0  0  0  0  0  0
    0.9260   -0.5380    0.0000 H   0  0  0  0  0  0  0  0  0  0  0  0
    0.7180   -0.6591    0.0000 H   0  0  0  0  0  0  0  0  0  0  0  0
    1.4269   -1.0624    0.0000 H   0  0  0  0  0  0  0  0  0  0  0  0
    2.3510   -0.5260    0.0000 H   0  0  0  0  0  0  0  0  0  0  0  0
    1.5541    1.7215    0.0000 H   0  0  0  0  0  0  0  0  0  0  0  0
    4.4195   -0.0727    0.0000 H   0  0  0  0  0  0  0  0  0  0  0  0
    3.5671    1.4041    0.0000 H   0  0  0  0  0  0  0  0  0  0  0  0
  1  2  2  0  0  0  0
  1 17  1  0  0  0  0
  2  3  1  0  0  0  0
  2 18  1  0  0  0  0
  3  4  2  0  0  0  0
  3 13  1  0  0  0  0
  4  5  1  0  0  0  0
  4 19  1  0  0  0  0
  5  6  2  0  0  0  0
  5 20  1  0  0  0  0
  6  7  1  0  0  0  0
  6  1  1  0  0  0  0
  7  8  1  0  0  0  0
  8  9  1  0  0  0  0
  8 21  1  0  0  0  0
  8 22  1  0  0  0  0
  9 10  1  0  0  0  0
  9 11  1  0  0  0  0
  9 23  1  0  0  0  0
 10 12  1  0  0  0  0
 10 24  1  0  0  0  0
 10 25  1  0  0  0  0
 11 26  1  0  0  0  0
 12 14  1  0  0  0  0
 14 15  2  0  0  0  0
 14 16  1  0  0  0  0
 16 27  1  0  0  0  0
 16 28  1  0  0  0  0
M  END
>  <DRUGBANK_ID>
DB14656

>  <SECONDARY_ACCESSION_NUMBERS>
DBSALT001343

>  <COMMON_NAME>
Chlorphenesin carbamate

>  <CAS_NUMBER>
886-74-8

>  <UNII>
57U5YI11WP

>  <SYNONYMS>
1,2-propanediol-3-(p-chlorophenoxy)-1-carbamate; 3-(4-chlorophenoxy)-1,2-propanediol-1-carbamate; 3-(p-chlorophenoxy)-1,2-propanediol 1-carbamate; 3-(p-chlorophenoxy)-2-hydroxypropyl carbamate; carbamic acid 3-(p-chlorophenoxy)-2-hydroxypropyl ester; Chlorphenesin carbamate

$$$$
