
 OpenBabel10282417072D

 13 12  0  0  0  0  0  0  0  0999 V2000
   -1.4289   -0.6187    0.0000 N   0  0  0  0  0  0  0  0  0  0  0  0
   -0.7145   -0.2062    0.0000 C   0  0  0  0  0  0  0  0  0  0  0  0
    0.0000   -0.6187    0.0000 C   0  0  0  0  0  0  0  0  0  0  0  0
    1.4289   -0.6187    0.0000 O   0  0  0  0  0  0  0  0  0  0  0  0
    0.7145   -0.2062    0.0000 C   0  0  0  0  0  0  0  0  0  0  0  0
    0.7145    0.6187    0.0000 O   0  0  0  0  0  0  0  0  0  0  0  0
   -2.3123   -0.1087    0.0000 H   0  0  0  0  0  0  0  0  0  0  0  0
   -1.4289   -1.6387    0.0000 H   0  0  0  0  0  0  0  0  0  0  0  0
   -0.7145    0.8638    0.0000 H   0  0  0  0  0  0  0  0  0  0  0  0
    0.2121    0.3288    0.0000 H   0  0  0  0  0  0  0  0  0  0  0  0
    0.0000   -1.6887    0.0000 H   0  0  0  0  0  0  0  0  0  0  0  0
    0.9266   -1.1537    0.0000 H   0  0  0  0  0  0  0  0  0  0  0  0
    1.4289   -1.5557    0.0000 H   0  0  0  0  0  0  0  0  0  0  0  0
  1  7  1  0  0  0  0
  1  8  1  0  0  0  0
  2  1  1  0  0  0  0
  2  9  1  0  0  0  0
  2 10  1  0  0  0  0
  3  2  1  0  0  0  0
  3  5  1  0  0  0  0
  3 11  1  0  0  0  0
  3 12  1  0  0  0  0
  4  5  1  0  0  0  0
  4 13  1  0  0  0  0
  5  6  2  0  0  0  0
M  END
>  <DRUGBANK_ID>
DB03107

>  <SECONDARY_ACCESSION_NUMBERS>
EXPT00624

>  <COMMON_NAME>
beta-Alanine

>  <CAS_NUMBER>
107-95-9

>  <UNII>
11P2JDE17B

>  <SYNONYMS>
3-aminopropanoic acid; 3-aminopropionic acid; beta-Alanine; β-alanine; β-aminopropionic acid; ω-aminopropionic acid

$$$$
