
 OpenBabel10282417072D

106109  0  0  0  0  0  0  0  0999 V2000
   -9.0377   -1.3693    0.0000 C   0  0  0  0  0  0  0  0  0  0  0  0
   -1.1785   -0.1318    0.0000 C   0  0  0  0  0  0  0  0  0  0  0  0
   -3.5061    2.1501    0.0000 C   0  0  0  0  0  0  0  0  0  0  0  0
   -4.5667    2.1501    0.0000 C   0  0  0  0  0  0  0  0  0  0  0  0
   -8.3232   -0.9568    0.0000 C   0  0  0  0  0  0  0  0  0  0  0  0
   -7.6088   -1.3693    0.0000 C   0  0  0  0  0  0  0  0  0  0  0  0
   -6.8943   -0.9568    0.0000 C   0  0  0  0  0  0  0  0  0  0  0  0
   -6.1798   -1.3693    0.0000 C   0  0  0  0  0  0  0  0  0  0  0  0
   -1.8930    1.1056    0.0000 C   0  0  0  0  0  0  0  0  0  0  0  0
   -2.6075    1.5181    0.0000 C   0  0  0  0  0  0  0  0  0  0  0  0
   -2.6075   -0.1318    0.0000 C   0  0  0  0  0  0  0  0  0  0  0  0
   -4.7509   -1.3693    0.0000 C   0  0  0  0  0  0  0  0  0  0  0  0
   -5.4653   -0.1318    0.0000 C   0  0  0  0  0  0  0  0  0  0  0  0
   -1.8930    0.2806    0.0000 C   0  0  0  0  0  0  0  0  0  0  0  0
   -5.4653   -0.9568    0.0000 C   0  0  0  0  0  0  0  0  0  0  0  0
   -3.3219    0.2806    0.0000 C   0  0  2  0  0  0  0  0  0  0  0  0
   -3.3219    1.1056    0.0000 C   0  0  2  0  0  0  0  0  0  0  0  0
   -4.0364   -0.9568    0.0000 C   0  0  0  0  0  0  0  0  0  0  0  0
   -4.7509    0.2806    0.0000 C   0  0  0  0  0  0  0  0  0  0  0  0
   -4.0364   -0.1318    0.0000 C   0  0  0  0  0  0  0  0  0  0  0  0
   -4.0364    1.5181    0.0000 C   0  0  0  0  0  0  0  0  0  0  0  0
   -3.3219   -1.3693    0.0000 O   0  0  0  0  0  0  0  0  0  0  0  0
   -4.7509    1.1056    0.0000 O   0  0  0  0  0  0  0  0  0  0  0  0
    1.1785    1.5623    0.0000 C   0  0  0  0  0  0  0  0  0  0  0  0
    5.4653   -0.9126    0.0000 C   0  0  0  0  0  0  0  0  0  0  0  0
    6.1798   -2.1501    0.0000 C   0  0  0  0  0  0  0  0  0  0  0  0
    9.0377    0.3248    0.0000 C   0  0  0  0  0  0  0  0  0  0  0  0
    1.8930    1.1498    0.0000 C   0  0  0  0  0  0  0  0  0  0  0  0
    2.6075    1.5623    0.0000 C   0  0  0  0  0  0  0  0  0  0  0  0
    3.3219    1.1498    0.0000 C   0  0  0  0  0  0  0  0  0  0  0  0
    4.0364    1.5623    0.0000 C   0  0  0  0  0  0  0  0  0  0  0  0
    8.3232   -0.9126    0.0000 C   0  0  0  0  0  0  0  0  0  0  0  0
    7.6088   -1.3251    0.0000 C   0  0  0  0  0  0  0  0  0  0  0  0
    7.6088    0.3248    0.0000 C   0  0  0  0  0  0  0  0  0  0  0  0
    5.4653    1.5623    0.0000 C   0  0  0  0  0  0  0  0  0  0  0  0
    4.7509    0.3248    0.0000 C   0  0  0  0  0  0  0  0  0  0  0  0
    6.1798   -1.3251    0.0000 C   0  0  0  0  0  0  0  0  0  0  0  0
    8.3232   -0.0876    0.0000 C   0  0  0  0  0  0  0  0  0  0  0  0
    4.7509    1.1498    0.0000 C   0  0  0  0  0  0  0  0  0  0  0  0
    6.8943   -0.9126    0.0000 C   0  0  1  0  0  0  0  0  0  0  0  0
    6.8943   -0.0876    0.0000 C   0  0  2  0  0  0  0  0  0  0  0  0
    6.1798    1.1498    0.0000 C   0  0  0  0  0  0  0  0  0  0  0  0
    5.4653   -0.0876    0.0000 C   0  0  0  0  0  0  0  0  0  0  0  0
    6.1798    0.3248    0.0000 C   0  0  0  0  0  0  0  0  0  0  0  0
    6.8943    1.5623    0.0000 O   0  0  0  0  0  0  0  0  0  0  0  0
    4.9804   -0.7550    0.0000 O   0  0  0  0  0  0  0  0  0  0  0  0
   -4.0364    0.6931    0.0000 H   0  0  0  0  0  0  0  0  0  0  0  0
   -3.3219    1.9306    0.0000 H   0  0  0  0  0  0  0  0  0  0  0  0
    6.8943   -1.7376    0.0000 H   0  0  0  0  0  0  0  0  0  0  0  0
    6.1798   -0.5001    0.0000 H   0  0  0  0  0  0  0  0  0  0  0  0
   -9.9643   -0.8343    0.0000 H   0  0  0  0  0  0  0  0  0  0  0  0
   -9.0377   -2.4393    0.0000 H   0  0  0  0  0  0  0  0  0  0  0  0
   -9.9644   -1.9043    0.0000 H   0  0  0  0  0  0  0  0  0  0  0  0
   -1.1784   -1.2018    0.0000 H   0  0  0  0  0  0  0  0  0  0  0  0
   -0.2519    0.4033    0.0000 H   0  0  0  0  0  0  0  0  0  0  0  0
   -0.2518   -0.6667    0.0000 H   0  0  0  0  0  0  0  0  0  0  0  0
   -2.4524    1.9643    0.0000 H   0  0  0  0  0  0  0  0  0  0  0  0
   -3.8721    3.1556    0.0000 H   0  0  0  0  0  0  0  0  0  0  0  0
   -2.8183    2.9698    0.0000 H   0  0  0  0  0  0  0  0  0  0  0  0
   -4.2007    3.1556    0.0000 H   0  0  0  0  0  0  0  0  0  0  0  0
   -5.6204    1.9643    0.0000 H   0  0  0  0  0  0  0  0  0  0  0  0
   -5.2545    2.9698    0.0000 H   0  0  0  0  0  0  0  0  0  0  0  0
   -8.3232    0.1132    0.0000 H   0  0  0  0  0  0  0  0  0  0  0  0
   -7.3965   -0.4218    0.0000 H   0  0  0  0  0  0  0  0  0  0  0  0
   -7.6088   -2.4393    0.0000 H   0  0  0  0  0  0  0  0  0  0  0  0
   -6.6822   -1.9043    0.0000 H   0  0  0  0  0  0  0  0  0  0  0  0
   -6.8943    0.1132    0.0000 H   0  0  0  0  0  0  0  0  0  0  0  0
   -5.9677   -0.4218    0.0000 H   0  0  0  0  0  0  0  0  0  0  0  0
   -6.1798   -2.4393    0.0000 H   0  0  0  0  0  0  0  0  0  0  0  0
   -5.2532   -1.9043    0.0000 H   0  0  0  0  0  0  0  0  0  0  0  0
   -0.9664    1.6406    0.0000 H   0  0  0  0  0  0  0  0  0  0  0  0
   -0.9664    0.5706    0.0000 H   0  0  0  0  0  0  0  0  0  0  0  0
   -2.6075    2.5881    0.0000 H   0  0  0  0  0  0  0  0  0  0  0  0
   -3.5342    2.0531    0.0000 H   0  0  0  0  0  0  0  0  0  0  0  0
   -2.6075   -1.1638    0.0000 H   0  0  0  0  0  0  0  0  0  0  0  0
   -4.7509   -2.4013    0.0000 H   0  0  0  0  0  0  0  0  0  0  0  0
   -6.3590    0.3842    0.0000 H   0  0  0  0  0  0  0  0  0  0  0  0
   -3.3219   -2.3063    0.0000 H   0  0  0  0  0  0  0  0  0  0  0  0
    1.1785    2.6323    0.0000 H   0  0  0  0  0  0  0  0  0  0  0  0
    0.2519    1.0273    0.0000 H   0  0  0  0  0  0  0  0  0  0  0  0
    0.2518    2.0973    0.0000 H   0  0  0  0  0  0  0  0  0  0  0  0
    5.4653    0.1194    0.0000 H   0  0  0  0  0  0  0  0  0  0  0  0
    4.5716   -1.4286    0.0000 H   0  0  0  0  0  0  0  0  0  0  0  0
    5.2532   -2.6851    0.0000 H   0  0  0  0  0  0  0  0  0  0  0  0
    7.1064   -2.6851    0.0000 H   0  0  0  0  0  0  0  0  0  0  0  0
    6.1798   -3.2201    0.0000 H   0  0  0  0  0  0  0  0  0  0  0  0
    9.9643   -0.2103    0.0000 H   0  0  0  0  0  0  0  0  0  0  0  0
    9.0378    1.3948    0.0000 H   0  0  0  0  0  0  0  0  0  0  0  0
    9.9644    0.8597    0.0000 H   0  0  0  0  0  0  0  0  0  0  0  0
    1.8930    0.0798    0.0000 H   0  0  0  0  0  0  0  0  0  0  0  0
    2.8196    0.6148    0.0000 H   0  0  0  0  0  0  0  0  0  0  0  0
    2.6075    2.6323    0.0000 H   0  0  0  0  0  0  0  0  0  0  0  0
    3.5342    2.0973    0.0000 H   0  0  0  0  0  0  0  0  0  0  0  0
    3.3219    0.0798    0.0000 H   0  0  0  0  0  0  0  0  0  0  0  0
    4.2485    0.6148    0.0000 H   0  0  0  0  0  0  0  0  0  0  0  0
    4.0364    2.6323    0.0000 H   0  0  0  0  0  0  0  0  0  0  0  0
    4.9630    2.0973    0.0000 H   0  0  0  0  0  0  0  0  0  0  0  0
    9.2499   -1.4476    0.0000 H   0  0  0  0  0  0  0  0  0  0  0  0
    9.2498   -0.3776    0.0000 H   0  0  0  0  0  0  0  0  0  0  0  0
    7.6088   -2.3951    0.0000 H   0  0  0  0  0  0  0  0  0  0  0  0
    6.6822   -1.8601    0.0000 H   0  0  0  0  0  0  0  0  0  0  0  0
    7.6088    1.3568    0.0000 H   0  0  0  0  0  0  0  0  0  0  0  0
    5.4653    2.5943    0.0000 H   0  0  0  0  0  0  0  0  0  0  0  0
    3.8572   -0.1912    0.0000 H   0  0  0  0  0  0  0  0  0  0  0  0
    7.7058    1.0938    0.0000 H   0  0  0  0  0  0  0  0  0  0  0  0
    4.0485   -0.6571    0.0000 H   0  0  0  0  0  0  0  0  0  0  0  0
  1 51  1  0  0  0  0
  1 52  1  0  0  0  0
  1 53  1  0  0  0  0
  2 54  1  0  0  0  0
  2 55  1  0  0  0  0
  2 56  1  0  0  0  0
  3 57  1  0  0  0  0
  3 58  1  0  0  0  0
  3 59  1  0  0  0  0
  4 60  1  0  0  0  0
  4 61  1  0  0  0  0
  4 62  1  0  0  0  0
  5  1  1  0  0  0  0
  5 63  1  0  0  0  0
  5 64  1  0  0  0  0
  6  5  1  0  0  0  0
  6 65  1  0  0  0  0
  6 66  1  0  0  0  0
  7  6  1  0  0  0  0
  7 67  1  0  0  0  0
  7 68  1  0  0  0  0
  8  7  1  0  0  0  0
  8 69  1  0  0  0  0
  8 70  1  0  0  0  0
  9 71  1  0  0  0  0
  9 72  1  0  0  0  0
 10  9  1  0  0  0  0
 10 73  1  0  0  0  0
 10 74  1  0  0  0  0
 11 75  1  0  0  0  0
 12 76  1  0  0  0  0
 13 77  1  0  0  0  0
 14  2  1  0  0  0  0
 14  9  1  0  0  0  0
 14 11  2  0  0  0  0
 15  8  1  0  0  0  0
 15 12  2  0  0  0  0
 15 13  1  0  0  0  0
 16 11  1  0  0  0  0
 16 17  1  0  0  0  0
 16 20  1  0  0  0  0
 16 47  1  6  0  0  0
 17 10  1  0  0  0  0
 17 21  1  0  0  0  0
 17 48  1  1  0  0  0
 18 12  1  0  0  0  0
 19 13  2  0  0  0  0
 20 18  2  0  0  0  0
 20 19  1  0  0  0  0
 21  3  1  0  0  0  0
 21  4  1  0  0  0  0
 22 18  1  0  0  0  0
 22 78  1  0  0  0  0
 23 19  1  0  0  0  0
 23 21  1  0  0  0  0
 24 79  1  0  0  0  0
 24 80  1  0  0  0  0
 24 81  1  0  0  0  0
 25 82  1  0  0  0  0
 25 83  1  0  0  0  0
 26 84  1  0  0  0  0
 26 85  1  0  0  0  0
 26 86  1  0  0  0  0
 27 87  1  0  0  0  0
 27 88  1  0  0  0  0
 27 89  1  0  0  0  0
 28 24  1  0  0  0  0
 28 90  1  0  0  0  0
 28 91  1  0  0  0  0
 29 28  1  0  0  0  0
 29 92  1  0  0  0  0
 29 93  1  0  0  0  0
 30 29  1  0  0  0  0
 30 94  1  0  0  0  0
 30 95  1  0  0  0  0
 31 30  1  0  0  0  0
 31 96  1  0  0  0  0
 31 97  1  0  0  0  0
 32 98  1  0  0  0  0
 32 99  1  0  0  0  0
 33 32  1  0  0  0  0
 33100  1  0  0  0  0
 33101  1  0  0  0  0
 34102  1  0  0  0  0
 35103  1  0  0  0  0
 36104  1  0  0  0  0
 37 25  2  0  0  0  0
 37 26  1  0  0  0  0
 38 27  1  0  0  0  0
 38 32  1  0  0  0  0
 38 34  2  0  0  0  0
 39 31  1  0  0  0  0
 39 35  2  0  0  0  0
 39 36  1  0  0  0  0
 40 33  1  0  0  0  0
 40 37  1  0  0  0  0
 40 41  1  0  0  0  0
 40 49  1  6  0  0  0
 41 34  1  0  0  0  0
 41 44  1  0  0  0  0
 41 50  1  1  0  0  0
 42 35  1  0  0  0  0
 43 36  2  0  0  0  0
 44 42  2  0  0  0  0
 44 43  1  0  0  0  0
 45 42  1  0  0  0  0
 45105  1  0  0  0  0
 46 43  1  0  0  0  0
 46106  1  0  0  0  0
M  END
>  <DRUGBANK_ID>
DB14011

>  <COMMON_NAME>
Nabiximols

>  <CAS_NUMBER>
56575-23-6

>  <UNII>
K4H93P747O

>  <SYNONYMS>
Nabiximols

$$$$
