
 OpenBabel10282417072D

 45 44  0  0  1  0  0  0  0  0999 V2000
   -2.0485   -0.2755    0.0000 C   0  0  0  0  0  0  0  0  0  0  0  0
   -2.6005    0.3376    0.0000 C   0  0  0  0  0  0  0  0  0  0  0  0
   -2.1880    1.0521    0.0000 S   0  0  0  0  0  0  0  0  0  0  0  0
   -1.3810    0.8805    0.0000 S   0  0  0  0  0  0  0  0  0  0  0  0
   -1.2948    0.0600    0.0000 C   0  0  2  0  0  0  0  0  0  0  0  0
   -0.5803   -0.3525    0.0000 C   0  0  0  0  0  0  0  0  0  0  0  0
    0.1342    0.0600    0.0000 C   0  0  0  0  0  0  0  0  0  0  0  0
    0.8486   -0.3525    0.0000 C   0  0  0  0  0  0  0  0  0  0  0  0
    1.5631    0.0600    0.0000 C   0  0  0  0  0  0  0  0  0  0  0  0
    2.2776   -0.3525    0.0000 C   0  0  0  0  0  0  0  0  0  0  0  0
    2.9920    0.0600    0.0000 O   0  0  0  0  0  0  0  0  0  0  0  0
    2.2776   -1.1775    0.0000 O   0  0  0  0  0  0  0  0  0  0  0  0
    5.5922   -0.4779    0.0000 C   0  0  0  0  0  0  0  0  0  0  0  0
    6.3067   -0.0654    0.0000 C   0  0  0  0  0  0  0  0  0  0  0  0
    7.0212    0.3471    0.0000 C   0  0  0  0  0  0  0  0  0  0  0  0
    7.0212    1.1721    0.0000 O   0  0  0  0  0  0  0  0  0  0  0  0
    6.7192   -0.7798    0.0000 C   0  0  0  0  0  0  0  0  0  0  0  0
    7.5442   -0.7798    0.0000 O   0  0  0  0  0  0  0  0  0  0  0  0
    5.8942    0.6491    0.0000 N   0  0  0  0  0  0  0  0  0  0  0  0
    4.8778   -0.0654    0.0000 O   0  0  0  0  0  0  0  0  0  0  0  0
   -2.2710   -1.3221    0.0000 H   0  0  0  0  0  0  0  0  0  0  0  0
   -1.2170   -0.9489    0.0000 H   0  0  0  0  0  0  0  0  0  0  0  0
   -3.6646    0.2258    0.0000 H   0  0  0  0  0  0  0  0  0  0  0  0
   -3.1833    1.2350    0.0000 H   0  0  0  0  0  0  0  0  0  0  0  0
   -0.3974    0.6428    0.0000 H   0  0  0  0  0  0  0  0  0  0  0  0
   -0.5803   -1.4225    0.0000 H   0  0  0  0  0  0  0  0  0  0  0  0
    0.3463   -0.8875    0.0000 H   0  0  0  0  0  0  0  0  0  0  0  0
    0.1342    1.1300    0.0000 H   0  0  0  0  0  0  0  0  0  0  0  0
    1.0609    0.5950    0.0000 H   0  0  0  0  0  0  0  0  0  0  0  0
    0.8486   -1.4225    0.0000 H   0  0  0  0  0  0  0  0  0  0  0  0
    1.7752   -0.8875    0.0000 H   0  0  0  0  0  0  0  0  0  0  0  0
    1.5631    1.1300    0.0000 H   0  0  0  0  0  0  0  0  0  0  0  0
    2.4897    0.5950    0.0000 H   0  0  0  0  0  0  0  0  0  0  0  0
    1.4661   -1.6460    0.0000 H   0  0  0  0  0  0  0  0  0  0  0  0
    5.5922   -1.5479    0.0000 H   0  0  0  0  0  0  0  0  0  0  0  0
    4.6655   -1.0129    0.0000 H   0  0  0  0  0  0  0  0  0  0  0  0
    7.9478   -0.1879    0.0000 H   0  0  0  0  0  0  0  0  0  0  0  0
    7.9478    0.8821    0.0000 H   0  0  0  0  0  0  0  0  0  0  0  0
    7.8612    1.6571    0.0000 H   0  0  0  0  0  0  0  0  0  0  0  0
    6.1842   -1.7065    0.0000 H   0  0  0  0  0  0  0  0  0  0  0  0
    7.2542   -1.7064    0.0000 H   0  0  0  0  0  0  0  0  0  0  0  0
    8.0292   -1.6198    0.0000 H   0  0  0  0  0  0  0  0  0  0  0  0
    6.4042    1.5324    0.0000 H   0  0  0  0  0  0  0  0  0  0  0  0
    4.8742    0.6491    0.0000 H   0  0  0  0  0  0  0  0  0  0  0  0
    4.8778    0.9046    0.0000 H   0  0  0  0  0  0  0  0  0  0  0  0
  1  2  1  0  0  0  0
  1  5  1  0  0  0  0
  1 21  1  0  0  0  0
  1 22  1  0  0  0  0
  2  3  1  0  0  0  0
  2 23  1  0  0  0  0
  2 24  1  0  0  0  0
  3  4  1  0  0  0  0
  4  5  1  0  0  0  0
  5  6  1  0  0  0  0
  5 25  1  1  0  0  0
  6  7  1  0  0  0  0
  6 26  1  0  0  0  0
  6 27  1  0  0  0  0
  7  8  1  0  0  0  0
  7 28  1  0  0  0  0
  7 29  1  0  0  0  0
  8  9  1  0  0  0  0
  8 30  1  0  0  0  0
  8 31  1  0  0  0  0
  9 10  1  0  0  0  0
  9 32  1  0  0  0  0
  9 33  1  0  0  0  0
 10 11  2  0  0  0  0
 10 12  1  0  0  0  0
 12 34  1  0  0  0  0
 13 14  1  0  0  0  0
 13 20  1  0  0  0  0
 13 35  1  0  0  0  0
 13 36  1  0  0  0  0
 14 15  1  0  0  0  0
 14 17  1  0  0  0  0
 14 19  1  0  0  0  0
 15 16  1  0  0  0  0
 15 37  1  0  0  0  0
 15 38  1  0  0  0  0
 16 39  1  0  0  0  0
 17 18  1  0  0  0  0
 17 40  1  0  0  0  0
 17 41  1  0  0  0  0
 18 42  1  0  0  0  0
 19 43  1  0  0  0  0
 19 44  1  0  0  0  0
 20 45  1  0  0  0  0
M  END
>  <DRUGBANK_ID>
DB06253

>  <COMMON_NAME>
Thioctic acid tromethamine

>  <CAS_NUMBER>
137314-40-0

>  <UNII>
HK7B1AJA3Q

>  <SYNONYMS>
(R)-5-(1,2-dithiolaln-3-yl)-pentanoic acid tromethamine; Thioctic acid tromethamine

$$$$
