
 OpenBabel10282417072D

 40 40  0  0  0  0  0  0  0  0999 V2000
   -2.5006   -1.1759    0.0000 F   0  0  0  0  0  0  0  0  0  0  0  0
   -0.3572   -0.7635    0.0000 O   0  0  0  0  0  0  0  0  0  0  0  0
   -2.5006    0.4739    0.0000 O   0  0  0  0  0  0  0  0  0  0  0  0
   -0.6591   -1.8904    0.0000 O   0  0  0  0  0  0  0  0  0  0  0  0
    0.3572    1.2989    0.0000 O   0  0  0  0  0  0  0  0  0  0  0  0
    1.0717   -0.7635    0.0000 O   0  0  0  0  0  0  0  0  0  0  0  0
   -1.0717   -2.6050    0.0000 O   0  0  0  0  0  0  0  0  0  0  0  0
    2.5006    0.0614    0.0000 O   0  0  0  0  0  0  0  0  0  0  0  0
   -2.3092   -1.8904    0.0000 O   0  0  0  0  0  0  0  0  0  0  0  0
   -2.5006    1.2989    0.0000 O   0  0  0  0  0  0  0  0  0  0  0  0
   -1.0717    1.2989    0.0000 N   0  0  0  0  0  0  0  0  0  0  0  0
   -1.0717    0.4739    0.0000 C   0  0  1  0  0  0  0  0  0  0  0  0
   -0.3572    0.0614    0.0000 C   0  0  2  0  0  0  0  0  0  0  0  0
   -1.7861    0.0614    0.0000 C   0  0  2  0  0  0  0  0  0  0  0  0
   -1.7861   -0.7635    0.0000 C   0  0  2  0  0  0  0  0  0  0  0  0
   -1.0717   -1.1759    0.0000 C   0  0  1  0  0  0  0  0  0  0  0  0
    0.3572    0.4739    0.0000 C   0  0  1  0  0  0  0  0  0  0  0  0
    1.0717    0.0614    0.0000 C   0  0  1  0  0  0  0  0  0  0  0  0
   -1.4841   -1.8904    0.0000 C   0  0  0  0  0  0  0  0  0  0  0  0
    1.7861    0.4739    0.0000 C   0  0  0  0  0  0  0  0  0  0  0  0
   -1.7861    1.7113    0.0000 C   0  0  0  0  0  0  0  0  0  0  0  0
   -1.7861    2.5364    0.0000 C   0  0  0  0  0  0  0  0  0  0  0  0
    0.3572   -0.3510    0.0000 H   0  0  0  0  0  0  0  0  0  0  0  0
   -2.5006    1.4439    0.0000 H   0  0  0  0  0  0  0  0  0  0  0  0
   -1.1440   -2.7305    0.0000 H   0  0  0  0  0  0  0  0  0  0  0  0
    1.1972    1.7839    0.0000 H   0  0  0  0  0  0  0  0  0  0  0  0
    0.2317   -1.2485    0.0000 H   0  0  0  0  0  0  0  0  0  0  0  0
   -1.5403   -3.4164    0.0000 H   0  0  0  0  0  0  0  0  0  0  0  0
    2.5006   -0.9086    0.0000 H   0  0  0  0  0  0  0  0  0  0  0  0
   -0.2191    1.7912    0.0000 H   0  0  0  0  0  0  0  0  0  0  0  0
   -0.1451    1.0089    0.0000 H   0  0  0  0  0  0  0  0  0  0  0  0
   -1.7861    1.1314    0.0000 H   0  0  0  0  0  0  0  0  0  0  0  0
   -2.7127   -0.2284    0.0000 H   0  0  0  0  0  0  0  0  0  0  0  0
   -0.5695    1.0089    0.0000 H   0  0  0  0  0  0  0  0  0  0  0  0
    0.1451   -0.4736    0.0000 H   0  0  0  0  0  0  0  0  0  0  0  0
    1.7861    1.5439    0.0000 H   0  0  0  0  0  0  0  0  0  0  0  0
    0.8594    1.0089    0.0000 H   0  0  0  0  0  0  0  0  0  0  0  0
   -0.8595    3.0714    0.0000 H   0  0  0  0  0  0  0  0  0  0  0  0
   -2.7127    3.0714    0.0000 H   0  0  0  0  0  0  0  0  0  0  0  0
   -1.7861    3.6064    0.0000 H   0  0  0  0  0  0  0  0  0  0  0  0
  2 13  1  0  0  0  0
  2 16  1  0  0  0  0
  3 24  1  0  0  0  0
  4 25  1  0  0  0  0
  5 26  1  0  0  0  0
  6 27  1  0  0  0  0
  7 19  1  0  0  0  0
  7 28  1  0  0  0  0
  8 20  1  0  0  0  0
  8 29  1  0  0  0  0
  9 19  2  0  0  0  0
 10 21  2  0  0  0  0
 11 21  1  0  0  0  0
 11 30  1  0  0  0  0
 12 11  1  0  0  0  0
 12 13  1  0  0  0  0
 12 14  1  0  0  0  0
 12 31  1  6  0  0  0
 13 17  1  0  0  0  0
 13 23  1  1  0  0  0
 14  3  1  0  0  0  0
 14 15  1  0  0  0  0
 14 32  1  1  0  0  0
 15  1  1  0  0  0  0
 15 16  1  0  0  0  0
 15 33  1  1  0  0  0
 16  4  1  1  0  0  0
 16 19  1  0  0  0  0
 17  5  1  0  0  0  0
 17 18  1  0  0  0  0
 17 34  1  1  0  0  0
 18  6  1  0  0  0  0
 18 20  1  0  0  0  0
 18 35  1  6  0  0  0
 20 36  1  0  0  0  0
 20 37  1  0  0  0  0
 21 22  1  0  0  0  0
 22 38  1  0  0  0  0
 22 39  1  0  0  0  0
 22 40  1  0  0  0  0
M  END
>  <DRUGBANK_ID>
DB04211

>  <SECONDARY_ACCESSION_NUMBERS>
EXPT01499

>  <COMMON_NAME>
5-(acetylamino)-3,5-dideoxy-3-fluoro-D-erythro-alpha-L-manno-non-2-ulopyranosonic acid

$$$$
