
 OpenBabel10282417072D

 21 20  0  0  1  0  0  0  0  0999 V2000
   -2.3645   -1.0164    0.0000 C   0  0  0  0  0  0  0  0  0  0  0  0
   -1.6500   -1.4289    0.0000 C   0  0  0  0  0  0  0  0  0  0  0  0
   -0.9355   -1.0164    0.0000 C   0  0  0  0  0  0  0  0  0  0  0  0
   -0.2211   -1.4289    0.0000 C   0  0  0  0  0  0  0  0  0  0  0  0
    1.2079   -1.4289    0.0000 C   0  0  0  0  0  0  0  0  0  0  0  0
    0.4934   -1.0164    0.0000 C   0  0  1  0  0  0  0  0  0  0  0  0
    0.4934   -0.1914    0.0000 N   0  0  0  0  0  0  0  0  0  0  0  0
    1.9224   -1.0164    0.0000 O   0  0  0  0  0  0  0  0  0  0  0  0
    0.4934   -1.8414    0.0000 H   0  0  0  0  0  0  0  0  0  0  0  0
   -2.3645    0.0536    0.0000 H   0  0  0  0  0  0  0  0  0  0  0  0
   -3.2911   -1.5514    0.0000 H   0  0  0  0  0  0  0  0  0  0  0  0
   -3.2912   -0.4814    0.0000 H   0  0  0  0  0  0  0  0  0  0  0  0
   -1.6500   -2.4989    0.0000 H   0  0  0  0  0  0  0  0  0  0  0  0
   -0.7234   -1.9639    0.0000 H   0  0  0  0  0  0  0  0  0  0  0  0
   -0.9355    0.0536    0.0000 H   0  0  0  0  0  0  0  0  0  0  0  0
   -0.0088   -0.4814    0.0000 H   0  0  0  0  0  0  0  0  0  0  0  0
   -0.2211   -2.4989    0.0000 H   0  0  0  0  0  0  0  0  0  0  0  0
    0.7055   -1.9639    0.0000 H   0  0  0  0  0  0  0  0  0  0  0  0
    1.2079   -2.4609    0.0000 H   0  0  0  0  0  0  0  0  0  0  0  0
    1.3767    0.3186    0.0000 H   0  0  0  0  0  0  0  0  0  0  0  0
   -0.3899    0.3186    0.0000 H   0  0  0  0  0  0  0  0  0  0  0  0
  1 10  1  0  0  0  0
  1 11  1  0  0  0  0
  1 12  1  0  0  0  0
  2  1  1  0  0  0  0
  2 13  1  0  0  0  0
  2 14  1  0  0  0  0
  3  2  1  0  0  0  0
  3 15  1  0  0  0  0
  3 16  1  0  0  0  0
  4  3  1  0  0  0  0
  4 17  1  0  0  0  0
  4 18  1  0  0  0  0
  5 19  1  0  0  0  0
  6  4  1  0  0  0  0
  6  5  1  0  0  0  0
  6  7  1  0  0  0  0
  6  9  1  1  0  0  0
  7 20  1  0  0  0  0
  7 21  1  0  0  0  0
  8  5  2  0  0  0  0
M  END
>  <DRUGBANK_ID>
DB03241

>  <SECONDARY_ACCESSION_NUMBERS>
EXPT02081

>  <COMMON_NAME>
1-Amino-1-Carbonyl Pentane

$$$$
