
 OpenBabel10282417072D

 75 78  0  0  1  0  0  0  0  0999 V2000
    4.4068   -0.6655    0.0000 C   0  0  0  0  0  0  0  0  0  0  0  0
    5.0013   -1.2375    0.0000 C   0  0  0  0  0  0  0  0  0  0  0  0
    4.8031   -2.0383    0.0000 C   0  0  0  0  0  0  0  0  0  0  0  0
    5.7939   -1.0087    0.0000 C   0  0  2  0  0  0  0  0  0  0  0  0
    5.9921   -0.2078    0.0000 N   0  0  0  0  0  0  0  0  0  0  0  0
    6.3884   -1.5807    0.0000 C   0  0  0  0  0  0  0  0  0  0  0  0
    6.1902   -2.3816    0.0000 O   0  0  0  0  0  0  0  0  0  0  0  0
    7.1810   -1.3519    0.0000 O   0  0  0  0  0  0  0  0  0  0  0  0
    7.7755   -1.9239    0.0000 C   0  0  0  0  0  0  0  0  0  0  0  0
    8.5682   -1.6951    0.0000 C   0  0  0  0  0  0  0  0  0  0  0  0
    9.1626   -2.2672    0.0000 C   0  0  2  0  0  0  0  0  0  0  0  0
    9.9553   -2.0383    0.0000 N   0  0  0  0  0  0  0  0  0  0  0  0
   10.1534   -1.2375    0.0000 C   0  0  0  0  0  0  0  0  0  0  0  0
   10.9461   -1.0087    0.0000 O   0  0  0  0  0  0  0  0  0  0  0  0
    9.5589   -0.6655    0.0000 C   0  0  2  0  0  0  0  0  0  0  0  0
    8.7467   -0.8102    0.0000 S   0  0  0  0  0  0  0  0  0  0  0  0
    8.3581   -0.0824    0.0000 C   0  0  0  0  0  0  0  0  0  0  0  0
    8.9302    0.5120    0.0000 C   0  0  0  0  0  0  0  0  0  0  0  0
    9.6723    0.1517    0.0000 N   0  0  0  0  0  0  0  0  0  0  0  0
   10.4000    0.5403    0.0000 S   0  0  0  0  0  0  0  0  0  0  0  0
   10.7887   -0.1874    0.0000 O   0  0  0  0  0  0  0  0  0  0  0  0
   10.0114    1.2681    0.0000 O   0  0  0  0  0  0  0  0  0  0  0  0
   11.1278    0.9289    0.0000 C   0  0  0  0  0  0  0  0  0  0  0  0
   11.1551    1.7535    0.0000 C   0  0  0  0  0  0  0  0  0  0  0  0
   11.8828    2.1421    0.0000 C   0  0  0  0  0  0  0  0  0  0  0  0
   12.5833    1.7062    0.0000 C   0  0  0  0  0  0  0  0  0  0  0  0
   12.5559    0.8816    0.0000 C   0  0  0  0  0  0  0  0  0  0  0  0
   11.8282    0.4930    0.0000 C   0  0  0  0  0  0  0  0  0  0  0  0
   13.3110    2.0948    0.0000 C   0  0  0  0  0  0  0  0  0  0  0  0
   13.3383    2.9193    0.0000 C   0  0  0  0  0  0  0  0  0  0  0  0
   14.0661    3.3079    0.0000 C   0  0  0  0  0  0  0  0  0  0  0  0
   14.7665    2.8720    0.0000 C   0  0  0  0  0  0  0  0  0  0  0  0
   14.7392    2.0474    0.0000 C   0  0  0  0  0  0  0  0  0  0  0  0
   14.0114    1.6588    0.0000 C   0  0  0  0  0  0  0  0  0  0  0  0
    8.9645   -3.0680    0.0000 C   0  0  0  0  0  0  0  0  0  0  0  0
    9.5589   -3.6400    0.0000 C   0  0  0  0  0  0  0  0  0  0  0  0
    9.3608   -4.4409    0.0000 C   0  0  0  0  0  0  0  0  0  0  0  0
    8.5682   -4.6697    0.0000 C   0  0  0  0  0  0  0  0  0  0  0  0
    8.3700   -5.4706    0.0000 F   0  0  0  0  0  0  0  0  0  0  0  0
    7.9737   -4.0977    0.0000 C   0  0  0  0  0  0  0  0  0  0  0  0
    8.1718   -3.2968    0.0000 C   0  0  0  0  0  0  0  0  0  0  0  0
    4.6638    0.3732    0.0000 H   0  0  0  0  0  0  0  0  0  0  0  0
    3.3788   -0.9623    0.0000 H   0  0  0  0  0  0  0  0  0  0  0  0
    3.6357    0.0764    0.0000 H   0  0  0  0  0  0  0  0  0  0  0  0
    5.7723   -1.9794    0.0000 H   0  0  0  0  0  0  0  0  0  0  0  0
    3.7751   -2.3350    0.0000 H   0  0  0  0  0  0  0  0  0  0  0  0
    5.5741   -2.7803    0.0000 H   0  0  0  0  0  0  0  0  0  0  0  0
    4.5460   -3.0770    0.0000 H   0  0  0  0  0  0  0  0  0  0  0  0
    5.0229   -0.2668    0.0000 H   0  0  0  0  0  0  0  0  0  0  0  0
    6.9721    0.0751    0.0000 H   0  0  0  0  0  0  0  0  0  0  0  0
    5.2571    0.4995    0.0000 H   0  0  0  0  0  0  0  0  0  0  0  0
    7.5185   -2.9626    0.0000 H   0  0  0  0  0  0  0  0  0  0  0  0
    8.5465   -2.6658    0.0000 H   0  0  0  0  0  0  0  0  0  0  0  0
    8.8253   -0.6564    0.0000 H   0  0  0  0  0  0  0  0  0  0  0  0
    9.5963   -1.3984    0.0000 H   0  0  0  0  0  0  0  0  0  0  0  0
    9.4196   -1.2285    0.0000 H   0  0  0  0  0  0  0  0  0  0  0  0
   10.6648   -2.7209    0.0000 H   0  0  0  0  0  0  0  0  0  0  0  0
    9.2479   -1.6893    0.0000 H   0  0  0  0  0  0  0  0  0  0  0  0
    7.2983    0.0647    0.0000 H   0  0  0  0  0  0  0  0  0  0  0  0
    8.0080    0.9287    0.0000 H   0  0  0  0  0  0  0  0  0  0  0  0
    8.7426    1.5654    0.0000 H   0  0  0  0  0  0  0  0  0  0  0  0
    9.7836    1.1574    0.0000 H   0  0  0  0  0  0  0  0  0  0  0  0
   10.2789    2.2988    0.0000 H   0  0  0  0  0  0  0  0  0  0  0  0
   11.9169    3.1735    0.0000 H   0  0  0  0  0  0  0  0  0  0  0  0
   13.4320    0.3362    0.0000 H   0  0  0  0  0  0  0  0  0  0  0  0
   11.7940   -0.5384    0.0000 H   0  0  0  0  0  0  0  0  0  0  0  0
   12.4621    3.4646    0.0000 H   0  0  0  0  0  0  0  0  0  0  0  0
   14.1003    4.3393    0.0000 H   0  0  0  0  0  0  0  0  0  0  0  0
   15.6768    3.3581    0.0000 H   0  0  0  0  0  0  0  0  0  0  0  0
   15.6154    1.5021    0.0000 H   0  0  0  0  0  0  0  0  0  0  0  0
   13.9772    0.6274    0.0000 H   0  0  0  0  0  0  0  0  0  0  0  0
   10.5504   -3.3537    0.0000 H   0  0  0  0  0  0  0  0  0  0  0  0
   10.1045   -5.1564    0.0000 H   0  0  0  0  0  0  0  0  0  0  0  0
    6.9822   -4.3840    0.0000 H   0  0  0  0  0  0  0  0  0  0  0  0
    7.4281   -2.5813    0.0000 H   0  0  0  0  0  0  0  0  0  0  0  0
  1  2  1  0  0  0  0
  1 42  1  0  0  0  0
  1 43  1  0  0  0  0
  1 44  1  0  0  0  0
  2  3  1  0  0  0  0
  2 45  1  0  0  0  0
  3 46  1  0  0  0  0
  3 47  1  0  0  0  0
  3 48  1  0  0  0  0
  4  2  1  0  0  0  0
  4  5  1  0  0  0  0
  4  6  1  0  0  0  0
  4 49  1  1  0  0  0
  5 50  1  0  0  0  0
  5 51  1  0  0  0  0
  6  7  2  0  0  0  0
  6  8  1  0  0  0  0
  8  9  1  0  0  0  0
  9 10  1  0  0  0  0
  9 52  1  0  0  0  0
  9 53  1  0  0  0  0
 10 54  1  0  0  0  0
 10 55  1  0  0  0  0
 11 10  1  0  0  0  0
 11 12  1  0  0  0  0
 11 35  1  0  0  0  0
 11 56  1  1  0  0  0
 12 13  1  0  0  0  0
 12 57  1  0  0  0  0
 13 14  2  0  0  0  0
 15 13  1  0  0  0  0
 15 16  1  0  0  0  0
 15 19  1  0  0  0  0
 15 58  1  1  0  0  0
 16 17  1  0  0  0  0
 17 18  1  0  0  0  0
 17 59  1  0  0  0  0
 17 60  1  0  0  0  0
 18 19  1  0  0  0  0
 18 61  1  0  0  0  0
 18 62  1  0  0  0  0
 19 20  1  0  0  0  0
 20 21  2  0  0  0  0
 20 22  2  0  0  0  0
 20 23  1  0  0  0  0
 23 24  2  0  0  0  0
 23 28  1  0  0  0  0
 24 25  1  0  0  0  0
 24 63  1  0  0  0  0
 25 26  2  0  0  0  0
 25 64  1  0  0  0  0
 26 27  1  0  0  0  0
 26 29  1  0  0  0  0
 27 28  2  0  0  0  0
 27 65  1  0  0  0  0
 28 66  1  0  0  0  0
 29 30  2  0  0  0  0
 29 34  1  0  0  0  0
 30 31  1  0  0  0  0
 30 67  1  0  0  0  0
 31 32  2  0  0  0  0
 31 68  1  0  0  0  0
 32 33  1  0  0  0  0
 32 69  1  0  0  0  0
 33 34  2  0  0  0  0
 33 70  1  0  0  0  0
 34 71  1  0  0  0  0
 35 36  2  0  0  0  0
 35 41  1  0  0  0  0
 36 37  1  0  0  0  0
 36 72  1  0  0  0  0
 37 38  2  0  0  0  0
 37 73  1  0  0  0  0
 38 39  1  0  0  0  0
 38 40  1  0  0  0  0
 40 41  2  0  0  0  0
 40 74  1  0  0  0  0
 41 75  1  0  0  0  0
M  END
>  <DRUGBANK_ID>
DB16147

>  <COMMON_NAME>
Ebopiprant

>  <CAS_NUMBER>
2005486-31-5

>  <UNII>
Z1AVZ44TEJ

>  <SYNONYMS>
Ebopiprant

$$$$
