
 OpenBabel10282417072D

 38 40  0  0  1  0  0  0  0  0999 V2000
    1.4657    0.1111    0.0000 C   0  0  0  0  0  0  0  0  0  0  0  0
    0.8336    0.5557    0.0000 N   0  0  0  0  0  0  0  0  0  0  0  0
    2.2020    0.6564    0.0000 C   0  0  0  0  0  0  0  0  0  0  0  0
    1.5456   -0.7329    0.0000 N   0  0  0  0  0  0  0  0  0  0  0  0
    0.0695    0.3022    0.0000 C   0  0  2  0  0  0  0  0  0  0  0  0
    1.1183    1.3823    0.0000 C   0  0  0  0  0  0  0  0  0  0  0  0
    1.9797    1.3789    0.0000 N   0  0  0  0  0  0  0  0  0  0  0  0
    2.9453    0.3230    0.0000 C   0  0  0  0  0  0  0  0  0  0  0  0
    2.3306   -1.0767    0.0000 C   0  0  0  0  0  0  0  0  0  0  0  0
   -0.6043    0.8127    0.0000 O   0  0  0  0  0  0  0  0  0  0  0  0
   -0.1875   -0.4411    0.0000 C   0  0  1  0  0  0  0  0  0  0  0  0
    3.0426   -0.5592    0.0000 N   0  0  0  0  0  0  0  0  0  0  0  0
    3.6052    0.8162    0.0000 O   0  0  0  0  0  0  0  0  0  0  0  0
    2.4209   -1.8999    0.0000 N   0  0  0  0  0  0  0  0  0  0  0  0
   -1.2608    0.3369    0.0000 C   0  0  1  0  0  0  0  0  0  0  0  0
   -1.0108   -0.4411    0.0000 C   0  0  1  0  0  0  0  0  0  0  0  0
    0.2952   -1.1115    0.0000 O   0  0  0  0  0  0  0  0  0  0  0  0
   -2.0457    0.5974    0.0000 C   0  0  0  0  0  0  0  0  0  0  0  0
   -1.2712   -1.2226    0.0000 O   0  0  0  0  0  0  0  0  0  0  0  0
   -2.6675    0.0417    0.0000 O   0  0  0  0  0  0  0  0  0  0  0  0
   -3.4941    0.0417    0.0000 P   0  0  0  0  0  0  0  0  0  0  0  0
   -3.4975   -0.7849    0.0000 O   0  0  0  0  0  0  0  0  0  0  0  0
   -4.3208    0.0417    0.0000 O   0  0  0  0  0  0  0  0  0  0  0  0
   -3.4975    0.8683    0.0000 O   0  0  0  0  0  0  0  0  0  0  0  0
    0.2442    1.3578    0.0000 H   0  0  0  0  0  0  0  0  0  0  0  0
    0.5207    2.2237    0.0000 H   0  0  0  0  0  0  0  0  0  0  0  0
    0.8712   -0.2859    0.0000 H   0  0  0  0  0  0  0  0  0  0  0  0
    3.9430   -0.9572    0.0000 H   0  0  0  0  0  0  0  0  0  0  0  0
    1.6271   -2.4822    0.0000 H   0  0  0  0  0  0  0  0  0  0  0  0
    3.3221   -2.2962    0.0000 H   0  0  0  0  0  0  0  0  0  0  0  0
   -1.4242    1.3943    0.0000 H   0  0  0  0  0  0  0  0  0  0  0  0
   -0.3851   -1.3091    0.0000 H   0  0  0  0  0  0  0  0  0  0  0  0
   -0.1031   -1.9959    0.0000 H   0  0  0  0  0  0  0  0  0  0  0  0
   -2.2629    1.6451    0.0000 H   0  0  0  0  0  0  0  0  0  0  0  0
   -3.0619    0.9325    0.0000 H   0  0  0  0  0  0  0  0  0  0  0  0
   -2.2215   -1.4172    0.0000 H   0  0  0  0  0  0  0  0  0  0  0  0
   -4.3395   -1.2664    0.0000 H   0  0  0  0  0  0  0  0  0  0  0  0
   -4.8058    0.8817    0.0000 H   0  0  0  0  0  0  0  0  0  0  0  0
  1  2  1  0  0  0  0
  1  3  2  0  0  0  0
  1  4  1  0  0  0  0
  2  6  1  0  0  0  0
  3  7  1  0  0  0  0
  3  8  1  0  0  0  0
  4  9  2  0  0  0  0
  5  2  1  0  0  0  0
  5 10  1  0  0  0  0
  5 11  1  0  0  0  0
  5 25  1  6  0  0  0
  6  7  2  0  0  0  0
  6 26  1  0  0  0  0
  8 12  1  0  0  0  0
  8 13  2  0  0  0  0
  9 14  1  0  0  0  0
  9 12  1  0  0  0  0
 10 15  1  0  0  0  0
 11 16  1  0  0  0  0
 11 17  1  0  0  0  0
 11 27  1  1  0  0  0
 12 28  1  0  0  0  0
 14 29  1  0  0  0  0
 14 30  1  0  0  0  0
 15 18  1  0  0  0  0
 15 16  1  0  0  0  0
 15 31  1  6  0  0  0
 16 19  1  0  0  0  0
 16 32  1  1  0  0  0
 17 33  1  0  0  0  0
 18 20  1  0  0  0  0
 18 34  1  0  0  0  0
 18 35  1  0  0  0  0
 19 36  1  0  0  0  0
 20 21  1  0  0  0  0
 21 22  1  0  0  0  0
 21 23  1  0  0  0  0
 21 24  2  0  0  0  0
 22 37  1  0  0  0  0
 23 38  1  0  0  0  0
M  END
>  <DRUGBANK_ID>
DB01972

>  <SECONDARY_ACCESSION_NUMBERS>
EXPT00246

>  <COMMON_NAME>
Guanosine-5'-Monophosphate

>  <CAS_NUMBER>
85-32-5

>  <UNII>
16597955EP

$$$$
