
 OpenBabel10282417072D

 31 32  0  0  1  0  0  0  0  0999 V2000
   -0.1830    1.5291    0.0000 C   0  0  0  0  0  0  0  0  0  0  0  0
    2.1434    5.9411    0.0000 C   0  0  0  0  0  0  0  0  0  0  0  0
    0.3020    2.1965    0.0000 C   0  0  0  0  0  0  0  0  0  0  0  0
    1.4289    5.5286    0.0000 C   0  0  2  0  0  0  0  0  0  0  0  0
    0.7145    5.9411    0.0000 C   0  0  2  0  0  0  0  0  0  0  0  0
   -0.0000    5.5286    0.0000 C   0  0  1  0  0  0  0  0  0  0  0  0
   -0.0000    4.7036    0.0000 C   0  0  2  0  0  0  0  0  0  0  0  0
    0.7145    4.2911    0.0000 C   0  0  2  0  0  0  0  0  0  0  0  0
    0.7145    3.4661    0.0000 C   0  0  0  0  0  0  0  0  0  0  0  0
    1.1270    2.1965    0.0000 N   0  0  0  0  0  0  0  0  0  0  0  0
    1.3819    2.9812    0.0000 N   0  0  0  0  0  0  0  0  0  0  0  0
    2.1434    6.7661    0.0000 O   0  0  0  0  0  0  0  0  0  0  0  0
    0.7145    6.7661    0.0000 O   0  0  0  0  0  0  0  0  0  0  0  0
   -0.7145    5.9411    0.0000 O   0  0  0  0  0  0  0  0  0  0  0  0
   -0.7145    4.2911    0.0000 O   0  0  0  0  0  0  0  0  0  0  0  0
    0.0470    2.9812    0.0000 O   0  0  0  0  0  0  0  0  0  0  0  0
    1.4289    4.7036    0.0000 O   0  0  0  0  0  0  0  0  0  0  0  0
    1.1468    6.3038    0.0000 H   0  0  0  0  0  0  0  0  0  0  0  0
    1.2448    6.5731    0.0000 H   0  0  0  0  0  0  0  0  0  0  0  0
   -0.0000    6.3536    0.0000 H   0  0  0  0  0  0  0  0  0  0  0  0
   -0.7145    5.1161    0.0000 H   0  0  0  0  0  0  0  0  0  0  0  0
   -0.0000    3.8786    0.0000 H   0  0  0  0  0  0  0  0  0  0  0  0
   -1.2471    1.6411    0.0000 H   0  0  0  0  0  0  0  0  0  0  0  0
    0.2521    0.5516    0.0000 H   0  0  0  0  0  0  0  0  0  0  0  0
   -0.8120    0.6635    0.0000 H   0  0  0  0  0  0  0  0  0  0  0  0
    3.0700    5.4061    0.0000 H   0  0  0  0  0  0  0  0  0  0  0  0
    3.0700    6.4761    0.0000 H   0  0  0  0  0  0  0  0  0  0  0  0
    2.9834    7.2511    0.0000 H   0  0  0  0  0  0  0  0  0  0  0  0
    1.5545    7.2511    0.0000 H   0  0  0  0  0  0  0  0  0  0  0  0
   -0.7145    6.9111    0.0000 H   0  0  0  0  0  0  0  0  0  0  0  0
   -1.5545    4.7761    0.0000 H   0  0  0  0  0  0  0  0  0  0  0  0
  1 23  1  0  0  0  0
  1 24  1  0  0  0  0
  1 25  1  0  0  0  0
  2 26  1  0  0  0  0
  2 27  1  0  0  0  0
  3  1  1  0  0  0  0
  4  2  1  0  0  0  0
  4 18  1  6  0  0  0
  5  4  1  0  0  0  0
  5 13  1  0  0  0  0
  5 19  1  1  0  0  0
  6  5  1  0  0  0  0
  6 14  1  0  0  0  0
  6 20  1  6  0  0  0
  7  6  1  0  0  0  0
  7 15  1  0  0  0  0
  7 21  1  1  0  0  0
  8  7  1  0  0  0  0
  8  9  1  0  0  0  0
  8 22  1  6  0  0  0
 10  3  2  0  0  0  0
 11  9  2  0  0  0  0
 11 10  1  0  0  0  0
 12  2  1  0  0  0  0
 12 28  1  0  0  0  0
 13 29  1  0  0  0  0
 14 30  1  0  0  0  0
 15 31  1  0  0  0  0
 16  3  1  0  0  0  0
 16  9  1  0  0  0  0
 17  4  1  0  0  0  0
 17  8  1  0  0  0  0
M  END
>  <DRUGBANK_ID>
DB03354

>  <SECONDARY_ACCESSION_NUMBERS>
EXPT02455

>  <COMMON_NAME>
2-(Beta-D-Glucopyranosyl)-5-Methyl-1,3,4-Oxadiazole

$$$$
