
 OpenBabel10282417072D

 50 55  0  0  0  0  0  0  0  0999 V2000
   -3.5280   -1.0314    0.0000 C   0  0  0  0  0  0  0  0  0  0  0  0
   -3.1924   -1.7851    0.0000 N   0  0  0  0  0  0  0  0  0  0  0  0
   -2.3854   -1.9566    0.0000 C   0  0  0  0  0  0  0  0  0  0  0  0
   -2.2992   -2.7771    0.0000 C   0  0  0  0  0  0  0  0  0  0  0  0
   -3.0529   -3.1126    0.0000 C   0  0  0  0  0  0  0  0  0  0  0  0
   -3.6049   -2.4995    0.0000 N   0  0  0  0  0  0  0  0  0  0  0  0
   -1.5847   -3.1896    0.0000 C   0  0  0  0  0  0  0  0  0  0  0  0
   -0.8702   -2.7771    0.0000 C   0  0  0  0  0  0  0  0  0  0  0  0
   -0.1558   -3.1896    0.0000 N   0  0  0  0  0  0  0  0  0  0  0  0
   -0.1558   -4.0146    0.0000 C   0  0  0  0  0  0  0  0  0  0  0  0
   -0.8702   -4.4271    0.0000 C   0  0  0  0  0  0  0  0  0  0  0  0
   -1.5847   -4.0146    0.0000 C   0  0  0  0  0  0  0  0  0  0  0  0
    0.6288   -4.2695    0.0000 N   0  0  0  0  0  0  0  0  0  0  0  0
    1.1138   -3.6021    0.0000 C   0  0  0  0  0  0  0  0  0  0  0  0
    0.6288   -2.9346    0.0000 C   0  0  0  0  0  0  0  0  0  0  0  0
    0.8838   -2.1500    0.0000 S   0  0  0  0  0  0  0  0  0  0  0  0
    1.6684   -2.4049    0.0000 O   0  0  0  0  0  0  0  0  0  0  0  0
    0.0992   -1.8951    0.0000 O   0  0  0  0  0  0  0  0  0  0  0  0
    1.1387   -1.3654    0.0000 N   0  0  0  0  0  0  0  0  0  0  0  0
    0.6538   -0.6979    0.0000 N   0  0  0  0  0  0  0  0  0  0  0  0
    1.1387   -0.0305    0.0000 C   0  0  0  0  0  0  0  0  0  0  0  0
    1.9233   -0.2854    0.0000 C   0  0  0  0  0  0  0  0  0  0  0  0
    2.6378    0.1271    0.0000 N   0  0  0  0  0  0  0  0  0  0  0  0
    3.3523   -0.2854    0.0000 C   0  0  0  0  0  0  0  0  0  0  0  0
    3.3523   -1.1104    0.0000 C   0  0  0  0  0  0  0  0  0  0  0  0
    2.6378   -1.5229    0.0000 C   0  0  0  0  0  0  0  0  0  0  0  0
    1.9233   -1.1104    0.0000 C   0  0  0  0  0  0  0  0  0  0  0  0
    4.0668   -1.5229    0.0000 C   0  0  0  0  0  0  0  0  0  0  0  0
    4.8204   -1.1874    0.0000 C   0  0  0  0  0  0  0  0  0  0  0  0
    5.3725   -1.8005    0.0000 N   0  0  0  0  0  0  0  0  0  0  0  0
    6.1929   -1.7142    0.0000 C   0  0  0  0  0  0  0  0  0  0  0  0
    4.9600   -2.5150    0.0000 N   0  0  0  0  0  0  0  0  0  0  0  0
    4.1530   -2.3434    0.0000 C   0  0  0  0  0  0  0  0  0  0  0  0
   -2.8991   -0.1657    0.0000 H   0  0  0  0  0  0  0  0  0  0  0  0
   -4.5921   -0.9196    0.0000 H   0  0  0  0  0  0  0  0  0  0  0  0
   -3.9632   -0.0539    0.0000 H   0  0  0  0  0  0  0  0  0  0  0  0
   -1.6185   -1.2661    0.0000 H   0  0  0  0  0  0  0  0  0  0  0  0
   -3.2675   -4.1220    0.0000 H   0  0  0  0  0  0  0  0  0  0  0  0
   -0.8702   -1.7451    0.0000 H   0  0  0  0  0  0  0  0  0  0  0  0
   -0.8702   -5.4591    0.0000 H   0  0  0  0  0  0  0  0  0  0  0  0
   -2.4784   -4.5306    0.0000 H   0  0  0  0  0  0  0  0  0  0  0  0
    2.1458   -3.6021    0.0000 H   0  0  0  0  0  0  0  0  0  0  0  0
    0.8198    0.9510    0.0000 H   0  0  0  0  0  0  0  0  0  0  0  0
    4.2460    0.2306    0.0000 H   0  0  0  0  0  0  0  0  0  0  0  0
    2.6378   -2.5549    0.0000 H   0  0  0  0  0  0  0  0  0  0  0  0
    5.0350   -0.1779    0.0000 H   0  0  0  0  0  0  0  0  0  0  0  0
    6.8219   -2.5798    0.0000 H   0  0  0  0  0  0  0  0  0  0  0  0
    6.6280   -0.7367    0.0000 H   0  0  0  0  0  0  0  0  0  0  0  0
    7.2570   -1.6023    0.0000 H   0  0  0  0  0  0  0  0  0  0  0  0
    3.3860   -3.0339    0.0000 H   0  0  0  0  0  0  0  0  0  0  0  0
  1  2  1  0  0  0  0
  1 34  1  0  0  0  0
  1 35  1  0  0  0  0
  1 36  1  0  0  0  0
  2  3  1  0  0  0  0
  2  6  1  0  0  0  0
  3  4  2  0  0  0  0
  3 37  1  0  0  0  0
  4  5  1  0  0  0  0
  4  7  1  0  0  0  0
  5  6  2  0  0  0  0
  5 38  1  0  0  0  0
  7  8  2  0  0  0  0
  7 12  1  0  0  0  0
  8  9  1  0  0  0  0
  8 39  1  0  0  0  0
  9 10  1  0  0  0  0
  9 15  1  0  0  0  0
 10 11  1  0  0  0  0
 10 13  2  0  0  0  0
 11 12  2  0  0  0  0
 11 40  1  0  0  0  0
 12 41  1  0  0  0  0
 13 14  1  0  0  0  0
 14 15  2  0  0  0  0
 14 42  1  0  0  0  0
 15 16  1  0  0  0  0
 16 17  2  0  0  0  0
 16 18  2  0  0  0  0
 16 19  1  0  0  0  0
 19 20  1  0  0  0  0
 19 27  1  0  0  0  0
 20 21  2  0  0  0  0
 21 22  1  0  0  0  0
 21 43  1  0  0  0  0
 22 23  2  0  0  0  0
 22 27  1  0  0  0  0
 23 24  1  0  0  0  0
 24 25  2  0  0  0  0
 24 44  1  0  0  0  0
 25 26  1  0  0  0  0
 25 28  1  0  0  0  0
 26 27  2  0  0  0  0
 26 45  1  0  0  0  0
 28 29  2  0  0  0  0
 28 33  1  0  0  0  0
 29 30  1  0  0  0  0
 29 46  1  0  0  0  0
 30 31  1  0  0  0  0
 30 32  1  0  0  0  0
 31 47  1  0  0  0  0
 31 48  1  0  0  0  0
 31 49  1  0  0  0  0
 32 33  2  0  0  0  0
 33 50  1  0  0  0  0
M  END
>  <DRUGBANK_ID>
DB15630

>  <COMMON_NAME>
Glumetinib

>  <CAS_NUMBER>
1642581-63-2

>  <UNII>
7JTT036WGX

>  <SYNONYMS>
6-(1-methyl-1h-pyrazol-4-yl)-1-((6-(1-methyl-1h-pyrazol-4-yl)imidazo(1,2-a)pyridin-3-yl)sulfonyl)-1h-pyrazolo(4,3-b)pyridine

$$$$
