44112
 OpenBabel10282417072D

 56 58  0  0  1  0  0  0  0  0999 V2000
    5.2224    0.9875    0.0000 O   0  0  0  0  0  0  0  0  0  0  0  0
    5.2224   -0.6625    0.0000 O   0  0  0  0  0  0  0  0  0  0  0  0
    4.5080    2.2251    0.0000 O   0  0  0  0  0  0  0  0  0  0  0  0
    3.0790    0.5750    0.0000 N   0  0  0  0  0  0  0  0  0  0  0  0
    6.7176   -2.9764    0.0000 N   0  0  0  0  0  0  0  0  0  0  0  0
    2.3645    0.9875    0.0000 C   0  0  0  0  0  0  0  0  0  0  0  0
    3.7935    0.9875    0.0000 C   0  0  0  0  0  0  0  0  0  0  0  0
    4.5080    0.5750    0.0000 C   0  0  3  0  0  0  0  0  0  0  0  0
    1.6500    1.4001    0.0000 C   0  0  0  0  0  0  0  0  0  0  0  0
    2.7770    1.7020    0.0000 C   0  0  0  0  0  0  0  0  0  0  0  0
    1.9520    0.2731    0.0000 C   0  0  0  0  0  0  0  0  0  0  0  0
    4.5080   -0.2500    0.0000 C   0  0  0  0  0  0  0  0  0  0  0  0
    5.9370   -1.9000    0.0000 C   0  0  0  0  0  0  0  0  0  0  0  0
    5.2224   -1.4875    0.0000 C   0  0  0  0  0  0  0  0  0  0  0  0
    5.9370   -2.7250    0.0000 C   0  0  0  0  0  0  0  0  0  0  0  0
    6.7176   -1.6486    0.0000 C   0  0  0  0  0  0  0  0  0  0  0  0
    7.1991   -2.3125    0.0000 C   0  0  0  0  0  0  0  0  0  0  0  0
    4.5080   -1.9000    0.0000 C   0  0  0  0  0  0  0  0  0  0  0  0
    5.2224   -3.1375    0.0000 C   0  0  0  0  0  0  0  0  0  0  0  0
    5.2224    1.8126    0.0000 C   0  0  0  0  0  0  0  0  0  0  0  0
    4.5080   -2.7250    0.0000 C   0  0  0  0  0  0  0  0  0  0  0  0
    8.0241   -2.3125    0.0000 C   0  0  0  0  0  0  0  0  0  0  0  0
    5.9370    2.2251    0.0000 C   0  0  0  0  0  0  0  0  0  0  0  0
    6.6515    1.8126    0.0000 C   0  0  0  0  0  0  0  0  0  0  0  0
    5.9370    3.0501    0.0000 C   0  0  0  0  0  0  0  0  0  0  0  0
    7.3659    2.2251    0.0000 C   0  0  0  0  0  0  0  0  0  0  0  0
    6.6515    3.4626    0.0000 C   0  0  0  0  0  0  0  0  0  0  0  0
    7.3659    3.0501    0.0000 C   0  0  0  0  0  0  0  0  0  0  0  0
    3.0790   -0.4450    0.0000 H   0  0  0  0  0  0  0  0  0  0  0  0
    7.0234   -3.9122    0.0000 H   0  0  0  0  0  0  0  0  0  0  0  0
    3.7935    2.0575    0.0000 H   0  0  0  0  0  0  0  0  0  0  0  0
    4.7201    1.5225    0.0000 H   0  0  0  0  0  0  0  0  0  0  0  0
    4.5080    1.6450    0.0000 H   0  0  0  0  0  0  0  0  0  0  0  0
    1.6501    2.4701    0.0000 H   0  0  0  0  0  0  0  0  0  0  0  0
    0.7233    0.8652    0.0000 H   0  0  0  0  0  0  0  0  0  0  0  0
    0.7234    1.9352    0.0000 H   0  0  0  0  0  0  0  0  0  0  0  0
    3.8470    1.7020    0.0000 H   0  0  0  0  0  0  0  0  0  0  0  0
    2.2420    2.6286    0.0000 H   0  0  0  0  0  0  0  0  0  0  0  0
    3.3120    2.6287    0.0000 H   0  0  0  0  0  0  0  0  0  0  0  0
    0.8820    0.2731    0.0000 H   0  0  0  0  0  0  0  0  0  0  0  0
    2.4870   -0.6536    0.0000 H   0  0  0  0  0  0  0  0  0  0  0  0
    1.4170   -0.6535    0.0000 H   0  0  0  0  0  0  0  0  0  0  0  0
    3.5813   -0.7850    0.0000 H   0  0  0  0  0  0  0  0  0  0  0  0
    3.5814    0.2850    0.0000 H   0  0  0  0  0  0  0  0  0  0  0  0
    7.0382   -0.6677    0.0000 H   0  0  0  0  0  0  0  0  0  0  0  0
    3.6143   -1.3840    0.0000 H   0  0  0  0  0  0  0  0  0  0  0  0
    5.2223   -4.1695    0.0000 H   0  0  0  0  0  0  0  0  0  0  0  0
    3.6143   -3.2410    0.0000 H   0  0  0  0  0  0  0  0  0  0  0  0
    8.5591   -3.2391    0.0000 H   0  0  0  0  0  0  0  0  0  0  0  0
    8.5591   -1.3859    0.0000 H   0  0  0  0  0  0  0  0  0  0  0  0
    9.0941   -2.3125    0.0000 H   0  0  0  0  0  0  0  0  0  0  0  0
    6.6515    0.7806    0.0000 H   0  0  0  0  0  0  0  0  0  0  0  0
    5.0433    3.5661    0.0000 H   0  0  0  0  0  0  0  0  0  0  0  0
    8.2596    1.7091    0.0000 H   0  0  0  0  0  0  0  0  0  0  0  0
    6.6515    4.4946    0.0000 H   0  0  0  0  0  0  0  0  0  0  0  0
    8.2596    3.5661    0.0000 H   0  0  0  0  0  0  0  0  0  0  0  0
  1  8  1  0  0  0  0
  1 20  1  0  0  0  0
  2 12  1  0  0  0  0
  2 14  1  0  0  0  0
  3 20  2  0  0  0  0
  4  6  1  0  0  0  0
  4  7  1  0  0  0  0
  4 29  1  0  0  0  0
  5 15  1  0  0  0  0
  5 17  1  0  0  0  0
  5 30  1  0  0  0  0
  6  9  1  0  0  0  0
  6 10  1  0  0  0  0
  6 11  1  0  0  0  0
  7  8  1  0  0  0  0
  7 31  1  0  0  0  0
  7 32  1  0  0  0  0
  8 12  1  0  0  0  0
  8 33  1  0  0  0  0
  9 34  1  0  0  0  0
  9 35  1  0  0  0  0
  9 36  1  0  0  0  0
 10 37  1  0  0  0  0
 10 38  1  0  0  0  0
 10 39  1  0  0  0  0
 11 40  1  0  0  0  0
 11 41  1  0  0  0  0
 11 42  1  0  0  0  0
 12 43  1  0  0  0  0
 12 44  1  0  0  0  0
 13 14  1  0  0  0  0
 13 15  2  0  0  0  0
 13 16  1  0  0  0  0
 14 18  2  0  0  0  0
 15 19  1  0  0  0  0
 16 17  2  0  0  0  0
 16 45  1  0  0  0  0
 17 22  1  0  0  0  0
 18 21  1  0  0  0  0
 18 46  1  0  0  0  0
 19 21  2  0  0  0  0
 19 47  1  0  0  0  0
 20 23  1  0  0  0  0
 21 48  1  0  0  0  0
 22 49  1  0  0  0  0
 22 50  1  0  0  0  0
 22 51  1  0  0  0  0
 23 24  2  0  0  0  0
 23 25  1  0  0  0  0
 24 26  1  0  0  0  0
 24 52  1  0  0  0  0
 25 27  2  0  0  0  0
 25 53  1  0  0  0  0
 26 28  2  0  0  0  0
 26 54  1  0  0  0  0
 27 28  1  0  0  0  0
 27 55  1  0  0  0  0
 28 56  1  0  0  0  0
M  END
>  <DRUGBANK_ID>
DB08807

>  <COMMON_NAME>
Bopindolol

>  <CAS_NUMBER>
62658-63-3

>  <UNII>
KT304VZO57

>  <SYNONYMS>
Bopindolol; Bopindololum

$$$$
