3IB
 OpenBabel10282417072D

 28 29  0  0  0  0  0  0  0  0999 V2000
   -1.9615    0.1646    0.0000 N   0  0  0  0  0  0  0  0  0  0  0  0
   -1.4094    0.7777    0.0000 C   0  0  0  0  0  0  0  0  0  0  0  0
   -0.6558    0.4421    0.0000 C   0  0  0  0  0  0  0  0  0  0  0  0
   -0.1900   -0.9914    0.0000 C   0  0  0  0  0  0  0  0  0  0  0  0
   -0.4449   -1.7761    0.0000 C   0  0  0  0  0  0  0  0  0  0  0  0
   -1.2519   -1.9476    0.0000 C   0  0  0  0  0  0  0  0  0  0  0  0
   -1.8039   -1.3345    0.0000 C   0  0  0  0  0  0  0  0  0  0  0  0
   -1.5490   -0.5499    0.0000 C   0  0  0  0  0  0  0  0  0  0  0  0
   -0.7420   -0.3784    0.0000 C   0  0  0  0  0  0  0  0  0  0  0  0
    0.0587    0.8546    0.0000 C   0  0  0  0  0  0  0  0  0  0  0  0
    0.7732    0.4421    0.0000 C   0  0  0  0  0  0  0  0  0  0  0  0
    1.4877    0.8546    0.0000 C   0  0  0  0  0  0  0  0  0  0  0  0
    2.2021    0.4421    0.0000 C   0  0  0  0  0  0  0  0  0  0  0  0
    2.9166    0.8546    0.0000 O   0  0  0  0  0  0  0  0  0  0  0  0
    2.2021   -0.3829    0.0000 O   0  0  0  0  0  0  0  0  0  0  0  0
   -2.9406    0.2675    0.0000 H   0  0  0  0  0  0  0  0  0  0  0  0
   -1.6239    1.7872    0.0000 H   0  0  0  0  0  0  0  0  0  0  0  0
    0.8194   -0.7768    0.0000 H   0  0  0  0  0  0  0  0  0  0  0  0
    0.2457   -2.5430    0.0000 H   0  0  0  0  0  0  0  0  0  0  0  0
   -1.5708   -2.9291    0.0000 H   0  0  0  0  0  0  0  0  0  0  0  0
   -2.8133   -1.5491    0.0000 H   0  0  0  0  0  0  0  0  0  0  0  0
    0.0587    1.9246    0.0000 H   0  0  0  0  0  0  0  0  0  0  0  0
    0.9853    1.3896    0.0000 H   0  0  0  0  0  0  0  0  0  0  0  0
    0.7732   -0.6279    0.0000 H   0  0  0  0  0  0  0  0  0  0  0  0
    1.6998   -0.0929    0.0000 H   0  0  0  0  0  0  0  0  0  0  0  0
    1.4877    1.9246    0.0000 H   0  0  0  0  0  0  0  0  0  0  0  0
    2.4144    1.3896    0.0000 H   0  0  0  0  0  0  0  0  0  0  0  0
    3.7281    0.3861    0.0000 H   0  0  0  0  0  0  0  0  0  0  0  0
  1  2  1  0  0  0  0
  1  8  1  0  0  0  0
  1 16  1  0  0  0  0
  2  3  2  0  0  0  0
  2 17  1  0  0  0  0
  3  9  1  0  0  0  0
  3 10  1  0  0  0  0
  4  5  2  0  0  0  0
  4  9  1  0  0  0  0
  4 18  1  0  0  0  0
  5  6  1  0  0  0  0
  5 19  1  0  0  0  0
  6  7  2  0  0  0  0
  6 20  1  0  0  0  0
  7  8  1  0  0  0  0
  7 21  1  0  0  0  0
  8  9  2  0  0  0  0
 10 11  1  0  0  0  0
 10 22  1  0  0  0  0
 10 23  1  0  0  0  0
 11 12  1  0  0  0  0
 11 24  1  0  0  0  0
 11 25  1  0  0  0  0
 12 13  1  0  0  0  0
 12 26  1  0  0  0  0
 12 27  1  0  0  0  0
 13 14  1  0  0  0  0
 13 15  2  0  0  0  0
 14 28  1  0  0  0  0
M  END
>  <DRUGBANK_ID>
DB02740

>  <SECONDARY_ACCESSION_NUMBERS>
EXPT00173

>  <COMMON_NAME>
3-Indolebutyric Acid

>  <CAS_NUMBER>
133-32-4

>  <UNII>
061SKE27JP

$$$$
