MGI
 OpenBabel10282417072D

 38 39  0  0  0  0  0  0  0  0999 V2000
   -1.4967    2.8025    0.0000 O   0  0  0  0  0  0  0  0  0  0  0  0
   -0.7822    2.3900    0.0000 C   0  0  0  0  0  0  0  0  0  0  0  0
   -0.0677    2.8025    0.0000 O   0  0  0  0  0  0  0  0  0  0  0  0
   -0.0677    3.6275    0.0000 C   0  0  0  0  0  0  0  0  0  0  0  0
   -0.7822    1.5650    0.0000 C   0  0  0  0  0  0  0  0  0  0  0  0
   -1.4967    1.1525    0.0000 C   0  0  0  0  0  0  0  0  0  0  0  0
   -2.2111    1.5650    0.0000 O   0  0  0  0  0  0  0  0  0  0  0  0
   -1.4967    0.3275    0.0000 C   0  0  0  0  0  0  0  0  0  0  0  0
   -0.0677    1.1525    0.0000 C   0  0  0  0  0  0  0  0  0  0  0  0
    0.6467    1.5650    0.0000 C   0  0  0  0  0  0  0  0  0  0  0  0
   -0.0677    0.3275    0.0000 C   0  0  0  0  0  0  0  0  0  0  0  0
   -0.7822   -0.0850    0.0000 C   0  0  0  0  0  0  0  0  0  0  0  0
   -0.7822   -0.9100    0.0000 O   0  0  0  0  0  0  0  0  0  0  0  0
   -0.0677   -1.3225    0.0000 C   0  0  0  0  0  0  0  0  0  0  0  0
    0.6467   -0.9100    0.0000 C   0  0  0  0  0  0  0  0  0  0  0  0
   -0.0677   -2.1475    0.0000 C   0  0  0  0  0  0  0  0  0  0  0  0
   -0.7822   -2.5600    0.0000 O   0  0  0  0  0  0  0  0  0  0  0  0
    0.6467   -2.5600    0.0000 C   0  0  0  0  0  0  0  0  0  0  0  0
    0.6467   -3.3850    0.0000 O   0  0  0  0  0  0  0  0  0  0  0  0
    1.3612   -2.1475    0.0000 C   0  0  0  0  0  0  0  0  0  0  0  0
    1.3612   -1.3225    0.0000 C   0  0  0  0  0  0  0  0  0  0  0  0
    2.0757   -0.9100    0.0000 C   0  0  0  0  0  0  0  0  0  0  0  0
    0.8589    4.1625    0.0000 H   0  0  0  0  0  0  0  0  0  0  0  0
   -0.9943    4.1625    0.0000 H   0  0  0  0  0  0  0  0  0  0  0  0
   -0.0677    4.6975    0.0000 H   0  0  0  0  0  0  0  0  0  0  0  0
   -2.2111    2.5020    0.0000 H   0  0  0  0  0  0  0  0  0  0  0  0
   -2.3904   -0.1885    0.0000 H   0  0  0  0  0  0  0  0  0  0  0  0
    1.5734    1.0300    0.0000 H   0  0  0  0  0  0  0  0  0  0  0  0
    0.6467    2.6350    0.0000 H   0  0  0  0  0  0  0  0  0  0  0  0
    1.5733    2.1000    0.0000 H   0  0  0  0  0  0  0  0  0  0  0  0
    0.8260   -0.1885    0.0000 H   0  0  0  0  0  0  0  0  0  0  0  0
    0.6467    0.1220    0.0000 H   0  0  0  0  0  0  0  0  0  0  0  0
   -1.5937   -2.0915    0.0000 H   0  0  0  0  0  0  0  0  0  0  0  0
   -0.1648   -3.8535    0.0000 H   0  0  0  0  0  0  0  0  0  0  0  0
    2.2549   -2.6635    0.0000 H   0  0  0  0  0  0  0  0  0  0  0  0
    3.0023   -1.4450    0.0000 H   0  0  0  0  0  0  0  0  0  0  0  0
    2.0757    0.1600    0.0000 H   0  0  0  0  0  0  0  0  0  0  0  0
    3.0024   -0.3750    0.0000 H   0  0  0  0  0  0  0  0  0  0  0  0
  1  2  2  0  0  0  0
  2  3  1  0  0  0  0
  2  5  1  0  0  0  0
  3  4  1  0  0  0  0
  4 23  1  0  0  0  0
  4 24  1  0  0  0  0
  4 25  1  0  0  0  0
  5  9  2  0  0  0  0
  5  6  1  0  0  0  0
  6  8  2  0  0  0  0
  6  7  1  0  0  0  0
  7 26  1  0  0  0  0
  8 12  1  0  0  0  0
  8 27  1  0  0  0  0
  9 10  1  0  0  0  0
  9 11  1  0  0  0  0
 10 28  1  0  0  0  0
 10 29  1  0  0  0  0
 10 30  1  0  0  0  0
 11 12  2  0  0  0  0
 11 31  1  0  0  0  0
 12 13  1  0  0  0  0
 13 14  1  0  0  0  0
 14 15  1  0  0  0  0
 14 16  2  0  0  0  0
 15 21  2  0  0  0  0
 15 32  1  0  0  0  0
 16 18  1  0  0  0  0
 16 17  1  0  0  0  0
 17 33  1  0  0  0  0
 18 20  2  0  0  0  0
 18 19  1  0  0  0  0
 19 34  1  0  0  0  0
 20 21  1  0  0  0  0
 20 35  1  0  0  0  0
 21 22  1  0  0  0  0
 22 36  1  0  0  0  0
 22 37  1  0  0  0  0
 22 38  1  0  0  0  0
M  END
>  <DRUGBANK_ID>
DB08179

>  <COMMON_NAME>
methyl 4-(2,3-dihydroxy-5-methylphenoxy)-2-hydroxy-6-methylbenzoate

>  <UNII>
JWQ46YJR3Q

$$$$
