236
 OpenBabel10282417072D

 32 32  0  0  0  0  0  0  0  0999 V2000
    1.6500   -3.3000    0.0000 Br  0  0  0  0  0  0  0  0  0  0  0  0
    4.5079    3.3000    0.0000 Br  0  0  0  0  0  0  0  0  0  0  0  0
    3.7935   -2.0625    0.0000 O   0  0  0  0  0  0  0  0  0  0  0  0
    2.3645    2.0625    0.0000 O   0  0  0  0  0  0  0  0  0  0  0  0
    3.0790   -0.8250    0.0000 N   0  0  0  0  0  0  0  0  0  0  0  0
    3.0790    0.8250    0.0000 N   0  0  0  0  0  0  0  0  0  0  0  0
    3.7935   -0.4125    0.0000 C   0  0  0  0  0  0  0  0  0  0  0  0
    2.3645   -0.4125    0.0000 C   0  0  0  0  0  0  0  0  0  0  0  0
    3.7935    0.4125    0.0000 C   0  0  0  0  0  0  0  0  0  0  0  0
    2.3645    0.4125    0.0000 C   0  0  0  0  0  0  0  0  0  0  0  0
    3.0790   -1.6500    0.0000 C   0  0  0  0  0  0  0  0  0  0  0  0
    3.0790    1.6500    0.0000 C   0  0  0  0  0  0  0  0  0  0  0  0
    2.3645   -2.0625    0.0000 C   0  0  0  0  0  0  0  0  0  0  0  0
    3.7935    2.0625    0.0000 C   0  0  0  0  0  0  0  0  0  0  0  0
    2.3645   -2.8875    0.0000 C   0  0  0  0  0  0  0  0  0  0  0  0
    3.7935    2.8875    0.0000 C   0  0  0  0  0  0  0  0  0  0  0  0
    4.7201   -0.9475    0.0000 H   0  0  0  0  0  0  0  0  0  0  0  0
    4.7201    0.1225    0.0000 H   0  0  0  0  0  0  0  0  0  0  0  0
    1.4379   -0.9475    0.0000 H   0  0  0  0  0  0  0  0  0  0  0  0
    1.4379    0.1225    0.0000 H   0  0  0  0  0  0  0  0  0  0  0  0
    4.7201    0.9475    0.0000 H   0  0  0  0  0  0  0  0  0  0  0  0
    4.7201   -0.1225    0.0000 H   0  0  0  0  0  0  0  0  0  0  0  0
    1.4379    0.9475    0.0000 H   0  0  0  0  0  0  0  0  0  0  0  0
    1.4379   -0.1225    0.0000 H   0  0  0  0  0  0  0  0  0  0  0  0
    1.4379   -1.5275    0.0000 H   0  0  0  0  0  0  0  0  0  0  0  0
    1.4379   -2.5975    0.0000 H   0  0  0  0  0  0  0  0  0  0  0  0
    4.7201    1.5275    0.0000 H   0  0  0  0  0  0  0  0  0  0  0  0
    4.7201    2.5975    0.0000 H   0  0  0  0  0  0  0  0  0  0  0  0
    3.2911   -3.4225    0.0000 H   0  0  0  0  0  0  0  0  0  0  0  0
    3.2911   -2.3525    0.0000 H   0  0  0  0  0  0  0  0  0  0  0  0
    2.8668    3.4225    0.0000 H   0  0  0  0  0  0  0  0  0  0  0  0
    2.8669    2.3525    0.0000 H   0  0  0  0  0  0  0  0  0  0  0  0
  1 15  1  0  0  0  0
  2 16  1  0  0  0  0
  3 11  2  0  0  0  0
  4 12  2  0  0  0  0
  5  7  1  0  0  0  0
  5  8  1  0  0  0  0
  5 11  1  0  0  0  0
  6  9  1  0  0  0  0
  6 10  1  0  0  0  0
  6 12  1  0  0  0  0
  7  9  1  0  0  0  0
  7 17  1  0  0  0  0
  7 18  1  0  0  0  0
  8 10  1  0  0  0  0
  8 19  1  0  0  0  0
  8 20  1  0  0  0  0
  9 21  1  0  0  0  0
  9 22  1  0  0  0  0
 10 23  1  0  0  0  0
 10 24  1  0  0  0  0
 11 13  1  0  0  0  0
 12 14  1  0  0  0  0
 13 15  1  0  0  0  0
 13 25  1  0  0  0  0
 13 26  1  0  0  0  0
 14 16  1  0  0  0  0
 14 27  1  0  0  0  0
 14 28  1  0  0  0  0
 15 29  1  0  0  0  0
 15 30  1  0  0  0  0
 16 31  1  0  0  0  0
 16 32  1  0  0  0  0
M  END
>  <DRUGBANK_ID>
DB00236

>  <SECONDARY_ACCESSION_NUMBERS>
APRD00693

>  <COMMON_NAME>
Pipobroman

>  <CAS_NUMBER>
54-91-1

>  <UNII>
6Q99RDT97R

>  <SYNONYMS>
1,4-bis(3-bromopropionyl)piperazine; N,N-bis-(3-bromopropionyl)-piperazine; Pipobroman; Pipobromanum

$$$$
