
 OpenBabel10282417072D

 44 45  0  0  0  0  0  0  0  0999 V2000
   -4.2499    0.4125    0.0000 C   0  0  0  0  0  0  0  0  0  0  0  0
   -4.9643    0.0011    0.0000 N   0  0  0  0  0  0  0  0  0  0  0  0
   -4.2499    1.2375    0.0000 O   0  0  0  0  0  0  0  0  0  0  0  0
   -3.5354    0.0011    0.0000 C   0  0  0  0  0  0  0  0  0  0  0  0
   -2.8517    0.5066    0.0000 S   0  0  0  0  0  0  0  0  0  0  0  0
   -3.2979   -0.7706    0.0000 C   0  0  0  0  0  0  0  0  0  0  0  0
   -2.1986    0.0011    0.0000 C   0  0  0  0  0  0  0  0  0  0  0  0
   -2.4668   -0.7706    0.0000 C   0  0  0  0  0  0  0  0  0  0  0  0
   -1.3736    0.0011    0.0000 C   0  0  0  0  0  0  0  0  0  0  0  0
   -0.7206   -0.5045    0.0000 N   0  0  0  0  0  0  0  0  0  0  0  0
   -1.1075    0.7727    0.0000 C   0  0  0  0  0  0  0  0  0  0  0  0
   -0.0369    0.0011    0.0000 C   0  0  0  0  0  0  0  0  0  0  0  0
   -0.2743    0.7727    0.0000 S   0  0  0  0  0  0  0  0  0  0  0  0
    0.6776   -0.4125    0.0000 S   0  0  0  0  0  0  0  0  0  0  0  0
    1.3921    0.0011    0.0000 C   0  0  0  0  0  0  0  0  0  0  0  0
    2.1065   -0.4125    0.0000 C   0  0  3  0  0  0  0  0  0  0  0  0
    2.8209    0.0011    0.0000 C   0  0  0  0  0  0  0  0  0  0  0  0
    2.1065   -1.2375    0.0000 O   0  0  0  0  0  0  0  0  0  0  0  0
    3.5354   -0.4125    0.0000 N   0  0  0  0  0  0  0  0  0  0  0  0
    4.2499    0.0011    0.0000 C   0  0  0  0  0  0  0  0  0  0  0  0
    4.9643   -0.4125    0.0000 C   0  0  0  0  0  0  0  0  0  0  0  0
    4.2499    0.8261    0.0000 C   0  0  0  0  0  0  0  0  0  0  0  0
    4.9643    0.4125    0.0000 C   0  0  0  0  0  0  0  0  0  0  0  0
   -5.8164    0.4943    0.0000 H   0  0  0  0  0  0  0  0  0  0  0  0
   -4.9654   -0.9834    0.0000 H   0  0  0  0  0  0  0  0  0  0  0  0
   -3.9110   -1.6007    0.0000 H   0  0  0  0  0  0  0  0  0  0  0  0
   -1.8687   -1.6116    0.0000 H   0  0  0  0  0  0  0  0  0  0  0  0
   -1.7066    1.6130    0.0000 H   0  0  0  0  0  0  0  0  0  0  0  0
    1.3921    1.0711    0.0000 H   0  0  0  0  0  0  0  0  0  0  0  0
    2.3191    0.5355    0.0000 H   0  0  0  0  0  0  0  0  0  0  0  0
    2.1065    0.6575    0.0000 H   0  0  0  0  0  0  0  0  0  0  0  0
    2.8209    1.0711    0.0000 H   0  0  0  0  0  0  0  0  0  0  0  0
    3.7478    0.5356    0.0000 H   0  0  0  0  0  0  0  0  0  0  0  0
    1.2665   -1.7225    0.0000 H   0  0  0  0  0  0  0  0  0  0  0  0
    3.5354   -1.4325    0.0000 H   0  0  0  0  0  0  0  0  0  0  0  0
    4.9630   -1.4825    0.0000 H   0  0  0  0  0  0  0  0  0  0  0  0
    5.8916    0.1214    0.0000 H   0  0  0  0  0  0  0  0  0  0  0  0
    5.8903   -0.9486    0.0000 H   0  0  0  0  0  0  0  0  0  0  0  0
    5.1765    1.3611    0.0000 H   0  0  0  0  0  0  0  0  0  0  0  0
    3.3233    1.3611    0.0000 H   0  0  0  0  0  0  0  0  0  0  0  0
    4.2499    1.8961    0.0000 H   0  0  0  0  0  0  0  0  0  0  0  0
    5.8904   -0.1235    0.0000 H   0  0  0  0  0  0  0  0  0  0  0  0
    4.9655    1.4825    0.0000 H   0  0  0  0  0  0  0  0  0  0  0  0
    5.8915    0.9465    0.0000 H   0  0  0  0  0  0  0  0  0  0  0  0
  1  2  1  0  0  0  0
  1  3  2  0  0  0  0
  1  4  1  0  0  0  0
  2 24  1  0  0  0  0
  2 25  1  0  0  0  0
  4  5  1  0  0  0  0
  4  6  2  0  0  0  0
  5  7  1  0  0  0  0
  6  8  1  0  0  0  0
  6 26  1  0  0  0  0
  7  8  2  0  0  0  0
  7  9  1  0  0  0  0
  8 27  1  0  0  0  0
  9 10  1  0  0  0  0
  9 11  2  0  0  0  0
 10 12  2  0  0  0  0
 11 13  1  0  0  0  0
 11 28  1  0  0  0  0
 12 13  1  0  0  0  0
 12 14  1  0  0  0  0
 14 15  1  0  0  0  0
 15 29  1  0  0  0  0
 15 30  1  0  0  0  0
 16 15  1  0  0  0  0
 16 17  1  0  0  0  0
 16 18  1  0  0  0  0
 16 31  1  0  0  0  0
 17 19  1  0  0  0  0
 17 32  1  0  0  0  0
 17 33  1  0  0  0  0
 18 34  1  0  0  0  0
 19 20  1  0  0  0  0
 19 35  1  0  0  0  0
 20 21  1  0  0  0  0
 20 22  1  0  0  0  0
 20 23  1  0  0  0  0
 21 36  1  0  0  0  0
 21 37  1  0  0  0  0
 21 38  1  0  0  0  0
 22 39  1  0  0  0  0
 22 40  1  0  0  0  0
 22 41  1  0  0  0  0
 23 42  1  0  0  0  0
 23 43  1  0  0  0  0
 23 44  1  0  0  0  0
M  END
>  <DRUGBANK_ID>
DB09204

>  <COMMON_NAME>
Arotinolol

>  <CAS_NUMBER>
68377-92-4

>  <UNII>
394E3P3B99

>  <SYNONYMS>
Arotinolol

$$$$
