
 OpenBabel10282417072D

 20 20  0  0  0  0  0  0  0  0999 V2000
    1.4289   -0.0000    0.0000 C   0  0  0  0  0  0  0  0  0  0  0  0
    1.4289    0.8250    0.0000 C   0  0  0  0  0  0  0  0  0  0  0  0
    0.0000   -0.0000    0.0000 C   0  0  0  0  0  0  0  0  0  0  0  0
    0.7145   -0.4125    0.0000 C   0  0  0  0  0  0  0  0  0  0  0  0
    0.0000    0.8250    0.0000 C   0  0  0  0  0  0  0  0  0  0  0  0
    0.7145    1.2375    0.0000 C   0  0  0  0  0  0  0  0  0  0  0  0
    0.7145   -1.2375    0.0000 As  0  0  0  0  0  0  0  0  0  0  0  0
   -0.7145    1.2375    0.0000 N   0  0  0  0  0  0  0  0  0  0  0  0
    0.7145    2.0625    0.0000 O   0  0  0  0  0  0  0  0  0  0  0  0
    0.7145   -2.0625    0.0000 O   0  0  0  0  0  0  0  0  0  0  0  0
   -0.1105   -1.2375    0.0000 O   0  0  0  0  0  0  0  0  0  0  0  0
    1.5395   -1.2375    0.0000 O   0  0  0  0  0  0  0  0  0  0  0  0
   -0.7145    2.0625    0.0000 O   0  0  0  0  0  0  0  0  0  0  0  0
   -1.4289    0.8250    0.0000 O   0  0  0  0  0  0  0  0  0  0  0  0
    2.3226   -0.5160    0.0000 H   0  0  0  0  0  0  0  0  0  0  0  0
    2.3226    1.3410    0.0000 H   0  0  0  0  0  0  0  0  0  0  0  0
   -0.8937   -0.5160    0.0000 H   0  0  0  0  0  0  0  0  0  0  0  0
    1.5260    2.5310    0.0000 H   0  0  0  0  0  0  0  0  0  0  0  0
   -0.1255   -2.5475    0.0000 H   0  0  0  0  0  0  0  0  0  0  0  0
   -0.5955   -0.3975    0.0000 H   0  0  0  0  0  0  0  0  0  0  0  0
  1 15  1  0  0  0  0
  2  1  2  0  0  0  0
  2 16  1  0  0  0  0
  3 17  1  0  0  0  0
  4  1  1  0  0  0  0
  4  3  2  0  0  0  0
  5  3  1  0  0  0  0
  6  2  1  0  0  0  0
  6  5  2  0  0  0  0
  7  4  1  0  0  0  0
  8  5  1  0  0  0  0
  9  6  1  0  0  0  0
  9 18  1  0  0  0  0
 10  7  1  0  0  0  0
 10 19  1  0  0  0  0
 11  7  1  0  0  0  0
 11 20  1  0  0  0  0
 12  7  2  0  0  0  0
 13  8  2  0  0  0  0
 14  8  2  0  0  0  0
M  END
>  <DRUGBANK_ID>
DB11458

>  <COMMON_NAME>
Roxarsone

>  <CAS_NUMBER>
121-19-7

>  <UNII>
H5GU9YQL7L

>  <SYNONYMS>
2-nitro-1-hydroxybenzene-4-arsonic acid; 3-nitro-4-hydroxybenzenearsonic acid; 3-nitro-4-hydroxyphenylarsonic acid; 4-hydroxy-3-nitrobenzenearsonic acid; 4-hydroxy-3-nitrophenylarsonic acid; Roxarson; Roxarsone; Roxarsonum

$$$$
