Lupeol
 OpenBabel10282417072D

 81 85  0  0  1  0  0  0  0  0999 V2000
    9.5812  -13.7013    0.0000 C   0  0  1  0  0  0  0  0  0  0  0  0
    8.8455  -14.1257    0.0000 C   0  0  1  0  0  0  0  0  0  0  0  0
    7.4023  -14.1257    0.0000 C   0  0  2  0  0  0  0  0  0  0  0  0
    9.5812  -12.8807    0.0000 C   0  0  1  0  0  0  0  0  0  0  0  0
    8.1380  -13.7013    0.0000 C   0  0  1  0  0  0  0  0  0  0  0  0
    7.4023  -14.9464    0.0000 C   0  0  2  0  0  0  0  0  0  0  0  0
   10.2886  -12.4563    0.0000 C   0  0  1  0  0  0  0  0  0  0  0  0
    6.6666  -15.3708    0.0000 C   0  0  0  0  0  0  0  0  0  0  0  0
   10.4867  -11.6357    0.0000 C   0  0  2  0  0  0  0  0  0  0  0  0
   11.0243  -12.8807    0.0000 C   0  0  1  0  0  0  0  0  0  0  0  0
    8.8455  -14.9464    0.0000 C   0  0  0  0  0  0  0  0  0  0  0  0
   10.2886  -14.1257    0.0000 C   0  0  0  0  0  0  0  0  0  0  0  0
    8.8455  -12.4563    0.0000 C   0  0  0  0  0  0  0  0  0  0  0  0
    6.6666  -13.7013    0.0000 C   0  0  0  0  0  0  0  0  0  0  0  0
    8.1380  -12.8807    0.0000 C   0  0  0  0  0  0  0  0  0  0  0  0
    8.1380  -15.3708    0.0000 C   0  0  0  0  0  0  0  0  0  0  0  0
    9.9207  -11.0132    0.0000 C   0  0  0  0  0  0  0  0  0  0  0  0
   11.3072  -11.5508    0.0000 C   0  0  0  0  0  0  0  0  0  0  0  0
    5.9592  -14.9464    0.0000 C   0  0  2  0  0  0  0  0  0  0  0  0
   11.0243  -13.7013    0.0000 C   0  0  0  0  0  0  0  0  0  0  0  0
   11.6468  -12.3148    0.0000 C   0  0  0  0  0  0  0  0  0  0  0  0
    5.9592  -14.1257    0.0000 C   0  0  0  0  0  0  0  0  0  0  0  0
   10.2037  -10.2209    0.0000 C   0  0  0  0  0  0  0  0  0  0  0  0
    9.5812  -14.6917    0.0000 C   0  0  0  0  0  0  0  0  0  0  0  0
    8.8455  -13.2769    0.0000 C   0  0  0  0  0  0  0  0  0  0  0  0
    7.4023  -13.2486    0.0000 C   0  0  0  0  0  0  0  0  0  0  0  0
    5.2235  -15.3991    0.0000 O   0  0  0  0  0  0  0  0  0  0  0  0
    9.1001  -11.1547    0.0000 C   0  0  0  0  0  0  0  0  0  0  0  0
    8.1380  -14.5219    0.0000 H   0  0  0  0  0  0  0  0  0  0  0  0
   10.2886  -13.2486    0.0000 H   0  0  0  0  0  0  0  0  0  0  0  0
    7.5398  -15.7429    0.0000 H   0  0  0  0  0  0  0  0  0  0  0  0
    9.5812  -12.0319    0.0000 H   0  0  0  0  0  0  0  0  0  0  0  0
    7.0730  -16.0888    0.0000 C   0  0  0  0  0  0  0  0  0  0  0  0
    6.2480  -16.0817    0.0000 C   0  0  0  0  0  0  0  0  0  0  0  0
   11.0228  -12.0565    0.0000 C   0  0  0  0  0  0  0  0  0  0  0  0
    9.4501  -11.9010    0.0000 H   0  0  0  0  0  0  0  0  0  0  0  0
    9.7766  -15.4736    0.0000 H   0  0  0  0  0  0  0  0  0  0  0  0
    8.8589  -16.0163    0.0000 H   0  0  0  0  0  0  0  0  0  0  0  0
   10.2794  -15.1957    0.0000 H   0  0  0  0  0  0  0  0  0  0  0  0
   11.2128  -14.6648    0.0000 H   0  0  0  0  0  0  0  0  0  0  0  0
    8.8364  -11.3863    0.0000 H   0  0  0  0  0  0  0  0  0  0  0  0
    7.9122  -11.9330    0.0000 H   0  0  0  0  0  0  0  0  0  0  0  0
    6.6574  -12.6313    0.0000 H   0  0  0  0  0  0  0  0  0  0  0  0
    5.7332  -13.1781    0.0000 H   0  0  0  0  0  0  0  0  0  0  0  0
    7.2069  -12.3535    0.0000 H   0  0  0  0  0  0  0  0  0  0  0  0
    8.1246  -11.8108    0.0000 H   0  0  0  0  0  0  0  0  0  0  0  0
    8.1471  -16.4408    0.0000 H   0  0  0  0  0  0  0  0  0  0  0  0
    9.0713  -15.8941    0.0000 H   0  0  0  0  0  0  0  0  0  0  0  0
   11.8432  -10.6247    0.0000 H   0  0  0  0  0  0  0  0  0  0  0  0
   12.3757  -11.6077    0.0000 H   0  0  0  0  0  0  0  0  0  0  0  0
    5.9652  -16.0164    0.0000 H   0  0  0  0  0  0  0  0  0  0  0  0
   11.9508  -14.2365    0.0000 H   0  0  0  0  0  0  0  0  0  0  0  0
   11.0240  -14.7713    0.0000 H   0  0  0  0  0  0  0  0  0  0  0  0
   12.6939  -12.5351    0.0000 H   0  0  0  0  0  0  0  0  0  0  0  0
   12.3196  -11.4828    0.0000 H   0  0  0  0  0  0  0  0  0  0  0  0
    5.0281  -13.5985    0.0000 H   0  0  0  0  0  0  0  0  0  0  0  0
    5.0348  -14.6646    0.0000 H   0  0  0  0  0  0  0  0  0  0  0  0
   11.2189  -10.0356    0.0000 H   0  0  0  0  0  0  0  0  0  0  0  0
    9.5356   -9.4343    0.0000 H   0  0  0  0  0  0  0  0  0  0  0  0
    8.6546  -15.2267    0.0000 H   0  0  0  0  0  0  0  0  0  0  0  0
   10.5078  -15.2267    0.0000 H   0  0  0  0  0  0  0  0  0  0  0  0
    9.5812  -15.7617    0.0000 H   0  0  0  0  0  0  0  0  0  0  0  0
    9.7721  -12.7419    0.0000 H   0  0  0  0  0  0  0  0  0  0  0  0
    7.9189  -12.7419    0.0000 H   0  0  0  0  0  0  0  0  0  0  0  0
    8.8455  -12.2069    0.0000 H   0  0  0  0  0  0  0  0  0  0  0  0
    8.3289  -12.7136    0.0000 H   0  0  0  0  0  0  0  0  0  0  0  0
    6.4757  -12.7136    0.0000 H   0  0  0  0  0  0  0  0  0  0  0  0
    7.4023  -12.1786    0.0000 H   0  0  0  0  0  0  0  0  0  0  0  0
    4.3702  -14.9378    0.0000 H   0  0  0  0  0  0  0  0  0  0  0  0
    8.4154  -10.3324    0.0000 H   0  0  0  0  0  0  0  0  0  0  0  0
    8.7303  -12.1588    0.0000 H   0  0  0  0  0  0  0  0  0  0  0  0
    8.0457  -11.3365    0.0000 H   0  0  0  0  0  0  0  0  0  0  0  0
    6.5301  -17.0108    0.0000 H   0  0  0  0  0  0  0  0  0  0  0  0
    8.1430  -16.0979    0.0000 H   0  0  0  0  0  0  0  0  0  0  0  0
    7.6001  -17.0200    0.0000 H   0  0  0  0  0  0  0  0  0  0  0  0
    5.1780  -16.0725    0.0000 H   0  0  0  0  0  0  0  0  0  0  0  0
    6.7750  -17.0129    0.0000 H   0  0  0  0  0  0  0  0  0  0  0  0
    5.7051  -17.0037    0.0000 H   0  0  0  0  0  0  0  0  0  0  0  0
   11.9485  -11.5198    0.0000 H   0  0  0  0  0  0  0  0  0  0  0  0
   10.0952  -11.5232    0.0000 H   0  0  0  0  0  0  0  0  0  0  0  0
   11.0209  -10.9865    0.0000 H   0  0  0  0  0  0  0  0  0  0  0  0
  1 24  1  6  0  0  0
  2  1  1  0  0  0  0
  2 25  1  1  0  0  0
  3 26  1  1  0  0  0
  4  1  1  0  0  0  0
  4 32  1  1  0  0  0
  5  2  1  0  0  0  0
  5  3  1  0  0  0  0
  5 29  1  6  0  0  0
  6  3  1  0  0  0  0
  6 31  1  6  0  0  0
  7  4  1  0  0  0  0
  7 30  1  6  0  0  0
  8  6  1  0  0  0  0
  9  7  1  0  0  0  0
  9 17  1  0  0  0  0
  9 36  1  1  0  0  0
 10  7  1  0  0  0  0
 10 35  1  1  0  0  0
 11  2  1  0  0  0  0
 11 37  1  0  0  0  0
 11 38  1  0  0  0  0
 12  1  1  0  0  0  0
 12 39  1  0  0  0  0
 12 40  1  0  0  0  0
 13  4  1  0  0  0  0
 13 41  1  0  0  0  0
 13 42  1  0  0  0  0
 14  3  1  0  0  0  0
 14 43  1  0  0  0  0
 14 44  1  0  0  0  0
 15  5  1  0  0  0  0
 15 13  1  0  0  0  0
 15 45  1  0  0  0  0
 15 46  1  0  0  0  0
 16  6  1  0  0  0  0
 16 11  1  0  0  0  0
 16 47  1  0  0  0  0
 16 48  1  0  0  0  0
 18  9  1  0  0  0  0
 18 49  1  0  0  0  0
 18 50  1  0  0  0  0
 19  8  1  0  0  0  0
 19 27  1  0  0  0  0
 19 51  1  6  0  0  0
 20 10  1  0  0  0  0
 20 12  1  0  0  0  0
 20 52  1  0  0  0  0
 20 53  1  0  0  0  0
 21 10  1  0  0  0  0
 21 18  1  0  0  0  0
 21 54  1  0  0  0  0
 21 55  1  0  0  0  0
 22 14  1  0  0  0  0
 22 19  1  0  0  0  0
 22 56  1  0  0  0  0
 22 57  1  0  0  0  0
 23 17  2  0  0  0  0
 23 58  1  0  0  0  0
 23 59  1  0  0  0  0
 24 60  1  0  0  0  0
 24 61  1  0  0  0  0
 24 62  1  0  0  0  0
 25 63  1  0  0  0  0
 25 64  1  0  0  0  0
 25 65  1  0  0  0  0
 26 66  1  0  0  0  0
 26 67  1  0  0  0  0
 26 68  1  0  0  0  0
 27 69  1  0  0  0  0
 28 17  1  0  0  0  0
 28 70  1  0  0  0  0
 28 71  1  0  0  0  0
 28 72  1  0  0  0  0
 33  8  1  0  0  0  0
 33 73  1  0  0  0  0
 33 74  1  0  0  0  0
 33 75  1  0  0  0  0
 34  8  1  0  0  0  0
 34 76  1  0  0  0  0
 34 77  1  0  0  0  0
 34 78  1  0  0  0  0
 35 79  1  0  0  0  0
 35 80  1  0  0  0  0
 35 81  1  0  0  0  0
M  END
>  <DRUGBANK_ID>
DB12622

>  <COMMON_NAME>
Lupeol

>  <CAS_NUMBER>
545-47-1

>  <UNII>
O268W13H3O

$$$$
