F13
 OpenBabel10282417072D

 31 33  0  0  0  0  0  0  0  0999 V2000
   -1.6881    3.2229    0.0000 F   0  0  0  0  0  0  0  0  0  0  0  0
   -1.6881    2.3979    0.0000 C   0  0  0  0  0  0  0  0  0  0  0  0
   -0.9736    1.9854    0.0000 C   0  0  0  0  0  0  0  0  0  0  0  0
   -2.4025    1.9854    0.0000 C   0  0  0  0  0  0  0  0  0  0  0  0
   -2.4025    1.1604    0.0000 C   0  0  0  0  0  0  0  0  0  0  0  0
   -1.6881    0.7479    0.0000 C   0  0  0  0  0  0  0  0  0  0  0  0
   -0.9736    1.1604    0.0000 C   0  0  0  0  0  0  0  0  0  0  0  0
   -0.2591    0.7479    0.0000 C   0  0  0  0  0  0  0  0  0  0  0  0
    0.4553    1.1604    0.0000 O   0  0  0  0  0  0  0  0  0  0  0  0
   -0.2591   -0.0771    0.0000 N   0  0  0  0  0  0  0  0  0  0  0  0
    0.4553   -0.4896    0.0000 C   0  0  0  0  0  0  0  0  0  0  0  0
    1.1698   -0.0771    0.0000 C   0  0  0  0  0  0  0  0  0  0  0  0
    1.8843   -0.4896    0.0000 C   0  0  0  0  0  0  0  0  0  0  0  0
    1.8843   -1.3146    0.0000 C   0  0  0  0  0  0  0  0  0  0  0  0
    1.1698   -1.7271    0.0000 C   0  0  0  0  0  0  0  0  0  0  0  0
    0.4553   -1.3146    0.0000 C   0  0  0  0  0  0  0  0  0  0  0  0
    1.1698   -2.5521    0.0000 C   0  0  0  0  0  0  0  0  0  0  0  0
    1.8372   -3.0371    0.0000 N   0  0  0  0  0  0  0  0  0  0  0  0
    1.5823   -3.8217    0.0000 N   0  0  0  0  0  0  0  0  0  0  0  0
    0.7573   -3.8217    0.0000 N   0  0  0  0  0  0  0  0  0  0  0  0
    0.5024   -3.0371    0.0000 N   0  0  0  0  0  0  0  0  0  0  0  0
   -0.0799    2.5014    0.0000 H   0  0  0  0  0  0  0  0  0  0  0  0
   -3.2962    2.5014    0.0000 H   0  0  0  0  0  0  0  0  0  0  0  0
   -3.2962    0.6444    0.0000 H   0  0  0  0  0  0  0  0  0  0  0  0
   -1.6881   -0.2841    0.0000 H   0  0  0  0  0  0  0  0  0  0  0  0
   -1.1117   -0.5693    0.0000 H   0  0  0  0  0  0  0  0  0  0  0  0
    1.1698    0.9549    0.0000 H   0  0  0  0  0  0  0  0  0  0  0  0
    2.7780    0.0264    0.0000 H   0  0  0  0  0  0  0  0  0  0  0  0
    2.7780   -1.8306    0.0000 H   0  0  0  0  0  0  0  0  0  0  0  0
   -0.4384   -1.8306    0.0000 H   0  0  0  0  0  0  0  0  0  0  0  0
   -0.4339   -2.7329    0.0000 H   0  0  0  0  0  0  0  0  0  0  0  0
  1  2  1  0  0  0  0
  2  3  2  0  0  0  0
  2  4  1  0  0  0  0
  3  7  1  0  0  0  0
  3 22  1  0  0  0  0
  4  5  2  0  0  0  0
  4 23  1  0  0  0  0
  5  6  1  0  0  0  0
  5 24  1  0  0  0  0
  6  7  2  0  0  0  0
  6 25  1  0  0  0  0
  7  8  1  0  0  0  0
  8  9  2  0  0  0  0
  8 10  1  0  0  0  0
 10 11  1  0  0  0  0
 10 26  1  0  0  0  0
 11 12  2  0  0  0  0
 11 16  1  0  0  0  0
 12 13  1  0  0  0  0
 12 27  1  0  0  0  0
 13 14  2  0  0  0  0
 13 28  1  0  0  0  0
 14 15  1  0  0  0  0
 14 29  1  0  0  0  0
 15 16  2  0  0  0  0
 15 17  1  0  0  0  0
 16 30  1  0  0  0  0
 17 18  2  0  0  0  0
 17 21  1  0  0  0  0
 18 19  1  0  0  0  0
 19 20  2  0  0  0  0
 20 21  1  0  0  0  0
 21 31  1  0  0  0  0
M  END
>  <DRUGBANK_ID>
DB07729

>  <COMMON_NAME>
3-fluoro-N-[3-(1H-tetrazol-5-yl)phenyl]benzamide

$$$$
