33A
 OpenBabel10282417072D

 44 47  0  0  0  0  0  0  0  0999 V2000
    3.2824    2.2578    0.0000 C   0  0  0  0  0  0  0  0  0  0  0  0
    2.5679    2.6703    0.0000 C   0  0  0  0  0  0  0  0  0  0  0  0
    1.8535    2.2578    0.0000 C   0  0  0  0  0  0  0  0  0  0  0  0
    1.8535    1.4328    0.0000 C   0  0  0  0  0  0  0  0  0  0  0  0
    2.5679    1.0203    0.0000 C   0  0  0  0  0  0  0  0  0  0  0  0
    3.2824    1.4328    0.0000 C   0  0  0  0  0  0  0  0  0  0  0  0
    2.5679    0.1953    0.0000 C   0  0  0  0  0  0  0  0  0  0  0  0
    3.9969    2.6703    0.0000 Cl  0  0  0  0  0  0  0  0  0  0  0  0
    1.9005   -0.2896    0.0000 C   0  0  0  0  0  0  0  0  0  0  0  0
    2.1554   -1.0742    0.0000 N   0  0  0  0  0  0  0  0  0  0  0  0
    2.9804   -1.0742    0.0000 N   0  0  0  0  0  0  0  0  0  0  0  0
    3.2354   -0.2896    0.0000 C   0  0  0  0  0  0  0  0  0  0  0  0
    4.0200   -0.0347    0.0000 C   0  0  0  0  0  0  0  0  0  0  0  0
    4.2749    0.7499    0.0000 C   0  0  0  0  0  0  0  0  0  0  0  0
    5.0999    0.7499    0.0000 N   0  0  0  0  0  0  0  0  0  0  0  0
    5.3549   -0.0347    0.0000 C   0  0  0  0  0  0  0  0  0  0  0  0
    4.6874   -0.5196    0.0000 C   0  0  0  0  0  0  0  0  0  0  0  0
    6.1395   -0.2896    0.0000 C   0  0  0  0  0  0  0  0  0  0  0  0
    6.7526    0.2624    0.0000 O   0  0  0  0  0  0  0  0  0  0  0  0
    6.3110   -1.0966    0.0000 N   0  0  0  0  0  0  0  0  0  0  0  0
    7.0957   -1.3515    0.0000 C   0  0  0  0  0  0  0  0  0  0  0  0
    7.2672   -2.1585    0.0000 C   0  0  0  0  0  0  0  0  0  0  0  0
    8.0518   -2.4134    0.0000 C   0  0  0  0  0  0  0  0  0  0  0  0
    8.2233   -3.2204    0.0000 C   0  0  0  0  0  0  0  0  0  0  0  0
    7.6102   -3.7724    0.0000 C   0  0  0  0  0  0  0  0  0  0  0  0
    6.8256   -3.5175    0.0000 C   0  0  0  0  0  0  0  0  0  0  0  0
    6.6541   -2.7105    0.0000 C   0  0  0  0  0  0  0  0  0  0  0  0
    2.5679    3.7023    0.0000 H   0  0  0  0  0  0  0  0  0  0  0  0
    0.9598    2.7738    0.0000 H   0  0  0  0  0  0  0  0  0  0  0  0
    0.9598    0.9168    0.0000 H   0  0  0  0  0  0  0  0  0  0  0  0
    4.1761    0.9168    0.0000 H   0  0  0  0  0  0  0  0  0  0  0  0
    0.9190    0.0293    0.0000 H   0  0  0  0  0  0  0  0  0  0  0  0
    1.5767   -1.8707    0.0000 H   0  0  0  0  0  0  0  0  0  0  0  0
    3.6683    1.5848    0.0000 H   0  0  0  0  0  0  0  0  0  0  0  0
    5.6785    1.5464    0.0000 H   0  0  0  0  0  0  0  0  0  0  0  0
    4.6874   -1.5516    0.0000 H   0  0  0  0  0  0  0  0  0  0  0  0
    5.5794   -1.7554    0.0000 H   0  0  0  0  0  0  0  0  0  0  0  0
    7.8909   -0.6355    0.0000 H   0  0  0  0  0  0  0  0  0  0  0  0
    8.1133   -1.6822    0.0000 H   0  0  0  0  0  0  0  0  0  0  0  0
    8.8187   -1.7229    0.0000 H   0  0  0  0  0  0  0  0  0  0  0  0
    9.2048   -3.5393    0.0000 H   0  0  0  0  0  0  0  0  0  0  0  0
    7.8248   -4.7818    0.0000 H   0  0  0  0  0  0  0  0  0  0  0  0
    6.0587   -4.2080    0.0000 H   0  0  0  0  0  0  0  0  0  0  0  0
    5.6726   -2.3916    0.0000 H   0  0  0  0  0  0  0  0  0  0  0  0
  1  8  1  0  0  0  0
  1  6  2  0  0  0  0
  1  2  1  0  0  0  0
  2  3  2  0  0  0  0
  2 28  1  0  0  0  0
  3  4  1  0  0  0  0
  3 29  1  0  0  0  0
  4  5  2  0  0  0  0
  4 30  1  0  0  0  0
  5  6  1  0  0  0  0
  5  7  1  0  0  0  0
  6 31  1  0  0  0  0
  7 12  1  0  0  0  0
  7  9  2  0  0  0  0
  9 10  1  0  0  0  0
  9 32  1  0  0  0  0
 10 11  1  0  0  0  0
 10 33  1  0  0  0  0
 11 12  2  0  0  0  0
 12 13  1  0  0  0  0
 13 14  2  0  0  0  0
 13 17  1  0  0  0  0
 14 15  1  0  0  0  0
 14 34  1  0  0  0  0
 15 16  1  0  0  0  0
 15 35  1  0  0  0  0
 16 18  1  0  0  0  0
 16 17  2  0  0  0  0
 17 36  1  0  0  0  0
 18 19  2  0  0  0  0
 18 20  1  0  0  0  0
 20 21  1  0  0  0  0
 20 37  1  0  0  0  0
 21 22  1  0  0  0  0
 21 38  1  0  0  0  0
 21 39  1  0  0  0  0
 22 23  2  0  0  0  0
 22 27  1  0  0  0  0
 23 24  1  0  0  0  0
 23 40  1  0  0  0  0
 24 25  2  0  0  0  0
 24 41  1  0  0  0  0
 25 26  1  0  0  0  0
 25 42  1  0  0  0  0
 26 27  2  0  0  0  0
 26 43  1  0  0  0  0
 27 44  1  0  0  0  0
M  END
>  <DRUGBANK_ID>
DB07010

>  <COMMON_NAME>
N-BENZYL-4-[4-(3-CHLOROPHENYL)-1H-PYRAZOL-3-YL]-1H-PYRROLE-2-CARBOXAMIDE

$$$$
