
 OpenBabel10282417072D

 49 52  0  0  0  0  0  0  0  0999 V2000
   -2.2337   -8.5571    0.0000 C   0  0  0  0  0  0  0  0  0  0  0  0
   -1.8212   -7.8427    0.0000 O   0  0  0  0  0  0  0  0  0  0  0  0
   -2.2337   -7.1282    0.0000 C   0  0  0  0  0  0  0  0  0  0  0  0
   -3.0587   -7.1282    0.0000 C   0  0  0  0  0  0  0  0  0  0  0  0
   -3.4712   -6.4137    0.0000 C   0  0  0  0  0  0  0  0  0  0  0  0
   -3.0587   -5.6992    0.0000 C   0  0  0  0  0  0  0  0  0  0  0  0
   -2.2337   -5.6992    0.0000 C   0  0  0  0  0  0  0  0  0  0  0  0
   -1.8212   -4.9848    0.0000 C   0  0  0  0  0  0  0  0  0  0  0  0
   -2.2337   -4.2703    0.0000 N   0  0  0  0  0  0  0  0  0  0  0  0
   -1.8212   -3.5558    0.0000 C   0  0  0  0  0  0  0  0  0  0  0  0
   -2.2337   -2.8414    0.0000 C   0  0  0  0  0  0  0  0  0  0  0  0
   -1.8212   -2.1269    0.0000 C   0  0  0  0  0  0  0  0  0  0  0  0
   -0.9962   -2.1269    0.0000 C   0  0  0  0  0  0  0  0  0  0  0  0
   -0.5837   -2.8414    0.0000 C   0  0  0  0  0  0  0  0  0  0  0  0
   -0.9962   -3.5558    0.0000 C   0  0  0  0  0  0  0  0  0  0  0  0
   -0.5837   -1.4124    0.0000 S   0  0  0  0  0  0  0  0  0  0  0  0
    0.1308   -1.8249    0.0000 O   0  0  0  0  0  0  0  0  0  0  0  0
   -1.2982   -0.9999    0.0000 O   0  0  0  0  0  0  0  0  0  0  0  0
   -0.1712   -0.6979    0.0000 N   0  0  0  0  0  0  0  0  0  0  0  0
    0.6538   -0.6979    0.0000 C   0  0  0  0  0  0  0  0  0  0  0  0
    1.1387   -0.0305    0.0000 N   0  0  0  0  0  0  0  0  0  0  0  0
    1.9233   -0.2854    0.0000 C   0  0  0  0  0  0  0  0  0  0  0  0
    2.6378    0.1271    0.0000 C   0  0  0  0  0  0  0  0  0  0  0  0
    3.3523   -0.2854    0.0000 C   0  0  0  0  0  0  0  0  0  0  0  0
    3.3523   -1.1104    0.0000 C   0  0  0  0  0  0  0  0  0  0  0  0
    2.6378   -1.5229    0.0000 C   0  0  0  0  0  0  0  0  0  0  0  0
    1.9233   -1.1104    0.0000 C   0  0  0  0  0  0  0  0  0  0  0  0
    1.1387   -1.3654    0.0000 S   0  0  0  0  0  0  0  0  0  0  0  0
   -1.8212   -6.4137    0.0000 C   0  0  0  0  0  0  0  0  0  0  0  0
   -0.9962   -6.4137    0.0000 O   0  0  0  0  0  0  0  0  0  0  0  0
   -3.3037   -8.5571    0.0000 H   0  0  0  0  0  0  0  0  0  0  0  0
   -1.6987   -9.4838    0.0000 H   0  0  0  0  0  0  0  0  0  0  0  0
   -2.7687   -9.4837    0.0000 H   0  0  0  0  0  0  0  0  0  0  0  0
   -3.5747   -8.0219    0.0000 H   0  0  0  0  0  0  0  0  0  0  0  0
   -4.5032   -6.4137    0.0000 H   0  0  0  0  0  0  0  0  0  0  0  0
   -3.5747   -4.8055    0.0000 H   0  0  0  0  0  0  0  0  0  0  0  0
   -0.7512   -4.9848    0.0000 H   0  0  0  0  0  0  0  0  0  0  0  0
   -1.2862   -4.0582    0.0000 H   0  0  0  0  0  0  0  0  0  0  0  0
   -3.2182   -4.2703    0.0000 H   0  0  0  0  0  0  0  0  0  0  0  0
   -3.2657   -2.8414    0.0000 H   0  0  0  0  0  0  0  0  0  0  0  0
   -2.3372   -1.2332    0.0000 H   0  0  0  0  0  0  0  0  0  0  0  0
    0.4483   -2.8414    0.0000 H   0  0  0  0  0  0  0  0  0  0  0  0
   -0.4802   -4.4495    0.0000 H   0  0  0  0  0  0  0  0  0  0  0  0
   -0.6635    0.1547    0.0000 H   0  0  0  0  0  0  0  0  0  0  0  0
    2.6378    1.1591    0.0000 H   0  0  0  0  0  0  0  0  0  0  0  0
    4.2460    0.2306    0.0000 H   0  0  0  0  0  0  0  0  0  0  0  0
    4.2460   -1.6264    0.0000 H   0  0  0  0  0  0  0  0  0  0  0  0
    2.6378   -2.5549    0.0000 H   0  0  0  0  0  0  0  0  0  0  0  0
   -0.5277   -7.2252    0.0000 H   0  0  0  0  0  0  0  0  0  0  0  0
  1  2  1  0  0  0  0
  1 31  1  0  0  0  0
  1 32  1  0  0  0  0
  1 33  1  0  0  0  0
  2  3  1  0  0  0  0
  3  4  2  0  0  0  0
  3 29  1  0  0  0  0
  4  5  1  0  0  0  0
  4 34  1  0  0  0  0
  5  6  2  0  0  0  0
  5 35  1  0  0  0  0
  6  7  1  0  0  0  0
  6 36  1  0  0  0  0
  7  8  1  0  0  0  0
  7 29  2  0  0  0  0
  8  9  1  0  0  0  0
  8 37  1  0  0  0  0
  8 38  1  0  0  0  0
  9 10  1  0  0  0  0
  9 39  1  0  0  0  0
 10 11  2  0  0  0  0
 10 15  1  0  0  0  0
 11 12  1  0  0  0  0
 11 40  1  0  0  0  0
 12 13  2  0  0  0  0
 12 41  1  0  0  0  0
 13 14  1  0  0  0  0
 13 16  1  0  0  0  0
 14 15  2  0  0  0  0
 14 42  1  0  0  0  0
 15 43  1  0  0  0  0
 16 17  2  0  0  0  0
 16 18  2  0  0  0  0
 16 19  1  0  0  0  0
 19 20  1  0  0  0  0
 19 44  1  0  0  0  0
 20 21  2  0  0  0  0
 20 28  1  0  0  0  0
 21 22  1  0  0  0  0
 22 23  2  0  0  0  0
 22 27  1  0  0  0  0
 23 24  1  0  0  0  0
 23 45  1  0  0  0  0
 24 25  2  0  0  0  0
 24 46  1  0  0  0  0
 25 26  1  0  0  0  0
 25 47  1  0  0  0  0
 26 27  2  0  0  0  0
 26 48  1  0  0  0  0
 27 28  1  0  0  0  0
 29 30  1  0  0  0  0
 30 49  1  0  0  0  0
M  END
>  <DRUGBANK_ID>
DB18307

>  <COMMON_NAME>
VLX-1005

>  <CAS_NUMBER>
1532593-30-8

>  <UNII>
JKU4XCC48Y

>  <SYNONYMS>
Benzenesulfonamide, n-2-benzothiazolyl-4-(((2-hydroxy-3-methoxyphenyl)methyl)amino)-; N-2-benzothiazolyl-4-(((2-hydroxy-3-methoxyphenyl)methyl)amino)benzenesulfonamide; N-Benzothiazol-2-yl-4-(2-hydroxy-3-methoxy-benzylamino)-bezenesulfonamide

$$$$
