
 OpenBabel10282417072D

 26 25  0  0  0  0  0  0  0  0999 V2000
    0.0000    0.7004    0.0000 P   0  0  0  0  0  0  0  0  0  0  0  0
    0.0000    1.5254    0.0000 O   0  0  0  0  0  0  0  0  0  0  0  0
   -0.7144    0.2879    0.0000 O   0  0  0  0  0  0  0  0  0  0  0  0
    0.7145    0.2879    0.0000 O   0  0  0  0  0  0  0  0  0  0  0  0
   -0.2134   -0.0964    0.0000 O   0  0  0  0  0  0  0  0  0  0  0  0
    1.4290    0.7004    0.0000 C   0  0  0  0  0  0  0  0  0  0  0  0
    2.1433    0.2879    0.0000 C   0  0  0  0  0  0  0  0  0  0  0  0
   -1.4288    0.7004    0.0000 C   0  0  0  0  0  0  0  0  0  0  0  0
   -2.1433    0.2879    0.0000 C   0  0  0  0  0  0  0  0  0  0  0  0
    0.1990   -0.8109    0.0000 C   0  0  0  0  0  0  0  0  0  0  0  0
   -0.2134   -1.5254    0.0000 C   0  0  0  0  0  0  0  0  0  0  0  0
    1.4291    1.7704    0.0000 H   0  0  0  0  0  0  0  0  0  0  0  0
    2.3557    1.2353    0.0000 H   0  0  0  0  0  0  0  0  0  0  0  0
    2.1432   -0.7821    0.0000 H   0  0  0  0  0  0  0  0  0  0  0  0
    3.0700    0.8228    0.0000 H   0  0  0  0  0  0  0  0  0  0  0  0
    3.0699   -0.2472    0.0000 H   0  0  0  0  0  0  0  0  0  0  0  0
   -1.4288    1.7704    0.0000 H   0  0  0  0  0  0  0  0  0  0  0  0
   -2.3554    1.2354    0.0000 H   0  0  0  0  0  0  0  0  0  0  0  0
   -3.0699    0.8229    0.0000 H   0  0  0  0  0  0  0  0  0  0  0  0
   -2.1433   -0.7821    0.0000 H   0  0  0  0  0  0  0  0  0  0  0  0
   -3.0700   -0.2471    0.0000 H   0  0  0  0  0  0  0  0  0  0  0  0
    1.2690   -0.8109    0.0000 H   0  0  0  0  0  0  0  0  0  0  0  0
    0.7341   -1.7375    0.0000 H   0  0  0  0  0  0  0  0  0  0  0  0
   -1.2834   -1.5255    0.0000 H   0  0  0  0  0  0  0  0  0  0  0  0
    0.3217   -2.4520    0.0000 H   0  0  0  0  0  0  0  0  0  0  0  0
   -0.7483   -2.4521    0.0000 H   0  0  0  0  0  0  0  0  0  0  0  0
  1  2  2  0  0  0  0
  1  3  1  0  0  0  0
  1  4  1  0  0  0  0
  1  5  1  0  0  0  0
  3  8  1  0  0  0  0
  4  6  1  0  0  0  0
  5 10  1  0  0  0  0
  6  7  1  0  0  0  0
  6 12  1  0  0  0  0
  6 13  1  0  0  0  0
  7 14  1  0  0  0  0
  7 15  1  0  0  0  0
  7 16  1  0  0  0  0
  8  9  1  0  0  0  0
  8 17  1  0  0  0  0
  8 18  1  0  0  0  0
  9 19  1  0  0  0  0
  9 20  1  0  0  0  0
  9 21  1  0  0  0  0
 10 11  1  0  0  0  0
 10 22  1  0  0  0  0
 10 23  1  0  0  0  0
 11 24  1  0  0  0  0
 11 25  1  0  0  0  0
 11 26  1  0  0  0  0
M  END
>  <DRUGBANK_ID>
DB03347

>  <SECONDARY_ACCESSION_NUMBERS>
EXPT03038

>  <COMMON_NAME>
Triethyl phosphate

>  <CAS_NUMBER>
78-40-0

>  <UNII>
QIH4K96K7J

>  <SYNONYMS>
Ethyl phosphate; o-Phosphoric acid triethyl ester; TEP; Triethoxyphosphine oxide; Triethylphosphate; Tris(ethyl) phosphate

$$$$
