
 OpenBabel10282417072D

 32 34  0  0  0  0  0  0  0  0999 V2000
    4.3772   -0.5841    0.0000 C   0  0  0  0  0  0  0  0  0  0  0  0
    3.6020   -0.3020    0.0000 C   0  0  0  0  0  0  0  0  0  0  0  0
    3.4587   -1.1144    0.0000 C   0  0  0  0  0  0  0  0  0  0  0  0
    4.0145    0.4125    0.0000 C   0  0  0  0  0  0  0  0  0  0  0  0
    3.6020    1.1270    0.0000 C   0  0  0  0  0  0  0  0  0  0  0  0
    2.7770    1.1270    0.0000 C   0  0  0  0  0  0  0  0  0  0  0  0
    2.3645    0.4125    0.0000 C   0  0  0  0  0  0  0  0  0  0  0  0
    2.7770   -0.3020    0.0000 O   0  0  0  0  0  0  0  0  0  0  0  0
    1.5395    0.4125    0.0000 C   0  0  0  0  0  0  0  0  0  0  0  0
    1.1270   -0.3020    0.0000 C   0  0  0  0  0  0  0  0  0  0  0  0
    0.3020   -0.3020    0.0000 C   0  0  0  0  0  0  0  0  0  0  0  0
   -0.1105    0.4125    0.0000 C   0  0  0  0  0  0  0  0  0  0  0  0
    0.3020    1.1270    0.0000 C   0  0  0  0  0  0  0  0  0  0  0  0
    1.1270    1.1270    0.0000 C   0  0  0  0  0  0  0  0  0  0  0  0
    1.5395    1.8414    0.0000 C   0  0  0  0  0  0  0  0  0  0  0  0
    1.1270    2.5559    0.0000 O   0  0  0  0  0  0  0  0  0  0  0  0
    2.3645    1.8414    0.0000 C   0  0  0  0  0  0  0  0  0  0  0  0
    2.7770    2.5559    0.0000 O   0  0  0  0  0  0  0  0  0  0  0  0
    4.5631   -1.6378    0.0000 H   0  0  0  0  0  0  0  0  0  0  0  0
    5.1968    0.1037    0.0000 H   0  0  0  0  0  0  0  0  0  0  0  0
    5.3827   -0.9500    0.0000 H   0  0  0  0  0  0  0  0  0  0  0  0
    2.4532   -1.4803    0.0000 H   0  0  0  0  0  0  0  0  0  0  0  0
    4.2783   -1.8022    0.0000 H   0  0  0  0  0  0  0  0  0  0  0  0
    3.2728   -2.1681    0.0000 H   0  0  0  0  0  0  0  0  0  0  0  0
    5.0845    0.4125    0.0000 H   0  0  0  0  0  0  0  0  0  0  0  0
    4.5495    1.3391    0.0000 H   0  0  0  0  0  0  0  0  0  0  0  0
    4.1370    2.0536    0.0000 H   0  0  0  0  0  0  0  0  0  0  0  0
    3.0670    2.0536    0.0000 H   0  0  0  0  0  0  0  0  0  0  0  0
    1.6430   -1.1957    0.0000 H   0  0  0  0  0  0  0  0  0  0  0  0
   -0.2140   -1.1957    0.0000 H   0  0  0  0  0  0  0  0  0  0  0  0
   -1.1425    0.4125    0.0000 H   0  0  0  0  0  0  0  0  0  0  0  0
   -0.2140    2.0207    0.0000 H   0  0  0  0  0  0  0  0  0  0  0  0
  1  2  1  0  0  0  0
  1 19  1  0  0  0  0
  1 20  1  0  0  0  0
  1 21  1  0  0  0  0
  2  3  1  0  0  0  0
  2  4  1  0  0  0  0
  2  8  1  0  0  0  0
  3 22  1  0  0  0  0
  3 23  1  0  0  0  0
  3 24  1  0  0  0  0
  4  5  1  0  0  0  0
  4 25  1  0  0  0  0
  4 26  1  0  0  0  0
  5  6  1  0  0  0  0
  5 27  1  0  0  0  0
  5 28  1  0  0  0  0
  6  7  2  0  0  0  0
  6 17  1  0  0  0  0
  7  8  1  0  0  0  0
  7  9  1  0  0  0  0
  9 10  2  0  0  0  0
  9 14  1  0  0  0  0
 10 11  1  0  0  0  0
 10 29  1  0  0  0  0
 11 12  2  0  0  0  0
 11 30  1  0  0  0  0
 12 13  1  0  0  0  0
 12 31  1  0  0  0  0
 13 14  2  0  0  0  0
 13 32  1  0  0  0  0
 14 15  1  0  0  0  0
 15 16  2  0  0  0  0
 15 17  1  0  0  0  0
 17 18  2  0  0  0  0
M  END
>  <DRUGBANK_ID>
DB11948

>  <SECONDARY_ACCESSION_NUMBERS>
DB05515

>  <COMMON_NAME>
Lapachone

>  <CAS_NUMBER>
4707-32-8

>  <UNII>
6N4FA2QQ6A

$$$$
