298
 OpenBabel10282417072D

 51 54  0  0  0  0  0  0  0  0999 V2000
    5.1795   -0.3468    0.0000 N   0  0  0  0  0  0  0  0  0  0  0  0
    5.6921    1.2216    0.0000 N   0  0  0  0  0  0  0  0  0  0  0  0
    3.0790   -2.3367    0.0000 N   0  0  0  0  0  0  0  0  0  0  0  0
    4.3411   -2.7492    0.0000 N   0  0  0  0  0  0  0  0  0  0  0  0
    3.8596   -3.4131    0.0000 N   0  0  0  0  0  0  0  0  0  0  0  0
    5.9868   -0.1766    0.0000 C   0  0  0  0  0  0  0  0  0  0  0  0
    4.6285    0.2673    0.0000 C   0  0  0  0  0  0  0  0  0  0  0  0
    4.9232   -1.1309    0.0000 C   0  0  0  0  0  0  0  0  0  0  0  0
    6.2431    0.6075    0.0000 C   0  0  0  0  0  0  0  0  0  0  0  0
    4.8848    1.0515    0.0000 C   0  0  0  0  0  0  0  0  0  0  0  0
    4.1159   -1.3010    0.0000 C   0  0  0  0  0  0  0  0  0  0  0  0
    2.3645   -1.9242    0.0000 C   0  0  0  0  0  0  0  0  0  0  0  0
    3.8596   -2.0853    0.0000 C   0  0  0  0  0  0  0  0  0  0  0  0
    1.6500   -2.3367    0.0000 C   0  0  0  0  0  0  0  0  0  0  0  0
    1.6500   -3.1617    0.0000 C   0  0  0  0  0  0  0  0  0  0  0  0
    2.3645   -3.5742    0.0000 C   0  0  0  0  0  0  0  0  0  0  0  0
    3.0790   -3.1617    0.0000 C   0  0  0  0  0  0  0  0  0  0  0  0
    5.9484    2.0058    0.0000 C   0  0  0  0  0  0  0  0  0  0  0  0
    6.7557    2.1760    0.0000 C   0  0  0  0  0  0  0  0  0  0  0  0
    5.3974    2.6199    0.0000 C   0  0  0  0  0  0  0  0  0  0  0  0
    7.0120    2.9601    0.0000 C   0  0  0  0  0  0  0  0  0  0  0  0
    7.3066    1.5619    0.0000 C   0  0  0  0  0  0  0  0  0  0  0  0
    5.6537    3.4041    0.0000 C   0  0  0  0  0  0  0  0  0  0  0  0
    6.4610    3.5742    0.0000 C   0  0  0  0  0  0  0  0  0  0  0  0
    6.7014   -0.9730    0.0000 H   0  0  0  0  0  0  0  0  0  0  0  0
    7.0338    0.0440    0.0000 H   0  0  0  0  0  0  0  0  0  0  0  0
    3.5815    0.0467    0.0000 H   0  0  0  0  0  0  0  0  0  0  0  0
    3.9139    1.0637    0.0000 H   0  0  0  0  0  0  0  0  0  0  0  0
    5.6378   -1.9273    0.0000 H   0  0  0  0  0  0  0  0  0  0  0  0
    4.5907   -2.1479    0.0000 H   0  0  0  0  0  0  0  0  0  0  0  0
    7.2901    0.8281    0.0000 H   0  0  0  0  0  0  0  0  0  0  0  0
    6.9577   -0.1889    0.0000 H   0  0  0  0  0  0  0  0  0  0  0  0
    4.1702    1.8479    0.0000 H   0  0  0  0  0  0  0  0  0  0  0  0
    3.8378    0.8309    0.0000 H   0  0  0  0  0  0  0  0  0  0  0  0
    3.4013   -0.5046    0.0000 H   0  0  0  0  0  0  0  0  0  0  0  0
    3.0689   -1.5217    0.0000 H   0  0  0  0  0  0  0  0  0  0  0  0
    2.3645   -0.8542    0.0000 H   0  0  0  0  0  0  0  0  0  0  0  0
    1.4379   -1.3892    0.0000 H   0  0  0  0  0  0  0  0  0  0  0  0
    0.7234   -1.8017    0.0000 H   0  0  0  0  0  0  0  0  0  0  0  0
    0.7234   -2.8717    0.0000 H   0  0  0  0  0  0  0  0  0  0  0  0
    0.7234   -3.6967    0.0000 H   0  0  0  0  0  0  0  0  0  0  0  0
    1.6500   -4.2317    0.0000 H   0  0  0  0  0  0  0  0  0  0  0  0
    2.3645   -4.6442    0.0000 H   0  0  0  0  0  0  0  0  0  0  0  0
    3.2911   -4.1092    0.0000 H   0  0  0  0  0  0  0  0  0  0  0  0
    4.3876    2.4071    0.0000 H   0  0  0  0  0  0  0  0  0  0  0  0
    8.0218    3.1729    0.0000 H   0  0  0  0  0  0  0  0  0  0  0  0
    6.9741    0.5449    0.0000 H   0  0  0  0  0  0  0  0  0  0  0  0
    8.3536    1.7824    0.0000 H   0  0  0  0  0  0  0  0  0  0  0  0
    8.0211    0.7654    0.0000 H   0  0  0  0  0  0  0  0  0  0  0  0
    4.9645    4.1722    0.0000 H   0  0  0  0  0  0  0  0  0  0  0  0
    6.7816    4.5551    0.0000 H   0  0  0  0  0  0  0  0  0  0  0  0
  1  6  1  0  0  0  0
  1  7  1  0  0  0  0
  1  8  1  0  0  0  0
  2  9  1  0  0  0  0
  2 10  1  0  0  0  0
  2 18  1  0  0  0  0
  3 12  1  0  0  0  0
  3 13  1  0  0  0  0
  3 17  1  0  0  0  0
  4  5  1  0  0  0  0
  4 13  2  0  0  0  0
  5 17  2  0  0  0  0
  6  9  1  0  0  0  0
  6 25  1  0  0  0  0
  6 26  1  0  0  0  0
  7 10  1  0  0  0  0
  7 27  1  0  0  0  0
  7 28  1  0  0  0  0
  8 11  1  0  0  0  0
  8 29  1  0  0  0  0
  8 30  1  0  0  0  0
  9 31  1  0  0  0  0
  9 32  1  0  0  0  0
 10 33  1  0  0  0  0
 10 34  1  0  0  0  0
 11 13  1  0  0  0  0
 11 35  1  0  0  0  0
 11 36  1  0  0  0  0
 12 14  1  0  0  0  0
 12 37  1  0  0  0  0
 12 38  1  0  0  0  0
 14 15  1  0  0  0  0
 14 39  1  0  0  0  0
 14 40  1  0  0  0  0
 15 16  1  0  0  0  0
 15 41  1  0  0  0  0
 15 42  1  0  0  0  0
 16 17  1  0  0  0  0
 16 43  1  0  0  0  0
 16 44  1  0  0  0  0
 18 19  1  0  0  0  0
 18 20  2  0  0  0  0
 19 21  2  0  0  0  0
 19 22  1  0  0  0  0
 20 23  1  0  0  0  0
 20 45  1  0  0  0  0
 21 24  1  0  0  0  0
 21 46  1  0  0  0  0
 22 47  1  0  0  0  0
 22 48  1  0  0  0  0
 22 49  1  0  0  0  0
 23 24  2  0  0  0  0
 23 50  1  0  0  0  0
 24 51  1  0  0  0  0
M  END
>  <DRUGBANK_ID>
DB00298

>  <SECONDARY_ACCESSION_NUMBERS>
APRD00902

>  <COMMON_NAME>
Dapiprazole

>  <CAS_NUMBER>
72822-12-9

>  <UNII>
5RNZ8GJO7K

>  <SYNONYMS>
5,6,7,8-Tetrahydro-3-(2-(4-(o-tolyl)-1-piperazinyl)ethyl)-s-triazolo(4,3-a)pyridine; Dapiprazol; Dapiprazole; Dapiprazolum

$$$$
