IPC
 OpenBabel10282417072D

 48 50  0  0  0  0  0  0  0  0999 V2000
    0.2903    0.3015    0.0000 N   0  0  0  0  0  0  0  0  0  0  0  0
    1.0047    0.7140    0.0000 C   0  0  0  0  0  0  0  0  0  0  0  0
    1.0047    1.5390    0.0000 C   0  0  0  0  0  0  0  0  0  0  0  0
    1.7192    0.3015    0.0000 C   0  0  0  0  0  0  0  0  0  0  0  0
   -0.4242    0.7140    0.0000 C   0  0  0  0  0  0  0  0  0  0  0  0
   -1.1387    0.3015    0.0000 O   0  0  0  0  0  0  0  0  0  0  0  0
   -0.4242    1.5390    0.0000 C   0  0  0  0  0  0  0  0  0  0  0  0
   -1.1387    1.9515    0.0000 C   0  0  0  0  0  0  0  0  0  0  0  0
   -1.1387    2.7765    0.0000 C   0  0  0  0  0  0  0  0  0  0  0  0
   -0.4242    3.1890    0.0000 C   0  0  0  0  0  0  0  0  0  0  0  0
    0.2903    2.7765    0.0000 C   0  0  0  0  0  0  0  0  0  0  0  0
    0.2903    1.9515    0.0000 C   0  0  0  0  0  0  0  0  0  0  0  0
   -0.4242    4.0140    0.0000 C   0  0  0  0  0  0  0  0  0  0  0  0
    0.2903   -0.5235    0.0000 C   0  0  0  0  0  0  0  0  0  0  0  0
    0.9577   -1.0085    0.0000 C   0  0  0  0  0  0  0  0  0  0  0  0
    0.7028   -1.7931    0.0000 S   0  0  0  0  0  0  0  0  0  0  0  0
   -0.1222   -1.7931    0.0000 C   0  0  0  0  0  0  0  0  0  0  0  0
   -0.3772   -1.0085    0.0000 C   0  0  0  0  0  0  0  0  0  0  0  0
    1.7423   -0.7535    0.0000 C   0  0  0  0  0  0  0  0  0  0  0  0
    1.9139    0.0534    0.0000 O   0  0  0  0  0  0  0  0  0  0  0  0
    2.3554   -1.3056    0.0000 O   0  0  0  0  0  0  0  0  0  0  0  0
   -0.6072   -2.4605    0.0000 C   0  0  0  0  0  0  0  0  0  0  0  0
   -0.2716   -3.2142    0.0000 C   0  0  0  0  0  0  0  0  0  0  0  0
   -0.7565   -3.8816    0.0000 C   0  0  0  0  0  0  0  0  0  0  0  0
   -1.5770   -3.7954    0.0000 C   0  0  0  0  0  0  0  0  0  0  0  0
   -1.9126   -3.0417    0.0000 C   0  0  0  0  0  0  0  0  0  0  0  0
   -1.4276   -2.3743    0.0000 C   0  0  0  0  0  0  0  0  0  0  0  0
    1.9313    1.2490    0.0000 H   0  0  0  0  0  0  0  0  0  0  0  0
    1.9313    2.0740    0.0000 H   0  0  0  0  0  0  0  0  0  0  0  0
    0.0781    2.0740    0.0000 H   0  0  0  0  0  0  0  0  0  0  0  0
    1.0047    2.6090    0.0000 H   0  0  0  0  0  0  0  0  0  0  0  0
    1.7192   -0.7685    0.0000 H   0  0  0  0  0  0  0  0  0  0  0  0
    2.6458    0.8365    0.0000 H   0  0  0  0  0  0  0  0  0  0  0  0
    2.6459   -0.2335    0.0000 H   0  0  0  0  0  0  0  0  0  0  0  0
   -2.0324    1.4355    0.0000 H   0  0  0  0  0  0  0  0  0  0  0  0
   -2.0324    3.2925    0.0000 H   0  0  0  0  0  0  0  0  0  0  0  0
    1.1840    3.2925    0.0000 H   0  0  0  0  0  0  0  0  0  0  0  0
    1.1840    1.4355    0.0000 H   0  0  0  0  0  0  0  0  0  0  0  0
    0.5024    4.5490    0.0000 H   0  0  0  0  0  0  0  0  0  0  0  0
   -1.3508    4.5490    0.0000 H   0  0  0  0  0  0  0  0  0  0  0  0
   -0.4242    5.0840    0.0000 H   0  0  0  0  0  0  0  0  0  0  0  0
   -1.3587   -0.6896    0.0000 H   0  0  0  0  0  0  0  0  0  0  0  0
    2.8051    0.3429    0.0000 H   0  0  0  0  0  0  0  0  0  0  0  0
    0.7547   -3.3221    0.0000 H   0  0  0  0  0  0  0  0  0  0  0  0
   -0.3367   -4.8244    0.0000 H   0  0  0  0  0  0  0  0  0  0  0  0
   -2.1836   -4.6303    0.0000 H   0  0  0  0  0  0  0  0  0  0  0  0
   -2.9389   -2.9338    0.0000 H   0  0  0  0  0  0  0  0  0  0  0  0
   -1.8473   -1.4315    0.0000 H   0  0  0  0  0  0  0  0  0  0  0  0
  1  2  1  0  0  0  0
  1  5  1  0  0  0  0
  1 14  1  0  0  0  0
  2  3  1  0  0  0  0
  2  4  1  0  0  0  0
  2 28  1  0  0  0  0
  3 29  1  0  0  0  0
  3 30  1  0  0  0  0
  3 31  1  0  0  0  0
  4 32  1  0  0  0  0
  4 33  1  0  0  0  0
  4 34  1  0  0  0  0
  5  6  2  0  0  0  0
  5  7  1  0  0  0  0
  7  8  2  0  0  0  0
  7 12  1  0  0  0  0
  8  9  1  0  0  0  0
  8 35  1  0  0  0  0
  9 10  2  0  0  0  0
  9 36  1  0  0  0  0
 10 11  1  0  0  0  0
 10 13  1  0  0  0  0
 11 12  2  0  0  0  0
 11 37  1  0  0  0  0
 12 38  1  0  0  0  0
 13 39  1  0  0  0  0
 13 40  1  0  0  0  0
 13 41  1  0  0  0  0
 14 15  2  0  0  0  0
 14 18  1  0  0  0  0
 15 16  1  0  0  0  0
 15 19  1  0  0  0  0
 16 17  1  0  0  0  0
 17 18  2  0  0  0  0
 17 22  1  0  0  0  0
 18 42  1  0  0  0  0
 19 20  1  0  0  0  0
 19 21  2  0  0  0  0
 20 43  1  0  0  0  0
 22 23  2  0  0  0  0
 22 27  1  0  0  0  0
 23 24  1  0  0  0  0
 23 44  1  0  0  0  0
 24 25  2  0  0  0  0
 24 45  1  0  0  0  0
 25 26  1  0  0  0  0
 25 46  1  0  0  0  0
 26 27  2  0  0  0  0
 26 47  1  0  0  0  0
 27 48  1  0  0  0  0
M  END
>  <DRUGBANK_ID>
DB03647

>  <SECONDARY_ACCESSION_NUMBERS>
EXPT01914

>  <COMMON_NAME>
3-[Isopropyl(4-Methylbenzoyl)Amino]-5-Phenylthiophene-2-Carboxylic Acid

$$$$
