FPT
 OpenBabel10282417072D

 40 41  0  0  0  0  0  0  0  0999 V2000
   -2.9491    0.0581    0.0000 C   0  0  0  0  0  0  0  0  0  0  0  0
   -3.6635   -0.3544    0.0000 N   0  0  0  0  0  0  0  0  0  0  0  0
   -4.3780    0.0581    0.0000 C   0  0  0  0  0  0  0  0  0  0  0  0
   -4.3780    0.8831    0.0000 C   0  0  0  0  0  0  0  0  0  0  0  0
   -3.6635    1.2956    0.0000 C   0  0  0  0  0  0  0  0  0  0  0  0
   -2.9491    0.8831    0.0000 C   0  0  0  0  0  0  0  0  0  0  0  0
   -5.0925    1.2956    0.0000 C   0  0  0  0  0  0  0  0  0  0  0  0
   -5.8069    1.7081    0.0000 N   0  0  0  0  0  0  0  0  0  0  0  0
   -2.2346   -0.3544    0.0000 N   0  0  0  0  0  0  0  0  0  0  0  0
   -1.5201    0.0581    0.0000 C   0  0  0  0  0  0  0  0  0  0  0  0
   -1.5201    0.8831    0.0000 S   0  0  0  0  0  0  0  0  0  0  0  0
   -0.8056   -0.3544    0.0000 N   0  0  0  0  0  0  0  0  0  0  0  0
   -0.0912    0.0581    0.0000 C   0  0  0  0  0  0  0  0  0  0  0  0
    0.6233   -0.3544    0.0000 C   0  0  0  0  0  0  0  0  0  0  0  0
    1.3378    0.0581    0.0000 C   0  0  0  0  0  0  0  0  0  0  0  0
    1.3378    0.8831    0.0000 N   0  0  0  0  0  0  0  0  0  0  0  0
    2.0522    1.2956    0.0000 C   0  0  0  0  0  0  0  0  0  0  0  0
    2.7667    0.8831    0.0000 C   0  0  0  0  0  0  0  0  0  0  0  0
    2.7667    0.0581    0.0000 C   0  0  0  0  0  0  0  0  0  0  0  0
    2.0522   -0.3544    0.0000 C   0  0  0  0  0  0  0  0  0  0  0  0
    3.4812   -0.3544    0.0000 O   0  0  0  0  0  0  0  0  0  0  0  0
    3.4812   -1.1794    0.0000 C   0  0  0  0  0  0  0  0  0  0  0  0
    4.1956   -1.5919    0.0000 C   0  0  0  0  0  0  0  0  0  0  0  0
    2.0522   -1.1794    0.0000 F   0  0  0  0  0  0  0  0  0  0  0  0
   -5.2717   -0.4579    0.0000 H   0  0  0  0  0  0  0  0  0  0  0  0
   -3.6635    2.3276    0.0000 H   0  0  0  0  0  0  0  0  0  0  0  0
   -2.0554    1.3991    0.0000 H   0  0  0  0  0  0  0  0  0  0  0  0
   -2.2346   -1.3389    0.0000 H   0  0  0  0  0  0  0  0  0  0  0  0
   -0.8056   -1.3389    0.0000 H   0  0  0  0  0  0  0  0  0  0  0  0
   -0.0912    1.1281    0.0000 H   0  0  0  0  0  0  0  0  0  0  0  0
    0.8354    0.5931    0.0000 H   0  0  0  0  0  0  0  0  0  0  0  0
    0.6233   -1.4244    0.0000 H   0  0  0  0  0  0  0  0  0  0  0  0
    1.5499   -0.8894    0.0000 H   0  0  0  0  0  0  0  0  0  0  0  0
    2.0522    2.3276    0.0000 H   0  0  0  0  0  0  0  0  0  0  0  0
    3.6604    1.3991    0.0000 H   0  0  0  0  0  0  0  0  0  0  0  0
    2.5545   -1.7144    0.0000 H   0  0  0  0  0  0  0  0  0  0  0  0
    3.4812   -2.2494    0.0000 H   0  0  0  0  0  0  0  0  0  0  0  0
    4.1956   -2.6619    0.0000 H   0  0  0  0  0  0  0  0  0  0  0  0
    5.1223   -1.0569    0.0000 H   0  0  0  0  0  0  0  0  0  0  0  0
    5.1222   -2.1269    0.0000 H   0  0  0  0  0  0  0  0  0  0  0  0
  1  2  2  0  0  0  0
  1  6  1  0  0  0  0
  1  9  1  0  0  0  0
  2  3  1  0  0  0  0
  3  4  2  0  0  0  0
  3 25  1  0  0  0  0
  4  5  1  0  0  0  0
  4  7  1  0  0  0  0
  5  6  2  0  0  0  0
  5 26  1  0  0  0  0
  6 27  1  0  0  0  0
  7  8  3  0  0  0  0
  9 10  1  0  0  0  0
  9 28  1  0  0  0  0
 10 11  2  0  0  0  0
 10 12  1  0  0  0  0
 12 13  1  0  0  0  0
 12 29  1  0  0  0  0
 13 14  1  0  0  0  0
 13 30  1  0  0  0  0
 13 31  1  0  0  0  0
 14 15  1  0  0  0  0
 14 32  1  0  0  0  0
 14 33  1  0  0  0  0
 15 16  2  0  0  0  0
 15 20  1  0  0  0  0
 16 17  1  0  0  0  0
 17 18  2  0  0  0  0
 17 34  1  0  0  0  0
 18 19  1  0  0  0  0
 18 35  1  0  0  0  0
 19 20  2  0  0  0  0
 19 21  1  0  0  0  0
 20 24  1  0  0  0  0
 21 22  1  0  0  0  0
 22 23  1  0  0  0  0
 22 36  1  0  0  0  0
 22 37  1  0  0  0  0
 23 38  1  0  0  0  0
 23 39  1  0  0  0  0
 23 40  1  0  0  0  0
M  END
>  <DRUGBANK_ID>
DB07781

>  <COMMON_NAME>
N-[[3-FLUORO-4-ETHOXY-PYRID-2-YL]ETHYL]-N'-[5-NITRILOMETHYL-PYRIDYL]-THIOUREA

$$$$
