MTB
 OpenBabel10282417072D

 40 41  0  0  0  0  0  0  0  0999 V2000
    0.9767   -1.9609    0.0000 C   0  0  0  0  0  0  0  0  0  0  0  0
    1.6912   -2.3734    0.0000 C   0  0  0  0  0  0  0  0  0  0  0  0
    1.6912   -3.1984    0.0000 C   0  0  0  0  0  0  0  0  0  0  0  0
    0.9767   -3.6109    0.0000 C   0  0  0  0  0  0  0  0  0  0  0  0
    0.2622   -3.1984    0.0000 C   0  0  0  0  0  0  0  0  0  0  0  0
    0.2622   -2.3734    0.0000 C   0  0  0  0  0  0  0  0  0  0  0  0
    0.2622    0.1016    0.0000 C   0  0  0  0  0  0  0  0  0  0  0  0
   -0.4522    0.5141    0.0000 C   0  0  0  0  0  0  0  0  0  0  0  0
   -0.4522    1.3391    0.0000 C   0  0  0  0  0  0  0  0  0  0  0  0
    0.2622    1.7516    0.0000 C   0  0  0  0  0  0  0  0  0  0  0  0
    0.9767    1.3391    0.0000 C   0  0  0  0  0  0  0  0  0  0  0  0
    0.9767    0.5141    0.0000 C   0  0  0  0  0  0  0  0  0  0  0  0
    2.4056   -1.9609    0.0000 C   0  0  0  0  0  0  0  0  0  0  0  0
   -1.1667    1.7516    0.0000 C   0  0  0  0  0  0  0  0  0  0  0  0
   -1.8812    2.1641    0.0000 C   0  0  0  0  0  0  0  0  0  0  0  0
   -0.7542    2.4660    0.0000 C   0  0  0  0  0  0  0  0  0  0  0  0
   -1.5792    1.0371    0.0000 C   0  0  0  0  0  0  0  0  0  0  0  0
    0.9767   -1.1359    0.0000 N   0  0  0  0  0  0  0  0  0  0  0  0
    0.2622   -0.7234    0.0000 N   0  0  0  0  0  0  0  0  0  0  0  0
    3.1201   -2.3734    0.0000 O   0  0  0  0  0  0  0  0  0  0  0  0
    2.4056   -1.1359    0.0000 O   0  0  0  0  0  0  0  0  0  0  0  0
    0.2622    2.5766    0.0000 O   0  0  0  0  0  0  0  0  0  0  0  0
    2.5849   -3.7144    0.0000 H   0  0  0  0  0  0  0  0  0  0  0  0
    0.9767   -4.6429    0.0000 H   0  0  0  0  0  0  0  0  0  0  0  0
   -0.6315   -3.7144    0.0000 H   0  0  0  0  0  0  0  0  0  0  0  0
   -0.6315   -1.8574    0.0000 H   0  0  0  0  0  0  0  0  0  0  0  0
   -1.3459   -0.0019    0.0000 H   0  0  0  0  0  0  0  0  0  0  0  0
    1.8704    1.8551    0.0000 H   0  0  0  0  0  0  0  0  0  0  0  0
    1.8704   -0.0019    0.0000 H   0  0  0  0  0  0  0  0  0  0  0  0
   -1.8812    3.2341    0.0000 H   0  0  0  0  0  0  0  0  0  0  0  0
   -2.8078    1.6291    0.0000 H   0  0  0  0  0  0  0  0  0  0  0  0
   -2.8079    2.6991    0.0000 H   0  0  0  0  0  0  0  0  0  0  0  0
    0.3158    2.4660    0.0000 H   0  0  0  0  0  0  0  0  0  0  0  0
   -1.2892    3.3927    0.0000 H   0  0  0  0  0  0  0  0  0  0  0  0
   -0.2192    3.3926    0.0000 H   0  0  0  0  0  0  0  0  0  0  0  0
   -2.6492    1.0371    0.0000 H   0  0  0  0  0  0  0  0  0  0  0  0
   -1.0442    0.1105    0.0000 H   0  0  0  0  0  0  0  0  0  0  0  0
   -2.1142    0.1104    0.0000 H   0  0  0  0  0  0  0  0  0  0  0  0
    3.2171   -0.6674    0.0000 H   0  0  0  0  0  0  0  0  0  0  0  0
    1.0737    3.0451    0.0000 H   0  0  0  0  0  0  0  0  0  0  0  0
  1  2  1  0  0  0  0
  1  6  2  0  0  0  0
  1 18  1  0  0  0  0
  2  3  2  0  0  0  0
  2 13  1  0  0  0  0
  3  4  1  0  0  0  0
  3 23  1  0  0  0  0
  4  5  2  0  0  0  0
  4 24  1  0  0  0  0
  5  6  1  0  0  0  0
  5 25  1  0  0  0  0
  6 26  1  0  0  0  0
  7  8  1  0  0  0  0
  7 12  2  0  0  0  0
  7 19  1  0  0  0  0
  8  9  2  0  0  0  0
  8 27  1  0  0  0  0
  9 10  1  0  0  0  0
  9 14  1  0  0  0  0
 10 11  2  0  0  0  0
 10 22  1  0  0  0  0
 11 12  1  0  0  0  0
 11 28  1  0  0  0  0
 12 29  1  0  0  0  0
 13 20  2  0  0  0  0
 13 21  1  0  0  0  0
 14 15  1  0  0  0  0
 14 16  1  0  0  0  0
 14 17  1  0  0  0  0
 15 30  1  0  0  0  0
 15 31  1  0  0  0  0
 15 32  1  0  0  0  0
 16 33  1  0  0  0  0
 16 34  1  0  0  0  0
 16 35  1  0  0  0  0
 17 36  1  0  0  0  0
 17 37  1  0  0  0  0
 17 38  1  0  0  0  0
 18 19  2  0  0  0  0
 21 39  1  0  0  0  0
 22 40  1  0  0  0  0
M  END
>  <DRUGBANK_ID>
DB08216

>  <COMMON_NAME>
2-((3'-TERTBUTYL-4'-HYDROXYPHENYL)AZO)BENZOIC ACID

$$$$
