
 OpenBabel10282417072D

 65 69  0  0  0  0  0  0  0  0999 V2000
    2.4292   -1.4815    0.0000 C   0  0  0  0  0  0  0  0  0  0  0  0
    2.2577   -0.6746    0.0000 C   0  0  0  0  0  0  0  0  0  0  0  0
    1.4730   -0.4196    0.0000 C   0  0  0  0  0  0  0  0  0  0  0  0
    2.8708   -0.1225    0.0000 C   0  0  0  0  0  0  0  0  0  0  0  0
    2.7845    0.6979    0.0000 C   0  0  0  0  0  0  0  0  0  0  0  0
    3.5382    1.0335    0.0000 N   0  0  0  0  0  0  0  0  0  0  0  0
    4.0902    0.4204    0.0000 C   0  0  0  0  0  0  0  0  0  0  0  0
    4.9152    0.4204    0.0000 C   0  0  0  0  0  0  0  0  0  0  0  0
    5.3277   -0.2941    0.0000 C   0  0  0  0  0  0  0  0  0  0  0  0
    4.9152   -1.0085    0.0000 C   0  0  0  0  0  0  0  0  0  0  0  0
    4.0902   -1.0085    0.0000 C   0  0  0  0  0  0  0  0  0  0  0  0
    3.6777   -0.2941    0.0000 C   0  0  0  0  0  0  0  0  0  0  0  0
    5.3277   -1.7230    0.0000 C   0  0  0  0  0  0  0  0  0  0  0  0
    6.1527   -1.7230    0.0000 C   0  0  0  0  0  0  0  0  0  0  0  0
    6.5652   -2.4375    0.0000 C   0  0  0  0  0  0  0  0  0  0  0  0
    6.1527   -3.1519    0.0000 N   0  0  0  0  0  0  0  0  0  0  0  0
    6.5652   -3.8664    0.0000 C   0  0  0  0  0  0  0  0  0  0  0  0
    6.1527   -4.5809    0.0000 C   0  0  0  0  0  0  0  0  0  0  0  0
    6.5652   -5.2954    0.0000 N   0  0  0  0  0  0  0  0  0  0  0  0
    5.3277   -4.5809    0.0000 O   0  0  0  0  0  0  0  0  0  0  0  0
    5.3277   -3.1519    0.0000 C   0  0  0  0  0  0  0  0  0  0  0  0
    4.9152   -2.4375    0.0000 C   0  0  0  0  0  0  0  0  0  0  0  0
    2.0701    1.1104    0.0000 C   0  0  0  0  0  0  0  0  0  0  0  0
    1.3556    0.6979    0.0000 C   0  0  0  0  0  0  0  0  0  0  0  0
    0.6411    1.1104    0.0000 N   0  0  0  0  0  0  0  0  0  0  0  0
   -0.1435    0.8555    0.0000 N   0  0  0  0  0  0  0  0  0  0  0  0
   -0.6284    1.5229    0.0000 C   0  0  0  0  0  0  0  0  0  0  0  0
   -0.1435    2.1904    0.0000 N   0  0  0  0  0  0  0  0  0  0  0  0
    0.6411    1.9354    0.0000 C   0  0  0  0  0  0  0  0  0  0  0  0
    1.3556    2.3479    0.0000 C   0  0  0  0  0  0  0  0  0  0  0  0
    1.3556    3.1729    0.0000 C   0  0  0  0  0  0  0  0  0  0  0  0
    2.0701    1.9354    0.0000 C   0  0  0  0  0  0  0  0  0  0  0  0
    2.7845    2.3479    0.0000 C   0  0  0  0  0  0  0  0  0  0  0  0
    1.6340   -2.1975    0.0000 H   0  0  0  0  0  0  0  0  0  0  0  0
    3.4468   -1.8122    0.0000 H   0  0  0  0  0  0  0  0  0  0  0  0
    2.6517   -2.5281    0.0000 H   0  0  0  0  0  0  0  0  0  0  0  0
    2.0352    0.3720    0.0000 H   0  0  0  0  0  0  0  0  0  0  0  0
    1.2506    0.6270    0.0000 H   0  0  0  0  0  0  0  0  0  0  0  0
    0.6778   -1.1355    0.0000 H   0  0  0  0  0  0  0  0  0  0  0  0
    0.4554   -0.0889    0.0000 H   0  0  0  0  0  0  0  0  0  0  0  0
    3.7429    1.9965    0.0000 H   0  0  0  0  0  0  0  0  0  0  0  0
    5.4312    1.3141    0.0000 H   0  0  0  0  0  0  0  0  0  0  0  0
    6.3597   -0.2941    0.0000 H   0  0  0  0  0  0  0  0  0  0  0  0
    3.5742   -1.9022    0.0000 H   0  0  0  0  0  0  0  0  0  0  0  0
    5.8627   -2.6496    0.0000 H   0  0  0  0  0  0  0  0  0  0  0  0
    6.6877   -0.7964    0.0000 H   0  0  0  0  0  0  0  0  0  0  0  0
    7.2227   -1.7230    0.0000 H   0  0  0  0  0  0  0  0  0  0  0  0
    7.6352   -2.4375    0.0000 H   0  0  0  0  0  0  0  0  0  0  0  0
    7.1002   -3.3642    0.0000 H   0  0  0  0  0  0  0  0  0  0  0  0
    7.6352   -3.8664    0.0000 H   0  0  0  0  0  0  0  0  0  0  0  0
    7.1002   -4.7930    0.0000 H   0  0  0  0  0  0  0  0  0  0  0  0
    6.0729   -6.1480    0.0000 H   0  0  0  0  0  0  0  0  0  0  0  0
    7.5497   -5.2954    0.0000 H   0  0  0  0  0  0  0  0  0  0  0  0
    4.7927   -4.0786    0.0000 H   0  0  0  0  0  0  0  0  0  0  0  0
    4.2577   -3.1519    0.0000 H   0  0  0  0  0  0  0  0  0  0  0  0
    3.8452   -2.4375    0.0000 H   0  0  0  0  0  0  0  0  0  0  0  0
    4.3802   -1.5109    0.0000 H   0  0  0  0  0  0  0  0  0  0  0  0
    1.3556   -0.3341    0.0000 H   0  0  0  0  0  0  0  0  0  0  0  0
   -1.6604    1.5229    0.0000 H   0  0  0  0  0  0  0  0  0  0  0  0
    2.2822    3.7079    0.0000 H   0  0  0  0  0  0  0  0  0  0  0  0
    0.4290    3.7079    0.0000 H   0  0  0  0  0  0  0  0  0  0  0  0
    1.3556    4.2429    0.0000 H   0  0  0  0  0  0  0  0  0  0  0  0
    3.7112    1.8129    0.0000 H   0  0  0  0  0  0  0  0  0  0  0  0
    2.7845    3.4179    0.0000 H   0  0  0  0  0  0  0  0  0  0  0  0
    3.7111    2.8829    0.0000 H   0  0  0  0  0  0  0  0  0  0  0  0
  1  2  1  0  0  0  0
  1 34  1  0  0  0  0
  1 35  1  0  0  0  0
  1 36  1  0  0  0  0
  2  3  1  0  0  0  0
  2  4  1  0  0  0  0
  2 37  1  0  0  0  0
  3 38  1  0  0  0  0
  3 39  1  0  0  0  0
  3 40  1  0  0  0  0
  4  5  2  0  0  0  0
  4 12  1  0  0  0  0
  5  6  1  0  0  0  0
  5 23  1  0  0  0  0
  6  7  1  0  0  0  0
  6 41  1  0  0  0  0
  7  8  2  0  0  0  0
  7 12  1  0  0  0  0
  8  9  1  0  0  0  0
  8 42  1  0  0  0  0
  9 10  2  0  0  0  0
  9 43  1  0  0  0  0
 10 11  1  0  0  0  0
 10 13  1  0  0  0  0
 11 12  2  0  0  0  0
 11 44  1  0  0  0  0
 13 14  1  0  0  0  0
 13 22  1  0  0  0  0
 13 45  1  0  0  0  0
 14 15  1  0  0  0  0
 14 46  1  0  0  0  0
 14 47  1  0  0  0  0
 15 16  1  0  0  0  0
 15 48  1  0  0  0  0
 15 49  1  0  0  0  0
 16 17  1  0  0  0  0
 16 21  1  0  0  0  0
 17 18  1  0  0  0  0
 17 50  1  0  0  0  0
 17 51  1  0  0  0  0
 18 19  1  0  0  0  0
 18 20  2  0  0  0  0
 19 52  1  0  0  0  0
 19 53  1  0  0  0  0
 21 22  1  0  0  0  0
 21 54  1  0  0  0  0
 21 55  1  0  0  0  0
 22 56  1  0  0  0  0
 22 57  1  0  0  0  0
 23 24  2  0  0  0  0
 23 32  1  0  0  0  0
 24 25  1  0  0  0  0
 24 58  1  0  0  0  0
 25 26  1  0  0  0  0
 25 29  1  0  0  0  0
 26 27  2  0  0  0  0
 27 28  1  0  0  0  0
 27 59  1  0  0  0  0
 28 29  2  0  0  0  0
 29 30  1  0  0  0  0
 30 31  1  0  0  0  0
 30 32  2  0  0  0  0
 31 60  1  0  0  0  0
 31 61  1  0  0  0  0
 31 62  1  0  0  0  0
 32 33  1  0  0  0  0
 33 63  1  0  0  0  0
 33 64  1  0  0  0  0
 33 65  1  0  0  0  0
M  END
>  <DRUGBANK_ID>
DB16580

>  <COMMON_NAME>
Afimetoran

>  <CAS_NUMBER>
2171019-55-7

>  <UNII>
LXP7MZL0VF

>  <SYNONYMS>
Afimetoran; BMS-986256

$$$$
