
 OpenBabel10282417072D

  8  7  0  0  0  0  0  0  0  0999 V2000
    1.2375   -0.7145    0.0000 C   0  0  0  0  0  0  0  0  0  0  0  0
    1.9520   -1.1270    0.0000 C   0  0  0  0  0  0  0  0  0  0  0  0
    2.6664   -0.7145    0.0000 Cl  0  0  0  0  0  0  0  0  0  0  0  0
    1.2375    0.3555    0.0000 H   0  0  0  0  0  0  0  0  0  0  0  0
    0.3109   -1.2495    0.0000 H   0  0  0  0  0  0  0  0  0  0  0  0
    0.3108   -0.1795    0.0000 H   0  0  0  0  0  0  0  0  0  0  0  0
    1.9520   -2.1970    0.0000 H   0  0  0  0  0  0  0  0  0  0  0  0
    2.8787   -1.6620    0.0000 H   0  0  0  0  0  0  0  0  0  0  0  0
  1  2  1  0  0  0  0
  1  4  1  0  0  0  0
  1  5  1  0  0  0  0
  1  6  1  0  0  0  0
  2  3  1  0  0  0  0
  2  7  1  0  0  0  0
  2  8  1  0  0  0  0
M  END
>  <DRUGBANK_ID>
DB13259

>  <COMMON_NAME>
Ethyl chloride

>  <CAS_NUMBER>
75-00-3

>  <UNII>
46U771ERWK

>  <SYNONYMS>
chloroethane; Ethyl chloride; monochloroethane

$$$$
