
 OpenBabel10282417072D

 19 19  0  0  0  0  0  0  0  0999 V2000
    0.7145    2.0625    0.0000 O   0  0  0  0  0  0  0  0  0  0  0  0
    0.7145    1.2375    0.0000 C   0  0  0  0  0  0  0  0  0  0  0  0
    1.4289    0.8250    0.0000 C   0  0  0  0  0  0  0  0  0  0  0  0
    1.4289    0.0000    0.0000 C   0  0  0  0  0  0  0  0  0  0  0  0
    0.7145   -0.4125    0.0000 C   0  0  0  0  0  0  0  0  0  0  0  0
    0.0000    0.0000    0.0000 C   0  0  0  0  0  0  0  0  0  0  0  0
    0.0000    0.8250    0.0000 C   0  0  0  0  0  0  0  0  0  0  0  0
    1.5545    2.5475    0.0000 H   0  0  0  0  0  0  0  0  0  0  0  0
    0.7145    0.1675    0.0000 H   0  0  0  0  0  0  0  0  0  0  0  0
    2.3556    1.3600    0.0000 H   0  0  0  0  0  0  0  0  0  0  0  0
    2.3555    0.2900    0.0000 H   0  0  0  0  0  0  0  0  0  0  0  0
    2.3556   -0.5350    0.0000 H   0  0  0  0  0  0  0  0  0  0  0  0
    1.4289   -1.0700    0.0000 H   0  0  0  0  0  0  0  0  0  0  0  0
    0.7145   -1.4825    0.0000 H   0  0  0  0  0  0  0  0  0  0  0  0
   -0.2121   -0.9475    0.0000 H   0  0  0  0  0  0  0  0  0  0  0  0
   -0.9266   -0.5350    0.0000 H   0  0  0  0  0  0  0  0  0  0  0  0
   -0.9266    0.5350    0.0000 H   0  0  0  0  0  0  0  0  0  0  0  0
   -0.9266    1.3600    0.0000 H   0  0  0  0  0  0  0  0  0  0  0  0
    0.0000    1.8950    0.0000 H   0  0  0  0  0  0  0  0  0  0  0  0
  1  2  1  0  0  0  0
  1  8  1  0  0  0  0
  2  3  1  0  0  0  0
  2  7  1  0  0  0  0
  2  9  1  0  0  0  0
  3  4  1  0  0  0  0
  3 10  1  0  0  0  0
  3 11  1  0  0  0  0
  4  5  1  0  0  0  0
  4 12  1  0  0  0  0
  4 13  1  0  0  0  0
  5  6  1  0  0  0  0
  5 14  1  0  0  0  0
  5 15  1  0  0  0  0
  6  7  1  0  0  0  0
  6 16  1  0  0  0  0
  6 17  1  0  0  0  0
  7 18  1  0  0  0  0
  7 19  1  0  0  0  0
M  END
>  <DRUGBANK_ID>
DB03703

>  <SECONDARY_ACCESSION_NUMBERS>
EXPT01066

>  <COMMON_NAME>
Cyclohexanol

>  <CAS_NUMBER>
108-93-0

>  <UNII>
8E7S519M3P

$$$$
