BP6
 OpenBabel10282417072D

 24 25  0  0  0  0  0  0  0  0999 V2000
   -0.1552   -0.3100    0.0000 C   0  0  0  0  0  0  0  0  0  0  0  0
    0.5593   -0.7225    0.0000 C   0  0  0  0  0  0  0  0  0  0  0  0
    1.2738   -0.3100    0.0000 O   0  0  0  0  0  0  0  0  0  0  0  0
    0.5593   -1.5475    0.0000 C   0  0  0  0  0  0  0  0  0  0  0  0
    1.2738   -1.9600    0.0000 O   0  0  0  0  0  0  0  0  0  0  0  0
   -0.1552   -1.9600    0.0000 C   0  0  0  0  0  0  0  0  0  0  0  0
   -0.8696   -1.5475    0.0000 C   0  0  0  0  0  0  0  0  0  0  0  0
   -0.8696   -0.7225    0.0000 C   0  0  0  0  0  0  0  0  0  0  0  0
   -0.1552    0.5150    0.0000 C   0  0  0  0  0  0  0  0  0  0  0  0
   -0.8696    0.9275    0.0000 C   0  0  0  0  0  0  0  0  0  0  0  0
   -0.8696    1.7525    0.0000 C   0  0  0  0  0  0  0  0  0  0  0  0
   -0.1552    2.1650    0.0000 C   0  0  0  0  0  0  0  0  0  0  0  0
    0.5593    1.7525    0.0000 C   0  0  0  0  0  0  0  0  0  0  0  0
    0.5593    0.9275    0.0000 C   0  0  0  0  0  0  0  0  0  0  0  0
   -1.5841    0.5150    0.0000 Cl  0  0  0  0  0  0  0  0  0  0  0  0
    1.2738    0.5150    0.0000 Cl  0  0  0  0  0  0  0  0  0  0  0  0
    2.0853   -0.7785    0.0000 H   0  0  0  0  0  0  0  0  0  0  0  0
    1.2738   -2.8970    0.0000 H   0  0  0  0  0  0  0  0  0  0  0  0
   -0.1552   -2.9920    0.0000 H   0  0  0  0  0  0  0  0  0  0  0  0
   -1.7633   -2.0635    0.0000 H   0  0  0  0  0  0  0  0  0  0  0  0
   -1.7633   -0.2065    0.0000 H   0  0  0  0  0  0  0  0  0  0  0  0
   -1.7633    2.2685    0.0000 H   0  0  0  0  0  0  0  0  0  0  0  0
   -0.1552    3.1970    0.0000 H   0  0  0  0  0  0  0  0  0  0  0  0
    1.4530    2.2685    0.0000 H   0  0  0  0  0  0  0  0  0  0  0  0
  1  2  2  0  0  0  0
  1  8  1  0  0  0  0
  1  9  1  0  0  0  0
  2  3  1  0  0  0  0
  2  4  1  0  0  0  0
  3 17  1  0  0  0  0
  4  5  1  0  0  0  0
  4  6  2  0  0  0  0
  5 18  1  0  0  0  0
  6  7  1  0  0  0  0
  6 19  1  0  0  0  0
  7  8  2  0  0  0  0
  7 20  1  0  0  0  0
  8 21  1  0  0  0  0
  9 10  2  0  0  0  0
  9 14  1  0  0  0  0
 10 11  1  0  0  0  0
 10 15  1  0  0  0  0
 11 12  2  0  0  0  0
 11 22  1  0  0  0  0
 12 13  1  0  0  0  0
 12 23  1  0  0  0  0
 13 14  2  0  0  0  0
 13 24  1  0  0  0  0
 14 16  1  0  0  0  0
M  END
>  <DRUGBANK_ID>
DB03259

>  <SECONDARY_ACCESSION_NUMBERS>
EXPT00743

>  <COMMON_NAME>
2',6'-Dichloro-Biphenyl-2,6-Diol

$$$$
