G95
 OpenBabel10282417072D

 44 47  0  0  0  0  0  0  0  0999 V2000
   -1.4576    1.5365    0.0000 C   0  0  0  0  0  0  0  0  0  0  0  0
   -0.6371    1.6227    0.0000 C   0  0  2  0  0  0  0  0  0  0  0  0
   -0.4877    0.2016    0.0000 C   0  0  0  0  0  0  0  0  0  0  0  0
   -0.0028   -0.4658    0.0000 C   0  0  0  0  0  0  0  0  0  0  0  0
    0.8222   -0.4658    0.0000 C   0  0  0  0  0  0  0  0  0  0  0  0
    1.1242   -2.9729    0.0000 C   0  0  0  0  0  0  0  0  0  0  0  0
    1.1242   -3.7979    0.0000 C   0  0  0  0  0  0  0  0  0  0  0  0
    0.4097   -2.5604    0.0000 C   0  0  0  0  0  0  0  0  0  0  0  0
    0.4097   -1.7354    0.0000 C   0  0  0  0  0  0  0  0  0  0  0  0
    1.0771   -1.2504    0.0000 C   0  0  0  0  0  0  0  0  0  0  0  0
   -0.2578   -1.2504    0.0000 S   0  0  0  0  0  0  0  0  0  0  0  0
   -1.3082    0.1154    0.0000 O   0  0  0  0  0  0  0  0  0  0  0  0
   -1.9425    2.2039    0.0000 N   0  0  0  0  0  0  0  0  0  0  0  0
   -1.5743   -3.3854    0.0000 C   0  0  0  0  0  0  0  0  0  0  0  0
   -1.0894   -2.7179    0.0000 C   0  0  0  0  0  0  0  0  0  0  0  0
   -0.3048   -2.9729    0.0000 C   0  0  0  0  0  0  0  0  0  0  0  0
   -0.3015    2.3764    0.0000 C   0  0  0  0  0  0  0  0  0  0  0  0
   -0.1522    0.9553    0.0000 N   0  0  0  0  0  0  0  0  0  0  0  0
   -0.7865    3.0439    0.0000 C   0  0  0  0  0  0  0  0  0  0  0  0
   -0.4509    3.7975    0.0000 C   0  0  0  0  0  0  0  0  0  0  0  0
    0.3696    3.8838    0.0000 C   0  0  0  0  0  0  0  0  0  0  0  0
    0.4097   -4.2104    0.0000 N   0  0  0  0  0  0  0  0  0  0  0  0
    0.8545    3.2163    0.0000 C   0  0  0  0  0  0  0  0  0  0  0  0
    0.5189    2.4627    0.0000 C   0  0  0  0  0  0  0  0  0  0  0  0
   -0.3048   -3.7979    0.0000 C   0  0  0  0  0  0  0  0  0  0  0  0
   -1.0894   -4.0528    0.0000 N   0  0  0  0  0  0  0  0  0  0  0  0
   -0.9803    2.0951    0.0000 H   0  0  0  0  0  0  0  0  0  0  0  0
   -1.8928    0.5590    0.0000 H   0  0  0  0  0  0  0  0  0  0  0  0
   -2.5217    1.4247    0.0000 H   0  0  0  0  0  0  0  0  0  0  0  0
    1.4288    0.3691    0.0000 H   0  0  0  0  0  0  0  0  0  0  0  0
    2.0179   -2.4569    0.0000 H   0  0  0  0  0  0  0  0  0  0  0  0
    2.0179   -4.3139    0.0000 H   0  0  0  0  0  0  0  0  0  0  0  0
    2.0586   -1.5693    0.0000 H   0  0  0  0  0  0  0  0  0  0  0  0
   -1.5276    3.1357    0.0000 H   0  0  0  0  0  0  0  0  0  0  0  0
   -2.9569    2.0973    0.0000 H   0  0  0  0  0  0  0  0  0  0  0  0
   -2.6063   -3.3854    0.0000 H   0  0  0  0  0  0  0  0  0  0  0  0
   -1.4083   -1.7364    0.0000 H   0  0  0  0  0  0  0  0  0  0  0  0
    0.8269    1.0582    0.0000 H   0  0  0  0  0  0  0  0  0  0  0  0
   -1.8128    2.9361    0.0000 H   0  0  0  0  0  0  0  0  0  0  0  0
   -1.0575    4.6324    0.0000 H   0  0  0  0  0  0  0  0  0  0  0  0
    0.7893    4.8266    0.0000 H   0  0  0  0  0  0  0  0  0  0  0  0
    1.8809    3.3241    0.0000 H   0  0  0  0  0  0  0  0  0  0  0  0
    1.1255    1.6278    0.0000 H   0  0  0  0  0  0  0  0  0  0  0  0
   -1.3936   -4.9891    0.0000 H   0  0  0  0  0  0  0  0  0  0  0  0
  1  2  1  0  0  0  0
  1 13  1  0  0  0  0
  1 28  1  0  0  0  0
  1 29  1  0  0  0  0
  2 17  1  0  0  0  0
  2 18  1  0  0  0  0
  2 27  1  1  0  0  0
  3  4  1  0  0  0  0
  3 12  2  0  0  0  0
  3 18  1  0  0  0  0
  4  5  2  0  0  0  0
  4 11  1  0  0  0  0
  5 10  1  0  0  0  0
  5 30  1  0  0  0  0
  6  7  2  0  0  0  0
  6  8  1  0  0  0  0
  6 31  1  0  0  0  0
  7 22  1  0  0  0  0
  7 32  1  0  0  0  0
  8  9  1  0  0  0  0
  8 16  2  0  0  0  0
  9 10  2  0  0  0  0
  9 11  1  0  0  0  0
 10 33  1  0  0  0  0
 13 34  1  0  0  0  0
 13 35  1  0  0  0  0
 14 15  2  0  0  0  0
 14 26  1  0  0  0  0
 14 36  1  0  0  0  0
 15 16  1  0  0  0  0
 15 37  1  0  0  0  0
 16 25  1  0  0  0  0
 17 19  2  0  0  0  0
 17 24  1  0  0  0  0
 18 38  1  0  0  0  0
 19 20  1  0  0  0  0
 19 39  1  0  0  0  0
 20 21  2  0  0  0  0
 20 40  1  0  0  0  0
 21 23  1  0  0  0  0
 21 41  1  0  0  0  0
 22 25  2  0  0  0  0
 23 24  2  0  0  0  0
 23 42  1  0  0  0  0
 24 43  1  0  0  0  0
 25 26  1  0  0  0  0
 26 44  1  0  0  0  0
M  END
>  <DRUGBANK_ID>
DB07812

>  <COMMON_NAME>
N-[(1S)-2-amino-1-phenylethyl]-5-(1H-pyrrolo[2,3-b]pyridin-4-yl)thiophene-2-carboxamide

$$$$
