373
 OpenBabel10282417072D

 55 59  0  0  0  0  0  0  0  0999 V2000
   -4.5134   -1.4249    0.0000 C   0  0  0  0  0  0  0  0  0  0  0  0
   -4.9259   -2.1394    0.0000 C   0  0  0  0  0  0  0  0  0  0  0  0
   -5.7509   -2.1394    0.0000 C   0  0  0  0  0  0  0  0  0  0  0  0
   -6.1634   -1.4249    0.0000 C   0  0  0  0  0  0  0  0  0  0  0  0
   -5.7509   -0.7105    0.0000 C   0  0  0  0  0  0  0  0  0  0  0  0
   -4.9259   -0.7105    0.0000 C   0  0  0  0  0  0  0  0  0  0  0  0
   -4.5134    0.0040    0.0000 N   0  0  0  0  0  0  0  0  0  0  0  0
   -3.6884    0.0040    0.0000 C   0  0  0  0  0  0  0  0  0  0  0  0
   -3.2759   -0.7105    0.0000 C   0  0  0  0  0  0  0  0  0  0  0  0
   -3.6884   -1.4249    0.0000 C   0  0  0  0  0  0  0  0  0  0  0  0
   -2.4509   -0.7105    0.0000 C   0  0  0  0  0  0  0  0  0  0  0  0
   -1.9660   -0.0430    0.0000 N   0  0  0  0  0  0  0  0  0  0  0  0
   -1.1814   -0.2980    0.0000 C   0  0  0  0  0  0  0  0  0  0  0  0
   -1.1814   -1.1230    0.0000 C   0  0  0  0  0  0  0  0  0  0  0  0
   -1.9660   -1.3779    0.0000 C   0  0  0  0  0  0  0  0  0  0  0  0
   -0.4669    0.1145    0.0000 C   0  0  0  0  0  0  0  0  0  0  0  0
    0.2476   -0.2980    0.0000 C   0  0  0  0  0  0  0  0  0  0  0  0
    0.2476   -1.1230    0.0000 C   0  0  0  0  0  0  0  0  0  0  0  0
   -0.4669   -1.5355    0.0000 C   0  0  0  0  0  0  0  0  0  0  0  0
    0.9620   -1.5355    0.0000 C   0  0  0  0  0  0  0  0  0  0  0  0
    0.9620   -2.3605    0.0000 N   0  0  0  0  0  0  0  0  0  0  0  0
    1.6765   -2.7730    0.0000 C   0  0  0  0  0  0  0  0  0  0  0  0
    1.6765   -3.5980    0.0000 C   0  0  0  0  0  0  0  0  0  0  0  0
    0.9620   -4.0105    0.0000 C   0  0  0  0  0  0  0  0  0  0  0  0
    0.2476   -3.5980    0.0000 C   0  0  0  0  0  0  0  0  0  0  0  0
    0.2476   -2.7730    0.0000 C   0  0  0  0  0  0  0  0  0  0  0  0
    0.9620   -4.8355    0.0000 C   0  0  0  0  0  0  0  0  0  0  0  0
    1.6765   -5.2480    0.0000 N   0  0  0  0  0  0  0  0  0  0  0  0
   -3.2759    0.7185    0.0000 O   0  0  0  0  0  0  0  0  0  0  0  0
   -4.4099   -3.0331    0.0000 H   0  0  0  0  0  0  0  0  0  0  0  0
   -6.2669   -3.0331    0.0000 H   0  0  0  0  0  0  0  0  0  0  0  0
   -7.1954   -1.4249    0.0000 H   0  0  0  0  0  0  0  0  0  0  0  0
   -6.2669    0.1832    0.0000 H   0  0  0  0  0  0  0  0  0  0  0  0
   -5.0057    0.8566    0.0000 H   0  0  0  0  0  0  0  0  0  0  0  0
   -3.1724   -2.3186    0.0000 H   0  0  0  0  0  0  0  0  0  0  0  0
   -2.2702    0.8933    0.0000 H   0  0  0  0  0  0  0  0  0  0  0  0
   -2.2849   -2.3594    0.0000 H   0  0  0  0  0  0  0  0  0  0  0  0
   -0.4669    1.1465    0.0000 H   0  0  0  0  0  0  0  0  0  0  0  0
    1.1413    0.2180    0.0000 H   0  0  0  0  0  0  0  0  0  0  0  0
   -0.4669   -2.5675    0.0000 H   0  0  0  0  0  0  0  0  0  0  0  0
    1.8887   -1.0005    0.0000 H   0  0  0  0  0  0  0  0  0  0  0  0
    1.8886   -2.0705    0.0000 H   0  0  0  0  0  0  0  0  0  0  0  0
    2.6031   -2.2380    0.0000 H   0  0  0  0  0  0  0  0  0  0  0  0
    2.6031   -3.3080    0.0000 H   0  0  0  0  0  0  0  0  0  0  0  0
    2.6031   -4.1330    0.0000 H   0  0  0  0  0  0  0  0  0  0  0  0
    1.6765   -4.6680    0.0000 H   0  0  0  0  0  0  0  0  0  0  0  0
    0.0353   -4.5455    0.0000 H   0  0  0  0  0  0  0  0  0  0  0  0
   -0.6791   -4.1330    0.0000 H   0  0  0  0  0  0  0  0  0  0  0  0
   -0.6790   -3.0630    0.0000 H   0  0  0  0  0  0  0  0  0  0  0  0
   -0.6791   -2.2380    0.0000 H   0  0  0  0  0  0  0  0  0  0  0  0
   -0.6790   -3.3080    0.0000 H   0  0  0  0  0  0  0  0  0  0  0  0
    0.0354   -5.3705    0.0000 H   0  0  0  0  0  0  0  0  0  0  0  0
    0.9620   -5.9055    0.0000 H   0  0  0  0  0  0  0  0  0  0  0  0
    1.6765   -6.2680    0.0000 H   0  0  0  0  0  0  0  0  0  0  0  0
    2.5598   -4.7380    0.0000 H   0  0  0  0  0  0  0  0  0  0  0  0
  1  6  1  0  0  0  0
  1 10  1  0  0  0  0
  1  2  2  0  0  0  0
  2  3  1  0  0  0  0
  2 30  1  0  0  0  0
  3  4  2  0  0  0  0
  3 31  1  0  0  0  0
  4  5  1  0  0  0  0
  4 32  1  0  0  0  0
  5  6  2  0  0  0  0
  5 33  1  0  0  0  0
  6  7  1  0  0  0  0
  7  8  1  0  0  0  0
  7 34  1  0  0  0  0
  8 29  2  0  0  0  0
  8  9  1  0  0  0  0
  9 11  1  0  0  0  0
  9 10  2  0  0  0  0
 10 35  1  0  0  0  0
 11 12  1  0  0  0  0
 11 15  2  0  0  0  0
 12 13  1  0  0  0  0
 12 36  1  0  0  0  0
 13 16  1  0  0  0  0
 13 14  2  0  0  0  0
 14 19  1  0  0  0  0
 14 15  1  0  0  0  0
 15 37  1  0  0  0  0
 16 17  2  0  0  0  0
 16 38  1  0  0  0  0
 17 18  1  0  0  0  0
 17 39  1  0  0  0  0
 18 20  1  0  0  0  0
 18 19  2  0  0  0  0
 19 40  1  0  0  0  0
 20 21  1  0  0  0  0
 20 41  1  0  0  0  0
 20 42  1  0  0  0  0
 21 22  1  0  0  0  0
 21 26  1  0  0  0  0
 22 23  1  0  0  0  0
 22 43  1  0  0  0  0
 22 44  1  0  0  0  0
 23 24  1  0  0  0  0
 23 45  1  0  0  0  0
 23 46  1  0  0  0  0
 24 27  1  0  0  0  0
 24 25  1  0  0  0  0
 24 47  1  0  0  0  0
 25 26  1  0  0  0  0
 25 48  1  0  0  0  0
 25 49  1  0  0  0  0
 26 50  1  0  0  0  0
 26 51  1  0  0  0  0
 27 28  1  0  0  0  0
 27 52  1  0  0  0  0
 27 53  1  0  0  0  0
 28 54  1  0  0  0  0
 28 55  1  0  0  0  0
M  END
>  <DRUGBANK_ID>
DB07025

>  <COMMON_NAME>
3-(5-{[4-(AMINOMETHYL)PIPERIDIN-1-YL]METHYL}-1H-INDOL-2-YL)QUINOLIN-2(1H)-ONE

$$$$
