LSR
 OpenBabel10282417072D

 39 39  0  0  0  0  0  0  0  0999 V2000
    2.6083    1.1294    0.0000 C   0  0  0  0  0  0  0  0  0  0  0  0
    1.8938    0.7169    0.0000 C   0  0  0  0  0  0  0  0  0  0  0  0
    1.1793    1.1294    0.0000 C   0  0  0  0  0  0  0  0  0  0  0  0
    1.1793    1.9544    0.0000 C   0  0  0  0  0  0  0  0  0  0  0  0
    0.4649    0.7169    0.0000 C   0  0  0  0  0  0  0  0  0  0  0  0
    0.4649   -0.1081    0.0000 C   0  0  0  0  0  0  0  0  0  0  0  0
   -0.2496   -0.5206    0.0000 C   0  0  0  0  0  0  0  0  0  0  0  0
   -0.2496   -1.3456    0.0000 C   0  0  0  0  0  0  0  0  0  0  0  0
    0.4649   -1.7581    0.0000 C   0  0  0  0  0  0  0  0  0  0  0  0
   -0.9641   -1.7581    0.0000 C   0  0  0  0  0  0  0  0  0  0  0  0
   -1.6785   -1.3456    0.0000 C   0  0  0  0  0  0  0  0  0  0  0  0
   -1.6785   -0.5206    0.0000 C   0  0  0  0  0  0  0  0  0  0  0  0
   -0.9641   -0.1081    0.0000 C   0  0  0  0  0  0  0  0  0  0  0  0
   -0.5768    0.6203    0.0000 C   0  0  0  0  0  0  0  0  0  0  0  0
   -1.3514    0.6203    0.0000 C   0  0  0  0  0  0  0  0  0  0  0  0
    3.5349    0.5944    0.0000 H   0  0  0  0  0  0  0  0  0  0  0  0
    2.6083    2.1994    0.0000 H   0  0  0  0  0  0  0  0  0  0  0  0
    3.5350    1.6644    0.0000 H   0  0  0  0  0  0  0  0  0  0  0  0
    1.8938   -0.3151    0.0000 H   0  0  0  0  0  0  0  0  0  0  0  0
    2.1059    2.4894    0.0000 H   0  0  0  0  0  0  0  0  0  0  0  0
    0.2527    2.4894    0.0000 H   0  0  0  0  0  0  0  0  0  0  0  0
    1.1793    3.0244    0.0000 H   0  0  0  0  0  0  0  0  0  0  0  0
   -0.4288    1.2329    0.0000 H   0  0  0  0  0  0  0  0  0  0  0  0
    1.3586   -0.6241    0.0000 H   0  0  0  0  0  0  0  0  0  0  0  0
    0.4649   -2.8281    0.0000 H   0  0  0  0  0  0  0  0  0  0  0  0
    1.3915   -1.2231    0.0000 H   0  0  0  0  0  0  0  0  0  0  0  0
    1.3916   -2.2931    0.0000 H   0  0  0  0  0  0  0  0  0  0  0  0
   -0.9641   -2.8281    0.0000 H   0  0  0  0  0  0  0  0  0  0  0  0
   -1.8908   -2.2931    0.0000 H   0  0  0  0  0  0  0  0  0  0  0  0
   -2.6052   -1.8806    0.0000 H   0  0  0  0  0  0  0  0  0  0  0  0
   -2.6051   -0.8106    0.0000 H   0  0  0  0  0  0  0  0  0  0  0  0
   -2.6052    0.0144    0.0000 H   0  0  0  0  0  0  0  0  0  0  0  0
   -1.6785    0.5494    0.0000 H   0  0  0  0  0  0  0  0  0  0  0  0
    0.4925    0.6576    0.0000 H   0  0  0  0  0  0  0  0  0  0  0  0
   -1.1438    1.5277    0.0000 H   0  0  0  0  0  0  0  0  0  0  0  0
   -0.0745    1.5651    0.0000 H   0  0  0  0  0  0  0  0  0  0  0  0
   -0.7844    1.5277    0.0000 H   0  0  0  0  0  0  0  0  0  0  0  0
   -2.4207    0.6576    0.0000 H   0  0  0  0  0  0  0  0  0  0  0  0
   -1.8537    1.5651    0.0000 H   0  0  0  0  0  0  0  0  0  0  0  0
  1  2  1  0  0  0  0
  1 16  1  0  0  0  0
  1 17  1  0  0  0  0
  1 18  1  0  0  0  0
  2  3  2  0  0  0  0
  2 19  1  0  0  0  0
  3  4  1  0  0  0  0
  3  5  1  0  0  0  0
  4 20  1  0  0  0  0
  4 21  1  0  0  0  0
  4 22  1  0  0  0  0
  5  6  2  0  0  0  0
  5 23  1  0  0  0  0
  6  7  1  0  0  0  0
  6 24  1  0  0  0  0
  7  8  2  0  0  0  0
  7 13  1  0  0  0  0
  8  9  1  0  0  0  0
  8 10  1  0  0  0  0
  9 25  1  0  0  0  0
  9 26  1  0  0  0  0
  9 27  1  0  0  0  0
 10 11  1  0  0  0  0
 10 28  1  0  0  0  0
 10 29  1  0  0  0  0
 11 12  1  0  0  0  0
 11 30  1  0  0  0  0
 11 31  1  0  0  0  0
 12 13  1  0  0  0  0
 12 32  1  0  0  0  0
 12 33  1  0  0  0  0
 13 14  1  0  0  0  0
 13 15  1  0  0  0  0
 14 34  1  0  0  0  0
 14 35  1  0  0  0  0
 14 36  1  0  0  0  0
 15 37  1  0  0  0  0
 15 38  1  0  0  0  0
 15 39  1  0  0  0  0
M  END
>  <DRUGBANK_ID>
DB08127

>  <COMMON_NAME>
1,3,3-trimethyl-2-[(1E,3E)-3-methylpenta-1,3-dien-1-yl]cyclohexene

$$$$
