
 OpenBabel10282417072D

 43 43  0  0  0  0  0  0  0  0999 V2000
   -2.1434   -2.6813    0.0000 I   0  0  0  0  0  0  0  0  0  0  0  0
    0.7144   -2.6813    0.0000 I   0  0  0  0  0  0  0  0  0  0  0  0
   -1.4290    3.5063    0.0000 O   0  0  0  0  0  0  0  0  0  0  0  0
    0.7144    1.4437    0.0000 O   0  0  0  0  0  0  0  0  0  0  0  0
    0.0000    3.5063    0.0000 O   0  0  0  0  0  0  0  0  0  0  0  0
    0.7144    2.2687    0.0000 O   0  0  0  0  0  0  0  0  0  0  0  0
    1.4289    1.0312    0.0000 O   0  0  0  0  0  0  0  0  0  0  0  0
   -0.7144   -3.5063    0.0000 O   0  0  0  0  0  0  0  0  0  0  0  0
   -0.7144    1.4437    0.0000 N   0  0  0  0  0  0  0  0  0  0  0  0
    0.7144   -0.2062    0.0000 N   0  0  0  0  0  0  0  0  0  0  0  0
    0.0000    0.2062    0.0000 C   0  0  1  0  0  0  0  0  0  0  0  0
   -0.7144   -0.2062    0.0000 C   0  0  0  0  0  0  0  0  0  0  0  0
   -0.7144    2.2687    0.0000 C   0  0  2  0  0  0  0  0  0  0  0  0
    0.0000    1.0312    0.0000 C   0  0  0  0  0  0  0  0  0  0  0  0
   -1.4290    2.6813    0.0000 C   0  0  1  0  0  0  0  0  0  0  0  0
   -0.7144   -1.0312    0.0000 C   0  0  0  0  0  0  0  0  0  0  0  0
   -2.1434    2.2687    0.0000 C   0  0  0  0  0  0  0  0  0  0  0  0
    0.0000    2.6813    0.0000 C   0  0  0  0  0  0  0  0  0  0  0  0
    0.0000   -1.4437    0.0000 C   0  0  0  0  0  0  0  0  0  0  0  0
   -1.4290   -1.4437    0.0000 C   0  0  0  0  0  0  0  0  0  0  0  0
    1.4289    0.2062    0.0000 C   0  0  0  0  0  0  0  0  0  0  0  0
   -1.4290   -2.2687    0.0000 C   0  0  0  0  0  0  0  0  0  0  0  0
    0.0000   -2.2687    0.0000 C   0  0  0  0  0  0  0  0  0  0  0  0
   -0.7144   -2.6813    0.0000 C   0  0  0  0  0  0  0  0  0  0  0  0
    2.1434   -0.2062    0.0000 C   0  0  0  0  0  0  0  0  0  0  0  0
   -1.1575    1.1880    0.0000 H   0  0  0  0  0  0  0  0  0  0  0  0
    0.7144   -0.7177    0.0000 H   0  0  0  0  0  0  0  0  0  0  0  0
   -0.5890    3.9913    0.0000 H   0  0  0  0  0  0  0  0  0  0  0  0
    0.8115    3.9748    0.0000 H   0  0  0  0  0  0  0  0  0  0  0  0
   -1.5259   -3.9748    0.0000 H   0  0  0  0  0  0  0  0  0  0  0  0
    0.0000   -0.8638    0.0000 H   0  0  0  0  0  0  0  0  0  0  0  0
   -1.6410    0.3288    0.0000 H   0  0  0  0  0  0  0  0  0  0  0  0
   -1.6411   -0.7412    0.0000 H   0  0  0  0  0  0  0  0  0  0  0  0
   -1.6411    1.7337    0.0000 H   0  0  0  0  0  0  0  0  0  0  0  0
   -0.5023    3.2163    0.0000 H   0  0  0  0  0  0  0  0  0  0  0  0
   -3.0701    2.8036    0.0000 H   0  0  0  0  0  0  0  0  0  0  0  0
   -2.1432    1.1987    0.0000 H   0  0  0  0  0  0  0  0  0  0  0  0
   -3.0700    1.7336    0.0000 H   0  0  0  0  0  0  0  0  0  0  0  0
    0.8937   -0.9277    0.0000 H   0  0  0  0  0  0  0  0  0  0  0  0
   -2.3227   -0.9277    0.0000 H   0  0  0  0  0  0  0  0  0  0  0  0
    2.1435   -1.2762    0.0000 H   0  0  0  0  0  0  0  0  0  0  0  0
    3.0700    0.3289    0.0000 H   0  0  0  0  0  0  0  0  0  0  0  0
    3.0701   -0.7411    0.0000 H   0  0  0  0  0  0  0  0  0  0  0  0
  1 22  1  0  0  0  0
  2 23  1  0  0  0  0
  3 28  1  0  0  0  0
  4 14  2  0  0  0  0
  5 18  1  0  0  0  0
  5 29  1  0  0  0  0
  6 18  2  0  0  0  0
  7 21  2  0  0  0  0
  8 24  1  0  0  0  0
  8 30  1  0  0  0  0
  9 14  1  0  0  0  0
  9 26  1  0  0  0  0
 10 21  1  0  0  0  0
 10 27  1  0  0  0  0
 11 10  1  0  0  0  0
 11 12  1  0  0  0  0
 11 14  1  0  0  0  0
 11 31  1  6  0  0  0
 12 16  1  0  0  0  0
 12 32  1  0  0  0  0
 12 33  1  0  0  0  0
 13  9  1  0  0  0  0
 13 15  1  0  0  0  0
 13 18  1  0  0  0  0
 13 34  1  1  0  0  0
 15  3  1  0  0  0  0
 15 17  1  0  0  0  0
 15 35  1  6  0  0  0
 16 19  2  0  0  0  0
 16 20  1  0  0  0  0
 17 36  1  0  0  0  0
 17 37  1  0  0  0  0
 17 38  1  0  0  0  0
 19 23  1  0  0  0  0
 19 39  1  0  0  0  0
 20 22  2  0  0  0  0
 20 40  1  0  0  0  0
 21 25  1  0  0  0  0
 22 24  1  0  0  0  0
 23 24  2  0  0  0  0
 25 41  1  0  0  0  0
 25 42  1  0  0  0  0
 25 43  1  0  0  0  0
M  END
>  <DRUGBANK_ID>
DB04150

>  <SECONDARY_ACCESSION_NUMBERS>
EXPT01952

>  <COMMON_NAME>
N-alpha-Acetyl-3,5-diiodotyrosyl-D-threonine

$$$$
