991
 OpenBabel10282417072D

 46 49  0  0  0  0  0  0  0  0999 V2000
    2.0534   -0.4671    0.0000 C   0  0  0  0  0  0  0  0  0  0  0  0
    2.0534   -1.2921    0.0000 C   0  0  0  0  0  0  0  0  0  0  0  0
    2.7678   -1.7046    0.0000 Cl  0  0  0  0  0  0  0  0  0  0  0  0
    1.3389   -1.7046    0.0000 C   0  0  0  0  0  0  0  0  0  0  0  0
    0.6244   -1.2921    0.0000 C   0  0  0  0  0  0  0  0  0  0  0  0
    0.6244   -0.4671    0.0000 C   0  0  0  0  0  0  0  0  0  0  0  0
    1.3389   -0.0546    0.0000 C   0  0  0  0  0  0  0  0  0  0  0  0
    2.7678   -0.0546    0.0000 C   0  0  0  0  0  0  0  0  0  0  0  0
    3.4823   -0.4671    0.0000 N   0  0  0  0  0  0  0  0  0  0  0  0
    2.7678    0.7704    0.0000 N   0  3  0  0  0  0  0  0  0  0  0  0
   -0.1602   -1.5470    0.0000 N   0  0  0  0  0  0  0  0  0  0  0  0
   -0.1602   -0.2121    0.0000 C   0  0  0  0  0  0  0  0  0  0  0  0
   -0.6451   -0.8796    0.0000 C   0  0  0  0  0  0  0  0  0  0  0  0
   -1.4701   -0.8796    0.0000 C   0  0  0  0  0  0  0  0  0  0  0  0
   -1.8826   -1.5940    0.0000 C   0  0  0  0  0  0  0  0  0  0  0  0
   -2.7076   -1.5940    0.0000 C   0  0  0  0  0  0  0  0  0  0  0  0
   -3.1201   -0.8796    0.0000 C   0  0  0  0  0  0  0  0  0  0  0  0
   -2.7076   -0.1651    0.0000 C   0  0  0  0  0  0  0  0  0  0  0  0
   -3.1201    0.5494    0.0000 O   0  0  0  0  0  0  0  0  0  0  0  0
   -1.8826   -0.1651    0.0000 C   0  0  0  0  0  0  0  0  0  0  0  0
   -1.4701    0.5494    0.0000 O   0  5  0  0  0  0  0  0  0  0  0  0
   -1.8871    1.3501    0.0000 C   0  0  0  0  0  0  0  0  0  0  0  0
   -2.7076    1.2638    0.0000 C   0  0  0  0  0  0  0  0  0  0  0  0
   -3.0432    2.0175    0.0000 C   0  0  0  0  0  0  0  0  0  0  0  0
   -2.4301    2.5695    0.0000 C   0  0  0  0  0  0  0  0  0  0  0  0
   -1.7156    2.1570    0.0000 C   0  0  0  0  0  0  0  0  0  0  0  0
    1.3389   -2.7366    0.0000 H   0  0  0  0  0  0  0  0  0  0  0  0
    1.3389    0.9774    0.0000 H   0  0  0  0  0  0  0  0  0  0  0  0
    3.4823   -1.4516    0.0000 H   0  0  0  0  0  0  0  0  0  0  0  0
    4.3349    0.0252    0.0000 H   0  0  0  0  0  0  0  0  0  0  0  0
    3.6204    1.2627    0.0000 H   0  0  0  0  0  0  0  0  0  0  0  0
    1.9152    1.2626    0.0000 H   0  0  0  0  0  0  0  0  0  0  0  0
   -0.4644   -2.4833    0.0000 H   0  0  0  0  0  0  0  0  0  0  0  0
   -0.4791    0.7694    0.0000 H   0  0  0  0  0  0  0  0  0  0  0  0
   -1.3666   -2.4877    0.0000 H   0  0  0  0  0  0  0  0  0  0  0  0
   -3.2236   -2.4877    0.0000 H   0  0  0  0  0  0  0  0  0  0  0  0
   -4.1521   -0.8796    0.0000 H   0  0  0  0  0  0  0  0  0  0  0  0
   -1.1711    0.5550    0.0000 H   0  0  0  0  0  0  0  0  0  0  0  0
   -0.8536    1.6271    0.0000 H   0  0  0  0  0  0  0  0  0  0  0  0
   -2.1727    2.1905    0.0000 H   0  0  0  0  0  0  0  0  0  0  0  0
   -4.0898    2.2400    0.0000 H   0  0  0  0  0  0  0  0  0  0  0  0
   -3.3201    3.0510    0.0000 H   0  0  0  0  0  0  0  0  0  0  0  0
   -2.5419    3.6336    0.0000 H   0  0  0  0  0  0  0  0  0  0  0  0
   -1.5327    3.1523    0.0000 H   0  0  0  0  0  0  0  0  0  0  0  0
   -0.7381    2.5922    0.0000 H   0  0  0  0  0  0  0  0  0  0  0  0
   -1.6596    3.2255    0.0000 H   0  0  0  0  0  0  0  0  0  0  0  0
  1  2  2  0  0  0  0
  1  7  1  0  0  0  0
  1  8  1  0  0  0  0
  2  3  1  0  0  0  0
  2  4  1  0  0  0  0
  4  5  2  0  0  0  0
  4 27  1  0  0  0  0
  5  6  1  0  0  0  0
  5 11  1  0  0  0  0
  6  7  2  0  0  0  0
  6 12  1  0  0  0  0
  7 28  1  0  0  0  0
  8  9  1  0  0  0  0
  8 10  2  0  0  0  0
  9 29  1  0  0  0  0
  9 30  1  0  0  0  0
 10 31  1  0  0  0  0
 10 32  1  0  0  0  0
 11 13  1  0  0  0  0
 11 33  1  0  0  0  0
 12 13  2  0  0  0  0
 12 34  1  0  0  0  0
 13 14  1  0  0  0  0
 14 15  2  0  0  0  0
 14 20  1  0  0  0  0
 15 16  1  0  0  0  0
 15 35  1  0  0  0  0
 16 17  2  0  0  0  0
 16 36  1  0  0  0  0
 17 18  1  0  0  0  0
 17 37  1  0  0  0  0
 18 19  1  0  0  0  0
 18 20  2  0  0  0  0
 19 23  1  0  0  0  0
 20 21  1  0  0  0  0
 22 23  1  0  0  0  0
 22 26  1  0  0  0  0
 22 38  1  0  0  0  0
 22 39  1  0  0  0  0
 23 24  1  0  0  0  0
 23 40  1  0  0  0  0
 24 25  1  0  0  0  0
 24 41  1  0  0  0  0
 24 42  1  0  0  0  0
 25 26  1  0  0  0  0
 25 43  1  0  0  0  0
 25 44  1  0  0  0  0
 26 45  1  0  0  0  0
 26 46  1  0  0  0  0
M  CHG  2  10   1  21  -1
M  END
>  <DRUGBANK_ID>
DB01771

>  <SECONDARY_ACCESSION_NUMBERS>
EXPT00350

>  <COMMON_NAME>
CRA_10991

$$$$
