131
 OpenBabel10282417072D

 37 39  0  0  1  0  0  0  0  0999 V2000
    6.9922    2.1365    0.0000 P   0  0  0  0  0  0  0  0  0  0  0  0
    4.9010    0.6808    0.0000 O   0  0  0  0  0  0  0  0  0  0  0  0
    2.8071    1.0969    0.0000 O   0  0  0  0  0  0  0  0  0  0  0  0
    3.8647    2.5471    0.0000 O   0  0  0  0  0  0  0  0  0  0  0  0
    6.3238    1.6527    0.0000 O   0  0  0  0  0  0  0  0  0  0  0  0
    7.4759    1.4682    0.0000 O   0  0  0  0  0  0  0  0  0  0  0  0
    7.6604    2.6202    0.0000 O   0  0  0  0  0  0  0  0  0  0  0  0
    6.5084    2.8048    0.0000 O   0  0  0  0  0  0  0  0  0  0  0  0
    3.8597   -0.3570    0.0000 N   0  0  0  0  0  0  0  0  0  0  0  0
    3.8597   -1.6848    0.0000 N   0  0  0  0  0  0  0  0  0  0  0  0
    2.3645   -0.1959    0.0000 N   0  0  0  0  0  0  0  0  0  0  0  0
    1.6500   -1.4335    0.0000 N   0  0  0  0  0  0  0  0  0  0  0  0
    2.3645   -2.6710    0.0000 N   0  0  0  0  0  0  0  0  0  0  0  0
    3.6321    1.0955    0.0000 C   0  0  2  0  0  0  0  0  0  0  0  0
    4.1182    1.7621    0.0000 C   0  0  1  0  0  0  0  0  0  0  0  0
    4.1159    0.4272    0.0000 C   0  0  1  0  0  0  0  0  0  0  0  0
    4.9025    1.5058    0.0000 C   0  0  1  0  0  0  0  0  0  0  0  0
    5.5707    1.9896    0.0000 C   0  0  0  0  0  0  0  0  0  0  0  0
    3.0790   -0.6084    0.0000 C   0  0  0  0  0  0  0  0  0  0  0  0
    4.3411   -1.0210    0.0000 C   0  0  0  0  0  0  0  0  0  0  0  0
    3.0790   -1.4335    0.0000 C   0  0  0  0  0  0  0  0  0  0  0  0
    2.3645   -1.8460    0.0000 C   0  0  0  0  0  0  0  0  0  0  0  0
    1.6500   -0.6084    0.0000 C   0  0  0  0  0  0  0  0  0  0  0  0
    2.3235    1.9378    0.0000 H   0  0  0  0  0  0  0  0  0  0  0  0
    4.5151    3.2668    0.0000 H   0  0  0  0  0  0  0  0  0  0  0  0
    7.0798    0.5828    0.0000 H   0  0  0  0  0  0  0  0  0  0  0  0
    8.5459    2.2241    0.0000 H   0  0  0  0  0  0  0  0  0  0  0  0
    1.5119   -3.1632    0.0000 H   0  0  0  0  0  0  0  0  0  0  0  0
    3.2171   -3.1632    0.0000 H   0  0  0  0  0  0  0  0  0  0  0  0
    3.1480    2.0497    0.0000 H   0  0  0  0  0  0  0  0  0  0  0  0
    3.0617    1.9314    0.0000 H   0  0  0  0  0  0  0  0  0  0  0  0
    4.8712   -0.3307    0.0000 H   0  0  0  0  0  0  0  0  0  0  0  0
    5.8550    1.0184    0.0000 H   0  0  0  0  0  0  0  0  0  0  0  0
    5.4607    3.0539    0.0000 H   0  0  0  0  0  0  0  0  0  0  0  0
    4.5939    2.4264    0.0000 H   0  0  0  0  0  0  0  0  0  0  0  0
    5.3731   -1.0211    0.0000 H   0  0  0  0  0  0  0  0  0  0  0  0
    0.7563   -0.0924    0.0000 H   0  0  0  0  0  0  0  0  0  0  0  0
  1  5  1  0  0  0  0
  1  6  1  0  0  0  0
  1  7  1  0  0  0  0
  1  8  2  0  0  0  0
  2 16  1  0  0  0  0
  2 17  1  0  0  0  0
  3 24  1  0  0  0  0
  4 25  1  0  0  0  0
  5 18  1  0  0  0  0
  6 26  1  0  0  0  0
  7 27  1  0  0  0  0
  9 19  1  0  0  0  0
  9 20  1  0  0  0  0
 10 20  2  0  0  0  0
 10 21  1  0  0  0  0
 11 19  2  0  0  0  0
 11 23  1  0  0  0  0
 12 22  1  0  0  0  0
 12 23  2  0  0  0  0
 13 22  1  0  0  0  0
 13 28  1  0  0  0  0
 13 29  1  0  0  0  0
 14  3  1  0  0  0  0
 14 15  1  0  0  0  0
 14 16  1  0  0  0  0
 14 30  1  1  0  0  0
 15  4  1  0  0  0  0
 15 17  1  0  0  0  0
 15 31  1  1  0  0  0
 16  9  1  0  0  0  0
 16 32  1  6  0  0  0
 17 18  1  0  0  0  0
 17 33  1  6  0  0  0
 18 34  1  0  0  0  0
 18 35  1  0  0  0  0
 19 21  1  0  0  0  0
 20 36  1  0  0  0  0
 21 22  2  0  0  0  0
 23 37  1  0  0  0  0
M  END
>  <DRUGBANK_ID>
DB00131

>  <SECONDARY_ACCESSION_NUMBERS>
NUTR00011; EXPT00512

>  <COMMON_NAME>
Adenosine phosphate

>  <CAS_NUMBER>
61-19-8

>  <UNII>
415SHH325A

>  <SYNONYMS>
5'-Adenosine monophosphate; 5'-Adenylic acid; 5'-AMP; 5'-O-Phosphonoadenosine; Adenosine 5'-(dihydrogen phosphate); Adenosine 5'-monophosphate; Adenosine 5'-phosphate; Adenosine monophosphate; Adenosine phosphate; Adenosine-5'-Monophosphate; Adenosine-5'-monophosphoric acid; Adenosine-5'P; Adenosini phosphas; Adenylate; Adenylic acid; Ado5'P; AMP; Fosfato de adenosina; PAdo; Phosphate d'ad√©nosine

$$$$
