
 OpenBabel10282417072D

 33 33  0  0  0  0  0  0  0  0999 V2000
    2.4752    0.3020    0.0000 S   0  0  0  0  0  0  0  0  0  0  0  0
    1.6501    0.3020    0.0000 C   0  0  0  0  0  0  0  0  0  0  0  0
    3.3002    0.3020    0.0000 O   0  0  0  0  0  0  0  0  0  0  0  0
    2.4752    1.1271    0.0000 O   0  0  0  0  0  0  0  0  0  0  0  0
    2.4752   -0.5229    0.0000 O   0  0  0  0  0  0  0  0  0  0  0  0
    1.2376   -0.4124    0.0000 C   0  0  0  0  0  0  0  0  0  0  0  0
    0.4125   -0.4124    0.0000 N   0  0  0  0  0  0  0  0  0  0  0  0
    0.0000   -1.1271    0.0000 C   0  0  0  0  0  0  0  0  0  0  0  0
    0.0000    0.3020    0.0000 C   0  0  0  0  0  0  0  0  0  0  0  0
   -0.8250   -1.1271    0.0000 C   0  0  0  0  0  0  0  0  0  0  0  0
   -0.8250    0.3020    0.0000 C   0  0  0  0  0  0  0  0  0  0  0  0
   -1.2375   -0.4124    0.0000 N   0  0  0  0  0  0  0  0  0  0  0  0
   -2.0627   -0.4124    0.0000 C   0  0  0  0  0  0  0  0  0  0  0  0
   -2.4751    0.3020    0.0000 C   0  0  0  0  0  0  0  0  0  0  0  0
   -3.3002    0.3020    0.0000 O   0  0  0  0  0  0  0  0  0  0  0  0
    1.1151    1.2287    0.0000 H   0  0  0  0  0  0  0  0  0  0  0  0
    0.5801    0.3020    0.0000 H   0  0  0  0  0  0  0  0  0  0  0  0
    3.7852   -0.5380    0.0000 H   0  0  0  0  0  0  0  0  0  0  0  0
    1.7726   -1.3391    0.0000 H   0  0  0  0  0  0  0  0  0  0  0  0
    0.7026   -1.3390    0.0000 H   0  0  0  0  0  0  0  0  0  0  0  0
    0.5351   -2.0537    0.0000 H   0  0  0  0  0  0  0  0  0  0  0  0
   -0.5350   -2.0538    0.0000 H   0  0  0  0  0  0  0  0  0  0  0  0
    0.5350    1.2287    0.0000 H   0  0  0  0  0  0  0  0  0  0  0  0
   -0.5350    1.2286    0.0000 H   0  0  0  0  0  0  0  0  0  0  0  0
   -1.3601   -2.0537    0.0000 H   0  0  0  0  0  0  0  0  0  0  0  0
   -1.8950   -1.1270    0.0000 H   0  0  0  0  0  0  0  0  0  0  0  0
   -1.3600    1.2287    0.0000 H   0  0  0  0  0  0  0  0  0  0  0  0
   -1.8950    0.3020    0.0000 H   0  0  0  0  0  0  0  0  0  0  0  0
   -2.5977   -1.3390    0.0000 H   0  0  0  0  0  0  0  0  0  0  0  0
   -3.1327   -0.4124    0.0000 H   0  0  0  0  0  0  0  0  0  0  0  0
   -1.9401    1.2286    0.0000 H   0  0  0  0  0  0  0  0  0  0  0  0
   -3.0101    1.2287    0.0000 H   0  0  0  0  0  0  0  0  0  0  0  0
   -3.7852    1.1420    0.0000 H   0  0  0  0  0  0  0  0  0  0  0  0
  1  2  1  0  0  0  0
  1  3  1  0  0  0  0
  1  4  2  0  0  0  0
  1  5  2  0  0  0  0
  2  6  1  0  0  0  0
  2 16  1  0  0  0  0
  2 17  1  0  0  0  0
  3 18  1  0  0  0  0
  6  7  1  0  0  0  0
  6 19  1  0  0  0  0
  6 20  1  0  0  0  0
  7  8  1  0  0  0  0
  7  9  1  0  0  0  0
  8 10  1  0  0  0  0
  8 21  1  0  0  0  0
  8 22  1  0  0  0  0
  9 11  1  0  0  0  0
  9 23  1  0  0  0  0
  9 24  1  0  0  0  0
 10 12  1  0  0  0  0
 10 25  1  0  0  0  0
 10 26  1  0  0  0  0
 11 12  1  0  0  0  0
 11 27  1  0  0  0  0
 11 28  1  0  0  0  0
 12 13  1  0  0  0  0
 13 14  1  0  0  0  0
 13 29  1  0  0  0  0
 13 30  1  0  0  0  0
 14 15  1  0  0  0  0
 14 31  1  0  0  0  0
 14 32  1  0  0  0  0
 15 33  1  0  0  0  0
M  END
>  <DRUGBANK_ID>
DB16872

>  <COMMON_NAME>
HEPES

>  <CAS_NUMBER>
7365-45-9

>  <UNII>
RWW266YE9I

>  <SYNONYMS>
4-(2-Hydroxyethyl)-1-piperazineethane sulfonic acid; 4-(2-Hydroxyethyl)-1-piperazineethane sulphonic acid

$$$$
