DF2
 OpenBabel10282417072D

 47 50  0  0  0  0  0  0  0  0999 V2000
    3.8452   -2.1042    0.0000 C   0  0  0  0  0  0  0  0  0  0  0  0
    1.1467   -1.6917    0.0000 C   0  0  0  0  0  0  0  0  0  0  0  0
    0.3217   -1.6917    0.0000 C   0  0  0  0  0  0  0  0  0  0  0  0
   -0.0908   -2.4061    0.0000 C   0  0  0  0  0  0  0  0  0  0  0  0
   -0.9158   -2.4061    0.0000 C   0  0  0  0  0  0  0  0  0  0  0  0
   -1.3283   -1.6917    0.0000 C   0  0  0  0  0  0  0  0  0  0  0  0
   -0.9158   -0.9772    0.0000 C   0  0  0  0  0  0  0  0  0  0  0  0
   -0.0908   -0.9772    0.0000 C   0  0  0  0  0  0  0  0  0  0  0  0
    0.5697   -0.0681    0.0000 C   0  0  0  0  0  0  0  0  0  0  0  0
    0.3148    0.7165    0.0000 C   0  0  0  0  0  0  0  0  0  0  0  0
    0.8668    1.3296    0.0000 C   0  0  0  0  0  0  0  0  0  0  0  0
    1.6738    1.1581    0.0000 C   0  0  0  0  0  0  0  0  0  0  0  0
    3.1307   -2.5167    0.0000 N   0  0  0  0  0  0  0  0  0  0  0  0
    4.5597    1.6083    0.0000 C   0  0  0  0  0  0  0  0  0  0  0  0
    2.4163   -2.1042    0.0000 C   0  0  0  0  0  0  0  0  0  0  0  0
    2.4163   -1.2792    0.0000 C   0  0  0  0  0  0  0  0  0  0  0  0
    4.5597    2.4333    0.0000 O   0  0  0  0  0  0  0  0  0  0  0  0
    3.1307   -0.0417    0.0000 N   0  0  0  0  0  0  0  0  0  0  0  0
    3.1307   -0.8667    0.0000 C   0  0  0  0  0  0  0  0  0  0  0  0
    3.8452   -1.2792    0.0000 N   0  0  0  0  0  0  0  0  0  0  0  0
    1.6316   -2.3591    0.0000 N   0  0  0  0  0  0  0  0  0  0  0  0
    1.9287    0.3735    0.0000 C   0  0  0  0  0  0  0  0  0  0  0  0
    1.6316   -1.0242    0.0000 C   0  0  0  0  0  0  0  0  0  0  0  0
    1.3767   -0.2396    0.0000 C   0  0  0  0  0  0  0  0  0  0  0  0
    3.8452    1.1958    0.0000 C   0  0  1  0  0  0  0  0  0  0  0  0
    3.8452    0.3708    0.0000 C   0  0  0  0  0  0  0  0  0  0  0  0
    3.1307    1.6083    0.0000 O   0  0  0  0  0  0  0  0  0  0  0  0
    4.3509    0.9039    0.0000 H   0  0  0  0  0  0  0  0  0  0  0  0
    4.7389   -2.6202    0.0000 H   0  0  0  0  0  0  0  0  0  0  0  0
    0.4252   -3.2998    0.0000 H   0  0  0  0  0  0  0  0  0  0  0  0
   -1.4318   -3.2998    0.0000 H   0  0  0  0  0  0  0  0  0  0  0  0
   -2.3603   -1.6917    0.0000 H   0  0  0  0  0  0  0  0  0  0  0  0
   -1.4318   -0.0835    0.0000 H   0  0  0  0  0  0  0  0  0  0  0  0
    0.4252   -0.0835    0.0000 H   0  0  0  0  0  0  0  0  0  0  0  0
   -0.1208   -0.8350    0.0000 H   0  0  0  0  0  0  0  0  0  0  0  0
   -0.6946    0.9311    0.0000 H   0  0  0  0  0  0  0  0  0  0  0  0
    0.5479    2.3111    0.0000 H   0  0  0  0  0  0  0  0  0  0  0  0
    2.3643    1.9250    0.0000 H   0  0  0  0  0  0  0  0  0  0  0  0
    5.4863    1.0733    0.0000 H   0  0  0  0  0  0  0  0  0  0  0  0
    4.5597    0.5383    0.0000 H   0  0  0  0  0  0  0  0  0  0  0  0
    5.3997    2.9183    0.0000 H   0  0  0  0  0  0  0  0  0  0  0  0
    2.2781    0.4506    0.0000 H   0  0  0  0  0  0  0  0  0  0  0  0
    1.3273   -3.2954    0.0000 H   0  0  0  0  0  0  0  0  0  0  0  0
    2.9381    0.1589    0.0000 H   0  0  0  0  0  0  0  0  0  0  0  0
    4.7718   -0.1642    0.0000 H   0  0  0  0  0  0  0  0  0  0  0  0
    4.7718    0.9058    0.0000 H   0  0  0  0  0  0  0  0  0  0  0  0
    3.1307    2.5783    0.0000 H   0  0  0  0  0  0  0  0  0  0  0  0
  1 13  1  0  0  0  0
  1 20  2  0  0  0  0
  1 29  1  0  0  0  0
  2  3  1  0  0  0  0
  2 21  1  0  0  0  0
  2 23  2  0  0  0  0
  3  4  2  0  0  0  0
  3  8  1  0  0  0  0
  4  5  1  0  0  0  0
  4 30  1  0  0  0  0
  5  6  2  0  0  0  0
  5 31  1  0  0  0  0
  6  7  1  0  0  0  0
  6 32  1  0  0  0  0
  7  8  2  0  0  0  0
  7 33  1  0  0  0  0
  8 34  1  0  0  0  0
  9 10  2  0  0  0  0
  9 24  1  0  0  0  0
  9 35  1  0  0  0  0
 10 11  1  0  0  0  0
 10 36  1  0  0  0  0
 11 12  2  0  0  0  0
 11 37  1  0  0  0  0
 12 22  1  0  0  0  0
 12 38  1  0  0  0  0
 13 15  2  0  0  0  0
 14 17  1  0  0  0  0
 14 25  1  0  0  0  0
 14 39  1  0  0  0  0
 14 40  1  0  0  0  0
 15 16  1  0  0  0  0
 15 21  1  0  0  0  0
 16 19  2  0  0  0  0
 16 23  1  0  0  0  0
 17 41  1  0  0  0  0
 18 19  1  0  0  0  0
 18 26  1  0  0  0  0
 18 42  1  0  0  0  0
 19 20  1  0  0  0  0
 21 43  1  0  0  0  0
 22 24  2  0  0  0  0
 22 44  1  0  0  0  0
 23 24  1  0  0  0  0
 25 26  1  0  0  0  0
 25 27  1  0  0  0  0
 25 28  1  6  0  0  0
 26 45  1  0  0  0  0
 26 46  1  0  0  0  0
 27 47  1  0  0  0  0
M  END
>  <DRUGBANK_ID>
DB07648

>  <COMMON_NAME>
(2R)-3-{[(4Z)-5,6-DIPHENYL-6,7-DIHYDRO-4H-PYRROLO[2,3-D]PYRIMIDIN-4-YLIDENE]AMINO}PROPANE-1,2-DIOL

$$$$
