
 OpenBabel10282417072D

 46 48  0  0  0  0  0  0  0  0999 V2000
   -2.9133    0.0956    0.0000 C   0  0  3  0  0  0  0  0  0  0  0  0
   -2.0883    0.0956    0.0000 C   0  0  3  0  0  0  0  0  0  0  0  0
   -2.5008   -0.6188    0.0000 C   0  0  0  0  0  0  0  0  0  0  0  0
   -1.3737    0.5081    0.0000 C   0  0  0  0  0  0  0  0  0  0  0  0
   -2.0883   -1.3332    0.0000 C   0  0  0  0  0  0  0  0  0  0  0  0
   -2.9133   -1.3332    0.0000 C   0  0  0  0  0  0  0  0  0  0  0  0
   -0.6591    0.0956    0.0000 O   0  0  0  0  0  0  0  0  0  0  0  0
   -1.3737    1.3332    0.0000 O   0  0  0  0  0  0  0  0  0  0  0  0
   -3.6278    0.5081    0.0000 C   0  0  0  0  0  0  0  0  0  0  0  0
   -4.3423    0.0956    0.0000 C   0  0  0  0  0  0  0  0  0  0  0  0
   -4.3423   -0.7294    0.0000 Cl  0  0  0  0  0  0  0  0  0  0  0  0
    0.0552    0.5081    0.0000 C   0  0  0  0  0  0  0  0  0  0  0  0
    0.7698    0.0956    0.0000 C   0  0  0  0  0  0  0  0  0  0  0  0
    1.4842    0.5081    0.0000 C   0  0  0  0  0  0  0  0  0  0  0  0
    0.7698   -0.7294    0.0000 C   0  0  0  0  0  0  0  0  0  0  0  0
    1.4842   -1.1419    0.0000 C   0  0  0  0  0  0  0  0  0  0  0  0
    2.1988    0.0956    0.0000 C   0  0  0  0  0  0  0  0  0  0  0  0
    2.9133    0.5081    0.0000 O   0  0  0  0  0  0  0  0  0  0  0  0
    3.6278    0.0956    0.0000 C   0  0  0  0  0  0  0  0  0  0  0  0
    4.3423    0.5081    0.0000 C   0  0  0  0  0  0  0  0  0  0  0  0
    3.6278   -0.7294    0.0000 C   0  0  0  0  0  0  0  0  0  0  0  0
    4.3423   -1.1419    0.0000 C   0  0  0  0  0  0  0  0  0  0  0  0
    5.0569   -0.7294    0.0000 C   0  0  0  0  0  0  0  0  0  0  0  0
    5.0569    0.0956    0.0000 C   0  0  0  0  0  0  0  0  0  0  0  0
    2.1988   -0.7294    0.0000 C   0  0  0  0  0  0  0  0  0  0  0  0
   -5.0569    0.5081    0.0000 Cl  0  0  0  0  0  0  0  0  0  0  0  0
   -1.9866   -0.4394    0.0000 H   0  0  0  0  0  0  0  0  0  0  0  0
   -2.3652    1.1292    0.0000 H   0  0  0  0  0  0  0  0  0  0  0  0
   -2.6233   -2.2599    0.0000 H   0  0  0  0  0  0  0  0  0  0  0  0
   -1.0183   -1.3332    0.0000 H   0  0  0  0  0  0  0  0  0  0  0  0
   -1.5533   -2.2598    0.0000 H   0  0  0  0  0  0  0  0  0  0  0  0
   -3.9833   -1.3332    0.0000 H   0  0  0  0  0  0  0  0  0  0  0  0
   -2.3783   -2.2599    0.0000 H   0  0  0  0  0  0  0  0  0  0  0  0
   -3.4483   -2.2598    0.0000 H   0  0  0  0  0  0  0  0  0  0  0  0
   -3.6278    1.5401    0.0000 H   0  0  0  0  0  0  0  0  0  0  0  0
    0.0551    1.5781    0.0000 H   0  0  0  0  0  0  0  0  0  0  0  0
    0.9818    1.0432    0.0000 H   0  0  0  0  0  0  0  0  0  0  0  0
    1.4841    1.5401    0.0000 H   0  0  0  0  0  0  0  0  0  0  0  0
   -0.1239   -1.2454    0.0000 H   0  0  0  0  0  0  0  0  0  0  0  0
    1.4841   -2.1739    0.0000 H   0  0  0  0  0  0  0  0  0  0  0  0
    4.3423    1.5401    0.0000 H   0  0  0  0  0  0  0  0  0  0  0  0
    2.7341   -1.2454    0.0000 H   0  0  0  0  0  0  0  0  0  0  0  0
    4.3423   -2.1739    0.0000 H   0  0  0  0  0  0  0  0  0  0  0  0
    5.9506   -1.2454    0.0000 H   0  0  0  0  0  0  0  0  0  0  0  0
    5.9506    0.6116    0.0000 H   0  0  0  0  0  0  0  0  0  0  0  0
    3.0925   -1.2454    0.0000 H   0  0  0  0  0  0  0  0  0  0  0  0
  1  2  1  0  0  0  0
  1  3  1  0  0  0  0
  1  9  1  0  0  0  0
  1 27  1  0  0  0  0
  2  4  1  0  0  0  0
  2  3  1  0  0  0  0
  2 28  1  0  0  0  0
  3  5  1  0  0  0  0
  3  6  1  0  0  0  0
  4  7  1  0  0  0  0
  4  8  2  0  0  0  0
  5 29  1  0  0  0  0
  5 30  1  0  0  0  0
  5 31  1  0  0  0  0
  6 32  1  0  0  0  0
  6 33  1  0  0  0  0
  6 34  1  0  0  0  0
  9 10  2  0  0  0  0
  9 35  1  0  0  0  0
 10 11  1  0  0  0  0
 10 26  1  0  0  0  0
 12  7  1  0  0  0  0
 12 13  1  0  0  0  0
 12 36  1  0  0  0  0
 12 37  1  0  0  0  0
 13 15  1  0  0  0  0
 14 13  2  0  0  0  0
 14 17  1  0  0  0  0
 14 38  1  0  0  0  0
 15 16  2  0  0  0  0
 15 39  1  0  0  0  0
 16 25  1  0  0  0  0
 16 40  1  0  0  0  0
 17 18  1  0  0  0  0
 18 19  1  0  0  0  0
 19 21  1  0  0  0  0
 20 19  2  0  0  0  0
 20 24  1  0  0  0  0
 20 41  1  0  0  0  0
 21 22  2  0  0  0  0
 21 42  1  0  0  0  0
 22 23  1  0  0  0  0
 22 43  1  0  0  0  0
 23 24  2  0  0  0  0
 23 44  1  0  0  0  0
 24 45  1  0  0  0  0
 25 17  2  0  0  0  0
 25 46  1  0  0  0  0
M  END
>  <DRUGBANK_ID>
DB04930

>  <COMMON_NAME>
Permethrin

>  <CAS_NUMBER>
52645-53-1

>  <UNII>
509F88P9SZ

>  <SYNONYMS>
(3-Phenoxyphenyl)methyl (Â±)-cis,trans-3-(2,2-dichloroethenyl)-2,2-dimethylcyclopropanecarboxylate; 3-(2,2-Dichloroethenyl)-2,2-dimethylcyclopropane carboxylic acid, (3-phenoxyphenyl) methyl ester; Permethrin

$$$$
