
 OpenBabel10282417072D

 65 69  0  0  0  0  0  0  0  0999 V2000
   -0.3476   -0.3424    0.0000 C   0  0  0  0  0  0  0  0  0  0  0  0
    0.4369   -0.0874    0.0000 S   0  0  0  0  0  0  0  0  0  0  0  0
    0.9218   -0.7548    0.0000 C   0  0  0  0  0  0  0  0  0  0  0  0
    1.7468   -0.7548    0.0000 C   0  0  0  0  0  0  0  0  0  0  0  0
    2.1593   -0.0403    0.0000 N   0  0  0  0  0  0  0  0  0  0  0  0
    1.7468    0.6740    0.0000 C   0  0  0  0  0  0  0  0  0  0  0  0
    2.1593    1.3885    0.0000 C   0  0  0  0  0  0  0  0  0  0  0  0
    2.9842    1.3885    0.0000 N   0  0  0  0  0  0  0  0  0  0  0  0
    3.3967    2.1030    0.0000 C   0  0  0  0  0  0  0  0  0  0  0  0
    4.2216    2.1030    0.0000 C   0  0  1  0  0  0  0  0  0  0  0  0
    4.6341    2.8175    0.0000 O   0  0  0  0  0  0  0  0  0  0  0  0
    4.6342    1.3886    0.0000 C   0  0  0  0  0  0  0  0  0  0  0  0
    2.9842    2.8174    0.0000 O   0  0  0  0  0  0  0  0  0  0  0  0
    3.3967    0.6741    0.0000 C   0  0  0  0  0  0  0  0  0  0  0  0
    2.9843   -0.0403    0.0000 C   0  0  0  0  0  0  0  0  0  0  0  0
    0.4370   -1.4223    0.0000 C   0  0  0  0  0  0  0  0  0  0  0  0
    0.6919   -2.2069    0.0000 C   0  0  0  0  0  0  0  0  0  0  0  0
   -0.3475   -1.1674    0.0000 C   0  0  0  0  0  0  0  0  0  0  0  0
   -1.0620   -1.5799    0.0000 N   0  0  0  0  0  0  0  0  0  0  0  0
   -1.7765   -1.1674    0.0000 C   0  0  0  0  0  0  0  0  0  0  0  0
   -2.4909   -1.5800    0.0000 C   0  0  0  0  0  0  0  0  0  0  0  0
   -2.4909   -2.4049    0.0000 C   0  0  0  0  0  0  0  0  0  0  0  0
   -3.2053   -2.8174    0.0000 N   0  0  0  0  0  0  0  0  0  0  0  0
   -3.9198   -2.4050    0.0000 C   0  0  0  0  0  0  0  0  0  0  0  0
   -4.6342   -2.8175    0.0000 N   0  0  0  0  0  0  0  0  0  0  0  0
   -3.9198   -1.5800    0.0000 N   0  0  0  0  0  0  0  0  0  0  0  0
   -3.2054   -1.1675    0.0000 C   0  0  0  0  0  0  0  0  0  0  0  0
   -1.7765   -0.3424    0.0000 N   0  0  0  0  0  0  0  0  0  0  0  0
   -1.0621    0.0700    0.0000 C   0  0  0  0  0  0  0  0  0  0  0  0
   -1.0621    0.8949    0.0000 N   0  0  0  0  0  0  0  0  0  0  0  0
   -1.7766    1.3074    0.0000 C   0  0  0  0  0  0  0  0  0  0  0  0
   -1.7766    2.1324    0.0000 C   0  0  0  0  0  0  0  0  0  0  0  0
   -1.0621    2.5449    0.0000 O   0  0  0  0  0  0  0  0  0  0  0  0
   -0.3477    2.1325    0.0000 C   0  0  0  0  0  0  0  0  0  0  0  0
   -0.3477    1.3075    0.0000 C   0  0  0  0  0  0  0  0  0  0  0  0
    2.2818   -1.6814    0.0000 H   0  0  0  0  0  0  0  0  0  0  0  0
    2.8168   -0.7548    0.0000 H   0  0  0  0  0  0  0  0  0  0  0  0
    0.6768    0.6739    0.0000 H   0  0  0  0  0  0  0  0  0  0  0  0
    1.2118    1.6006    0.0000 H   0  0  0  0  0  0  0  0  0  0  0  0
    1.6243    2.3151    0.0000 H   0  0  0  0  0  0  0  0  0  0  0  0
    2.6943    2.3151    0.0000 H   0  0  0  0  0  0  0  0  0  0  0  0
    3.6867    1.1763    0.0000 H   0  0  0  0  0  0  0  0  0  0  0  0
    5.6041    2.8175    0.0000 H   0  0  0  0  0  0  0  0  0  0  0  0
    4.0993    0.4619    0.0000 H   0  0  0  0  0  0  0  0  0  0  0  0
    5.7042    1.3888    0.0000 H   0  0  0  0  0  0  0  0  0  0  0  0
    5.1693    0.4620    0.0000 H   0  0  0  0  0  0  0  0  0  0  0  0
    4.4667    0.6742    0.0000 H   0  0  0  0  0  0  0  0  0  0  0  0
    3.9318   -0.2525    0.0000 H   0  0  0  0  0  0  0  0  0  0  0  0
    3.5193   -0.9669    0.0000 H   0  0  0  0  0  0  0  0  0  0  0  0
    2.4493   -0.9670    0.0000 H   0  0  0  0  0  0  0  0  0  0  0  0
   -0.0241   -3.0020    0.0000 H   0  0  0  0  0  0  0  0  0  0  0  0
    1.7385   -2.4294    0.0000 H   0  0  0  0  0  0  0  0  0  0  0  0
    1.0225   -3.2245    0.0000 H   0  0  0  0  0  0  0  0  0  0  0  0
   -1.5972   -2.9209    0.0000 H   0  0  0  0  0  0  0  0  0  0  0  0
   -5.4868   -2.3253    0.0000 H   0  0  0  0  0  0  0  0  0  0  0  0
   -4.6342   -3.8020    0.0000 H   0  0  0  0  0  0  0  0  0  0  0  0
   -3.2054   -0.1355    0.0000 H   0  0  0  0  0  0  0  0  0  0  0  0
   -2.7032    0.7724    0.0000 H   0  0  0  0  0  0  0  0  0  0  0  0
   -2.7032    1.8424    0.0000 H   0  0  0  0  0  0  0  0  0  0  0  0
   -2.7032    2.6674    0.0000 H   0  0  0  0  0  0  0  0  0  0  0  0
   -1.7766    3.2024    0.0000 H   0  0  0  0  0  0  0  0  0  0  0  0
    0.5789    2.6675    0.0000 H   0  0  0  0  0  0  0  0  0  0  0  0
    0.5790    1.5975    0.0000 H   0  0  0  0  0  0  0  0  0  0  0  0
    0.5790    0.7726    0.0000 H   0  0  0  0  0  0  0  0  0  0  0  0
   -0.3476    0.2375    0.0000 H   0  0  0  0  0  0  0  0  0  0  0  0
  1  2  1  0  0  0  0
  1 18  1  0  0  0  0
  2  3  1  0  0  0  0
  3  4  1  0  0  0  0
  4  5  1  0  0  0  0
  4 36  1  0  0  0  0
  4 37  1  0  0  0  0
  5  6  1  0  0  0  0
  6  7  1  0  0  0  0
  6 38  1  0  0  0  0
  6 39  1  0  0  0  0
  7  8  1  0  0  0  0
  7 40  1  0  0  0  0
  7 41  1  0  0  0  0
  8  9  1  0  0  0  0
  8 14  1  0  0  0  0
  9 10  1  0  0  0  0
  9 13  2  0  0  0  0
 10 11  1  0  0  0  0
 10 12  1  0  0  0  0
 10 42  1  6  0  0  0
 11 43  1  0  0  0  0
 12 44  1  0  0  0  0
 12 45  1  0  0  0  0
 12 46  1  0  0  0  0
 14 15  1  0  0  0  0
 14 47  1  0  0  0  0
 14 48  1  0  0  0  0
 15  5  1  0  0  0  0
 15 49  1  0  0  0  0
 15 50  1  0  0  0  0
 16  3  2  0  0  0  0
 16 17  1  0  0  0  0
 17 51  1  0  0  0  0
 17 52  1  0  0  0  0
 17 53  1  0  0  0  0
 18 16  1  0  0  0  0
 18 19  2  0  0  0  0
 19 20  1  0  0  0  0
 20 21  1  0  0  0  0
 20 28  2  0  0  0  0
 21 22  1  0  0  0  0
 22 23  2  0  0  0  0
 22 54  1  0  0  0  0
 23 24  1  0  0  0  0
 24 25  1  0  0  0  0
 24 26  2  0  0  0  0
 25 55  1  0  0  0  0
 25 56  1  0  0  0  0
 26 27  1  0  0  0  0
 27 21  2  0  0  0  0
 27 57  1  0  0  0  0
 28 29  1  0  0  0  0
 29 30  1  0  0  0  0
 29  1  2  0  0  0  0
 30 31  1  0  0  0  0
 31 32  1  0  0  0  0
 31 58  1  0  0  0  0
 31 59  1  0  0  0  0
 32 33  1  0  0  0  0
 32 60  1  0  0  0  0
 32 61  1  0  0  0  0
 33 34  1  0  0  0  0
 34 35  1  0  0  0  0
 34 62  1  0  0  0  0
 34 63  1  0  0  0  0
 35 30  1  0  0  0  0
 35 64  1  0  0  0  0
 35 65  1  0  0  0  0
M  END
>  <DRUGBANK_ID>
DB12180

>  <COMMON_NAME>
Apitolisib

>  <CAS_NUMBER>
1032754-93-0

>  <UNII>
1C854K1MIJ

>  <SYNONYMS>
Apitolisib; Apitolisibum

$$$$
