
 OpenBabel10282417072D

 57 60  0  0  0  0  0  0  0  0999 V2000
    0.7115    1.6595    0.0000 C   0  0  0  0  0  0  0  0  0  0  0  0
    0.7115    0.8344    0.0000 C   0  0  1  0  0  0  0  0  0  0  0  0
    1.4242    1.2500    0.0000 C   0  0  1  0  0  0  0  0  0  0  0  0
    0.7115    0.0010    0.0000 C   0  0  2  0  0  0  0  0  0  0  0  0
   -0.0009    1.2500    0.0000 C   0  0  0  0  0  0  0  0  0  0  0  0
    2.1387    1.6616    0.0000 O   0  0  0  0  0  0  0  0  0  0  0  0
    1.4242    2.0752    0.0000 C   0  0  0  0  0  0  0  0  0  0  0  0
    2.1367    0.8344    0.0000 C   0  0  0  0  0  0  0  0  0  0  0  0
   -0.0009   -0.4146    0.0000 C   0  0  1  0  0  0  0  0  0  0  0  0
    2.1367    0.0010    0.0000 C   0  0  0  0  0  0  0  0  0  0  0  0
   -0.7135    0.8344    0.0000 C   0  0  0  0  0  0  0  0  0  0  0  0
    2.8533    1.2500    0.0000 C   0  0  0  0  0  0  0  0  0  0  0  0
    2.1387    2.4867    0.0000 C   0  0  0  0  0  0  0  0  0  0  0  0
    0.7094    2.4867    0.0000 O   0  0  0  0  0  0  0  0  0  0  0  0
   -0.7135    0.0010    0.0000 C   0  0  2  0  0  0  0  0  0  0  0  0
   -0.0009   -1.2459    0.0000 C   0  0  0  0  0  0  0  0  0  0  0  0
    3.5678    1.6616    0.0000 C   0  0  0  0  0  0  0  0  0  0  0  0
    2.8533    0.4249    0.0000 O   0  0  0  0  0  0  0  0  0  0  0  0
   -1.4262   -0.4146    0.0000 C   0  0  2  0  0  0  0  0  0  0  0  0
   -0.7135   -1.6616    0.0000 C   0  0  0  0  0  0  0  0  0  0  0  0
   -1.4262   -1.2459    0.0000 C   0  0  0  0  0  0  0  0  0  0  0  0
   -2.1407    0.0010    0.0000 C   0  0  0  0  0  0  0  0  0  0  0  0
   -0.7135   -2.4867    0.0000 C   0  0  0  0  0  0  0  0  0  0  0  0
   -2.1407   -1.6616    0.0000 C   0  0  0  0  0  0  0  0  0  0  0  0
   -2.8532   -0.4146    0.0000 C   0  0  0  0  0  0  0  0  0  0  0  0
   -2.8532   -1.2459    0.0000 C   0  0  0  0  0  0  0  0  0  0  0  0
   -3.5678   -1.6575    0.0000 O   0  0  0  0  0  0  0  0  0  0  0  0
   -0.0009    0.4105    0.0000 H   0  0  0  0  0  0  0  0  0  0  0  0
   -0.7135   -0.8241    0.0000 H   0  0  0  0  0  0  0  0  0  0  0  0
    0.7115   -0.8241    0.0000 H   0  0  0  0  0  0  0  0  0  0  0  0
   -1.4262    0.4105    0.0000 H   0  0  0  0  0  0  0  0  0  0  0  0
    1.6381    2.1945    0.0000 H   0  0  0  0  0  0  0  0  0  0  0  0
   -0.2151    2.1945    0.0000 H   0  0  0  0  0  0  0  0  0  0  0  0
    0.7115    2.7295    0.0000 H   0  0  0  0  0  0  0  0  0  0  0  0
   -0.0008    2.3200    0.0000 H   0  0  0  0  0  0  0  0  0  0  0  0
   -0.9287    1.7830    0.0000 H   0  0  0  0  0  0  0  0  0  0  0  0
    3.0645    1.3673    0.0000 H   0  0  0  0  0  0  0  0  0  0  0  0
    3.0628    0.2984    0.0000 H   0  0  0  0  0  0  0  0  0  0  0  0
    2.8933   -0.7556    0.0000 H   0  0  0  0  0  0  0  0  0  0  0  0
    3.1253    0.4105    0.0000 H   0  0  0  0  0  0  0  0  0  0  0  0
   -1.6413    1.3674    0.0000 H   0  0  0  0  0  0  0  0  0  0  0  0
   -1.6396    0.2984    0.0000 H   0  0  0  0  0  0  0  0  0  0  0  0
    3.0648    1.9507    0.0000 H   0  0  0  0  0  0  0  0  0  0  0  0
    2.1398    3.5567    0.0000 H   0  0  0  0  0  0  0  0  0  0  0  0
    3.0659    3.0207    0.0000 H   0  0  0  0  0  0  0  0  0  0  0  0
    0.8940   -1.7599    0.0000 H   0  0  0  0  0  0  0  0  0  0  0  0
    4.4939    1.1257    0.0000 H   0  0  0  0  0  0  0  0  0  0  0  0
    3.5688    2.7316    0.0000 H   0  0  0  0  0  0  0  0  0  0  0  0
    4.4950    2.1957    0.0000 H   0  0  0  0  0  0  0  0  0  0  0  0
   -2.1414    1.0710    0.0000 H   0  0  0  0  0  0  0  0  0  0  0  0
   -3.0687    0.5337    0.0000 H   0  0  0  0  0  0  0  0  0  0  0  0
   -1.6401   -3.0217    0.0000 H   0  0  0  0  0  0  0  0  0  0  0  0
    0.2131   -3.0217    0.0000 H   0  0  0  0  0  0  0  0  0  0  0  0
   -0.7135   -3.5567    0.0000 H   0  0  0  0  0  0  0  0  0  0  0  0
   -2.1413   -2.6936    0.0000 H   0  0  0  0  0  0  0  0  0  0  0  0
   -3.7810    0.1183    0.0000 H   0  0  0  0  0  0  0  0  0  0  0  0
   -3.7793   -0.9506    0.0000 H   0  0  0  0  0  0  0  0  0  0  0  0
  1 32  1  0  0  0  0
  1 33  1  0  0  0  0
  1 34  1  0  0  0  0
  2  1  1  1  0  0  0
  2  3  1  0  0  0  0
  2  5  1  0  0  0  0
  3  6  1  6  0  0  0
  3  7  1  0  0  0  0
  3  8  1  0  0  0  0
  4  2  1  0  0  0  0
  4 10  1  0  0  0  0
  4 30  1  6  0  0  0
  5 11  1  0  0  0  0
  5 35  1  0  0  0  0
  5 36  1  0  0  0  0
  6 12  1  0  0  0  0
  7 13  1  0  0  0  0
  7 14  2  0  0  0  0
  8 10  1  0  0  0  0
  8 37  1  0  0  0  0
  8 38  1  0  0  0  0
  9  4  1  0  0  0  0
  9 16  1  0  0  0  0
  9 28  1  1  0  0  0
 10 39  1  0  0  0  0
 10 40  1  0  0  0  0
 11 41  1  0  0  0  0
 11 42  1  0  0  0  0
 12 17  1  0  0  0  0
 12 18  2  0  0  0  0
 13 43  1  0  0  0  0
 13 44  1  0  0  0  0
 13 45  1  0  0  0  0
 15  9  1  0  0  0  0
 15 11  1  0  0  0  0
 15 19  1  0  0  0  0
 15 29  1  6  0  0  0
 16 20  2  0  0  0  0
 16 46  1  0  0  0  0
 17 47  1  0  0  0  0
 17 48  1  0  0  0  0
 17 49  1  0  0  0  0
 19 21  1  0  0  0  0
 19 22  1  0  0  0  0
 19 31  1  1  0  0  0
 20 21  1  0  0  0  0
 20 23  1  0  0  0  0
 21 24  2  0  0  0  0
 22 25  1  0  0  0  0
 22 50  1  0  0  0  0
 22 51  1  0  0  0  0
 23 52  1  0  0  0  0
 23 53  1  0  0  0  0
 23 54  1  0  0  0  0
 24 26  1  0  0  0  0
 24 55  1  0  0  0  0
 25 26  1  0  0  0  0
 25 56  1  0  0  0  0
 25 57  1  0  0  0  0
 26 27  2  0  0  0  0
M  END
>  <DRUGBANK_ID>
DB13981

>  <COMMON_NAME>
Nomegestrol acetate

>  <CAS_NUMBER>
58652-20-3

>  <UNII>
83J78V5W05

>  <SYNONYMS>
17-alpha-Acetoxy-6-methyl-19-nor-4,6-pregnadiene-3,20-dione; 17-alpha-Hydroxy-6-methyl-19-norpregna-4,6-diene-3,20-dione acetate; Nomegestrol acetate

$$$$
