PM1
 OpenBabel10282417072D

 41 44  0  0  0  0  0  0  0  0999 V2000
    1.5287    0.7662    0.0000 C   0  0  0  0  0  0  0  0  0  0  0  0
    0.8142    0.3537    0.0000 C   0  0  0  0  0  0  0  0  0  0  0  0
    0.0997    0.7662    0.0000 N   0  0  0  0  0  0  0  0  0  0  0  0
    0.0997    1.5912    0.0000 C   0  0  0  0  0  0  0  0  0  0  0  0
    0.8142    2.0037    0.0000 C   0  0  0  0  0  0  0  0  0  0  0  0
    1.5287    1.5912    0.0000 C   0  0  0  0  0  0  0  0  0  0  0  0
   -0.6849    0.5112    0.0000 C   0  0  0  0  0  0  0  0  0  0  0  0
   -1.1698    1.1787    0.0000 C   0  0  0  0  0  0  0  0  0  0  0  0
   -0.6849    1.8461    0.0000 N   0  0  0  0  0  0  0  0  0  0  0  0
   -0.9398   -0.2734    0.0000 C   0  0  0  0  0  0  0  0  0  0  0  0
   -1.7468   -0.4449    0.0000 C   0  0  0  0  0  0  0  0  0  0  0  0
   -2.0018   -1.2295    0.0000 C   0  0  0  0  0  0  0  0  0  0  0  0
   -2.8087   -1.4011    0.0000 C   0  0  0  0  0  0  0  0  0  0  0  0
   -3.3608   -0.7880    0.0000 C   0  0  0  0  0  0  0  0  0  0  0  0
   -3.1058   -0.0034    0.0000 C   0  0  0  0  0  0  0  0  0  0  0  0
   -2.2989    0.1682    0.0000 C   0  0  0  0  0  0  0  0  0  0  0  0
    2.2431    0.3537    0.0000 C   0  0  0  0  0  0  0  0  0  0  0  0
    2.2431   -0.4713    0.0000 C   0  0  0  0  0  0  0  0  0  0  0  0
    2.9576   -0.8838    0.0000 C   0  0  0  0  0  0  0  0  0  0  0  0
    2.9576   -1.7088    0.0000 C   0  0  0  0  0  0  0  0  0  0  0  0
    2.2431   -2.1213    0.0000 C   0  0  0  0  0  0  0  0  0  0  0  0
    1.5287   -1.7088    0.0000 C   0  0  0  0  0  0  0  0  0  0  0  0
    1.5287   -0.8838    0.0000 C   0  0  0  0  0  0  0  0  0  0  0  0
    2.9576    0.7662    0.0000 O   0  0  0  0  0  0  0  0  0  0  0  0
   -0.3878   -0.8865    0.0000 O   0  0  0  0  0  0  0  0  0  0  0  0
   -1.9948    1.1787    0.0000 N   0  0  0  0  0  0  0  0  0  0  0  0
    3.6721   -0.4713    0.0000 F   0  0  0  0  0  0  0  0  0  0  0  0
    0.8142   -0.4713    0.0000 F   0  0  0  0  0  0  0  0  0  0  0  0
    0.8142   -0.6783    0.0000 H   0  0  0  0  0  0  0  0  0  0  0  0
    0.8142    3.0357    0.0000 H   0  0  0  0  0  0  0  0  0  0  0  0
    2.4224    2.1072    0.0000 H   0  0  0  0  0  0  0  0  0  0  0  0
   -1.3112   -1.9964    0.0000 H   0  0  0  0  0  0  0  0  0  0  0  0
   -3.1275   -2.3826    0.0000 H   0  0  0  0  0  0  0  0  0  0  0  0
   -4.3703   -1.0026    0.0000 H   0  0  0  0  0  0  0  0  0  0  0  0
   -3.7964    0.7635    0.0000 H   0  0  0  0  0  0  0  0  0  0  0  0
   -1.9801    1.1497    0.0000 H   0  0  0  0  0  0  0  0  0  0  0  0
    3.8513   -2.2248    0.0000 H   0  0  0  0  0  0  0  0  0  0  0  0
    2.2431   -3.1533    0.0000 H   0  0  0  0  0  0  0  0  0  0  0  0
    0.6350   -2.2248    0.0000 H   0  0  0  0  0  0  0  0  0  0  0  0
   -2.4870    2.0313    0.0000 H   0  0  0  0  0  0  0  0  0  0  0  0
   -2.4870    0.3261    0.0000 H   0  0  0  0  0  0  0  0  0  0  0  0
  1  2  2  0  0  0  0
  1  6  1  0  0  0  0
  1 17  1  0  0  0  0
  2  3  1  0  0  0  0
  2 29  1  0  0  0  0
  3  4  1  0  0  0  0
  3  7  1  0  0  0  0
  4  5  1  0  0  0  0
  4  9  2  0  0  0  0
  5  6  2  0  0  0  0
  5 30  1  0  0  0  0
  6 31  1  0  0  0  0
  7  8  2  0  0  0  0
  7 10  1  0  0  0  0
  8  9  1  0  0  0  0
  8 26  1  0  0  0  0
 10 11  1  0  0  0  0
 10 25  2  0  0  0  0
 11 12  2  0  0  0  0
 11 16  1  0  0  0  0
 12 13  1  0  0  0  0
 12 32  1  0  0  0  0
 13 14  2  0  0  0  0
 13 33  1  0  0  0  0
 14 15  1  0  0  0  0
 14 34  1  0  0  0  0
 15 16  2  0  0  0  0
 15 35  1  0  0  0  0
 16 36  1  0  0  0  0
 17 18  1  0  0  0  0
 17 24  2  0  0  0  0
 18 19  2  0  0  0  0
 18 23  1  0  0  0  0
 19 20  1  0  0  0  0
 19 27  1  0  0  0  0
 20 21  2  0  0  0  0
 20 37  1  0  0  0  0
 21 22  1  0  0  0  0
 21 38  1  0  0  0  0
 22 23  2  0  0  0  0
 22 39  1  0  0  0  0
 23 28  1  0  0  0  0
 26 40  1  0  0  0  0
 26 41  1  0  0  0  0
M  END
>  <DRUGBANK_ID>
DB04006

>  <SECONDARY_ACCESSION_NUMBERS>
EXPT02612

>  <COMMON_NAME>
[2-Amino-6-(2,6-Difluoro-Benzoyl)-Imidazo[1,2-a]Pyridin-3-Yl]-Phenyl-Methanone

$$$$
