
 OpenBabel10282417072D

 39 41  0  0  0  0  0  0  0  0999 V2000
   -1.0240   -0.6171    0.0000 C   0  0  0  0  0  0  0  0  0  0  0  0
   -0.3096   -1.0297    0.0000 C   0  0  0  0  0  0  0  0  0  0  0  0
    0.4033    0.2132    0.0000 C   0  0  0  0  0  0  0  0  0  0  0  0
    0.4021   -0.6192    0.0000 C   0  0  0  0  0  0  0  0  0  0  0  0
    1.1185   -1.0342    0.0000 F   0  0  0  0  0  0  0  0  0  0  0  0
    1.1209    0.6307    0.0000 N   0  0  0  0  0  0  0  0  0  0  0  0
    1.8419    0.2111    0.0000 C   0  0  0  0  0  0  0  0  0  0  0  0
    1.8406   -0.6171    0.0000 C   0  0  0  0  0  0  0  0  0  0  0  0
    2.5562   -1.0306    0.0000 C   0  0  0  0  0  0  0  0  0  0  0  0
    3.2736   -0.6169    0.0000 C   0  0  0  0  0  0  0  0  0  0  0  0
    3.2708    0.2145    0.0000 C   0  0  0  0  0  0  0  0  0  0  0  0
    2.5547    0.6242    0.0000 C   0  0  0  0  0  0  0  0  0  0  0  0
   -1.0228    0.2095    0.0000 C   0  0  0  0  0  0  0  0  0  0  0  0
   -0.3100    0.6202    0.0000 C   0  0  0  0  0  0  0  0  0  0  0  0
   -0.3093    1.4383    0.0000 C   0  0  0  0  0  0  0  0  0  0  0  0
   -1.0197    1.8519    0.0000 N   0  0  0  0  0  0  0  0  0  0  0  0
   -1.7324    1.4413    0.0000 O   0  0  0  0  0  0  0  0  0  0  0  0
    0.4055    1.8489    0.0000 O   0  0  0  0  0  0  0  0  0  0  0  0
   -2.4460    1.8541    0.0000 C   0  0  0  0  0  0  0  0  0  0  0  0
   -3.1604    1.4426    0.0000 C   0  0  0  0  0  0  0  0  0  0  0  0
   -3.9881    1.4439    0.0000 C   0  0  0  0  0  0  0  0  0  0  0  0
   -3.5765    0.7295    0.0000 C   0  0  0  0  0  0  0  0  0  0  0  0
   -0.3099   -1.8541    0.0000 F   0  0  0  0  0  0  0  0  0  0  0  0
    3.9881   -1.0281    0.0000 I   0  0  0  0  0  0  0  0  0  0  0  0
    2.5523    1.4487    0.0000 Cl  0  0  0  0  0  0  0  0  0  0  0  0
   -1.9182   -1.1324    0.0000 H   0  0  0  0  0  0  0  0  0  0  0  0
    1.1210    1.6152    0.0000 H   0  0  0  0  0  0  0  0  0  0  0  0
    0.9464   -1.1322    0.0000 H   0  0  0  0  0  0  0  0  0  0  0  0
    2.5557   -2.0626    0.0000 H   0  0  0  0  0  0  0  0  0  0  0  0
    4.1627    0.7338    0.0000 H   0  0  0  0  0  0  0  0  0  0  0  0
   -1.9159    0.7265    0.0000 H   0  0  0  0  0  0  0  0  0  0  0  0
   -1.0175    2.8364    0.0000 H   0  0  0  0  0  0  0  0  0  0  0  0
   -2.4450    2.9241    0.0000 H   0  0  0  0  0  0  0  0  0  0  0  0
   -3.3721    2.3900    0.0000 H   0  0  0  0  0  0  0  0  0  0  0  0
   -4.0887    0.9105    0.0000 H   0  0  0  0  0  0  0  0  0  0  0  0
   -4.9141    1.9800    0.0000 H   0  0  0  0  0  0  0  0  0  0  0  0
   -4.7455    0.6881    0.0000 H   0  0  0  0  0  0  0  0  0  0  0  0
   -3.5794   -0.3405    0.0000 H   0  0  0  0  0  0  0  0  0  0  0  0
   -2.5440    0.4488    0.0000 H   0  0  0  0  0  0  0  0  0  0  0  0
  1  2  1  0  0  0  0
  1 26  1  0  0  0  0
  2 23  1  0  0  0  0
  2  4  2  0  0  0  0
  3  6  1  0  0  0  0
  3 14  2  0  0  0  0
  3  4  1  0  0  0  0
  4  5  1  0  0  0  0
  6 27  1  0  0  0  0
  7  6  1  0  0  0  0
  7  8  2  0  0  0  0
  8  9  1  0  0  0  0
  8 28  1  0  0  0  0
  9 10  2  0  0  0  0
  9 29  1  0  0  0  0
 10 11  1  0  0  0  0
 10 24  1  0  0  0  0
 11 12  2  0  0  0  0
 11 30  1  0  0  0  0
 12  7  1  0  0  0  0
 12 25  1  0  0  0  0
 13 14  1  0  0  0  0
 13  1  2  0  0  0  0
 13 31  1  0  0  0  0
 14 15  1  0  0  0  0
 15 16  1  0  0  0  0
 15 18  2  0  0  0  0
 16 17  1  0  0  0  0
 16 32  1  0  0  0  0
 17 19  1  0  0  0  0
 19 20  1  0  0  0  0
 19 33  1  0  0  0  0
 19 34  1  0  0  0  0
 20 22  1  0  0  0  0
 20 35  1  0  0  0  0
 21 20  1  0  0  0  0
 21 36  1  0  0  0  0
 21 37  1  0  0  0  0
 22 21  1  0  0  0  0
 22 38  1  0  0  0  0
 22 39  1  0  0  0  0
M  END
>  <DRUGBANK_ID>
DB12429

>  <COMMON_NAME>
CI-1040

>  <CAS_NUMBER>
212631-79-3

>  <UNII>
R3K9Y00J04

$$$$
