IOC
 OpenBabel10282417072D

 34 35  0  0  0  0  0  0  0  0999 V2000
    0.5928   -0.6806    0.0000 C   0  0  0  0  0  0  0  0  0  0  0  0
    1.3072   -1.0931    0.0000 C   0  0  0  0  0  0  0  0  0  0  0  0
    1.3072   -1.9181    0.0000 C   0  0  0  0  0  0  0  0  0  0  0  0
    0.5928   -2.3306    0.0000 C   0  0  0  0  0  0  0  0  0  0  0  0
   -0.1217   -1.9181    0.0000 C   0  0  0  0  0  0  0  0  0  0  0  0
   -0.1217   -1.0931    0.0000 C   0  0  0  0  0  0  0  0  0  0  0  0
   -0.8362   -0.6806    0.0000 C   0  0  0  0  0  0  0  0  0  0  0  0
   -1.5506   -1.0931    0.0000 O   0  0  0  0  0  0  0  0  0  0  0  0
   -0.8362    0.1444    0.0000 N   0  0  0  0  0  0  0  0  0  0  0  0
   -1.5506    0.5569    0.0000 C   0  0  0  0  0  0  0  0  0  0  0  0
    2.0217   -2.3306    0.0000 S   0  0  0  0  0  0  0  0  0  0  0  0
    2.7362   -2.7431    0.0000 N   0  0  0  0  0  0  0  0  0  0  0  0
    2.4342   -1.6161    0.0000 O   0  0  0  0  0  0  0  0  0  0  0  0
    1.6092   -3.0450    0.0000 O   0  0  0  0  0  0  0  0  0  0  0  0
   -1.5506    1.3819    0.0000 C   0  0  0  0  0  0  0  0  0  0  0  0
   -2.2651    1.7944    0.0000 C   0  0  0  0  0  0  0  0  0  0  0  0
   -2.2651    2.6194    0.0000 C   0  0  0  0  0  0  0  0  0  0  0  0
   -1.5506    3.0319    0.0000 C   0  0  0  0  0  0  0  0  0  0  0  0
   -0.8362    2.6194    0.0000 C   0  0  0  0  0  0  0  0  0  0  0  0
   -0.8362    1.7944    0.0000 C   0  0  0  0  0  0  0  0  0  0  0  0
   -1.5506    3.8569    0.0000 F   0  0  0  0  0  0  0  0  0  0  0  0
   -2.9796    1.3819    0.0000 F   0  0  0  0  0  0  0  0  0  0  0  0
   -2.9796    3.0319    0.0000 F   0  0  0  0  0  0  0  0  0  0  0  0
    0.5928    0.3514    0.0000 H   0  0  0  0  0  0  0  0  0  0  0  0
    2.2009   -0.5771    0.0000 H   0  0  0  0  0  0  0  0  0  0  0  0
    0.5928   -3.3626    0.0000 H   0  0  0  0  0  0  0  0  0  0  0  0
   -1.0154   -2.4341    0.0000 H   0  0  0  0  0  0  0  0  0  0  0  0
    0.0164    0.6366    0.0000 H   0  0  0  0  0  0  0  0  0  0  0  0
   -2.4773    0.0219    0.0000 H   0  0  0  0  0  0  0  0  0  0  0  0
   -2.4772    1.0919    0.0000 H   0  0  0  0  0  0  0  0  0  0  0  0
    2.7362   -3.7631    0.0000 H   0  0  0  0  0  0  0  0  0  0  0  0
    3.6195   -2.2331    0.0000 H   0  0  0  0  0  0  0  0  0  0  0  0
    0.0575    3.1354    0.0000 H   0  0  0  0  0  0  0  0  0  0  0  0
    0.0575    1.2784    0.0000 H   0  0  0  0  0  0  0  0  0  0  0  0
  1  2  2  0  0  0  0
  1  6  1  0  0  0  0
  1 24  1  0  0  0  0
  2  3  1  0  0  0  0
  2 25  1  0  0  0  0
  3  4  2  0  0  0  0
  3 11  1  0  0  0  0
  4  5  1  0  0  0  0
  4 26  1  0  0  0  0
  5  6  2  0  0  0  0
  5 27  1  0  0  0  0
  6  7  1  0  0  0  0
  7  8  2  0  0  0  0
  7  9  1  0  0  0  0
  9 10  1  0  0  0  0
  9 28  1  0  0  0  0
 10 15  1  0  0  0  0
 10 29  1  0  0  0  0
 10 30  1  0  0  0  0
 11 12  1  0  0  0  0
 11 13  2  0  0  0  0
 11 14  2  0  0  0  0
 12 31  1  0  0  0  0
 12 32  1  0  0  0  0
 15 16  2  0  0  0  0
 15 20  1  0  0  0  0
 16 17  1  0  0  0  0
 16 22  1  0  0  0  0
 17 18  2  0  0  0  0
 17 23  1  0  0  0  0
 18 19  1  0  0  0  0
 18 21  1  0  0  0  0
 19 20  2  0  0  0  0
 19 33  1  0  0  0  0
 20 34  1  0  0  0  0
M  END
>  <DRUGBANK_ID>
DB04549

>  <SECONDARY_ACCESSION_NUMBERS>
EXPT01902

>  <COMMON_NAME>
4-(Aminosulfonyl)-N-[(2,3,4-Trifluorophenyl)Methyl]-Benzamide

$$$$
