NPC
 OpenBabel10282417072D

 39 39  0  0  0  0  0  0  0  0999 V2000
   -2.3079    0.1229    0.0000 C   0  0  0  0  0  0  0  0  0  0  0  0
   -3.0224   -0.2896    0.0000 C   0  0  0  0  0  0  0  0  0  0  0  0
   -3.7369    0.1229    0.0000 C   0  0  0  0  0  0  0  0  0  0  0  0
   -4.4514   -0.2896    0.0000 N   0  3  0  0  0  0  0  0  0  0  0  0
   -5.1658    0.1229    0.0000 O   0  5  0  0  0  0  0  0  0  0  0  0
   -4.4514   -1.1146    0.0000 O   0  0  0  0  0  0  0  0  0  0  0  0
   -3.7369    0.9479    0.0000 C   0  0  0  0  0  0  0  0  0  0  0  0
   -4.4514    1.3604    0.0000 O   0  0  0  0  0  0  0  0  0  0  0  0
   -3.0224    1.3604    0.0000 C   0  0  0  0  0  0  0  0  0  0  0  0
   -2.3079    0.9479    0.0000 C   0  0  0  0  0  0  0  0  0  0  0  0
   -1.5935   -0.2896    0.0000 C   0  0  0  0  0  0  0  0  0  0  0  0
   -0.8790    0.1229    0.0000 C   0  0  0  0  0  0  0  0  0  0  0  0
   -0.8790    0.9479    0.0000 O   0  0  0  0  0  0  0  0  0  0  0  0
   -0.1645   -0.2896    0.0000 N   0  0  0  0  0  0  0  0  0  0  0  0
    0.5499    0.1229    0.0000 C   0  0  0  0  0  0  0  0  0  0  0  0
    1.2644   -0.2896    0.0000 C   0  0  0  0  0  0  0  0  0  0  0  0
    1.9789    0.1229    0.0000 C   0  0  0  0  0  0  0  0  0  0  0  0
    2.6933   -0.2896    0.0000 C   0  0  0  0  0  0  0  0  0  0  0  0
    3.4078    0.1229    0.0000 C   0  0  0  0  0  0  0  0  0  0  0  0
    4.1223   -0.2896    0.0000 C   0  0  0  0  0  0  0  0  0  0  0  0
    4.8368    0.1229    0.0000 O   0  0  0  0  0  0  0  0  0  0  0  0
    4.1223   -1.1146    0.0000 O   0  5  0  0  0  0  0  0  0  0  0  0
   -3.0224   -1.3216    0.0000 H   0  0  0  0  0  0  0  0  0  0  0  0
   -4.4514    2.2974    0.0000 H   0  0  0  0  0  0  0  0  0  0  0  0
   -3.0224    2.3924    0.0000 H   0  0  0  0  0  0  0  0  0  0  0  0
   -1.4142    1.4639    0.0000 H   0  0  0  0  0  0  0  0  0  0  0  0
   -1.5935   -1.3596    0.0000 H   0  0  0  0  0  0  0  0  0  0  0  0
   -0.6669   -0.8246    0.0000 H   0  0  0  0  0  0  0  0  0  0  0  0
   -0.1645   -1.2741    0.0000 H   0  0  0  0  0  0  0  0  0  0  0  0
    0.5499    1.1929    0.0000 H   0  0  0  0  0  0  0  0  0  0  0  0
    1.4765    0.6579    0.0000 H   0  0  0  0  0  0  0  0  0  0  0  0
    1.2644   -1.3596    0.0000 H   0  0  0  0  0  0  0  0  0  0  0  0
    2.1910   -0.8246    0.0000 H   0  0  0  0  0  0  0  0  0  0  0  0
    1.9789    1.1929    0.0000 H   0  0  0  0  0  0  0  0  0  0  0  0
    2.9056    0.6579    0.0000 H   0  0  0  0  0  0  0  0  0  0  0  0
    2.6933   -1.3596    0.0000 H   0  0  0  0  0  0  0  0  0  0  0  0
    3.6199   -0.8246    0.0000 H   0  0  0  0  0  0  0  0  0  0  0  0
    3.4078    1.1929    0.0000 H   0  0  0  0  0  0  0  0  0  0  0  0
    4.3344    0.6579    0.0000 H   0  0  0  0  0  0  0  0  0  0  0  0
  1  2  2  0  0  0  0
  1 10  1  0  0  0  0
  1 11  1  0  0  0  0
  2  3  1  0  0  0  0
  2 23  1  0  0  0  0
  3  4  1  0  0  0  0
  3  7  2  0  0  0  0
  4  5  1  0  0  0  0
  4  6  2  0  0  0  0
  7  8  1  0  0  0  0
  7  9  1  0  0  0  0
  8 24  1  0  0  0  0
  9 10  2  0  0  0  0
  9 25  1  0  0  0  0
 10 26  1  0  0  0  0
 11 12  1  0  0  0  0
 11 27  1  0  0  0  0
 11 28  1  0  0  0  0
 12 13  2  0  0  0  0
 12 14  1  0  0  0  0
 14 15  1  0  0  0  0
 14 29  1  0  0  0  0
 15 16  1  0  0  0  0
 15 30  1  0  0  0  0
 15 31  1  0  0  0  0
 16 17  1  0  0  0  0
 16 32  1  0  0  0  0
 16 33  1  0  0  0  0
 17 18  1  0  0  0  0
 17 34  1  0  0  0  0
 17 35  1  0  0  0  0
 18 19  1  0  0  0  0
 18 36  1  0  0  0  0
 18 37  1  0  0  0  0
 19 20  1  0  0  0  0
 19 38  1  0  0  0  0
 19 39  1  0  0  0  0
 20 21  2  0  0  0  0
 20 22  1  0  0  0  0
M  CHG  3   4   1   5  -1  22  -1
M  END
>  <DRUGBANK_ID>
DB08295

>  <COMMON_NAME>
4-HYDROXY-3-NITROPHENYLACETYL-EPSILON-AMINOCAPROIC ACID ANION

$$$$
