
 OpenBabel10282417072D

 40 40  0  0  0  0  0  0  0  0999 V2000
   -1.0661   -0.0072    0.0000 C   0  0  0  0  0  0  0  0  0  0  0  0
    0.3618   -0.0314    0.0000 C   0  0  0  0  0  0  0  0  0  0  0  0
   -0.3521   -0.4221    0.0000 C   0  0  0  0  0  0  0  0  0  0  0  0
   -1.0661    0.8129    0.0000 C   0  0  0  0  0  0  0  0  0  0  0  0
    0.3618    0.7839    0.0000 C   0  0  0  0  0  0  0  0  0  0  0  0
   -1.7897   -0.4221    0.0000 C   0  0  0  0  0  0  0  0  0  0  0  0
   -0.3280    1.2181    0.0000 C   0  0  0  0  0  0  0  0  0  0  0  0
    1.0661   -0.4462    0.0000 N   0  0  0  0  0  0  0  0  0  0  0  0
   -3.2225   -0.3932    0.0000 C   0  0  0  0  0  0  0  0  0  0  0  0
    1.7946   -0.0314    0.0000 C   0  0  0  0  0  0  0  0  0  0  0  0
   -2.4893    0.0024    0.0000 C   0  0  3  0  0  0  0  0  0  0  0  0
   -3.9415    0.0169    0.0000 O   0  0  0  0  0  0  0  0  0  0  0  0
   -3.2225   -1.2181    0.0000 O   0  0  0  0  0  0  0  0  0  0  0  0
    1.7752    0.7308    0.0000 O   0  0  0  0  0  0  0  0  0  0  0  0
   -0.3618   -1.2471    0.0000 I   0  0  0  0  0  0  0  0  0  0  0  0
   -1.7657    1.2278    0.0000 I   0  0  0  0  0  0  0  0  0  0  0  0
    1.0903    1.1939    0.0000 I   0  0  0  0  0  0  0  0  0  0  0  0
    2.5086   -0.4511    0.0000 C   0  0  0  0  0  0  0  0  0  0  0  0
   -2.4893    0.8225    0.0000 C   0  0  0  0  0  0  0  0  0  0  0  0
    3.2225   -0.0409    0.0000 C   0  0  0  0  0  0  0  0  0  0  0  0
   -3.2178    1.2471    0.0000 C   0  0  0  0  0  0  0  0  0  0  0  0
    3.9415   -0.4800    0.0000 C   0  0  0  0  0  0  0  0  0  0  0  0
   -1.8030   -1.4920    0.0000 H   0  0  0  0  0  0  0  0  0  0  0  0
   -2.7254   -0.9412    0.0000 H   0  0  0  0  0  0  0  0  0  0  0  0
   -0.2972    2.2496    0.0000 H   0  0  0  0  0  0  0  0  0  0  0  0
    1.0589   -1.4307    0.0000 H   0  0  0  0  0  0  0  0  0  0  0  0
   -2.5164   -1.0673    0.0000 H   0  0  0  0  0  0  0  0  0  0  0  0
   -3.9464    0.9539    0.0000 H   0  0  0  0  0  0  0  0  0  0  0  0
    2.5033   -1.5211    0.0000 H   0  0  0  0  0  0  0  0  0  0  0  0
    3.4334   -0.9893    0.0000 H   0  0  0  0  0  0  0  0  0  0  0  0
   -1.5616    1.3556    0.0000 H   0  0  0  0  0  0  0  0  0  0  0  0
   -2.4860    1.8925    0.0000 H   0  0  0  0  0  0  0  0  0  0  0  0
    3.2368    1.0290    0.0000 H   0  0  0  0  0  0  0  0  0  0  0  0
    4.1592    0.4764    0.0000 H   0  0  0  0  0  0  0  0  0  0  0  0
   -3.2134    2.3171    0.0000 H   0  0  0  0  0  0  0  0  0  0  0  0
   -4.1466    0.7159    0.0000 H   0  0  0  0  0  0  0  0  0  0  0  0
   -4.1422    1.7859    0.0000 H   0  0  0  0  0  0  0  0  0  0  0  0
    3.9151   -1.5497    0.0000 H   0  0  0  0  0  0  0  0  0  0  0  0
    4.8811    0.0320    0.0000 H   0  0  0  0  0  0  0  0  0  0  0  0
    4.8547   -1.0377    0.0000 H   0  0  0  0  0  0  0  0  0  0  0  0
  2  3  1  0  0  0  0
  3  1  2  0  0  0  0
  4  1  1  0  0  0  0
  5  7  1  0  0  0  0
  5  2  2  0  0  0  0
  6  1  1  0  0  0  0
  6 23  1  0  0  0  0
  6 24  1  0  0  0  0
  7  4  2  0  0  0  0
  7 25  1  0  0  0  0
  8  2  1  0  0  0  0
  8 26  1  0  0  0  0
  9 11  1  0  0  0  0
 10  8  1  0  0  0  0
 11  6  1  0  0  0  0
 11 27  1  0  0  0  0
 12  9  1  0  0  0  0
 12 28  1  0  0  0  0
 13  9  2  0  0  0  0
 14 10  2  0  0  0  0
 15  3  1  0  0  0  0
 16  4  1  0  0  0  0
 17  5  1  0  0  0  0
 18 10  1  0  0  0  0
 18 29  1  0  0  0  0
 18 30  1  0  0  0  0
 19 11  1  0  0  0  0
 19 31  1  0  0  0  0
 19 32  1  0  0  0  0
 20 18  1  0  0  0  0
 20 33  1  0  0  0  0
 20 34  1  0  0  0  0
 21 19  1  0  0  0  0
 21 35  1  0  0  0  0
 21 36  1  0  0  0  0
 21 37  1  0  0  0  0
 22 20  1  0  0  0  0
 22 38  1  0  0  0  0
 22 39  1  0  0  0  0
 22 40  1  0  0  0  0
M  END
>  <DRUGBANK_ID>
DB09340

>  <COMMON_NAME>
Tyropanoic acid

>  <CAS_NUMBER>
27293-82-9

>  <UNII>
4F05V145YR

$$$$
