
 OpenBabel10282417072D

  4  3  0  0  0  0  0  0  0  0999 V2000
   -0.4125   -0.7145    0.0000 Cl  0  0  0  0  0  0  0  0  0  0  0  0
   -0.4125    0.7145    0.0000 Cl  0  0  0  0  0  0  0  0  0  0  0  0
    0.8250    0.0000    0.0000 Cl  0  0  0  0  0  0  0  0  0  0  0  0
    0.0000    0.0000    0.0000 N   0  0  0  0  0  0  0  0  0  0  0  0
  4  1  1  0  0  0  0
  4  2  1  0  0  0  0
  4  3  1  0  0  0  0
M  END
>  <DRUGBANK_ID>
DB14645

>  <SECONDARY_ACCESSION_NUMBERS>
DBSALT002344

>  <COMMON_NAME>
Nitrogen trichloride

>  <CAS_NUMBER>
10025-85-1

>  <UNII>
VA681HRW8W

>  <SYNONYMS>
Agene; Nitrogen chloride; Trichloramine

$$$$
