
 OpenBabel10282417072D

 13 14  0  0  0  0  0  0  0  0999 V2000
   -1.7083   -1.2384    0.0000 F   0  0  0  0  0  0  0  0  0  0  0  0
   -0.9942   -0.8251    0.0000 C   0  0  0  0  0  0  0  0  0  0  0  0
   -0.2767   -1.2384    0.0000 N   0  0  0  0  0  0  0  0  0  0  0  0
    0.4372   -0.8251    0.0000 C   0  0  0  0  0  0  0  0  0  0  0  0
    0.4372   -0.0017    0.0000 C   0  0  0  0  0  0  0  0  0  0  0  0
    1.2230    0.2545    0.0000 N   0  0  0  0  0  0  0  0  0  0  0  0
    1.7083   -0.4116    0.0000 C   0  0  0  0  0  0  0  0  0  0  0  0
    1.2230   -1.0779    0.0000 N   0  0  0  0  0  0  0  0  0  0  0  0
   -0.2767    0.4116    0.0000 C   0  0  0  0  0  0  0  0  0  0  0  0
   -0.2767    1.2384    0.0000 Cl  0  0  0  0  0  0  0  0  0  0  0  0
   -0.9942   -0.0017    0.0000 N   0  0  0  0  0  0  0  0  0  0  0  0
    2.7403   -0.4115    0.0000 H   0  0  0  0  0  0  0  0  0  0  0  0
    1.5280   -2.0140    0.0000 H   0  0  0  0  0  0  0  0  0  0  0  0
  1  2  1  0  0  0  0
  2  3  2  0  0  0  0
  2 11  1  0  0  0  0
  3  4  1  0  0  0  0
  4  5  2  0  0  0  0
  4  8  1  0  0  0  0
  5  6  1  0  0  0  0
  5  9  1  0  0  0  0
  6  7  2  0  0  0  0
  7  8  1  0  0  0  0
  7 12  1  0  0  0  0
  8 13  1  0  0  0  0
  9 10  1  0  0  0  0
  9 11  2  0  0  0  0
M  END
>  <DRUGBANK_ID>
DB03520

>  <SECONDARY_ACCESSION_NUMBERS>
EXPT00896

>  <COMMON_NAME>
6-Chloro-2-fluoropurine

>  <CAS_NUMBER>
1651-29-2

>  <UNII>
726CLW3V39

$$$$
