
 OpenBabel10282417072D

 36 37  0  0  0  0  0  0  0  0999 V2000
    2.1434    0.4125    0.0000 C   0  0  0  0  0  0  0  0  0  0  0  0
    2.1434   -0.4125    0.0000 C   0  0  0  0  0  0  0  0  0  0  0  0
    1.4289   -0.8250    0.0000 O   0  0  0  0  0  0  0  0  0  0  0  0
    2.8579   -0.8250    0.0000 N   0  0  0  0  0  0  0  0  0  0  0  0
    2.8579   -1.6500    0.0000 C   0  0  0  0  0  0  0  0  0  0  0  0
    3.5724   -2.0625    0.0000 C   0  0  0  0  0  0  0  0  0  0  0  0
    3.5724   -2.8875    0.0000 C   0  0  0  0  0  0  0  0  0  0  0  0
    2.8579   -3.3000    0.0000 C   0  0  0  0  0  0  0  0  0  0  0  0
    2.1434   -2.8875    0.0000 C   0  0  0  0  0  0  0  0  0  0  0  0
    2.1434   -2.0625    0.0000 C   0  0  0  0  0  0  0  0  0  0  0  0
    2.8579   -4.1250    0.0000 S   0  0  0  0  0  0  0  0  0  0  0  0
    2.0329   -4.1250    0.0000 O   0  0  0  0  0  0  0  0  0  0  0  0
    3.6829   -4.1250    0.0000 O   0  0  0  0  0  0  0  0  0  0  0  0
    2.8579   -4.9500    0.0000 N   0  0  0  0  0  0  0  0  0  0  0  0
    2.1434   -5.3625    0.0000 C   0  0  0  0  0  0  0  0  0  0  0  0
    2.1434   -6.1875    0.0000 C   0  0  0  0  0  0  0  0  0  0  0  0
    1.4289   -6.6000    0.0000 C   0  0  0  0  0  0  0  0  0  0  0  0
    0.7145   -6.1875    0.0000 C   0  0  0  0  0  0  0  0  0  0  0  0
    0.7145   -5.3625    0.0000 C   0  0  0  0  0  0  0  0  0  0  0  0
    1.4289   -4.9500    0.0000 C   0  0  0  0  0  0  0  0  0  0  0  0
   -0.0000   -6.6000    0.0000 N   0  3  0  0  0  0  0  0  0  0  0  0
   -0.0000   -7.4250    0.0000 O   0  0  0  0  0  0  0  0  0  0  0  0
   -0.7145   -6.1875    0.0000 O   0  5  0  0  0  0  0  0  0  0  0  0
    3.0700    0.9475    0.0000 H   0  0  0  0  0  0  0  0  0  0  0  0
    1.2168    0.9475    0.0000 H   0  0  0  0  0  0  0  0  0  0  0  0
    2.1434    1.4825    0.0000 H   0  0  0  0  0  0  0  0  0  0  0  0
    3.7105   -0.3327    0.0000 H   0  0  0  0  0  0  0  0  0  0  0  0
    4.4661   -1.5465    0.0000 H   0  0  0  0  0  0  0  0  0  0  0  0
    4.4661   -3.4035    0.0000 H   0  0  0  0  0  0  0  0  0  0  0  0
    1.2497   -3.4035    0.0000 H   0  0  0  0  0  0  0  0  0  0  0  0
    1.2497   -1.5465    0.0000 H   0  0  0  0  0  0  0  0  0  0  0  0
    3.7105   -5.4423    0.0000 H   0  0  0  0  0  0  0  0  0  0  0  0
    3.0371   -6.7035    0.0000 H   0  0  0  0  0  0  0  0  0  0  0  0
    1.4289   -7.6320    0.0000 H   0  0  0  0  0  0  0  0  0  0  0  0
   -0.1792   -4.8465    0.0000 H   0  0  0  0  0  0  0  0  0  0  0  0
    1.4289   -3.9180    0.0000 H   0  0  0  0  0  0  0  0  0  0  0  0
  1  2  1  0  0  0  0
  1 24  1  0  0  0  0
  1 25  1  0  0  0  0
  1 26  1  0  0  0  0
  2  3  2  0  0  0  0
  2  4  1  0  0  0  0
  4  5  1  0  0  0  0
  4 27  1  0  0  0  0
  5  6  2  0  0  0  0
  5 10  1  0  0  0  0
  6  7  1  0  0  0  0
  6 28  1  0  0  0  0
  7  8  2  0  0  0  0
  7 29  1  0  0  0  0
  8  9  1  0  0  0  0
  8 11  1  0  0  0  0
  9 10  2  0  0  0  0
  9 30  1  0  0  0  0
 10 31  1  0  0  0  0
 11 12  2  0  0  0  0
 11 13  2  0  0  0  0
 11 14  1  0  0  0  0
 14 15  1  0  0  0  0
 14 32  1  0  0  0  0
 15 16  2  0  0  0  0
 15 20  1  0  0  0  0
 16 17  1  0  0  0  0
 16 33  1  0  0  0  0
 17 18  2  0  0  0  0
 17 34  1  0  0  0  0
 18 19  1  0  0  0  0
 18 21  1  0  0  0  0
 19 20  2  0  0  0  0
 19 35  1  0  0  0  0
 20 36  1  0  0  0  0
 21 22  2  0  0  0  0
 21 23  1  0  0  0  0
M  CHG  2  21   1  23  -1
M  END
>  <DRUGBANK_ID>
DB11463

>  <COMMON_NAME>
Sulfanitran

>  <CAS_NUMBER>
122-16-7

>  <UNII>
QT35T5T35Q

>  <SYNONYMS>
Sulfanitran

$$$$
