
 OpenBabel10282417072D

 54 54  0  0  1  0  0  0  0  0999 V2000
    6.3118  -19.5337    0.0000 C   0  0  0  0  0  0  0  0  0  0  0  0
    5.0420  -19.9453    0.0000 C   0  0  0  0  0  0  0  0  0  0  0  0
    6.3112  -20.3587    0.0000 C   0  0  0  0  0  0  0  0  0  0  0  0
    5.5265  -20.6131    0.0000 C   0  0  0  0  0  0  0  0  0  0  0  0
    7.0252  -19.1195    0.0000 C   0  0  0  0  0  0  0  0  0  0  0  0
    7.0258  -20.7709    0.0000 C   0  0  0  0  0  0  0  0  0  0  0  0
    7.7401  -20.3581    0.0000 C   0  0  0  0  0  0  0  0  0  0  0  0
    9.1691  -20.3576    0.0000 C   0  0  0  0  0  0  0  0  0  0  0  0
    9.8838  -20.7698    0.0000 C   0  0  0  0  0  0  0  0  0  0  0  0
   10.5980  -20.3570    0.0000 C   0  0  0  0  0  0  0  0  0  0  0  0
   11.3126  -20.7692    0.0000 C   0  0  0  0  0  0  0  0  0  0  0  0
   12.0270  -20.3564    0.0000 C   0  0  0  0  0  0  0  0  0  0  0  0
    8.4548  -20.7703    0.0000 C   0  0  2  0  0  0  0  0  0  0  0  0
    8.4548  -21.5953    0.0000 O   0  0  0  0  0  0  0  0  0  0  0  0
    5.5273  -19.2782    0.0000 C   0  0  0  0  0  0  0  0  0  0  0  0
    5.3138  -18.4814    0.0000 O   0  0  0  0  0  0  0  0  0  0  0  0
    9.9150  -16.6831    0.0000 C   0  0  0  0  0  0  0  0  0  0  0  0
   10.6232  -17.1080    0.0000 O   0  0  0  0  0  0  0  0  0  0  0  0
    7.7335  -19.5445    0.0000 C   0  0  0  0  0  0  0  0  0  0  0  0
    8.4701  -19.1478    0.0000 C   0  0  0  0  0  0  0  0  0  0  0  0
    9.9256  -15.8713    0.0000 O   0  0  0  0  0  0  0  0  0  0  0  0
    9.2067  -17.0797    0.0000 C   0  0  0  0  0  0  0  0  0  0  0  0
    8.4701  -18.3263    0.0000 C   0  0  0  0  0  0  0  0  0  0  0  0
    9.2067  -17.9296    0.0000 C   0  0  0  0  0  0  0  0  0  0  0  0
    3.9720  -19.9446    0.0000 H   0  0  0  0  0  0  0  0  0  0  0  0
    4.5556  -20.8984    0.0000 H   0  0  0  0  0  0  0  0  0  0  0  0
    5.1952  -21.6305    0.0000 H   0  0  0  0  0  0  0  0  0  0  0  0
    6.2826  -21.3702    0.0000 H   0  0  0  0  0  0  0  0  0  0  0  0
    7.0329  -18.0495    0.0000 H   0  0  0  0  0  0  0  0  0  0  0  0
    7.9582  -18.5957    0.0000 H   0  0  0  0  0  0  0  0  0  0  0  0
    7.0262  -21.8029    0.0000 H   0  0  0  0  0  0  0  0  0  0  0  0
    7.7396  -19.3261    0.0000 H   0  0  0  0  0  0  0  0  0  0  0  0
    9.1687  -19.2876    0.0000 H   0  0  0  0  0  0  0  0  0  0  0  0
   10.0955  -19.8222    0.0000 H   0  0  0  0  0  0  0  0  0  0  0  0
    9.8843  -21.8398    0.0000 H   0  0  0  0  0  0  0  0  0  0  0  0
   10.8107  -21.3044    0.0000 H   0  0  0  0  0  0  0  0  0  0  0  0
   10.5975  -19.2870    0.0000 H   0  0  0  0  0  0  0  0  0  0  0  0
   11.5244  -19.8216    0.0000 H   0  0  0  0  0  0  0  0  0  0  0  0
   11.3130  -21.8392    0.0000 H   0  0  0  0  0  0  0  0  0  0  0  0
   12.2394  -21.3039    0.0000 H   0  0  0  0  0  0  0  0  0  0  0  0
   12.9538  -20.8911    0.0000 H   0  0  0  0  0  0  0  0  0  0  0  0
   12.0266  -19.2864    0.0000 H   0  0  0  0  0  0  0  0  0  0  0  0
   12.9535  -19.8211    0.0000 H   0  0  0  0  0  0  0  0  0  0  0  0
    7.5283  -21.3055    0.0000 H   0  0  0  0  0  0  0  0  0  0  0  0
    7.6148  -22.0803    0.0000 H   0  0  0  0  0  0  0  0  0  0  0  0
   10.6075  -18.0449    0.0000 H   0  0  0  0  0  0  0  0  0  0  0  0
    7.7095  -20.5762    0.0000 H   0  0  0  0  0  0  0  0  0  0  0  0
    9.3561  -19.6770    0.0000 H   0  0  0  0  0  0  0  0  0  0  0  0
    8.2836  -16.5386    0.0000 H   0  0  0  0  0  0  0  0  0  0  0  0
    8.2783  -17.6116    0.0000 H   0  0  0  0  0  0  0  0  0  0  0  0
    7.5515  -17.7777    0.0000 H   0  0  0  0  0  0  0  0  0  0  0  0
    8.4938  -17.2566    0.0000 H   0  0  0  0  0  0  0  0  0  0  0  0
   10.1253  -18.4782    0.0000 H   0  0  0  0  0  0  0  0  0  0  0  0
    9.1830  -18.9993    0.0000 H   0  0  0  0  0  0  0  0  0  0  0  0
  1 15  1  0  0  0  0
  1  5  1  0  0  0  0
  2 25  1  0  0  0  0
  2 26  1  0  0  0  0
  3  1  2  0  0  0  0
  3  6  1  0  0  0  0
  4  2  1  0  0  0  0
  4  3  1  0  0  0  0
  4 27  1  0  0  0  0
  4 28  1  0  0  0  0
  5 19  1  0  0  0  0
  5 29  1  0  0  0  0
  5 30  1  0  0  0  0
  6 31  1  0  0  0  0
  7  6  2  0  0  0  0
  7 32  1  0  0  0  0
  8 13  1  0  0  0  0
  8 33  1  0  0  0  0
  8 34  1  0  0  0  0
  9  8  1  0  0  0  0
  9 35  1  0  0  0  0
  9 36  1  0  0  0  0
 10  9  1  0  0  0  0
 10 37  1  0  0  0  0
 10 38  1  0  0  0  0
 11 10  1  0  0  0  0
 11 39  1  0  0  0  0
 11 40  1  0  0  0  0
 12 11  1  0  0  0  0
 12 41  1  0  0  0  0
 12 42  1  0  0  0  0
 12 43  1  0  0  0  0
 13  7  1  0  0  0  0
 13 14  1  0  0  0  0
 13 44  1  1  0  0  0
 14 45  1  0  0  0  0
 15  2  1  0  0  0  0
 15 16  2  0  0  0  0
 18 17  1  0  0  0  0
 18 46  1  0  0  0  0
 19 47  1  0  0  0  0
 20 19  2  0  0  0  0
 20 48  1  0  0  0  0
 21 17  2  0  0  0  0
 22 17  1  0  0  0  0
 22 49  1  0  0  0  0
 22 50  1  0  0  0  0
 23 20  1  0  0  0  0
 23 51  1  0  0  0  0
 23 52  1  0  0  0  0
 24 22  1  0  0  0  0
 24 23  1  0  0  0  0
 24 53  1  0  0  0  0
 24 54  1  0  0  0  0
M  END
>  <DRUGBANK_ID>
DB02304

>  <SECONDARY_ACCESSION_NUMBERS>
EXPT01314

>  <COMMON_NAME>
Prostaglandin B2

>  <CAS_NUMBER>
13367-85-6

>  <UNII>
BIU61O9T9T

$$$$
