
 OpenBabel10282417072D

 40 42  0  0  1  0  0  0  0  0999 V2000
    4.2917   -3.6917    0.0000 N   0  0  0  0  0  0  0  0  0  0  0  0
    3.4667   -3.6917    0.0000 C   0  0  0  0  0  0  0  0  0  0  0  0
    3.4667   -2.8667    0.0000 C   0  0  2  0  0  0  0  0  0  0  0  0
    5.0042   -4.1042    0.0000 C   0  0  0  0  0  0  0  0  0  0  0  0
    4.2917   -2.8667    0.0000 C   0  0  1  0  0  0  0  0  0  0  0  0
    2.8917   -2.2917    0.0000 N   0  0  0  0  0  0  0  0  0  0  0  0
    3.1042   -1.5042    0.0000 C   0  0  0  0  0  0  0  0  0  0  0  0
    5.0042   -4.9292    0.0000 C   0  0  0  0  0  0  0  0  0  0  0  0
    5.7250   -3.6917    0.0000 C   0  0  0  0  0  0  0  0  0  0  0  0
    2.5167   -0.9167    0.0000 C   0  0  2  0  0  0  0  0  0  0  0  0
    5.0042   -2.4542    0.0000 C   0  0  0  0  0  0  0  0  0  0  0  0
    2.8917   -4.2750    0.0000 O   0  0  0  0  0  0  0  0  0  0  0  0
    2.7292   -0.1292    0.0000 N   0  0  0  0  0  0  0  0  0  0  0  0
    3.9042   -1.2917    0.0000 O   0  0  0  0  0  0  0  0  0  0  0  0
    5.7250   -2.8667    0.0000 C   0  0  0  0  0  0  0  0  0  0  0  0
    5.7250   -5.3417    0.0000 O   0  0  0  0  0  0  0  0  0  0  0  0
    4.2917   -5.3417    0.0000 O   0  0  0  0  0  0  0  0  0  0  0  0
    1.7167   -1.1292    0.0000 C   0  0  0  0  0  0  0  0  0  0  0  0
    6.4417   -4.1042    0.0000 Cl  0  0  0  0  0  0  0  0  0  0  0  0
    1.5042   -1.9125    0.0000 C   0  0  0  0  0  0  0  0  0  0  0  0
    1.1375   -0.5417    0.0000 C   0  0  0  0  0  0  0  0  0  0  0  0
    0.3500   -0.7500    0.0000 C   0  0  0  0  0  0  0  0  0  0  0  0
    0.7042   -2.1250    0.0000 C   0  0  0  0  0  0  0  0  0  0  0  0
    0.1292   -1.5417    0.0000 C   0  0  0  0  0  0  0  0  0  0  0  0
    3.8762   -1.8781    0.0000 H   0  0  0  0  0  0  0  0  0  0  0  0
    4.0141   -1.8333    0.0000 H   0  0  0  0  0  0  0  0  0  0  0  0
    1.9405   -2.5457    0.0000 H   0  0  0  0  0  0  0  0  0  0  0  0
    3.5505   -0.6407    0.0000 H   0  0  0  0  0  0  0  0  0  0  0  0
    5.0015   -1.3842    0.0000 H   0  0  0  0  0  0  0  0  0  0  0  0
    5.9292   -1.9163    0.0000 H   0  0  0  0  0  0  0  0  0  0  0  0
    3.7149    0.1331    0.0000 H   0  0  0  0  0  0  0  0  0  0  0  0
    2.0092    0.5933    0.0000 H   0  0  0  0  0  0  0  0  0  0  0  0
    6.6506   -2.3299    0.0000 H   0  0  0  0  0  0  0  0  0  0  0  0
    6.6522   -3.4008    0.0000 H   0  0  0  0  0  0  0  0  0  0  0  0
    5.7286   -6.2787    0.0000 H   0  0  0  0  0  0  0  0  0  0  0  0
    2.2320   -2.6442    0.0000 H   0  0  0  0  0  0  0  0  0  0  0  0
    1.4097    0.4537    0.0000 H   0  0  0  0  0  0  0  0  0  0  0  0
   -0.3748   -0.0154    0.0000 H   0  0  0  0  0  0  0  0  0  0  0  0
    0.4324   -3.1206    0.0000 H   0  0  0  0  0  0  0  0  0  0  0  0
   -0.8699   -1.8001    0.0000 H   0  0  0  0  0  0  0  0  0  0  0  0
  2  1  1  0  0  0  0
  3  5  1  0  0  0  0
  3  6  1  0  0  0  0
  3  2  1  0  0  0  0
  3 25  1  6  0  0  0
  4  1  1  0  0  0  0
  5  1  1  0  0  0  0
  5 11  1  0  0  0  0
  5 26  1  6  0  0  0
  6 27  1  0  0  0  0
  7  6  1  0  0  0  0
  8  4  1  0  0  0  0
  9  4  2  0  0  0  0
 10  7  1  0  0  0  0
 10 13  1  0  0  0  0
 10 28  1  6  0  0  0
 11 29  1  0  0  0  0
 11 30  1  0  0  0  0
 12  2  2  0  0  0  0
 13 31  1  0  0  0  0
 13 32  1  0  0  0  0
 14  7  2  0  0  0  0
 15 11  1  0  0  0  0
 15  9  1  0  0  0  0
 15 33  1  0  0  0  0
 15 34  1  0  0  0  0
 16  8  1  0  0  0  0
 16 35  1  0  0  0  0
 17  8  2  0  0  0  0
 18 10  1  0  0  0  0
 19  9  1  0  0  0  0
 20 18  1  0  0  0  0
 20 36  1  0  0  0  0
 21 18  2  0  0  0  0
 21 37  1  0  0  0  0
 22 21  1  0  0  0  0
 22 38  1  0  0  0  0
 23 20  2  0  0  0  0
 23 24  1  0  0  0  0
 23 39  1  0  0  0  0
 24 22  2  0  0  0  0
 24 40  1  0  0  0  0
M  END
>  <DRUGBANK_ID>
DB00447

>  <SECONDARY_ACCESSION_NUMBERS>
APRD01077

>  <COMMON_NAME>
Loracarbef

>  <CAS_NUMBER>
76470-66-1

>  <UNII>
W72I5ZT78Z

>  <SYNONYMS>
Anhydrous loracarbef; Loracarbef; Loracarbef anhydrous; Loracarbef, anhydrous; Loracarbefum

$$$$
