5105
 OpenBabel10282417072D

 53 54  0  0  0  0  0  0  0  0999 V2000
    5.2224    0.8250    0.0000 O   0  0  0  0  0  0  0  0  0  0  0  0
    3.0790   -3.7126    0.0000 O   0  0  0  0  0  0  0  0  0  0  0  0
    4.5080   -2.8876    0.0000 O   0  0  0  0  0  0  0  0  0  0  0  0
    1.6500   -3.7126    0.0000 O   0  0  0  0  0  0  0  0  0  0  0  0
    7.3659    3.7126    0.0000 N   0  0  0  0  0  0  0  0  0  0  0  0
    3.7935   -1.6500    0.0000 N   0  0  0  0  0  0  0  0  0  0  0  0
    8.0804    3.3001    0.0000 C   0  0  0  0  0  0  0  0  0  0  0  0
    7.3659    4.5376    0.0000 C   0  0  0  0  0  0  0  0  0  0  0  0
    8.0804    4.9501    0.0000 C   0  0  0  0  0  0  0  0  0  0  0  0
    8.7949    3.7126    0.0000 C   0  0  0  0  0  0  0  0  0  0  0  0
    8.7949    4.5376    0.0000 C   0  0  0  0  0  0  0  0  0  0  0  0
    6.6515    3.3001    0.0000 C   0  0  0  0  0  0  0  0  0  0  0  0
    6.6515    2.4751    0.0000 C   0  0  0  0  0  0  0  0  0  0  0  0
    5.9370    2.0625    0.0000 C   0  0  0  0  0  0  0  0  0  0  0  0
    7.3659    2.0625    0.0000 C   0  0  0  0  0  0  0  0  0  0  0  0
    5.9370    1.2375    0.0000 C   0  0  0  0  0  0  0  0  0  0  0  0
    7.3659    1.2375    0.0000 C   0  0  0  0  0  0  0  0  0  0  0  0
    6.6515    0.8250    0.0000 C   0  0  0  0  0  0  0  0  0  0  0  0
    5.2224    0.0000    0.0000 C   0  0  0  0  0  0  0  0  0  0  0  0
    4.5080   -0.4125    0.0000 C   0  0  0  0  0  0  0  0  0  0  0  0
    4.5080   -1.2375    0.0000 C   0  0  0  0  0  0  0  0  0  0  0  0
    3.7935   -2.4751    0.0000 C   0  0  0  0  0  0  0  0  0  0  0  0
    3.0790   -2.8876    0.0000 C   0  0  0  0  0  0  0  0  0  0  0  0
    2.3645   -4.1251    0.0000 C   0  0  0  0  0  0  0  0  0  0  0  0
    2.3645   -4.9501    0.0000 C   0  0  0  0  0  0  0  0  0  0  0  0
    2.9409   -1.1577    0.0000 H   0  0  0  0  0  0  0  0  0  0  0  0
    8.0804    2.2301    0.0000 H   0  0  0  0  0  0  0  0  0  0  0  0
    9.0070    2.7651    0.0000 H   0  0  0  0  0  0  0  0  0  0  0  0
    6.4393    5.0726    0.0000 H   0  0  0  0  0  0  0  0  0  0  0  0
    7.3659    5.6076    0.0000 H   0  0  0  0  0  0  0  0  0  0  0  0
    8.0804    6.0201    0.0000 H   0  0  0  0  0  0  0  0  0  0  0  0
    9.0070    5.4851    0.0000 H   0  0  0  0  0  0  0  0  0  0  0  0
    9.7215    3.1776    0.0000 H   0  0  0  0  0  0  0  0  0  0  0  0
    9.7215    4.2476    0.0000 H   0  0  0  0  0  0  0  0  0  0  0  0
    9.7215    5.0726    0.0000 H   0  0  0  0  0  0  0  0  0  0  0  0
    9.7215    4.0026    0.0000 H   0  0  0  0  0  0  0  0  0  0  0  0
    5.7248    3.8351    0.0000 H   0  0  0  0  0  0  0  0  0  0  0  0
    5.7249    2.7651    0.0000 H   0  0  0  0  0  0  0  0  0  0  0  0
    5.0432    2.5785    0.0000 H   0  0  0  0  0  0  0  0  0  0  0  0
    8.2597    2.5784    0.0000 H   0  0  0  0  0  0  0  0  0  0  0  0
    8.2596    0.7215    0.0000 H   0  0  0  0  0  0  0  0  0  0  0  0
    6.6515   -0.2070    0.0000 H   0  0  0  0  0  0  0  0  0  0  0  0
    6.1491   -0.5350    0.0000 H   0  0  0  0  0  0  0  0  0  0  0  0
    5.2224   -1.0700    0.0000 H   0  0  0  0  0  0  0  0  0  0  0  0
    3.5813    0.1225    0.0000 H   0  0  0  0  0  0  0  0  0  0  0  0
    3.5814   -0.9475    0.0000 H   0  0  0  0  0  0  0  0  0  0  0  0
    5.4346   -1.7725    0.0000 H   0  0  0  0  0  0  0  0  0  0  0  0
    5.4346   -0.7025    0.0000 H   0  0  0  0  0  0  0  0  0  0  0  0
    2.1524   -2.3526    0.0000 H   0  0  0  0  0  0  0  0  0  0  0  0
    3.0790   -1.8176    0.0000 H   0  0  0  0  0  0  0  0  0  0  0  0
    1.4379   -5.4851    0.0000 H   0  0  0  0  0  0  0  0  0  0  0  0
    3.2911   -5.4851    0.0000 H   0  0  0  0  0  0  0  0  0  0  0  0
    2.3645   -6.0201    0.0000 H   0  0  0  0  0  0  0  0  0  0  0  0
  1 16  1  0  0  0  0
  1 19  1  0  0  0  0
  2 23  1  0  0  0  0
  2 24  1  0  0  0  0
  3 22  2  0  0  0  0
  4 24  2  0  0  0  0
  5  7  1  0  0  0  0
  5  8  1  0  0  0  0
  5 12  1  0  0  0  0
  6 21  1  0  0  0  0
  6 22  1  0  0  0  0
  6 26  1  0  0  0  0
  7 10  1  0  0  0  0
  7 27  1  0  0  0  0
  7 28  1  0  0  0  0
  8  9  1  0  0  0  0
  8 29  1  0  0  0  0
  8 30  1  0  0  0  0
  9 11  1  0  0  0  0
  9 31  1  0  0  0  0
  9 32  1  0  0  0  0
 10 11  1  0  0  0  0
 10 33  1  0  0  0  0
 10 34  1  0  0  0  0
 11 35  1  0  0  0  0
 11 36  1  0  0  0  0
 12 13  1  0  0  0  0
 12 37  1  0  0  0  0
 12 38  1  0  0  0  0
 13 14  2  0  0  0  0
 13 15  1  0  0  0  0
 14 16  1  0  0  0  0
 14 39  1  0  0  0  0
 15 17  2  0  0  0  0
 15 40  1  0  0  0  0
 16 18  2  0  0  0  0
 17 18  1  0  0  0  0
 17 41  1  0  0  0  0
 18 42  1  0  0  0  0
 19 20  1  0  0  0  0
 19 43  1  0  0  0  0
 19 44  1  0  0  0  0
 20 21  1  0  0  0  0
 20 45  1  0  0  0  0
 20 46  1  0  0  0  0
 21 47  1  0  0  0  0
 21 48  1  0  0  0  0
 22 23  1  0  0  0  0
 23 49  1  0  0  0  0
 23 50  1  0  0  0  0
 24 25  1  0  0  0  0
 25 51  1  0  0  0  0
 25 52  1  0  0  0  0
 25 53  1  0  0  0  0
M  END
>  <DRUGBANK_ID>
DB08806

>  <COMMON_NAME>
Roxatidine acetate

>  <CAS_NUMBER>
78628-28-1

>  <UNII>
ZUP3LSD0DO

>  <SYNONYMS>
Pifatidine

$$$$
