
 OpenBabel10282417072D

 63 67  0  0  1  0  0  0  0  0999 V2000
   -2.4556    1.6589    0.0000 C   0  0  0  0  0  0  0  0  0  0  0  0
   -2.0697   -1.4395    0.0000 C   0  0  0  0  0  0  0  0  0  0  0  0
    2.6283    1.1384    0.0000 C   0  0  0  0  0  0  0  0  0  0  0  0
    0.0912    0.9046    0.0000 C   0  0  0  0  0  0  0  0  0  0  0  0
    2.8023    3.3142    0.0000 C   0  0  0  0  0  0  0  0  0  0  0  0
    1.9823    3.2233    0.0000 C   0  0  0  0  0  0  0  0  0  0  0  0
    4.2683    1.3201    0.0000 C   0  0  0  0  0  0  0  0  0  0  0  0
    3.4483    1.2292    0.0000 C   0  0  0  0  0  0  0  0  0  0  0  0
    4.1109    2.7404    0.0000 C   0  0  0  0  0  0  0  0  0  0  0  0
    0.2148    2.9255    0.0000 C   0  0  0  0  0  0  0  0  0  0  0  0
    0.9884    0.9567    0.0000 C   0  0  0  0  0  0  0  0  0  0  0  0
   -1.1547    0.5422    0.0000 C   0  0  0  0  0  0  0  0  0  0  0  0
   -1.6496    1.8350    0.0000 C   0  0  0  0  0  0  0  0  0  0  0  0
   -1.9880   -0.6185    0.0000 C   0  0  0  0  0  0  0  0  0  0  0  0
    3.2909    2.6495    0.0000 C   0  0  0  0  0  0  0  0  0  0  0  0
    4.5996    2.0757    0.0000 C   0  0  0  0  0  0  0  0  0  0  0  0
    1.6510    2.4678    0.0000 C   0  0  1  0  0  0  0  0  0  0  0  0
    0.8310    2.3769    0.0000 C   0  0  1  0  0  0  0  0  0  0  0  0
    1.8083    1.0475    0.0000 C   0  0  1  0  0  0  0  0  0  0  0  0
   -0.4029    0.8820    0.0000 C   0  0  0  0  0  0  0  0  0  0  0  0
   -0.4973    2.5090    0.0000 C   0  0  2  0  0  0  0  0  0  0  0  0
    2.1396    1.8031    0.0000 C   0  0  2  0  0  0  0  0  0  0  0  0
    2.9596    1.8939    0.0000 C   0  0  2  0  0  0  0  0  0  0  0  0
    0.4997    1.6214    0.0000 C   0  0  2  0  0  0  0  0  0  0  0  0
   -0.3213    1.7030    0.0000 C   0  0  1  0  0  0  0  0  0  0  0  0
   -1.0334    1.2865    0.0000 N   0  0  0  0  0  0  0  0  0  0  0  0
   -2.6582   -0.1374    0.0000 O   0  0  0  0  0  0  0  0  0  0  0  0
    5.4196    2.1665    0.0000 O   0  0  0  0  0  0  0  0  0  0  0  0
    2.2970    0.3828    0.0000 O   0  0  0  0  0  0  0  0  0  0  0  0
    0.2673    0.4009    0.0000 O   0  0  0  0  0  0  0  0  0  0  0  0
   -1.2363   -0.2787    0.0000 O   0  0  0  0  0  0  0  0  0  0  0  0
   -1.3183    2.5906    0.0000 O   0  0  0  0  0  0  0  0  0  0  0  0
    1.1623    3.1325    0.0000 H   0  0  0  0  0  0  0  0  0  0  0  0
    1.3197    1.7122    0.0000 H   0  0  0  0  0  0  0  0  0  0  0  0
    1.4770    0.2920    0.0000 H   0  0  0  0  0  0  0  0  0  0  0  0
   -0.6734    3.3150    0.0000 H   0  0  0  0  0  0  0  0  0  0  0  0
    2.4709    2.5586    0.0000 H   0  0  0  0  0  0  0  0  0  0  0  0
   -3.1761    2.4500    0.0000 H   0  0  0  0  0  0  0  0  0  0  0  0
   -2.7805    0.6394    0.0000 H   0  0  0  0  0  0  0  0  0  0  0  0
   -3.5009    1.4305    0.0000 H   0  0  0  0  0  0  0  0  0  0  0  0
   -3.0448   -1.8801    0.0000 H   0  0  0  0  0  0  0  0  0  0  0  0
   -1.2006   -2.0636    0.0000 H   0  0  0  0  0  0  0  0  0  0  0  0
   -2.1757   -2.5042    0.0000 H   0  0  0  0  0  0  0  0  0  0  0  0
    1.5648    1.0206    0.0000 H   0  0  0  0  0  0  0  0  0  0  0  0
    3.2621    0.2763    0.0000 H   0  0  0  0  0  0  0  0  0  0  0  0
    2.1986    0.1585    0.0000 H   0  0  0  0  0  0  0  0  0  0  0  0
   -0.9788    0.8986    0.0000 H   0  0  0  0  0  0  0  0  0  0  0  0
    0.6314   -0.0190    0.0000 H   0  0  0  0  0  0  0  0  0  0  0  0
   -0.4386   -0.0250    0.0000 H   0  0  0  0  0  0  0  0  0  0  0  0
    3.2320    4.2941    0.0000 H   0  0  0  0  0  0  0  0  0  0  0  0
    3.8658    3.4320    0.0000 H   0  0  0  0  0  0  0  0  0  0  0  0
    1.3485    4.0854    0.0000 H   0  0  0  0  0  0  0  0  0  0  0  0
    0.9188    3.1055    0.0000 H   0  0  0  0  0  0  0  0  0  0  0  0
    4.8796    0.4886    0.0000 H   0  0  0  0  0  0  0  0  0  0  0  0
    3.0339    0.2841    0.0000 H   0  0  0  0  0  0  0  0  0  0  0  0
    4.5253    3.6855    0.0000 H   0  0  0  0  0  0  0  0  0  0  0  0
    0.3207    3.9903    0.0000 H   0  0  0  0  0  0  0  0  0  0  0  0
   -0.6858    3.5032    0.0000 H   0  0  0  0  0  0  0  0  0  0  0  0
    0.5587   -0.0232    0.0000 H   0  0  0  0  0  0  0  0  0  0  0  0
   -0.0751    0.8389    0.0000 H   0  0  0  0  0  0  0  0  0  0  0  0
   -2.0239    1.1662    0.0000 H   0  0  0  0  0  0  0  0  0  0  0  0
   -2.1297    0.1015    0.0000 H   0  0  0  0  0  0  0  0  0  0  0  0
    1.9075   -0.5056    0.0000 H   0  0  0  0  0  0  0  0  0  0  0  0
  1 38  1  0  0  0  0
  1 39  1  0  0  0  0
  1 40  1  0  0  0  0
  2 41  1  0  0  0  0
  2 42  1  0  0  0  0
  2 43  1  0  0  0  0
  3 44  1  0  0  0  0
  3 45  1  0  0  0  0
  3 46  1  0  0  0  0
  4 47  1  0  0  0  0
  4 48  1  0  0  0  0
  4 49  1  0  0  0  0
  5 50  1  0  0  0  0
  5 51  1  0  0  0  0
  6  5  1  0  0  0  0
  6 52  1  0  0  0  0
  6 53  1  0  0  0  0
  7 54  1  0  0  0  0
  8  7  2  0  0  0  0
  8 55  1  0  0  0  0
  9 56  1  0  0  0  0
 10 57  1  0  0  0  0
 10 58  1  0  0  0  0
 11 59  1  0  0  0  0
 11 60  1  0  0  0  0
 12 61  1  0  0  0  0
 12 62  1  0  0  0  0
 13  1  1  0  0  0  0
 14  2  1  0  0  0  0
 15  5  1  0  0  0  0
 15  9  2  0  0  0  0
 16  7  1  0  0  0  0
 16  9  1  0  0  0  0
 17  6  1  0  0  0  0
 17 33  1  1  0  0  0
 18 10  1  0  0  0  0
 18 17  1  0  0  0  0
 18 34  1  6  0  0  0
 19 11  1  0  0  0  0
 19 29  1  0  0  0  0
 19 35  1  6  0  0  0
 20 12  1  0  0  0  0
 21 10  1  0  0  0  0
 21 36  1  1  0  0  0
 22 17  1  0  0  0  0
 22 19  1  0  0  0  0
 22 37  1  6  0  0  0
 23  3  1  1  0  0  0
 23  8  1  0  0  0  0
 23 15  1  0  0  0  0
 23 22  1  0  0  0  0
 24  4  1  1  0  0  0
 24 11  1  0  0  0  0
 24 18  1  0  0  0  0
 25 20  1  1  0  0  0
 25 21  1  0  0  0  0
 25 24  1  0  0  0  0
 26 13  2  0  0  0  0
 26 25  1  0  0  0  0
 27 14  2  0  0  0  0
 28 16  2  0  0  0  0
 29 63  1  0  0  0  0
 30 20  2  0  0  0  0
 31 12  1  0  0  0  0
 31 14  1  0  0  0  0
 32 13  1  0  0  0  0
 32 21  1  0  0  0  0
M  END
>  <DRUGBANK_ID>
DB11921

>  <COMMON_NAME>
Deflazacort

>  <CAS_NUMBER>
14484-47-0

>  <UNII>
KR5YZ6AE4B

>  <SYNONYMS>
Deflazacort

$$$$
