
 OpenBabel10282417072D

 37 38  0  0  0  0  0  0  0  0999 V2000
    2.6817   -0.4581    0.0000 S   0  0  0  0  0  0  0  0  0  0  0  0
    4.6188   -2.1806    0.0000 S   0  0  0  0  0  0  0  0  0  0  0  0
    0.1745   -1.5851    0.0000 O   0  0  0  0  0  0  0  0  0  0  0  0
    0.1745   -0.1561    0.0000 N   0  0  0  0  0  0  0  0  0  0  0  0
   -3.1255    1.2728    0.0000 N   0  0  0  0  0  0  0  0  0  0  0  0
    1.8970   -1.5381    0.0000 N   0  0  0  0  0  0  0  0  0  0  0  0
    3.3492   -2.5931    0.0000 N   0  0  0  0  0  0  0  0  0  0  0  0
   -4.3631    1.9873    0.0000 N   0  0  0  0  0  0  0  0  0  0  0  0
   -3.1256    2.7018    0.0000 N   0  0  0  0  0  0  0  0  0  0  0  0
   -1.0629    0.5583    0.0000 C   0  0  0  0  0  0  0  0  0  0  0  0
   -1.8879    0.5583    0.0000 C   0  0  0  0  0  0  0  0  0  0  0  0
   -0.6504   -0.1561    0.0000 C   0  0  0  0  0  0  0  0  0  0  0  0
   -2.3005    1.2728    0.0000 C   0  0  0  0  0  0  0  0  0  0  0  0
    0.5871   -0.8706    0.0000 C   0  0  0  0  0  0  0  0  0  0  0  0
    1.4121   -0.8706    0.0000 C   0  0  0  0  0  0  0  0  0  0  0  0
    2.6817   -1.2831    0.0000 C   0  0  0  0  0  0  0  0  0  0  0  0
    1.8970   -0.2031    0.0000 C   0  0  0  0  0  0  0  0  0  0  0  0
   -3.5381    1.9873    0.0000 C   0  0  0  0  0  0  0  0  0  0  0  0
    3.3492   -1.7681    0.0000 C   0  0  0  0  0  0  0  0  0  0  0  0
    4.1339   -1.5131    0.0000 C   0  0  0  0  0  0  0  0  0  0  0  0
    4.1339   -2.8481    0.0000 C   0  0  0  0  0  0  0  0  0  0  0  0
    0.6667    0.6965    0.0000 H   0  0  0  0  0  0  0  0  0  0  0  0
   -4.8554    2.8399    0.0000 H   0  0  0  0  0  0  0  0  0  0  0  0
   -4.8553    1.1347    0.0000 H   0  0  0  0  0  0  0  0  0  0  0  0
   -2.1411    2.7018    0.0000 H   0  0  0  0  0  0  0  0  0  0  0  0
   -3.6179    3.5544    0.0000 H   0  0  0  0  0  0  0  0  0  0  0  0
   -0.5279    1.4850    0.0000 H   0  0  0  0  0  0  0  0  0  0  0  0
    0.0071    0.5583    0.0000 H   0  0  0  0  0  0  0  0  0  0  0  0
   -2.4229   -0.3684    0.0000 H   0  0  0  0  0  0  0  0  0  0  0  0
   -2.9579    0.5582    0.0000 H   0  0  0  0  0  0  0  0  0  0  0  0
   -1.1854   -1.0828    0.0000 H   0  0  0  0  0  0  0  0  0  0  0  0
   -1.7204   -0.1561    0.0000 H   0  0  0  0  0  0  0  0  0  0  0  0
   -1.7655    2.1995    0.0000 H   0  0  0  0  0  0  0  0  0  0  0  0
   -1.2305    1.2729    0.0000 H   0  0  0  0  0  0  0  0  0  0  0  0
    1.5781    0.7784    0.0000 H   0  0  0  0  0  0  0  0  0  0  0  0
    4.4528   -0.5316    0.0000 H   0  0  0  0  0  0  0  0  0  0  0  0
    4.4528   -3.8296    0.0000 H   0  0  0  0  0  0  0  0  0  0  0  0
  1 16  1  0  0  0  0
  1 17  1  0  0  0  0
  2 20  1  0  0  0  0
  2 21  1  0  0  0  0
  3 14  2  0  0  0  0
  4 12  1  0  0  0  0
  4 14  1  0  0  0  0
  4 22  1  0  0  0  0
  5 13  1  0  0  0  0
  5 18  2  0  0  0  0
  6 15  1  0  0  0  0
  6 16  2  0  0  0  0
  7 19  1  0  0  0  0
  7 21  2  0  0  0  0
  8 18  1  0  0  0  0
  8 23  1  0  0  0  0
  8 24  1  0  0  0  0
  9 18  1  0  0  0  0
  9 25  1  0  0  0  0
  9 26  1  0  0  0  0
 10 11  1  0  0  0  0
 10 12  1  0  0  0  0
 10 27  1  0  0  0  0
 10 28  1  0  0  0  0
 11 13  1  0  0  0  0
 11 29  1  0  0  0  0
 11 30  1  0  0  0  0
 12 31  1  0  0  0  0
 12 32  1  0  0  0  0
 13 33  1  0  0  0  0
 13 34  1  0  0  0  0
 14 15  1  0  0  0  0
 15 17  2  0  0  0  0
 16 19  1  0  0  0  0
 17 35  1  0  0  0  0
 19 20  2  0  0  0  0
 20 36  1  0  0  0  0
 21 37  1  0  0  0  0
M  END
>  <DRUGBANK_ID>
DB07499

>  <COMMON_NAME>
N-(4-{[amino(imino)methyl]amino}butyl)-2,4'-bi-1,3-thiazole-4-carboxamide

$$$$
