
 OpenBabel10282417072D

353358  0  0  1  0  0  0  0  0999 V2000
   14.6294  -37.0211    0.0000 C   0  0  0  0  0  0  0  0  0  0  0  0
   13.9330  -36.5789    0.0000 S   0  0  0  0  0  0  0  0  0  0  0  0
   13.9678  -35.7546    0.0000 C   0  0  0  0  0  0  0  0  0  0  0  0
   13.2714  -35.3123    0.0000 C   0  0  0  0  0  0  0  0  0  0  0  0
   13.3062  -34.4880    0.0000 C   0  0  2  0  0  0  0  0  0  0  0  0
   12.6098  -34.0458    0.0000 N   0  0  0  0  0  0  0  0  0  0  0  0
   11.8785  -34.4277    0.0000 C   0  0  0  0  0  0  0  0  0  0  0  0
   11.8437  -35.2520    0.0000 O   0  0  0  0  0  0  0  0  0  0  0  0
   11.1821  -33.9854    0.0000 C   0  0  2  0  0  0  0  0  0  0  0  0
   11.2169  -33.1612    0.0000 C   0  0  0  0  0  0  0  0  0  0  0  0
   11.9482  -32.7792    0.0000 O   0  0  0  0  0  0  0  0  0  0  0  0
   10.4509  -34.3674    0.0000 N   0  0  0  0  0  0  0  0  0  0  0  0
    9.7544  -33.9251    0.0000 C   0  0  0  0  0  0  0  0  0  0  0  0
    9.7893  -33.1009    0.0000 O   0  0  0  0  0  0  0  0  0  0  0  0
    9.0232  -34.3071    0.0000 C   0  0  2  0  0  0  0  0  0  0  0  0
    8.9884  -35.1314    0.0000 C   0  0  0  0  0  0  0  0  0  0  0  0
    9.6848  -35.5737    0.0000 C   0  0  0  0  0  0  0  0  0  0  0  0
   10.4160  -35.1917    0.0000 C   0  0  0  0  0  0  0  0  0  0  0  0
   11.1125  -35.6340    0.0000 C   0  0  0  0  0  0  0  0  0  0  0  0
   11.0776  -36.4582    0.0000 C   0  0  0  0  0  0  0  0  0  0  0  0
   11.7741  -36.9005    0.0000 O   0  0  0  0  0  0  0  0  0  0  0  0
   10.3464  -36.8402    0.0000 C   0  0  0  0  0  0  0  0  0  0  0  0
    9.6500  -36.3979    0.0000 C   0  0  0  0  0  0  0  0  0  0  0  0
    8.3268  -33.8648    0.0000 N   0  0  0  0  0  0  0  0  0  0  0  0
    7.5955  -34.2468    0.0000 C   0  0  0  0  0  0  0  0  0  0  0  0
    7.5607  -35.0711    0.0000 O   0  0  0  0  0  0  0  0  0  0  0  0
    6.8991  -33.8045    0.0000 C   0  0  2  0  0  0  0  0  0  0  0  0
    6.9339  -32.9802    0.0000 C   0  0  0  0  0  0  0  0  0  0  0  0
    6.2375  -32.5379    0.0000 O   0  0  0  0  0  0  0  0  0  0  0  0
    6.1679  -34.1865    0.0000 N   0  0  0  0  0  0  0  0  0  0  0  0
    5.4714  -33.7442    0.0000 C   0  0  0  0  0  0  0  0  0  0  0  0
    5.5063  -32.9199    0.0000 O   0  0  0  0  0  0  0  0  0  0  0  0
    4.7402  -34.1262    0.0000 C   0  0  2  0  0  0  0  0  0  0  0  0
    4.7054  -34.9504    0.0000 C   0  0  0  0  0  0  0  0  0  0  0  0
    5.4018  -35.3927    0.0000 C   0  0  0  0  0  0  0  0  0  0  0  0
    5.3670  -36.2170    0.0000 C   0  0  0  0  0  0  0  0  0  0  0  0
    6.0634  -36.6593    0.0000 C   0  0  0  0  0  0  0  0  0  0  0  0
    6.0286  -37.4835    0.0000 N   0  0  0  0  0  0  0  0  0  0  0  0
    4.0438  -33.6839    0.0000 N   0  0  0  0  0  0  0  0  0  0  0  0
    3.3125  -34.0659    0.0000 C   0  0  0  0  0  0  0  0  0  0  0  0
    3.2777  -34.8901    0.0000 O   0  0  0  0  0  0  0  0  0  0  0  0
    2.6161  -33.6236    0.0000 C   0  0  2  0  0  0  0  0  0  0  0  0
    2.6509  -32.7993    0.0000 C   0  0  0  0  0  0  0  0  0  0  0  0
    1.9545  -32.3570    0.0000 C   0  0  0  0  0  0  0  0  0  0  0  0
    1.9893  -31.5327    0.0000 C   0  0  0  0  0  0  0  0  0  0  0  0
    1.2929  -31.0905    0.0000 C   0  0  0  0  0  0  0  0  0  0  0  0
    1.3277  -30.2662    0.0000 N   0  0  0  0  0  0  0  0  0  0  0  0
    1.8848  -34.0055    0.0000 N   0  0  0  0  0  0  0  0  0  0  0  0
    1.1884  -33.5633    0.0000 C   0  0  0  0  0  0  0  0  0  0  0  0
    1.2232  -32.7390    0.0000 O   0  0  0  0  0  0  0  0  0  0  0  0
    0.4572  -33.9452    0.0000 C   0  0  2  0  0  0  0  0  0  0  0  0
    0.4224  -34.7695    0.0000 C   0  0  0  0  0  0  0  0  0  0  0  0
    1.1188  -35.2118    0.0000 C   0  0  0  0  0  0  0  0  0  0  0  0
    1.0840  -36.0360    0.0000 C   0  0  0  0  0  0  0  0  0  0  0  0
    1.7804  -36.4783    0.0000 C   0  0  0  0  0  0  0  0  0  0  0  0
    1.7456  -37.3026    0.0000 N   0  0  0  0  0  0  0  0  0  0  0  0
   -0.2392  -33.5029    0.0000 N   0  0  0  0  0  0  0  0  0  0  0  0
   -0.9705  -33.8849    0.0000 C   0  0  0  0  0  0  0  0  0  0  0  0
   -1.0053  -34.7092    0.0000 O   0  0  0  0  0  0  0  0  0  0  0  0
   -1.6669  -33.4426    0.0000 C   0  0  2  0  0  0  0  0  0  0  0  0
   -1.6321  -32.6184    0.0000 C   0  0  0  0  0  0  0  0  0  0  0  0
   -2.3285  -32.1761    0.0000 C   0  0  0  0  0  0  0  0  0  0  0  0
   -2.2937  -31.3518    0.0000 C   0  0  0  0  0  0  0  0  0  0  0  0
   -2.9901  -30.9095    0.0000 C   0  0  0  0  0  0  0  0  0  0  0  0
   -2.9553  -30.0853    0.0000 N   0  0  0  0  0  0  0  0  0  0  0  0
   -2.3982  -33.8246    0.0000 N   0  0  0  0  0  0  0  0  0  0  0  0
   -3.0946  -33.3823    0.0000 C   0  0  0  0  0  0  0  0  0  0  0  0
   -3.0598  -32.5581    0.0000 O   0  0  0  0  0  0  0  0  0  0  0  0
   -3.8258  -33.7643    0.0000 C   0  0  2  0  0  0  0  0  0  0  0  0
   -3.8606  -34.5886    0.0000 C   0  0  0  0  0  0  0  0  0  0  0  0
   -3.1642  -35.0308    0.0000 C   0  0  0  0  0  0  0  0  0  0  0  0
   -3.1990  -35.8551    0.0000 C   0  0  0  0  0  0  0  0  0  0  0  0
   -2.5026  -36.2974    0.0000 C   0  0  0  0  0  0  0  0  0  0  0  0
   -2.5374  -37.1217    0.0000 N   0  0  0  0  0  0  0  0  0  0  0  0
   -4.5222  -33.3220    0.0000 N   0  0  0  0  0  0  0  0  0  0  0  0
   -5.2535  -33.7040    0.0000 C   0  0  0  0  0  0  0  0  0  0  0  0
   -5.2883  -34.5282    0.0000 O   0  0  0  0  0  0  0  0  0  0  0  0
   -5.9499  -33.2617    0.0000 C   0  0  2  0  0  0  0  0  0  0  0  0
   -6.6812  -33.6437    0.0000 C   0  0  0  0  0  0  0  0  0  0  0  0
   -7.3776  -33.2014    0.0000 C   0  0  0  0  0  0  0  0  0  0  0  0
   -8.1088  -33.5834    0.0000 C   0  0  0  0  0  0  0  0  0  0  0  0
   -8.8053  -33.1411    0.0000 C   0  0  0  0  0  0  0  0  0  0  0  0
   -9.5365  -33.5230    0.0000 N   0  0  0  0  0  0  0  0  0  0  0  0
   -5.9151  -32.4374    0.0000 N   0  0  0  0  0  0  0  0  0  0  0  0
   -6.6115  -31.9951    0.0000 C   0  0  0  0  0  0  0  0  0  0  0  0
   -7.3428  -32.3771    0.0000 C   0  0  0  0  0  0  0  0  0  0  0  0
   -6.5767  -31.1709    0.0000 O   0  0  0  0  0  0  0  0  0  0  0  0
   14.0374  -34.1061    0.0000 C   0  0  0  0  0  0  0  0  0  0  0  0
   14.0723  -33.2818    0.0000 O   0  0  0  0  0  0  0  0  0  0  0  0
   14.7339  -34.5484    0.0000 N   0  0  0  0  0  0  0  0  0  0  0  0
   15.4651  -34.1664    0.0000 C   0  0  1  0  0  0  0  0  0  0  0  0
   15.4999  -33.3421    0.0000 C   0  0  0  0  0  0  0  0  0  0  0  0
   16.2312  -32.9601    0.0000 C   0  0  0  0  0  0  0  0  0  0  0  0
   16.2660  -32.1359    0.0000 C   0  0  0  0  0  0  0  0  0  0  0  0
   15.5696  -31.6936    0.0000 O   0  0  0  0  0  0  0  0  0  0  0  0
   16.9972  -31.7539    0.0000 O   0  0  0  0  0  0  0  0  0  0  0  0
   16.1615  -34.6087    0.0000 C   0  0  0  0  0  0  0  0  0  0  0  0
   16.1267  -35.4329    0.0000 O   0  0  0  0  0  0  0  0  0  0  0  0
   16.8928  -34.2267    0.0000 N   0  0  0  0  0  0  0  0  0  0  0  0
   17.5892  -34.6690    0.0000 C   0  0  1  0  0  0  0  0  0  0  0  0
   17.5544  -35.4932    0.0000 C   0  0  0  0  0  0  0  0  0  0  0  0
   18.2508  -35.9355    0.0000 C   0  0  0  0  0  0  0  0  0  0  0  0
   19.0180  -35.6321    0.0000 C   0  0  0  0  0  0  0  0  0  0  0  0
   19.5436  -36.2679    0.0000 N   0  0  0  0  0  0  0  0  0  0  0  0
   19.1013  -36.9644    0.0000 C   0  0  0  0  0  0  0  0  0  0  0  0
   18.3023  -36.7589    0.0000 N   0  0  0  0  0  0  0  0  0  0  0  0
   18.3204  -34.2870    0.0000 C   0  0  0  0  0  0  0  0  0  0  0  0
   17.8641  -33.5997    0.0000 O   0  0  0  0  0  0  0  0  0  0  0  0
   19.0169  -34.7293    0.0000 N   0  0  0  0  0  0  0  0  0  0  0  0
   19.7481  -34.3473    0.0000 C   0  0  1  0  0  0  0  0  0  0  0  0
   19.7829  -33.5230    0.0000 C   0  0  0  0  0  0  0  0  0  0  0  0
   19.0865  -33.0808    0.0000 C   0  0  0  0  0  0  0  0  0  0  0  0
   18.3553  -33.4627    0.0000 C   0  0  0  0  0  0  0  0  0  0  0  0
   17.6588  -33.0204    0.0000 C   0  0  0  0  0  0  0  0  0  0  0  0
   17.6937  -32.1962    0.0000 C   0  0  0  0  0  0  0  0  0  0  0  0
   18.4249  -31.8142    0.0000 C   0  0  0  0  0  0  0  0  0  0  0  0
   19.1213  -32.2565    0.0000 C   0  0  0  0  0  0  0  0  0  0  0  0
   20.4445  -34.7896    0.0000 C   0  0  0  0  0  0  0  0  0  0  0  0
   20.4097  -35.6139    0.0000 O   0  0  0  0  0  0  0  0  0  0  0  0
   21.1758  -34.4076    0.0000 N   0  0  0  0  0  0  0  0  0  0  0  0
   21.8722  -34.8499    0.0000 C   0  0  1  0  0  0  0  0  0  0  0  0
   21.8374  -35.6742    0.0000 C   0  0  0  0  0  0  0  0  0  0  0  0
   21.1061  -36.0562    0.0000 C   0  0  0  0  0  0  0  0  0  0  0  0
   21.0713  -36.8804    0.0000 C   0  0  0  0  0  0  0  0  0  0  0  0
   20.3401  -37.2624    0.0000 N   0  0  0  0  0  0  0  0  0  0  0  0
   20.3053  -38.0867    0.0000 C   0  0  0  0  0  0  0  0  0  0  0  0
   19.5740  -38.4686    0.0000 N   0  0  0  0  0  0  0  0  0  0  0  0
   21.0017  -38.5289    0.0000 N   0  0  0  0  0  0  0  0  0  0  0  0
   22.6035  -34.4679    0.0000 C   0  0  0  0  0  0  0  0  0  0  0  0
   22.6383  -33.6437    0.0000 O   0  0  0  0  0  0  0  0  0  0  0  0
   23.2999  -34.9102    0.0000 N   0  0  0  0  0  0  0  0  0  0  0  0
   24.0311  -34.5282    0.0000 C   0  0  1  0  0  0  0  0  0  0  0  0
   24.7275  -34.9705    0.0000 C   0  0  0  0  0  0  0  0  0  0  0  0
   24.6927  -35.7948    0.0000 C   0  0  0  0  0  0  0  0  0  0  0  0
   24.0054  -36.2511    0.0000 C   0  0  0  0  0  0  0  0  0  0  0  0
   24.2270  -37.0458    0.0000 N   0  0  0  0  0  0  0  0  0  0  0  0
   25.0513  -37.0806    0.0000 C   0  0  0  0  0  0  0  0  0  0  0  0
   25.3391  -36.3075    0.0000 C   0  0  0  0  0  0  0  0  0  0  0  0
   26.1526  -36.1701    0.0000 C   0  0  0  0  0  0  0  0  0  0  0  0
   26.6783  -36.8060    0.0000 C   0  0  0  0  0  0  0  0  0  0  0  0
   26.3904  -37.5792    0.0000 C   0  0  0  0  0  0  0  0  0  0  0  0
   25.5769  -37.7165    0.0000 C   0  0  0  0  0  0  0  0  0  0  0  0
   24.0659  -33.7040    0.0000 C   0  0  0  0  0  0  0  0  0  0  0  0
   24.7972  -33.3220    0.0000 O   0  0  0  0  0  0  0  0  0  0  0  0
   23.3695  -33.2617    0.0000 N   0  0  0  0  0  0  0  0  0  0  0  0
   23.4043  -32.4374    0.0000 C   0  0  0  0  0  0  0  0  0  0  0  0
   22.7079  -31.9951    0.0000 C   0  0  0  0  0  0  0  0  0  0  0  0
   21.9767  -32.3771    0.0000 O   0  0  0  0  0  0  0  0  0  0  0  0
   22.7427  -31.1709    0.0000 N   0  0  0  0  0  0  0  0  0  0  0  0
   22.0463  -30.7286    0.0000 C   0  0  1  0  0  0  0  0  0  0  0  0
   21.3151  -31.1106    0.0000 C   0  0  0  0  0  0  0  0  0  0  0  0
   21.2802  -31.9348    0.0000 C   0  0  0  0  0  0  0  0  0  0  0  0
   20.5490  -32.3168    0.0000 C   0  0  0  0  0  0  0  0  0  0  0  0
   20.5142  -33.1411    0.0000 C   0  0  0  0  0  0  0  0  0  0  0  0
   21.2106  -33.5834    0.0000 N   0  0  0  0  0  0  0  0  0  0  0  0
   22.0811  -29.9043    0.0000 C   0  0  0  0  0  0  0  0  0  0  0  0
   21.3847  -29.4620    0.0000 O   0  0  0  0  0  0  0  0  0  0  0  0
   22.8124  -29.5223    0.0000 N   0  0  0  0  0  0  0  0  0  0  0  0
   23.5512  -29.8894    0.0000 C   0  0  0  0  0  0  0  0  0  0  0  0
   24.1286  -29.3002    0.0000 C   0  0  0  0  0  0  0  0  0  0  0  0
   23.7467  -28.5689    0.0000 C   0  0  0  0  0  0  0  0  0  0  0  0
   22.9332  -28.7062    0.0000 C   0  0  1  0  0  0  0  0  0  0  0  0
   22.3439  -28.1288    0.0000 C   0  0  0  0  0  0  0  0  0  0  0  0
   21.5492  -28.3504    0.0000 O   0  0  0  0  0  0  0  0  0  0  0  0
   22.5494  -27.3298    0.0000 N   0  0  0  0  0  0  0  0  0  0  0  0
   21.9601  -26.7524    0.0000 C   0  0  1  0  0  0  0  0  0  0  0  0
   22.1655  -25.9534    0.0000 C   0  0  0  0  0  0  0  0  0  0  0  0
   21.5763  -25.3760    0.0000 C   0  0  0  0  0  0  0  0  0  0  0  0
   22.9602  -25.7318    0.0000 C   0  0  0  0  0  0  0  0  0  0  0  0
   21.1654  -26.9740    0.0000 C   0  0  0  0  0  0  0  0  0  0  0  0
   20.9600  -27.7730    0.0000 N   0  0  0  0  0  0  0  0  0  0  0  0
   20.5762  -26.3966    0.0000 O   0  0  0  0  0  0  0  0  0  0  0  0
   14.5843  -38.0901    0.0000 H   0  0  0  0  0  0  0  0  0  0  0  0
   15.5778  -36.5256    0.0000 H   0  0  0  0  0  0  0  0  0  0  0  0
   15.5327  -37.5947    0.0000 H   0  0  0  0  0  0  0  0  0  0  0  0
   14.9162  -35.2592    0.0000 H   0  0  0  0  0  0  0  0  0  0  0  0
   14.0130  -34.6856    0.0000 H   0  0  0  0  0  0  0  0  0  0  0  0
   12.3230  -35.8077    0.0000 H   0  0  0  0  0  0  0  0  0  0  0  0
   12.3682  -34.7387    0.0000 H   0  0  0  0  0  0  0  0  0  0  0  0
   12.3578  -34.9835    0.0000 H   0  0  0  0  0  0  0  0  0  0  0  0
   12.6514  -33.0622    0.0000 H   0  0  0  0  0  0  0  0  0  0  0  0
   11.1370  -35.0544    0.0000 H   0  0  0  0  0  0  0  0  0  0  0  0
   10.3137  -32.5876    0.0000 H   0  0  0  0  0  0  0  0  0  0  0  0
   11.2621  -32.0922    0.0000 H   0  0  0  0  0  0  0  0  0  0  0  0
   12.7670  -33.2992    0.0000 H   0  0  0  0  0  0  0  0  0  0  0  0
   10.4094  -35.3510    0.0000 H   0  0  0  0  0  0  0  0  0  0  0  0
    9.0683  -33.2381    0.0000 H   0  0  0  0  0  0  0  0  0  0  0  0
    8.0400  -35.6268    0.0000 H   0  0  0  0  0  0  0  0  0  0  0  0
    8.9432  -36.2004    0.0000 H   0  0  0  0  0  0  0  0  0  0  0  0
   10.4595  -34.1606    0.0000 H   0  0  0  0  0  0  0  0  0  0  0  0
   12.0272  -35.1562    0.0000 H   0  0  0  0  0  0  0  0  0  0  0  0
   11.7346  -37.8367    0.0000 H   0  0  0  0  0  0  0  0  0  0  0  0
   10.3029  -37.8713    0.0000 H   0  0  0  0  0  0  0  0  0  0  0  0
    8.7353  -36.8757    0.0000 H   0  0  0  0  0  0  0  0  0  0  0  0
    8.3684  -32.8812    0.0000 H   0  0  0  0  0  0  0  0  0  0  0  0
    6.8540  -34.8735    0.0000 H   0  0  0  0  0  0  0  0  0  0  0  0
    7.8823  -32.4848    0.0000 H   0  0  0  0  0  0  0  0  0  0  0  0
    6.9791  -31.9112    0.0000 H   0  0  0  0  0  0  0  0  0  0  0  0
    6.2785  -31.5688    0.0000 H   0  0  0  0  0  0  0  0  0  0  0  0
    6.1264  -35.1701    0.0000 H   0  0  0  0  0  0  0  0  0  0  0  0
    4.7853  -33.0572    0.0000 H   0  0  0  0  0  0  0  0  0  0  0  0
    3.7570  -35.4458    0.0000 H   0  0  0  0  0  0  0  0  0  0  0  0
    4.6602  -36.0194    0.0000 H   0  0  0  0  0  0  0  0  0  0  0  0
    6.3502  -34.8973    0.0000 H   0  0  0  0  0  0  0  0  0  0  0  0
    6.3050  -35.9663    0.0000 H   0  0  0  0  0  0  0  0  0  0  0  0
    4.4186  -36.7124    0.0000 H   0  0  0  0  0  0  0  0  0  0  0  0
    5.3218  -37.2860    0.0000 H   0  0  0  0  0  0  0  0  0  0  0  0
    7.0118  -36.1639    0.0000 H   0  0  0  0  0  0  0  0  0  0  0  0
    6.9666  -37.2329    0.0000 H   0  0  0  0  0  0  0  0  0  0  0  0
    5.1245  -37.9558    0.0000 H   0  0  0  0  0  0  0  0  0  0  0  0
    6.8896  -38.0303    0.0000 H   0  0  0  0  0  0  0  0  0  0  0  0
    4.0854  -32.7003    0.0000 H   0  0  0  0  0  0  0  0  0  0  0  0
    2.5709  -34.6926    0.0000 H   0  0  0  0  0  0  0  0  0  0  0  0
    3.5993  -32.3039    0.0000 H   0  0  0  0  0  0  0  0  0  0  0  0
    2.6961  -31.7303    0.0000 H   0  0  0  0  0  0  0  0  0  0  0  0
    1.0061  -32.8524    0.0000 H   0  0  0  0  0  0  0  0  0  0  0  0
    1.0513  -31.7834    0.0000 H   0  0  0  0  0  0  0  0  0  0  0  0
    2.9377  -31.0372    0.0000 H   0  0  0  0  0  0  0  0  0  0  0  0
    2.0344  -30.4637    0.0000 H   0  0  0  0  0  0  0  0  0  0  0  0
    0.3445  -31.5860    0.0000 H   0  0  0  0  0  0  0  0  0  0  0  0
    0.3896  -30.5169    0.0000 H   0  0  0  0  0  0  0  0  0  0  0  0
    2.2318  -29.7939    0.0000 H   0  0  0  0  0  0  0  0  0  0  0  0
    0.4667  -29.7194    0.0000 H   0  0  0  0  0  0  0  0  0  0  0  0
    1.8432  -34.9891    0.0000 H   0  0  0  0  0  0  0  0  0  0  0  0
    0.5024  -32.8762    0.0000 H   0  0  0  0  0  0  0  0  0  0  0  0
   -0.5260  -35.2649    0.0000 H   0  0  0  0  0  0  0  0  0  0  0  0
    0.3772  -35.8385    0.0000 H   0  0  0  0  0  0  0  0  0  0  0  0
    2.0672  -34.7164    0.0000 H   0  0  0  0  0  0  0  0  0  0  0  0
    2.0220  -35.7854    0.0000 H   0  0  0  0  0  0  0  0  0  0  0  0
    0.1356  -36.5314    0.0000 H   0  0  0  0  0  0  0  0  0  0  0  0
    1.0388  -37.1050    0.0000 H   0  0  0  0  0  0  0  0  0  0  0  0
    2.7288  -35.9829    0.0000 H   0  0  0  0  0  0  0  0  0  0  0  0
    2.6836  -37.0519    0.0000 H   0  0  0  0  0  0  0  0  0  0  0  0
    0.8415  -37.7749    0.0000 H   0  0  0  0  0  0  0  0  0  0  0  0
    2.6066  -37.8494    0.0000 H   0  0  0  0  0  0  0  0  0  0  0  0
   -0.1976  -32.5193    0.0000 H   0  0  0  0  0  0  0  0  0  0  0  0
   -1.7121  -34.5116    0.0000 H   0  0  0  0  0  0  0  0  0  0  0  0
   -0.6837  -32.1230    0.0000 H   0  0  0  0  0  0  0  0  0  0  0  0
   -1.5869  -31.5494    0.0000 H   0  0  0  0  0  0  0  0  0  0  0  0
   -3.2769  -32.6715    0.0000 H   0  0  0  0  0  0  0  0  0  0  0  0
   -3.2317  -31.6025    0.0000 H   0  0  0  0  0  0  0  0  0  0  0  0
   -1.3453  -30.8564    0.0000 H   0  0  0  0  0  0  0  0  0  0  0  0
   -2.2485  -30.2828    0.0000 H   0  0  0  0  0  0  0  0  0  0  0  0
   -3.9385  -31.4049    0.0000 H   0  0  0  0  0  0  0  0  0  0  0  0
   -3.8933  -30.3359    0.0000 H   0  0  0  0  0  0  0  0  0  0  0  0
   -2.0512  -29.6130    0.0000 H   0  0  0  0  0  0  0  0  0  0  0  0
   -3.8163  -29.5385    0.0000 H   0  0  0  0  0  0  0  0  0  0  0  0
   -2.4398  -34.8082    0.0000 H   0  0  0  0  0  0  0  0  0  0  0  0
   -3.7807  -32.6953    0.0000 H   0  0  0  0  0  0  0  0  0  0  0  0
   -4.8090  -35.0841    0.0000 H   0  0  0  0  0  0  0  0  0  0  0  0
   -3.9057  -35.6576    0.0000 H   0  0  0  0  0  0  0  0  0  0  0  0
   -2.2158  -34.5353    0.0000 H   0  0  0  0  0  0  0  0  0  0  0  0
   -2.2609  -35.6044    0.0000 H   0  0  0  0  0  0  0  0  0  0  0  0
   -4.1474  -36.3505    0.0000 H   0  0  0  0  0  0  0  0  0  0  0  0
   -3.2442  -36.9241    0.0000 H   0  0  0  0  0  0  0  0  0  0  0  0
   -1.5542  -35.8020    0.0000 H   0  0  0  0  0  0  0  0  0  0  0  0
   -1.5994  -36.8710    0.0000 H   0  0  0  0  0  0  0  0  0  0  0  0
   -3.4415  -37.5940    0.0000 H   0  0  0  0  0  0  0  0  0  0  0  0
   -1.6764  -37.6685    0.0000 H   0  0  0  0  0  0  0  0  0  0  0  0
   -4.4806  -32.3384    0.0000 H   0  0  0  0  0  0  0  0  0  0  0  0
   -5.0015  -32.7663    0.0000 H   0  0  0  0  0  0  0  0  0  0  0  0
   -6.7264  -34.7127    0.0000 H   0  0  0  0  0  0  0  0  0  0  0  0
   -7.6296  -34.1391    0.0000 H   0  0  0  0  0  0  0  0  0  0  0  0
   -7.3325  -32.1324    0.0000 H   0  0  0  0  0  0  0  0  0  0  0  0
   -8.2809  -32.6278    0.0000 H   0  0  0  0  0  0  0  0  0  0  0  0
   -8.1539  -34.6524    0.0000 H   0  0  0  0  0  0  0  0  0  0  0  0
   -9.0572  -34.0789    0.0000 H   0  0  0  0  0  0  0  0  0  0  0  0
   -8.7601  -32.0721    0.0000 H   0  0  0  0  0  0  0  0  0  0  0  0
   -9.7085  -32.5674    0.0000 H   0  0  0  0  0  0  0  0  0  0  0  0
  -10.3975  -32.9761    0.0000 H   0  0  0  0  0  0  0  0  0  0  0  0
   -9.5796  -34.5421    0.0000 H   0  0  0  0  0  0  0  0  0  0  0  0
   -5.0425  -31.9816    0.0000 H   0  0  0  0  0  0  0  0  0  0  0  0
   -8.2460  -31.8035    0.0000 H   0  0  0  0  0  0  0  0  0  0  0  0
   -7.3880  -33.4461    0.0000 H   0  0  0  0  0  0  0  0  0  0  0  0
   -8.2912  -32.8725    0.0000 H   0  0  0  0  0  0  0  0  0  0  0  0
   14.6924  -35.5320    0.0000 H   0  0  0  0  0  0  0  0  0  0  0  0
   14.5618  -33.5928    0.0000 H   0  0  0  0  0  0  0  0  0  0  0  0
   14.5967  -32.7685    0.0000 H   0  0  0  0  0  0  0  0  0  0  0  0
   15.5451  -32.2731    0.0000 H   0  0  0  0  0  0  0  0  0  0  0  0
   17.1344  -33.5337    0.0000 H   0  0  0  0  0  0  0  0  0  0  0  0
   17.1796  -32.4647    0.0000 H   0  0  0  0  0  0  0  0  0  0  0  0
   15.6092  -30.7574    0.0000 H   0  0  0  0  0  0  0  0  0  0  0  0
   16.9344  -33.2431    0.0000 H   0  0  0  0  0  0  0  0  0  0  0  0
   16.6408  -35.1644    0.0000 H   0  0  0  0  0  0  0  0  0  0  0  0
   16.6060  -35.9886    0.0000 H   0  0  0  0  0  0  0  0  0  0  0  0
   17.5092  -36.5622    0.0000 H   0  0  0  0  0  0  0  0  0  0  0  0
   19.2750  -34.6326    0.0000 H   0  0  0  0  0  0  0  0  0  0  0  0
   20.5262  -36.2064    0.0000 H   0  0  0  0  0  0  0  0  0  0  0  0
   19.4809  -37.9241    0.0000 H   0  0  0  0  0  0  0  0  0  0  0  0
   18.9754  -35.7129    0.0000 H   0  0  0  0  0  0  0  0  0  0  0  0
   18.8448  -33.7737    0.0000 H   0  0  0  0  0  0  0  0  0  0  0  0
   20.7313  -33.0275    0.0000 H   0  0  0  0  0  0  0  0  0  0  0  0
   19.8280  -32.4540    0.0000 H   0  0  0  0  0  0  0  0  0  0  0  0
   18.3117  -34.4938    0.0000 H   0  0  0  0  0  0  0  0  0  0  0  0
   16.7441  -33.4982    0.0000 H   0  0  0  0  0  0  0  0  0  0  0  0
   16.8226  -31.6429    0.0000 H   0  0  0  0  0  0  0  0  0  0  0  0
   18.4684  -30.7831    0.0000 H   0  0  0  0  0  0  0  0  0  0  0  0
   20.0360  -31.7787    0.0000 H   0  0  0  0  0  0  0  0  0  0  0  0
   21.2174  -33.4240    0.0000 H   0  0  0  0  0  0  0  0  0  0  0  0
   20.9238  -35.3453    0.0000 H   0  0  0  0  0  0  0  0  0  0  0  0
   22.7406  -36.2478    0.0000 H   0  0  0  0  0  0  0  0  0  0  0  0
   21.7922  -36.7432    0.0000 H   0  0  0  0  0  0  0  0  0  0  0  0
   20.2029  -35.4826    0.0000 H   0  0  0  0  0  0  0  0  0  0  0  0
   20.1577  -36.5516    0.0000 H   0  0  0  0  0  0  0  0  0  0  0  0
   21.9746  -37.4540    0.0000 H   0  0  0  0  0  0  0  0  0  0  0  0
   21.0262  -37.9494    0.0000 H   0  0  0  0  0  0  0  0  0  0  0  0
   19.5090  -36.7346    0.0000 H   0  0  0  0  0  0  0  0  0  0  0  0
   18.7430  -37.9407    0.0000 H   0  0  0  0  0  0  0  0  0  0  0  0
   19.5323  -39.4522    0.0000 H   0  0  0  0  0  0  0  0  0  0  0  0
   20.9602  -39.5125    0.0000 H   0  0  0  0  0  0  0  0  0  0  0  0
   23.2584  -35.8938    0.0000 H   0  0  0  0  0  0  0  0  0  0  0  0
   23.9860  -35.5972    0.0000 H   0  0  0  0  0  0  0  0  0  0  0  0
   25.6759  -34.4751    0.0000 H   0  0  0  0  0  0  0  0  0  0  0  0
   25.6307  -35.5441    0.0000 H   0  0  0  0  0  0  0  0  0  0  0  0
   23.0382  -35.8910    0.0000 H   0  0  0  0  0  0  0  0  0  0  0  0
   23.6152  -37.8172    0.0000 H   0  0  0  0  0  0  0  0  0  0  0  0
   26.5126  -35.2029    0.0000 H   0  0  0  0  0  0  0  0  0  0  0  0
   27.6959  -36.6343    0.0000 H   0  0  0  0  0  0  0  0  0  0  0  0
   27.0479  -38.3746    0.0000 H   0  0  0  0  0  0  0  0  0  0  0  0
   25.2168  -38.6836    0.0000 H   0  0  0  0  0  0  0  0  0  0  0  0
   22.4969  -33.7175    0.0000 H   0  0  0  0  0  0  0  0  0  0  0  0
   24.3527  -31.9420    0.0000 H   0  0  0  0  0  0  0  0  0  0  0  0
   23.4495  -31.3684    0.0000 H   0  0  0  0  0  0  0  0  0  0  0  0
   23.6153  -30.7151    0.0000 H   0  0  0  0  0  0  0  0  0  0  0  0
   22.0012  -31.7976    0.0000 H   0  0  0  0  0  0  0  0  0  0  0  0
   20.4119  -30.5369    0.0000 H   0  0  0  0  0  0  0  0  0  0  0  0
   20.3667  -31.6060    0.0000 H   0  0  0  0  0  0  0  0  0  0  0  0
   22.1834  -32.5085    0.0000 H   0  0  0  0  0  0  0  0  0  0  0  0
   21.2351  -33.0038    0.0000 H   0  0  0  0  0  0  0  0  0  0  0  0
   19.6457  -31.7432    0.0000 H   0  0  0  0  0  0  0  0  0  0  0  0
   19.6006  -32.8122    0.0000 H   0  0  0  0  0  0  0  0  0  0  0  0
   19.5658  -33.6365    0.0000 H   0  0  0  0  0  0  0  0  0  0  0  0
   20.4690  -34.2101    0.0000 H   0  0  0  0  0  0  0  0  0  0  0  0
   21.1675  -34.6025    0.0000 H   0  0  0  0  0  0  0  0  0  0  0  0
   22.1147  -33.1112    0.0000 H   0  0  0  0  0  0  0  0  0  0  0  0
   23.7292  -30.9445    0.0000 H   0  0  0  0  0  0  0  0  0  0  0  0
   24.5721  -30.2097    0.0000 H   0  0  0  0  0  0  0  0  0  0  0  0
   25.1871  -29.4569    0.0000 H   0  0  0  0  0  0  0  0  0  0  0  0
   24.7488  -28.4283    0.0000 H   0  0  0  0  0  0  0  0  0  0  0  0
   24.2228  -27.6107    0.0000 H   0  0  0  0  0  0  0  0  0  0  0  0
   23.1091  -27.7096    0.0000 H   0  0  0  0  0  0  0  0  0  0  0  0
   23.2535  -27.6853    0.0000 H   0  0  0  0  0  0  0  0  0  0  0  0
   23.4977  -27.0654    0.0000 H   0  0  0  0  0  0  0  0  0  0  0  0
   22.9908  -26.4649    0.0000 H   0  0  0  0  0  0  0  0  0  0  0  0
   22.4320  -24.9171    0.0000 H   0  0  0  0  0  0  0  0  0  0  0  0
   21.8428  -24.3397    0.0000 H   0  0  0  0  0  0  0  0  0  0  0  0
   20.5456  -25.6634    0.0000 H   0  0  0  0  0  0  0  0  0  0  0  0
   20.8121  -24.6271    0.0000 H   0  0  0  0  0  0  0  0  0  0  0  0
   23.7244  -26.4807    0.0000 H   0  0  0  0  0  0  0  0  0  0  0  0
   23.2266  -24.6955    0.0000 H   0  0  0  0  0  0  0  0  0  0  0  0
   23.9909  -25.4444    0.0000 H   0  0  0  0  0  0  0  0  0  0  0  0
   20.0117  -28.0375    0.0000 H   0  0  0  0  0  0  0  0  0  0  0  0
   21.6632  -28.4620    0.0000 H   0  0  0  0  0  0  0  0  0  0  0  0
  1  2  1  0  0  0  0
  1173  1  0  0  0  0
  1174  1  0  0  0  0
  1175  1  0  0  0  0
  2  3  1  0  0  0  0
  3  4  1  0  0  0  0
  3176  1  0  0  0  0
  3177  1  0  0  0  0
  4178  1  0  0  0  0
  4179  1  0  0  0  0
  5  4  1  0  0  0  0
  5  6  1  0  0  0  0
  5 88  1  0  0  0  0
  5180  1  1  0  0  0
  6  7  1  0  0  0  0
  6181  1  0  0  0  0
  7  8  2  0  0  0  0
  9  7  1  0  0  0  0
  9 10  1  0  0  0  0
  9 12  1  0  0  0  0
  9182  1  6  0  0  0
 10 11  1  0  0  0  0
 10183  1  0  0  0  0
 10184  1  0  0  0  0
 11185  1  0  0  0  0
 12 13  1  0  0  0  0
 12186  1  0  0  0  0
 13 14  2  0  0  0  0
 15 13  1  0  0  0  0
 15 16  1  0  0  0  0
 15 24  1  0  0  0  0
 15187  1  1  0  0  0
 16 17  1  0  0  0  0
 16188  1  0  0  0  0
 16189  1  0  0  0  0
 17 18  2  0  0  0  0
 17 23  1  0  0  0  0
 18 19  1  0  0  0  0
 18190  1  0  0  0  0
 19 20  2  0  0  0  0
 19191  1  0  0  0  0
 20 21  1  0  0  0  0
 20 22  1  0  0  0  0
 21192  1  0  0  0  0
 22 23  2  0  0  0  0
 22193  1  0  0  0  0
 23194  1  0  0  0  0
 24 25  1  0  0  0  0
 24195  1  0  0  0  0
 25 26  2  0  0  0  0
 27 25  1  0  0  0  0
 27 28  1  0  0  0  0
 27 30  1  0  0  0  0
 27196  1  6  0  0  0
 28 29  1  0  0  0  0
 28197  1  0  0  0  0
 28198  1  0  0  0  0
 29199  1  0  0  0  0
 30 31  1  0  0  0  0
 30200  1  0  0  0  0
 31 32  2  0  0  0  0
 33 31  1  0  0  0  0
 33 34  1  0  0  0  0
 33 39  1  0  0  0  0
 33201  1  1  0  0  0
 34 35  1  0  0  0  0
 34202  1  0  0  0  0
 34203  1  0  0  0  0
 35 36  1  0  0  0  0
 35204  1  0  0  0  0
 35205  1  0  0  0  0
 36 37  1  0  0  0  0
 36206  1  0  0  0  0
 36207  1  0  0  0  0
 37 38  1  0  0  0  0
 37208  1  0  0  0  0
 37209  1  0  0  0  0
 38210  1  0  0  0  0
 38211  1  0  0  0  0
 39 40  1  0  0  0  0
 39212  1  0  0  0  0
 40 41  2  0  0  0  0
 42 40  1  0  0  0  0
 42 43  1  0  0  0  0
 42 48  1  0  0  0  0
 42213  1  6  0  0  0
 43 44  1  0  0  0  0
 43214  1  0  0  0  0
 43215  1  0  0  0  0
 44 45  1  0  0  0  0
 44216  1  0  0  0  0
 44217  1  0  0  0  0
 45 46  1  0  0  0  0
 45218  1  0  0  0  0
 45219  1  0  0  0  0
 46 47  1  0  0  0  0
 46220  1  0  0  0  0
 46221  1  0  0  0  0
 47222  1  0  0  0  0
 47223  1  0  0  0  0
 48 49  1  0  0  0  0
 48224  1  0  0  0  0
 49 50  2  0  0  0  0
 51 49  1  0  0  0  0
 51 52  1  0  0  0  0
 51 57  1  0  0  0  0
 51225  1  1  0  0  0
 52 53  1  0  0  0  0
 52226  1  0  0  0  0
 52227  1  0  0  0  0
 53 54  1  0  0  0  0
 53228  1  0  0  0  0
 53229  1  0  0  0  0
 54 55  1  0  0  0  0
 54230  1  0  0  0  0
 54231  1  0  0  0  0
 55 56  1  0  0  0  0
 55232  1  0  0  0  0
 55233  1  0  0  0  0
 56234  1  0  0  0  0
 56235  1  0  0  0  0
 57 58  1  0  0  0  0
 57236  1  0  0  0  0
 58 59  2  0  0  0  0
 60 58  1  0  0  0  0
 60 61  1  0  0  0  0
 60 66  1  0  0  0  0
 60237  1  6  0  0  0
 61 62  1  0  0  0  0
 61238  1  0  0  0  0
 61239  1  0  0  0  0
 62 63  1  0  0  0  0
 62240  1  0  0  0  0
 62241  1  0  0  0  0
 63 64  1  0  0  0  0
 63242  1  0  0  0  0
 63243  1  0  0  0  0
 64 65  1  0  0  0  0
 64244  1  0  0  0  0
 64245  1  0  0  0  0
 65246  1  0  0  0  0
 65247  1  0  0  0  0
 66 67  1  0  0  0  0
 66248  1  0  0  0  0
 67 68  2  0  0  0  0
 69 67  1  0  0  0  0
 69 70  1  0  0  0  0
 69 75  1  0  0  0  0
 69249  1  1  0  0  0
 70 71  1  0  0  0  0
 70250  1  0  0  0  0
 70251  1  0  0  0  0
 71 72  1  0  0  0  0
 71252  1  0  0  0  0
 71253  1  0  0  0  0
 72 73  1  0  0  0  0
 72254  1  0  0  0  0
 72255  1  0  0  0  0
 73 74  1  0  0  0  0
 73256  1  0  0  0  0
 73257  1  0  0  0  0
 74258  1  0  0  0  0
 74259  1  0  0  0  0
 75 76  1  0  0  0  0
 75260  1  0  0  0  0
 76 77  2  0  0  0  0
 78 76  1  0  0  0  0
 78 79  1  0  0  0  0
 78 84  1  0  0  0  0
 78261  1  1  0  0  0
 79 80  1  0  0  0  0
 79262  1  0  0  0  0
 79263  1  0  0  0  0
 80 81  1  0  0  0  0
 80264  1  0  0  0  0
 80265  1  0  0  0  0
 81 82  1  0  0  0  0
 81266  1  0  0  0  0
 81267  1  0  0  0  0
 82 83  1  0  0  0  0
 82268  1  0  0  0  0
 82269  1  0  0  0  0
 83270  1  0  0  0  0
 83271  1  0  0  0  0
 84 85  1  0  0  0  0
 84272  1  0  0  0  0
 85 86  1  0  0  0  0
 85 87  2  0  0  0  0
 86273  1  0  0  0  0
 86274  1  0  0  0  0
 86275  1  0  0  0  0
 88 89  2  0  0  0  0
 88 90  1  0  0  0  0
 90276  1  0  0  0  0
 91 90  1  0  0  0  0
 91 92  1  0  0  0  0
 91 97  1  0  0  0  0
 91277  1  6  0  0  0
 92 93  1  0  0  0  0
 92278  1  0  0  0  0
 92279  1  0  0  0  0
 93 94  1  0  0  0  0
 93280  1  0  0  0  0
 93281  1  0  0  0  0
 94 95  1  0  0  0  0
 94 96  2  0  0  0  0
 95282  1  0  0  0  0
 97 98  2  0  0  0  0
 97 99  1  0  0  0  0
 99283  1  0  0  0  0
100 99  1  0  0  0  0
100101  1  0  0  0  0
100107  1  0  0  0  0
100284  1  1  0  0  0
101102  1  0  0  0  0
101285  1  0  0  0  0
101286  1  0  0  0  0
102103  2  0  0  0  0
102106  1  0  0  0  0
103104  1  0  0  0  0
103287  1  0  0  0  0
104105  1  0  0  0  0
104288  1  0  0  0  0
105106  2  0  0  0  0
105289  1  0  0  0  0
107108  2  0  0  0  0
107109  1  0  0  0  0
109290  1  0  0  0  0
110109  1  0  0  0  0
110111  1  0  0  0  0
110118  1  0  0  0  0
110291  1  6  0  0  0
111112  1  0  0  0  0
111292  1  0  0  0  0
111293  1  0  0  0  0
112113  2  0  0  0  0
112117  1  0  0  0  0
113114  1  0  0  0  0
113294  1  0  0  0  0
114115  2  0  0  0  0
114295  1  0  0  0  0
115116  1  0  0  0  0
115296  1  0  0  0  0
116117  2  0  0  0  0
116297  1  0  0  0  0
117298  1  0  0  0  0
118119  2  0  0  0  0
118120  1  0  0  0  0
120299  1  0  0  0  0
121120  1  0  0  0  0
121122  1  0  0  0  0
121129  1  0  0  0  0
121300  1  1  0  0  0
122123  1  0  0  0  0
122301  1  0  0  0  0
122302  1  0  0  0  0
123124  1  0  0  0  0
123303  1  0  0  0  0
123304  1  0  0  0  0
124125  1  0  0  0  0
124305  1  0  0  0  0
124306  1  0  0  0  0
125126  1  0  0  0  0
125307  1  0  0  0  0
126127  1  0  0  0  0
126128  2  0  0  0  0
127308  1  0  0  0  0
127309  1  0  0  0  0
128310  1  0  0  0  0
129130  2  0  0  0  0
129131  1  0  0  0  0
131311  1  0  0  0  0
132131  1  0  0  0  0
132133  1  0  0  0  0
132143  1  0  0  0  0
132312  1  1  0  0  0
133134  1  0  0  0  0
133313  1  0  0  0  0
133314  1  0  0  0  0
134135  2  0  0  0  0
134138  1  0  0  0  0
135136  1  0  0  0  0
135315  1  0  0  0  0
136137  1  0  0  0  0
136316  1  0  0  0  0
137138  2  0  0  0  0
137142  1  0  0  0  0
138139  1  0  0  0  0
139140  2  0  0  0  0
139317  1  0  0  0  0
140141  1  0  0  0  0
140318  1  0  0  0  0
141142  2  0  0  0  0
141319  1  0  0  0  0
142320  1  0  0  0  0
143144  2  0  0  0  0
143145  1  0  0  0  0
145146  1  0  0  0  0
145321  1  0  0  0  0
146147  1  0  0  0  0
146322  1  0  0  0  0
146323  1  0  0  0  0
147148  2  0  0  0  0
147149  1  0  0  0  0
149324  1  0  0  0  0
150149  1  0  0  0  0
150151  1  0  0  0  0
150156  1  0  0  0  0
150325  1  6  0  0  0
151152  1  0  0  0  0
151326  1  0  0  0  0
151327  1  0  0  0  0
152153  1  0  0  0  0
152328  1  0  0  0  0
152329  1  0  0  0  0
153154  1  0  0  0  0
153330  1  0  0  0  0
153331  1  0  0  0  0
154155  1  0  0  0  0
154332  1  0  0  0  0
154333  1  0  0  0  0
155334  1  0  0  0  0
155335  1  0  0  0  0
156157  2  0  0  0  0
156158  1  0  0  0  0
158159  1  0  0  0  0
159160  1  0  0  0  0
159336  1  0  0  0  0
159337  1  0  0  0  0
160161  1  0  0  0  0
160338  1  0  0  0  0
160339  1  0  0  0  0
161340  1  0  0  0  0
161341  1  0  0  0  0
162161  1  0  0  0  0
162158  1  0  0  0  0
162163  1  0  0  0  0
162342  1  1  0  0  0
163164  2  0  0  0  0
163165  1  0  0  0  0
165343  1  0  0  0  0
166165  1  0  0  0  0
166167  1  0  0  0  0
166170  1  0  0  0  0
166344  1  1  0  0  0
167168  1  0  0  0  0
167169  1  0  0  0  0
167345  1  0  0  0  0
168346  1  0  0  0  0
168347  1  0  0  0  0
168348  1  0  0  0  0
169349  1  0  0  0  0
169350  1  0  0  0  0
169351  1  0  0  0  0
170171  1  0  0  0  0
170172  2  0  0  0  0
171352  1  0  0  0  0
171353  1  0  0  0  0
M  END
>  <DRUGBANK_ID>
DB15314

>  <COMMON_NAME>
Modimelanotide

>  <CAS_NUMBER>
926277-68-1

>  <UNII>
96C1EBE9CG

>  <SYNONYMS>
Modimelanotide

$$$$
