
 OpenBabel10282417072D

 20 21  0  0  0  0  0  0  0  0999 V2000
   11.8227   -9.7454    0.0000 C   0  0  0  0  0  0  0  0  0  0  0  0
   10.9977   -9.7454    0.0000 C   0  0  0  0  0  0  0  0  0  0  0  0
   10.5852   -9.0309    0.0000 C   0  0  0  0  0  0  0  0  0  0  0  0
   10.9977   -8.3164    0.0000 C   0  0  0  0  0  0  0  0  0  0  0  0
   11.8227   -8.3164    0.0000 C   0  0  0  0  0  0  0  0  0  0  0  0
   12.2352   -9.0309    0.0000 C   0  0  0  0  0  0  0  0  0  0  0  0
   13.0421   -8.8594    0.0000 C   0  0  0  0  0  0  0  0  0  0  0  0
   13.1284   -8.0389    0.0000 C   0  0  0  0  0  0  0  0  0  0  0  0
   12.3747   -7.7033    0.0000 N   0  0  0  0  0  0  0  0  0  0  0  0
   13.6552   -9.4115    0.0000 C   0  0  0  0  0  0  0  0  0  0  0  0
   14.4399   -9.1565    0.0000 O   0  0  0  0  0  0  0  0  0  0  0  0
   12.3387  -10.6391    0.0000 H   0  0  0  0  0  0  0  0  0  0  0  0
   10.4817  -10.6391    0.0000 H   0  0  0  0  0  0  0  0  0  0  0  0
    9.5532   -9.0309    0.0000 H   0  0  0  0  0  0  0  0  0  0  0  0
   10.4817   -7.4227    0.0000 H   0  0  0  0  0  0  0  0  0  0  0  0
   14.0222   -7.5229    0.0000 H   0  0  0  0  0  0  0  0  0  0  0  0
   12.1700   -6.7403    0.0000 H   0  0  0  0  0  0  0  0  0  0  0  0
   13.4327  -10.4581    0.0000 H   0  0  0  0  0  0  0  0  0  0  0  0
   14.4504  -10.1275    0.0000 H   0  0  0  0  0  0  0  0  0  0  0  0
   15.1608   -9.8055    0.0000 H   0  0  0  0  0  0  0  0  0  0  0  0
  1 12  1  0  0  0  0
  2  1  1  0  0  0  0
  2 13  1  0  0  0  0
  3  2  2  0  0  0  0
  3 14  1  0  0  0  0
  4  3  1  0  0  0  0
  4 15  1  0  0  0  0
  5  4  2  0  0  0  0
  6  5  1  0  0  0  0
  6  1  2  0  0  0  0
  7  6  1  0  0  0  0
  8  7  2  0  0  0  0
  8 16  1  0  0  0  0
  9  8  1  0  0  0  0
  9  5  1  0  0  0  0
  9 17  1  0  0  0  0
 10  7  1  0  0  0  0
 10 18  1  0  0  0  0
 10 19  1  0  0  0  0
 11 10  1  0  0  0  0
 11 20  1  0  0  0  0
M  END
>  <DRUGBANK_ID>
DB12881

>  <COMMON_NAME>
Indole-3-carbinol

>  <CAS_NUMBER>
700-06-1

>  <UNII>
C11E72455F

$$$$
