5281613
 OpenBabel10282417072D

 75 79  0  0  1  0  0  0  0  0999 V2000
    9.5685    0.8328    0.0000 O   0  0  0  0  0  0  0  0  0  0  0  0
   11.7230   -2.0465    0.0000 O   0  0  0  0  0  0  0  0  0  0  0  0
   11.0038   -0.8118    0.0000 O   0  0  0  0  0  0  0  0  0  0  0  0
   11.7136    0.4285    0.0000 O   0  0  0  0  0  0  0  0  0  0  0  0
   11.7072    2.0785    0.0000 O   0  0  0  0  0  0  0  0  0  0  0  0
    8.8493    2.0675    0.0000 O   0  0  0  0  0  0  0  0  0  0  0  0
   10.2751    2.8980    0.0000 O   0  0  0  0  0  0  0  0  0  0  0  0
    9.5780   -1.6423    0.0000 O   0  0  0  0  0  0  0  0  0  0  0  0
    9.5845   -3.2923    0.0000 O   0  0  0  0  0  0  0  0  0  0  0  0
   11.0165   -4.1118    0.0000 O   0  0  0  0  0  0  0  0  0  0  0  0
    5.9369    2.0475    0.0000 O   0  0  0  0  0  0  0  0  0  0  0  0
    7.3794   -0.4560    0.0000 O   0  0  0  0  0  0  0  0  0  0  0  0
    5.9369   -0.4274    0.0000 O   0  0  0  0  0  0  0  0  0  0  0  0
    2.3645    3.2850    0.0000 O   0  0  0  0  0  0  0  0  0  0  0  0
    3.7935    4.1100    0.0000 O   0  0  0  0  0  0  0  0  0  0  0  0
   10.2846    0.4230    0.0000 C   0  0  1  0  0  0  0  0  0  0  0  0
   10.9974    0.8382    0.0000 C   0  0  2  0  0  0  0  0  0  0  0  0
   10.9943    1.6632    0.0000 C   0  0  1  0  0  0  0  0  0  0  0  0
   10.2782    2.0730    0.0000 C   0  0  2  0  0  0  0  0  0  0  0  0
   10.2941   -2.0520    0.0000 C   0  0  1  0  0  0  0  0  0  0  0  0
   11.0070   -1.6368    0.0000 C   0  0  1  0  0  0  0  0  0  0  0  0
   10.2973   -2.8771    0.0000 C   0  0  1  0  0  0  0  0  0  0  0  0
   11.0134   -3.2868    0.0000 C   0  0  2  0  0  0  0  0  0  0  0  0
    9.5653    1.6578    0.0000 C   0  0  1  0  0  0  0  0  0  0  0  0
   11.7263   -2.8715    0.0000 C   0  0  2  0  0  0  0  0  0  0  0  0
   10.2878   -0.4020    0.0000 C   0  0  0  0  0  0  0  0  0  0  0  0
   12.4423   -3.2813    0.0000 C   0  0  0  0  0  0  0  0  0  0  0  0
    8.1364    1.6522    0.0000 C   0  0  0  0  0  0  0  0  0  0  0  0
    7.3889    2.0761    0.0000 C   0  0  0  0  0  0  0  0  0  0  0  0
    8.1364    0.7928    0.0000 C   0  0  0  0  0  0  0  0  0  0  0  0
    6.6514    1.6350    0.0000 C   0  0  0  0  0  0  0  0  0  0  0  0
    7.3889    0.3689    0.0000 C   0  0  0  0  0  0  0  0  0  0  0  0
    6.6514    0.8101    0.0000 C   0  0  0  0  0  0  0  0  0  0  0  0
    5.9369    0.3976    0.0000 C   0  0  0  0  0  0  0  0  0  0  0  0
    5.2224    1.6350    0.0000 C   0  0  0  0  0  0  0  0  0  0  0  0
    5.2224    0.8101    0.0000 C   0  0  0  0  0  0  0  0  0  0  0  0
    4.5079    2.0475    0.0000 C   0  0  0  0  0  0  0  0  0  0  0  0
    4.5079    2.8725    0.0000 C   0  0  0  0  0  0  0  0  0  0  0  0
    3.7935    1.6350    0.0000 C   0  0  0  0  0  0  0  0  0  0  0  0
    3.7935    3.2850    0.0000 C   0  0  0  0  0  0  0  0  0  0  0  0
    3.0789    2.0475    0.0000 C   0  0  0  0  0  0  0  0  0  0  0  0
    3.0789    2.8725    0.0000 C   0  0  0  0  0  0  0  0  0  0  0  0
    1.6500    2.8725    0.0000 C   0  0  0  0  0  0  0  0  0  0  0  0
   11.7175   -0.5415    0.0000 H   0  0  0  0  0  0  0  0  0  0  0  0
   12.5491    1.5968    0.0000 H   0  0  0  0  0  0  0  0  0  0  0  0
   11.1133    3.3862    0.0000 H   0  0  0  0  0  0  0  0  0  0  0  0
    9.5742   -0.6723    0.0000 H   0  0  0  0  0  0  0  0  0  0  0  0
    8.7426   -2.8105    0.0000 H   0  0  0  0  0  0  0  0  0  0  0  0
   10.1783   -4.6000    0.0000 H   0  0  0  0  0  0  0  0  0  0  0  0
    6.5626   -0.9151    0.0000 H   0  0  0  0  0  0  0  0  0  0  0  0
    4.6050    4.5785    0.0000 H   0  0  0  0  0  0  0  0  0  0  0  0
    9.3600   -0.1156    0.0000 H   0  0  0  0  0  0  0  0  0  0  0  0
   11.0016   -0.2318    0.0000 H   0  0  0  0  0  0  0  0  0  0  0  0
   11.9230    1.1317    0.0000 H   0  0  0  0  0  0  0  0  0  0  0  0
   11.2028    2.6115    0.0000 H   0  0  0  0  0  0  0  0  0  0  0  0
   10.2900   -0.9820    0.0000 H   0  0  0  0  0  0  0  0  0  0  0  0
   11.9316   -1.0982    0.0000 H   0  0  0  0  0  0  0  0  0  0  0  0
    9.3686   -2.3457    0.0000 H   0  0  0  0  0  0  0  0  0  0  0  0
   10.0888   -3.8254    0.0000 H   0  0  0  0  0  0  0  0  0  0  0  0
    8.6407    1.1192    0.0000 H   0  0  0  0  0  0  0  0  0  0  0  0
   12.6509   -2.3329    0.0000 H   0  0  0  0  0  0  0  0  0  0  0  0
    9.3632   -0.9405    0.0000 H   0  0  0  0  0  0  0  0  0  0  0  0
    9.3591    0.1294    0.0000 H   0  0  0  0  0  0  0  0  0  0  0  0
   12.4463   -4.3513    0.0000 H   0  0  0  0  0  0  0  0  0  0  0  0
   13.3669   -2.7428    0.0000 H   0  0  0  0  0  0  0  0  0  0  0  0
   13.3710   -3.8128    0.0000 H   0  0  0  0  0  0  0  0  0  0  0  0
    7.3770    3.1080    0.0000 H   0  0  0  0  0  0  0  0  0  0  0  0
    9.0281    0.2733    0.0000 H   0  0  0  0  0  0  0  0  0  0  0  0
    4.3287    0.2941    0.0000 H   0  0  0  0  0  0  0  0  0  0  0  0
    5.4016    3.3885    0.0000 H   0  0  0  0  0  0  0  0  0  0  0  0
    3.7936    0.6030    0.0000 H   0  0  0  0  0  0  0  0  0  0  0  0
    2.1852    1.5315    0.0000 H   0  0  0  0  0  0  0  0  0  0  0  0
    0.7234    3.4075    0.0000 H   0  0  0  0  0  0  0  0  0  0  0  0
    1.6500    1.8025    0.0000 H   0  0  0  0  0  0  0  0  0  0  0  0
    0.7233    2.3375    0.0000 H   0  0  0  0  0  0  0  0  0  0  0  0
  1 16  1  0  0  0  0
  1 24  1  0  0  0  0
  2 21  1  0  0  0  0
  2 25  1  0  0  0  0
  3 26  1  0  0  0  0
  4 44  1  0  0  0  0
  5 45  1  0  0  0  0
  6 28  1  0  0  0  0
  7 46  1  0  0  0  0
  8 47  1  0  0  0  0
  9 48  1  0  0  0  0
 10 49  1  0  0  0  0
 11 31  1  0  0  0  0
 11 35  1  0  0  0  0
 12 32  1  0  0  0  0
 12 50  1  0  0  0  0
 13 34  2  0  0  0  0
 14 42  1  0  0  0  0
 14 43  1  0  0  0  0
 15 40  1  0  0  0  0
 15 51  1  0  0  0  0
 16 17  1  0  0  0  0
 16 26  1  0  0  0  0
 16 52  1  6  0  0  0
 17  4  1  0  0  0  0
 17 18  1  0  0  0  0
 17 53  1  1  0  0  0
 18  5  1  0  0  0  0
 18 19  1  0  0  0  0
 18 54  1  6  0  0  0
 19  7  1  0  0  0  0
 19 24  1  0  0  0  0
 19 55  1  1  0  0  0
 20  8  1  0  0  0  0
 20 21  1  0  0  0  0
 20 22  1  0  0  0  0
 20 56  1  6  0  0  0
 21  3  1  0  0  0  0
 21 57  1  1  0  0  0
 22  9  1  0  0  0  0
 22 23  1  0  0  0  0
 22 58  1  6  0  0  0
 23 10  1  0  0  0  0
 23 25  1  0  0  0  0
 23 59  1  1  0  0  0
 24  6  1  0  0  0  0
 24 60  1  6  0  0  0
 25 27  1  0  0  0  0
 25 61  1  6  0  0  0
 26 62  1  0  0  0  0
 26 63  1  0  0  0  0
 27 64  1  0  0  0  0
 27 65  1  0  0  0  0
 27 66  1  0  0  0  0
 28 29  1  0  0  0  0
 28 30  2  0  0  0  0
 29 31  2  0  0  0  0
 29 67  1  0  0  0  0
 30 32  1  0  0  0  0
 30 68  1  0  0  0  0
 31 33  1  0  0  0  0
 32 33  2  0  0  0  0
 33 34  1  0  0  0  0
 34 36  1  0  0  0  0
 35 36  2  0  0  0  0
 35 37  1  0  0  0  0
 36 69  1  0  0  0  0
 37 38  2  0  0  0  0
 37 39  1  0  0  0  0
 38 40  1  0  0  0  0
 38 70  1  0  0  0  0
 39 41  2  0  0  0  0
 39 71  1  0  0  0  0
 40 42  2  0  0  0  0
 41 42  1  0  0  0  0
 41 72  1  0  0  0  0
 43 73  1  0  0  0  0
 43 74  1  0  0  0  0
 43 75  1  0  0  0  0
M  END
>  <DRUGBANK_ID>
DB08995

>  <COMMON_NAME>
Diosmin

>  <CAS_NUMBER>
520-27-4

>  <UNII>
7QM776WJ5N

>  <SYNONYMS>
3',5,7-trihydroxy-4'-methoxyflavone 7-rhamnoglucoside; 3',5,7-trihydroxy-4'-methoxyflavone-7-rutinoside; diosmetin 7-neohesperidoside; Diosmetin 7-O-rutinoside; Diosmin; Diosmina; Diosmine; Diosminum

$$$$
