
 OpenBabel10282417072D

 54 56  0  0  1  0  0  0  0  0999 V2000
   -0.1434   -0.2174    0.0000 C   0  0  0  0  0  0  0  0  0  0  0  0
   -0.9677   -0.3968    0.0000 C   0  0  0  0  0  0  0  0  0  0  0  0
    0.4839   -0.7115    0.0000 C   0  0  0  0  0  0  0  0  0  0  0  0
    1.2022   -0.2902    0.0000 C   0  0  0  0  0  0  0  0  0  0  0  0
   -1.6029    0.1310    0.0000 C   0  0  0  0  0  0  0  0  0  0  0  0
    1.9252   -0.7115    0.0000 C   0  0  0  0  0  0  0  0  0  0  0  0
    0.2030    0.5215    0.0000 C   0  0  0  0  0  0  0  0  0  0  0  0
    0.4839   -1.5314    0.0000 C   0  0  0  0  0  0  0  0  0  0  0  0
   -1.6029    0.9430    0.0000 C   0  0  0  0  0  0  0  0  0  0  0  0
   -1.3194   -1.1334    0.0000 C   0  0  1  0  0  0  0  0  0  0  0  0
    1.9252   -1.5314    0.0000 C   0  0  0  0  0  0  0  0  0  0  0  0
   -0.1434    1.2867    0.0000 C   0  0  0  0  0  0  0  0  0  0  0  0
   -0.9468    1.4739    0.0000 C   0  0  0  0  0  0  0  0  0  0  0  0
    1.2022   -1.9531    0.0000 C   0  0  0  0  0  0  0  0  0  0  0  0
   -2.5473   -1.8356    0.0000 C   0  0  0  0  0  0  0  0  0  0  0  0
   -2.1390   -1.1334    0.0000 N   0  0  0  0  0  0  0  0  0  0  0  0
   -0.1434   -2.0545    0.0000 C   0  0  0  0  0  0  0  0  0  0  0  0
   -2.3575    1.2867    0.0000 O   0  0  0  0  0  0  0  0  0  0  0  0
   -0.9677   -1.8668    0.0000 C   0  0  0  0  0  0  0  0  0  0  0  0
   -3.3644   -1.8330    0.0000 O   0  0  0  0  0  0  0  0  0  0  0  0
    1.2022    0.5215    0.0000 O   0  0  0  0  0  0  0  0  0  0  0  0
    2.6383   -0.2902    0.0000 O   0  0  0  0  0  0  0  0  0  0  0  0
   -2.1468   -2.5460    0.0000 C   0  0  0  0  0  0  0  0  0  0  0  0
    2.7059   -1.8356    0.0000 O   0  0  0  0  0  0  0  0  0  0  0  0
   -1.1269    2.2859    0.0000 O   0  0  0  0  0  0  0  0  0  0  0  0
    1.9044    0.9430    0.0000 C   0  0  0  0  0  0  0  0  0  0  0  0
    3.3644   -0.7428    0.0000 C   0  0  0  0  0  0  0  0  0  0  0  0
    3.3644   -1.5626    0.0000 C   0  0  0  0  0  0  0  0  0  0  0  0
   -1.9123    2.5460    0.0000 C   0  0  0  0  0  0  0  0  0  0  0  0
   -2.5372   -0.3074    0.0000 H   0  0  0  0  0  0  0  0  0  0  0  0
    1.2350    0.5146    0.0000 H   0  0  0  0  0  0  0  0  0  0  0  0
   -1.8902   -0.2284    0.0000 H   0  0  0  0  0  0  0  0  0  0  0  0
    0.5114    2.0844    0.0000 H   0  0  0  0  0  0  0  0  0  0  0  0
    1.2007   -2.9851    0.0000 H   0  0  0  0  0  0  0  0  0  0  0  0
   -2.6299   -0.2800    0.0000 H   0  0  0  0  0  0  0  0  0  0  0  0
    0.1064   -3.0949    0.0000 H   0  0  0  0  0  0  0  0  0  0  0  0
   -0.8956   -2.8155    0.0000 H   0  0  0  0  0  0  0  0  0  0  0  0
   -1.6353   -2.7030    0.0000 H   0  0  0  0  0  0  0  0  0  0  0  0
   -0.6143   -2.8768    0.0000 H   0  0  0  0  0  0  0  0  0  0  0  0
   -2.6913   -3.4671    0.0000 H   0  0  0  0  0  0  0  0  0  0  0  0
   -1.0769   -2.5570    0.0000 H   0  0  0  0  0  0  0  0  0  0  0  0
   -1.6213   -3.4781    0.0000 H   0  0  0  0  0  0  0  0  0  0  0  0
    2.8400    0.4238    0.0000 H   0  0  0  0  0  0  0  0  0  0  0  0
    1.8862    2.0128    0.0000 H   0  0  0  0  0  0  0  0  0  0  0  0
    2.8218    1.4937    0.0000 H   0  0  0  0  0  0  0  0  0  0  0  0
    3.3282   -1.8122    0.0000 H   0  0  0  0  0  0  0  0  0  0  0  0
    4.3086   -0.2394    0.0000 H   0  0  0  0  0  0  0  0  0  0  0  0
    4.2724   -1.3088    0.0000 H   0  0  0  0  0  0  0  0  0  0  0  0
    4.2135   -2.2137    0.0000 H   0  0  0  0  0  0  0  0  0  0  0  0
    3.5037   -0.5017    0.0000 H   0  0  0  0  0  0  0  0  0  0  0  0
    4.3528   -1.1528    0.0000 H   0  0  0  0  0  0  0  0  0  0  0  0
   -2.1289    3.5939    0.0000 H   0  0  0  0  0  0  0  0  0  0  0  0
   -2.7115    1.8345    0.0000 H   0  0  0  0  0  0  0  0  0  0  0  0
   -2.9280    2.8824    0.0000 H   0  0  0  0  0  0  0  0  0  0  0  0
  2  1  1  0  0  0  0
  3  1  1  0  0  0  0
  4  3  1  0  0  0  0
  5  2  2  0  0  0  0
  5 30  1  0  0  0  0
  6  4  2  0  0  0  0
  6 11  1  0  0  0  0
  7  1  2  0  0  0  0
  7 31  1  0  0  0  0
  8  3  2  0  0  0  0
  9  5  1  0  0  0  0
 10  2  1  0  0  0  0
 10 16  1  0  0  0  0
 10 32  1  1  0  0  0
 11 14  2  0  0  0  0
 12  7  1  0  0  0  0
 12 33  1  0  0  0  0
 13 12  2  0  0  0  0
 13  9  1  0  0  0  0
 14  8  1  0  0  0  0
 14 34  1  0  0  0  0
 15 16  1  0  0  0  0
 16 35  1  0  0  0  0
 17  8  1  0  0  0  0
 17 36  1  0  0  0  0
 17 37  1  0  0  0  0
 18  9  2  0  0  0  0
 19 10  1  0  0  0  0
 19 17  1  0  0  0  0
 19 38  1  0  0  0  0
 19 39  1  0  0  0  0
 20 15  2  0  0  0  0
 21  4  1  0  0  0  0
 22  6  1  0  0  0  0
 23 15  1  0  0  0  0
 23 40  1  0  0  0  0
 23 41  1  0  0  0  0
 23 42  1  0  0  0  0
 24 11  1  0  0  0  0
 25 13  1  0  0  0  0
 26 21  1  0  0  0  0
 26 43  1  0  0  0  0
 26 44  1  0  0  0  0
 26 45  1  0  0  0  0
 27 22  1  0  0  0  0
 27 46  1  0  0  0  0
 27 47  1  0  0  0  0
 27 48  1  0  0  0  0
 28 24  1  0  0  0  0
 28 49  1  0  0  0  0
 28 50  1  0  0  0  0
 28 51  1  0  0  0  0
 29 25  1  0  0  0  0
 29 52  1  0  0  0  0
 29 53  1  0  0  0  0
 29 54  1  0  0  0  0
M  END
>  <DRUGBANK_ID>
DB01394

>  <COMMON_NAME>
Colchicine

>  <CAS_NUMBER>
64-86-8

>  <UNII>
SML2Y3J35T

>  <SYNONYMS>
Colchicin; Colchicina; Colchicine; Colchicinum

$$$$
