609
 OpenBabel10282417072D

 21 21  0  0  0  0  0  0  0  0999 V2000
    2.3644    1.6005    0.0000 S   0  0  0  0  0  0  0  0  0  0  0  0
    3.0790   -1.2870    0.0000 N   0  0  0  0  0  0  0  0  0  0  0  0
    3.7934    1.6005    0.0000 N   0  0  0  0  0  0  0  0  0  0  0  0
    1.6500   -1.2870    0.0000 C   0  0  0  0  0  0  0  0  0  0  0  0
    2.3644   -0.8745    0.0000 C   0  0  0  0  0  0  0  0  0  0  0  0
    2.3644   -0.0495    0.0000 C   0  0  0  0  0  0  0  0  0  0  0  0
    3.0790    0.3630    0.0000 C   0  0  0  0  0  0  0  0  0  0  0  0
    1.6500   -2.1120    0.0000 C   0  0  0  0  0  0  0  0  0  0  0  0
    3.7934   -0.0495    0.0000 C   0  0  0  0  0  0  0  0  0  0  0  0
    3.7934   -0.8745    0.0000 C   0  0  0  0  0  0  0  0  0  0  0  0
    3.0790    1.1880    0.0000 C   0  0  0  0  0  0  0  0  0  0  0  0
    4.6460    1.1083    0.0000 H   0  0  0  0  0  0  0  0  0  0  0  0
    3.7934    2.5850    0.0000 H   0  0  0  0  0  0  0  0  0  0  0  0
    0.7233   -0.7520    0.0000 H   0  0  0  0  0  0  0  0  0  0  0  0
    0.7234   -1.8220    0.0000 H   0  0  0  0  0  0  0  0  0  0  0  0
    1.4707    0.4665    0.0000 H   0  0  0  0  0  0  0  0  0  0  0  0
    0.7234   -2.6470    0.0000 H   0  0  0  0  0  0  0  0  0  0  0  0
    2.5766   -2.6470    0.0000 H   0  0  0  0  0  0  0  0  0  0  0  0
    1.6500   -3.1820    0.0000 H   0  0  0  0  0  0  0  0  0  0  0  0
    4.6871    0.4665    0.0000 H   0  0  0  0  0  0  0  0  0  0  0  0
    4.6871   -1.3905    0.0000 H   0  0  0  0  0  0  0  0  0  0  0  0
  1 11  2  0  0  0  0
  2  5  2  0  0  0  0
  2 10  1  0  0  0  0
  3 11  1  0  0  0  0
  3 12  1  0  0  0  0
  3 13  1  0  0  0  0
  4  5  1  0  0  0  0
  4  8  1  0  0  0  0
  4 14  1  0  0  0  0
  4 15  1  0  0  0  0
  5  6  1  0  0  0  0
  6  7  2  0  0  0  0
  6 16  1  0  0  0  0
  7  9  1  0  0  0  0
  7 11  1  0  0  0  0
  8 17  1  0  0  0  0
  8 18  1  0  0  0  0
  8 19  1  0  0  0  0
  9 10  2  0  0  0  0
  9 20  1  0  0  0  0
 10 21  1  0  0  0  0
M  END
>  <DRUGBANK_ID>
DB00609

>  <SECONDARY_ACCESSION_NUMBERS>
APRD00961

>  <COMMON_NAME>
Ethionamide

>  <CAS_NUMBER>
536-33-4

>  <UNII>
OAY8ORS3CQ

>  <SYNONYMS>
2-ethyl-4-thiopyridylamide; 2-ethylthioisonicotinamide; ETH; Ethinamide; Ethionamide; Ethionamidum; Ethioniamide; Ethylisothiamide; Ethyonomide; Etionamid; Etionamida; Etionamide; Etioniamid; ETP

$$$$
