848
 OpenBabel10282417072D

 26 28  0  0  1  0  0  0  0  0999 V2000
    6.1753   -0.6639    0.0000 S   0  0  0  0  0  0  0  0  0  0  0  0
    5.3946    0.4125    0.0000 N   0  0  0  0  0  0  0  0  0  0  0  0
    4.6100   -0.6674    0.0000 N   0  0  0  0  0  0  0  0  0  0  0  0
    4.6100    0.6674    0.0000 C   0  0  0  0  0  0  0  0  0  0  0  0
    4.1251    0.0000    0.0000 C   0  0  2  0  0  0  0  0  0  0  0  0
    6.1753    0.6639    0.0000 C   0  0  0  0  0  0  0  0  0  0  0  0
    5.3946   -0.4125    0.0000 C   0  0  0  0  0  0  0  0  0  0  0  0
    6.6568    0.0000    0.0000 C   0  0  0  0  0  0  0  0  0  0  0  0
    3.3001    0.0000    0.0000 C   0  0  0  0  0  0  0  0  0  0  0  0
    2.8876   -0.7145    0.0000 C   0  0  0  0  0  0  0  0  0  0  0  0
    2.8876    0.7145    0.0000 C   0  0  0  0  0  0  0  0  0  0  0  0
    2.0625   -0.7145    0.0000 C   0  0  0  0  0  0  0  0  0  0  0  0
    2.0625    0.7145    0.0000 C   0  0  0  0  0  0  0  0  0  0  0  0
    1.6500    0.0000    0.0000 C   0  0  0  0  0  0  0  0  0  0  0  0
    4.2793    1.6850    0.0000 H   0  0  0  0  0  0  0  0  0  0  0  0
    3.5532    0.8348    0.0000 H   0  0  0  0  0  0  0  0  0  0  0  0
    3.6393   -0.9534    0.0000 H   0  0  0  0  0  0  0  0  0  0  0  0
    6.5077    1.6810    0.0000 H   0  0  0  0  0  0  0  0  0  0  0  0
    7.2323    0.8299    0.0000 H   0  0  0  0  0  0  0  0  0  0  0  0
    7.7268    0.0000    0.0000 H   0  0  0  0  0  0  0  0  0  0  0  0
    7.1430    0.9532    0.0000 H   0  0  0  0  0  0  0  0  0  0  0  0
    3.4036   -1.6082    0.0000 H   0  0  0  0  0  0  0  0  0  0  0  0
    3.4036    1.6082    0.0000 H   0  0  0  0  0  0  0  0  0  0  0  0
    1.5465   -1.6082    0.0000 H   0  0  0  0  0  0  0  0  0  0  0  0
    1.5465    1.6082    0.0000 H   0  0  0  0  0  0  0  0  0  0  0  0
    0.6180    0.0000    0.0000 H   0  0  0  0  0  0  0  0  0  0  0  0
  1  7  1  0  0  0  0
  1  8  1  0  0  0  0
  2  4  1  0  0  0  0
  2  6  1  0  0  0  0
  2  7  1  0  0  0  0
  3  5  1  0  0  0  0
  3  7  2  0  0  0  0
  4  5  1  0  0  0  0
  4 15  1  0  0  0  0
  4 16  1  0  0  0  0
  5  9  1  0  0  0  0
  5 17  1  6  0  0  0
  6  8  1  0  0  0  0
  6 18  1  0  0  0  0
  6 19  1  0  0  0  0
  8 20  1  0  0  0  0
  8 21  1  0  0  0  0
  9 10  2  0  0  0  0
  9 11  1  0  0  0  0
 10 12  1  0  0  0  0
 10 22  1  0  0  0  0
 11 13  2  0  0  0  0
 11 23  1  0  0  0  0
 12 14  2  0  0  0  0
 12 24  1  0  0  0  0
 13 14  1  0  0  0  0
 13 25  1  0  0  0  0
 14 26  1  0  0  0  0
M  END
>  <DRUGBANK_ID>
DB00848

>  <SECONDARY_ACCESSION_NUMBERS>
APRD01067

>  <COMMON_NAME>
Levamisole

>  <CAS_NUMBER>
14769-73-4

>  <UNII>
2880D3468G

>  <SYNONYMS>
Levamisol; Levamisole; Levamisolum

$$$$
