NAB
 OpenBabel10282417072D

 34 36  0  0  0  0  0  0  0  0999 V2000
   -1.0835   -1.4462    0.0000 C   0  0  0  0  0  0  0  0  0  0  0  0
   -0.3690   -1.8587    0.0000 C   0  0  0  0  0  0  0  0  0  0  0  0
   -0.3690   -2.6837    0.0000 C   0  0  0  0  0  0  0  0  0  0  0  0
   -1.0835   -3.0962    0.0000 C   0  0  0  0  0  0  0  0  0  0  0  0
   -1.7980   -2.6837    0.0000 C   0  0  0  0  0  0  0  0  0  0  0  0
   -1.7980   -1.8587    0.0000 C   0  0  0  0  0  0  0  0  0  0  0  0
   -0.3690    0.6163    0.0000 C   0  0  0  0  0  0  0  0  0  0  0  0
   -1.0835    1.0288    0.0000 C   0  0  0  0  0  0  0  0  0  0  0  0
   -1.0835    1.8538    0.0000 C   0  0  0  0  0  0  0  0  0  0  0  0
   -0.3690    2.2663    0.0000 C   0  0  0  0  0  0  0  0  0  0  0  0
    0.3455    1.8538    0.0000 C   0  0  0  0  0  0  0  0  0  0  0  0
    1.0599    2.2663    0.0000 C   0  0  0  0  0  0  0  0  0  0  0  0
    1.7744    1.8538    0.0000 C   0  0  0  0  0  0  0  0  0  0  0  0
    1.7744    1.0288    0.0000 C   0  0  0  0  0  0  0  0  0  0  0  0
    1.0599    0.6163    0.0000 C   0  0  0  0  0  0  0  0  0  0  0  0
    0.3455    1.0288    0.0000 C   0  0  0  0  0  0  0  0  0  0  0  0
    0.3455   -1.4462    0.0000 C   0  0  0  0  0  0  0  0  0  0  0  0
   -1.0835   -0.6212    0.0000 N   0  0  0  0  0  0  0  0  0  0  0  0
   -0.3690   -0.2087    0.0000 N   0  0  0  0  0  0  0  0  0  0  0  0
    1.0599   -1.8587    0.0000 O   0  0  0  0  0  0  0  0  0  0  0  0
    0.3455   -0.6212    0.0000 O   0  0  0  0  0  0  0  0  0  0  0  0
   -0.3690    3.0913    0.0000 O   0  0  0  0  0  0  0  0  0  0  0  0
    0.5247   -3.1997    0.0000 H   0  0  0  0  0  0  0  0  0  0  0  0
   -1.0835   -4.1282    0.0000 H   0  0  0  0  0  0  0  0  0  0  0  0
   -2.6917   -3.1997    0.0000 H   0  0  0  0  0  0  0  0  0  0  0  0
   -2.6917   -1.3427    0.0000 H   0  0  0  0  0  0  0  0  0  0  0  0
   -1.9772    0.5128    0.0000 H   0  0  0  0  0  0  0  0  0  0  0  0
   -1.9772    2.3698    0.0000 H   0  0  0  0  0  0  0  0  0  0  0  0
    1.0599    3.2983    0.0000 H   0  0  0  0  0  0  0  0  0  0  0  0
    2.6681    2.3698    0.0000 H   0  0  0  0  0  0  0  0  0  0  0  0
    2.6681    0.5128    0.0000 H   0  0  0  0  0  0  0  0  0  0  0  0
    1.0599   -0.4157    0.0000 H   0  0  0  0  0  0  0  0  0  0  0  0
    1.1570   -0.1527    0.0000 H   0  0  0  0  0  0  0  0  0  0  0  0
    0.4425    3.5598    0.0000 H   0  0  0  0  0  0  0  0  0  0  0  0
  1  2  1  0  0  0  0
  1  6  2  0  0  0  0
  1 18  1  0  0  0  0
  2  3  2  0  0  0  0
  2 17  1  0  0  0  0
  3  4  1  0  0  0  0
  3 23  1  0  0  0  0
  4  5  2  0  0  0  0
  4 24  1  0  0  0  0
  5  6  1  0  0  0  0
  5 25  1  0  0  0  0
  6 26  1  0  0  0  0
  7  8  1  0  0  0  0
  7 16  2  0  0  0  0
  7 19  1  0  0  0  0
  8  9  2  0  0  0  0
  8 27  1  0  0  0  0
  9 10  1  0  0  0  0
  9 28  1  0  0  0  0
 10 11  2  0  0  0  0
 10 22  1  0  0  0  0
 11 12  1  0  0  0  0
 11 16  1  0  0  0  0
 12 13  2  0  0  0  0
 12 29  1  0  0  0  0
 13 14  1  0  0  0  0
 13 30  1  0  0  0  0
 14 15  2  0  0  0  0
 14 31  1  0  0  0  0
 15 16  1  0  0  0  0
 15 32  1  0  0  0  0
 17 20  2  0  0  0  0
 17 21  1  0  0  0  0
 18 19  2  0  0  0  0
 21 33  1  0  0  0  0
 22 34  1  0  0  0  0
M  END
>  <DRUGBANK_ID>
DB08252

>  <COMMON_NAME>
2-((4'-HYDROXYNAPHTHYL)-AZO)BENZOIC ACID

$$$$
