4NA
 OpenBabel10282417072D

 30 32  0  0  0  0  0  0  0  0999 V2000
   -2.1972   -1.0366    0.0000 C   0  0  0  0  0  0  0  0  0  0  0  0
   -1.4828   -1.4491    0.0000 C   0  0  0  0  0  0  0  0  0  0  0  0
   -0.7683   -1.0366    0.0000 C   0  0  0  0  0  0  0  0  0  0  0  0
   -0.7683   -0.2116    0.0000 C   0  0  0  0  0  0  0  0  0  0  0  0
   -1.4828    0.2009    0.0000 C   0  0  0  0  0  0  0  0  0  0  0  0
   -2.1972   -0.2116    0.0000 C   0  0  0  0  0  0  0  0  0  0  0  0
   -0.0538   -1.4491    0.0000 C   0  0  0  0  0  0  0  0  0  0  0  0
    0.6606   -1.0366    0.0000 C   0  0  0  0  0  0  0  0  0  0  0  0
    0.6606   -0.2116    0.0000 C   0  0  0  0  0  0  0  0  0  0  0  0
   -0.0538    0.2009    0.0000 C   0  0  0  0  0  0  0  0  0  0  0  0
    1.3751    0.2009    0.0000 C   0  0  0  0  0  0  0  0  0  0  0  0
    1.3751    1.0259    0.0000 C   0  0  0  0  0  0  0  0  0  0  0  0
    2.0896    1.4384    0.0000 C   0  0  0  0  0  0  0  0  0  0  0  0
    2.8040    1.0259    0.0000 C   0  0  0  0  0  0  0  0  0  0  0  0
    2.8040    0.2009    0.0000 C   0  0  0  0  0  0  0  0  0  0  0  0
    2.0896   -0.2116    0.0000 C   0  0  0  0  0  0  0  0  0  0  0  0
    3.5185    1.4384    0.0000 O   0  0  0  0  0  0  0  0  0  0  0  0
   -1.4828   -2.2741    0.0000 Cl  0  0  0  0  0  0  0  0  0  0  0  0
   -2.9117   -1.4491    0.0000 O   0  0  0  0  0  0  0  0  0  0  0  0
   -1.4828    1.2329    0.0000 H   0  0  0  0  0  0  0  0  0  0  0  0
   -3.0909    0.3044    0.0000 H   0  0  0  0  0  0  0  0  0  0  0  0
   -0.0538   -2.4811    0.0000 H   0  0  0  0  0  0  0  0  0  0  0  0
    1.5543   -1.5526    0.0000 H   0  0  0  0  0  0  0  0  0  0  0  0
   -0.0538    1.2329    0.0000 H   0  0  0  0  0  0  0  0  0  0  0  0
    0.4814    1.5419    0.0000 H   0  0  0  0  0  0  0  0  0  0  0  0
    2.0896    2.4704    0.0000 H   0  0  0  0  0  0  0  0  0  0  0  0
    3.6977   -0.3151    0.0000 H   0  0  0  0  0  0  0  0  0  0  0  0
    2.0896   -1.2436    0.0000 H   0  0  0  0  0  0  0  0  0  0  0  0
    4.3300    0.9699    0.0000 H   0  0  0  0  0  0  0  0  0  0  0  0
   -3.7232   -0.9806    0.0000 H   0  0  0  0  0  0  0  0  0  0  0  0
  1  2  2  0  0  0  0
  1  6  1  0  0  0  0
  1 19  1  0  0  0  0
  2  3  1  0  0  0  0
  2 18  1  0  0  0  0
  3  4  1  0  0  0  0
  3  7  2  0  0  0  0
  4  5  1  0  0  0  0
  4 10  2  0  0  0  0
  5  6  2  0  0  0  0
  5 20  1  0  0  0  0
  6 21  1  0  0  0  0
  7  8  1  0  0  0  0
  7 22  1  0  0  0  0
  8  9  2  0  0  0  0
  8 23  1  0  0  0  0
  9 10  1  0  0  0  0
  9 11  1  0  0  0  0
 10 24  1  0  0  0  0
 11 12  1  0  0  0  0
 11 16  2  0  0  0  0
 12 13  2  0  0  0  0
 12 25  1  0  0  0  0
 13 14  1  0  0  0  0
 13 26  1  0  0  0  0
 14 15  2  0  0  0  0
 14 17  1  0  0  0  0
 15 16  1  0  0  0  0
 15 27  1  0  0  0  0
 16 28  1  0  0  0  0
 17 29  1  0  0  0  0
 19 30  1  0  0  0  0
M  END
>  <DRUGBANK_ID>
DB07119

>  <COMMON_NAME>
1-CHLORO-6-(4-HYDROXYPHENYL)-2-NAPHTHOL

$$$$
