RS1
 OpenBabel10282417072D

 48 50  0  0  0  0  0  0  0  0999 V2000
    3.2147   -0.2481    0.0000 C   0  0  0  0  0  0  0  0  0  0  0  0
    3.9292   -0.6606    0.0000 C   0  0  0  0  0  0  0  0  0  0  0  0
    3.9292   -1.4856    0.0000 C   0  0  0  0  0  0  0  0  0  0  0  0
    3.2147   -1.8981    0.0000 C   0  0  0  0  0  0  0  0  0  0  0  0
    2.5003   -1.4856    0.0000 C   0  0  0  0  0  0  0  0  0  0  0  0
    2.5003   -0.6606    0.0000 C   0  0  0  0  0  0  0  0  0  0  0  0
    1.7858   -1.8981    0.0000 O   0  0  0  0  0  0  0  0  0  0  0  0
    1.0713   -1.4856    0.0000 C   0  0  0  0  0  0  0  0  0  0  0  0
    0.3569   -1.8981    0.0000 C   0  0  0  0  0  0  0  0  0  0  0  0
   -0.3576   -1.4856    0.0000 C   0  0  0  0  0  0  0  0  0  0  0  0
   -0.3576   -0.6606    0.0000 C   0  0  0  0  0  0  0  0  0  0  0  0
    0.3569   -0.2481    0.0000 C   0  0  0  0  0  0  0  0  0  0  0  0
    1.0713   -0.6606    0.0000 C   0  0  0  0  0  0  0  0  0  0  0  0
   -1.0721   -0.2481    0.0000 S   0  0  0  0  0  0  0  0  0  0  0  0
   -1.4846   -0.9626    0.0000 O   0  0  0  0  0  0  0  0  0  0  0  0
   -0.6596    0.4664    0.0000 O   0  0  0  0  0  0  0  0  0  0  0  0
   -1.7866    0.1644    0.0000 C   0  0  0  0  0  0  0  0  0  0  0  0
   -1.7866    0.9894    0.0000 C   0  0  0  0  0  0  0  0  0  0  0  0
   -2.0687    1.7646    0.0000 C   0  0  0  0  0  0  0  0  0  0  0  0
   -1.5384    2.3966    0.0000 C   0  0  0  0  0  0  0  0  0  0  0  0
   -0.7260    2.2534    0.0000 O   0  0  0  0  0  0  0  0  0  0  0  0
   -0.4438    1.4781    0.0000 C   0  0  0  0  0  0  0  0  0  0  0  0
   -0.9741    0.8461    0.0000 C   0  0  0  0  0  0  0  0  0  0  0  0
   -2.5990    0.8461    0.0000 C   0  0  0  0  0  0  0  0  0  0  0  0
   -2.8812    0.0709    0.0000 N   0  0  0  0  0  0  0  0  0  0  0  0
   -3.1293    1.4781    0.0000 O   0  0  0  0  0  0  0  0  0  0  0  0
   -3.6937   -0.0724    0.0000 O   0  0  0  0  0  0  0  0  0  0  0  0
    4.6437   -0.2481    0.0000 Cl  0  0  0  0  0  0  0  0  0  0  0  0
    3.2147    0.7839    0.0000 H   0  0  0  0  0  0  0  0  0  0  0  0
    4.8229   -2.0016    0.0000 H   0  0  0  0  0  0  0  0  0  0  0  0
    3.2147   -2.9301    0.0000 H   0  0  0  0  0  0  0  0  0  0  0  0
    1.6066   -0.1446    0.0000 H   0  0  0  0  0  0  0  0  0  0  0  0
    0.3569   -2.9301    0.0000 H   0  0  0  0  0  0  0  0  0  0  0  0
   -1.2513   -2.0016    0.0000 H   0  0  0  0  0  0  0  0  0  0  0  0
    0.3569    0.7839    0.0000 H   0  0  0  0  0  0  0  0  0  0  0  0
    1.9650   -0.1446    0.0000 H   0  0  0  0  0  0  0  0  0  0  0  0
   -2.7132   -0.3706    0.0000 H   0  0  0  0  0  0  0  0  0  0  0  0
   -2.7132    0.6994    0.0000 H   0  0  0  0  0  0  0  0  0  0  0  0
   -3.1224    1.9504    0.0000 H   0  0  0  0  0  0  0  0  0  0  0  0
   -2.4347    2.7701    0.0000 H   0  0  0  0  0  0  0  0  0  0  0  0
   -1.9044    3.4021    0.0000 H   0  0  0  0  0  0  0  0  0  0  0  0
   -0.8507    3.2163    0.0000 H   0  0  0  0  0  0  0  0  0  0  0  0
    0.6099    1.2923    0.0000 H   0  0  0  0  0  0  0  0  0  0  0  0
   -0.0778    0.4726    0.0000 H   0  0  0  0  0  0  0  0  0  0  0  0
   -0.6082   -0.1594    0.0000 H   0  0  0  0  0  0  0  0  0  0  0  0
    0.0796    0.6603    0.0000 H   0  0  0  0  0  0  0  0  0  0  0  0
   -2.2484   -0.6833    0.0000 H   0  0  0  0  0  0  0  0  0  0  0  0
   -4.3172    0.6706    0.0000 H   0  0  0  0  0  0  0  0  0  0  0  0
  1  2  2  0  0  0  0
  1  6  1  0  0  0  0
  1 29  1  0  0  0  0
  2  3  1  0  0  0  0
  2 28  1  0  0  0  0
  3  4  2  0  0  0  0
  3 30  1  0  0  0  0
  4  5  1  0  0  0  0
  4 31  1  0  0  0  0
  5  6  2  0  0  0  0
  5  7  1  0  0  0  0
  6 32  1  0  0  0  0
  7  8  1  0  0  0  0
  8  9  2  0  0  0  0
  8 13  1  0  0  0  0
  9 10  1  0  0  0  0
  9 33  1  0  0  0  0
 10 11  2  0  0  0  0
 10 34  1  0  0  0  0
 11 12  1  0  0  0  0
 11 14  1  0  0  0  0
 12 13  2  0  0  0  0
 12 35  1  0  0  0  0
 13 36  1  0  0  0  0
 14 15  2  0  0  0  0
 14 16  2  0  0  0  0
 14 17  1  0  0  0  0
 17 18  1  0  0  0  0
 17 37  1  0  0  0  0
 17 38  1  0  0  0  0
 18 19  1  0  0  0  0
 18 23  1  0  0  0  0
 18 24  1  0  0  0  0
 19 20  1  0  0  0  0
 19 39  1  0  0  0  0
 19 40  1  0  0  0  0
 20 21  1  0  0  0  0
 20 41  1  0  0  0  0
 20 42  1  0  0  0  0
 21 22  1  0  0  0  0
 22 23  1  0  0  0  0
 22 43  1  0  0  0  0
 22 44  1  0  0  0  0
 23 45  1  0  0  0  0
 23 46  1  0  0  0  0
 24 25  1  0  0  0  0
 24 26  2  0  0  0  0
 25 27  1  0  0  0  0
 25 47  1  0  0  0  0
 27 48  1  0  0  0  0
M  END
>  <DRUGBANK_ID>
DB08490

>  <SECONDARY_ACCESSION_NUMBERS>
DB12372

>  <COMMON_NAME>
CTS-1027

>  <CAS_NUMBER>
193022-04-7

>  <UNII>
2QD3F58224

>  <SYNONYMS>
2H-PYRAN-4-CARBOXAMIDE, 4-(((4-(4-CHLOROPHENOXY)PHENYL)SULFONYL)METHYL)TETRAHYDRO-N-HYDROXY-; 4-(((4-(4-CHLOROPHENOXY)PHENYL)SULFONYL)-METHYL) TETRAHYDRO-N-HYDROXY-2H-PYRAN-4-CARBOXAMIDE; 4-(4-(4-CHLORO-PHENOXY)-BENZENESULFONYLMETHYL )-TETRAHYDRO-PYRAN-4-CARBOXYLIC ACID HYDROXYAMIDE; 4-(4-(4-CHLORO-PHENOXY)-BENZENESULFONYLMETHYL)-TETRAHYDRO-PYRAN-4-CARBOXYLIC ACID HYDROXYAMIDE; 4-[[[4-(4-Chlorophenoxy)phenyl]sulfonyl]-methyl] tetrahydro-N-hydroxy-2H-pyran-4-carboxamide

$$$$
