
 OpenBabel10282417072D

  9  0  0  0  0  0  0  0  0  0999 V2000
    0.0000    0.0000    0.0000 S   0  6  0  0  0  0  0  0  0  0  0  0
    1.1196    0.0000    0.0000 S   0  6  0  0  0  0  0  0  0  0  0  0
    2.2393    0.0000    0.0000 S   0  6  0  0  0  0  0  0  0  0  0  0
    0.0000   -1.6500    0.0000 S   0  6  0  0  0  0  0  0  0  0  0  0
    1.1196   -1.6500    0.0000 S   0  6  0  0  0  0  0  0  0  0  0  0
    2.2393   -1.6500    0.0000 S   0  6  0  0  0  0  0  0  0  0  0  0
    0.0000   -3.3000    0.0000 S   0  6  0  0  0  0  0  0  0  0  0  0
    2.5929   -3.3000    0.0000 Re  0  0  0  0  0  0  0  0  0  0  0  0
    5.1857   -3.3000    0.0000 Re  0  0  0  0  0  0  0  0  0  0  0  0
M  ISO  2   8 186   9 186
M  CHG  7   1  -2   2  -2   3  -2   4  -2   5  -2   6  -2   7  -2
M  END
>  <DRUGBANK_ID>
DB13847

>  <COMMON_NAME>
Rhenium Re-186 sulfide

>  <UNII>
9OT21X1WE1

>  <SYNONYMS>
Rhenium (186Re) sulfide colloid

$$$$
