1478
 OpenBabel10282417072D

 39 40  0  0  0  0  0  0  0  0999 V2000
    3.7126    0.8803    0.0000 O   0  0  0  0  0  0  0  0  0  0  0  0
    2.4751    0.1658    0.0000 O   0  0  0  0  0  0  0  0  0  0  0  0
    4.1251   -1.4842    0.0000 N   0  0  0  0  0  0  0  0  0  0  0  0
    4.1251    0.1658    0.0000 C   0  0  0  0  0  0  0  0  0  0  0  0
    4.8396   -0.2467    0.0000 C   0  0  0  0  0  0  0  0  0  0  0  0
    3.4106   -0.2467    0.0000 C   0  0  0  0  0  0  0  0  0  0  0  0
    4.8396   -1.0717    0.0000 C   0  0  0  0  0  0  0  0  0  0  0  0
    3.4106   -1.0717    0.0000 C   0  0  0  0  0  0  0  0  0  0  0  0
    4.5376    0.8803    0.0000 C   0  0  0  0  0  0  0  0  0  0  0  0
    4.1251   -2.3092    0.0000 C   0  0  0  0  0  0  0  0  0  0  0  0
    4.1251    1.5948    0.0000 C   0  0  0  0  0  0  0  0  0  0  0  0
    5.3626    0.8803    0.0000 C   0  0  0  0  0  0  0  0  0  0  0  0
    2.8876    0.8803    0.0000 C   0  0  0  0  0  0  0  0  0  0  0  0
    4.5376    2.3092    0.0000 C   0  0  0  0  0  0  0  0  0  0  0  0
    5.7751    1.5948    0.0000 C   0  0  0  0  0  0  0  0  0  0  0  0
    2.4751    1.5948    0.0000 C   0  0  0  0  0  0  0  0  0  0  0  0
    5.3626    2.3092    0.0000 C   0  0  0  0  0  0  0  0  0  0  0  0
    1.6500    1.5948    0.0000 C   0  0  0  0  0  0  0  0  0  0  0  0
    5.7662    0.2883    0.0000 H   0  0  0  0  0  0  0  0  0  0  0  0
    5.7662   -0.7817    0.0000 H   0  0  0  0  0  0  0  0  0  0  0  0
    2.4840    0.2883    0.0000 H   0  0  0  0  0  0  0  0  0  0  0  0
    2.4840   -0.7817    0.0000 H   0  0  0  0  0  0  0  0  0  0  0  0
    5.7662   -1.6067    0.0000 H   0  0  0  0  0  0  0  0  0  0  0  0
    5.7662   -0.5367    0.0000 H   0  0  0  0  0  0  0  0  0  0  0  0
    2.4840   -1.6067    0.0000 H   0  0  0  0  0  0  0  0  0  0  0  0
    2.4840   -0.5367    0.0000 H   0  0  0  0  0  0  0  0  0  0  0  0
    3.1985   -2.8442    0.0000 H   0  0  0  0  0  0  0  0  0  0  0  0
    5.0517   -2.8442    0.0000 H   0  0  0  0  0  0  0  0  0  0  0  0
    4.1251   -3.3792    0.0000 H   0  0  0  0  0  0  0  0  0  0  0  0
    3.0931    1.5948    0.0000 H   0  0  0  0  0  0  0  0  0  0  0  0
    5.8786   -0.0134    0.0000 H   0  0  0  0  0  0  0  0  0  0  0  0
    4.0216    3.2029    0.0000 H   0  0  0  0  0  0  0  0  0  0  0  0
    6.8071    1.5948    0.0000 H   0  0  0  0  0  0  0  0  0  0  0  0
    3.0101    2.5214    0.0000 H   0  0  0  0  0  0  0  0  0  0  0  0
    1.9401    2.5214    0.0000 H   0  0  0  0  0  0  0  0  0  0  0  0
    5.8786    3.2029    0.0000 H   0  0  0  0  0  0  0  0  0  0  0  0
    1.1150    2.5214    0.0000 H   0  0  0  0  0  0  0  0  0  0  0  0
    1.1150    0.6682    0.0000 H   0  0  0  0  0  0  0  0  0  0  0  0
    0.5800    1.5948    0.0000 H   0  0  0  0  0  0  0  0  0  0  0  0
  1  4  1  0  0  0  0
  1 13  1  0  0  0  0
  2 13  2  0  0  0  0
  3  7  1  0  0  0  0
  3  8  1  0  0  0  0
  3 10  1  0  0  0  0
  4  5  1  0  0  0  0
  4  6  1  0  0  0  0
  4  9  1  0  0  0  0
  5  7  1  0  0  0  0
  5 19  1  0  0  0  0
  5 20  1  0  0  0  0
  6  8  1  0  0  0  0
  6 21  1  0  0  0  0
  6 22  1  0  0  0  0
  7 23  1  0  0  0  0
  7 24  1  0  0  0  0
  8 25  1  0  0  0  0
  8 26  1  0  0  0  0
  9 11  2  0  0  0  0
  9 12  1  0  0  0  0
 10 27  1  0  0  0  0
 10 28  1  0  0  0  0
 10 29  1  0  0  0  0
 11 14  1  0  0  0  0
 11 30  1  0  0  0  0
 12 15  2  0  0  0  0
 12 31  1  0  0  0  0
 13 16  1  0  0  0  0
 14 17  2  0  0  0  0
 14 32  1  0  0  0  0
 15 17  1  0  0  0  0
 15 33  1  0  0  0  0
 16 18  1  0  0  0  0
 16 34  1  0  0  0  0
 16 35  1  0  0  0  0
 17 36  1  0  0  0  0
 18 37  1  0  0  0  0
 18 38  1  0  0  0  0
 18 39  1  0  0  0  0
M  END
>  <DRUGBANK_ID>
DB01478

>  <COMMON_NAME>
Desmethylprodine

>  <CAS_NUMBER>
13147-09-6

>  <UNII>
07SGC963IR

>  <SYNONYMS>
1-Methyl-4-phenyl-4-piperidinol propionate; 1-Methyl-4-phenyl-4-propionoxypiperidine; 3-Demethylprodine; MPPP

$$$$
