
 OpenBabel10282417072D

 48 50  0  0  0  0  0  0  0  0999 V2000
    5.6101   -1.0072    0.0000 S   0  0  0  0  0  0  0  0  0  0  0  0
    4.5596    0.3587    0.0000 S   0  0  0  0  0  0  0  0  0  0  0  0
    6.2775   -5.6172    0.0000 F   0  0  0  0  0  0  0  0  0  0  0  0
    7.1025   -4.7922    0.0000 F   0  0  0  0  0  0  0  0  0  0  0  0
    5.4525   -4.7922    0.0000 F   0  0  0  0  0  0  0  0  0  0  0  0
    2.6199    3.0285    0.0000 O   0  0  0  0  0  0  0  0  0  0  0  0
    2.8061    5.2033    0.0000 O   0  0  0  0  0  0  0  0  0  0  0  0
    1.6500    4.3634    0.0000 O   0  0  0  0  0  0  0  0  0  0  0  0
    6.9449   -1.0072    0.0000 N   0  0  0  0  0  0  0  0  0  0  0  0
    5.8650   -0.2225    0.0000 C   0  0  0  0  0  0  0  0  0  0  0  0
    5.3801    0.4449    0.0000 C   0  0  0  0  0  0  0  0  0  0  0  0
    6.6900   -0.2225    0.0000 C   0  0  0  0  0  0  0  0  0  0  0  0
    6.2775   -1.4921    0.0000 C   0  0  0  0  0  0  0  0  0  0  0  0
    6.2775   -2.3171    0.0000 C   0  0  0  0  0  0  0  0  0  0  0  0
    4.0747    1.0261    0.0000 C   0  0  0  0  0  0  0  0  0  0  0  0
    2.7692    1.6074    0.0000 C   0  0  0  0  0  0  0  0  0  0  0  0
    3.2542    0.9399    0.0000 C   0  0  0  0  0  0  0  0  0  0  0  0
    6.9920   -2.7296    0.0000 C   0  0  0  0  0  0  0  0  0  0  0  0
    5.5631   -2.7296    0.0000 C   0  0  0  0  0  0  0  0  0  0  0  0
    3.1048    2.3610    0.0000 C   0  0  0  0  0  0  0  0  0  0  0  0
    6.2775   -3.9672    0.0000 C   0  0  0  0  0  0  0  0  0  0  0  0
    7.1750    0.4449    0.0000 C   0  0  0  0  0  0  0  0  0  0  0  0
    4.4103    1.7798    0.0000 C   0  0  0  0  0  0  0  0  0  0  0  0
    6.9920   -3.5546    0.0000 C   0  0  0  0  0  0  0  0  0  0  0  0
    5.5631   -3.5546    0.0000 C   0  0  0  0  0  0  0  0  0  0  0  0
    3.9253    2.4473    0.0000 C   0  0  0  0  0  0  0  0  0  0  0  0
    1.9488    1.5212    0.0000 C   0  0  0  0  0  0  0  0  0  0  0  0
    6.2775   -4.7922    0.0000 C   0  0  0  0  0  0  0  0  0  0  0  0
    2.9554    3.7822    0.0000 C   0  0  0  0  0  0  0  0  0  0  0  0
    2.4705    4.4496    0.0000 C   0  0  0  0  0  0  0  0  0  0  0  0
    3.7380    5.3012    0.0000 H   0  0  0  0  0  0  0  0  0  0  0  0
    5.8153    1.4224    0.0000 H   0  0  0  0  0  0  0  0  0  0  0  0
    6.4442    0.5567    0.0000 H   0  0  0  0  0  0  0  0  0  0  0  0
    2.8344   -0.0029    0.0000 H   0  0  0  0  0  0  0  0  0  0  0  0
    7.8857   -2.2136    0.0000 H   0  0  0  0  0  0  0  0  0  0  0  0
    4.6694   -2.2136    0.0000 H   0  0  0  0  0  0  0  0  0  0  0  0
    8.2391    0.3329    0.0000 H   0  0  0  0  0  0  0  0  0  0  0  0
    6.7399    1.4224    0.0000 H   0  0  0  0  0  0  0  0  0  0  0  0
    7.8040    1.3105    0.0000 H   0  0  0  0  0  0  0  0  0  0  0  0
    5.4366    1.8877    0.0000 H   0  0  0  0  0  0  0  0  0  0  0  0
    7.8858   -4.0706    0.0000 H   0  0  0  0  0  0  0  0  0  0  0  0
    4.6693   -4.0705    0.0000 H   0  0  0  0  0  0  0  0  0  0  0  0
    4.3450    3.3901    0.0000 H   0  0  0  0  0  0  0  0  0  0  0  0
    1.3199    2.3869    0.0000 H   0  0  0  0  0  0  0  0  0  0  0  0
    1.5136    0.5437    0.0000 H   0  0  0  0  0  0  0  0  0  0  0  0
    0.8847    1.4094    0.0000 H   0  0  0  0  0  0  0  0  0  0  0  0
    4.0195    3.8941    0.0000 H   0  0  0  0  0  0  0  0  0  0  0  0
    3.3906    4.7597    0.0000 H   0  0  0  0  0  0  0  0  0  0  0  0
  1 10  1  0  0  0  0
  1 13  1  0  0  0  0
  2 11  1  0  0  0  0
  2 15  1  0  0  0  0
  3 28  1  0  0  0  0
  4 28  1  0  0  0  0
  5 28  1  0  0  0  0
  6 20  1  0  0  0  0
  6 29  1  0  0  0  0
  7 30  1  0  0  0  0
  7 31  1  0  0  0  0
  8 30  2  0  0  0  0
  9 12  1  0  0  0  0
  9 13  2  0  0  0  0
 10 11  1  0  0  0  0
 10 12  2  0  0  0  0
 11 32  1  0  0  0  0
 11 33  1  0  0  0  0
 12 22  1  0  0  0  0
 13 14  1  0  0  0  0
 14 18  2  0  0  0  0
 14 19  1  0  0  0  0
 15 17  2  0  0  0  0
 15 23  1  0  0  0  0
 16 17  1  0  0  0  0
 16 20  2  0  0  0  0
 16 27  1  0  0  0  0
 17 34  1  0  0  0  0
 18 24  1  0  0  0  0
 18 35  1  0  0  0  0
 19 25  2  0  0  0  0
 19 36  1  0  0  0  0
 20 26  1  0  0  0  0
 21 24  2  0  0  0  0
 21 25  1  0  0  0  0
 21 28  1  0  0  0  0
 22 37  1  0  0  0  0
 22 38  1  0  0  0  0
 22 39  1  0  0  0  0
 23 26  2  0  0  0  0
 23 40  1  0  0  0  0
 24 41  1  0  0  0  0
 25 42  1  0  0  0  0
 26 43  1  0  0  0  0
 27 44  1  0  0  0  0
 27 45  1  0  0  0  0
 27 46  1  0  0  0  0
 29 30  1  0  0  0  0
 29 47  1  0  0  0  0
 29 48  1  0  0  0  0
M  END
>  <DRUGBANK_ID>
DB05416

>  <SECONDARY_ACCESSION_NUMBERS>
DB13015

>  <COMMON_NAME>
Cardarine

>  <CAS_NUMBER>
317318-70-0

>  <UNII>
7I2HA1NU22

$$$$
