2C5
 OpenBabel10282417072D

 50 53  0  0  0  0  0  0  0  0999 V2000
   -0.2903    0.2528    0.0000 O   0  0  0  0  0  0  0  0  0  0  0  0
    0.5302    0.1666    0.0000 C   0  0  2  0  0  0  0  0  0  0  0  0
    0.8658   -0.5871    0.0000 C   0  0  0  0  0  0  0  0  0  0  0  0
    1.6863   -0.6734    0.0000 C   0  0  0  0  0  0  0  0  0  0  0  0
    2.0218   -1.4270    0.0000 C   0  0  0  0  0  0  0  0  0  0  0  0
    1.5369   -2.0945    0.0000 C   0  0  0  0  0  0  0  0  0  0  0  0
    0.7164   -2.0082    0.0000 C   0  0  0  0  0  0  0  0  0  0  0  0
    0.3808   -1.2546    0.0000 C   0  0  0  0  0  0  0  0  0  0  0  0
   -0.9246   -1.8358    0.0000 C   0  0  0  0  0  0  0  0  0  0  0  0
   -1.7450   -1.7495    0.0000 C   0  0  0  0  0  0  0  0  0  0  0  0
   -2.2300   -2.4170    0.0000 Cl  0  0  0  0  0  0  0  0  0  0  0  0
    1.8724   -2.8481    0.0000 C   0  0  0  0  0  0  0  0  0  0  0  0
   -2.0806   -0.9959    0.0000 C   0  0  0  0  0  0  0  0  0  0  0  0
    2.2080   -3.6018    0.0000 N   0  0  0  0  0  0  0  0  0  0  0  0
   -0.4396   -1.1683    0.0000 C   0  0  0  0  0  0  0  0  0  0  0  0
   -1.5957   -0.3284    0.0000 C   0  0  0  0  0  0  0  0  0  0  0  0
   -0.7752   -0.4147    0.0000 C   0  0  0  0  0  0  0  0  0  0  0  0
   -0.6258    1.0065    0.0000 C   0  0  0  0  0  0  0  0  0  0  0  0
    2.0951    1.6186    0.0000 N   0  0  0  0  0  0  0  0  0  0  0  0
    1.8401    0.8340    0.0000 C   0  0  0  0  0  0  0  0  0  0  0  0
    1.0151    0.8340    0.0000 C   0  0  0  0  0  0  0  0  0  0  0  0
    0.7602    1.6186    0.0000 N   0  0  0  0  0  0  0  0  0  0  0  0
    1.4276    2.1035    0.0000 C   0  0  0  0  0  0  0  0  0  0  0  0
   -0.0244    1.8736    0.0000 C   0  0  0  0  0  0  0  0  0  0  0  0
   -1.7819    1.8464    0.0000 N   0  0  0  0  0  0  0  0  0  0  0  0
   -1.4463    1.0927    0.0000 C   0  0  0  0  0  0  0  0  0  0  0  0
   -1.9312    0.4253    0.0000 C   0  0  0  0  0  0  0  0  0  0  0  0
   -2.7517    0.5115    0.0000 C   0  0  0  0  0  0  0  0  0  0  0  0
   -3.0873    1.2652    0.0000 C   0  0  0  0  0  0  0  0  0  0  0  0
   -2.6023    1.9326    0.0000 C   0  0  0  0  0  0  0  0  0  0  0  0
   -3.9077    1.3514    0.0000 C   0  0  0  0  0  0  0  0  0  0  0  0
   -4.7282    1.4376    0.0000 N   0  0  0  0  0  0  0  0  0  0  0  0
   -2.9379    2.6863    0.0000 Cl  0  0  0  0  0  0  0  0  0  0  0  0
    0.1870   -0.3059    0.0000 H   0  0  0  0  0  0  0  0  0  0  0  0
    2.2929    0.1615    0.0000 H   0  0  0  0  0  0  0  0  0  0  0  0
    3.0481   -1.5349    0.0000 H   0  0  0  0  0  0  0  0  0  0  0  0
    0.1098   -2.8431    0.0000 H   0  0  0  0  0  0  0  0  0  0  0  0
   -0.6455   -1.1468    0.0000 H   0  0  0  0  0  0  0  0  0  0  0  0
   -0.5049   -2.7786    0.0000 H   0  0  0  0  0  0  0  0  0  0  0  0
   -3.1070   -0.8881    0.0000 H   0  0  0  0  0  0  0  0  0  0  0  0
    0.5867   -1.2761    0.0000 H   0  0  0  0  0  0  0  0  0  0  0  0
   -0.1686    0.4202    0.0000 H   0  0  0  0  0  0  0  0  0  0  0  0
    0.0031    1.8721    0.0000 H   0  0  0  0  0  0  0  0  0  0  0  0
   -1.0610    1.9840    0.0000 H   0  0  0  0  0  0  0  0  0  0  0  0
    2.4467   -0.0009    0.0000 H   0  0  0  0  0  0  0  0  0  0  0  0
    1.4276    3.1355    0.0000 H   0  0  0  0  0  0  0  0  0  0  0  0
   -0.2468    2.9202    0.0000 H   0  0  0  0  0  0  0  0  0  0  0  0
   -0.8196    1.1577    0.0000 H   0  0  0  0  0  0  0  0  0  0  0  0
   -1.0420    2.2043    0.0000 H   0  0  0  0  0  0  0  0  0  0  0  0
   -3.3583   -0.3234    0.0000 H   0  0  0  0  0  0  0  0  0  0  0  0
  1 18  1  0  0  0  0
  2  1  1  0  0  0  0
  2  3  1  0  0  0  0
  2 21  1  0  0  0  0
  2 34  1  6  0  0  0
  3  4  2  0  0  0  0
  3  8  1  0  0  0  0
  4  5  1  0  0  0  0
  4 35  1  0  0  0  0
  5  6  2  0  0  0  0
  5 36  1  0  0  0  0
  6  7  1  0  0  0  0
  6 12  1  0  0  0  0
  7  8  2  0  0  0  0
  7 37  1  0  0  0  0
  8 38  1  0  0  0  0
  9 10  2  0  0  0  0
  9 15  1  0  0  0  0
  9 39  1  0  0  0  0
 10 11  1  0  0  0  0
 10 13  1  0  0  0  0
 12 14  3  0  0  0  0
 13 16  2  0  0  0  0
 13 40  1  0  0  0  0
 15 17  2  0  0  0  0
 15 41  1  0  0  0  0
 16 17  1  0  0  0  0
 16 27  1  0  0  0  0
 17 42  1  0  0  0  0
 18 26  1  0  0  0  0
 18 43  1  0  0  0  0
 18 44  1  0  0  0  0
 19 20  1  0  0  0  0
 19 23  2  0  0  0  0
 20 21  2  0  0  0  0
 20 45  1  0  0  0  0
 21 22  1  0  0  0  0
 22 23  1  0  0  0  0
 22 24  1  0  0  0  0
 23 46  1  0  0  0  0
 24 47  1  0  0  0  0
 24 48  1  0  0  0  0
 24 49  1  0  0  0  0
 25 26  2  0  0  0  0
 25 30  1  0  0  0  0
 26 27  1  0  0  0  0
 27 28  2  0  0  0  0
 28 29  1  0  0  0  0
 28 50  1  0  0  0  0
 29 30  2  0  0  0  0
 29 31  1  0  0  0  0
 30 33  1  0  0  0  0
 31 32  3  0  0  0  0
M  END
>  <DRUGBANK_ID>
DB06953

>  <COMMON_NAME>
2-CHLORO-5-(3-CHLORO-PHENYL)-6-[(4-CYANO-PHENYL)-(3-METHYL-3H-IMIDAZOL-4-YL)- METHOXYMETHYL]-NICOTINONITRILE

$$$$
