
 OpenBabel10282417072D

225230  0  0  0  0  0  0  0  0999 V2000
  -12.5062   -0.6901    0.0000 C   0  0  0  0  0  0  0  0  0  0  0  0
  -12.5062   -1.5267    0.0000 C   0  0  0  0  0  0  0  0  0  0  0  0
  -11.7952   -1.9449    0.0000 C   0  0  0  0  0  0  0  0  0  0  0  0
  -11.0841   -1.5267    0.0000 C   0  0  0  0  0  0  0  0  0  0  0  0
  -11.0841   -0.6901    0.0000 C   0  0  0  0  0  0  0  0  0  0  0  0
  -11.7952   -0.2718    0.0000 C   0  0  0  0  0  0  0  0  0  0  0  0
  -10.3731   -1.9449    0.0000 C   0  0  0  0  0  0  0  0  0  0  0  0
   -9.6620   -1.5267    0.0000 C   0  0  0  0  0  0  0  0  0  0  0  0
   -9.6620   -0.6901    0.0000 C   0  0  0  0  0  0  0  0  0  0  0  0
  -10.3731   -0.2718    0.0000 C   0  0  0  0  0  0  0  0  0  0  0  0
   -8.2399   -1.7357    0.0000 N   0  0  0  0  0  0  0  0  0  0  0  0
   -8.2399   -0.6901    0.0000 C   0  0  2  0  0  0  0  0  0  0  0  0
   -8.9510   -0.2718    0.0000 C   0  0  0  0  0  0  0  0  0  0  0  0
   -7.5289   -2.1540    0.0000 C   0  0  0  0  0  0  0  0  0  0  0  0
   -6.8177   -0.6901    0.0000 N   0  0  0  0  0  0  0  0  0  0  0  0
   -7.5289   -0.2718    0.0000 C   0  0  0  0  0  0  0  0  0  0  0  0
   -5.3956   -1.5267    0.0000 O   0  0  0  0  0  0  0  0  0  0  0  0
   -5.3956   -0.6901    0.0000 C   0  0  0  0  0  0  0  0  0  0  0  0
   -6.1067   -0.2718    0.0000 C   0  0  1  0  0  0  0  0  0  0  0  0
   -3.9317   -1.6103    0.0000 C   0  0  0  0  0  0  0  0  0  0  0  0
   -3.9317   -0.6901    0.0000 C   0  0  1  0  0  0  0  0  0  0  0  0
   -4.6427   -0.2718    0.0000 N   0  0  0  0  0  0  0  0  0  0  0  0
   -2.5096   -0.6901    0.0000 N   0  0  0  0  0  0  0  0  0  0  0  0
   -3.2206   -0.2718    0.0000 C   0  0  0  0  0  0  0  0  0  0  0  0
   -1.0875   -1.5267    0.0000 O   0  0  0  0  0  0  0  0  0  0  0  0
   -1.0875   -0.6901    0.0000 C   0  0  0  0  0  0  0  0  0  0  0  0
   -1.7985   -0.2718    0.0000 C   0  0  2  0  0  0  0  0  0  0  0  0
    0.3346   -1.5684    0.0000 C   0  0  0  0  0  0  0  0  0  0  0  0
    0.3346   -0.6901    0.0000 C   0  0  2  0  0  0  0  0  0  0  0  0
   -0.3764   -0.2718    0.0000 N   0  0  0  0  0  0  0  0  0  0  0  0
   -7.5289    0.5228    0.0000 O   0  0  0  0  0  0  0  0  0  0  0  0
   -6.1067    1.1920    0.0000 C   0  0  0  0  0  0  0  0  0  0  0  0
   -3.2206    0.5228    0.0000 O   0  0  0  0  0  0  0  0  0  0  0  0
    1.7567   -0.6901    0.0000 N   0  0  0  0  0  0  0  0  0  0  0  0
    1.0456   -0.2718    0.0000 C   0  0  0  0  0  0  0  0  0  0  0  0
    3.1788   -1.5267    0.0000 O   0  0  0  0  0  0  0  0  0  0  0  0
    3.1788   -0.6901    0.0000 C   0  0  0  0  0  0  0  0  0  0  0  0
    2.4677   -0.2718    0.0000 C   0  0  1  0  0  0  0  0  0  0  0  0
    4.6427   -1.7357    0.0000 C   0  0  0  0  0  0  0  0  0  0  0  0
    4.6427   -0.6901    0.0000 C   0  0  2  0  0  0  0  0  0  0  0  0
    3.9317   -0.2718    0.0000 N   0  0  0  0  0  0  0  0  0  0  0  0
    6.0649   -0.6901    0.0000 N   0  0  0  0  0  0  0  0  0  0  0  0
    5.3538   -0.2718    0.0000 C   0  0  0  0  0  0  0  0  0  0  0  0
    7.4870   -1.5267    0.0000 O   0  0  0  0  0  0  0  0  0  0  0  0
    7.4870   -0.6901    0.0000 C   0  0  0  0  0  0  0  0  0  0  0  0
    6.7760   -0.2718    0.0000 C   0  0  2  0  0  0  0  0  0  0  0  0
    1.0456    0.5228    0.0000 O   0  0  0  0  0  0  0  0  0  0  0  0
    5.3538    0.5228    0.0000 O   0  0  0  0  0  0  0  0  0  0  0  0
    8.1981   -0.2718    0.0000 N   0  0  0  0  0  0  0  0  0  0  0  0
    8.8254   -0.7738    0.0000 C   0  0  1  0  0  0  0  0  0  0  0  0
    9.4947   -0.3136    0.0000 C   0  0  0  0  0  0  0  0  0  0  0  0
    9.2856    0.4809    0.0000 C   0  0  0  0  0  0  0  0  0  0  0  0
    8.4908    0.4809    0.0000 C   0  0  0  0  0  0  0  0  0  0  0  0
   -6.8177   -1.7357    0.0000 C   0  0  0  0  0  0  0  0  0  0  0  0
   -7.5289   -2.9488    0.0000 O   0  0  0  0  0  0  0  0  0  0  0  0
   -6.8177    1.6103    0.0000 C   0  0  0  0  0  0  0  0  0  0  0  0
   -6.8177    2.4469    0.0000 C   0  0  0  0  0  0  0  0  0  0  0  0
   -7.5289    2.8651    0.0000 C   0  0  0  0  0  0  0  0  0  0  0  0
   -8.2399    2.4469    0.0000 C   0  0  0  0  0  0  0  0  0  0  0  0
   -8.2399    1.6103    0.0000 C   0  0  0  0  0  0  0  0  0  0  0  0
   -7.5289    1.1920    0.0000 C   0  0  0  0  0  0  0  0  0  0  0  0
   -8.9510    2.8651    0.0000 Cl  0  0  0  0  0  0  0  0  0  0  0  0
    8.8254   -1.6103    0.0000 C   0  0  0  0  0  0  0  0  0  0  0  0
    8.1144   -2.0286    0.0000 O   0  0  0  0  0  0  0  0  0  0  0  0
    9.5783   -2.0286    0.0000 N   0  0  0  0  0  0  0  0  0  0  0  0
   10.2894   -1.6103    0.0000 C   0  0  1  0  0  0  0  0  0  0  0  0
   10.9587   -2.0286    0.0000 C   0  0  0  0  0  0  0  0  0  0  0  0
   11.6697   -1.6103    0.0000 N   0  0  0  0  0  0  0  0  0  0  0  0
   10.9587   -2.8232    0.0000 O   0  0  0  0  0  0  0  0  0  0  0  0
   10.2894   -0.7738    0.0000 C   0  0  0  0  0  0  0  0  0  0  0  0
    5.3538   -2.1540    0.0000 C   0  0  0  0  0  0  0  0  0  0  0  0
    6.0649   -1.7357    0.0000 C   0  0  0  0  0  0  0  0  0  0  0  0
    5.3538   -2.9488    0.0000 C   0  0  0  0  0  0  0  0  0  0  0  0
    1.0456   -1.9867    0.0000 C   0  0  0  0  0  0  0  0  0  0  0  0
    1.0456   -2.7815    0.0000 C   0  0  0  0  0  0  0  0  0  0  0  0
    1.7567   -3.1997    0.0000 C   0  0  0  0  0  0  0  0  0  0  0  0
    2.5096   -2.7815    0.0000 C   0  0  0  0  0  0  0  0  0  0  0  0
    2.5096   -1.9867    0.0000 C   0  0  0  0  0  0  0  0  0  0  0  0
    1.7567   -1.5684    0.0000 C   0  0  0  0  0  0  0  0  0  0  0  0
    3.2206   -3.1997    0.0000 O   0  0  0  0  0  0  0  0  0  0  0  0
   -3.2206   -2.0286    0.0000 C   0  0  0  0  0  0  0  0  0  0  0  0
   -3.2206   -2.8232    0.0000 C   0  0  0  0  0  0  0  0  0  0  0  0
   -2.5096   -3.2415    0.0000 C   0  0  0  0  0  0  0  0  0  0  0  0
   -1.7985   -2.8232    0.0000 C   0  0  0  0  0  0  0  0  0  0  0  0
   -1.7985   -2.0286    0.0000 N   0  0  0  0  0  0  0  0  0  0  0  0
   -2.5096   -1.6103    0.0000 C   0  0  0  0  0  0  0  0  0  0  0  0
    2.4677    1.5684    0.0000 C   0  0  0  0  0  0  0  0  0  0  0  0
    1.7567    1.9867    0.0000 C   0  0  0  0  0  0  0  0  0  0  0  0
   -1.7985    0.5646    0.0000 C   0  0  0  0  0  0  0  0  0  0  0  0
   -1.0456    0.9829    0.0000 O   0  0  0  0  0  0  0  0  0  0  0  0
    6.7760    0.7738    0.0000 C   0  0  0  0  0  0  0  0  0  0  0  0
    7.5289    1.1920    0.0000 C   0  0  0  0  0  0  0  0  0  0  0  0
    1.0456    1.5684    0.0000 C   0  0  0  0  0  0  0  0  0  0  0  0
    0.3346    1.9867    0.0000 C   0  0  0  0  0  0  0  0  0  0  0  0
   -0.3764    1.5684    0.0000 N   0  0  0  0  0  0  0  0  0  0  0  0
   -1.0875    1.9867    0.0000 C   0  0  0  0  0  0  0  0  0  0  0  0
   -1.7985    1.5684    0.0000 N   0  0  0  0  0  0  0  0  0  0  0  0
   -1.0875    2.8232    0.0000 N   0  0  0  0  0  0  0  0  0  0  0  0
   -2.5096    1.9867    0.0000 C   0  0  0  0  0  0  0  0  0  0  0  0
   -3.2206    1.5684    0.0000 C   0  0  0  0  0  0  0  0  0  0  0  0
   -1.7985    3.2415    0.0000 C   0  0  0  0  0  0  0  0  0  0  0  0
   -2.5096    2.8232    0.0000 C   0  0  0  0  0  0  0  0  0  0  0  0
    8.2399    0.7738    0.0000 C   0  0  0  0  0  0  0  0  0  0  0  0
    8.9510    1.1920    0.0000 C   0  0  0  0  0  0  0  0  0  0  0  0
    9.6620    0.7738    0.0000 N   0  0  0  0  0  0  0  0  0  0  0  0
   10.3731    1.1920    0.0000 C   0  0  0  0  0  0  0  0  0  0  0  0
   11.0841    0.7738    0.0000 N   0  0  0  0  0  0  0  0  0  0  0  0
   11.7952    1.1920    0.0000 C   0  0  0  0  0  0  0  0  0  0  0  0
   12.5062    0.7738    0.0000 C   0  0  0  0  0  0  0  0  0  0  0  0
   10.3731    2.0286    0.0000 N   0  0  0  0  0  0  0  0  0  0  0  0
   11.0841    2.4469    0.0000 C   0  0  0  0  0  0  0  0  0  0  0  0
   11.7952    2.0286    0.0000 C   0  0  0  0  0  0  0  0  0  0  0  0
  -13.4020   -0.1778    0.0000 H   0  0  0  0  0  0  0  0  0  0  0  0
  -13.4020   -2.0391    0.0000 H   0  0  0  0  0  0  0  0  0  0  0  0
  -11.7952   -2.9769    0.0000 H   0  0  0  0  0  0  0  0  0  0  0  0
  -11.7952    0.7602    0.0000 H   0  0  0  0  0  0  0  0  0  0  0  0
  -10.3731   -2.9769    0.0000 H   0  0  0  0  0  0  0  0  0  0  0  0
   -8.7662   -2.0391    0.0000 H   0  0  0  0  0  0  0  0  0  0  0  0
  -10.3731    0.7602    0.0000 H   0  0  0  0  0  0  0  0  0  0  0  0
   -9.0945   -2.2245    0.0000 H   0  0  0  0  0  0  0  0  0  0  0  0
   -9.1687   -1.2213    0.0000 H   0  0  0  0  0  0  0  0  0  0  0  0
   -8.9510    0.7982    0.0000 H   0  0  0  0  0  0  0  0  0  0  0  0
   -9.8798    0.2594    0.0000 H   0  0  0  0  0  0  0  0  0  0  0  0
   -6.8176   -1.6746    0.0000 H   0  0  0  0  0  0  0  0  0  0  0  0
   -5.1779    0.2594    0.0000 H   0  0  0  0  0  0  0  0  0  0  0  0
   -4.8605   -2.1415    0.0000 H   0  0  0  0  0  0  0  0  0  0  0  0
   -3.9382   -2.6803    0.0000 H   0  0  0  0  0  0  0  0  0  0  0  0
   -4.8605   -1.2213    0.0000 H   0  0  0  0  0  0  0  0  0  0  0  0
   -4.6306    0.7126    0.0000 H   0  0  0  0  0  0  0  0  0  0  0  0
   -2.5096   -1.6746    0.0000 H   0  0  0  0  0  0  0  0  0  0  0  0
   -0.8697    0.2594    0.0000 H   0  0  0  0  0  0  0  0  0  0  0  0
   -0.5942   -2.0996    0.0000 H   0  0  0  0  0  0  0  0  0  0  0  0
    0.3280   -2.6384    0.0000 H   0  0  0  0  0  0  0  0  0  0  0  0
   -0.5942   -1.2213    0.0000 H   0  0  0  0  0  0  0  0  0  0  0  0
   -0.3764    0.7127    0.0000 H   0  0  0  0  0  0  0  0  0  0  0  0
   -5.1779    1.7232    0.0000 H   0  0  0  0  0  0  0  0  0  0  0  0
   -6.1001    2.2620    0.0000 H   0  0  0  0  0  0  0  0  0  0  0  0
    1.7567   -1.6746    0.0000 H   0  0  0  0  0  0  0  0  0  0  0  0
    3.3965    0.2594    0.0000 H   0  0  0  0  0  0  0  0  0  0  0  0
    3.7139   -2.2669    0.0000 H   0  0  0  0  0  0  0  0  0  0  0  0
    4.6362   -2.8057    0.0000 H   0  0  0  0  0  0  0  0  0  0  0  0
    3.7139   -1.2213    0.0000 H   0  0  0  0  0  0  0  0  0  0  0  0
    3.9438    0.7126    0.0000 H   0  0  0  0  0  0  0  0  0  0  0  0
    6.0649   -1.6746    0.0000 H   0  0  0  0  0  0  0  0  0  0  0  0
    7.7048    0.2594    0.0000 H   0  0  0  0  0  0  0  0  0  0  0  0
    7.8610   -1.2372    0.0000 H   0  0  0  0  0  0  0  0  0  0  0  0
   10.4978   -0.6861    0.0000 H   0  0  0  0  0  0  0  0  0  0  0  0
   10.2875    0.4050    0.0000 H   0  0  0  0  0  0  0  0  0  0  0  0
    9.9389    1.3283    0.0000 H   0  0  0  0  0  0  0  0  0  0  0  0
    8.8134    1.4411    0.0000 H   0  0  0  0  0  0  0  0  0  0  0  0
    7.8867    1.3640    0.0000 H   0  0  0  0  0  0  0  0  0  0  0  0
    7.4278    0.3586    0.0000 H   0  0  0  0  0  0  0  0  0  0  0  0
   -5.8868   -2.2632    0.0000 H   0  0  0  0  0  0  0  0  0  0  0  0
   -6.8263   -0.6657    0.0000 H   0  0  0  0  0  0  0  0  0  0  0  0
   -5.8954   -1.1932    0.0000 H   0  0  0  0  0  0  0  0  0  0  0  0
   -5.9219    2.9593    0.0000 H   0  0  0  0  0  0  0  0  0  0  0  0
   -7.5290    3.8971    0.0000 H   0  0  0  0  0  0  0  0  0  0  0  0
   -9.1357    1.0980    0.0000 H   0  0  0  0  0  0  0  0  0  0  0  0
   -7.5290    0.1600    0.0000 H   0  0  0  0  0  0  0  0  0  0  0  0
    9.5904   -3.0130    0.0000 H   0  0  0  0  0  0  0  0  0  0  0  0
    9.3606   -1.0791    0.0000 H   0  0  0  0  0  0  0  0  0  0  0  0
   12.5263   -2.0955    0.0000 H   0  0  0  0  0  0  0  0  0  0  0  0
   11.6616   -0.6258    0.0000 H   0  0  0  0  0  0  0  0  0  0  0  0
   11.2160   -0.2388    0.0000 H   0  0  0  0  0  0  0  0  0  0  0  0
    9.3628   -0.2388    0.0000 H   0  0  0  0  0  0  0  0  0  0  0  0
   10.2894    0.2962    0.0000 H   0  0  0  0  0  0  0  0  0  0  0  0
    6.2826   -2.6852    0.0000 H   0  0  0  0  0  0  0  0  0  0  0  0
    6.9959   -2.2631    0.0000 H   0  0  0  0  0  0  0  0  0  0  0  0
    6.0562   -0.6657    0.0000 H   0  0  0  0  0  0  0  0  0  0  0  0
    6.9872   -1.1932    0.0000 H   0  0  0  0  0  0  0  0  0  0  0  0
    4.4272   -3.4838    0.0000 H   0  0  0  0  0  0  0  0  0  0  0  0
    6.2804   -3.4838    0.0000 H   0  0  0  0  0  0  0  0  0  0  0  0
    5.3538   -4.0188    0.0000 H   0  0  0  0  0  0  0  0  0  0  0  0
    0.1498   -3.2939    0.0000 H   0  0  0  0  0  0  0  0  0  0  0  0
    1.7440   -4.2316    0.0000 H   0  0  0  0  0  0  0  0  0  0  0  0
    3.3991   -1.4634    0.0000 H   0  0  0  0  0  0  0  0  0  0  0  0
    1.7440   -0.5365    0.0000 H   0  0  0  0  0  0  0  0  0  0  0  0
    3.2130   -4.1367    0.0000 H   0  0  0  0  0  0  0  0  0  0  0  0
   -4.1164   -3.3355    0.0000 H   0  0  0  0  0  0  0  0  0  0  0  0
   -2.5096   -4.2735    0.0000 H   0  0  0  0  0  0  0  0  0  0  0  0
   -0.9027   -3.3356    0.0000 H   0  0  0  0  0  0  0  0  0  0  0  0
   -2.5096   -0.5783    0.0000 H   0  0  0  0  0  0  0  0  0  0  0  0
    3.3965    2.0996    0.0000 H   0  0  0  0  0  0  0  0  0  0  0  0
    2.4743    2.6384    0.0000 H   0  0  0  0  0  0  0  0  0  0  0  0
    1.7567    3.0567    0.0000 H   0  0  0  0  0  0  0  0  0  0  0  0
    0.8279    2.5179    0.0000 H   0  0  0  0  0  0  0  0  0  0  0  0
   -2.7207    1.1072    0.0000 H   0  0  0  0  0  0  0  0  0  0  0  0
   -1.7853    1.6345    0.0000 H   0  0  0  0  0  0  0  0  0  0  0  0
   -0.2137    0.4841    0.0000 H   0  0  0  0  0  0  0  0  0  0  0  0
    5.8538    1.3165    0.0000 H   0  0  0  0  0  0  0  0  0  0  0  0
    6.7893    1.8437    0.0000 H   0  0  0  0  0  0  0  0  0  0  0  0
    7.5421    2.2619    0.0000 H   0  0  0  0  0  0  0  0  0  0  0  0
    8.4610    1.7175    0.0000 H   0  0  0  0  0  0  0  0  0  0  0  0
    1.0456    0.4984    0.0000 H   0  0  0  0  0  0  0  0  0  0  0  0
    0.1168    1.0372    0.0000 H   0  0  0  0  0  0  0  0  0  0  0  0
    0.3346    3.0567    0.0000 H   0  0  0  0  0  0  0  0  0  0  0  0
   -0.5942    2.5179    0.0000 H   0  0  0  0  0  0  0  0  0  0  0  0
   -1.7985    0.5839    0.0000 H   0  0  0  0  0  0  0  0  0  0  0  0
   -0.2329    3.3120    0.0000 H   0  0  0  0  0  0  0  0  0  0  0  0
   -2.5096    3.0567    0.0000 H   0  0  0  0  0  0  0  0  0  0  0  0
   -3.4384    2.5179    0.0000 H   0  0  0  0  0  0  0  0  0  0  0  0
   -4.1516    2.0958    0.0000 H   0  0  0  0  0  0  0  0  0  0  0  0
   -3.2118    0.4984    0.0000 H   0  0  0  0  0  0  0  0  0  0  0  0
   -4.1428    1.0258    0.0000 H   0  0  0  0  0  0  0  0  0  0  0  0
   -1.7985    4.3115    0.0000 H   0  0  0  0  0  0  0  0  0  0  0  0
   -2.7273    3.7727    0.0000 H   0  0  0  0  0  0  0  0  0  0  0  0
   -3.4406    3.3506    0.0000 H   0  0  0  0  0  0  0  0  0  0  0  0
   -2.5009    1.7532    0.0000 H   0  0  0  0  0  0  0  0  0  0  0  0
   -3.4319    2.2807    0.0000 H   0  0  0  0  0  0  0  0  0  0  0  0
    8.2399   -0.2962    0.0000 H   0  0  0  0  0  0  0  0  0  0  0  0
    9.1687    0.2425    0.0000 H   0  0  0  0  0  0  0  0  0  0  0  0
    8.9510    2.2620    0.0000 H   0  0  0  0  0  0  0  0  0  0  0  0
    9.8798    1.7232    0.0000 H   0  0  0  0  0  0  0  0  0  0  0  0
   11.0841   -0.2107    0.0000 H   0  0  0  0  0  0  0  0  0  0  0  0
   11.7952    2.2620    0.0000 H   0  0  0  0  0  0  0  0  0  0  0  0
   12.7240    1.7232    0.0000 H   0  0  0  0  0  0  0  0  0  0  0  0
   12.4975   -0.2962    0.0000 H   0  0  0  0  0  0  0  0  0  0  0  0
   13.4371    1.3013    0.0000 H   0  0  0  0  0  0  0  0  0  0  0  0
   13.4285    0.2313    0.0000 H   0  0  0  0  0  0  0  0  0  0  0  0
    9.5185    2.5174    0.0000 H   0  0  0  0  0  0  0  0  0  0  0  0
   11.0841    3.5169    0.0000 H   0  0  0  0  0  0  0  0  0  0  0  0
   12.0129    2.9781    0.0000 H   0  0  0  0  0  0  0  0  0  0  0  0
   11.7865    0.9586    0.0000 H   0  0  0  0  0  0  0  0  0  0  0  0
   12.7262    2.5560    0.0000 H   0  0  0  0  0  0  0  0  0  0  0  0
   12.7175    1.4861    0.0000 H   0  0  0  0  0  0  0  0  0  0  0  0
  1  2  2  0  0  0  0
  1  6  1  0  0  0  0
  1113  1  0  0  0  0
  2  3  1  0  0  0  0
  2114  1  0  0  0  0
  3  4  2  0  0  0  0
  3115  1  0  0  0  0
  4  5  1  0  0  0  0
  4  7  1  0  0  0  0
  5  6  2  0  0  0  0
  5 10  1  0  0  0  0
  6116  1  0  0  0  0
  7  8  2  0  0  0  0
  7117  1  0  0  0  0
  8  9  1  0  0  0  0
  8118  1  0  0  0  0
  9 10  2  0  0  0  0
  9 13  1  0  0  0  0
 10119  1  0  0  0  0
 11 14  1  0  0  0  0
 11120  1  0  0  0  0
 12 11  1  0  0  0  0
 12 13  1  0  0  0  0
 12 16  1  0  0  0  0
 12121  1  1  0  0  0
 13122  1  0  0  0  0
 13123  1  0  0  0  0
 14 54  1  0  0  0  0
 14 55  2  0  0  0  0
 15 16  1  0  0  0  0
 15 19  1  0  0  0  0
 15124  1  0  0  0  0
 16 31  2  0  0  0  0
 17 18  2  0  0  0  0
 18 19  1  0  0  0  0
 18 22  1  0  0  0  0
 19 32  1  0  0  0  0
 19125  1  1  0  0  0
 20 81  1  0  0  0  0
 20126  1  0  0  0  0
 20127  1  0  0  0  0
 21 20  1  0  0  0  0
 21 22  1  0  0  0  0
 21 24  1  0  0  0  0
 21128  1  6  0  0  0
 22129  1  0  0  0  0
 23 24  1  0  0  0  0
 23 27  1  0  0  0  0
 23130  1  0  0  0  0
 24 33  2  0  0  0  0
 25 26  2  0  0  0  0
 26 27  1  0  0  0  0
 26 30  1  0  0  0  0
 27 89  1  0  0  0  0
 27131  1  6  0  0  0
 28 74  1  0  0  0  0
 28132  1  0  0  0  0
 28133  1  0  0  0  0
 29 28  1  0  0  0  0
 29 30  1  0  0  0  0
 29 35  1  0  0  0  0
 29134  1  1  0  0  0
 30135  1  0  0  0  0
 32 56  1  0  0  0  0
 32136  1  0  0  0  0
 32137  1  0  0  0  0
 34 35  1  0  0  0  0
 34 38  1  0  0  0  0
 34138  1  0  0  0  0
 35 47  2  0  0  0  0
 36 37  2  0  0  0  0
 37 38  1  0  0  0  0
 37 41  1  0  0  0  0
 38 87  1  0  0  0  0
 38139  1  1  0  0  0
 39 71  1  0  0  0  0
 39140  1  0  0  0  0
 39141  1  0  0  0  0
 40 39  1  0  0  0  0
 40 41  1  0  0  0  0
 40 43  1  0  0  0  0
 40142  1  1  0  0  0
 41143  1  0  0  0  0
 42 43  1  0  0  0  0
 42 46  1  0  0  0  0
 42144  1  0  0  0  0
 43 48  2  0  0  0  0
 44 45  2  0  0  0  0
 45 46  1  0  0  0  0
 45 49  1  0  0  0  0
 46 91  1  0  0  0  0
 46145  1  6  0  0  0
 49 50  1  0  0  0  0
 49 53  1  0  0  0  0
 50 51  1  0  0  0  0
 50 63  1  0  0  0  0
 50146  1  6  0  0  0
 51 52  1  0  0  0  0
 51147  1  0  0  0  0
 51148  1  0  0  0  0
 52 53  1  0  0  0  0
 52149  1  0  0  0  0
 52150  1  0  0  0  0
 53151  1  0  0  0  0
 53152  1  0  0  0  0
 54153  1  0  0  0  0
 54154  1  0  0  0  0
 54155  1  0  0  0  0
 56 57  2  0  0  0  0
 56 61  1  0  0  0  0
 57 58  1  0  0  0  0
 57156  1  0  0  0  0
 58 59  2  0  0  0  0
 58157  1  0  0  0  0
 59 60  1  0  0  0  0
 59 62  1  0  0  0  0
 60 61  2  0  0  0  0
 60158  1  0  0  0  0
 61159  1  0  0  0  0
 63 64  2  0  0  0  0
 63 65  1  0  0  0  0
 65 66  1  0  0  0  0
 65160  1  0  0  0  0
 66 67  1  0  0  0  0
 66 70  1  0  0  0  0
 66161  1  1  0  0  0
 67 68  1  0  0  0  0
 67 69  2  0  0  0  0
 68162  1  0  0  0  0
 68163  1  0  0  0  0
 70164  1  0  0  0  0
 70165  1  0  0  0  0
 70166  1  0  0  0  0
 71 72  1  0  0  0  0
 71 73  1  0  0  0  0
 71167  1  0  0  0  0
 72168  1  0  0  0  0
 72169  1  0  0  0  0
 72170  1  0  0  0  0
 73171  1  0  0  0  0
 73172  1  0  0  0  0
 73173  1  0  0  0  0
 74 75  2  0  0  0  0
 74 79  1  0  0  0  0
 75 76  1  0  0  0  0
 75174  1  0  0  0  0
 76 77  2  0  0  0  0
 76175  1  0  0  0  0
 77 78  1  0  0  0  0
 77 80  1  0  0  0  0
 78 79  2  0  0  0  0
 78176  1  0  0  0  0
 79177  1  0  0  0  0
 80178  1  0  0  0  0
 81 82  2  0  0  0  0
 81 86  1  0  0  0  0
 82 83  1  0  0  0  0
 82179  1  0  0  0  0
 83 84  2  0  0  0  0
 83180  1  0  0  0  0
 84 85  1  0  0  0  0
 84181  1  0  0  0  0
 85 86  2  0  0  0  0
 86182  1  0  0  0  0
 87 88  1  0  0  0  0
 87183  1  0  0  0  0
 87184  1  0  0  0  0
 88 93  1  0  0  0  0
 88185  1  0  0  0  0
 88186  1  0  0  0  0
 89 90  1  0  0  0  0
 89187  1  0  0  0  0
 89188  1  0  0  0  0
 90189  1  0  0  0  0
 91 92  1  0  0  0  0
 91190  1  0  0  0  0
 91191  1  0  0  0  0
 92103  1  0  0  0  0
 92192  1  0  0  0  0
 92193  1  0  0  0  0
 93 94  1  0  0  0  0
 93194  1  0  0  0  0
 93195  1  0  0  0  0
 94 95  1  0  0  0  0
 94196  1  0  0  0  0
 94197  1  0  0  0  0
 95 96  2  0  0  0  0
 96 97  1  0  0  0  0
 96 98  1  0  0  0  0
 97 99  1  0  0  0  0
 97198  1  0  0  0  0
 98101  1  0  0  0  0
 98199  1  0  0  0  0
 99100  1  0  0  0  0
 99200  1  0  0  0  0
 99201  1  0  0  0  0
100202  1  0  0  0  0
100203  1  0  0  0  0
100204  1  0  0  0  0
101102  1  0  0  0  0
101205  1  0  0  0  0
101206  1  0  0  0  0
102207  1  0  0  0  0
102208  1  0  0  0  0
102209  1  0  0  0  0
103104  1  0  0  0  0
103210  1  0  0  0  0
103211  1  0  0  0  0
104105  1  0  0  0  0
104212  1  0  0  0  0
104213  1  0  0  0  0
105106  2  0  0  0  0
106107  1  0  0  0  0
106110  1  0  0  0  0
107108  1  0  0  0  0
107214  1  0  0  0  0
108109  1  0  0  0  0
108215  1  0  0  0  0
108216  1  0  0  0  0
109217  1  0  0  0  0
109218  1  0  0  0  0
109219  1  0  0  0  0
110111  1  0  0  0  0
110220  1  0  0  0  0
111112  1  0  0  0  0
111221  1  0  0  0  0
111222  1  0  0  0  0
112223  1  0  0  0  0
112224  1  0  0  0  0
112225  1  0  0  0  0
M  END
>  <DRUGBANK_ID>
DB06785

>  <COMMON_NAME>
Ganirelix

>  <CAS_NUMBER>
124904-93-4

>  <UNII>
IX503L9WN0

>  <SYNONYMS>
Ganirelix

$$$$
