
 OpenBabel10282417072D

257263  0  0  1  0  0  0  0  0999 V2000
   -4.7868    4.4926    0.0000 C   0  0  0  0  0  0  0  0  0  0  0  0
   -5.3388    3.8795    0.0000 C   0  0  0  0  0  0  0  0  0  0  0  0
   -5.0839    3.0949    0.0000 C   0  0  2  0  0  0  0  0  0  0  0  0
   -5.6359    2.4818    0.0000 C   0  0  0  0  0  0  0  0  0  0  0  0
   -4.2769    2.9233    0.0000 C   0  0  2  0  0  0  0  0  0  0  0  0
   -4.0220    2.1387    0.0000 N   0  0  0  0  0  0  0  0  0  0  0  0
   -4.8235    1.9431    0.0000 C   0  0  0  0  0  0  0  0  0  0  0  0
   -5.6352    2.0904    0.0000 O   0  0  0  0  0  0  0  0  0  0  0  0
   -5.0548    1.1512    0.0000 C   0  0  2  0  0  0  0  0  0  0  0  0
   -5.8563    0.9556    0.0000 C   0  0  0  0  0  0  0  0  0  0  0  0
   -6.4264    1.5519    0.0000 C   0  0  0  0  0  0  0  0  0  0  0  0
   -6.2791    2.3637    0.0000 C   0  0  0  0  0  0  0  0  0  0  0  0
   -7.0056    2.7546    0.0000 N   0  0  0  0  0  0  0  0  0  0  0  0
   -7.6019    2.1845    0.0000 C   0  0  0  0  0  0  0  0  0  0  0  0
   -7.2440    1.4412    0.0000 N   0  0  0  0  0  0  0  0  0  0  0  0
   -4.4847    0.5549    0.0000 N   0  0  0  0  0  0  0  0  0  0  0  0
   -5.1219    0.0309    0.0000 C   0  0  0  0  0  0  0  0  0  0  0  0
   -5.8943    0.3208    0.0000 O   0  0  0  0  0  0  0  0  0  0  0  0
   -4.9868   -0.7828    0.0000 C   0  0  2  0  0  0  0  0  0  0  0  0
   -5.6240   -1.3067    0.0000 C   0  0  0  0  0  0  0  0  0  0  0  0
   -6.3964   -1.0169    0.0000 O   0  0  0  0  0  0  0  0  0  0  0  0
   -4.2144   -1.0727    0.0000 N   0  0  0  0  0  0  0  0  0  0  0  0
   -4.5612   -1.8212    0.0000 C   0  0  0  0  0  0  0  0  0  0  0  0
   -5.3829   -1.8952    0.0000 O   0  0  0  0  0  0  0  0  0  0  0  0
   -4.0863   -2.4959    0.0000 C   0  0  2  0  0  0  0  0  0  0  0  0
   -4.2699   -3.3002    0.0000 C   0  0  0  0  0  0  0  0  0  0  0  0
   -3.5616   -3.7234    0.0000 C   0  0  0  0  0  0  0  0  0  0  0  0
   -2.9404   -3.1805    0.0000 C   0  0  0  0  0  0  0  0  0  0  0  0
   -3.2646   -2.4219    0.0000 N   0  0  0  0  0  0  0  0  0  0  0  0
   -3.2523   -3.2468    0.0000 C   0  0  0  0  0  0  0  0  0  0  0  0
   -3.9605   -3.6700    0.0000 O   0  0  0  0  0  0  0  0  0  0  0  0
   -2.5317   -3.6486    0.0000 C   0  0  2  0  0  0  0  0  0  0  0  0
   -2.5194   -4.4735    0.0000 C   0  0  0  0  0  0  0  0  0  0  0  0
   -3.2276   -4.8966    0.0000 C   0  0  0  0  0  0  0  0  0  0  0  0
   -3.9482   -4.4949    0.0000 C   0  0  0  0  0  0  0  0  0  0  0  0
   -4.6564   -4.9180    0.0000 C   0  0  0  0  0  0  0  0  0  0  0  0
   -4.6441   -5.7429    0.0000 N   0  0  0  0  0  0  0  0  0  0  0  0
   -1.8235   -3.2255    0.0000 N   0  0  0  0  0  0  0  0  0  0  0  0
   -1.4545   -3.9633    0.0000 C   0  0  0  0  0  0  0  0  0  0  0  0
   -1.9090   -4.6519    0.0000 O   0  0  0  0  0  0  0  0  0  0  0  0
   -0.6310   -4.0126    0.0000 C   0  0  2  0  0  0  0  0  0  0  0  0
   -0.1166   -4.6576    0.0000 C   0  0  0  0  0  0  0  0  0  0  0  0
    0.6557   -4.3678    0.0000 C   0  0  0  0  0  0  0  0  0  0  0  0
    0.6187   -3.5436    0.0000 C   0  0  0  0  0  0  0  0  0  0  0  0
   -0.1765   -3.3241    0.0000 N   0  0  0  0  0  0  0  0  0  0  0  0
    0.4761   -3.8288    0.0000 C   0  0  0  0  0  0  0  0  0  0  0  0
    0.3653   -4.6463    0.0000 O   0  0  0  0  0  0  0  0  0  0  0  0
    1.2394   -3.5159    0.0000 C   0  0  2  0  0  0  0  0  0  0  0  0
    1.8921   -4.0206    0.0000 C   0  0  0  0  0  0  0  0  0  0  0  0
    1.7814   -4.8381    0.0000 C   0  0  0  0  0  0  0  0  0  0  0  0
    2.4340   -5.3428    0.0000 C   0  0  0  0  0  0  0  0  0  0  0  0
    2.3232   -6.1604    0.0000 N   0  0  0  0  0  0  0  0  0  0  0  0
    2.9758   -6.6650    0.0000 C   0  0  0  0  0  0  0  0  0  0  0  0
    3.7392   -6.3522    0.0000 N   0  0  0  0  0  0  0  0  0  0  0  0
    2.8651   -7.4826    0.0000 N   0  0  0  0  0  0  0  0  0  0  0  0
    1.3502   -2.6984    0.0000 N   0  0  0  0  0  0  0  0  0  0  0  0
    2.1572   -2.8700    0.0000 C   0  0  0  0  0  0  0  0  0  0  0  0
    2.4121   -3.6546    0.0000 O   0  0  0  0  0  0  0  0  0  0  0  0
    2.7092   -2.2568    0.0000 C   0  0  2  0  0  0  0  0  0  0  0  0
    3.5162   -2.4284    0.0000 C   0  0  0  0  0  0  0  0  0  0  0  0
    3.7711   -3.2130    0.0000 C   0  0  0  0  0  0  0  0  0  0  0  0
    3.2862   -3.8804    0.0000 C   0  0  0  0  0  0  0  0  0  0  0  0
    3.7711   -4.5479    0.0000 N   0  0  0  0  0  0  0  0  0  0  0  0
    4.5557   -4.2929    0.0000 C   0  0  0  0  0  0  0  0  0  0  0  0
    4.5557   -3.4679    0.0000 C   0  0  0  0  0  0  0  0  0  0  0  0
    5.2702   -3.0554    0.0000 C   0  0  0  0  0  0  0  0  0  0  0  0
    5.9847   -3.4679    0.0000 C   0  0  0  0  0  0  0  0  0  0  0  0
    5.9847   -4.2929    0.0000 C   0  0  0  0  0  0  0  0  0  0  0  0
    5.2702   -4.7054    0.0000 C   0  0  0  0  0  0  0  0  0  0  0  0
    2.4543   -1.4722    0.0000 N   0  0  0  0  0  0  0  0  0  0  0  0
    3.2558   -1.2766    0.0000 C   0  0  0  0  0  0  0  0  0  0  0  0
    3.8259   -1.8729    0.0000 O   0  0  0  0  0  0  0  0  0  0  0  0
    3.4871   -0.4847    0.0000 C   0  0  2  0  0  0  0  0  0  0  0  0
    4.2886   -0.2892    0.0000 C   0  0  0  0  0  0  0  0  0  0  0  0
    4.8587   -0.8855    0.0000 C   0  0  0  0  0  0  0  0  0  0  0  0
    5.6602   -0.6899    0.0000 C   0  0  0  0  0  0  0  0  0  0  0  0
    6.2303   -1.2862    0.0000 N   0  0  0  0  0  0  0  0  0  0  0  0
    7.0318   -1.0906    0.0000 C   0  0  0  0  0  0  0  0  0  0  0  0
    7.2631   -0.2987    0.0000 N   0  0  0  0  0  0  0  0  0  0  0  0
    7.6019   -1.6869    0.0000 N   0  0  0  0  0  0  0  0  0  0  0  0
    2.9170    0.1115    0.0000 N   0  0  0  0  0  0  0  0  0  0  0  0
    3.5542    0.6354    0.0000 C   0  0  0  0  0  0  0  0  0  0  0  0
    4.3266    0.3456    0.0000 O   0  0  0  0  0  0  0  0  0  0  0  0
    3.4190    1.4493    0.0000 C   0  0  2  0  0  0  0  0  0  0  0  0
    4.0563    1.9733    0.0000 C   0  0  0  0  0  0  0  0  0  0  0  0
    4.8287    1.6834    0.0000 C   0  0  0  0  0  0  0  0  0  0  0  0
    5.4660    2.2073    0.0000 C   0  0  0  0  0  0  0  0  0  0  0  0
    4.9638    0.8695    0.0000 C   0  0  0  0  0  0  0  0  0  0  0  0
    2.6466    1.7392    0.0000 N   0  0  0  0  0  0  0  0  0  0  0  0
    2.9935    2.4878    0.0000 C   0  0  0  0  0  0  0  0  0  0  0  0
    3.8151    2.5617    0.0000 O   0  0  0  0  0  0  0  0  0  0  0  0
    2.5186    3.1624    0.0000 C   0  0  1  0  0  0  0  0  0  0  0  0
    1.6969    3.0884    0.0000 N   0  0  0  0  0  0  0  0  0  0  0  0
    1.6846    3.9133    0.0000 C   0  0  0  0  0  0  0  0  0  0  0  0
    2.3928    4.3365    0.0000 O   0  0  0  0  0  0  0  0  0  0  0  0
    0.9640    4.3151    0.0000 C   0  0  2  0  0  0  0  0  0  0  0  0
    0.9516    5.1400    0.0000 C   0  0  0  0  0  0  0  0  0  0  0  0
    1.6599    5.5632    0.0000 C   0  0  0  0  0  0  0  0  0  0  0  0
    1.6475    6.3880    0.0000 C   0  0  0  0  0  0  0  0  0  0  0  0
    2.3558    6.8112    0.0000 C   0  0  0  0  0  0  0  0  0  0  0  0
    3.0763    6.4094    0.0000 C   0  0  0  0  0  0  0  0  0  0  0  0
    3.7846    6.8326    0.0000 O   0  0  0  0  0  0  0  0  0  0  0  0
    3.0887    5.5845    0.0000 C   0  0  0  0  0  0  0  0  0  0  0  0
    2.3805    5.1614    0.0000 C   0  0  0  0  0  0  0  0  0  0  0  0
    0.2558    3.8919    0.0000 N   0  0  0  0  0  0  0  0  0  0  0  0
   -0.1131    4.6298    0.0000 C   0  0  0  0  0  0  0  0  0  0  0  0
    0.3413    5.3183    0.0000 O   0  0  0  0  0  0  0  0  0  0  0  0
   -0.9367    4.6792    0.0000 C   0  0  2  0  0  0  0  0  0  0  0  0
   -1.3057    5.4170    0.0000 C   0  0  0  0  0  0  0  0  0  0  0  0
   -0.8512    6.1056    0.0000 C   0  0  0  0  0  0  0  0  0  0  0  0
   -0.0277    6.0562    0.0000 C   0  0  0  0  0  0  0  0  0  0  0  0
    0.4267    6.7447    0.0000 C   0  0  0  0  0  0  0  0  0  0  0  0
    0.0576    7.4826    0.0000 N   0  0  0  0  0  0  0  0  0  0  0  0
   -1.3911    3.9906    0.0000 N   0  0  0  0  0  0  0  0  0  0  0  0
   -2.0438    4.4953    0.0000 C   0  0  0  0  0  0  0  0  0  0  0  0
   -1.9331    5.3128    0.0000 O   0  0  0  0  0  0  0  0  0  0  0  0
   -2.8072    4.1825    0.0000 C   0  0  2  0  0  0  0  0  0  0  0  0
   -3.4598    4.6871    0.0000 C   0  0  0  0  0  0  0  0  0  0  0  0
   -3.3491    5.5047    0.0000 O   0  0  0  0  0  0  0  0  0  0  0  0
   -2.9179    3.3649    0.0000 N   0  0  0  0  0  0  0  0  0  0  0  0
   -3.7249    3.5364    0.0000 C   0  0  0  0  0  0  0  0  0  0  0  0
   -3.9798    4.3210    0.0000 O   0  0  0  0  0  0  0  0  0  0  0  0
    2.8654    3.9110    0.0000 C   0  0  1  0  0  0  0  0  0  0  0  0
    2.6222    4.6993    0.0000 C   0  0  0  0  0  0  0  0  0  0  0  0
    3.6871    3.9849    0.0000 C   0  0  0  0  0  0  0  0  0  0  0  0
    4.0338    4.7335    0.0000 C   0  0  0  0  0  0  0  0  0  0  0  0
   -3.7402    4.2702    0.0000 H   0  0  0  0  0  0  0  0  0  0  0  0
   -5.1175    5.5102    0.0000 H   0  0  0  0  0  0  0  0  0  0  0  0
   -4.0709    5.2878    0.0000 H   0  0  0  0  0  0  0  0  0  0  0  0
   -6.3854    4.1020    0.0000 H   0  0  0  0  0  0  0  0  0  0  0  0
   -6.0548    3.0843    0.0000 H   0  0  0  0  0  0  0  0  0  0  0  0
   -6.1305    3.3174    0.0000 H   0  0  0  0  0  0  0  0  0  0  0  0
   -6.6825    2.7042    0.0000 H   0  0  0  0  0  0  0  0  0  0  0  0
   -5.3052    1.4642    0.0000 H   0  0  0  0  0  0  0  0  0  0  0  0
   -6.3518    1.6866    0.0000 H   0  0  0  0  0  0  0  0  0  0  0  0
   -4.9929    2.1282    0.0000 H   0  0  0  0  0  0  0  0  0  0  0  0
   -3.1621    1.6592    0.0000 H   0  0  0  0  0  0  0  0  0  0  0  0
   -5.7943    1.9246    0.0000 H   0  0  0  0  0  0  0  0  0  0  0  0
   -6.1564   -0.0715    0.0000 H   0  0  0  0  0  0  0  0  0  0  0  0
   -6.8958    0.7019    0.0000 H   0  0  0  0  0  0  0  0  0  0  0  0
   -5.3493    2.8115    0.0000 H   0  0  0  0  0  0  0  0  0  0  0  0
   -7.1378    3.7302    0.0000 H   0  0  0  0  0  0  0  0  0  0  0  0
   -8.6173    2.3688    0.0000 H   0  0  0  0  0  0  0  0  0  0  0  0
   -3.5020    0.4960    0.0000 H   0  0  0  0  0  0  0  0  0  0  0  0
   -5.9886   -0.4068    0.0000 H   0  0  0  0  0  0  0  0  0  0  0  0
   -5.4487   -2.3622    0.0000 H   0  0  0  0  0  0  0  0  0  0  0  0
   -6.4504   -1.9863    0.0000 H   0  0  0  0  0  0  0  0  0  0  0  0
   -6.5554   -0.0600    0.0000 H   0  0  0  0  0  0  0  0  0  0  0  0
   -3.3034   -0.6994    0.0000 H   0  0  0  0  0  0  0  0  0  0  0  0
   -3.6365   -1.5250    0.0000 H   0  0  0  0  0  0  0  0  0  0  0  0
   -5.2538   -3.7207    0.0000 H   0  0  0  0  0  0  0  0  0  0  0  0
   -4.3419   -4.3678    0.0000 H   0  0  0  0  0  0  0  0  0  0  0  0
   -3.4656   -4.7891    0.0000 H   0  0  0  0  0  0  0  0  0  0  0  0
   -2.5685   -4.1216    0.0000 H   0  0  0  0  0  0  0  0  0  0  0  0
   -1.8972   -3.4185    0.0000 H   0  0  0  0  0  0  0  0  0  0  0  0
   -2.2547   -2.3591    0.0000 H   0  0  0  0  0  0  0  0  0  0  0  0
   -3.4503   -4.1974    0.0000 H   0  0  0  0  0  0  0  0  0  0  0  0
   -1.5849   -4.9946    0.0000 H   0  0  0  0  0  0  0  0  0  0  0  0
   -2.5034   -5.5434    0.0000 H   0  0  0  0  0  0  0  0  0  0  0  0
   -3.2116   -5.9665    0.0000 H   0  0  0  0  0  0  0  0  0  0  0  0
   -4.1461   -5.4455    0.0000 H   0  0  0  0  0  0  0  0  0  0  0  0
   -3.9642   -3.4250    0.0000 H   0  0  0  0  0  0  0  0  0  0  0  0
   -4.8827   -3.9738    0.0000 H   0  0  0  0  0  0  0  0  0  0  0  0
   -5.5909   -4.3969    0.0000 H   0  0  0  0  0  0  0  0  0  0  0  0
   -5.5750   -5.4668    0.0000 H   0  0  0  0  0  0  0  0  0  0  0  0
   -5.5197   -6.2660    0.0000 H   0  0  0  0  0  0  0  0  0  0  0  0
   -3.7532   -6.2397    0.0000 H   0  0  0  0  0  0  0  0  0  0  0  0
   -1.5474   -2.2805    0.0000 H   0  0  0  0  0  0  0  0  0  0  0  0
   -1.1096   -3.0556    0.0000 H   0  0  0  0  0  0  0  0  0  0  0  0
   -0.4013   -5.6890    0.0000 H   0  0  0  0  0  0  0  0  0  0  0  0
    0.6732   -5.3795    0.0000 H   0  0  0  0  0  0  0  0  0  0  0  0
    1.5487   -4.9573    0.0000 H   0  0  0  0  0  0  0  0  0  0  0  0
    1.5863   -3.8398    0.0000 H   0  0  0  0  0  0  0  0  0  0  0  0
    1.4553   -2.8765    0.0000 H   0  0  0  0  0  0  0  0  0  0  0  0
    0.4041   -2.4953    0.0000 H   0  0  0  0  0  0  0  0  0  0  0  0
    1.0958   -4.5762    0.0000 H   0  0  0  0  0  0  0  0  0  0  0  0
    2.8822   -3.6148    0.0000 H   0  0  0  0  0  0  0  0  0  0  0  0
    2.7386   -4.6751    0.0000 H   0  0  0  0  0  0  0  0  0  0  0  0
    0.7913   -5.2439    0.0000 H   0  0  0  0  0  0  0  0  0  0  0  0
    1.6377   -5.8984    0.0000 H   0  0  0  0  0  0  0  0  0  0  0  0
    3.4241   -4.9371    0.0000 H   0  0  0  0  0  0  0  0  0  0  0  0
    3.2804   -5.9974    0.0000 H   0  0  0  0  0  0  0  0  0  0  0  0
    1.4122   -6.5337    0.0000 H   0  0  0  0  0  0  0  0  0  0  0  0
    4.5180   -6.9545    0.0000 H   0  0  0  0  0  0  0  0  0  0  0  0
    3.8714   -5.3766    0.0000 H   0  0  0  0  0  0  0  0  0  0  0  0
    1.9542   -7.8560    0.0000 H   0  0  0  0  0  0  0  0  0  0  0  0
    0.7836   -1.8933    0.0000 H   0  0  0  0  0  0  0  0  0  0  0  0
    3.0399   -3.2744    0.0000 H   0  0  0  0  0  0  0  0  0  0  0  0
    4.2322   -1.6333    0.0000 H   0  0  0  0  0  0  0  0  0  0  0  0
    4.5628   -2.6509    0.0000 H   0  0  0  0  0  0  0  0  0  0  0  0
    2.2542   -3.8804    0.0000 H   0  0  0  0  0  0  0  0  0  0  0  0
    3.4669   -5.4842    0.0000 H   0  0  0  0  0  0  0  0  0  0  0  0
    5.2702   -2.0234    0.0000 H   0  0  0  0  0  0  0  0  0  0  0  0
    6.8784   -2.9519    0.0000 H   0  0  0  0  0  0  0  0  0  0  0  0
    6.8784   -4.8089    0.0000 H   0  0  0  0  0  0  0  0  0  0  0  0
    5.2702   -5.7374    0.0000 H   0  0  0  0  0  0  0  0  0  0  0  0
    1.5944   -0.9927    0.0000 H   0  0  0  0  0  0  0  0  0  0  0  0
    4.2265   -1.2581    0.0000 H   0  0  0  0  0  0  0  0  0  0  0  0
    4.5887    0.7378    0.0000 H   0  0  0  0  0  0  0  0  0  0  0  0
    5.3281   -0.0356    0.0000 H   0  0  0  0  0  0  0  0  0  0  0  0
    4.5586   -1.9126    0.0000 H   0  0  0  0  0  0  0  0  0  0  0  0
    5.5981   -1.6589    0.0000 H   0  0  0  0  0  0  0  0  0  0  0  0
    5.9603    0.3372    0.0000 H   0  0  0  0  0  0  0  0  0  0  0  0
    6.6997   -0.4362    0.0000 H   0  0  0  0  0  0  0  0  0  0  0  0
    5.9542   -2.2312    0.0000 H   0  0  0  0  0  0  0  0  0  0  0  0
    8.2195   -0.0652    0.0000 H   0  0  0  0  0  0  0  0  0  0  0  0
    6.5827    0.4128    0.0000 H   0  0  0  0  0  0  0  0  0  0  0  0
    7.3258   -2.6319    0.0000 H   0  0  0  0  0  0  0  0  0  0  0  0
    1.9343    0.1704    0.0000 H   0  0  0  0  0  0  0  0  0  0  0  0
    4.4208    1.0733    0.0000 H   0  0  0  0  0  0  0  0  0  0  0  0
    3.8810    3.0288    0.0000 H   0  0  0  0  0  0  0  0  0  0  0  0
    4.8828    2.6529    0.0000 H   0  0  0  0  0  0  0  0  0  0  0  0
    5.8304    1.3073    0.0000 H   0  0  0  0  0  0  0  0  0  0  0  0
    6.4677    1.8312    0.0000 H   0  0  0  0  0  0  0  0  0  0  0  0
    5.2908    3.2629    0.0000 H   0  0  0  0  0  0  0  0  0  0  0  0
    6.2926    2.8868    0.0000 H   0  0  0  0  0  0  0  0  0  0  0  0
    4.1373    0.1900    0.0000 H   0  0  0  0  0  0  0  0  0  0  0  0
    5.9655    0.4935    0.0000 H   0  0  0  0  0  0  0  0  0  0  0  0
    5.1390   -0.1861    0.0000 H   0  0  0  0  0  0  0  0  0  0  0  0
    1.7356    1.3659    0.0000 H   0  0  0  0  0  0  0  0  0  0  0  0
    3.5843    3.2583    0.0000 H   0  0  0  0  0  0  0  0  0  0  0  0
    1.0381    2.3568    0.0000 H   0  0  0  0  0  0  0  0  0  0  0  0
    1.8825    4.8639    0.0000 H   0  0  0  0  0  0  0  0  0  0  0  0
    0.0170    5.6610    0.0000 H   0  0  0  0  0  0  0  0  0  0  0  0
    0.9356    6.2099    0.0000 H   0  0  0  0  0  0  0  0  0  0  0  0
    0.7461    6.8905    0.0000 H   0  0  0  0  0  0  0  0  0  0  0  0
    2.3404    7.8431    0.0000 H   0  0  0  0  0  0  0  0  0  0  0  0
    4.6030    6.3763    0.0000 H   0  0  0  0  0  0  0  0  0  0  0  0
    3.9901    5.0819    0.0000 H   0  0  0  0  0  0  0  0  0  0  0  0
    2.3959    4.1295    0.0000 H   0  0  0  0  0  0  0  0  0  0  0  0
   -0.0203    2.9469    0.0000 H   0  0  0  0  0  0  0  0  0  0  0  0
   -0.3472    5.5722    0.0000 H   0  0  0  0  0  0  0  0  0  0  0  0
   -2.3738    5.4810    0.0000 H   0  0  0  0  0  0  0  0  0  0  0  0
   -1.7844    6.3740    0.0000 H   0  0  0  0  0  0  0  0  0  0  0  0
   -1.3298    7.0626    0.0000 H   0  0  0  0  0  0  0  0  0  0  0  0
   -0.2617    6.9986    0.0000 H   0  0  0  0  0  0  0  0  0  0  0  0
    0.4509    5.0992    0.0000 H   0  0  0  0  0  0  0  0  0  0  0  0
    1.0404    5.9922    0.0000 H   0  0  0  0  0  0  0  0  0  0  0  0
    1.4948    6.6808    0.0000 H   0  0  0  0  0  0  0  0  0  0  0  0
    1.0161    7.6377    0.0000 H   0  0  0  0  0  0  0  0  0  0  0  0
    0.6195    8.3339    0.0000 H   0  0  0  0  0  0  0  0  0  0  0  0
   -0.9606    7.5435    0.0000 H   0  0  0  0  0  0  0  0  0  0  0  0
   -1.2297    3.0194    0.0000 H   0  0  0  0  0  0  0  0  0  0  0  0
   -2.6636    5.2428    0.0000 H   0  0  0  0  0  0  0  0  0  0  0  0
   -4.4499    4.2813    0.0000 H   0  0  0  0  0  0  0  0  0  0  0  0
   -4.3063    5.3416    0.0000 H   0  0  0  0  0  0  0  0  0  0  0  0
   -2.4516    5.8726    0.0000 H   0  0  0  0  0  0  0  0  0  0  0  0
   -2.3512    2.5599    0.0000 H   0  0  0  0  0  0  0  0  0  0  0  0
    3.4615    4.7996    0.0000 H   0  0  0  0  0  0  0  0  0  0  0  0
    3.3499    5.4837    0.0000 H   0  0  0  0  0  0  0  0  0  0  0  0
    1.5790    4.9373    0.0000 H   0  0  0  0  0  0  0  0  0  0  0  0
    2.3068    5.7217    0.0000 H   0  0  0  0  0  0  0  0  0  0  0  0
    4.3030    3.1100    0.0000 H   0  0  0  0  0  0  0  0  0  0  0  0
    4.7528    4.0809    0.0000 H   0  0  0  0  0  0  0  0  0  0  0  0
    5.0995    4.8295    0.0000 H   0  0  0  0  0  0  0  0  0  0  0  0
    3.4178    5.6084    0.0000 H   0  0  0  0  0  0  0  0  0  0  0  0
    4.4835    5.7044    0.0000 H   0  0  0  0  0  0  0  0  0  0  0  0
  1  2  1  0  0  0  0
  1127  1  0  0  0  0
  1128  1  0  0  0  0
  1129  1  0  0  0  0
  2130  1  0  0  0  0
  2131  1  0  0  0  0
  3  2  1  0  0  0  0
  3  4  1  0  0  0  0
  3  5  1  0  0  0  0
  3132  1  6  0  0  0
  4133  1  0  0  0  0
  4134  1  0  0  0  0
  4135  1  0  0  0  0
  5  6  1  0  0  0  0
  5121  1  0  0  0  0
  5136  1  6  0  0  0
  6  7  1  0  0  0  0
  6137  1  0  0  0  0
  7  8  2  0  0  0  0
  9  7  1  0  0  0  0
  9 10  1  0  0  0  0
  9 16  1  0  0  0  0
  9138  1  6  0  0  0
 10 11  1  0  0  0  0
 10139  1  0  0  0  0
 10140  1  0  0  0  0
 11 12  2  0  0  0  0
 11 15  1  0  0  0  0
 12 13  1  0  0  0  0
 12141  1  0  0  0  0
 13 14  1  0  0  0  0
 13142  1  0  0  0  0
 14 15  2  0  0  0  0
 14143  1  0  0  0  0
 16 17  1  0  0  0  0
 16144  1  0  0  0  0
 17 18  2  0  0  0  0
 19 17  1  0  0  0  0
 19 20  1  0  0  0  0
 19 22  1  0  0  0  0
 19145  1  6  0  0  0
 20 21  1  0  0  0  0
 20146  1  0  0  0  0
 20147  1  0  0  0  0
 21148  1  0  0  0  0
 22 23  1  0  0  0  0
 22149  1  0  0  0  0
 23 24  2  0  0  0  0
 25 23  1  0  0  0  0
 25 26  1  0  0  0  0
 25 29  1  0  0  0  0
 25150  1  6  0  0  0
 26 27  1  0  0  0  0
 26151  1  0  0  0  0
 26152  1  0  0  0  0
 27 28  1  0  0  0  0
 27153  1  0  0  0  0
 27154  1  0  0  0  0
 28 29  1  0  0  0  0
 28155  1  0  0  0  0
 28156  1  0  0  0  0
 29 30  1  0  0  0  0
 30 31  2  0  0  0  0
 32 30  1  0  0  0  0
 32 33  1  0  0  0  0
 32 38  1  0  0  0  0
 32157  1  6  0  0  0
 33 34  1  0  0  0  0
 33158  1  0  0  0  0
 33159  1  0  0  0  0
 34 35  1  0  0  0  0
 34160  1  0  0  0  0
 34161  1  0  0  0  0
 35 36  1  0  0  0  0
 35162  1  0  0  0  0
 35163  1  0  0  0  0
 36 37  1  0  0  0  0
 36164  1  0  0  0  0
 36165  1  0  0  0  0
 37166  1  0  0  0  0
 37167  1  0  0  0  0
 38 39  1  0  0  0  0
 38168  1  0  0  0  0
 39 40  2  0  0  0  0
 41 39  1  0  0  0  0
 41 42  1  0  0  0  0
 41 45  1  0  0  0  0
 41169  1  6  0  0  0
 42 43  1  0  0  0  0
 42170  1  0  0  0  0
 42171  1  0  0  0  0
 43 44  1  0  0  0  0
 43172  1  0  0  0  0
 43173  1  0  0  0  0
 44 45  1  0  0  0  0
 44174  1  0  0  0  0
 44175  1  0  0  0  0
 45 46  1  0  0  0  0
 46 47  2  0  0  0  0
 48 46  1  0  0  0  0
 48 49  1  0  0  0  0
 48 56  1  0  0  0  0
 48176  1  6  0  0  0
 49 50  1  0  0  0  0
 49177  1  0  0  0  0
 49178  1  0  0  0  0
 50 51  1  0  0  0  0
 50179  1  0  0  0  0
 50180  1  0  0  0  0
 51 52  1  0  0  0  0
 51181  1  0  0  0  0
 51182  1  0  0  0  0
 52 53  1  0  0  0  0
 52183  1  0  0  0  0
 53 54  1  0  0  0  0
 53 55  2  0  0  0  0
 54184  1  0  0  0  0
 54185  1  0  0  0  0
 55186  1  0  0  0  0
 56 57  1  0  0  0  0
 56187  1  0  0  0  0
 57 58  2  0  0  0  0
 59 57  1  0  0  0  0
 59 60  1  0  0  0  0
 59 70  1  0  0  0  0
 59188  1  6  0  0  0
 60 61  1  0  0  0  0
 60189  1  0  0  0  0
 60190  1  0  0  0  0
 61 62  2  0  0  0  0
 61 65  1  0  0  0  0
 62 63  1  0  0  0  0
 62191  1  0  0  0  0
 63 64  1  0  0  0  0
 63192  1  0  0  0  0
 64 65  2  0  0  0  0
 64 69  1  0  0  0  0
 65 66  1  0  0  0  0
 66 67  2  0  0  0  0
 66193  1  0  0  0  0
 67 68  1  0  0  0  0
 67194  1  0  0  0  0
 68 69  2  0  0  0  0
 68195  1  0  0  0  0
 69196  1  0  0  0  0
 70 71  1  0  0  0  0
 70197  1  0  0  0  0
 71 72  2  0  0  0  0
 73 71  1  0  0  0  0
 73 74  1  0  0  0  0
 73 81  1  0  0  0  0
 73198  1  6  0  0  0
 74 75  1  0  0  0  0
 74199  1  0  0  0  0
 74200  1  0  0  0  0
 75 76  1  0  0  0  0
 75201  1  0  0  0  0
 75202  1  0  0  0  0
 76 77  1  0  0  0  0
 76203  1  0  0  0  0
 76204  1  0  0  0  0
 77 78  1  0  0  0  0
 77205  1  0  0  0  0
 78 79  1  0  0  0  0
 78 80  2  0  0  0  0
 79206  1  0  0  0  0
 79207  1  0  0  0  0
 80208  1  0  0  0  0
 81 82  1  0  0  0  0
 81209  1  0  0  0  0
 82 83  2  0  0  0  0
 84 82  1  0  0  0  0
 84 85  1  0  0  0  0
 84 89  1  0  0  0  0
 84210  1  6  0  0  0
 85 86  1  0  0  0  0
 85211  1  0  0  0  0
 85212  1  0  0  0  0
 86 87  1  0  0  0  0
 86 88  1  0  0  0  0
 86213  1  0  0  0  0
 87214  1  0  0  0  0
 87215  1  0  0  0  0
 87216  1  0  0  0  0
 88217  1  0  0  0  0
 88218  1  0  0  0  0
 88219  1  0  0  0  0
 89 90  1  0  0  0  0
 89220  1  0  0  0  0
 90 91  2  0  0  0  0
 92 90  1  0  0  0  0
 92 93  1  0  0  0  0
 92123  1  0  0  0  0
 92221  1  6  0  0  0
 93 94  1  0  0  0  0
 93222  1  0  0  0  0
 94 95  2  0  0  0  0
 96 94  1  0  0  0  0
 96 97  1  0  0  0  0
 96105  1  0  0  0  0
 96223  1  6  0  0  0
 97 98  1  0  0  0  0
 97224  1  0  0  0  0
 97225  1  0  0  0  0
 98 99  2  0  0  0  0
 98104  1  0  0  0  0
 99100  1  0  0  0  0
 99226  1  0  0  0  0
100101  2  0  0  0  0
100227  1  0  0  0  0
101102  1  0  0  0  0
101103  1  0  0  0  0
102228  1  0  0  0  0
103104  2  0  0  0  0
103229  1  0  0  0  0
104230  1  0  0  0  0
105106  1  0  0  0  0
105231  1  0  0  0  0
106107  2  0  0  0  0
108106  1  0  0  0  0
108109  1  0  0  0  0
108114  1  0  0  0  0
108232  1  6  0  0  0
109110  1  0  0  0  0
109233  1  0  0  0  0
109234  1  0  0  0  0
110111  1  0  0  0  0
110235  1  0  0  0  0
110236  1  0  0  0  0
111112  1  0  0  0  0
111237  1  0  0  0  0
111238  1  0  0  0  0
112113  1  0  0  0  0
112239  1  0  0  0  0
112240  1  0  0  0  0
113241  1  0  0  0  0
113242  1  0  0  0  0
114115  1  0  0  0  0
114243  1  0  0  0  0
115116  2  0  0  0  0
117115  1  0  0  0  0
117118  1  0  0  0  0
117120  1  0  0  0  0
117244  1  6  0  0  0
118119  1  0  0  0  0
118245  1  0  0  0  0
118246  1  0  0  0  0
119247  1  0  0  0  0
120121  1  0  0  0  0
120248  1  0  0  0  0
121122  2  0  0  0  0
123124  1  0  0  0  0
123125  1  0  0  0  0
123249  1  6  0  0  0
124250  1  0  0  0  0
124251  1  0  0  0  0
124252  1  0  0  0  0
125126  1  0  0  0  0
125253  1  0  0  0  0
125254  1  0  0  0  0
126255  1  0  0  0  0
126256  1  0  0  0  0
126257  1  0  0  0  0
M  END
>  <DRUGBANK_ID>
DB18169

>  <COMMON_NAME>
CP-12

>  <UNII>
SM5MFZ7FKP

>  <SYNONYMS>
CYCLIZED P12 (PEPTIDE BOND BETWEEN THE CARBOXY AND AMINO-TERMINAL ENDS OF THE LINEAR PEPTIDE PSHISKYILRWRPK); PROLYL-L-SERYL-L-HISTIDYL-L-ISOLEUCYL-L-SERYL-L-LYSYL-L-TYROSYL-L-ISOLEUCYL-L-LEUCYL- L-ARGINYL-L-TRYPTOPHANYL-L-ARGINYL-L-PROLYL-L-LYSYL), CYCLO (1-14)

$$$$
