TH2
 OpenBabel10282417072D

 60 63  0  0  0  0  0  0  0  0999 V2000
   -0.1432    2.1535    0.0000 C   0  0  0  0  0  0  0  0  0  0  0  0
   -0.3982    2.9382    0.0000 C   0  0  0  0  0  0  0  0  0  0  0  0
   -1.2051    3.1097    0.0000 C   0  0  0  0  0  0  0  0  0  0  0  0
   -1.4601    3.8943    0.0000 O   0  0  0  0  0  0  0  0  0  0  0  0
   -1.7572    2.4966    0.0000 C   0  0  0  0  0  0  0  0  0  0  0  0
   -1.5022    1.7120    0.0000 C   0  0  0  0  0  0  0  0  0  0  0  0
   -2.0543    1.0989    0.0000 C   0  0  0  0  0  0  0  0  0  0  0  0
   -1.7993    0.3143    0.0000 C   0  0  0  0  0  0  0  0  0  0  0  0
   -0.9923    0.1427    0.0000 C   0  0  2  0  0  0  0  0  0  0  0  0
   -0.4403    0.7558    0.0000 C   0  0  1  0  0  0  0  0  0  0  0  0
   -0.6952    1.5404    0.0000 C   0  0  1  0  0  0  0  0  0  0  0  0
    0.3667    0.5843    0.0000 C   0  0  0  0  0  0  0  0  0  0  0  0
    0.6216   -0.2003    0.0000 C   0  0  0  0  0  0  0  0  0  0  0  0
    0.0696   -0.8134    0.0000 C   0  0  1  0  0  0  0  0  0  0  0  0
   -0.7374   -0.6419    0.0000 C   0  0  1  0  0  0  0  0  0  0  0  0
   -1.1499   -1.3564    0.0000 C   0  0  0  0  0  0  0  0  0  0  0  0
   -0.5979   -1.9695    0.0000 C   0  0  0  0  0  0  0  0  0  0  0  0
    0.1558   -1.6339    0.0000 C   0  0  2  0  0  0  0  0  0  0  0  0
    0.8703   -2.0464    0.0000 O   0  0  0  0  0  0  0  0  0  0  0  0
    0.8542   -1.0684    0.0000 C   0  0  0  0  0  0  0  0  0  0  0  0
    1.5847   -1.6339    0.0000 C   0  0  0  0  0  0  0  0  0  0  0  0
    1.5847   -0.8089    0.0000 O   0  0  0  0  0  0  0  0  0  0  0  0
    3.0137   -1.6339    0.0000 C   0  0  0  0  0  0  0  0  0  0  0  0
    2.2992   -2.0464    0.0000 C   0  0  0  0  0  0  0  0  0  0  0  0
    3.7282   -2.0464    0.0000 C   0  0  0  0  0  0  0  0  0  0  0  0
    4.4426   -1.6339    0.0000 O   0  0  0  0  0  0  0  0  0  0  0  0
    3.7282   -2.8714    0.0000 O   0  0  0  0  0  0  0  0  0  0  0  0
    0.1117    1.3689    0.0000 C   0  0  0  0  0  0  0  0  0  0  0  0
   -1.3831   -0.2912    0.0000 H   0  0  0  0  0  0  0  0  0  0  0  0
    0.0753    1.0300    0.0000 H   0  0  0  0  0  0  0  0  0  0  0  0
   -1.3181   -0.5809    0.0000 H   0  0  0  0  0  0  0  0  0  0  0  0
    0.6455   -1.3159    0.0000 H   0  0  0  0  0  0  0  0  0  0  0  0
    0.9034    1.9311    0.0000 H   0  0  0  0  0  0  0  0  0  0  0  0
    0.1875    1.1359    0.0000 H   0  0  0  0  0  0  0  0  0  0  0  0
    0.3177    3.7334    0.0000 H   0  0  0  0  0  0  0  0  0  0  0  0
   -0.7289    3.9558    0.0000 H   0  0  0  0  0  0  0  0  0  0  0  0
   -2.7667    2.7112    0.0000 H   0  0  0  0  0  0  0  0  0  0  0  0
   -3.1009    1.3214    0.0000 H   0  0  0  0  0  0  0  0  0  0  0  0
   -2.7702    0.3037    0.0000 H   0  0  0  0  0  0  0  0  0  0  0  0
   -2.5153   -0.4809    0.0000 H   0  0  0  0  0  0  0  0  0  0  0  0
   -1.4687   -0.7033    0.0000 H   0  0  0  0  0  0  0  0  0  0  0  0
    1.0827    1.3795    0.0000 H   0  0  0  0  0  0  0  0  0  0  0  0
    1.4133    0.3618    0.0000 H   0  0  0  0  0  0  0  0  0  0  0  0
    1.6682   -0.4228    0.0000 H   0  0  0  0  0  0  0  0  0  0  0  0
    0.9523   -1.2179    0.0000 H   0  0  0  0  0  0  0  0  0  0  0  0
   -2.2140   -1.4682    0.0000 H   0  0  0  0  0  0  0  0  0  0  0  0
   -1.5334   -2.3553    0.0000 H   0  0  0  0  0  0  0  0  0  0  0  0
   -0.8204   -3.0161    0.0000 H   0  0  0  0  0  0  0  0  0  0  0  0
    0.2337   -2.6429    0.0000 H   0  0  0  0  0  0  0  0  0  0  0  0
    1.0766   -2.1150    0.0000 H   0  0  0  0  0  0  0  0  0  0  0  0
    1.6494   -0.3525    0.0000 H   0  0  0  0  0  0  0  0  0  0  0  0
    1.8718   -1.3991    0.0000 H   0  0  0  0  0  0  0  0  0  0  0  0
    3.0137   -0.5639    0.0000 H   0  0  0  0  0  0  0  0  0  0  0  0
    3.9403   -1.0989    0.0000 H   0  0  0  0  0  0  0  0  0  0  0  0
    2.2992   -3.1164    0.0000 H   0  0  0  0  0  0  0  0  0  0  0  0
    3.2258   -2.5814    0.0000 H   0  0  0  0  0  0  0  0  0  0  0  0
    2.9167   -3.3399    0.0000 H   0  0  0  0  0  0  0  0  0  0  0  0
    0.4424    0.3513    0.0000 H   0  0  0  0  0  0  0  0  0  0  0  0
    0.8277    2.1641    0.0000 H   0  0  0  0  0  0  0  0  0  0  0  0
    1.1583    1.1464    0.0000 H   0  0  0  0  0  0  0  0  0  0  0  0
  1  2  1  0  0  0  0
  1 11  1  0  0  0  0
  1 33  1  0  0  0  0
  1 34  1  0  0  0  0
  2  3  1  0  0  0  0
  2 35  1  0  0  0  0
  2 36  1  0  0  0  0
  3  4  2  0  0  0  0
  3  5  1  0  0  0  0
  5  6  2  0  0  0  0
  5 37  1  0  0  0  0
  6  7  1  0  0  0  0
  6 11  1  0  0  0  0
  7  8  1  0  0  0  0
  7 38  1  0  0  0  0
  7 39  1  0  0  0  0
  8  9  1  0  0  0  0
  8 40  1  0  0  0  0
  8 41  1  0  0  0  0
  9 10  1  0  0  0  0
  9 15  1  0  0  0  0
  9 29  1  1  0  0  0
 10 11  1  0  0  0  0
 10 12  1  0  0  0  0
 10 30  1  6  0  0  0
 11 28  1  1  0  0  0
 12 13  1  0  0  0  0
 12 42  1  0  0  0  0
 12 43  1  0  0  0  0
 13 14  1  0  0  0  0
 13 44  1  0  0  0  0
 13 45  1  0  0  0  0
 14 15  1  0  0  0  0
 14 18  1  0  0  0  0
 14 20  1  1  0  0  0
 15 16  1  0  0  0  0
 15 31  1  6  0  0  0
 16 17  1  0  0  0  0
 16 46  1  0  0  0  0
 16 47  1  0  0  0  0
 17 18  1  0  0  0  0
 17 48  1  0  0  0  0
 17 49  1  0  0  0  0
 18 19  1  0  0  0  0
 18 32  1  6  0  0  0
 19 21  1  0  0  0  0
 20 50  1  0  0  0  0
 20 51  1  0  0  0  0
 20 52  1  0  0  0  0
 21 22  2  0  0  0  0
 21 24  1  0  0  0  0
 23 24  1  0  0  0  0
 23 25  1  0  0  0  0
 23 53  1  0  0  0  0
 23 54  1  0  0  0  0
 24 55  1  0  0  0  0
 24 56  1  0  0  0  0
 25 26  2  0  0  0  0
 25 27  1  0  0  0  0
 27 57  1  0  0  0  0
 28 58  1  0  0  0  0
 28 59  1  0  0  0  0
 28 60  1  0  0  0  0
M  END
>  <DRUGBANK_ID>
DB08619

>  <COMMON_NAME>
Testosterone succinate

>  <CAS_NUMBER>
521-15-3

>  <UNII>
4114I54YIH

>  <SYNONYMS>
Testosterone 17-hemisuccinate; Testosterone hemisuccinate; Testosterone-17-succinate

$$$$
