
 OpenBabel10282417072D

 47 48  0  0  0  0  0  0  0  0999 V2000
   -1.2421    0.5418    0.0000 C   0  0  0  0  0  0  0  0  0  0  0  0
   -0.8281    1.2554    0.0000 O   0  0  0  0  0  0  0  0  0  0  0  0
   -0.8281   -0.1717    0.0000 C   0  0  1  0  0  0  0  0  0  0  0  0
   -0.1145    0.2422    0.0000 N   0  0  0  0  0  0  0  0  0  0  0  0
   -1.5417   -0.5858    0.0000 C   0  0  1  0  0  0  0  0  0  0  0  0
   -1.5417   -1.4139    0.0000 O   0  0  0  0  0  0  0  0  0  0  0  0
   -2.2553   -1.8280    0.0000 C   0  0  0  0  0  0  0  0  0  0  0  0
   -2.9776   -1.4139    0.0000 C   0  0  0  0  0  0  0  0  0  0  0  0
   -2.9776   -0.5858    0.0000 C   0  0  0  0  0  0  0  0  0  0  0  0
   -3.6912   -0.1717    0.0000 C   0  0  0  0  0  0  0  0  0  0  0  0
   -2.2553   -0.1717    0.0000 N   0  0  0  0  0  0  0  0  0  0  0  0
   -3.6912   -1.8280    0.0000 C   0  0  0  0  0  0  0  0  0  0  0  0
    0.6695   -0.0484    0.0000 C   0  0  0  0  0  0  0  0  0  0  0  0
    0.8104   -0.8589    0.0000 O   0  0  0  0  0  0  0  0  0  0  0  0
    1.2949    0.4889    0.0000 C   0  0  2  0  0  0  0  0  0  0  0  0
    2.0790    0.2070    0.0000 C   0  0  0  0  0  0  0  0  0  0  0  0
    2.7045    0.7355    0.0000 C   0  0  0  0  0  0  0  0  0  0  0  0
    3.4886    0.4537    0.0000 C   0  0  0  0  0  0  0  0  0  0  0  0
    3.6295   -0.3655    0.0000 C   0  0  0  0  0  0  0  0  0  0  0  0
    4.4048   -0.6475    0.0000 O   0  0  0  0  0  0  0  0  0  0  0  0
    2.9952   -0.8941    0.0000 C   0  0  0  0  0  0  0  0  0  0  0  0
    2.2200   -0.6122    0.0000 C   0  0  0  0  0  0  0  0  0  0  0  0
    1.1540    1.2994    0.0000 C   0  0  0  0  0  0  0  0  0  0  0  0
    1.7883    1.8280    0.0000 O   0  0  0  0  0  0  0  0  0  0  0  0
    0.3788    1.5813    0.0000 O   0  0  0  0  0  0  0  0  0  0  0  0
   -0.4140   -0.8941    0.0000 O   0  0  0  0  0  0  0  0  0  0  0  0
   -0.8281   -1.6077    0.0000 C   0  0  0  0  0  0  0  0  0  0  0  0
   -4.4048   -0.5858    0.0000 O   0  0  0  0  0  0  0  0  0  0  0  0
   -3.6912    0.6475    0.0000 O   0  0  0  0  0  0  0  0  0  0  0  0
   -2.2741    0.5418    0.0000 H   0  0  0  0  0  0  0  0  0  0  0  0
   -0.1984    1.2231    0.0000 H   0  0  0  0  0  0  0  0  0  0  0  0
   -1.5417    0.4842    0.0000 H   0  0  0  0  0  0  0  0  0  0  0  0
   -2.2525   -2.8980    0.0000 H   0  0  0  0  0  0  0  0  0  0  0  0
   -3.1804   -2.3656    0.0000 H   0  0  0  0  0  0  0  0  0  0  0  0
   -4.5861   -1.3140    0.0000 H   0  0  0  0  0  0  0  0  0  0  0  0
   -3.6889   -2.8600    0.0000 H   0  0  0  0  0  0  0  0  0  0  0  0
    1.4889   -0.5634    0.0000 H   0  0  0  0  0  0  0  0  0  0  0  0
    2.5215    1.7511    0.0000 H   0  0  0  0  0  0  0  0  0  0  0  0
    4.2792    1.1170    0.0000 H   0  0  0  0  0  0  0  0  0  0  0  0
    4.5677   -1.5702    0.0000 H   0  0  0  0  0  0  0  0  0  0  0  0
    3.1728   -1.9107    0.0000 H   0  0  0  0  0  0  0  0  0  0  0  0
    1.4282   -1.2741    0.0000 H   0  0  0  0  0  0  0  0  0  0  0  0
    0.2158    2.5040    0.0000 H   0  0  0  0  0  0  0  0  0  0  0  0
   -1.8981   -1.6053    0.0000 H   0  0  0  0  0  0  0  0  0  0  0  0
   -0.2951   -2.5355    0.0000 H   0  0  0  0  0  0  0  0  0  0  0  0
   -1.3651   -2.5332    0.0000 H   0  0  0  0  0  0  0  0  0  0  0  0
   -2.8797    1.1160    0.0000 H   0  0  0  0  0  0  0  0  0  0  0  0
  1  2  2  0  0  0  0
  1 30  1  0  0  0  0
  3  1  1  6  0  0  0
  3  4  1  0  0  0  0
  3 26  1  0  0  0  0
  3  5  1  0  0  0  0
  4 13  1  0  0  0  0
  4 31  1  0  0  0  0
  5  6  1  0  0  0  0
  5 11  1  0  0  0  0
  5 32  1  6  0  0  0
  6  7  1  0  0  0  0
  7  8  1  0  0  0  0
  7 33  1  0  0  0  0
  7 34  1  0  0  0  0
  8  9  1  0  0  0  0
  8 12  2  0  0  0  0
  9 11  2  0  0  0  0
  9 10  1  0  0  0  0
 10 28  2  0  0  0  0
 10 29  1  0  0  0  0
 12 35  1  0  0  0  0
 12 36  1  0  0  0  0
 13 15  1  0  0  0  0
 13 14  2  0  0  0  0
 15 16  1  0  0  0  0
 15 23  1  0  0  0  0
 15 37  1  6  0  0  0
 16 17  2  0  0  0  0
 16 22  1  0  0  0  0
 17 18  1  0  0  0  0
 17 38  1  0  0  0  0
 18 19  2  0  0  0  0
 18 39  1  0  0  0  0
 19 20  1  0  0  0  0
 19 21  1  0  0  0  0
 20 40  1  0  0  0  0
 21 22  2  0  0  0  0
 21 41  1  0  0  0  0
 22 42  1  0  0  0  0
 23 25  1  0  0  0  0
 23 24  2  0  0  0  0
 25 43  1  0  0  0  0
 26 27  1  0  0  0  0
 27 44  1  0  0  0  0
 27 45  1  0  0  0  0
 27 46  1  0  0  0  0
 29 47  1  0  0  0  0
M  END
>  <DRUGBANK_ID>
DB02588

>  <SECONDARY_ACCESSION_NUMBERS>
EXPT02215

>  <COMMON_NAME>
(2R)-2-[(1R)-1-{[(2S)-2-Carboxy-2-(4-hydroxyphenyl)acetyl]amino}-1-methoxy-2-oxoethyl]-5-methylene-5,6-dihydro-2H-1,3-oxazine-4-carboxylic acid

$$$$
