
 OpenBabel10282417072D

 32 33  0  0  1  0  0  0  0  0999 V2000
    2.8579   -4.1250    0.0000 C   0  0  0  0  0  0  0  0  0  0  0  0
    2.1434   -3.7125    0.0000 C   0  0  0  0  0  0  0  0  0  0  0  0
    2.1434   -2.8875    0.0000 C   0  0  0  0  0  0  0  0  0  0  0  0
    2.8579   -2.4750    0.0000 C   0  0  0  0  0  0  0  0  0  0  0  0
    3.5724   -2.8875    0.0000 C   0  0  0  0  0  0  0  0  0  0  0  0
    3.5724   -3.7125    0.0000 C   0  0  0  0  0  0  0  0  0  0  0  0
    2.8579   -1.6500    0.0000 C   0  0  0  0  0  0  0  0  0  0  0  0
    3.5724   -1.2375    0.0000 C   0  0  0  0  0  0  0  0  0  0  0  0
    4.2868   -1.6500    0.0000 O   0  0  0  0  0  0  0  0  0  0  0  0
    3.5724   -0.4125    0.0000 N   0  0  0  0  0  0  0  0  0  0  0  0
    4.2868    0.0000    0.0000 C   0  0  1  0  0  0  0  0  0  0  0  0
    4.2868    0.8250    0.0000 C   0  0  0  0  0  0  0  0  0  0  0  0
    5.0013    1.2375    0.0000 C   0  0  0  0  0  0  0  0  0  0  0  0
    5.7158    0.8250    0.0000 C   0  0  0  0  0  0  0  0  0  0  0  0
    6.4302    1.2375    0.0000 O   0  0  0  0  0  0  0  0  0  0  0  0
    5.7158    0.0000    0.0000 N   0  0  0  0  0  0  0  0  0  0  0  0
    5.0013   -0.4125    0.0000 C   0  0  0  0  0  0  0  0  0  0  0  0
    5.0013   -1.2375    0.0000 O   0  0  0  0  0  0  0  0  0  0  0  0
    2.8579   -5.1570    0.0000 H   0  0  0  0  0  0  0  0  0  0  0  0
    1.2497   -4.2285    0.0000 H   0  0  0  0  0  0  0  0  0  0  0  0
    1.2497   -2.3715    0.0000 H   0  0  0  0  0  0  0  0  0  0  0  0
    4.4661   -2.3715    0.0000 H   0  0  0  0  0  0  0  0  0  0  0  0
    4.4661   -4.2285    0.0000 H   0  0  0  0  0  0  0  0  0  0  0  0
    1.9313   -1.1150    0.0000 H   0  0  0  0  0  0  0  0  0  0  0  0
    2.8579   -0.5800    0.0000 H   0  0  0  0  0  0  0  0  0  0  0  0
    2.7198    0.0797    0.0000 H   0  0  0  0  0  0  0  0  0  0  0  0
    3.3601    0.5350    0.0000 H   0  0  0  0  0  0  0  0  0  0  0  0
    3.3602    1.3600    0.0000 H   0  0  0  0  0  0  0  0  0  0  0  0
    4.2868    1.8950    0.0000 H   0  0  0  0  0  0  0  0  0  0  0  0
    5.0013    2.3075    0.0000 H   0  0  0  0  0  0  0  0  0  0  0  0
    5.9279    1.7725    0.0000 H   0  0  0  0  0  0  0  0  0  0  0  0
    6.5684   -0.4923    0.0000 H   0  0  0  0  0  0  0  0  0  0  0  0
  1  2  2  0  0  0  0
  1  6  1  0  0  0  0
  1 19  1  0  0  0  0
  2  3  1  0  0  0  0
  2 20  1  0  0  0  0
  3  4  2  0  0  0  0
  3 21  1  0  0  0  0
  4  5  1  0  0  0  0
  4  7  1  0  0  0  0
  5  6  2  0  0  0  0
  5 22  1  0  0  0  0
  6 23  1  0  0  0  0
  7  8  1  0  0  0  0
  7 24  1  0  0  0  0
  7 25  1  0  0  0  0
  8  9  2  0  0  0  0
  8 10  1  0  0  0  0
 10 26  1  0  0  0  0
 11 10  1  0  0  0  0
 11 12  1  0  0  0  0
 11 17  1  0  0  0  0
 11 27  1  6  0  0  0
 12 13  1  0  0  0  0
 12 28  1  0  0  0  0
 12 29  1  0  0  0  0
 13 14  1  0  0  0  0
 13 30  1  0  0  0  0
 13 31  1  0  0  0  0
 14 15  2  0  0  0  0
 14 16  1  0  0  0  0
 16 17  1  0  0  0  0
 16 32  1  0  0  0  0
 17 18  2  0  0  0  0
M  END
>  <DRUGBANK_ID>
DB11702

>  <COMMON_NAME>
Antineoplaston A10

>  <CAS_NUMBER>
91531-30-5

>  <UNII>
16VY3TM7ZO

>  <SYNONYMS>
Antineoplaston A 10; ATENGENAL; BENZENEACETAMIDE, N-((3S)-2,6-DIOXO-3-PIPERIDINYL)-; BENZENEACETAMIDE, N-(2,6-DIOXO-3-PIPERIDINYL)-, (S)-

$$$$
