
 OpenBabel10282417072D

  1  0  0  0  0  0  0  0  0  0999 V2000
    0.0000    0.0000    0.0000 Rb  0  3  0  0  0  0  0  0  0  0  0  0
M  ISO  1   1  82
M  CHG  1   1   1
M  END
>  <DRUGBANK_ID>
DB09479

>  <COMMON_NAME>
Rubidium Rb-82

>  <UNII>
550Z839889

>  <SYNONYMS>
Rubidium (82Rb) cation; Rubidium cation Rb-82; Rubidium Rb-82 cation

$$$$
