
 OpenBabel10282417072D

 56 59  0  0  0  0  0  0  0  0999 V2000
   -0.7145   -2.8875    0.0000 C   0  0  0  0  0  0  0  0  0  0  0  0
    0.0000   -2.4750    0.0000 C   0  0  0  0  0  0  0  0  0  0  0  0
    0.0000   -1.6500    0.0000 O   0  0  0  0  0  0  0  0  0  0  0  0
    0.7145   -1.2375    0.0000 C   0  0  0  0  0  0  0  0  0  0  0  0
    0.7145   -0.4125    0.0000 C   0  0  0  0  0  0  0  0  0  0  0  0
    1.4289    0.0000    0.0000 C   0  0  0  0  0  0  0  0  0  0  0  0
    2.1434   -0.4125    0.0000 C   0  0  0  0  0  0  0  0  0  0  0  0
    2.8579    0.0000    0.0000 N   0  0  0  0  0  0  0  0  0  0  0  0
    3.5724   -0.4125    0.0000 C   0  0  0  0  0  0  0  0  0  0  0  0
    4.2868   -0.0000    0.0000 N   0  0  0  0  0  0  0  0  0  0  0  0
    4.2252    0.8227    0.0000 C   0  0  0  0  0  0  0  0  0  0  0  0
    4.8299    1.3838    0.0000 C   0  0  0  0  0  0  0  0  0  0  0  0
    5.6457    1.2609    0.0000 C   0  0  0  0  0  0  0  0  0  0  0  0
    6.0582    0.5464    0.0000 N   0  0  0  0  0  0  0  0  0  0  0  0
    5.7568   -0.2216    0.0000 C   0  0  0  0  0  0  0  0  0  0  0  0
    4.9685   -0.4647    0.0000 C   0  0  0  0  0  0  0  0  0  0  0  0
    6.8809    0.6081    0.0000 C   0  0  0  0  0  0  0  0  0  0  0  0
    7.3457   -0.0736    0.0000 S   0  0  0  0  0  0  0  0  0  0  0  0
    7.2389    1.3514    0.0000 N   0  0  0  0  0  0  0  0  0  0  0  0
    8.0616    1.4130    0.0000 C   0  0  0  0  0  0  0  0  0  0  0  0
    8.4195    2.1563    0.0000 C   0  0  0  0  0  0  0  0  0  0  0  0
    9.2422    2.2180    0.0000 C   0  0  0  0  0  0  0  0  0  0  0  0
    9.7070    1.5363    0.0000 C   0  0  0  0  0  0  0  0  0  0  0  0
    9.3490    0.7930    0.0000 C   0  0  0  0  0  0  0  0  0  0  0  0
    8.5263    0.7314    0.0000 C   0  0  0  0  0  0  0  0  0  0  0  0
    8.1684   -0.0119    0.0000 F   0  0  0  0  0  0  0  0  0  0  0  0
    3.5724   -1.2375    0.0000 C   0  0  0  0  0  0  0  0  0  0  0  0
    2.8579   -1.6500    0.0000 C   0  0  0  0  0  0  0  0  0  0  0  0
    2.1434   -1.2375    0.0000 C   0  0  0  0  0  0  0  0  0  0  0  0
    1.4289   -1.6500    0.0000 C   0  0  0  0  0  0  0  0  0  0  0  0
    4.2868   -1.6500    0.0000 C   0  0  0  0  0  0  0  0  0  0  0  0
    5.0013   -2.0625    0.0000 N   0  0  0  0  0  0  0  0  0  0  0  0
   -1.6411   -2.3525    0.0000 H   0  0  0  0  0  0  0  0  0  0  0  0
   -0.7145   -3.9575    0.0000 H   0  0  0  0  0  0  0  0  0  0  0  0
   -1.6412   -3.4225    0.0000 H   0  0  0  0  0  0  0  0  0  0  0  0
    0.9266   -3.0100    0.0000 H   0  0  0  0  0  0  0  0  0  0  0  0
    0.9266   -1.9400    0.0000 H   0  0  0  0  0  0  0  0  0  0  0  0
   -0.1792    0.1035    0.0000 H   0  0  0  0  0  0  0  0  0  0  0  0
    1.4289    1.0320    0.0000 H   0  0  0  0  0  0  0  0  0  0  0  0
    3.2292    1.2136    0.0000 H   0  0  0  0  0  0  0  0  0  0  0  0
    4.0263    1.8740    0.0000 H   0  0  0  0  0  0  0  0  0  0  0  0
    4.5145    2.4062    0.0000 H   0  0  0  0  0  0  0  0  0  0  0  0
    5.5278    2.1949    0.0000 H   0  0  0  0  0  0  0  0  0  0  0  0
    6.2484    2.1450    0.0000 H   0  0  0  0  0  0  0  0  0  0  0  0
    6.7150    1.2209    0.0000 H   0  0  0  0  0  0  0  0  0  0  0  0
    6.4846   -1.0060    0.0000 H   0  0  0  0  0  0  0  0  0  0  0  0
    5.4798   -1.2551    0.0000 H   0  0  0  0  0  0  0  0  0  0  0  0
    4.8090   -1.5227    0.0000 H   0  0  0  0  0  0  0  0  0  0  0  0
    3.9878   -0.8926    0.0000 H   0  0  0  0  0  0  0  0  0  0  0  0
    6.6844    2.1649    0.0000 H   0  0  0  0  0  0  0  0  0  0  0  0
    7.8381    3.0089    0.0000 H   0  0  0  0  0  0  0  0  0  0  0  0
    9.6899    3.1478    0.0000 H   0  0  0  0  0  0  0  0  0  0  0  0
   10.7361    1.6134    0.0000 H   0  0  0  0  0  0  0  0  0  0  0  0
    9.9303   -0.0597    0.0000 H   0  0  0  0  0  0  0  0  0  0  0  0
    2.8579   -2.6820    0.0000 H   0  0  0  0  0  0  0  0  0  0  0  0
    1.4289   -2.6820    0.0000 H   0  0  0  0  0  0  0  0  0  0  0  0
  1  2  1  0  0  0  0
  1 33  1  0  0  0  0
  1 34  1  0  0  0  0
  1 35  1  0  0  0  0
  2  3  1  0  0  0  0
  2 36  1  0  0  0  0
  2 37  1  0  0  0  0
  3  4  1  0  0  0  0
  4  5  1  0  0  0  0
  4 30  2  0  0  0  0
  5  6  2  0  0  0  0
  5 38  1  0  0  0  0
  6  7  1  0  0  0  0
  6 39  1  0  0  0  0
  7  8  2  0  0  0  0
  7 29  1  0  0  0  0
  8  9  1  0  0  0  0
  9 10  1  0  0  0  0
  9 27  2  0  0  0  0
 10 11  1  0  0  0  0
 10 16  1  0  0  0  0
 11 12  1  0  0  0  0
 11 40  1  0  0  0  0
 11 41  1  0  0  0  0
 12 13  1  0  0  0  0
 12 42  1  0  0  0  0
 12 43  1  0  0  0  0
 13 14  1  0  0  0  0
 13 44  1  0  0  0  0
 13 45  1  0  0  0  0
 14 15  1  0  0  0  0
 14 17  1  0  0  0  0
 15 16  1  0  0  0  0
 15 46  1  0  0  0  0
 15 47  1  0  0  0  0
 16 48  1  0  0  0  0
 16 49  1  0  0  0  0
 17 18  2  0  0  0  0
 17 19  1  0  0  0  0
 19 20  1  0  0  0  0
 19 50  1  0  0  0  0
 20 21  2  0  0  0  0
 20 25  1  0  0  0  0
 21 22  1  0  0  0  0
 21 51  1  0  0  0  0
 22 23  2  0  0  0  0
 22 52  1  0  0  0  0
 23 24  1  0  0  0  0
 23 53  1  0  0  0  0
 24 25  2  0  0  0  0
 24 54  1  0  0  0  0
 25 26  1  0  0  0  0
 27 28  1  0  0  0  0
 27 31  1  0  0  0  0
 28 29  2  0  0  0  0
 28 55  1  0  0  0  0
 29 30  1  0  0  0  0
 30 56  1  0  0  0  0
 31 32  3  0  0  0  0
M  END
>  <DRUGBANK_ID>
DB18048

>  <COMMON_NAME>
NNI-351

>  <CAS_NUMBER>
929607-23-8

>  <UNII>
97LG4X5P2E

>  <SYNONYMS>
1H-1,4-DIAZEPINE-1-CARBOTHIOAMIDE, 4-(3-CYANO-6-ETHOXY-2-QUINOLINYL)-N-(2-FLUOROPHENYL)HEXAHYDRO-; 4-(3-CYANO-6-ETHOXY-2-QUINOLINYL)-N-(2-FLUOROPHENYL)HEXAHYDRO-1H-1,4-DIAZEPINE-1-CARBOTHIOAMIDE; 4-(3-cyano-6-ethoxyquinolin-2-yl)-N- (2-fluorophenyl)-1,4-diazepane-1-carbothiomide

$$$$
