CR3
 OpenBabel10282417072D

 46 49  0  0  0  0  0  0  0  0999 V2000
    2.8151   -0.6363    0.0000 C   0  0  0  0  0  0  0  0  0  0  0  0
    2.8151   -1.4613    0.0000 C   0  0  0  0  0  0  0  0  0  0  0  0
    2.1007   -1.8738    0.0000 C   0  0  0  0  0  0  0  0  0  0  0  0
    1.3862   -1.4613    0.0000 C   0  0  0  0  0  0  0  0  0  0  0  0
    1.3862   -0.6363    0.0000 C   0  0  0  0  0  0  0  0  0  0  0  0
    2.1007   -0.2238    0.0000 C   0  0  0  0  0  0  0  0  0  0  0  0
    3.5296   -0.2238    0.0000 C   0  0  0  0  0  0  0  0  0  0  0  0
    4.2441   -0.6363    0.0000 N   0  0  0  0  0  0  0  0  0  0  0  0
    3.5296    0.6012    0.0000 N   0  3  0  0  0  0  0  0  0  0  0  0
    0.6016   -1.7162    0.0000 N   0  0  0  0  0  0  0  0  0  0  0  0
    0.6016   -0.3814    0.0000 C   0  0  0  0  0  0  0  0  0  0  0  0
    0.1166   -1.0488    0.0000 C   0  0  0  0  0  0  0  0  0  0  0  0
   -0.7084   -1.0488    0.0000 C   0  0  0  0  0  0  0  0  0  0  0  0
   -1.1209   -1.7633    0.0000 C   0  0  0  0  0  0  0  0  0  0  0  0
   -1.9459   -1.7633    0.0000 C   0  0  0  0  0  0  0  0  0  0  0  0
   -2.3584   -1.0488    0.0000 C   0  0  0  0  0  0  0  0  0  0  0  0
   -1.9459   -0.3343    0.0000 C   0  0  0  0  0  0  0  0  0  0  0  0
   -2.3584    0.3801    0.0000 O   0  0  0  0  0  0  0  0  0  0  0  0
   -1.1209   -0.3343    0.0000 C   0  0  0  0  0  0  0  0  0  0  0  0
   -0.7084    0.3801    0.0000 O   0  5  0  0  0  0  0  0  0  0  0  0
   -1.1254    1.1808    0.0000 C   0  0  0  0  0  0  0  0  0  0  0  0
   -1.9459    1.0946    0.0000 C   0  0  0  0  0  0  0  0  0  0  0  0
   -2.2814    1.8483    0.0000 C   0  0  0  0  0  0  0  0  0  0  0  0
   -1.6683    2.4003    0.0000 C   0  0  0  0  0  0  0  0  0  0  0  0
   -0.9538    1.9878    0.0000 C   0  0  0  0  0  0  0  0  0  0  0  0
    3.7088   -1.9773    0.0000 H   0  0  0  0  0  0  0  0  0  0  0  0
    2.1007   -2.9058    0.0000 H   0  0  0  0  0  0  0  0  0  0  0  0
    2.1007    0.8082    0.0000 H   0  0  0  0  0  0  0  0  0  0  0  0
    4.2441   -1.6208    0.0000 H   0  0  0  0  0  0  0  0  0  0  0  0
    5.0967   -0.1440    0.0000 H   0  0  0  0  0  0  0  0  0  0  0  0
    4.3822    1.0935    0.0000 H   0  0  0  0  0  0  0  0  0  0  0  0
    2.6770    1.0934    0.0000 H   0  0  0  0  0  0  0  0  0  0  0  0
    0.2974   -2.6525    0.0000 H   0  0  0  0  0  0  0  0  0  0  0  0
    0.2827    0.6001    0.0000 H   0  0  0  0  0  0  0  0  0  0  0  0
   -0.6049   -2.6570    0.0000 H   0  0  0  0  0  0  0  0  0  0  0  0
   -2.4619   -2.6570    0.0000 H   0  0  0  0  0  0  0  0  0  0  0  0
   -3.3904   -1.0488    0.0000 H   0  0  0  0  0  0  0  0  0  0  0  0
   -0.4095    0.3856    0.0000 H   0  0  0  0  0  0  0  0  0  0  0  0
   -0.0918    1.4577    0.0000 H   0  0  0  0  0  0  0  0  0  0  0  0
   -1.4108    2.0212    0.0000 H   0  0  0  0  0  0  0  0  0  0  0  0
   -3.3280    2.0708    0.0000 H   0  0  0  0  0  0  0  0  0  0  0  0
   -2.5583    2.8819    0.0000 H   0  0  0  0  0  0  0  0  0  0  0  0
   -1.7801    3.4644    0.0000 H   0  0  0  0  0  0  0  0  0  0  0  0
   -0.7709    2.9831    0.0000 H   0  0  0  0  0  0  0  0  0  0  0  0
    0.0237    2.4230    0.0000 H   0  0  0  0  0  0  0  0  0  0  0  0
   -0.8978    3.0563    0.0000 H   0  0  0  0  0  0  0  0  0  0  0  0
  1  2  2  0  0  0  0
  1  6  1  0  0  0  0
  1  7  1  0  0  0  0
  2  3  1  0  0  0  0
  2 26  1  0  0  0  0
  3  4  2  0  0  0  0
  3 27  1  0  0  0  0
  4  5  1  0  0  0  0
  4 10  1  0  0  0  0
  5  6  2  0  0  0  0
  5 11  1  0  0  0  0
  6 28  1  0  0  0  0
  7  8  1  0  0  0  0
  7  9  2  0  0  0  0
  8 29  1  0  0  0  0
  8 30  1  0  0  0  0
  9 31  1  0  0  0  0
  9 32  1  0  0  0  0
 10 12  1  0  0  0  0
 10 33  1  0  0  0  0
 11 12  2  0  0  0  0
 11 34  1  0  0  0  0
 12 13  1  0  0  0  0
 13 14  2  0  0  0  0
 13 19  1  0  0  0  0
 14 15  1  0  0  0  0
 14 35  1  0  0  0  0
 15 16  2  0  0  0  0
 15 36  1  0  0  0  0
 16 17  1  0  0  0  0
 16 37  1  0  0  0  0
 17 18  1  0  0  0  0
 17 19  2  0  0  0  0
 18 22  1  0  0  0  0
 19 20  1  0  0  0  0
 21 22  1  0  0  0  0
 21 25  1  0  0  0  0
 21 38  1  0  0  0  0
 21 39  1  0  0  0  0
 22 23  1  0  0  0  0
 22 40  1  0  0  0  0
 23 24  1  0  0  0  0
 23 41  1  0  0  0  0
 23 42  1  0  0  0  0
 24 25  1  0  0  0  0
 24 43  1  0  0  0  0
 24 44  1  0  0  0  0
 25 45  1  0  0  0  0
 25 46  1  0  0  0  0
M  CHG  2   9   1  20  -1
M  END
>  <DRUGBANK_ID>
DB03173

>  <SECONDARY_ACCESSION_NUMBERS>
EXPT01012

>  <COMMON_NAME>
CRA_10433

$$$$
