
 OpenBabel10282417072D

 53 56  0  0  0  0  0  0  0  0999 V2000
   -0.0338    1.4417    0.0000 C   0  0  0  0  0  0  0  0  0  0  0  0
   -0.0338    0.6167    0.0000 C   0  0  2  0  0  0  0  0  0  0  0  0
    0.6782    0.2083    0.0000 C   0  0  1  0  0  0  0  0  0  0  0  0
    1.3903    0.6167    0.0000 C   0  0  0  0  0  0  0  0  0  0  0  0
    1.3903    1.4417    0.0000 C   0  0  2  0  0  0  0  0  0  0  0  0
    0.6782    1.8585    0.0000 C   0  0  0  0  0  0  0  0  0  0  0  0
   -0.7459    0.2000    0.0000 C   0  0  1  0  0  0  0  0  0  0  0  0
   -0.7459   -0.6250    0.0000 C   0  0  2  0  0  0  0  0  0  0  0  0
   -0.0338   -1.0334    0.0000 C   0  0  0  0  0  0  0  0  0  0  0  0
    0.6782   -0.6250    0.0000 C   0  0  0  0  0  0  0  0  0  0  0  0
   -2.1710    0.2000    0.0000 C   0  0  0  0  0  0  0  0  0  0  0  0
   -2.1710   -0.6250    0.0000 C   0  0  0  0  0  0  0  0  0  0  0  0
   -1.4589   -1.0334    0.0000 C   0  0  2  0  0  0  0  0  0  0  0  0
   -1.4589    0.6167    0.0000 C   0  0  0  0  0  0  0  0  0  0  0  0
    1.3875   -0.2041    0.0000 C   0  0  0  0  0  0  0  0  0  0  0  0
    2.1001    1.0292    0.0000 C   0  0  0  0  0  0  0  0  0  0  0  0
    2.8961    1.2459    0.0000 O   0  0  0  0  0  0  0  0  0  0  0  0
    1.3834    2.2668    0.0000 C   0  0  0  0  0  0  0  0  0  0  0  0
   -0.0416   -0.2083    0.0000 H   0  0  0  0  0  0  0  0  0  0  0  0
   -0.7501    1.0251    0.0000 C   0  0  0  0  0  0  0  0  0  0  0  0
   -0.7501   -1.4500    0.0000 H   0  0  0  0  0  0  0  0  0  0  0  0
   -1.4667   -1.8585    0.0000 C   0  0  0  0  0  0  0  0  0  0  0  0
   -2.1793   -1.4417    0.0000 C   0  0  0  0  0  0  0  0  0  0  0  0
   -2.1835   -2.2668    0.0000 O   0  0  0  0  0  0  0  0  0  0  0  0
   -2.8961   -1.0292    0.0000 O   0  0  0  0  0  0  0  0  0  0  0  0
   -0.9621    1.9739    0.0000 H   0  0  0  0  0  0  0  0  0  0  0  0
   -0.0386    2.5117    0.0000 H   0  0  0  0  0  0  0  0  0  0  0  0
    2.3162    0.0804    0.0000 H   0  0  0  0  0  0  0  0  0  0  0  0
    2.3173    1.1510    0.0000 H   0  0  0  0  0  0  0  0  0  0  0  0
    0.6782    2.9285    0.0000 H   0  0  0  0  0  0  0  0  0  0  0  0
   -0.2501    2.3907    0.0000 H   0  0  0  0  0  0  0  0  0  0  0  0
   -0.0338   -2.1034    0.0000 H   0  0  0  0  0  0  0  0  0  0  0  0
    0.8921   -1.5697    0.0000 H   0  0  0  0  0  0  0  0  0  0  0  0
    1.6041   -1.1613    0.0000 H   0  0  0  0  0  0  0  0  0  0  0  0
    1.6052   -0.0907    0.0000 H   0  0  0  0  0  0  0  0  0  0  0  0
   -3.0992    0.7323    0.0000 H   0  0  0  0  0  0  0  0  0  0  0  0
   -3.0969   -0.3364    0.0000 H   0  0  0  0  0  0  0  0  0  0  0  0
   -3.0969   -1.1613    0.0000 H   0  0  0  0  0  0  0  0  0  0  0  0
   -3.0980   -0.0907    0.0000 H   0  0  0  0  0  0  0  0  0  0  0  0
   -1.4592    1.6867    0.0000 H   0  0  0  0  0  0  0  0  0  0  0  0
   -0.5309    1.1494    0.0000 H   0  0  0  0  0  0  0  0  0  0  0  0
    1.6627   -1.2381    0.0000 H   0  0  0  0  0  0  0  0  0  0  0  0
    2.4482   -0.3448    0.0000 H   0  0  0  0  0  0  0  0  0  0  0  0
    2.3055    2.8095    0.0000 H   0  0  0  0  0  0  0  0  0  0  0  0
    0.4523    2.7940    0.0000 H   0  0  0  0  0  0  0  0  0  0  0  0
    1.3745    3.3368    0.0000 H   0  0  0  0  0  0  0  0  0  0  0  0
    0.1738    1.5648    0.0000 H   0  0  0  0  0  0  0  0  0  0  0  0
   -1.6795    1.5554    0.0000 H   0  0  0  0  0  0  0  0  0  0  0  0
   -0.7555    2.0951    0.0000 H   0  0  0  0  0  0  0  0  0  0  0  0
   -2.3984   -2.3847    0.0000 H   0  0  0  0  0  0  0  0  0  0  0  0
   -0.5452   -2.4022    0.0000 H   0  0  0  0  0  0  0  0  0  0  0  0
   -1.4768   -2.9285    0.0000 H   0  0  0  0  0  0  0  0  0  0  0  0
   -2.8974   -0.0922    0.0000 H   0  0  0  0  0  0  0  0  0  0  0  0
  1  2  1  0  0  0  0
  1  6  1  0  0  0  0
  1 26  1  0  0  0  0
  1 27  1  0  0  0  0
  2  3  1  0  0  0  0
  2 19  1  1  0  0  0
  3 15  1  6  0  0  0
  3  4  1  0  0  0  0
  4 28  1  0  0  0  0
  4 29  1  0  0  0  0
  5  6  1  0  0  0  0
  5 16  1  0  0  0  0
  5 18  1  1  0  0  0
  5  4  1  0  0  0  0
  6 30  1  0  0  0  0
  6 31  1  0  0  0  0
  7  8  1  0  0  0  0
  7 14  1  0  0  0  0
  7  2  1  0  0  0  0
  7 20  1  6  0  0  0
  8  9  1  0  0  0  0
  8 21  1  1  0  0  0
  9 10  1  0  0  0  0
  9 32  1  0  0  0  0
  9 33  1  0  0  0  0
 10  3  1  0  0  0  0
 10 34  1  0  0  0  0
 10 35  1  0  0  0  0
 11 14  1  0  0  0  0
 11 12  1  0  0  0  0
 11 36  1  0  0  0  0
 11 37  1  0  0  0  0
 12 13  1  0  0  0  0
 12 38  1  0  0  0  0
 12 39  1  0  0  0  0
 13  8  1  0  0  0  0
 13 22  1  0  0  0  0
 13 23  1  6  0  0  0
 14 40  1  0  0  0  0
 14 41  1  0  0  0  0
 15 16  1  0  0  0  0
 15 42  1  0  0  0  0
 15 43  1  0  0  0  0
 16 17  2  0  0  0  0
 18 44  1  0  0  0  0
 18 45  1  0  0  0  0
 18 46  1  0  0  0  0
 20 47  1  0  0  0  0
 20 48  1  0  0  0  0
 20 49  1  0  0  0  0
 22 50  1  0  0  0  0
 22 51  1  0  0  0  0
 22 52  1  0  0  0  0
 23 24  2  0  0  0  0
 23 25  1  0  0  0  0
 25 53  1  0  0  0  0
M  END
>  <DRUGBANK_ID>
DB16870

>  <COMMON_NAME>
Isosteviol

>  <CAS_NUMBER>
27975-19-5

>  <UNII>
091QB7QO95

>  <SYNONYMS>
Iso-steviol; Ketoisostevic acid

$$$$
