1593
 OpenBabel10282417072D

  1  0  0  0  0  0  0  0  0  0999 V2000
    2.0000    0.0000    0.0000 Zn  0  0  0  0  0  0  0  0  0  0  0  0
M  END
>  <DRUGBANK_ID>
DB01593

>  <COMMON_NAME>
Zinc

>  <CAS_NUMBER>
7440-66-6

>  <UNII>
J41CSQ7QDS

>  <SYNONYMS>
Zinc, chelated; Zinc, elemental; Zincum metallicum; Zn

$$$$
