CIN
 OpenBabel10282417072D

 22 22  0  0  0  0  0  0  0  0999 V2000
    0.1663    0.2089    0.0000 C   0  0  0  0  0  0  0  0  0  0  0  0
    0.1663   -0.6161    0.0000 C   0  0  0  0  0  0  0  0  0  0  0  0
   -0.5482   -1.0286    0.0000 C   0  0  0  0  0  0  0  0  0  0  0  0
   -1.2626   -0.6161    0.0000 C   0  0  0  0  0  0  0  0  0  0  0  0
   -1.2626    0.2089    0.0000 C   0  0  0  0  0  0  0  0  0  0  0  0
   -0.5482    0.6214    0.0000 C   0  0  0  0  0  0  0  0  0  0  0  0
    0.8808    0.6214    0.0000 C   0  0  0  0  0  0  0  0  0  0  0  0
    1.5953    0.2089    0.0000 C   0  0  0  0  0  0  0  0  0  0  0  0
    2.3097    0.6214    0.0000 C   0  0  0  0  0  0  0  0  0  0  0  0
   -1.9771   -1.0286    0.0000 C   0  0  0  0  0  0  0  0  0  0  0  0
    3.0242    0.2089    0.0000 O   0  0  0  0  0  0  0  0  0  0  0  0
    2.3097    1.4464    0.0000 O   0  0  0  0  0  0  0  0  0  0  0  0
   -1.9771   -1.8536    0.0000 O   0  0  0  0  0  0  0  0  0  0  0  0
   -2.6916   -0.6161    0.0000 O   0  0  0  0  0  0  0  0  0  0  0  0
    1.0600   -1.1321    0.0000 H   0  0  0  0  0  0  0  0  0  0  0  0
   -0.5482   -2.0606    0.0000 H   0  0  0  0  0  0  0  0  0  0  0  0
   -2.1563    0.7249    0.0000 H   0  0  0  0  0  0  0  0  0  0  0  0
   -0.5482    1.6534    0.0000 H   0  0  0  0  0  0  0  0  0  0  0  0
    0.8808    1.6534    0.0000 H   0  0  0  0  0  0  0  0  0  0  0  0
    1.5953   -0.8231    0.0000 H   0  0  0  0  0  0  0  0  0  0  0  0
    3.1212    1.9149    0.0000 H   0  0  0  0  0  0  0  0  0  0  0  0
   -2.6916    0.3209    0.0000 H   0  0  0  0  0  0  0  0  0  0  0  0
  1  2  2  0  0  0  0
  1  6  1  0  0  0  0
  1  7  1  0  0  0  0
  2  3  1  0  0  0  0
  2 15  1  0  0  0  0
  3  4  2  0  0  0  0
  3 16  1  0  0  0  0
  4  5  1  0  0  0  0
  4 10  1  0  0  0  0
  5  6  2  0  0  0  0
  5 17  1  0  0  0  0
  6 18  1  0  0  0  0
  7  8  2  0  0  0  0
  7 19  1  0  0  0  0
  8  9  1  0  0  0  0
  8 20  1  0  0  0  0
  9 11  2  0  0  0  0
  9 12  1  0  0  0  0
 10 13  2  0  0  0  0
 10 14  1  0  0  0  0
 12 21  1  0  0  0  0
 14 22  1  0  0  0  0
M  END
>  <DRUGBANK_ID>
DB02126

>  <SECONDARY_ACCESSION_NUMBERS>
EXPT00919

>  <COMMON_NAME>
4-Carboxycinnamic Acid

$$$$
