
 OpenBabel10282417072D

 82 87  0  0  0  0  0  0  0  0999 V2000
   -1.4214   -0.1469    0.0000 P   0  0  3  0  0  0  0  0  0  0  0  0
    1.4214    0.1469    0.0000 P   0  0  3  0  0  0  0  0  0  0  0  0
    0.0000    0.0000    0.0000 P   0  0  3  0  0  0  0  0  0  0  0  0
   -3.5124   -1.6025    0.0000 O   0  0  0  0  0  0  0  0  0  0  0  0
    3.5124    1.6025    0.0000 O   0  0  0  0  0  0  0  0  0  0  0  0
   -5.6063   -1.1864    0.0000 O   0  0  0  0  0  0  0  0  0  0  0  0
   -4.5488    0.2637    0.0000 O   0  0  0  0  0  0  0  0  0  0  0  0
    5.6063    1.1864    0.0000 O   0  0  0  0  0  0  0  0  0  0  0  0
    4.5488   -0.2637    0.0000 O   0  0  0  0  0  0  0  0  0  0  0  0
   -2.0896   -0.6307    0.0000 O   0  0  0  0  0  0  0  0  0  0  0  0
    2.0896    0.6307    0.0000 O   0  0  0  0  0  0  0  0  0  0  0  0
   -0.7530    0.3368    0.0000 O   0  0  0  0  0  0  0  0  0  0  0  0
    0.7530   -0.3368    0.0000 O   0  0  0  0  0  0  0  0  0  0  0  0
   -6.0490   -4.9542    0.0000 O   0  0  0  0  0  0  0  0  0  0  0  0
   -0.9376   -0.8151    0.0000 O   0  0  0  0  0  0  0  0  0  0  0  0
    1.9052   -0.5214    0.0000 O   0  0  0  0  0  0  0  0  0  0  0  0
   -1.9052    0.5214    0.0000 O   0  0  0  0  0  0  0  0  0  0  0  0
    0.9376    0.8151    0.0000 O   0  0  0  0  0  0  0  0  0  0  0  0
    6.0490    4.9542    0.0000 O   0  0  0  0  0  0  0  0  0  0  0  0
    0.3368    0.7530    0.0000 O   0  0  0  0  0  0  0  0  0  0  0  0
   -0.3368   -0.7530    0.0000 O   0  0  0  0  0  0  0  0  0  0  0  0
   -4.5539   -2.6403    0.0000 N   0  3  0  0  0  0  0  0  0  0  0  0
    4.5539    2.6403    0.0000 N   0  0  0  0  0  0  0  0  0  0  0  0
   -4.5539   -3.9682    0.0000 N   0  0  0  0  0  0  0  0  0  0  0  0
   -6.0490   -2.4792    0.0000 N   0  0  0  0  0  0  0  0  0  0  0  0
    6.0490    2.4792    0.0000 N   0  0  0  0  0  0  0  0  0  0  0  0
    4.5539    3.9682    0.0000 N   0  0  0  0  0  0  0  0  0  0  0  0
   -6.7634   -3.7167    0.0000 N   0  0  0  0  0  0  0  0  0  0  0  0
    6.7634    3.7167    0.0000 N   0  0  0  0  0  0  0  0  0  0  0  0
   -7.4780   -2.4792    0.0000 N   0  0  0  0  0  0  0  0  0  0  0  0
    7.4780    2.4792    0.0000 N   0  0  0  0  0  0  0  0  0  0  0  0
   -4.2975   -1.8562    0.0000 C   0  0  1  0  0  0  0  0  0  0  0  0
   -4.7813   -1.1879    0.0000 C   0  0  1  0  0  0  0  0  0  0  0  0
   -4.2952   -0.5213    0.0000 C   0  0  1  0  0  0  0  0  0  0  0  0
   -3.5110   -0.7775    0.0000 C   0  0  1  0  0  0  0  0  0  0  0  0
    4.7813    1.1879    0.0000 C   0  0  2  0  0  0  0  0  0  0  0  0
    4.2952    0.5213    0.0000 C   0  0  1  0  0  0  0  0  0  0  0  0
    4.2975    1.8562    0.0000 C   0  0  1  0  0  0  0  0  0  0  0  0
    3.5110    0.7775    0.0000 C   0  0  1  0  0  0  0  0  0  0  0  0
   -2.8428   -0.2937    0.0000 C   0  0  0  0  0  0  0  0  0  0  0  0
   -5.3345   -2.8917    0.0000 C   0  0  0  0  0  0  0  0  0  0  0  0
    2.8427    0.2937    0.0000 C   0  0  0  0  0  0  0  0  0  0  0  0
   -4.0724   -3.3042    0.0000 C   0  0  0  0  0  0  0  0  0  0  0  0
   -5.3345   -3.7167    0.0000 C   0  0  0  0  0  0  0  0  0  0  0  0
    5.3345    2.8917    0.0000 C   0  0  0  0  0  0  0  0  0  0  0  0
    4.0723    3.3042    0.0000 C   0  0  0  0  0  0  0  0  0  0  0  0
    5.3345    3.7167    0.0000 C   0  0  0  0  0  0  0  0  0  0  0  0
   -4.2975   -4.7524    0.0000 C   0  0  0  0  0  0  0  0  0  0  0  0
   -6.0490   -4.1292    0.0000 C   0  0  0  0  0  0  0  0  0  0  0  0
   -6.7634   -2.8917    0.0000 C   0  0  0  0  0  0  0  0  0  0  0  0
    6.0490    4.1292    0.0000 C   0  0  0  0  0  0  0  0  0  0  0  0
    6.7634    2.8917    0.0000 C   0  0  0  0  0  0  0  0  0  0  0  0
   -6.0490   -1.9677    0.0000 H   0  0  0  0  0  0  0  0  0  0  0  0
    6.0490    1.9677    0.0000 H   0  0  0  0  0  0  0  0  0  0  0  0
   -7.9209   -2.7350    0.0000 H   0  0  0  0  0  0  0  0  0  0  0  0
   -7.4780   -1.9677    0.0000 H   0  0  0  0  0  0  0  0  0  0  0  0
    7.9209    2.7350    0.0000 H   0  0  0  0  0  0  0  0  0  0  0  0
    7.4780    1.9677    0.0000 H   0  0  0  0  0  0  0  0  0  0  0  0
   -6.0898   -0.3455    0.0000 H   0  0  0  0  0  0  0  0  0  0  0  0
   -3.8985    0.9835    0.0000 H   0  0  0  0  0  0  0  0  0  0  0  0
    6.0898    0.3455    0.0000 H   0  0  0  0  0  0  0  0  0  0  0  0
    3.8985   -0.9835    0.0000 H   0  0  0  0  0  0  0  0  0  0  0  0
   -1.3336   -1.7006    0.0000 H   0  0  0  0  0  0  0  0  0  0  0  0
    1.5091   -1.4069    0.0000 H   0  0  0  0  0  0  0  0  0  0  0  0
    1.3017    0.8527    0.0000 H   0  0  0  0  0  0  0  0  0  0  0  0
   -3.5422   -2.6141    0.0000 H   0  0  0  0  0  0  0  0  0  0  0  0
   -5.2688   -2.1404    0.0000 H   0  0  0  0  0  0  0  0  0  0  0  0
   -5.3517   -0.3521    0.0000 H   0  0  0  0  0  0  0  0  0  0  0  0
   -2.5584   -1.2649    0.0000 H   0  0  0  0  0  0  0  0  0  0  0  0
    5.2654    0.2337    0.0000 H   0  0  0  0  0  0  0  0  0  0  0  0
    5.3517    0.3521    0.0000 H   0  0  0  0  0  0  0  0  0  0  0  0
    3.5422    2.6141    0.0000 H   0  0  0  0  0  0  0  0  0  0  0  0
    2.5585    1.2649    0.0000 H   0  0  0  0  0  0  0  0  0  0  0  0
   -2.9528    0.7706    0.0000 H   0  0  0  0  0  0  0  0  0  0  0  0
   -3.8196    0.1432    0.0000 H   0  0  0  0  0  0  0  0  0  0  0  0
    2.9526   -0.7706    0.0000 H   0  0  0  0  0  0  0  0  0  0  0  0
    3.8194   -0.1432    0.0000 H   0  0  0  0  0  0  0  0  0  0  0  0
   -3.0404   -3.3042    0.0000 H   0  0  0  0  0  0  0  0  0  0  0  0
    3.0403    3.3042    0.0000 H   0  0  0  0  0  0  0  0  0  0  0  0
   -5.0120   -5.5489    0.0000 H   0  0  0  0  0  0  0  0  0  0  0  0
   -3.2505   -4.9729    0.0000 H   0  0  0  0  0  0  0  0  0  0  0  0
   -3.9650   -5.7694    0.0000 H   0  0  0  0  0  0  0  0  0  0  0  0
  1 10  1  0  0  0  0
  1 12  1  0  0  0  0
  1 15  1  0  0  0  0
  1 17  2  0  0  0  0
  2 11  1  0  0  0  0
  2 13  1  0  0  0  0
  2 16  1  0  0  0  0
  2 18  2  0  0  0  0
  3 12  1  0  0  0  0
  3 13  1  0  0  0  0
  3 20  1  0  0  0  0
  3 21  2  0  0  0  0
  4 32  1  0  0  0  0
  4 35  1  0  0  0  0
  5 38  1  0  0  0  0
  5 39  1  0  0  0  0
  6 59  1  0  0  0  0
  7 60  1  0  0  0  0
  8 61  1  0  0  0  0
  9 62  1  0  0  0  0
 10 40  1  0  0  0  0
 11 42  1  0  0  0  0
 14 49  2  0  0  0  0
 15 63  1  0  0  0  0
 16 64  1  0  0  0  0
 19 51  2  0  0  0  0
 20 65  1  0  0  0  0
 22 41  1  0  0  0  0
 22 43  2  0  0  0  0
 23 45  1  0  0  0  0
 23 46  1  0  0  0  0
 24 43  1  0  0  0  0
 24 44  1  0  0  0  0
 24 48  1  0  0  0  0
 25 41  1  0  0  0  0
 25 50  1  0  0  0  0
 25 53  1  0  0  0  0
 26 45  1  0  0  0  0
 26 52  1  0  0  0  0
 26 54  1  0  0  0  0
 27 46  2  0  0  0  0
 27 47  1  0  0  0  0
 28 49  1  0  0  0  0
 28 50  2  0  0  0  0
 29 51  1  0  0  0  0
 29 52  2  0  0  0  0
 30 50  1  0  0  0  0
 30 55  1  0  0  0  0
 30 56  1  0  0  0  0
 31 52  1  0  0  0  0
 31 57  1  0  0  0  0
 31 58  1  0  0  0  0
 32 22  1  0  0  0  0
 32 33  1  0  0  0  0
 32 66  1  6  0  0  0
 33  6  1  0  0  0  0
 33 34  1  0  0  0  0
 33 67  1  1  0  0  0
 34  7  1  0  0  0  0
 34 35  1  0  0  0  0
 34 68  1  1  0  0  0
 35 40  1  0  0  0  0
 35 69  1  6  0  0  0
 36  8  1  0  0  0  0
 36 37  1  0  0  0  0
 36 38  1  0  0  0  0
 36 70  1  1  0  0  0
 37  9  1  0  0  0  0
 37 39  1  0  0  0  0
 37 71  1  1  0  0  0
 38 23  1  0  0  0  0
 38 72  1  6  0  0  0
 39 42  1  0  0  0  0
 39 73  1  6  0  0  0
 40 74  1  0  0  0  0
 40 75  1  0  0  0  0
 41 44  2  0  0  0  0
 42 76  1  0  0  0  0
 42 77  1  0  0  0  0
 43 78  1  0  0  0  0
 44 49  1  0  0  0  0
 45 47  2  0  0  0  0
 46 79  1  0  0  0  0
 47 51  1  0  0  0  0
 48 80  1  0  0  0  0
 48 81  1  0  0  0  0
 48 82  1  0  0  0  0
M  CHG  1  22   1
M  END
>  <DRUGBANK_ID>
DB03958

>  <SECONDARY_ACCESSION_NUMBERS>
EXPT01655

>  <COMMON_NAME>
7-methyl-guanosine-5'-triphosphate-5'-guanosine

>  <SYNONYMS>
mRNA cap analog N7-Methyl GpppG

$$$$
