DHP
 OpenBabel10282417072D

 41 41  0  0  0  0  0  0  0  0999 V2000
   -4.2441    0.3462    0.0000 N   0  0  0  0  0  0  0  0  0  0  0  0
   -3.0246    0.8892    0.0000 C   0  0  0  0  0  0  0  0  0  0  0  0
   -2.4115    1.4412    0.0000 O   0  0  0  0  0  0  0  0  0  0  0  0
   -3.8316    1.0607    0.0000 C   0  0  0  0  0  0  0  0  0  0  0  0
   -4.1671    1.8144    0.0000 O   0  0  0  0  0  0  0  0  0  0  0  0
   -3.6920   -0.2669    0.0000 C   0  0  0  0  0  0  0  0  0  0  0  0
   -3.8636   -1.0738    0.0000 O   0  0  0  0  0  0  0  0  0  0  0  0
   -2.9384    0.0687    0.0000 C   0  0  0  0  0  0  0  0  0  0  0  0
   -2.2239   -0.3438    0.0000 C   0  0  0  0  0  0  0  0  0  0  0  0
   -1.5094    0.0687    0.0000 C   0  0  0  0  0  0  0  0  0  0  0  0
   -0.7949   -0.3438    0.0000 C   0  0  0  0  0  0  0  0  0  0  0  0
   -0.0805    0.0687    0.0000 C   0  0  0  0  0  0  0  0  0  0  0  0
    0.6340   -0.3438    0.0000 C   0  0  0  0  0  0  0  0  0  0  0  0
    1.3485    0.0687    0.0000 C   0  0  0  0  0  0  0  0  0  0  0  0
    2.0629   -0.3438    0.0000 C   0  0  0  0  0  0  0  0  0  0  0  0
    2.7774    0.0687    0.0000 C   0  0  0  0  0  0  0  0  0  0  0  0
    3.4919   -0.3438    0.0000 C   0  0  0  0  0  0  0  0  0  0  0  0
    4.2064    0.0687    0.0000 C   0  0  0  0  0  0  0  0  0  0  0  0
   -5.2232    0.2433    0.0000 H   0  0  0  0  0  0  0  0  0  0  0  0
   -1.5204    1.1516    0.0000 H   0  0  0  0  0  0  0  0  0  0  0  0
   -2.2239   -1.4138    0.0000 H   0  0  0  0  0  0  0  0  0  0  0  0
   -1.2973   -0.8788    0.0000 H   0  0  0  0  0  0  0  0  0  0  0  0
   -1.5094    1.1387    0.0000 H   0  0  0  0  0  0  0  0  0  0  0  0
   -0.5828    0.6037    0.0000 H   0  0  0  0  0  0  0  0  0  0  0  0
   -0.7949   -1.4138    0.0000 H   0  0  0  0  0  0  0  0  0  0  0  0
    0.1318   -0.8788    0.0000 H   0  0  0  0  0  0  0  0  0  0  0  0
   -0.0805    1.1387    0.0000 H   0  0  0  0  0  0  0  0  0  0  0  0
    0.8461    0.6037    0.0000 H   0  0  0  0  0  0  0  0  0  0  0  0
    0.6340   -1.4138    0.0000 H   0  0  0  0  0  0  0  0  0  0  0  0
    1.5606   -0.8788    0.0000 H   0  0  0  0  0  0  0  0  0  0  0  0
    1.3485    1.1387    0.0000 H   0  0  0  0  0  0  0  0  0  0  0  0
    2.2752    0.6037    0.0000 H   0  0  0  0  0  0  0  0  0  0  0  0
    2.0629   -1.4138    0.0000 H   0  0  0  0  0  0  0  0  0  0  0  0
    2.9895   -0.8788    0.0000 H   0  0  0  0  0  0  0  0  0  0  0  0
    2.7774    1.1387    0.0000 H   0  0  0  0  0  0  0  0  0  0  0  0
    3.7040    0.6037    0.0000 H   0  0  0  0  0  0  0  0  0  0  0  0
    3.4919   -1.4138    0.0000 H   0  0  0  0  0  0  0  0  0  0  0  0
    4.4185   -0.8788    0.0000 H   0  0  0  0  0  0  0  0  0  0  0  0
    5.1330   -0.4663    0.0000 H   0  0  0  0  0  0  0  0  0  0  0  0
    4.2064    1.1387    0.0000 H   0  0  0  0  0  0  0  0  0  0  0  0
    5.1331    0.6037    0.0000 H   0  0  0  0  0  0  0  0  0  0  0  0
  1  4  1  0  0  0  0
  1  6  1  0  0  0  0
  1 19  1  0  0  0  0
  2  3  1  0  0  0  0
  2  4  1  0  0  0  0
  2  8  2  0  0  0  0
  3 20  1  0  0  0  0
  4  5  2  0  0  0  0
  6  7  2  0  0  0  0
  6  8  1  0  0  0  0
  8  9  1  0  0  0  0
  9 10  1  0  0  0  0
  9 21  1  0  0  0  0
  9 22  1  0  0  0  0
 10 11  1  0  0  0  0
 10 23  1  0  0  0  0
 10 24  1  0  0  0  0
 11 12  1  0  0  0  0
 11 25  1  0  0  0  0
 11 26  1  0  0  0  0
 12 13  1  0  0  0  0
 12 27  1  0  0  0  0
 12 28  1  0  0  0  0
 13 14  1  0  0  0  0
 13 29  1  0  0  0  0
 13 30  1  0  0  0  0
 14 15  1  0  0  0  0
 14 31  1  0  0  0  0
 14 32  1  0  0  0  0
 15 16  1  0  0  0  0
 15 33  1  0  0  0  0
 15 34  1  0  0  0  0
 16 17  1  0  0  0  0
 16 35  1  0  0  0  0
 16 36  1  0  0  0  0
 17 18  1  0  0  0  0
 17 37  1  0  0  0  0
 17 38  1  0  0  0  0
 18 39  1  0  0  0  0
 18 40  1  0  0  0  0
 18 41  1  0  0  0  0
M  END
>  <DRUGBANK_ID>
DB03064

>  <SECONDARY_ACCESSION_NUMBERS>
EXPT01195

>  <COMMON_NAME>
3-Decyl-2,5-Dioxo-4-Hydroxy-3-Pyrroline

$$$$
