
 OpenBabel10282417072D

249256  0  0  0  0  0  0  0  0999 V2000
  -15.8944   -8.0832    0.0000 O   0  0  0  0  0  0  0  0  0  0  0  0
   17.5743    1.4728    0.0000 O   0  0  0  0  0  0  0  0  0  0  0  0
  -14.4653   -8.0832    0.0000 O   0  0  0  0  0  0  0  0  0  0  0  0
   16.1453    1.4728    0.0000 O   0  0  0  0  0  0  0  0  0  0  0  0
  -17.3234   -9.7333    0.0000 O   0  0  0  0  0  0  0  0  0  0  0  0
  -15.8944  -10.5583    0.0000 O   0  0  0  0  0  0  0  0  0  0  0  0
   19.0034   -0.1773    0.0000 O   0  0  0  0  0  0  0  0  0  0  0  0
   17.5743   -1.0023    0.0000 O   0  0  0  0  0  0  0  0  0  0  0  0
  -14.4653   -9.7333    0.0000 O   0  0  0  0  0  0  0  0  0  0  0  0
   16.1453   -0.1773    0.0000 O   0  0  0  0  0  0  0  0  0  0  0  0
  -18.0380   -8.4957    0.0000 O   0  0  0  0  0  0  0  0  0  0  0  0
   19.7179    1.0602    0.0000 O   0  0  0  0  0  0  0  0  0  0  0  0
  -16.6089   -6.0206    0.0000 O   0  0  0  0  0  0  0  0  0  0  0  0
   14.7162    4.7730    0.0000 O   0  0  0  0  0  0  0  0  0  0  0  0
  -20.1609    3.2259    0.0000 O   0  0  0  0  0  0  0  0  0  0  0  0
    6.3409    0.7864    0.0000 O   0  0  0  0  0  0  0  0  0  0  0  0
  -18.7525    4.6344    0.0000 O   0  0  0  0  0  0  0  0  0  0  0  0
    4.4170    1.3019    0.0000 O   0  0  0  0  0  0  0  0  0  0  0  0
  -13.0363   -4.7830    0.0000 O   0  5  0  0  0  0  0  0  0  0  0  0
  -12.3218   -6.0206    0.0000 O   0  0  0  0  0  0  0  0  0  0  0  0
   17.5743    4.7730    0.0000 O   0  5  0  0  0  0  0  0  0  0  0  0
   18.2889    3.5354    0.0000 O   0  0  0  0  0  0  0  0  0  0  0  0
  -14.8688    4.6549    0.0000 O   0  0  0  0  0  0  0  0  0  0  0  0
    2.4573    4.6549    0.0000 O   0  0  0  0  0  0  0  0  0  0  0  0
  -13.2187    6.0840    0.0000 O   0  0  0  0  0  0  0  0  0  0  0  0
    0.3947    5.3694    0.0000 O   0  0  0  0  0  0  0  0  0  0  0  0
  -11.1561    6.7985    0.0000 O   0  0  0  0  0  0  0  0  0  0  0  0
   -1.2554    6.7985    0.0000 O   0  0  0  0  0  0  0  0  0  0  0  0
   -7.4433    8.9421    0.0000 O   0  0  0  0  0  0  0  0  0  0  0  0
   -4.9681    8.9421    0.0000 O   0  0  0  0  0  0  0  0  0  0  0  0
   -8.6809    9.6566    0.0000 O   0  0  0  0  0  0  0  0  0  0  0  0
   -4.9681    7.5130    0.0000 O   0  0  0  0  0  0  0  0  0  0  0  0
  -17.3234   -0.6576    0.0000 N   0  0  0  0  0  0  0  0  0  0  0  0
    9.7146    2.7104    0.0000 N   0  0  0  0  0  0  0  0  0  0  0  0
  -17.3234   -2.3077    0.0000 N   0  0  0  0  0  0  0  0  0  0  0  0
   11.1436    3.5354    0.0000 N   0  0  0  0  0  0  0  0  0  0  0  0
  -18.7525    1.8175    0.0000 N   0  0  0  0  0  0  0  0  0  0  0  0
    6.8565    2.7104    0.0000 N   0  0  0  0  0  0  0  0  0  0  0  0
  -15.8944   -4.7830    0.0000 N   0  0  0  0  0  0  0  0  0  0  0  0
   14.0017    3.5354    0.0000 N   0  0  0  0  0  0  0  0  0  0  0  0
  -17.3440    3.2259    0.0000 N   0  0  0  0  0  0  0  0  0  0  0  0
    4.9325    3.2259    0.0000 N   0  0  0  0  0  0  0  0  0  0  0  0
  -13.0363   -5.6080    0.0000 N   0  3  0  0  0  0  0  0  0  0  0  0
   17.5743    3.9479    0.0000 N   0  3  0  0  0  0  0  0  0  0  0  0
   -8.6809    8.2275    0.0000 N   0  0  0  0  0  0  0  0  0  0  0  0
   -3.7305    8.2275    0.0000 N   0  0  0  0  0  0  0  0  0  0  0  0
   -5.7932   10.3711    0.0000 N   0  0  0  0  0  0  0  0  0  0  0  0
  -16.6089   -1.0702    0.0000 C   0  0  0  0  0  0  0  0  0  0  0  0
  -18.0380   -1.0702    0.0000 C   0  0  0  0  0  0  0  0  0  0  0  0
   10.4291    2.2978    0.0000 C   0  0  0  0  0  0  0  0  0  0  0  0
    9.7146    3.5354    0.0000 C   0  0  0  0  0  0  0  0  0  0  0  0
  -16.6089   -1.8952    0.0000 C   0  0  0  0  0  0  0  0  0  0  0  0
  -18.0380   -1.8952    0.0000 C   0  0  0  0  0  0  0  0  0  0  0  0
   11.1436    2.7104    0.0000 C   0  0  0  0  0  0  0  0  0  0  0  0
   10.4291    3.9479    0.0000 C   0  0  0  0  0  0  0  0  0  0  0  0
  -17.3234    0.1674    0.0000 C   0  0  0  0  0  0  0  0  0  0  0  0
    9.0000    2.2978    0.0000 C   0  0  0  0  0  0  0  0  0  0  0  0
  -17.3234   -3.1329    0.0000 C   0  0  0  0  0  0  0  0  0  0  0  0
   11.8581    3.9479    0.0000 C   0  0  0  0  0  0  0  0  0  0  0  0
  -16.6089   -9.3207    0.0000 C   0  0  3  0  0  0  0  0  0  0  0  0
  -15.8944   -9.7333    0.0000 C   0  0  3  0  0  0  0  0  0  0  0  0
   18.2889    0.2352    0.0000 C   0  0  2  0  0  0  0  0  0  0  0  0
   17.5743   -0.1773    0.0000 C   0  0  1  0  0  0  0  0  0  0  0  0
  -18.0380    0.5799    0.0000 C   0  0  0  0  0  0  0  0  0  0  0  0
    8.2855    2.7104    0.0000 C   0  0  0  0  0  0  0  0  0  0  0  0
  -16.6089   -8.4957    0.0000 C   0  0  3  0  0  0  0  0  0  0  0  0
  -15.1799   -9.3207    0.0000 C   0  0  3  0  0  0  0  0  0  0  0  0
   18.2889    1.0602    0.0000 C   0  0  1  0  0  0  0  0  0  0  0  0
   16.8598    0.2352    0.0000 C   0  0  2  0  0  0  0  0  0  0  0  0
  -16.6089   -3.5454    0.0000 C   0  0  0  0  0  0  0  0  0  0  0  0
   12.5727    3.5354    0.0000 C   0  0  0  0  0  0  0  0  0  0  0  0
  -15.1799   -8.4957    0.0000 C   0  0  3  0  0  0  0  0  0  0  0  0
   16.8598    1.0602    0.0000 C   0  0  2  0  0  0  0  0  0  0  0  0
  -18.0380    1.4049    0.0000 C   0  0  0  0  0  0  0  0  0  0  0  0
    7.5710    2.2978    0.0000 C   0  0  0  0  0  0  0  0  0  0  0  0
  -17.3234   -8.0832    0.0000 C   0  0  0  0  0  0  0  0  0  0  0  0
   19.0034    1.4728    0.0000 C   0  0  0  0  0  0  0  0  0  0  0  0
  -16.6089   -4.3705    0.0000 C   0  0  0  0  0  0  0  0  0  0  0  0
   13.2872    3.9479    0.0000 C   0  0  0  0  0  0  0  0  0  0  0  0
  -18.7525    2.6425    0.0000 C   0  0  0  0  0  0  0  0  0  0  0  0
    6.1419    2.2978    0.0000 C   0  0  0  0  0  0  0  0  0  0  0  0
  -14.4653   -7.2582    0.0000 C   0  0  0  0  0  0  0  0  0  0  0  0
   16.1453    2.2978    0.0000 C   0  0  0  0  0  0  0  0  0  0  0  0
  -18.1691    3.2259    0.0000 C   0  0  0  0  0  0  0  0  0  0  0  0
    5.3450    2.5113    0.0000 C   0  0  0  0  0  0  0  0  0  0  0  0
  -15.1799   -6.8456    0.0000 C   0  0  0  0  0  0  0  0  0  0  0  0
  -15.8944   -5.6080    0.0000 C   0  0  0  0  0  0  0  0  0  0  0  0
   14.7162    3.9479    0.0000 C   0  0  0  0  0  0  0  0  0  0  0  0
   15.4308    2.7104    0.0000 C   0  0  0  0  0  0  0  0  0  0  0  0
  -15.1799   -6.0206    0.0000 C   0  0  0  0  0  0  0  0  0  0  0  0
   15.4308    3.5354    0.0000 C   0  0  0  0  0  0  0  0  0  0  0  0
  -19.3359    3.2259    0.0000 C   0  0  0  0  0  0  0  0  0  0  0  0
    5.9284    1.5009    0.0000 C   0  0  0  0  0  0  0  0  0  0  0  0
  -13.7508   -6.8456    0.0000 C   0  0  0  0  0  0  0  0  0  0  0  0
   16.8598    2.7104    0.0000 C   0  0  0  0  0  0  0  0  0  0  0  0
  -18.7525    3.8093    0.0000 C   0  0  0  0  0  0  0  0  0  0  0  0
    5.1315    1.7144    0.0000 C   0  0  0  0  0  0  0  0  0  0  0  0
  -14.4653   -5.6080    0.0000 C   0  0  0  0  0  0  0  0  0  0  0  0
  -13.7508   -6.0206    0.0000 C   0  0  0  0  0  0  0  0  0  0  0  0
   16.1453    3.9479    0.0000 C   0  0  0  0  0  0  0  0  0  0  0  0
   16.8598    3.5354    0.0000 C   0  0  0  0  0  0  0  0  0  0  0  0
  -16.9315    3.9404    0.0000 C   0  0  0  0  0  0  0  0  0  0  0  0
    4.1074    3.2259    0.0000 C   0  0  0  0  0  0  0  0  0  0  0  0
  -16.1064    3.9404    0.0000 C   0  0  0  0  0  0  0  0  0  0  0  0
    3.6949    3.9404    0.0000 C   0  0  0  0  0  0  0  0  0  0  0  0
  -15.6939    4.6549    0.0000 C   0  0  0  0  0  0  0  0  0  0  0  0
    2.8698    3.9404    0.0000 C   0  0  0  0  0  0  0  0  0  0  0  0
  -14.4563    5.3694    0.0000 C   0  0  0  0  0  0  0  0  0  0  0  0
    1.6322    4.6549    0.0000 C   0  0  0  0  0  0  0  0  0  0  0  0
  -13.6313    5.3694    0.0000 C   0  0  0  0  0  0  0  0  0  0  0  0
    1.2197    5.3694    0.0000 C   0  0  0  0  0  0  0  0  0  0  0  0
  -12.3937    6.0840    0.0000 C   0  0  0  0  0  0  0  0  0  0  0  0
   -0.0178    6.0840    0.0000 C   0  0  0  0  0  0  0  0  0  0  0  0
  -11.9811    6.7985    0.0000 C   0  0  0  0  0  0  0  0  0  0  0  0
   -0.8428    6.0840    0.0000 C   0  0  0  0  0  0  0  0  0  0  0  0
  -10.7435    7.5130    0.0000 C   0  0  0  0  0  0  0  0  0  0  0  0
   -2.0804    6.7985    0.0000 C   0  0  0  0  0  0  0  0  0  0  0  0
   -9.9185    7.5130    0.0000 C   0  0  0  0  0  0  0  0  0  0  0  0
   -2.4929    7.5130    0.0000 C   0  0  0  0  0  0  0  0  0  0  0  0
   -9.5060    8.2275    0.0000 C   0  0  0  0  0  0  0  0  0  0  0  0
   -3.3180    7.5130    0.0000 C   0  0  0  0  0  0  0  0  0  0  0  0
   -8.2684    8.9421    0.0000 C   0  0  0  0  0  0  0  0  0  0  0  0
   -4.5556    8.2275    0.0000 C   0  0  0  0  0  0  0  0  0  0  0  0
   -6.2057    9.6566    0.0000 C   0  0  3  0  0  0  0  0  0  0  0  0
   -7.0308    9.6566    0.0000 C   0  0  0  0  0  0  0  0  0  0  0  0
   -5.7932    8.9421    0.0000 C   0  0  0  0  0  0  0  0  0  0  0  0
  -18.1635   -9.2484    0.0000 H   0  0  0  0  0  0  0  0  0  0  0  0
  -16.7344  -11.0433    0.0000 H   0  0  0  0  0  0  0  0  0  0  0  0
   19.0034   -1.1473    0.0000 H   0  0  0  0  0  0  0  0  0  0  0  0
   16.7343   -1.4873    0.0000 H   0  0  0  0  0  0  0  0  0  0  0  0
  -14.4653  -10.7033    0.0000 H   0  0  0  0  0  0  0  0  0  0  0  0
   15.3053    0.3077    0.0000 H   0  0  0  0  0  0  0  0  0  0  0  0
  -18.8780   -8.0106    0.0000 H   0  0  0  0  0  0  0  0  0  0  0  0
   19.7178    0.0902    0.0000 H   0  0  0  0  0  0  0  0  0  0  0  0
  -17.4204   -5.5522    0.0000 H   0  0  0  0  0  0  0  0  0  0  0  0
   15.5277    5.2415    0.0000 H   0  0  0  0  0  0  0  0  0  0  0  0
   -8.2124   10.4681    0.0000 H   0  0  0  0  0  0  0  0  0  0  0  0
   -5.9051    7.5130    0.0000 H   0  0  0  0  0  0  0  0  0  0  0  0
  -19.6051    1.3253    0.0000 H   0  0  0  0  0  0  0  0  0  0  0  0
    6.8565    3.6949    0.0000 H   0  0  0  0  0  0  0  0  0  0  0  0
  -16.8517    2.3733    0.0000 H   0  0  0  0  0  0  0  0  0  0  0  0
    5.4248    4.0785    0.0000 H   0  0  0  0  0  0  0  0  0  0  0  0
   -4.7732   10.3711    0.0000 H   0  0  0  0  0  0  0  0  0  0  0  0
   -6.3032   11.2544    0.0000 H   0  0  0  0  0  0  0  0  0  0  0  0
  -15.6822   -0.5352    0.0000 H   0  0  0  0  0  0  0  0  0  0  0  0
  -15.6823   -1.6052    0.0000 H   0  0  0  0  0  0  0  0  0  0  0  0
  -18.9647   -0.5352    0.0000 H   0  0  0  0  0  0  0  0  0  0  0  0
  -18.9646   -1.6052    0.0000 H   0  0  0  0  0  0  0  0  0  0  0  0
   10.4291    1.2278    0.0000 H   0  0  0  0  0  0  0  0  0  0  0  0
   11.3558    1.7628    0.0000 H   0  0  0  0  0  0  0  0  0  0  0  0
    8.7880    4.0704    0.0000 H   0  0  0  0  0  0  0  0  0  0  0  0
    9.7146    4.6054    0.0000 H   0  0  0  0  0  0  0  0  0  0  0  0
  -15.6823   -2.4302    0.0000 H   0  0  0  0  0  0  0  0  0  0  0  0
  -15.6823   -1.3602    0.0000 H   0  0  0  0  0  0  0  0  0  0  0  0
  -18.9646   -2.4302    0.0000 H   0  0  0  0  0  0  0  0  0  0  0  0
  -18.9647   -1.3602    0.0000 H   0  0  0  0  0  0  0  0  0  0  0  0
   12.0703    2.1754    0.0000 H   0  0  0  0  0  0  0  0  0  0  0  0
   11.1437    1.6404    0.0000 H   0  0  0  0  0  0  0  0  0  0  0  0
   10.4291    5.0179    0.0000 H   0  0  0  0  0  0  0  0  0  0  0  0
    9.5025    4.4829    0.0000 H   0  0  0  0  0  0  0  0  0  0  0  0
  -16.3968    0.7024    0.0000 H   0  0  0  0  0  0  0  0  0  0  0  0
  -17.3235    1.2374    0.0000 H   0  0  0  0  0  0  0  0  0  0  0  0
    9.0000    1.2278    0.0000 H   0  0  0  0  0  0  0  0  0  0  0  0
    8.0733    1.7629    0.0000 H   0  0  0  0  0  0  0  0  0  0  0  0
  -18.2500   -3.6679    0.0000 H   0  0  0  0  0  0  0  0  0  0  0  0
  -17.3234   -4.2029    0.0000 H   0  0  0  0  0  0  0  0  0  0  0  0
   11.8581    5.0179    0.0000 H   0  0  0  0  0  0  0  0  0  0  0  0
   12.7847    4.4830    0.0000 H   0  0  0  0  0  0  0  0  0  0  0  0
  -16.6089  -10.3907    0.0000 H   0  0  0  0  0  0  0  0  0  0  0  0
  -16.8211  -10.2683    0.0000 H   0  0  0  0  0  0  0  0  0  0  0  0
   18.2889   -0.8348    0.0000 H   0  0  0  0  0  0  0  0  0  0  0  0
   18.5009   -0.7123    0.0000 H   0  0  0  0  0  0  0  0  0  0  0  0
  -18.9646    0.0449    0.0000 H   0  0  0  0  0  0  0  0  0  0  0  0
  -18.9647    1.1149    0.0000 H   0  0  0  0  0  0  0  0  0  0  0  0
    8.2855    3.7804    0.0000 H   0  0  0  0  0  0  0  0  0  0  0  0
    7.3588    3.2454    0.0000 H   0  0  0  0  0  0  0  0  0  0  0  0
  -15.6823   -9.0307    0.0000 H   0  0  0  0  0  0  0  0  0  0  0  0
  -15.1799  -10.3907    0.0000 H   0  0  0  0  0  0  0  0  0  0  0  0
   18.2889    2.1302    0.0000 H   0  0  0  0  0  0  0  0  0  0  0  0
   16.8598   -0.8348    0.0000 H   0  0  0  0  0  0  0  0  0  0  0  0
  -15.6823   -3.0104    0.0000 H   0  0  0  0  0  0  0  0  0  0  0  0
  -15.6823   -4.0804    0.0000 H   0  0  0  0  0  0  0  0  0  0  0  0
   12.5727    2.4654    0.0000 H   0  0  0  0  0  0  0  0  0  0  0  0
   13.4994    3.0004    0.0000 H   0  0  0  0  0  0  0  0  0  0  0  0
  -15.1799   -7.4257    0.0000 H   0  0  0  0  0  0  0  0  0  0  0  0
   16.8598    2.1302    0.0000 H   0  0  0  0  0  0  0  0  0  0  0  0
  -17.1113    1.9399    0.0000 H   0  0  0  0  0  0  0  0  0  0  0  0
  -17.1114    0.8699    0.0000 H   0  0  0  0  0  0  0  0  0  0  0  0
    7.5710    1.2278    0.0000 H   0  0  0  0  0  0  0  0  0  0  0  0
    8.4977    1.7628    0.0000 H   0  0  0  0  0  0  0  0  0  0  0  0
  -17.3234   -7.0132    0.0000 H   0  0  0  0  0  0  0  0  0  0  0  0
  -16.3967   -7.5482    0.0000 H   0  0  0  0  0  0  0  0  0  0  0  0
   19.0034    2.5428    0.0000 H   0  0  0  0  0  0  0  0  0  0  0  0
   18.0767    2.0078    0.0000 H   0  0  0  0  0  0  0  0  0  0  0  0
  -17.5355   -4.9055    0.0000 H   0  0  0  0  0  0  0  0  0  0  0  0
  -17.5355   -3.8355    0.0000 H   0  0  0  0  0  0  0  0  0  0  0  0
   13.2872    5.0179    0.0000 H   0  0  0  0  0  0  0  0  0  0  0  0
   12.3606    4.4829    0.0000 H   0  0  0  0  0  0  0  0  0  0  0  0
  -16.0736   -7.3616    0.0000 H   0  0  0  0  0  0  0  0  0  0  0  0
   14.5370    2.1944    0.0000 H   0  0  0  0  0  0  0  0  0  0  0  0
  -12.8570   -7.3616    0.0000 H   0  0  0  0  0  0  0  0  0  0  0  0
   17.7536    2.1944    0.0000 H   0  0  0  0  0  0  0  0  0  0  0  0
  -14.4653   -4.5760    0.0000 H   0  0  0  0  0  0  0  0  0  0  0  0
   16.1453    4.9799    0.0000 H   0  0  0  0  0  0  0  0  0  0  0  0
  -17.4665    4.8670    0.0000 H   0  0  0  0  0  0  0  0  0  0  0  0
  -16.3965    4.8670    0.0000 H   0  0  0  0  0  0  0  0  0  0  0  0
    3.5724    2.2993    0.0000 H   0  0  0  0  0  0  0  0  0  0  0  0
    3.0374    3.2259    0.0000 H   0  0  0  0  0  0  0  0  0  0  0  0
  -15.5714    3.0138    0.0000 H   0  0  0  0  0  0  0  0  0  0  0  0
  -15.0364    3.9404    0.0000 H   0  0  0  0  0  0  0  0  0  0  0  0
    4.2299    4.8670    0.0000 H   0  0  0  0  0  0  0  0  0  0  0  0
    3.1599    4.8670    0.0000 H   0  0  0  0  0  0  0  0  0  0  0  0
  -16.2289    5.5815    0.0000 H   0  0  0  0  0  0  0  0  0  0  0  0
  -16.7639    4.6549    0.0000 H   0  0  0  0  0  0  0  0  0  0  0  0
    2.3348    3.0138    0.0000 H   0  0  0  0  0  0  0  0  0  0  0  0
    3.4048    3.0138    0.0000 H   0  0  0  0  0  0  0  0  0  0  0  0
  -14.9913    6.2960    0.0000 H   0  0  0  0  0  0  0  0  0  0  0  0
  -13.9213    6.2960    0.0000 H   0  0  0  0  0  0  0  0  0  0  0  0
    1.0972    3.7283    0.0000 H   0  0  0  0  0  0  0  0  0  0  0  0
    0.5622    4.6549    0.0000 H   0  0  0  0  0  0  0  0  0  0  0  0
  -13.0963    4.4427    0.0000 H   0  0  0  0  0  0  0  0  0  0  0  0
  -14.1663    4.4428    0.0000 H   0  0  0  0  0  0  0  0  0  0  0  0
    1.7547    6.2960    0.0000 H   0  0  0  0  0  0  0  0  0  0  0  0
    2.2897    5.3694    0.0000 H   0  0  0  0  0  0  0  0  0  0  0  0
  -11.8587    5.1573    0.0000 H   0  0  0  0  0  0  0  0  0  0  0  0
  -11.3237    6.0839    0.0000 H   0  0  0  0  0  0  0  0  0  0  0  0
    0.5172    7.0106    0.0000 H   0  0  0  0  0  0  0  0  0  0  0  0
   -0.5528    7.0107    0.0000 H   0  0  0  0  0  0  0  0  0  0  0  0
  -12.5161    7.7252    0.0000 H   0  0  0  0  0  0  0  0  0  0  0  0
  -13.0511    6.7986    0.0000 H   0  0  0  0  0  0  0  0  0  0  0  0
   -1.3778    5.1573    0.0000 H   0  0  0  0  0  0  0  0  0  0  0  0
   -0.3078    5.1574    0.0000 H   0  0  0  0  0  0  0  0  0  0  0  0
  -11.2785    8.4397    0.0000 H   0  0  0  0  0  0  0  0  0  0  0  0
  -10.2085    8.4396    0.0000 H   0  0  0  0  0  0  0  0  0  0  0  0
   -2.6154    5.8719    0.0000 H   0  0  0  0  0  0  0  0  0  0  0  0
   -3.1504    6.7985    0.0000 H   0  0  0  0  0  0  0  0  0  0  0  0
   -9.3835    6.5864    0.0000 H   0  0  0  0  0  0  0  0  0  0  0  0
   -8.8485    7.5130    0.0000 H   0  0  0  0  0  0  0  0  0  0  0  0
   -1.9579    8.4396    0.0000 H   0  0  0  0  0  0  0  0  0  0  0  0
   -3.0279    8.4396    0.0000 H   0  0  0  0  0  0  0  0  0  0  0  0
  -10.0410    9.1541    0.0000 H   0  0  0  0  0  0  0  0  0  0  0  0
  -10.5760    8.2275    0.0000 H   0  0  0  0  0  0  0  0  0  0  0  0
   -3.8530    6.5864    0.0000 H   0  0  0  0  0  0  0  0  0  0  0  0
   -2.7830    6.5864    0.0000 H   0  0  0  0  0  0  0  0  0  0  0  0
   -6.7407   10.5832    0.0000 H   0  0  0  0  0  0  0  0  0  0  0  0
   -7.5658   10.5832    0.0000 H   0  0  0  0  0  0  0  0  0  0  0  0
   -6.4958   10.5832    0.0000 H   0  0  0  0  0  0  0  0  0  0  0  0
   -6.3282    8.0155    0.0000 H   0  0  0  0  0  0  0  0  0  0  0  0
   -6.8632    8.9421    0.0000 H   0  0  0  0  0  0  0  0  0  0  0  0
  1 66  1  0  0  0  0
  1 72  1  0  0  0  0
  2 68  1  0  0  0  0
  2 73  1  0  0  0  0
  3 72  1  0  0  0  0
  3 82  1  0  0  0  0
  4 83  1  0  0  0  0
  5 60  1  0  0  0  0
  5127  1  0  0  0  0
  6 61  1  0  0  0  0
  6128  1  0  0  0  0
  7129  1  0  0  0  0
  8130  1  0  0  0  0
  9 67  1  0  0  0  0
  9131  1  0  0  0  0
 10132  1  0  0  0  0
 11 76  1  0  0  0  0
 11133  1  0  0  0  0
 12 77  1  0  0  0  0
 12134  1  0  0  0  0
 13 87  1  0  0  0  0
 13135  1  0  0  0  0
 14 88  1  0  0  0  0
 14136  1  0  0  0  0
 15 92  2  0  0  0  0
 16 93  2  0  0  0  0
 17 96  2  0  0  0  0
 18 97  2  0  0  0  0
 19 43  1  0  0  0  0
 20 43  2  0  0  0  0
 21 44  1  0  0  0  0
 22 44  2  0  0  0  0
 23106  1  0  0  0  0
 23108  1  0  0  0  0
 24107  1  0  0  0  0
 24109  1  0  0  0  0
 25110  1  0  0  0  0
 25112  1  0  0  0  0
 26111  1  0  0  0  0
 26113  1  0  0  0  0
 27114  1  0  0  0  0
 27116  1  0  0  0  0
 28115  1  0  0  0  0
 28117  1  0  0  0  0
 29122  1  0  0  0  0
 29125  1  0  0  0  0
 30123  1  0  0  0  0
 30126  1  0  0  0  0
 31122  1  0  0  0  0
 31137  1  0  0  0  0
 32123  1  0  0  0  0
 32138  1  0  0  0  0
 33 48  1  0  0  0  0
 33 49  1  0  0  0  0
 33 56  1  0  0  0  0
 34 50  1  0  0  0  0
 34 51  1  0  0  0  0
 34 57  1  0  0  0  0
 35 52  1  0  0  0  0
 35 53  1  0  0  0  0
 35 58  1  0  0  0  0
 36 54  1  0  0  0  0
 36 55  1  0  0  0  0
 36 59  1  0  0  0  0
 37 74  1  0  0  0  0
 37 80  1  0  0  0  0
 37139  1  0  0  0  0
 38 75  1  0  0  0  0
 38 81  1  0  0  0  0
 38140  1  0  0  0  0
 39 78  1  0  0  0  0
 39 87  2  0  0  0  0
 40 79  1  0  0  0  0
 40 88  2  0  0  0  0
 41 84  1  0  0  0  0
 41102  1  0  0  0  0
 41141  1  0  0  0  0
 42 85  1  0  0  0  0
 42103  1  0  0  0  0
 42142  1  0  0  0  0
 43 99  1  0  0  0  0
 44101  1  0  0  0  0
 45120  1  0  0  0  0
 45122  2  0  0  0  0
 46121  1  0  0  0  0
 46123  2  0  0  0  0
 47124  1  0  0  0  0
 47143  1  0  0  0  0
 47144  1  0  0  0  0
 48 52  1  0  0  0  0
 48145  1  0  0  0  0
 48146  1  0  0  0  0
 49 53  1  0  0  0  0
 49147  1  0  0  0  0
 49148  1  0  0  0  0
 50 54  1  0  0  0  0
 50149  1  0  0  0  0
 50150  1  0  0  0  0
 51 55  1  0  0  0  0
 51151  1  0  0  0  0
 51152  1  0  0  0  0
 52153  1  0  0  0  0
 52154  1  0  0  0  0
 53155  1  0  0  0  0
 53156  1  0  0  0  0
 54157  1  0  0  0  0
 54158  1  0  0  0  0
 55159  1  0  0  0  0
 55160  1  0  0  0  0
 56 64  1  0  0  0  0
 56161  1  0  0  0  0
 56162  1  0  0  0  0
 57 65  1  0  0  0  0
 57163  1  0  0  0  0
 57164  1  0  0  0  0
 58 70  1  0  0  0  0
 58165  1  0  0  0  0
 58166  1  0  0  0  0
 59 71  1  0  0  0  0
 59167  1  0  0  0  0
 59168  1  0  0  0  0
 60 61  1  0  0  0  0
 60 66  1  0  0  0  0
 60169  1  0  0  0  0
 61 67  1  0  0  0  0
 61170  1  0  0  0  0
 62  7  1  0  0  0  0
 62 63  1  0  0  0  0
 62 68  1  0  0  0  0
 62171  1  1  0  0  0
 63  8  1  0  0  0  0
 63 69  1  0  0  0  0
 63172  1  1  0  0  0
 64 74  1  0  0  0  0
 64173  1  0  0  0  0
 64174  1  0  0  0  0
 65 75  1  0  0  0  0
 65175  1  0  0  0  0
 65176  1  0  0  0  0
 66 76  1  0  0  0  0
 66177  1  0  0  0  0
 67 72  1  0  0  0  0
 67178  1  0  0  0  0
 68 77  1  0  0  0  0
 68179  1  1  0  0  0
 69 10  1  0  0  0  0
 69 73  1  0  0  0  0
 69180  1  6  0  0  0
 70 78  1  0  0  0  0
 70181  1  0  0  0  0
 70182  1  0  0  0  0
 71 79  1  0  0  0  0
 71183  1  0  0  0  0
 71184  1  0  0  0  0
 72185  1  0  0  0  0
 73  4  1  0  0  0  0
 73186  1  6  0  0  0
 74187  1  0  0  0  0
 74188  1  0  0  0  0
 75189  1  0  0  0  0
 75190  1  0  0  0  0
 76191  1  0  0  0  0
 76192  1  0  0  0  0
 77193  1  0  0  0  0
 77194  1  0  0  0  0
 78195  1  0  0  0  0
 78196  1  0  0  0  0
 79197  1  0  0  0  0
 79198  1  0  0  0  0
 80 84  2  0  0  0  0
 80 92  1  0  0  0  0
 81 85  2  0  0  0  0
 81 93  1  0  0  0  0
 82 86  2  0  0  0  0
 82 94  1  0  0  0  0
 83 89  2  0  0  0  0
 83 95  1  0  0  0  0
 84 96  1  0  0  0  0
 85 97  1  0  0  0  0
 86 90  1  0  0  0  0
 86199  1  0  0  0  0
 87 90  1  0  0  0  0
 88 91  1  0  0  0  0
 89 91  1  0  0  0  0
 89200  1  0  0  0  0
 90 98  2  0  0  0  0
 91100  2  0  0  0  0
 92 96  1  0  0  0  0
 93 97  1  0  0  0  0
 94 99  2  0  0  0  0
 94201  1  0  0  0  0
 95101  2  0  0  0  0
 95202  1  0  0  0  0
 98 99  1  0  0  0  0
 98203  1  0  0  0  0
100101  1  0  0  0  0
100204  1  0  0  0  0
102104  1  0  0  0  0
102205  1  0  0  0  0
102206  1  0  0  0  0
103105  1  0  0  0  0
103207  1  0  0  0  0
103208  1  0  0  0  0
104106  1  0  0  0  0
104209  1  0  0  0  0
104210  1  0  0  0  0
105107  1  0  0  0  0
105211  1  0  0  0  0
105212  1  0  0  0  0
106213  1  0  0  0  0
106214  1  0  0  0  0
107215  1  0  0  0  0
107216  1  0  0  0  0
108110  1  0  0  0  0
108217  1  0  0  0  0
108218  1  0  0  0  0
109111  1  0  0  0  0
109219  1  0  0  0  0
109220  1  0  0  0  0
110221  1  0  0  0  0
110222  1  0  0  0  0
111223  1  0  0  0  0
111224  1  0  0  0  0
112114  1  0  0  0  0
112225  1  0  0  0  0
112226  1  0  0  0  0
113115  1  0  0  0  0
113227  1  0  0  0  0
113228  1  0  0  0  0
114229  1  0  0  0  0
114230  1  0  0  0  0
115231  1  0  0  0  0
115232  1  0  0  0  0
116118  1  0  0  0  0
116233  1  0  0  0  0
116234  1  0  0  0  0
117119  1  0  0  0  0
117235  1  0  0  0  0
117236  1  0  0  0  0
118120  1  0  0  0  0
118237  1  0  0  0  0
118238  1  0  0  0  0
119121  1  0  0  0  0
119239  1  0  0  0  0
119240  1  0  0  0  0
120241  1  0  0  0  0
120242  1  0  0  0  0
121243  1  0  0  0  0
121244  1  0  0  0  0
124125  1  0  0  0  0
124126  1  0  0  0  0
124245  1  0  0  0  0
125246  1  0  0  0  0
125247  1  0  0  0  0
126248  1  0  0  0  0
126249  1  0  0  0  0
M  CHG  4  19  -1  21  -1  43   1  44   1
M  END
>  <DRUGBANK_ID>
DB02572

>  <SECONDARY_ACCESSION_NUMBERS>
EXPT00782

>  <COMMON_NAME>
1,3-bis-([3-[3-[3-(4-{3-[3-nitro-5-(galactopyranosyloxy)-benzoylamino]-propyl}-piperazin-1-yl)-propylamino-3,4-dioxo-cyclobutenyl]-amino-propoxy-ethoxy-ethoxy]-propyl-]amino-carbonyloxy)-2-amino-propane

$$$$
