
 OpenBabel10282417072D

 86 87  0  0  0  0  0  0  0  0999 V2000
    6.4302   -2.8875    0.0000 C   0  0  0  0  0  0  0  0  0  0  0  0
    4.2868   -0.8250    0.0000 C   0  0  0  0  0  0  0  0  0  0  0  0
   13.5749   -2.0625    0.0000 C   0  0  0  0  0  0  0  0  0  0  0  0
   12.1460   -4.5375    0.0000 C   0  0  0  0  0  0  0  0  0  0  0  0
   -2.8579   -1.6500    0.0000 C   0  0  0  0  0  0  0  0  0  0  0  0
   -1.4289    0.8250    0.0000 C   0  0  0  0  0  0  0  0  0  0  0  0
   12.8605   -4.1250    0.0000 C   0  0  0  0  0  0  0  0  0  0  0  0
   -2.8579   -0.8250    0.0000 C   0  0  0  0  0  0  0  0  0  0  0  0
    7.8592   -2.0625    0.0000 C   0  0  0  0  0  0  0  0  0  0  0  0
    2.8579   -1.6500    0.0000 C   0  0  0  0  0  0  0  0  0  0  0  0
    7.1447   -1.6500    0.0000 C   0  0  0  0  0  0  0  0  0  0  0  0
    3.5724   -2.0625    0.0000 C   0  0  0  0  0  0  0  0  0  0  0  0
    5.7158   -1.6500    0.0000 C   0  0  0  0  0  0  0  0  0  0  0  0
    5.0013   -2.0625    0.0000 C   0  0  0  0  0  0  0  0  0  0  0  0
    8.5737   -1.6500    0.0000 C   0  0  0  0  0  0  0  0  0  0  0  0
    2.1434   -2.0625    0.0000 C   0  0  0  0  0  0  0  0  0  0  0  0
   11.4315   -1.6500    0.0000 C   0  0  0  0  0  0  0  0  0  0  0  0
   10.7171   -2.8875    0.0000 C   0  0  0  0  0  0  0  0  0  0  0  0
   -0.7145   -2.0625    0.0000 C   0  0  0  0  0  0  0  0  0  0  0  0
    0.0000   -0.8250    0.0000 C   0  0  0  0  0  0  0  0  0  0  0  0
   10.7171   -2.0625    0.0000 C   0  0  0  0  0  0  0  0  0  0  0  0
    0.0000   -1.6500    0.0000 C   0  0  0  0  0  0  0  0  0  0  0  0
   12.1460   -2.0625    0.0000 C   0  0  0  0  0  0  0  0  0  0  0  0
   11.4315   -3.3000    0.0000 C   0  0  0  0  0  0  0  0  0  0  0  0
   -1.4289   -1.6500    0.0000 C   0  0  0  0  0  0  0  0  0  0  0  0
   -0.7145   -0.4125    0.0000 C   0  0  0  0  0  0  0  0  0  0  0  0
   12.1460   -2.8875    0.0000 C   0  0  0  0  0  0  0  0  0  0  0  0
   -1.4289   -0.8250    0.0000 C   0  0  0  0  0  0  0  0  0  0  0  0
   10.0026   -1.6500    0.0000 C   0  0  0  0  0  0  0  0  0  0  0  0
    0.7145   -2.0625    0.0000 C   0  0  0  0  0  0  0  0  0  0  0  0
    6.4302   -2.0625    0.0000 N   0  0  0  0  0  0  0  0  0  0  0  0
    4.2868   -1.6500    0.0000 N   0  0  0  0  0  0  0  0  0  0  0  0
   10.0026   -0.8250    0.0000 O   0  0  0  0  0  0  0  0  0  0  0  0
    0.7145   -2.8875    0.0000 O   0  0  0  0  0  0  0  0  0  0  0  0
   12.8605   -1.6500    0.0000 O   0  0  0  0  0  0  0  0  0  0  0  0
   11.4315   -4.1250    0.0000 O   0  0  0  0  0  0  0  0  0  0  0  0
   -2.1434   -2.0625    0.0000 O   0  0  0  0  0  0  0  0  0  0  0  0
   -0.7145    0.4125    0.0000 O   0  0  0  0  0  0  0  0  0  0  0  0
   12.8605   -3.3000    0.0000 O   0  0  0  0  0  0  0  0  0  0  0  0
   -2.1434   -0.4125    0.0000 O   0  0  0  0  0  0  0  0  0  0  0  0
    9.2881   -2.0625    0.0000 O   0  0  0  0  0  0  0  0  0  0  0  0
    1.4289   -1.6500    0.0000 O   0  0  0  0  0  0  0  0  0  0  0  0
    5.5036   -3.4225    0.0000 H   0  0  0  0  0  0  0  0  0  0  0  0
    7.3568   -3.4225    0.0000 H   0  0  0  0  0  0  0  0  0  0  0  0
    6.4302   -3.9575    0.0000 H   0  0  0  0  0  0  0  0  0  0  0  0
    5.2134   -0.2900    0.0000 H   0  0  0  0  0  0  0  0  0  0  0  0
    3.3602   -0.2900    0.0000 H   0  0  0  0  0  0  0  0  0  0  0  0
    4.2868    0.2450    0.0000 H   0  0  0  0  0  0  0  0  0  0  0  0
   13.5749   -3.1325    0.0000 H   0  0  0  0  0  0  0  0  0  0  0  0
   14.5016   -1.5275    0.0000 H   0  0  0  0  0  0  0  0  0  0  0  0
   14.5015   -2.5975    0.0000 H   0  0  0  0  0  0  0  0  0  0  0  0
   12.1460   -5.6075    0.0000 H   0  0  0  0  0  0  0  0  0  0  0  0
   13.0726   -4.0025    0.0000 H   0  0  0  0  0  0  0  0  0  0  0  0
   13.0727   -5.0725    0.0000 H   0  0  0  0  0  0  0  0  0  0  0  0
   -2.8579   -0.5800    0.0000 H   0  0  0  0  0  0  0  0  0  0  0  0
   -3.7845   -2.1850    0.0000 H   0  0  0  0  0  0  0  0  0  0  0  0
   -3.7846   -1.1150    0.0000 H   0  0  0  0  0  0  0  0  0  0  0  0
   -1.4289    1.8950    0.0000 H   0  0  0  0  0  0  0  0  0  0  0  0
   -2.3556    0.2900    0.0000 H   0  0  0  0  0  0  0  0  0  0  0  0
   -2.3555    1.3600    0.0000 H   0  0  0  0  0  0  0  0  0  0  0  0
   11.9339   -4.6600    0.0000 H   0  0  0  0  0  0  0  0  0  0  0  0
   13.7871   -4.6600    0.0000 H   0  0  0  0  0  0  0  0  0  0  0  0
   12.8605   -5.1950    0.0000 H   0  0  0  0  0  0  0  0  0  0  0  0
   -3.7845   -0.2900    0.0000 H   0  0  0  0  0  0  0  0  0  0  0  0
   -2.8579   -1.8950    0.0000 H   0  0  0  0  0  0  0  0  0  0  0  0
   -3.7846   -1.3600    0.0000 H   0  0  0  0  0  0  0  0  0  0  0  0
    7.8592   -3.1325    0.0000 H   0  0  0  0  0  0  0  0  0  0  0  0
    8.7858   -2.5975    0.0000 H   0  0  0  0  0  0  0  0  0  0  0  0
    2.8579   -0.5800    0.0000 H   0  0  0  0  0  0  0  0  0  0  0  0
    1.9313   -1.1150    0.0000 H   0  0  0  0  0  0  0  0  0  0  0  0
    7.1447   -0.5800    0.0000 H   0  0  0  0  0  0  0  0  0  0  0  0
    6.2181   -1.1150    0.0000 H   0  0  0  0  0  0  0  0  0  0  0  0
    3.5724   -3.1325    0.0000 H   0  0  0  0  0  0  0  0  0  0  0  0
    4.4991   -2.5975    0.0000 H   0  0  0  0  0  0  0  0  0  0  0  0
    5.7158   -0.5800    0.0000 H   0  0  0  0  0  0  0  0  0  0  0  0
    6.6425   -1.1150    0.0000 H   0  0  0  0  0  0  0  0  0  0  0  0
    5.0013   -3.1325    0.0000 H   0  0  0  0  0  0  0  0  0  0  0  0
    4.0747   -2.5975    0.0000 H   0  0  0  0  0  0  0  0  0  0  0  0
    8.5737   -0.5800    0.0000 H   0  0  0  0  0  0  0  0  0  0  0  0
    9.5004   -1.1150    0.0000 H   0  0  0  0  0  0  0  0  0  0  0  0
    2.1434   -3.1325    0.0000 H   0  0  0  0  0  0  0  0  0  0  0  0
    1.2168   -2.5975    0.0000 H   0  0  0  0  0  0  0  0  0  0  0  0
   11.4315   -0.6180    0.0000 H   0  0  0  0  0  0  0  0  0  0  0  0
    9.8234   -3.4035    0.0000 H   0  0  0  0  0  0  0  0  0  0  0  0
   -0.7145   -3.0945    0.0000 H   0  0  0  0  0  0  0  0  0  0  0  0
    0.8937   -0.3090    0.0000 H   0  0  0  0  0  0  0  0  0  0  0  0
  1 43  1  0  0  0  0
  1 44  1  0  0  0  0
  1 45  1  0  0  0  0
  2 46  1  0  0  0  0
  2 47  1  0  0  0  0
  2 48  1  0  0  0  0
  3 49  1  0  0  0  0
  3 50  1  0  0  0  0
  3 51  1  0  0  0  0
  4 52  1  0  0  0  0
  4 53  1  0  0  0  0
  4 54  1  0  0  0  0
  5 55  1  0  0  0  0
  5 56  1  0  0  0  0
  5 57  1  0  0  0  0
  6 58  1  0  0  0  0
  6 59  1  0  0  0  0
  6 60  1  0  0  0  0
  7 61  1  0  0  0  0
  7 62  1  0  0  0  0
  7 63  1  0  0  0  0
  8 64  1  0  0  0  0
  8 65  1  0  0  0  0
  8 66  1  0  0  0  0
  9 67  1  0  0  0  0
  9 68  1  0  0  0  0
 10 69  1  0  0  0  0
 10 70  1  0  0  0  0
 11  9  1  0  0  0  0
 11 71  1  0  0  0  0
 11 72  1  0  0  0  0
 12 10  1  0  0  0  0
 12 73  1  0  0  0  0
 12 74  1  0  0  0  0
 13 75  1  0  0  0  0
 13 76  1  0  0  0  0
 14 13  1  0  0  0  0
 14 77  1  0  0  0  0
 14 78  1  0  0  0  0
 15  9  1  0  0  0  0
 15 79  1  0  0  0  0
 15 80  1  0  0  0  0
 16 10  1  0  0  0  0
 16 81  1  0  0  0  0
 16 82  1  0  0  0  0
 17 83  1  0  0  0  0
 18 84  1  0  0  0  0
 19 85  1  0  0  0  0
 20 86  1  0  0  0  0
 21 17  2  0  0  0  0
 21 18  1  0  0  0  0
 22 19  2  0  0  0  0
 22 20  1  0  0  0  0
 23 17  1  0  0  0  0
 24 18  2  0  0  0  0
 25 19  1  0  0  0  0
 26 20  2  0  0  0  0
 27 23  2  0  0  0  0
 27 24  1  0  0  0  0
 28 25  2  0  0  0  0
 28 26  1  0  0  0  0
 29 21  1  0  0  0  0
 30 22  1  0  0  0  0
 31  1  1  0  0  0  0
 31 11  1  0  0  0  0
 31 13  1  0  0  0  0
 32  2  1  0  0  0  0
 32 12  1  0  0  0  0
 32 14  1  0  0  0  0
 33 29  2  0  0  0  0
 34 30  2  0  0  0  0
 35  3  1  0  0  0  0
 35 23  1  0  0  0  0
 36  4  1  0  0  0  0
 36 24  1  0  0  0  0
 37  5  1  0  0  0  0
 37 25  1  0  0  0  0
 38  6  1  0  0  0  0
 38 26  1  0  0  0  0
 39  7  1  0  0  0  0
 39 27  1  0  0  0  0
 40  8  1  0  0  0  0
 40 28  1  0  0  0  0
 41 15  1  0  0  0  0
 41 29  1  0  0  0  0
 42 16  1  0  0  0  0
 42 30  1  0  0  0  0
M  END
>  <DRUGBANK_ID>
DB13265

>  <COMMON_NAME>
Hexobendine

>  <CAS_NUMBER>
54-03-5

>  <UNII>
B6X4SYR93B

>  <SYNONYMS>
Hexobendine

$$$$
