5ID
 OpenBabel10282417072D

 33 35  0  0  0  0  0  0  0  0999 V2000
   -2.4978   -2.3653    0.0000 O   0  0  0  0  0  0  0  0  0  0  0  0
   -2.5840   -1.5448    0.0000 C   0  0  0  0  0  0  0  0  0  0  0  0
   -1.9166   -1.0599    0.0000 C   0  0  1  0  0  0  0  0  0  0  0  0
   -1.9166   -0.2349    0.0000 O   0  0  0  0  0  0  0  0  0  0  0  0
   -1.1320    0.0201    0.0000 C   0  0  1  0  0  0  0  0  0  0  0  0
   -0.8770    0.8047    0.0000 N   0  0  0  0  0  0  0  0  0  0  0  0
   -1.3619    1.4721    0.0000 C   0  0  0  0  0  0  0  0  0  0  0  0
   -0.8770    2.1396    0.0000 C   0  0  0  0  0  0  0  0  0  0  0  0
   -0.0924    1.8846    0.0000 C   0  0  0  0  0  0  0  0  0  0  0  0
    0.6221    2.2971    0.0000 C   0  0  0  0  0  0  0  0  0  0  0  0
    1.3365    1.8846    0.0000 N   0  0  0  0  0  0  0  0  0  0  0  0
    1.3365    1.0596    0.0000 C   0  0  0  0  0  0  0  0  0  0  0  0
    0.6221    0.6471    0.0000 N   0  0  0  0  0  0  0  0  0  0  0  0
   -0.0924    1.0596    0.0000 C   0  0  0  0  0  0  0  0  0  0  0  0
    0.6221    3.1221    0.0000 N   0  0  0  0  0  0  0  0  0  0  0  0
   -0.6470   -0.6474    0.0000 C   0  0  2  0  0  0  0  0  0  0  0  0
    0.1780   -0.6474    0.0000 O   0  0  0  0  0  0  0  0  0  0  0  0
   -1.1320   -1.3148    0.0000 C   0  0  2  0  0  0  0  0  0  0  0  0
   -0.8770   -2.0994    0.0000 O   0  0  0  0  0  0  0  0  0  0  0  0
   -1.1320    2.9242    0.0000 I   0  0  0  0  0  0  0  0  0  0  0  0
   -2.4369   -0.7948    0.0000 H   0  0  0  0  0  0  0  0  0  0  0  0
   -1.5449    0.4330    0.0000 H   0  0  0  0  0  0  0  0  0  0  0  0
   -0.3819   -0.1271    0.0000 H   0  0  0  0  0  0  0  0  0  0  0  0
   -1.5449   -1.7277    0.0000 H   0  0  0  0  0  0  0  0  0  0  0  0
   -3.2826   -2.9354    0.0000 H   0  0  0  0  0  0  0  0  0  0  0  0
   -3.5615   -1.1096    0.0000 H   0  0  0  0  0  0  0  0  0  0  0  0
   -2.6958   -0.4807    0.0000 H   0  0  0  0  0  0  0  0  0  0  0  0
   -2.3939    1.4721    0.0000 H   0  0  0  0  0  0  0  0  0  0  0  0
    2.2302    0.5436    0.0000 H   0  0  0  0  0  0  0  0  0  0  0  0
    1.4747    3.6143    0.0000 H   0  0  0  0  0  0  0  0  0  0  0  0
   -0.2305    3.6143    0.0000 H   0  0  0  0  0  0  0  0  0  0  0  0
    0.6630   -1.4874    0.0000 H   0  0  0  0  0  0  0  0  0  0  0  0
   -1.5260   -2.8203    0.0000 H   0  0  0  0  0  0  0  0  0  0  0  0
  1  2  1  0  0  0  0
  1 25  1  0  0  0  0
  2 26  1  0  0  0  0
  2 27  1  0  0  0  0
  3  2  1  0  0  0  0
  3  4  1  0  0  0  0
  3 18  1  0  0  0  0
  3 21  1  6  0  0  0
  4  5  1  0  0  0  0
  5  6  1  0  0  0  0
  5 16  1  0  0  0  0
  5 22  1  6  0  0  0
  6  7  1  0  0  0  0
  6 14  1  0  0  0  0
  7  8  2  0  0  0  0
  7 28  1  0  0  0  0
  8  9  1  0  0  0  0
  8 20  1  0  0  0  0
  9 10  2  0  0  0  0
  9 14  1  0  0  0  0
 10 11  1  0  0  0  0
 10 15  1  0  0  0  0
 11 12  2  0  0  0  0
 12 13  1  0  0  0  0
 12 29  1  0  0  0  0
 13 14  2  0  0  0  0
 15 30  1  0  0  0  0
 15 31  1  0  0  0  0
 16 17  1  0  0  0  0
 16 18  1  0  0  0  0
 16 23  1  1  0  0  0
 17 32  1  0  0  0  0
 18 19  1  0  0  0  0
 18 24  1  1  0  0  0
 19 33  1  0  0  0  0
M  END
>  <DRUGBANK_ID>
DB04604

>  <COMMON_NAME>
5-iodotubercidin

>  <CAS_NUMBER>
24386-93-4

$$$$
