1602
 OpenBabel10282417072D

 59 61  0  0  1  0  0  0  0  0999 V2000
    7.6202    2.5306    0.0000 S   0  0  0  0  0  0  0  0  0  0  0  0
    5.4215    0.8626    0.0000 O   0  0  0  0  0  0  0  0  0  0  0  0
    7.3231   -0.2020    0.0000 O   0  0  0  0  0  0  0  0  0  0  0  0
    8.6820    0.2396    0.0000 O   0  0  0  0  0  0  0  0  0  0  0  0
    4.4090    1.8553    0.0000 O   0  0  0  0  0  0  0  0  0  0  0  0
    7.0259   -1.5998    0.0000 O   0  0  0  0  0  0  0  0  0  0  0  0
    6.7288   -2.9975    0.0000 O   0  0  0  0  0  0  0  0  0  0  0  0
    8.0879   -2.5559    0.0000 O   0  0  0  0  0  0  0  0  0  0  0  0
    6.8355    1.4506    0.0000 N   0  0  0  0  0  0  0  0  0  0  0  0
    5.4215    2.8637    0.0000 N   0  0  0  0  0  0  0  0  0  0  0  0
    4.2572    4.0328    0.0000 N   0  0  0  0  0  0  0  0  0  0  0  0
    6.8355    2.2756    0.0000 C   0  0  1  0  0  0  0  0  0  0  0  0
    8.1050    1.8631    0.0000 C   0  0  0  0  0  0  0  0  0  0  0  0
    7.6202    1.1957    0.0000 C   0  0  2  0  0  0  0  0  0  0  0  0
    6.0037    2.2791    0.0000 C   0  0  1  0  0  0  0  0  0  0  0  0
    6.0037    1.4472    0.0000 C   0  0  0  0  0  0  0  0  0  0  0  0
    8.7725    2.3480    0.0000 C   0  0  0  0  0  0  0  0  0  0  0  0
    8.7725    1.3783    0.0000 C   0  0  0  0  0  0  0  0  0  0  0  0
    7.8751    0.4111    0.0000 C   0  0  0  0  0  0  0  0  0  0  0  0
    4.6242    2.6517    0.0000 C   0  0  0  0  0  0  0  0  0  0  0  0
    4.0420    3.2363    0.0000 C   0  0  1  0  0  0  0  0  0  0  0  0
    7.5780   -0.9866    0.0000 C   0  0  3  0  0  0  0  0  0  0  0  0
    3.2447    3.0244    0.0000 C   0  0  0  0  0  0  0  0  0  0  0  0
    8.3849   -1.1581    0.0000 C   0  0  0  0  0  0  0  0  0  0  0  0
    3.0295    2.2280    0.0000 C   0  0  0  0  0  0  0  0  0  0  0  0
    2.6625    3.6090    0.0000 C   0  0  0  0  0  0  0  0  0  0  0  0
    2.2322    2.0161    0.0000 C   0  0  0  0  0  0  0  0  0  0  0  0
    1.8652    3.3971    0.0000 C   0  0  0  0  0  0  0  0  0  0  0  0
    7.2809   -2.3844    0.0000 C   0  0  0  0  0  0  0  0  0  0  0  0
    1.6500    2.6007    0.0000 C   0  0  0  0  0  0  0  0  0  0  0  0
    6.9838   -3.7821    0.0000 C   0  0  0  0  0  0  0  0  0  0  0  0
    6.4317   -4.3952    0.0000 C   0  0  0  0  0  0  0  0  0  0  0  0
    6.7336    2.9278    0.0000 H   0  0  0  0  0  0  0  0  0  0  0  0
    5.6782    3.8141    0.0000 H   0  0  0  0  0  0  0  0  0  0  0  0
    5.2430    4.2947    0.0000 H   0  0  0  0  0  0  0  0  0  0  0  0
    3.5375    4.7555    0.0000 H   0  0  0  0  0  0  0  0  0  0  0  0
    6.8636    0.4391    0.0000 H   0  0  0  0  0  0  0  0  0  0  0  0
    6.4163    3.2664    0.0000 H   0  0  0  0  0  0  0  0  0  0  0  0
    9.7500    1.9127    0.0000 H   0  0  0  0  0  0  0  0  0  0  0  0
    8.6607    3.4121    0.0000 H   0  0  0  0  0  0  0  0  0  0  0  0
    9.6382    2.9769    0.0000 H   0  0  0  0  0  0  0  0  0  0  0  0
    8.6608    0.3141    0.0000 H   0  0  0  0  0  0  0  0  0  0  0  0
    9.7499    1.8137    0.0000 H   0  0  0  0  0  0  0  0  0  0  0  0
    9.6383    0.7495    0.0000 H   0  0  0  0  0  0  0  0  0  0  0  0
    5.0761    3.5111    0.0000 H   0  0  0  0  0  0  0  0  0  0  0  0
    6.5314   -0.7641    0.0000 H   0  0  0  0  0  0  0  0  0  0  0  0
    8.7156   -2.1757    0.0000 H   0  0  0  0  0  0  0  0  0  0  0  0
    9.1009   -0.3629    0.0000 H   0  0  0  0  0  0  0  0  0  0  0  0
    9.4315   -1.3806    0.0000 H   0  0  0  0  0  0  0  0  0  0  0  0
    3.7577    1.4968    0.0000 H   0  0  0  0  0  0  0  0  0  0  0  0
    2.9316    4.6053    0.0000 H   0  0  0  0  0  0  0  0  0  0  0  0
    1.9631    1.0198    0.0000 H   0  0  0  0  0  0  0  0  0  0  0  0
    1.1370    4.1283    0.0000 H   0  0  0  0  0  0  0  0  0  0  0  0
    0.6526    2.3357    0.0000 H   0  0  0  0  0  0  0  0  0  0  0  0
    8.0304   -4.0046    0.0000 H   0  0  0  0  0  0  0  0  0  0  0  0
    7.3144   -4.7997    0.0000 H   0  0  0  0  0  0  0  0  0  0  0  0
    5.3851   -4.1727    0.0000 H   0  0  0  0  0  0  0  0  0  0  0  0
    6.7623   -5.4128    0.0000 H   0  0  0  0  0  0  0  0  0  0  0  0
    5.7157   -5.1903    0.0000 H   0  0  0  0  0  0  0  0  0  0  0  0
  1 12  1  0  0  0  0
  1 13  1  0  0  0  0
  2 16  2  0  0  0  0
  3 19  1  0  0  0  0
  3 22  1  0  0  0  0
  4 19  2  0  0  0  0
  5 20  2  0  0  0  0
  6 22  1  0  0  0  0
  6 29  1  0  0  0  0
  7 29  1  0  0  0  0
  7 31  1  0  0  0  0
  8 29  2  0  0  0  0
  9 12  1  0  0  0  0
  9 14  1  0  0  0  0
  9 16  1  0  0  0  0
 10 20  1  0  0  0  0
 10 34  1  0  0  0  0
 11 35  1  0  0  0  0
 11 36  1  0  0  0  0
 12 15  1  0  0  0  0
 12 33  1  6  0  0  0
 13 14  1  0  0  0  0
 13 17  1  0  0  0  0
 13 18  1  0  0  0  0
 14 19  1  0  0  0  0
 14 37  1  1  0  0  0
 15 10  1  0  0  0  0
 15 16  1  0  0  0  0
 15 38  1  6  0  0  0
 17 39  1  0  0  0  0
 17 40  1  0  0  0  0
 17 41  1  0  0  0  0
 18 42  1  0  0  0  0
 18 43  1  0  0  0  0
 18 44  1  0  0  0  0
 20 21  1  0  0  0  0
 21 11  1  0  0  0  0
 21 23  1  0  0  0  0
 21 45  1  6  0  0  0
 22 24  1  0  0  0  0
 22 46  1  0  0  0  0
 23 25  2  0  0  0  0
 23 26  1  0  0  0  0
 24 47  1  0  0  0  0
 24 48  1  0  0  0  0
 24 49  1  0  0  0  0
 25 27  1  0  0  0  0
 25 50  1  0  0  0  0
 26 28  2  0  0  0  0
 26 51  1  0  0  0  0
 27 30  2  0  0  0  0
 27 52  1  0  0  0  0
 28 30  1  0  0  0  0
 28 53  1  0  0  0  0
 30 54  1  0  0  0  0
 31 32  1  0  0  0  0
 31 55  1  0  0  0  0
 31 56  1  0  0  0  0
 32 57  1  0  0  0  0
 32 58  1  0  0  0  0
 32 59  1  0  0  0  0
M  END
>  <DRUGBANK_ID>
DB01602

>  <COMMON_NAME>
Bacampicillin

>  <CAS_NUMBER>
50972-17-3

>  <UNII>
8GM2J22278

>  <SYNONYMS>
1-[(ethoxycarbonyl)oxy]ethyl (2S,5R,6R)-6-{[(2R)-2-amino-2-phenylacetyl]amino}-3,3-dimethyl-7-oxo-4-thia-1-azabicyclo[3.2.0]heptane-2-carboxylate; 1'-ethoxycarbonyloxyethyl-(6-D-Î±-aminophenylacetamido)penicillanate; Bacampicilina; Bacampicillin; Bacampicilline; Bacampicillinum

$$$$
