142
 OpenBabel10282417072D

 19 18  0  0  1  0  0  0  0  0999 V2000
    4.5079    0.8745    0.0000 O   0  0  0  0  0  0  0  0  0  0  0  0
    1.6500   -1.6005    0.0000 O   0  0  0  0  0  0  0  0  0  0  0  0
    3.7935    2.1120    0.0000 O   0  0  0  0  0  0  0  0  0  0  0  0
    3.0790   -1.6005    0.0000 O   0  0  0  0  0  0  0  0  0  0  0  0
    2.3645    1.2870    0.0000 N   0  0  0  0  0  0  0  0  0  0  0  0
    3.0790    0.0495    0.0000 C   0  0  0  0  0  0  0  0  0  0  0  0
    3.0790    0.8745    0.0000 C   0  0  1  0  0  0  0  0  0  0  0  0
    2.3645   -0.3630    0.0000 C   0  0  0  0  0  0  0  0  0  0  0  0
    3.7935    1.2870    0.0000 C   0  0  0  0  0  0  0  0  0  0  0  0
    2.3645   -1.1880    0.0000 C   0  0  0  0  0  0  0  0  0  0  0  0
    4.5079   -0.0625    0.0000 H   0  0  0  0  0  0  0  0  0  0  0  0
    0.8385   -1.1320    0.0000 H   0  0  0  0  0  0  0  0  0  0  0  0
    2.3645    2.3070    0.0000 H   0  0  0  0  0  0  0  0  0  0  0  0
    1.4812    0.7770    0.0000 H   0  0  0  0  0  0  0  0  0  0  0  0
    4.0056   -0.4855    0.0000 H   0  0  0  0  0  0  0  0  0  0  0  0
    3.0790   -1.0205    0.0000 H   0  0  0  0  0  0  0  0  0  0  0  0
    2.1524    0.3395    0.0000 H   0  0  0  0  0  0  0  0  0  0  0  0
    1.4379    0.1720    0.0000 H   0  0  0  0  0  0  0  0  0  0  0  0
    1.4379   -0.8980    0.0000 H   0  0  0  0  0  0  0  0  0  0  0  0
  1  9  1  0  0  0  0
  1 11  1  0  0  0  0
  2 10  1  0  0  0  0
  2 12  1  0  0  0  0
  3  9  2  0  0  0  0
  4 10  2  0  0  0  0
  5 13  1  0  0  0  0
  5 14  1  0  0  0  0
  6  7  1  0  0  0  0
  6  8  1  0  0  0  0
  6 15  1  0  0  0  0
  6 16  1  0  0  0  0
  7  5  1  0  0  0  0
  7  9  1  0  0  0  0
  7 17  1  1  0  0  0
  8 10  1  0  0  0  0
  8 18  1  0  0  0  0
  8 19  1  0  0  0  0
M  END
>  <DRUGBANK_ID>
DB00142

>  <SECONDARY_ACCESSION_NUMBERS>
NUTR00027

>  <COMMON_NAME>
Glutamic acid

>  <CAS_NUMBER>
56-86-0

>  <UNII>
3KX376GY7L

>  <SYNONYMS>
(2S)-2-Aminopentanedioic acid; (S)-2-Aminopentanedioic acid; (S)-Glutamic acid; ácido glutámico; Glu; Glutamic acid; L-Glutamate; L-Glutamic acid; L-Glutaminic acid

$$$$
