
 OpenBabel10282417072D

 56 59  0  0  1  0  0  0  0  0999 V2000
   -1.2667   -0.6001    0.0000 C   0  0  0  0  0  0  0  0  0  0  0  0
   -1.2667   -1.4267    0.0000 C   0  0  0  0  0  0  0  0  0  0  0  0
   -0.5487   -1.8379    0.0000 C   0  0  0  0  0  0  0  0  0  0  0  0
   -0.5487   -0.1889    0.0000 C   0  0  0  0  0  0  0  0  0  0  0  0
    0.1610   -0.6001    0.0000 C   0  0  0  0  0  0  0  0  0  0  0  0
    0.1578   -1.4309    0.0000 C   0  0  0  0  0  0  0  0  0  0  0  0
    0.8708   -1.8389    0.0000 C   0  0  0  0  0  0  0  0  0  0  0  0
    1.5831   -1.4290    0.0000 C   0  0  0  0  0  0  0  0  0  0  0  0
    0.8687   -0.1899    0.0000 C   0  0  2  0  0  0  0  0  0  0  0  0
    1.5857   -0.6029    0.0000 C   0  0  2  0  0  0  0  0  0  0  0  0
    1.5812    1.0461    0.0000 C   0  0  0  0  0  0  0  0  0  0  0  0
    0.8695    0.6337    0.0000 C   0  0  0  0  0  0  0  0  0  0  0  0
    2.2983    0.6372    0.0000 C   0  0  1  0  0  0  0  0  0  0  0  0
    2.3006   -0.1890    0.0000 C   0  0  1  0  0  0  0  0  0  0  0  0
    3.0794   -0.4433    0.0000 C   0  0  0  0  0  0  0  0  0  0  0  0
    3.5630    0.2251    0.0000 C   0  0  0  0  0  0  0  0  0  0  0  0
    3.0810    0.8885    0.0000 C   0  0  2  0  0  0  0  0  0  0  0  0
    2.1222    1.4722    0.0000 C   0  0  0  0  0  0  0  0  0  0  0  0
    1.5824    0.2262    0.0000 H   0  0  0  0  0  0  0  0  0  0  0  0
    2.2842   -0.8701    0.0000 H   0  0  0  0  0  0  0  0  0  0  0  0
    3.3308    1.6758    0.0000 O   0  0  0  0  0  0  0  0  0  0  0  0
   -1.9852   -1.8461    0.0000 O   0  0  0  0  0  0  0  0  0  0  0  0
    0.8846   -0.8991    0.0000 H   0  0  0  0  0  0  0  0  0  0  0  0
   -2.7037   -1.4350    0.0000 C   0  0  0  0  0  0  0  0  0  0  0  0
   -3.4140   -1.8502    0.0000 C   0  0  0  0  0  0  0  0  0  0  0  0
   -4.1325   -1.4432    0.0000 C   0  0  0  0  0  0  0  0  0  0  0  0
    4.1325    1.8502    0.0000 C   0  0  0  0  0  0  0  0  0  0  0  0
   -2.1595   -0.0825    0.0000 H   0  0  0  0  0  0  0  0  0  0  0  0
   -0.5474   -2.8699    0.0000 H   0  0  0  0  0  0  0  0  0  0  0  0
   -0.5461    0.8431    0.0000 H   0  0  0  0  0  0  0  0  0  0  0  0
    0.8721   -2.9089    0.0000 H   0  0  0  0  0  0  0  0  0  0  0  0
    1.7974   -2.3740    0.0000 H   0  0  0  0  0  0  0  0  0  0  0  0
    2.5085   -1.9661    0.0000 H   0  0  0  0  0  0  0  0  0  0  0  0
    2.5112   -0.8965    0.0000 H   0  0  0  0  0  0  0  0  0  0  0  0
    1.5775    2.1161    0.0000 H   0  0  0  0  0  0  0  0  0  0  0  0
    2.5055    1.5852    0.0000 H   0  0  0  0  0  0  0  0  0  0  0  0
   -0.0573    1.1684    0.0000 H   0  0  0  0  0  0  0  0  0  0  0  0
   -0.0573    0.0990    0.0000 H   0  0  0  0  0  0  0  0  0  0  0  0
    3.4103   -1.4608    0.0000 H   0  0  0  0  0  0  0  0  0  0  0  0
    2.3223   -1.1995    0.0000 H   0  0  0  0  0  0  0  0  0  0  0  0
    4.6330    0.2262    0.0000 H   0  0  0  0  0  0  0  0  0  0  0  0
    4.0483    1.1787    0.0000 H   0  0  0  0  0  0  0  0  0  0  0  0
    4.1372    1.0595    0.0000 H   0  0  0  0  0  0  0  0  0  0  0  0
    2.9185    2.1869    0.0000 H   0  0  0  0  0  0  0  0  0  0  0  0
    1.1051    1.8045    0.0000 H   0  0  0  0  0  0  0  0  0  0  0  0
    1.9014    2.5192    0.0000 H   0  0  0  0  0  0  0  0  0  0  0  0
   -2.7087   -0.3650    0.0000 H   0  0  0  0  0  0  0  0  0  0  0  0
   -3.6330   -0.9046    0.0000 H   0  0  0  0  0  0  0  0  0  0  0  0
   -3.4067   -2.9202    0.0000 H   0  0  0  0  0  0  0  0  0  0  0  0
   -4.3366   -2.3921    0.0000 H   0  0  0  0  0  0  0  0  0  0  0  0
   -4.1413   -0.3732    0.0000 H   0  0  0  0  0  0  0  0  0  0  0  0
   -5.0547   -1.9858    0.0000 H   0  0  0  0  0  0  0  0  0  0  0  0
   -5.0635   -0.9158    0.0000 H   0  0  0  0  0  0  0  0  0  0  0  0
    4.8522    1.0585    0.0000 H   0  0  0  0  0  0  0  0  0  0  0  0
    4.4583    2.8694    0.0000 H   0  0  0  0  0  0  0  0  0  0  0  0
    5.1780    2.0776    0.0000 H   0  0  0  0  0  0  0  0  0  0  0  0
  1  2  1  0  0  0  0
  1  4  2  0  0  0  0
  1 28  1  0  0  0  0
  2  3  2  0  0  0  0
  2 22  1  0  0  0  0
  3  6  1  0  0  0  0
  3 29  1  0  0  0  0
  4 30  1  0  0  0  0
  5  9  1  0  0  0  0
  5  4  1  0  0  0  0
  5  6  2  0  0  0  0
  6  7  1  0  0  0  0
  7  8  1  0  0  0  0
  7 31  1  0  0  0  0
  7 32  1  0  0  0  0
  8 10  1  0  0  0  0
  8 33  1  0  0  0  0
  8 34  1  0  0  0  0
  9 10  1  0  0  0  0
  9 23  1  6  0  0  0
  9 12  1  0  0  0  0
 10 19  1  1  0  0  0
 10 14  1  0  0  0  0
 11 12  1  0  0  0  0
 11 35  1  0  0  0  0
 11 36  1  0  0  0  0
 12 37  1  0  0  0  0
 12 38  1  0  0  0  0
 13 14  1  0  0  0  0
 13 18  1  1  0  0  0
 13 11  1  0  0  0  0
 14 15  1  0  0  0  0
 14 20  1  6  0  0  0
 15 16  1  0  0  0  0
 15 39  1  0  0  0  0
 15 40  1  0  0  0  0
 16 17  1  0  0  0  0
 16 41  1  0  0  0  0
 16 42  1  0  0  0  0
 17 13  1  0  0  0  0
 17 21  1  0  0  0  0
 17 43  1  6  0  0  0
 18 44  1  0  0  0  0
 18 45  1  0  0  0  0
 18 46  1  0  0  0  0
 21 27  1  0  0  0  0
 22 24  1  0  0  0  0
 24 25  1  0  0  0  0
 24 47  1  0  0  0  0
 24 48  1  0  0  0  0
 25 26  1  0  0  0  0
 25 49  1  0  0  0  0
 25 50  1  0  0  0  0
 26 51  1  0  0  0  0
 26 52  1  0  0  0  0
 26 53  1  0  0  0  0
 27 54  1  0  0  0  0
 27 55  1  0  0  0  0
 27 56  1  0  0  0  0
M  END
>  <DRUGBANK_ID>
DB12487

>  <COMMON_NAME>
Promestriene

>  <CAS_NUMBER>
39219-28-8

>  <UNII>
GXM4PER6WZ

>  <SYNONYMS>
Promestriano; Promestriene; Promestrieno; Promestrienum

$$$$
