HTA
 OpenBabel10282417072D

 56 56  0  0  0  0  0  0  0  0999 V2000
    3.2465   -0.6678    0.0000 C   0  0  0  0  0  0  0  0  0  0  0  0
    2.4364   -0.8237    0.0000 C   0  0  0  0  0  0  0  0  0  0  0  0
    1.8963   -0.2001    0.0000 C   0  0  2  0  0  0  0  0  0  0  0  0
    1.0862   -0.3560    0.0000 C   0  0  0  0  0  0  0  0  0  0  0  0
    2.1663    0.5795    0.0000 C   0  0  0  0  0  0  0  0  0  0  0  0
    1.6263    1.2031    0.0000 C   0  0  0  0  0  0  0  0  0  0  0  0
    0.8161    1.0472    0.0000 C   0  0  0  0  0  0  0  0  0  0  0  0
    1.8963    1.9827    0.0000 C   0  0  0  0  0  0  0  0  0  0  0  0
   -0.2641    0.1118    0.0000 C   0  0  2  0  0  0  0  0  0  0  0  0
   -0.5341   -0.6678    0.0000 C   0  0  0  0  0  0  0  0  0  0  0  0
   -0.8041    0.7354    0.0000 C   0  0  0  0  0  0  0  0  0  0  0  0
   -1.6143    0.5795    0.0000 C   0  0  0  0  0  0  0  0  0  0  0  0
   -1.8843   -0.2001    0.0000 C   0  0  0  0  0  0  0  0  0  0  0  0
   -2.1544    1.2031    0.0000 C   0  0  0  0  0  0  0  0  0  0  0  0
   -2.6945   -0.3560    0.0000 C   0  0  0  0  0  0  0  0  0  0  0  0
   -2.9645    1.0472    0.0000 C   0  0  0  0  0  0  0  0  0  0  0  0
   -3.2346    0.2677    0.0000 C   0  0  0  0  0  0  0  0  0  0  0  0
   -0.2641   -2.0710    0.0000 C   0  0  0  0  0  0  0  0  0  0  0  0
   -4.5848    0.7354    0.0000 C   0  0  0  0  0  0  0  0  0  0  0  0
    3.7866   -1.2914    0.0000 N   0  0  0  0  0  0  0  0  0  0  0  0
    0.5461    0.2677    0.0000 N   0  0  0  0  0  0  0  0  0  0  0  0
    0.0060   -1.2914    0.0000 N   0  0  0  0  0  0  0  0  0  0  0  0
    4.5967   -1.1355    0.0000 O   0  0  0  0  0  0  0  0  0  0  0  0
    3.5166    0.1118    0.0000 O   0  0  0  0  0  0  0  0  0  0  0  0
    0.8161   -1.1355    0.0000 O   0  0  0  0  0  0  0  0  0  0  0  0
   -1.3442   -0.8237    0.0000 O   0  0  0  0  0  0  0  0  0  0  0  0
   -4.0447    0.1118    0.0000 O   0  0  0  0  0  0  0  0  0  0  0  0
    1.7052   -0.7518    0.0000 H   0  0  0  0  0  0  0  0  0  0  0  0
   -0.8375    0.0014    0.0000 H   0  0  0  0  0  0  0  0  0  0  0  0
    2.0862   -1.8348    0.0000 H   0  0  0  0  0  0  0  0  0  0  0  0
    1.3857   -1.0259    0.0000 H   0  0  0  0  0  0  0  0  0  0  0  0
    3.2170    0.7817    0.0000 H   0  0  0  0  0  0  0  0  0  0  0  0
    2.5166    1.5905    0.0000 H   0  0  0  0  0  0  0  0  0  0  0  0
    0.9258    2.0119    0.0000 H   0  0  0  0  0  0  0  0  0  0  0  0
    0.1156    1.8561    0.0000 H   0  0  0  0  0  0  0  0  0  0  0  0
    0.4658    0.0362    0.0000 H   0  0  0  0  0  0  0  0  0  0  0  0
   -0.2346    0.8450    0.0000 H   0  0  0  0  0  0  0  0  0  0  0  0
    2.9470    2.1850    0.0000 H   0  0  0  0  0  0  0  0  0  0  0  0
    1.1958    2.7915    0.0000 H   0  0  0  0  0  0  0  0  0  0  0  0
    2.2465    2.9938    0.0000 H   0  0  0  0  0  0  0  0  0  0  0  0
   -0.4538    1.7464    0.0000 H   0  0  0  0  0  0  0  0  0  0  0  0
   -1.5046    1.5443    0.0000 H   0  0  0  0  0  0  0  0  0  0  0  0
   -1.2087   -0.9802    0.0000 H   0  0  0  0  0  0  0  0  0  0  0  0
   -1.8166    2.1783    0.0000 H   0  0  0  0  0  0  0  0  0  0  0  0
   -3.0323   -1.3311    0.0000 H   0  0  0  0  0  0  0  0  0  0  0  0
   -3.6401    1.8273    0.0000 H   0  0  0  0  0  0  0  0  0  0  0  0
   -1.3148   -2.2732    0.0000 H   0  0  0  0  0  0  0  0  0  0  0  0
    0.4363   -2.8799    0.0000 H   0  0  0  0  0  0  0  0  0  0  0  0
   -0.6144   -3.0820    0.0000 H   0  0  0  0  0  0  0  0  0  0  0  0
   -4.2346    1.7465    0.0000 H   0  0  0  0  0  0  0  0  0  0  0  0
   -5.6355    0.5331    0.0000 H   0  0  0  0  0  0  0  0  0  0  0  0
   -5.2853    1.5442    0.0000 H   0  0  0  0  0  0  0  0  0  0  0  0
    3.4644   -2.2217    0.0000 H   0  0  0  0  0  0  0  0  0  0  0  0
    0.8684    1.1980    0.0000 H   0  0  0  0  0  0  0  0  0  0  0  0
    0.9728   -1.1053    0.0000 H   0  0  0  0  0  0  0  0  0  0  0  0
    5.2317   -1.8688    0.0000 H   0  0  0  0  0  0  0  0  0  0  0  0
  1  2  1  0  0  0  0
  1 20  1  0  0  0  0
  1 24  2  0  0  0  0
  2  3  1  0  0  0  0
  2 30  1  0  0  0  0
  2 31  1  0  0  0  0
  3  4  1  0  0  0  0
  3  5  1  0  0  0  0
  3 28  1  1  0  0  0
  4 21  1  0  0  0  0
  4 25  2  0  0  0  0
  5  6  1  0  0  0  0
  5 32  1  0  0  0  0
  5 33  1  0  0  0  0
  6  7  1  0  0  0  0
  6  8  1  0  0  0  0
  6 34  1  0  0  0  0
  7 35  1  0  0  0  0
  7 36  1  0  0  0  0
  7 37  1  0  0  0  0
  8 38  1  0  0  0  0
  8 39  1  0  0  0  0
  8 40  1  0  0  0  0
  9 10  1  0  0  0  0
  9 11  1  0  0  0  0
  9 21  1  0  0  0  0
  9 29  1  1  0  0  0
 10 22  1  0  0  0  0
 10 26  2  0  0  0  0
 11 12  1  0  0  0  0
 11 41  1  0  0  0  0
 11 42  1  0  0  0  0
 12 13  2  0  0  0  0
 12 14  1  0  0  0  0
 13 15  1  0  0  0  0
 13 43  1  0  0  0  0
 14 16  2  0  0  0  0
 14 44  1  0  0  0  0
 15 17  2  0  0  0  0
 15 45  1  0  0  0  0
 16 17  1  0  0  0  0
 16 46  1  0  0  0  0
 17 27  1  0  0  0  0
 18 22  1  0  0  0  0
 18 47  1  0  0  0  0
 18 48  1  0  0  0  0
 18 49  1  0  0  0  0
 19 27  1  0  0  0  0
 19 50  1  0  0  0  0
 19 51  1  0  0  0  0
 19 52  1  0  0  0  0
 20 23  1  0  0  0  0
 20 53  1  0  0  0  0
 21 54  1  0  0  0  0
 22 55  1  0  0  0  0
 23 56  1  0  0  0  0
M  END
>  <DRUGBANK_ID>
DB07926

>  <COMMON_NAME>
N-[3-(N'-HYDROXYCARBOXAMIDO)-2-(2-METHYLPROPYL)-PROPANOYL]-O-TYROSINE-N-METHYLAMIDE

$$$$
