
 OpenBabel10282417072D

 51 50  0  0  0  0  0  0  0  0999 V2000
   -2.2755    2.1149    0.0000 C   0  0  0  0  0  0  0  0  0  0  0  0
   -1.5610    2.5275    0.0000 C   0  0  0  0  0  0  0  0  0  0  0  0
   -0.8465    2.1149    0.0000 C   0  0  0  0  0  0  0  0  0  0  0  0
   -0.8465    1.2899    0.0000 C   0  0  0  0  0  0  0  0  0  0  0  0
   -1.5610    0.8775    0.0000 C   0  0  0  0  0  0  0  0  0  0  0  0
   -2.2755    1.2899    0.0000 C   0  0  0  0  0  0  0  0  0  0  0  0
   -1.5610    0.0524    0.0000 I   0  0  0  0  0  0  0  0  0  0  0  0
   -0.1320    2.5275    0.0000 C   0  0  0  0  0  0  0  0  0  0  0  0
    0.5823    2.1149    0.0000 N   0  0  0  0  0  0  0  0  0  0  0  0
    1.2968    2.5275    0.0000 C   0  0  0  0  0  0  0  0  0  0  0  0
    2.0113    2.1149    0.0000 N   0  0  0  0  0  0  0  0  0  0  0  0
    1.2968    3.3525    0.0000 N   0  0  0  0  0  0  0  0  0  0  0  0
    4.1068    0.3742    0.0000 S   0  0  0  0  0  0  0  0  0  0  0  0
    4.9318    0.3742    0.0000 O   0  0  0  0  0  0  0  0  0  0  0  0
    4.1124    1.1991    0.0000 O   0  0  0  0  0  0  0  0  0  0  0  0
    4.1068   -0.4507    0.0000 O   0  0  0  0  0  0  0  0  0  0  0  0
    3.2818    0.3742    0.0000 O   0  0  0  0  0  0  0  0  0  0  0  0
   -2.2755   -1.5233    0.0000 C   0  0  0  0  0  0  0  0  0  0  0  0
   -1.5610   -1.1108    0.0000 C   0  0  0  0  0  0  0  0  0  0  0  0
   -0.8465   -1.5233    0.0000 C   0  0  0  0  0  0  0  0  0  0  0  0
   -0.8465   -2.3484    0.0000 C   0  0  0  0  0  0  0  0  0  0  0  0
   -1.5610   -2.7608    0.0000 C   0  0  0  0  0  0  0  0  0  0  0  0
   -2.2755   -2.3484    0.0000 C   0  0  0  0  0  0  0  0  0  0  0  0
   -1.5610   -3.5858    0.0000 I   0  0  0  0  0  0  0  0  0  0  0  0
   -0.1320   -1.1108    0.0000 C   0  0  0  0  0  0  0  0  0  0  0  0
    0.5823   -1.5233    0.0000 N   0  0  0  0  0  0  0  0  0  0  0  0
    1.2968   -1.1108    0.0000 C   0  0  0  0  0  0  0  0  0  0  0  0
    2.0113   -1.5233    0.0000 N   0  0  0  0  0  0  0  0  0  0  0  0
    1.2968   -0.2858    0.0000 N   0  0  0  0  0  0  0  0  0  0  0  0
   -3.1693    2.6309    0.0000 H   0  0  0  0  0  0  0  0  0  0  0  0
   -1.5610    3.5595    0.0000 H   0  0  0  0  0  0  0  0  0  0  0  0
    0.0472    0.7738    0.0000 H   0  0  0  0  0  0  0  0  0  0  0  0
   -3.1692    0.7738    0.0000 H   0  0  0  0  0  0  0  0  0  0  0  0
   -0.1319    3.5975    0.0000 H   0  0  0  0  0  0  0  0  0  0  0  0
    0.7947    3.0624    0.0000 H   0  0  0  0  0  0  0  0  0  0  0  0
    0.5822    1.1304    0.0000 H   0  0  0  0  0  0  0  0  0  0  0  0
    2.0112    1.1304    0.0000 H   0  0  0  0  0  0  0  0  0  0  0  0
    2.8639    2.6071    0.0000 H   0  0  0  0  0  0  0  0  0  0  0  0
    2.1494    3.8448    0.0000 H   0  0  0  0  0  0  0  0  0  0  0  0
    5.4168   -0.4658    0.0000 H   0  0  0  0  0  0  0  0  0  0  0  0
    2.7968    1.2142    0.0000 H   0  0  0  0  0  0  0  0  0  0  0  0
   -3.1692   -1.0073    0.0000 H   0  0  0  0  0  0  0  0  0  0  0  0
   -1.5610   -0.0788    0.0000 H   0  0  0  0  0  0  0  0  0  0  0  0
    0.0472   -2.8645    0.0000 H   0  0  0  0  0  0  0  0  0  0  0  0
   -3.1692   -2.8645    0.0000 H   0  0  0  0  0  0  0  0  0  0  0  0
   -0.1319   -0.0408    0.0000 H   0  0  0  0  0  0  0  0  0  0  0  0
    0.7947   -0.5759    0.0000 H   0  0  0  0  0  0  0  0  0  0  0  0
    0.5822   -2.5078    0.0000 H   0  0  0  0  0  0  0  0  0  0  0  0
    2.0113   -2.5078    0.0000 H   0  0  0  0  0  0  0  0  0  0  0  0
    2.8639   -1.0310    0.0000 H   0  0  0  0  0  0  0  0  0  0  0  0
    2.1494    0.2065    0.0000 H   0  0  0  0  0  0  0  0  0  0  0  0
  1  2  2  0  0  0  0
  1 30  1  0  0  0  0
  2  3  1  0  0  0  0
  2 31  1  0  0  0  0
  3  8  1  0  0  0  0
  3  4  2  0  0  0  0
  4  5  1  0  0  0  0
  4 32  1  0  0  0  0
  5  6  2  0  0  0  0
  5  7  1  0  0  0  0
  6  1  1  0  0  0  0
  6 33  1  0  0  0  0
  8  9  1  0  0  0  0
  8 34  1  0  0  0  0
  8 35  1  0  0  0  0
  9 10  1  0  0  0  0
  9 36  1  0  0  0  0
 10 11  1  0  0  0  0
 10 12  2  0  0  0  0
 11 37  1  0  0  0  0
 11 38  1  0  0  0  0
 12 39  1  0  0  0  0
 13 14  1  0  0  0  0
 13 15  2  0  0  0  0
 13 16  2  0  0  0  0
 13 17  1  0  0  0  0
 14 40  1  0  0  0  0
 17 41  1  0  0  0  0
 18 19  2  0  0  0  0
 18 42  1  0  0  0  0
 19 20  1  0  0  0  0
 19 43  1  0  0  0  0
 20 25  1  0  0  0  0
 20 21  2  0  0  0  0
 21 22  1  0  0  0  0
 21 44  1  0  0  0  0
 22 23  2  0  0  0  0
 22 24  1  0  0  0  0
 23 18  1  0  0  0  0
 23 45  1  0  0  0  0
 25 26  1  0  0  0  0
 25 46  1  0  0  0  0
 25 47  1  0  0  0  0
 26 27  1  0  0  0  0
 26 48  1  0  0  0  0
 27 28  1  0  0  0  0
 27 29  2  0  0  0  0
 28 49  1  0  0  0  0
 28 50  1  0  0  0  0
 29 51  1  0  0  0  0
M  ISO  2   7 123  24 123
M  END
>  <DRUGBANK_ID>
DB09546

>  <COMMON_NAME>
Iobenguane sulfate I-123

>  <CAS_NUMBER>
80663-95-2

>  <UNII>
23X1185WBO

>  <SYNONYMS>
Iobenguane sulfate I 123

$$$$
