
 OpenBabel10282417072D

 32 33  0  0  0  0  0  0  0  0999 V2000
   -1.8229    0.8249    0.0000 C   0  0  0  0  0  0  0  0  0  0  0  0
   -2.5385    1.2391    0.0000 C   0  0  0  0  0  0  0  0  0  0  0  0
   -3.2529    0.8265    0.0000 C   0  0  0  0  0  0  0  0  0  0  0  0
   -3.2530   -0.0001    0.0000 C   0  0  0  0  0  0  0  0  0  0  0  0
   -2.5325   -0.4125    0.0000 C   0  0  0  0  0  0  0  0  0  0  0  0
   -1.8210    0.0025    0.0000 C   0  0  0  0  0  0  0  0  0  0  0  0
    1.0328    0.8241    0.0000 C   0  0  0  0  0  0  0  0  0  0  0  0
    0.3172    1.2382    0.0000 C   0  0  0  0  0  0  0  0  0  0  0  0
   -0.3972    0.8256    0.0000 C   0  0  0  0  0  0  0  0  0  0  0  0
   -0.3972   -0.0009    0.0000 C   0  0  0  0  0  0  0  0  0  0  0  0
    0.3232   -0.4133    0.0000 C   0  0  0  0  0  0  0  0  0  0  0  0
    1.0346    0.0016    0.0000 C   0  0  0  0  0  0  0  0  0  0  0  0
   -1.1104   -0.4146    0.0000 C   0  0  0  0  0  0  0  0  0  0  0  0
   -1.1126   -1.2391    0.0000 O   0  0  0  0  0  0  0  0  0  0  0  0
    0.3266   -1.2379    0.0000 N   0  0  0  0  0  0  0  0  0  0  0  0
    1.8249   -0.5676    0.0000 C   0  0  0  0  0  0  0  0  0  0  0  0
    2.5411   -0.1589    0.0000 C   0  0  0  0  0  0  0  0  0  0  0  0
    2.5453    0.6655    0.0000 O   0  0  0  0  0  0  0  0  0  0  0  0
    3.2530   -0.5749    0.0000 O   0  0  0  0  0  0  0  0  0  0  0  0
   -0.9295    1.3414    0.0000 H   0  0  0  0  0  0  0  0  0  0  0  0
   -2.5380    2.2711    0.0000 H   0  0  0  0  0  0  0  0  0  0  0  0
   -4.1466    1.3425    0.0000 H   0  0  0  0  0  0  0  0  0  0  0  0
   -4.1458   -0.5177    0.0000 H   0  0  0  0  0  0  0  0  0  0  0  0
   -2.5283   -1.4445    0.0000 H   0  0  0  0  0  0  0  0  0  0  0  0
    1.9262    1.3406    0.0000 H   0  0  0  0  0  0  0  0  0  0  0  0
    0.3176    2.2702    0.0000 H   0  0  0  0  0  0  0  0  0  0  0  0
   -1.2910    1.3415    0.0000 H   0  0  0  0  0  0  0  0  0  0  0  0
   -0.5240   -1.7337    0.0000 H   0  0  0  0  0  0  0  0  0  0  0  0
    1.1812   -1.7266    0.0000 H   0  0  0  0  0  0  0  0  0  0  0  0
    1.7684   -1.6361    0.0000 H   0  0  0  0  0  0  0  0  0  0  0  0
    0.8600   -1.0300    0.0000 H   0  0  0  0  0  0  0  0  0  0  0  0
    3.2481   -1.5119    0.0000 H   0  0  0  0  0  0  0  0  0  0  0  0
  1  2  2  0  0  0  0
  1 20  1  0  0  0  0
  2  3  1  0  0  0  0
  2 21  1  0  0  0  0
  3  4  2  0  0  0  0
  3 22  1  0  0  0  0
  4  5  1  0  0  0  0
  4 23  1  0  0  0  0
  5  6  2  0  0  0  0
  5 24  1  0  0  0  0
  6  1  1  0  0  0  0
  7  8  2  0  0  0  0
  7 25  1  0  0  0  0
  8  9  1  0  0  0  0
  8 26  1  0  0  0  0
  9 10  2  0  0  0  0
  9 27  1  0  0  0  0
 10 13  1  0  0  0  0
 10 11  1  0  0  0  0
 11 12  2  0  0  0  0
 11 15  1  0  0  0  0
 12  7  1  0  0  0  0
 12 16  1  0  0  0  0
 13  6  1  0  0  0  0
 13 14  2  0  0  0  0
 15 28  1  0  0  0  0
 15 29  1  0  0  0  0
 16 17  1  0  0  0  0
 16 30  1  0  0  0  0
 16 31  1  0  0  0  0
 17 18  2  0  0  0  0
 17 19  1  0  0  0  0
 19 32  1  0  0  0  0
M  END
>  <DRUGBANK_ID>
DB15911

>  <COMMON_NAME>
Amfenac

>  <CAS_NUMBER>
51579-82-9

>  <UNII>
28O5C1J38A

>  <SYNONYMS>
(2-Amino-3-benzoylphenyl)acetic acid; Amfenac; Amfenaco; Amfenacum

$$$$
