
 OpenBabel10282417072D

 83 85  0  0  0  0  0  0  0  0999 V2000
    2.3645   -1.8460    0.0000 S   0  0  0  0  0  0  0  0  0  0  0  0
    6.0031   -2.9224    0.0000 O   0  0  0  0  0  0  0  0  0  0  0  0
    9.4885   -0.1299    0.0000 O   0  0  0  0  0  0  0  0  0  0  0  0
    5.7085   -0.1964    0.0000 O   0  0  0  0  0  0  0  0  0  0  0  0
    2.7770   -2.5604    0.0000 O   0  0  0  0  0  0  0  0  0  0  0  0
    1.9520   -1.1315    0.0000 O   0  0  0  0  0  0  0  0  0  0  0  0
   11.6158    1.7788    0.0000 N   0  0  0  0  0  0  0  0  0  0  0  0
    3.0791   -1.4335    0.0000 N   0  0  0  0  0  0  0  0  0  0  0  0
   11.8720    2.5630    0.0000 C   0  0  0  0  0  0  0  0  0  0  0  0
   12.1667    1.1648    0.0000 C   0  0  0  0  0  0  0  0  0  0  0  0
   10.8085    1.6087    0.0000 C   0  0  0  0  0  0  0  0  0  0  0  0
   12.6793    2.7331    0.0000 C   0  0  0  0  0  0  0  0  0  0  0  0
   12.9740    1.3349    0.0000 C   0  0  0  0  0  0  0  0  0  0  0  0
   10.5521    0.8245    0.0000 C   0  0  0  0  0  0  0  0  0  0  0  0
   12.9356    3.5173    0.0000 C   0  0  0  0  0  0  0  0  0  0  0  0
   13.5250    0.7208    0.0000 C   0  0  0  0  0  0  0  0  0  0  0  0
    9.7449    0.6543    0.0000 C   0  0  0  0  0  0  0  0  0  0  0  0
    6.4846   -2.2585    0.0000 C   0  0  0  0  0  0  0  0  0  0  0  0
    6.0031   -1.5946    0.0000 C   0  0  0  0  0  0  0  0  0  0  0  0
    7.3097   -2.2585    0.0000 C   0  0  0  0  0  0  0  0  0  0  0  0
    5.2224   -1.8460    0.0000 C   0  0  0  0  0  0  0  0  0  0  0  0
    7.7222   -2.9730    0.0000 C   0  0  0  0  0  0  0  0  0  0  0  0
   13.7429    3.6875    0.0000 C   0  0  0  0  0  0  0  0  0  0  0  0
   14.3323    0.8909    0.0000 C   0  0  0  0  0  0  0  0  0  0  0  0
    5.2224   -2.6710    0.0000 C   0  0  0  0  0  0  0  0  0  0  0  0
    6.2594   -0.8104    0.0000 C   0  0  0  0  0  0  0  0  0  0  0  0
    8.5472   -2.9730    0.0000 C   0  0  0  0  0  0  0  0  0  0  0  0
    4.5080   -1.4335    0.0000 C   0  0  0  0  0  0  0  0  0  0  0  0
    7.0667   -0.6402    0.0000 C   0  0  0  0  0  0  0  0  0  0  0  0
    3.7935   -1.8460    0.0000 C   0  0  0  0  0  0  0  0  0  0  0  0
    8.6813   -0.3000    0.0000 C   0  0  0  0  0  0  0  0  0  0  0  0
    4.5080   -3.0835    0.0000 C   0  0  0  0  0  0  0  0  0  0  0  0
    3.7935   -2.6710    0.0000 C   0  0  0  0  0  0  0  0  0  0  0  0
    7.3230    0.1440    0.0000 C   0  0  0  0  0  0  0  0  0  0  0  0
    7.6177   -1.2543    0.0000 C   0  0  0  0  0  0  0  0  0  0  0  0
    8.1303    0.3141    0.0000 C   0  0  0  0  0  0  0  0  0  0  0  0
    8.4250   -1.0842    0.0000 C   0  0  0  0  0  0  0  0  0  0  0  0
    8.9597   -3.6875    0.0000 C   0  0  0  0  0  0  0  0  0  0  0  0
    1.6500   -2.2585    0.0000 C   0  0  0  0  0  0  0  0  0  0  0  0
    3.0792   -0.4490    0.0000 H   0  0  0  0  0  0  0  0  0  0  0  0
   11.1574    3.3594    0.0000 H   0  0  0  0  0  0  0  0  0  0  0  0
   12.2044    3.5801    0.0000 H   0  0  0  0  0  0  0  0  0  0  0  0
   11.8343    0.1478    0.0000 H   0  0  0  0  0  0  0  0  0  0  0  0
   12.8813    0.3684    0.0000 H   0  0  0  0  0  0  0  0  0  0  0  0
   10.0940    2.4052    0.0000 H   0  0  0  0  0  0  0  0  0  0  0  0
    9.7615    1.3881    0.0000 H   0  0  0  0  0  0  0  0  0  0  0  0
   13.3939    1.9367    0.0000 H   0  0  0  0  0  0  0  0  0  0  0  0
   13.7263    2.9537    0.0000 H   0  0  0  0  0  0  0  0  0  0  0  0
   13.3064    2.3519    0.0000 H   0  0  0  0  0  0  0  0  0  0  0  0
   14.0210    1.5555    0.0000 H   0  0  0  0  0  0  0  0  0  0  0  0
   11.2667    0.0281    0.0000 H   0  0  0  0  0  0  0  0  0  0  0  0
   10.2197   -0.1926    0.0000 H   0  0  0  0  0  0  0  0  0  0  0  0
   12.2210    4.3137    0.0000 H   0  0  0  0  0  0  0  0  0  0  0  0
   13.2680    4.5344    0.0000 H   0  0  0  0  0  0  0  0  0  0  0  0
   13.1926   -0.2962    0.0000 H   0  0  0  0  0  0  0  0  0  0  0  0
   14.2396   -0.0756    0.0000 H   0  0  0  0  0  0  0  0  0  0  0  0
    9.0303    1.4507    0.0000 H   0  0  0  0  0  0  0  0  0  0  0  0
   10.0773    1.6714    0.0000 H   0  0  0  0  0  0  0  0  0  0  0  0
    7.8447   -1.3319    0.0000 H   0  0  0  0  0  0  0  0  0  0  0  0
    8.3797   -2.2585    0.0000 H   0  0  0  0  0  0  0  0  0  0  0  0
    7.1872   -3.8996    0.0000 H   0  0  0  0  0  0  0  0  0  0  0  0
    8.2572   -3.8996    0.0000 H   0  0  0  0  0  0  0  0  0  0  0  0
   14.4576    2.8912    0.0000 H   0  0  0  0  0  0  0  0  0  0  0  0
   14.0752    4.7046    0.0000 H   0  0  0  0  0  0  0  0  0  0  0  0
   14.7899    3.9082    0.0000 H   0  0  0  0  0  0  0  0  0  0  0  0
   15.0469    0.0945    0.0000 H   0  0  0  0  0  0  0  0  0  0  0  0
   14.6648    1.9079    0.0000 H   0  0  0  0  0  0  0  0  0  0  0  0
   15.3793    1.1115    0.0000 H   0  0  0  0  0  0  0  0  0  0  0  0
    9.0822   -2.0464    0.0000 H   0  0  0  0  0  0  0  0  0  0  0  0
    9.6172   -2.9730    0.0000 H   0  0  0  0  0  0  0  0  0  0  0  0
    4.5080   -0.4015    0.0000 H   0  0  0  0  0  0  0  0  0  0  0  0
    4.5080   -4.1155    0.0000 H   0  0  0  0  0  0  0  0  0  0  0  0
    2.8998   -3.1870    0.0000 H   0  0  0  0  0  0  0  0  0  0  0  0
    6.6338    0.9121    0.0000 H   0  0  0  0  0  0  0  0  0  0  0  0
    7.2971   -2.2352    0.0000 H   0  0  0  0  0  0  0  0  0  0  0  0
    8.4509    1.2950    0.0000 H   0  0  0  0  0  0  0  0  0  0  0  0
    9.1142   -1.8523    0.0000 H   0  0  0  0  0  0  0  0  0  0  0  0
    8.4247   -4.6141    0.0000 H   0  0  0  0  0  0  0  0  0  0  0  0
   10.0297   -3.6875    0.0000 H   0  0  0  0  0  0  0  0  0  0  0  0
    9.4947   -4.6142    0.0000 H   0  0  0  0  0  0  0  0  0  0  0  0
    0.7234   -1.7235    0.0000 H   0  0  0  0  0  0  0  0  0  0  0  0
    1.6500   -3.3285    0.0000 H   0  0  0  0  0  0  0  0  0  0  0  0
    0.7233   -2.7935    0.0000 H   0  0  0  0  0  0  0  0  0  0  0  0
  1  5  2  0  0  0  0
  1  6  2  0  0  0  0
  1  8  1  0  0  0  0
  1 39  1  0  0  0  0
  2 18  1  0  0  0  0
  2 25  1  0  0  0  0
  3 17  1  0  0  0  0
  3 31  1  0  0  0  0
  4 26  2  0  0  0  0
  7  9  1  0  0  0  0
  7 10  1  0  0  0  0
  7 11  1  0  0  0  0
  8 30  1  0  0  0  0
  8 40  1  0  0  0  0
  9 12  1  0  0  0  0
  9 41  1  0  0  0  0
  9 42  1  0  0  0  0
 10 13  1  0  0  0  0
 10 43  1  0  0  0  0
 10 44  1  0  0  0  0
 11 14  1  0  0  0  0
 11 45  1  0  0  0  0
 11 46  1  0  0  0  0
 12 15  1  0  0  0  0
 12 47  1  0  0  0  0
 12 48  1  0  0  0  0
 13 16  1  0  0  0  0
 13 49  1  0  0  0  0
 13 50  1  0  0  0  0
 14 17  1  0  0  0  0
 14 51  1  0  0  0  0
 14 52  1  0  0  0  0
 15 23  1  0  0  0  0
 15 53  1  0  0  0  0
 15 54  1  0  0  0  0
 16 24  1  0  0  0  0
 16 55  1  0  0  0  0
 16 56  1  0  0  0  0
 17 57  1  0  0  0  0
 17 58  1  0  0  0  0
 18 19  2  0  0  0  0
 18 20  1  0  0  0  0
 19 21  1  0  0  0  0
 19 26  1  0  0  0  0
 20 22  1  0  0  0  0
 20 59  1  0  0  0  0
 20 60  1  0  0  0  0
 21 25  2  0  0  0  0
 21 28  1  0  0  0  0
 22 27  1  0  0  0  0
 22 61  1  0  0  0  0
 22 62  1  0  0  0  0
 23 63  1  0  0  0  0
 23 64  1  0  0  0  0
 23 65  1  0  0  0  0
 24 66  1  0  0  0  0
 24 67  1  0  0  0  0
 24 68  1  0  0  0  0
 25 32  1  0  0  0  0
 26 29  1  0  0  0  0
 27 38  1  0  0  0  0
 27 69  1  0  0  0  0
 27 70  1  0  0  0  0
 28 30  2  0  0  0  0
 28 71  1  0  0  0  0
 29 34  2  0  0  0  0
 29 35  1  0  0  0  0
 30 33  1  0  0  0  0
 31 36  2  0  0  0  0
 31 37  1  0  0  0  0
 32 33  2  0  0  0  0
 32 72  1  0  0  0  0
 33 73  1  0  0  0  0
 34 36  1  0  0  0  0
 34 74  1  0  0  0  0
 35 37  2  0  0  0  0
 35 75  1  0  0  0  0
 36 76  1  0  0  0  0
 37 77  1  0  0  0  0
 38 78  1  0  0  0  0
 38 79  1  0  0  0  0
 38 80  1  0  0  0  0
 39 81  1  0  0  0  0
 39 82  1  0  0  0  0
 39 83  1  0  0  0  0
M  END
>  <DRUGBANK_ID>
DB04855

>  <COMMON_NAME>
Dronedarone

>  <CAS_NUMBER>
141626-36-0

>  <UNII>
JQZ1L091Y2

>  <SYNONYMS>
Dronedarona; Dronedarone; N-(2-butyl-3-(4-(3-(dibutylamino)propoxy)benzoyl)-5-benzofuranyl)-methanesulfonamide; N-(2-butyl-3-(p-(3-(dibutylamino)propoxy)benzoyl)-5-benzofuranyl)methanesulfonamide

$$$$
