
 OpenBabel10282417072D

 28 29  0  0  0  0  0  0  0  0999 V2000
    4.1801    5.5902    0.0000 C   0  0  0  0  0  0  0  0  0  0  0  0
    3.8781    2.2581    0.0000 C   0  0  0  0  0  0  0  0  0  0  0  0
    2.7512    7.2402    0.0000 C   0  0  0  0  0  0  0  0  0  0  0  0
    4.1331    3.0428    0.0000 C   0  0  0  0  0  0  0  0  0  0  0  0
    3.4656    4.3527    0.0000 C   0  0  0  0  0  0  0  0  0  0  0  0
    2.7512    4.7652    0.0000 C   0  0  0  0  0  0  0  0  0  0  0  0
    2.0367    6.8277    0.0000 C   0  0  0  0  0  0  0  0  0  0  0  0
    3.4656    6.8277    0.0000 C   0  0  0  0  0  0  0  0  0  0  0  0
    3.0531    2.2581    0.0000 C   0  0  0  0  0  0  0  0  0  0  0  0
    3.4656    3.5277    0.0000 C   0  0  0  0  0  0  0  0  0  0  0  0
    2.7512    5.5902    0.0000 C   0  0  0  0  0  0  0  0  0  0  0  0
    2.0367    6.0027    0.0000 N   0  0  0  0  0  0  0  0  0  0  0  0
    3.4656    6.0027    0.0000 N   0  0  0  0  0  0  0  0  0  0  0  0
    2.7982    3.0428    0.0000 S   0  0  0  0  0  0  0  0  0  0  0  0
    4.1801    4.7652    0.0000 H   0  0  0  0  0  0  0  0  0  0  0  0
    2.0367    4.3527    0.0000 H   0  0  0  0  0  0  0  0  0  0  0  0
    4.1801    4.5202    0.0000 H   0  0  0  0  0  0  0  0  0  0  0  0
    5.1067    6.1252    0.0000 H   0  0  0  0  0  0  0  0  0  0  0  0
    5.1068    5.0552    0.0000 H   0  0  0  0  0  0  0  0  0  0  0  0
    4.4847    1.4232    0.0000 H   0  0  0  0  0  0  0  0  0  0  0  0
    2.7512    8.3102    0.0000 H   0  0  0  0  0  0  0  0  0  0  0  0
    3.6779    7.7752    0.0000 H   0  0  0  0  0  0  0  0  0  0  0  0
    5.1146    3.3617    0.0000 H   0  0  0  0  0  0  0  0  0  0  0  0
    1.1101    7.3627    0.0000 H   0  0  0  0  0  0  0  0  0  0  0  0
    1.1101    6.2927    0.0000 H   0  0  0  0  0  0  0  0  0  0  0  0
    4.3923    7.3627    0.0000 H   0  0  0  0  0  0  0  0  0  0  0  0
    4.3922    6.2927    0.0000 H   0  0  0  0  0  0  0  0  0  0  0  0
    2.4465    1.4232    0.0000 H   0  0  0  0  0  0  0  0  0  0  0  0
  1 17  1  0  0  0  0
  1 18  1  0  0  0  0
  1 19  1  0  0  0  0
  2 20  1  0  0  0  0
  3 21  1  0  0  0  0
  3 22  1  0  0  0  0
  4  2  1  0  0  0  0
  4 23  1  0  0  0  0
  6  5  2  0  0  0  0
  7  3  1  0  0  0  0
  7 24  1  0  0  0  0
  7 25  1  0  0  0  0
  8  3  1  0  0  0  0
  8 26  1  0  0  0  0
  8 27  1  0  0  0  0
  9  2  2  0  0  0  0
  9 28  1  0  0  0  0
 10  4  2  0  0  0  0
 10  5  1  0  0  0  0
 11  6  1  0  0  0  0
 12  7  1  0  0  0  0
 12 11  2  0  0  0  0
 13  1  1  0  0  0  0
 13  8  1  0  0  0  0
 13 11  1  0  0  0  0
 14  9  1  0  0  0  0
 14 10  1  0  0  0  0
 15  5  1  0  0  0  0
 16  6  1  0  0  0  0
M  END
>  <DRUGBANK_ID>
DB11156

>  <COMMON_NAME>
Pyrantel

>  <CAS_NUMBER>
15686-83-6

>  <UNII>
4QIH0N49E7

>  <SYNONYMS>
Pirantel; Pyrantel; Pyrantelum

$$$$
