
 OpenBabel10282417072D

 20 19  0  0  0  0  0  0  0  0999 V2000
   -0.7145   -0.8250    0.0000 C   0  0  0  0  0  0  0  0  0  0  0  0
    0.0000   -0.4124    0.0000 C   0  0  0  0  0  0  0  0  0  0  0  0
    0.7145   -0.8250    0.0000 C   0  0  0  0  0  0  0  0  0  0  0  0
   -1.4290   -0.4124    0.0000 C   0  0  0  0  0  0  0  0  0  0  0  0
   -1.4290    0.4125    0.0000 O   0  0  0  0  0  0  0  0  0  0  0  0
   -2.1436   -0.8250    0.0000 O   0  0  0  0  0  0  0  0  0  0  0  0
    0.0000    0.4125    0.0000 C   0  0  0  0  0  0  0  0  0  0  0  0
   -0.7146    0.8251    0.0000 O   0  0  0  0  0  0  0  0  0  0  0  0
    0.7145    0.8251    0.0000 O   0  0  0  0  0  0  0  0  0  0  0  0
    1.4290   -0.4124    0.0000 C   0  0  0  0  0  0  0  0  0  0  0  0
    1.4290    0.4125    0.0000 O   0  0  0  0  0  0  0  0  0  0  0  0
    2.1436   -0.8250    0.0000 O   0  0  0  0  0  0  0  0  0  0  0  0
   -0.7145   -1.8950    0.0000 H   0  0  0  0  0  0  0  0  0  0  0  0
   -1.6412   -1.3600    0.0000 H   0  0  0  0  0  0  0  0  0  0  0  0
    0.9267    0.1226    0.0000 H   0  0  0  0  0  0  0  0  0  0  0  0
    0.7145   -1.8950    0.0000 H   0  0  0  0  0  0  0  0  0  0  0  0
    1.6412   -1.3600    0.0000 H   0  0  0  0  0  0  0  0  0  0  0  0
   -2.9551   -0.3565    0.0000 H   0  0  0  0  0  0  0  0  0  0  0  0
    1.5260    0.3567    0.0000 H   0  0  0  0  0  0  0  0  0  0  0  0
    2.1436   -1.7620    0.0000 H   0  0  0  0  0  0  0  0  0  0  0  0
  1 13  1  0  0  0  0
  1 14  1  0  0  0  0
  2  1  1  0  0  0  0
  2 15  1  0  0  0  0
  3  2  1  0  0  0  0
  3 16  1  0  0  0  0
  3 17  1  0  0  0  0
  4  1  1  0  0  0  0
  5  4  2  0  0  0  0
  6  4  1  0  0  0  0
  6 18  1  0  0  0  0
  7  2  1  0  0  0  0
  8  7  2  0  0  0  0
  9  7  1  0  0  0  0
  9 19  1  0  0  0  0
 10  3  1  0  0  0  0
 11 10  2  0  0  0  0
 12 10  1  0  0  0  0
 12 20  1  0  0  0  0
M  END
>  <DRUGBANK_ID>
DB04562

>  <SECONDARY_ACCESSION_NUMBERS>
EXPT03105

>  <COMMON_NAME>
Tricarballylic acid

>  <CAS_NUMBER>
99-14-9

>  <UNII>
RA5QH2J020

>  <SYNONYMS>
1,2,3-propanetricarboxylic acid; 3-carboxyglutaric acid; 3-carboxypentanedioic acid; Carballylic acid; Carboxymethylsuccinic acid; Î²-carboxyglutaric acid

$$$$
