
 OpenBabel10282417072D

 32 33  0  0  0  0  0  0  0  0999 V2000
   -4.3973   -1.2374    0.0000 C   0  0  0  0  0  0  0  0  0  0  0  0
   -3.5722   -1.2374    0.0000 C   0  0  3  0  0  0  0  0  0  0  0  0
   -3.9848   -1.9519    0.0000 C   0  0  0  0  0  0  0  0  0  0  0  0
    0.0000    0.0000    0.0000 C   0  0  0  0  0  0  0  0  0  0  0  0
    0.7145    0.4125    0.0000 C   0  0  0  0  0  0  0  0  0  0  0  0
   -2.8579   -0.8250    0.0000 C   0  0  0  0  0  0  0  0  0  0  0  0
   -0.7144    0.4125    0.0000 O   0  0  0  0  0  0  0  0  0  0  0  0
    1.4290    0.0000    0.0000 O   0  0  0  0  0  0  0  0  0  0  0  0
   -2.8579    0.0000    0.0000 C   0  0  0  0  0  0  0  0  0  0  0  0
   -2.1434   -1.2374    0.0000 C   0  0  0  0  0  0  0  0  0  0  0  0
   -1.4289    0.0000    0.0000 C   0  0  0  0  0  0  0  0  0  0  0  0
    0.7145    1.2374    0.0000 O   0  0  0  0  0  0  0  0  0  0  0  0
   -1.4289   -0.8250    0.0000 C   0  0  0  0  0  0  0  0  0  0  0  0
   -2.1434    0.4125    0.0000 C   0  0  0  0  0  0  0  0  0  0  0  0
   -4.3973   -2.6664    0.0000 Cl  0  0  0  0  0  0  0  0  0  0  0  0
   -3.5722   -2.6664    0.0000 Cl  0  0  0  0  0  0  0  0  0  0  0  0
   -0.4125   -0.7144    0.0000 C   0  0  0  0  0  0  0  0  0  0  0  0
    0.4125   -0.7144    0.0000 C   0  0  0  0  0  0  0  0  0  0  0  0
   -5.3239   -0.7024    0.0000 H   0  0  0  0  0  0  0  0  0  0  0  0
   -5.1539   -1.9940    0.0000 H   0  0  0  0  0  0  0  0  0  0  0  0
   -3.8491   -0.2039    0.0000 H   0  0  0  0  0  0  0  0  0  0  0  0
    1.4290   -0.9370    0.0000 H   0  0  0  0  0  0  0  0  0  0  0  0
   -3.7516    0.5160    0.0000 H   0  0  0  0  0  0  0  0  0  0  0  0
   -2.1434   -2.2694    0.0000 H   0  0  0  0  0  0  0  0  0  0  0  0
   -0.5352   -1.3411    0.0000 H   0  0  0  0  0  0  0  0  0  0  0  0
   -2.1434    1.4445    0.0000 H   0  0  0  0  0  0  0  0  0  0  0  0
   -1.4825   -0.7144    0.0000 H   0  0  0  0  0  0  0  0  0  0  0  0
    0.1225   -1.6411    0.0000 H   0  0  0  0  0  0  0  0  0  0  0  0
   -0.9475   -1.6410    0.0000 H   0  0  0  0  0  0  0  0  0  0  0  0
   -0.1225   -1.6411    0.0000 H   0  0  0  0  0  0  0  0  0  0  0  0
    1.4825   -0.7144    0.0000 H   0  0  0  0  0  0  0  0  0  0  0  0
    0.9475   -1.6410    0.0000 H   0  0  0  0  0  0  0  0  0  0  0  0
  1 19  1  0  0  0  0
  1 20  1  0  0  0  0
  2  1  1  0  0  0  0
  2 21  1  0  0  0  0
  3  1  1  0  0  0  0
  3  2  1  0  0  0  0
  3 15  1  0  0  0  0
  3 16  1  0  0  0  0
  4 17  1  0  0  0  0
  4 18  1  0  0  0  0
  5  4  1  0  0  0  0
  6  2  1  0  0  0  0
  7  4  1  0  0  0  0
  8  5  1  0  0  0  0
  8 22  1  0  0  0  0
  9  6  2  0  0  0  0
  9 23  1  0  0  0  0
 10  6  1  0  0  0  0
 10 24  1  0  0  0  0
 11  7  1  0  0  0  0
 12  5  2  0  0  0  0
 13 10  2  0  0  0  0
 13 11  1  0  0  0  0
 13 25  1  0  0  0  0
 14  9  1  0  0  0  0
 14 11  2  0  0  0  0
 14 26  1  0  0  0  0
 17 27  1  0  0  0  0
 17 28  1  0  0  0  0
 17 29  1  0  0  0  0
 18 30  1  0  0  0  0
 18 31  1  0  0  0  0
 18 32  1  0  0  0  0
M  END
>  <DRUGBANK_ID>
DB09064

>  <COMMON_NAME>
Ciprofibrate

>  <CAS_NUMBER>
52214-84-3

>  <UNII>
F8252JGO9S

>  <SYNONYMS>
Ciprofibrate; ciprofibrato

$$$$
