
 OpenBabel10282417072D

 35 37  0  0  0  0  0  0  0  0999 V2000
   -0.1845    2.6331    0.0000 O   0  0  0  0  0  0  0  0  0  0  0  0
    1.0577    1.5601    0.0000 N   0  0  0  0  0  0  0  0  0  0  0  0
   -0.3801   -0.0257    0.0000 N   0  0  0  0  0  0  0  0  0  0  0  0
   -1.5377    0.9099    0.0000 N   0  0  0  0  0  0  0  0  0  0  0  0
    0.2700    0.4870    0.0000 C   0  0  0  0  0  0  0  0  0  0  0  0
    0.2753    1.3117    0.0000 C   0  0  0  0  0  0  0  0  0  0  0  0
    1.5334    0.8940    0.0000 C   0  0  0  0  0  0  0  0  0  0  0  0
   -0.3694    1.8297    0.0000 C   0  0  1  0  0  0  0  0  0  0  0  0
   -1.1782    1.6500    0.0000 C   0  0  0  0  0  0  0  0  0  0  0  0
   -1.1835    0.1592    0.0000 C   0  0  0  0  0  0  0  0  0  0  0  0
    1.0471    0.2280    0.0000 N   0  0  0  0  0  0  0  0  0  0  0  0
    1.0471   -0.5966    0.0000 C   0  0  1  0  0  0  0  0  0  0  0  0
    0.5397   -1.8283    0.0000 C   0  0  1  0  0  0  0  0  0  0  0  0
    1.2427   -1.4001    0.0000 C   0  0  0  0  0  0  0  0  0  0  0  0
   -0.0892   -1.2944    0.0000 C   0  0  2  0  0  0  0  0  0  0  0  0
    0.2278   -0.5331    0.0000 O   0  0  0  0  0  0  0  0  0  0  0  0
   -0.8928   -1.4847    0.0000 C   0  0  0  0  0  0  0  0  0  0  0  0
   -1.1254   -2.2776    0.0000 O   0  0  0  0  0  0  0  0  0  0  0  0
    0.4709   -2.6529    0.0000 O   0  0  0  0  0  0  0  0  0  0  0  0
    0.7429    2.9173    0.0000 H   0  0  0  0  0  0  0  0  0  0  0  0
   -2.5222    0.9155    0.0000 H   0  0  0  0  0  0  0  0  0  0  0  0
    2.5654    0.8886    0.0000 H   0  0  0  0  0  0  0  0  0  0  0  0
    0.6415    2.1803    0.0000 H   0  0  0  0  0  0  0  0  0  0  0  0
   -1.8415    2.4896    0.0000 H   0  0  0  0  0  0  0  0  0  0  0  0
   -0.8196    2.6581    0.0000 H   0  0  0  0  0  0  0  0  0  0  0  0
   -1.8309   -0.6445    0.0000 H   0  0  0  0  0  0  0  0  0  0  0  0
    2.1095   -0.4692    0.0000 H   0  0  0  0  0  0  0  0  0  0  0  0
    1.4500   -2.3907    0.0000 H   0  0  0  0  0  0  0  0  0  0  0  0
    2.2313   -1.8093    0.0000 H   0  0  0  0  0  0  0  0  0  0  0  0
    1.3253   -2.4669    0.0000 H   0  0  0  0  0  0  0  0  0  0  0  0
   -0.3390   -2.3348    0.0000 H   0  0  0  0  0  0  0  0  0  0  0  0
   -1.6292   -0.7084    0.0000 H   0  0  0  0  0  0  0  0  0  0  0  0
   -1.9329   -1.7357    0.0000 H   0  0  0  0  0  0  0  0  0  0  0  0
   -2.0680   -2.5065    0.0000 H   0  0  0  0  0  0  0  0  0  0  0  0
   -0.4066   -3.0664    0.0000 H   0  0  0  0  0  0  0  0  0  0  0  0
  1 20  1  0  0  0  0
  2  6  1  0  0  0  0
  2  7  2  0  0  0  0
  3  5  1  0  0  0  0
  3 10  2  0  0  0  0
  4  9  1  0  0  0  0
  4 10  1  0  0  0  0
  4 21  1  0  0  0  0
  5 11  1  0  0  0  0
  5  6  2  0  0  0  0
  6  8  1  0  0  0  0
  7 11  1  0  0  0  0
  7 22  1  0  0  0  0
  8  1  1  0  0  0  0
  8  9  1  0  0  0  0
  8 23  1  6  0  0  0
  9 24  1  0  0  0  0
  9 25  1  0  0  0  0
 10 26  1  0  0  0  0
 12 11  1  0  0  0  0
 12 14  1  0  0  0  0
 12 16  1  0  0  0  0
 12 27  1  6  0  0  0
 13 14  1  0  0  0  0
 13 15  1  0  0  0  0
 13 19  1  0  0  0  0
 13 28  1  1  0  0  0
 14 29  1  0  0  0  0
 14 30  1  0  0  0  0
 15 16  1  0  0  0  0
 15 17  1  0  0  0  0
 15 31  1  6  0  0  0
 17 18  1  0  0  0  0
 17 32  1  0  0  0  0
 17 33  1  0  0  0  0
 18 34  1  0  0  0  0
 19 35  1  0  0  0  0
M  END
>  <DRUGBANK_ID>
DB00552

>  <SECONDARY_ACCESSION_NUMBERS>
APRD00202

>  <COMMON_NAME>
Pentostatin

>  <CAS_NUMBER>
53910-25-1

>  <UNII>
395575MZO7

>  <SYNONYMS>
Co-vidarabine; Pentostatin; Pentostatina; Pentostatine; Pentostatinum

$$$$
