
 OpenBabel10282417072D

 92 94  0  0  0  0  0  0  0  0999 V2000
   -4.9947   -0.6174    0.0000 O   0  0  0  0  0  0  0  0  0  0  0  0
   -4.2788   -0.2040    0.0000 C   0  0  0  0  0  0  0  0  0  0  0  0
   -5.7129   -0.2040    0.0000 C   0  0  0  0  0  0  0  0  0  0  0  0
   -5.7140    0.6226    0.0000 O   0  0  0  0  0  0  0  0  0  0  0  0
   -6.4282   -0.6183    0.0000 C   0  0  0  0  0  0  0  0  0  0  0  0
   -3.5642   -0.6220    0.0000 C   0  0  0  0  0  0  0  0  0  0  0  0
   -3.5693    1.0313    0.0000 C   0  0  0  0  0  0  0  0  0  0  0  0
   -4.2818    0.6163    0.0000 C   0  0  0  0  0  0  0  0  0  0  0  0
   -4.9994    1.0269    0.0000 C   0  0  0  0  0  0  0  0  0  0  0  0
   -3.5722    1.8580    0.0000 C   0  0  0  0  0  0  0  0  0  0  0  0
   -3.5668   -1.4487    0.0000 C   0  0  0  0  0  0  0  0  0  0  0  0
   -2.8483    0.6182    0.0000 C   0  0  0  0  0  0  0  0  0  0  0  0
   -2.8485   -0.2080    0.0000 C   0  0  0  0  0  0  0  0  0  0  0  0
   -2.1371   -0.6192    0.0000 C   0  0  0  0  0  0  0  0  0  0  0  0
   -1.4207   -0.2084    0.0000 C   0  0  0  0  0  0  0  0  0  0  0  0
   -1.4205    0.6178    0.0000 C   0  0  2  0  0  0  0  0  0  0  0  0
   -2.1366    1.0333    0.0000 O   0  0  0  0  0  0  0  0  0  0  0  0
   -0.7067    1.0276    0.0000 C   0  0  0  0  0  0  0  0  0  0  0  0
    0.0072    0.6143    0.0000 C   0  0  0  0  0  0  0  0  0  0  0  0
    0.7211    1.0234    0.0000 C   0  0  0  0  0  0  0  0  0  0  0  0
    1.4351    0.6101    0.0000 C   0  0  1  0  0  0  0  0  0  0  0  0
    2.1491    1.0193    0.0000 C   0  0  0  0  0  0  0  0  0  0  0  0
    2.8631    0.6060    0.0000 C   0  0  0  0  0  0  0  0  0  0  0  0
    3.5770    1.0151    0.0000 C   0  0  0  0  0  0  0  0  0  0  0  0
    4.2910    0.6017    0.0000 C   0  0  1  0  0  0  0  0  0  0  0  0
    5.0050    1.0109    0.0000 C   0  0  0  0  0  0  0  0  0  0  0  0
    5.7190    0.5975    0.0000 C   0  0  0  0  0  0  0  0  0  0  0  0
    6.4330    1.0068    0.0000 C   0  0  0  0  0  0  0  0  0  0  0  0
    7.1469    0.5934    0.0000 C   0  0  0  0  0  0  0  0  0  0  0  0
    7.8609    1.0026    0.0000 C   0  0  0  0  0  0  0  0  0  0  0  0
   -0.7067    0.2051    0.0000 C   0  0  0  0  0  0  0  0  0  0  0  0
    1.4333   -0.2165    0.0000 C   0  0  0  0  0  0  0  0  0  0  0  0
    4.2892   -0.2249    0.0000 C   0  0  0  0  0  0  0  0  0  0  0  0
    7.1451   -0.2332    0.0000 C   0  0  0  0  0  0  0  0  0  0  0  0
   -7.1445   -0.2055    0.0000 C   0  0  0  0  0  0  0  0  0  0  0  0
   -7.8578   -0.6164    0.0000 C   0  0  0  0  0  0  0  0  0  0  0  0
   -7.8609   -1.4434    0.0000 C   0  0  0  0  0  0  0  0  0  0  0  0
   -7.1446   -1.8580    0.0000 N   0  0  0  0  0  0  0  0  0  0  0  0
   -6.4250   -1.4456    0.0000 C   0  0  0  0  0  0  0  0  0  0  0  0
   -5.0036    2.0969    0.0000 H   0  0  0  0  0  0  0  0  0  0  0  0
   -5.9240    0.4883    0.0000 H   0  0  0  0  0  0  0  0  0  0  0  0
   -5.9281    1.5583    0.0000 H   0  0  0  0  0  0  0  0  0  0  0  0
   -2.6474    2.3962    0.0000 H   0  0  0  0  0  0  0  0  0  0  0  0
   -4.5007    2.3897    0.0000 H   0  0  0  0  0  0  0  0  0  0  0  0
   -3.5760    2.9280    0.0000 H   0  0  0  0  0  0  0  0  0  0  0  0
   -4.4951   -1.9808    0.0000 H   0  0  0  0  0  0  0  0  0  0  0  0
   -2.6418   -1.9866    0.0000 H   0  0  0  0  0  0  0  0  0  0  0  0
   -3.5702   -2.5187    0.0000 H   0  0  0  0  0  0  0  0  0  0  0  0
   -2.1389   -1.6892    0.0000 H   0  0  0  0  0  0  0  0  0  0  0  0
   -1.2117   -1.1564    0.0000 H   0  0  0  0  0  0  0  0  0  0  0  0
   -0.4949   -0.7449    0.0000 H   0  0  0  0  0  0  0  0  0  0  0  0
   -0.4936    0.3257    0.0000 H   0  0  0  0  0  0  0  0  0  0  0  0
   -0.7048    2.0976    0.0000 H   0  0  0  0  0  0  0  0  0  0  0  0
   -1.6322    1.5646    0.0000 H   0  0  0  0  0  0  0  0  0  0  0  0
    0.0048   -0.4557    0.0000 H   0  0  0  0  0  0  0  0  0  0  0  0
    0.9324    0.0768    0.0000 H   0  0  0  0  0  0  0  0  0  0  0  0
    0.7234    2.0934    0.0000 H   0  0  0  0  0  0  0  0  0  0  0  0
    1.6486    1.5569    0.0000 H   0  0  0  0  0  0  0  0  0  0  0  0
    0.5076    0.0766    0.0000 H   0  0  0  0  0  0  0  0  0  0  0  0
    2.1514    2.0893    0.0000 H   0  0  0  0  0  0  0  0  0  0  0  0
    3.0766    1.5528    0.0000 H   0  0  0  0  0  0  0  0  0  0  0  0
    2.8608   -0.4640    0.0000 H   0  0  0  0  0  0  0  0  0  0  0  0
    3.7883    0.0685    0.0000 H   0  0  0  0  0  0  0  0  0  0  0  0
    3.5794    2.0851    0.0000 H   0  0  0  0  0  0  0  0  0  0  0  0
    4.5046    1.5485    0.0000 H   0  0  0  0  0  0  0  0  0  0  0  0
    3.3634    0.0683    0.0000 H   0  0  0  0  0  0  0  0  0  0  0  0
    5.0074    2.0809    0.0000 H   0  0  0  0  0  0  0  0  0  0  0  0
    5.9326    1.5443    0.0000 H   0  0  0  0  0  0  0  0  0  0  0  0
    5.7167   -0.4725    0.0000 H   0  0  0  0  0  0  0  0  0  0  0  0
    6.6442    0.0601    0.0000 H   0  0  0  0  0  0  0  0  0  0  0  0
    6.4353    2.0768    0.0000 H   0  0  0  0  0  0  0  0  0  0  0  0
    7.3606    1.5402    0.0000 H   0  0  0  0  0  0  0  0  0  0  0  0
    8.0721    0.0559    0.0000 H   0  0  0  0  0  0  0  0  0  0  0  0
    8.7858    0.4646    0.0000 H   0  0  0  0  0  0  0  0  0  0  0  0
    7.8643    2.0726    0.0000 H   0  0  0  0  0  0  0  0  0  0  0  0
    8.7892    1.5346    0.0000 H   0  0  0  0  0  0  0  0  0  0  0  0
   -0.7074   -0.8649    0.0000 H   0  0  0  0  0  0  0  0  0  0  0  0
    0.2203    0.7395    0.0000 H   0  0  0  0  0  0  0  0  0  0  0  0
    0.2196   -0.3305    0.0000 H   0  0  0  0  0  0  0  0  0  0  0  0
    0.5055   -0.7495    0.0000 H   0  0  0  0  0  0  0  0  0  0  0  0
    2.3588   -0.7535    0.0000 H   0  0  0  0  0  0  0  0  0  0  0  0
    1.4310   -1.2865    0.0000 H   0  0  0  0  0  0  0  0  0  0  0  0
    3.3614   -0.7579    0.0000 H   0  0  0  0  0  0  0  0  0  0  0  0
    5.2147   -0.7619    0.0000 H   0  0  0  0  0  0  0  0  0  0  0  0
    4.2869   -1.2949    0.0000 H   0  0  0  0  0  0  0  0  0  0  0  0
    6.2173   -0.7662    0.0000 H   0  0  0  0  0  0  0  0  0  0  0  0
    8.0706   -0.7702    0.0000 H   0  0  0  0  0  0  0  0  0  0  0  0
    7.1428   -1.3032    0.0000 H   0  0  0  0  0  0  0  0  0  0  0  0
   -7.1444    0.8265    0.0000 H   0  0  0  0  0  0  0  0  0  0  0  0
   -8.7503   -0.0983    0.0000 H   0  0  0  0  0  0  0  0  0  0  0  0
   -8.7559   -1.9572    0.0000 H   0  0  0  0  0  0  0  0  0  0  0  0
   -5.5311   -1.9613    0.0000 H   0  0  0  0  0  0  0  0  0  0  0  0
  1  3  1  0  0  0  0
  1  2  1  0  0  0  0
  2  6  2  0  0  0  0
  3  5  1  0  0  0  0
  3  4  2  0  0  0  0
  5 35  2  0  0  0  0
  5 39  1  0  0  0  0
  6 11  1  0  0  0  0
  6 13  1  0  0  0  0
  7 10  1  0  0  0  0
  7  8  2  0  0  0  0
  8  9  1  0  0  0  0
  8  2  1  0  0  0  0
  9 40  1  0  0  0  0
  9 41  1  0  0  0  0
  9 42  1  0  0  0  0
 10 43  1  0  0  0  0
 10 44  1  0  0  0  0
 10 45  1  0  0  0  0
 11 46  1  0  0  0  0
 11 47  1  0  0  0  0
 11 48  1  0  0  0  0
 12 13  2  0  0  0  0
 12  7  1  0  0  0  0
 12 17  1  0  0  0  0
 13 14  1  0  0  0  0
 14 15  1  0  0  0  0
 14 49  1  0  0  0  0
 14 50  1  0  0  0  0
 15 16  1  0  0  0  0
 15 51  1  0  0  0  0
 15 52  1  0  0  0  0
 16 31  1  1  0  0  0
 16 17  1  0  0  0  0
 16 18  1  0  0  0  0
 18 19  1  0  0  0  0
 18 53  1  0  0  0  0
 18 54  1  0  0  0  0
 19 20  1  0  0  0  0
 19 55  1  0  0  0  0
 19 56  1  0  0  0  0
 20 21  1  0  0  0  0
 20 57  1  0  0  0  0
 20 58  1  0  0  0  0
 21 22  1  0  0  0  0
 21 32  1  0  0  0  0
 21 59  1  6  0  0  0
 22 23  1  0  0  0  0
 22 60  1  0  0  0  0
 22 61  1  0  0  0  0
 23 24  1  0  0  0  0
 23 62  1  0  0  0  0
 23 63  1  0  0  0  0
 24 25  1  0  0  0  0
 24 64  1  0  0  0  0
 24 65  1  0  0  0  0
 25 26  1  0  0  0  0
 25 33  1  0  0  0  0
 25 66  1  6  0  0  0
 26 27  1  0  0  0  0
 26 67  1  0  0  0  0
 26 68  1  0  0  0  0
 27 28  1  0  0  0  0
 27 69  1  0  0  0  0
 27 70  1  0  0  0  0
 28 29  1  0  0  0  0
 28 71  1  0  0  0  0
 28 72  1  0  0  0  0
 29 30  1  0  0  0  0
 29 34  1  0  0  0  0
 29 73  1  0  0  0  0
 30 74  1  0  0  0  0
 30 75  1  0  0  0  0
 30 76  1  0  0  0  0
 31 77  1  0  0  0  0
 31 78  1  0  0  0  0
 31 79  1  0  0  0  0
 32 80  1  0  0  0  0
 32 81  1  0  0  0  0
 32 82  1  0  0  0  0
 33 83  1  0  0  0  0
 33 84  1  0  0  0  0
 33 85  1  0  0  0  0
 34 86  1  0  0  0  0
 34 87  1  0  0  0  0
 34 88  1  0  0  0  0
 35 36  1  0  0  0  0
 35 89  1  0  0  0  0
 36 37  2  0  0  0  0
 36 90  1  0  0  0  0
 37 38  1  0  0  0  0
 37 91  1  0  0  0  0
 38 39  2  0  0  0  0
 39 92  1  0  0  0  0
M  END
>  <DRUGBANK_ID>
DB15921

>  <COMMON_NAME>
Tocopheryl nicotinate

>  <CAS_NUMBER>
43119-47-7

>  <UNII>
WI1J5UCY5C

>  <SYNONYMS>
Alpha-tocopheryl nicotinate; Tocoferil nicotinate; Tocopherol nicotinate; Vitamin E nicotinate; Vitamin E nicotinic acid ester

$$$$
