
 OpenBabel10282417072D

 58 66  0  0  0  0  0  0  0  0999 V2000
   -2.4835   -3.0816    0.0000 C   0  0  0  0  0  0  0  0  0  0  0  0
   -3.0719   -2.5033    0.0000 C   0  0  0  0  0  0  0  0  0  0  0  0
    2.5237   -3.0379    0.0000 C   0  0  0  0  0  0  0  0  0  0  0  0
    3.1019   -2.4494    0.0000 C   0  0  0  0  0  0  0  0  0  0  0  0
   -3.0585    2.4185    0.0000 C   0  0  0  0  0  0  0  0  0  0  0  0
   -2.4802    3.0069    0.0000 C   0  0  0  0  0  0  0  0  0  0  0  0
    3.0313    2.5302    0.0000 C   0  0  0  0  0  0  0  0  0  0  0  0
    2.4428    3.1084    0.0000 C   0  0  0  0  0  0  0  0  0  0  0  0
   -1.6885   -2.8611    0.0000 C   0  0  0  0  0  0  0  0  0  0  0  0
   -2.8653   -1.7046    0.0000 C   0  0  0  0  0  0  0  0  0  0  0  0
    1.7249   -2.8314    0.0000 C   0  0  0  0  0  0  0  0  0  0  0  0
    2.8813   -1.6544    0.0000 C   0  0  0  0  0  0  0  0  0  0  0  0
   -2.8380    1.6235    0.0000 C   0  0  0  0  0  0  0  0  0  0  0  0
   -1.6815    2.8003    0.0000 C   0  0  0  0  0  0  0  0  0  0  0  0
    2.8247    1.7315    0.0000 C   0  0  0  0  0  0  0  0  0  0  0  0
    1.6478    2.8880    0.0000 C   0  0  0  0  0  0  0  0  0  0  0  0
   -1.4819   -2.0624    0.0000 C   0  0  0  0  0  0  0  0  0  0  0  0
   -2.0703   -1.4841    0.0000 C   0  0  0  0  0  0  0  0  0  0  0  0
    1.5044   -2.0364    0.0000 C   0  0  0  0  0  0  0  0  0  0  0  0
    2.0826   -1.4479    0.0000 C   0  0  0  0  0  0  0  0  0  0  0  0
   -2.0393    1.4169    0.0000 C   0  0  0  0  0  0  0  0  0  0  0  0
   -1.4610    2.0053    0.0000 C   0  0  0  0  0  0  0  0  0  0  0  0
    2.0297    1.5110    0.0000 C   0  0  0  0  0  0  0  0  0  0  0  0
    1.4413    2.0893    0.0000 C   0  0  0  0  0  0  0  0  0  0  0  0
   -0.7243   -1.6459    0.0000 C   0  0  0  0  0  0  0  0  0  0  0  0
   -1.6690   -0.7465    0.0000 C   0  0  0  0  0  0  0  0  0  0  0  0
    0.7106   -1.6627    0.0000 C   0  0  0  0  0  0  0  0  0  0  0  0
   -1.6818    0.7174    0.0000 C   0  0  0  0  0  0  0  0  0  0  0  0
    1.6683   -0.6881    0.0000 C   0  0  0  0  0  0  0  0  0  0  0  0
   -0.7239    1.6627    0.0000 C   0  0  0  0  0  0  0  0  0  0  0  0
    1.6265    0.7462    0.0000 C   0  0  0  0  0  0  0  0  0  0  0  0
    0.7107    1.6752    0.0000 C   0  0  0  0  0  0  0  0  0  0  0  0
   -0.8480   -0.8857    0.0000 N   0  0  0  0  0  0  0  0  0  0  0  0
    0.8501   -0.8709    0.0000 N   0  0  0  0  0  0  0  0  0  0  0  0
   -0.8926    0.8706    0.0000 N   0  0  0  0  0  0  0  0  0  0  0  0
    0.8643    0.8567    0.0000 N   0  0  0  0  0  0  0  0  0  0  0  0
    0.0112   -2.0494    0.0000 N   0  0  0  0  0  0  0  0  0  0  0  0
   -2.0558   -0.0472    0.0000 N   0  0  0  0  0  0  0  0  0  0  0  0
    2.0427    0.0179    0.0000 N   0  0  0  0  0  0  0  0  0  0  0  0
    0.0047    2.0496    0.0000 N   0  0  0  0  0  0  0  0  0  0  0  0
   -2.7419   -4.0807    0.0000 H   0  0  0  0  0  0  0  0  0  0  0  0
   -4.0664   -2.7790    0.0000 H   0  0  0  0  0  0  0  0  0  0  0  0
    2.7996   -4.0323    0.0000 H   0  0  0  0  0  0  0  0  0  0  0  0
    4.1011   -2.7077    0.0000 H   0  0  0  0  0  0  0  0  0  0  0  0
   -4.0576    2.6769    0.0000 H   0  0  0  0  0  0  0  0  0  0  0  0
   -2.7559    4.0014    0.0000 H   0  0  0  0  0  0  0  0  0  0  0  0
    4.0258    2.8060    0.0000 H   0  0  0  0  0  0  0  0  0  0  0  0
    2.7012    4.1075    0.0000 H   0  0  0  0  0  0  0  0  0  0  0  0
   -0.9524   -3.5844    0.0000 H   0  0  0  0  0  0  0  0  0  0  0  0
   -3.6014   -0.9813    0.0000 H   0  0  0  0  0  0  0  0  0  0  0  0
    1.0016   -3.5675    0.0000 H   0  0  0  0  0  0  0  0  0  0  0  0
    3.6046   -0.9182    0.0000 H   0  0  0  0  0  0  0  0  0  0  0  0
   -3.5613    0.8874    0.0000 H   0  0  0  0  0  0  0  0  0  0  0  0
   -0.9582    3.5364    0.0000 H   0  0  0  0  0  0  0  0  0  0  0  0
    3.5608    1.0082    0.0000 H   0  0  0  0  0  0  0  0  0  0  0  0
    0.9117    3.6113    0.0000 H   0  0  0  0  0  0  0  0  0  0  0  0
    0.1828    0.1462    0.0000 H   0  0  0  0  0  0  0  0  0  0  0  0
    0.0128   -3.0339    0.0000 H   0  0  0  0  0  0  0  0  0  0  0  0
  1 41  1  0  0  0  0
  2  1  2  0  0  0  0
  2 42  1  0  0  0  0
  3 43  1  0  0  0  0
  4  3  2  0  0  0  0
  4 44  1  0  0  0  0
  5 45  1  0  0  0  0
  6  5  2  0  0  0  0
  6 46  1  0  0  0  0
  7 47  1  0  0  0  0
  8  7  1  0  0  0  0
  8 48  1  0  0  0  0
  9  1  1  0  0  0  0
  9 49  1  0  0  0  0
 10  2  1  0  0  0  0
 10 50  1  0  0  0  0
 11  3  1  0  0  0  0
 11 51  1  0  0  0  0
 12  4  1  0  0  0  0
 12 52  1  0  0  0  0
 13  5  1  0  0  0  0
 13 53  1  0  0  0  0
 14  6  1  0  0  0  0
 14 54  1  0  0  0  0
 15  7  2  0  0  0  0
 15 55  1  0  0  0  0
 16  8  2  0  0  0  0
 16 56  1  0  0  0  0
 17  9  2  0  0  0  0
 18 10  2  0  0  0  0
 18 17  1  0  0  0  0
 19 11  2  0  0  0  0
 20 12  2  0  0  0  0
 20 19  1  0  0  0  0
 21 13  2  0  0  0  0
 22 14  2  0  0  0  0
 22 21  1  0  0  0  0
 23 15  1  0  0  0  0
 24 16  1  0  0  0  0
 24 23  1  0  0  0  0
 25 17  1  0  0  0  0
 26 18  1  0  0  0  0
 27 19  1  0  0  0  0
 28 21  1  0  0  0  0
 29 20  1  0  0  0  0
 30 22  1  0  0  0  0
 31 23  2  0  0  0  0
 32 24  2  0  0  0  0
 33 25  2  0  0  0  0
 33 26  1  0  0  0  0
 34 27  2  0  0  0  0
 34 29  1  0  0  0  0
 35 28  2  0  0  0  0
 35 30  1  0  0  0  0
 36 31  1  0  0  0  0
 36 32  1  0  0  0  0
 36 57  1  0  0  0  0
 37 25  1  0  0  0  0
 37 27  1  0  0  0  0
 37 58  1  0  0  0  0
 38 26  2  0  0  0  0
 38 28  1  0  0  0  0
 39 29  2  0  0  0  0
 39 31  1  0  0  0  0
 40 30  2  0  0  0  0
 40 32  1  0  0  0  0
M  END
>  <DRUGBANK_ID>
DB12983

>  <COMMON_NAME>
Phthalocyanine

>  <CAS_NUMBER>
574-93-6

>  <UNII>
V5PUF4VLGY

>  <SYNONYMS>
ftalocianina; Pigment blue 16

$$$$
