
 OpenBabel10282417072D

 21 20  0  0  0  0  0  0  0  0999 V2000
    2.8512   -0.6206    0.0000 C   0  0  0  0  0  0  0  0  0  0  0  0
    2.1406   -0.2085    0.0000 S   0  0  2  0  0  0  0  0  0  0  0  0
    1.4293   -0.6206    0.0000 C   0  0  0  0  0  0  0  0  0  0  0  0
    0.7184   -0.2085    0.0000 C   0  0  0  0  0  0  0  0  0  0  0  0
    0.0025   -0.6206    0.0000 C   0  0  0  0  0  0  0  0  0  0  0  0
   -0.7132   -0.2085    0.0000 C   0  0  0  0  0  0  0  0  0  0  0  0
   -1.4241   -0.6206    0.0000 N   0  0  0  0  0  0  0  0  0  0  0  0
   -2.1384   -0.2096    0.0000 C   0  0  0  0  0  0  0  0  0  0  0  0
   -2.8512    0.2035    0.0000 S   0  0  0  0  0  0  0  0  0  0  0  0
    2.1406    0.6206    0.0000 O   0  0  0  0  0  0  0  0  0  0  0  0
    2.8491   -1.6906    0.0000 H   0  0  0  0  0  0  0  0  0  0  0  0
    3.7789   -0.0874    0.0000 H   0  0  0  0  0  0  0  0  0  0  0  0
    3.7768   -1.1574    0.0000 H   0  0  0  0  0  0  0  0  0  0  0  0
    1.4292   -1.6906    0.0000 H   0  0  0  0  0  0  0  0  0  0  0  0
    0.5022   -1.1547    0.0000 H   0  0  0  0  0  0  0  0  0  0  0  0
    0.7200    0.8615    0.0000 H   0  0  0  0  0  0  0  0  0  0  0  0
   -0.2075    0.3278    0.0000 H   0  0  0  0  0  0  0  0  0  0  0  0
    0.0024   -1.6906    0.0000 H   0  0  0  0  0  0  0  0  0  0  0  0
   -0.9239   -1.1561    0.0000 H   0  0  0  0  0  0  0  0  0  0  0  0
   -0.7148    0.8615    0.0000 H   0  0  0  0  0  0  0  0  0  0  0  0
   -1.6407    0.3250    0.0000 H   0  0  0  0  0  0  0  0  0  0  0  0
  1 11  1  0  0  0  0
  1 12  1  0  0  0  0
  1 13  1  0  0  0  0
  2  1  1  0  0  0  0
  2  3  1  0  0  0  0
  2 10  2  6  0  0  0
  3  4  1  0  0  0  0
  3 14  1  0  0  0  0
  3 15  1  0  0  0  0
  4  5  1  0  0  0  0
  4 16  1  0  0  0  0
  4 17  1  0  0  0  0
  5  6  1  0  0  0  0
  5 18  1  0  0  0  0
  5 19  1  0  0  0  0
  6  7  1  0  0  0  0
  6 20  1  0  0  0  0
  6 21  1  0  0  0  0
  7  8  2  0  0  0  0
  8  9  2  0  0  0  0
M  END
>  <DRUGBANK_ID>
DB12422

>  <COMMON_NAME>
Sulforaphane

>  <CAS_NUMBER>
142825-10-3

>  <UNII>
GA49J4310U

>  <SYNONYMS>
(-)-sulforaphane; (R)-sulforaphane; 4-methylsulfinylbutyl isothiocyanate

$$$$
