
 OpenBabel10282417072D

 13 14  0  0  0  0  0  0  0  0999 V2000
   -0.6655    1.2379    0.0000 Br  0  0  0  0  0  0  0  0  0  0  0  0
    0.8298    0.2513    0.0000 N   0  0  0  0  0  0  0  0  0  0  0  0
    0.8298   -1.0766    0.0000 N   0  0  0  0  0  0  0  0  0  0  0  0
   -0.6655   -1.2379    0.0000 N   0  0  0  0  0  0  0  0  0  0  0  0
   -1.3802    0.0000    0.0000 N   0  0  0  0  0  0  0  0  0  0  0  0
    0.0489    0.0000    0.0000 C   0  0  0  0  0  0  0  0  0  0  0  0
    0.0489   -0.8252    0.0000 C   0  0  0  0  0  0  0  0  0  0  0  0
   -0.6655    0.4126    0.0000 C   0  0  0  0  0  0  0  0  0  0  0  0
    1.3116   -0.4126    0.0000 C   0  0  0  0  0  0  0  0  0  0  0  0
   -1.3802   -0.8252    0.0000 C   0  0  0  0  0  0  0  0  0  0  0  0
    1.1356    1.1871    0.0000 H   0  0  0  0  0  0  0  0  0  0  0  0
    2.3436   -0.4126    0.0000 H   0  0  0  0  0  0  0  0  0  0  0  0
   -2.2740   -1.3412    0.0000 H   0  0  0  0  0  0  0  0  0  0  0  0
  1  8  1  0  0  0  0
  2  6  1  0  0  0  0
  2  9  1  0  0  0  0
  2 11  1  0  0  0  0
  3  7  1  0  0  0  0
  3  9  2  0  0  0  0
  4  7  1  0  0  0  0
  4 10  2  0  0  0  0
  5  8  2  0  0  0  0
  5 10  1  0  0  0  0
  6  7  2  0  0  0  0
  6  8  1  0  0  0  0
  9 12  1  0  0  0  0
 10 13  1  0  0  0  0
M  END
>  <DRUGBANK_ID>
DB02168

>  <SECONDARY_ACCESSION_NUMBERS>
EXPT00741

>  <COMMON_NAME>
6-bromopurine

>  <CAS_NUMBER>
767-69-1

>  <SYNONYMS>
6-bromo-1H-purine

$$$$
