
 OpenBabel10282417072D

175175  0  0  1  0  0  0  0  0999 V2000
   -6.5003    1.3884    0.0000 C   0  0  0  0  0  0  0  0  0  0  0  0
   -5.7858    0.9759    0.0000 C   0  0  0  0  0  0  0  0  0  0  0  0
   -5.0713    1.3884    0.0000 C   0  0  0  0  0  0  0  0  0  0  0  0
   -4.3569    0.9759    0.0000 C   0  0  0  0  0  0  0  0  0  0  0  0
   -3.6424    1.3884    0.0000 C   0  0  0  0  0  0  0  0  0  0  0  0
   -2.9279    0.9759    0.0000 C   0  0  0  0  0  0  0  0  0  0  0  0
   -2.2135    1.3884    0.0000 C   0  0  0  0  0  0  0  0  0  0  0  0
   -1.4990    0.9759    0.0000 C   0  0  0  0  0  0  0  0  0  0  0  0
   -0.7845    1.3884    0.0000 O   0  0  0  0  0  0  0  0  0  0  0  0
   -0.0700    0.9759    0.0000 C   0  0  2  0  0  0  0  0  0  0  0  0
    0.6443    1.3884    0.0000 C   0  0  2  0  0  0  0  0  0  0  0  0
    0.6443    2.2134    0.0000 O   0  0  0  0  0  0  0  0  0  0  0  0
   -0.0700    2.6259    0.0000 C   0  0  0  0  0  0  0  0  0  0  0  0
   -0.7845    2.2134    0.0000 O   0  0  0  0  0  0  0  0  0  0  0  0
   -0.0700    3.4509    0.0000 C   0  0  0  0  0  0  0  0  0  0  0  0
   -0.7845    3.8634    0.0000 C   0  0  0  0  0  0  0  0  0  0  0  0
   -0.7845    4.6884    0.0000 C   0  0  0  0  0  0  0  0  0  0  0  0
    1.3588    0.9759    0.0000 C   0  0  2  0  0  0  0  0  0  0  0  0
    2.0733    1.3884    0.0000 O   0  0  0  0  0  0  0  0  0  0  0  0
    2.0733    2.2134    0.0000 P   0  0  0  0  0  0  0  0  0  0  0  0
    2.8983    2.2134    0.0000 O   0  0  0  0  0  0  0  0  0  0  0  0
    1.2483    2.2134    0.0000 O   0  0  0  0  0  0  0  0  0  0  0  0
    0.8358    2.9279    0.0000 C   0  0  0  0  0  0  0  0  0  0  0  0
    1.2483    3.6424    0.0000 O   0  0  0  0  0  0  0  0  0  0  0  0
    0.8358    4.3568    0.0000 C   0  0  0  0  0  0  0  0  0  0  0  0
    0.0108    4.3568    0.0000 O   0  0  0  0  0  0  0  0  0  0  0  0
    1.2483    5.0713    0.0000 C   0  0  0  0  0  0  0  0  0  0  0  0
    0.8358    5.7858    0.0000 C   0  0  0  0  0  0  0  0  0  0  0  0
    2.0733    3.0384    0.0000 O   0  0  0  0  0  0  0  0  0  0  0  0
    2.7878    3.4509    0.0000 C   0  0  0  0  0  0  0  0  0  0  0  0
    2.7878    4.2759    0.0000 O   0  0  0  0  0  0  0  0  0  0  0  0
    3.5022    4.6884    0.0000 C   0  0  0  0  0  0  0  0  0  0  0  0
    3.5022    5.5134    0.0000 O   0  0  0  0  0  0  0  0  0  0  0  0
    4.2167    4.2759    0.0000 C   0  0  0  0  0  0  0  0  0  0  0  0
    4.2167    3.4509    0.0000 C   0  0  0  0  0  0  0  0  0  0  0  0
    1.3588    0.1509    0.0000 C   0  0  1  0  0  0  0  0  0  0  0  0
    2.0733   -0.2615    0.0000 O   0  0  0  0  0  0  0  0  0  0  0  0
    2.7878    0.1509    0.0000 P   0  0  0  0  0  0  0  0  0  0  0  0
    2.3753    0.8654    0.0000 O   0  0  0  0  0  0  0  0  0  0  0  0
    3.2003   -0.5634    0.0000 O   0  0  0  0  0  0  0  0  0  0  0  0
    4.0253   -0.5634    0.0000 C   0  0  0  0  0  0  0  0  0  0  0  0
    4.4378   -1.2779    0.0000 O   0  0  0  0  0  0  0  0  0  0  0  0
    5.2628   -1.2779    0.0000 C   0  0  0  0  0  0  0  0  0  0  0  0
    5.6753   -0.5634    0.0000 O   0  0  0  0  0  0  0  0  0  0  0  0
    5.6753   -1.9924    0.0000 C   0  0  0  0  0  0  0  0  0  0  0  0
    6.5003   -1.9924    0.0000 C   0  0  0  0  0  0  0  0  0  0  0  0
    3.5022    0.5634    0.0000 O   0  0  0  0  0  0  0  0  0  0  0  0
    3.5022    1.3884    0.0000 C   0  0  0  0  0  0  0  0  0  0  0  0
    4.2167    1.8009    0.0000 O   0  0  0  0  0  0  0  0  0  0  0  0
    4.2167    2.6259    0.0000 C   0  0  0  0  0  0  0  0  0  0  0  0
    3.5022    3.0384    0.0000 O   0  0  0  0  0  0  0  0  0  0  0  0
    4.9311    3.0384    0.0000 C   0  0  0  0  0  0  0  0  0  0  0  0
    4.9311    3.8634    0.0000 C   0  0  0  0  0  0  0  0  0  0  0  0
    0.6443   -0.2615    0.0000 C   0  0  2  0  0  0  0  0  0  0  0  0
    0.6443   -1.0865    0.0000 O   0  0  0  0  0  0  0  0  0  0  0  0
    1.3588   -1.4990    0.0000 P   0  0  0  0  0  0  0  0  0  0  0  0
    1.7713   -0.7845    0.0000 O   0  0  0  0  0  0  0  0  0  0  0  0
    2.0733   -1.9115    0.0000 O   0  0  0  0  0  0  0  0  0  0  0  0
    2.0733   -2.7365    0.0000 C   0  0  0  0  0  0  0  0  0  0  0  0
    2.7878   -3.1490    0.0000 O   0  0  0  0  0  0  0  0  0  0  0  0
    2.7878   -3.9740    0.0000 C   0  0  0  0  0  0  0  0  0  0  0  0
    2.0733   -4.3865    0.0000 O   0  0  0  0  0  0  0  0  0  0  0  0
    3.5022   -4.3865    0.0000 C   0  0  0  0  0  0  0  0  0  0  0  0
    3.5022   -5.2115    0.0000 C   0  0  0  0  0  0  0  0  0  0  0  0
    0.9463   -2.2134    0.0000 O   0  0  0  0  0  0  0  0  0  0  0  0
    1.3588   -2.9279    0.0000 C   0  0  0  0  0  0  0  0  0  0  0  0
    0.9463   -3.6424    0.0000 O   0  0  0  0  0  0  0  0  0  0  0  0
    1.3588   -4.3568    0.0000 C   0  0  0  0  0  0  0  0  0  0  0  0
    2.0262   -4.8418    0.0000 O   0  0  0  0  0  0  0  0  0  0  0  0
    0.9463   -5.0713    0.0000 C   0  0  0  0  0  0  0  0  0  0  0  0
    1.3588   -5.7858    0.0000 C   0  0  0  0  0  0  0  0  0  0  0  0
   -0.0700    0.1509    0.0000 C   0  0  1  0  0  0  0  0  0  0  0  0
   -0.7845   -0.2615    0.0000 O   0  0  0  0  0  0  0  0  0  0  0  0
   -0.7845   -1.0865    0.0000 P   0  0  0  0  0  0  0  0  0  0  0  0
    0.0404   -1.0865    0.0000 O   0  0  0  0  0  0  0  0  0  0  0  0
   -0.7845   -1.9115    0.0000 O   0  0  0  0  0  0  0  0  0  0  0  0
   -1.4990   -2.3240    0.0000 C   0  0  0  0  0  0  0  0  0  0  0  0
   -1.4990   -3.1490    0.0000 O   0  0  0  0  0  0  0  0  0  0  0  0
   -2.2135   -3.5615    0.0000 C   0  0  0  0  0  0  0  0  0  0  0  0
   -2.9279   -3.1490    0.0000 O   0  0  0  0  0  0  0  0  0  0  0  0
   -2.2135   -4.3865    0.0000 C   0  0  0  0  0  0  0  0  0  0  0  0
   -2.9279   -4.7990    0.0000 C   0  0  0  0  0  0  0  0  0  0  0  0
   -1.6095   -1.0865    0.0000 O   0  0  0  0  0  0  0  0  0  0  0  0
   -2.0220   -0.3720    0.0000 C   0  0  0  0  0  0  0  0  0  0  0  0
   -2.8470   -0.3720    0.0000 O   0  0  0  0  0  0  0  0  0  0  0  0
   -3.2595   -1.0865    0.0000 C   0  0  0  0  0  0  0  0  0  0  0  0
   -2.8470   -1.8009    0.0000 O   0  0  0  0  0  0  0  0  0  0  0  0
   -4.0845   -1.0865    0.0000 C   0  0  0  0  0  0  0  0  0  0  0  0
   -4.4970   -1.8009    0.0000 C   0  0  0  0  0  0  0  0  0  0  0  0
   -6.5003    2.4584    0.0000 H   0  0  0  0  0  0  0  0  0  0  0  0
   -7.4269    0.8534    0.0000 H   0  0  0  0  0  0  0  0  0  0  0  0
   -7.4270    1.9234    0.0000 H   0  0  0  0  0  0  0  0  0  0  0  0
   -5.7858   -0.0941    0.0000 H   0  0  0  0  0  0  0  0  0  0  0  0
   -4.8592    0.4409    0.0000 H   0  0  0  0  0  0  0  0  0  0  0  0
   -5.0713    2.4584    0.0000 H   0  0  0  0  0  0  0  0  0  0  0  0
   -4.1446    1.9234    0.0000 H   0  0  0  0  0  0  0  0  0  0  0  0
   -4.3569   -0.0941    0.0000 H   0  0  0  0  0  0  0  0  0  0  0  0
   -3.4303    0.4409    0.0000 H   0  0  0  0  0  0  0  0  0  0  0  0
   -3.6424    2.4584    0.0000 H   0  0  0  0  0  0  0  0  0  0  0  0
   -2.7158    1.9234    0.0000 H   0  0  0  0  0  0  0  0  0  0  0  0
   -2.9279   -0.0941    0.0000 H   0  0  0  0  0  0  0  0  0  0  0  0
   -2.0012    0.4409    0.0000 H   0  0  0  0  0  0  0  0  0  0  0  0
   -2.2135    2.4584    0.0000 H   0  0  0  0  0  0  0  0  0  0  0  0
   -1.2869    1.9234    0.0000 H   0  0  0  0  0  0  0  0  0  0  0  0
   -1.4990   -0.0941    0.0000 H   0  0  0  0  0  0  0  0  0  0  0  0
   -0.5724    0.4409    0.0000 H   0  0  0  0  0  0  0  0  0  0  0  0
   -0.0701    2.0459    0.0000 H   0  0  0  0  0  0  0  0  0  0  0  0
   -0.2824    1.9234    0.0000 H   0  0  0  0  0  0  0  0  0  0  0  0
    0.8566    3.9859    0.0000 H   0  0  0  0  0  0  0  0  0  0  0  0
   -0.0700    4.5209    0.0000 H   0  0  0  0  0  0  0  0  0  0  0  0
   -1.7111    3.3284    0.0000 H   0  0  0  0  0  0  0  0  0  0  0  0
   -1.7111    4.3984    0.0000 H   0  0  0  0  0  0  0  0  0  0  0  0
    0.1421    5.2234    0.0000 H   0  0  0  0  0  0  0  0  0  0  0  0
   -1.7111    5.2234    0.0000 H   0  0  0  0  0  0  0  0  0  0  0  0
   -0.7845    5.7584    0.0000 H   0  0  0  0  0  0  0  0  0  0  0  0
    1.3588    2.0459    0.0000 H   0  0  0  0  0  0  0  0  0  0  0  0
   -0.2342    2.9279    0.0000 H   0  0  0  0  0  0  0  0  0  0  0  0
    0.3008    3.8545    0.0000 H   0  0  0  0  0  0  0  0  0  0  0  0
    2.3183    5.0713    0.0000 H   0  0  0  0  0  0  0  0  0  0  0  0
    1.7833    5.9979    0.0000 H   0  0  0  0  0  0  0  0  0  0  0  0
    1.3708    6.7124    0.0000 H   0  0  0  0  0  0  0  0  0  0  0  0
   -0.2342    5.7858    0.0000 H   0  0  0  0  0  0  0  0  0  0  0  0
    0.3008    6.7125    0.0000 H   0  0  0  0  0  0  0  0  0  0  0  0
    3.7144    2.9159    0.0000 H   0  0  0  0  0  0  0  0  0  0  0  0
    3.7144    3.9859    0.0000 H   0  0  0  0  0  0  0  0  0  0  0  0
    5.1433    4.8109    0.0000 H   0  0  0  0  0  0  0  0  0  0  0  0
    5.1433    3.7409    0.0000 H   0  0  0  0  0  0  0  0  0  0  0  0
    3.2901    2.9159    0.0000 H   0  0  0  0  0  0  0  0  0  0  0  0
    5.1433    2.9159    0.0000 H   0  0  0  0  0  0  0  0  0  0  0  0
    4.2167    2.3809    0.0000 H   0  0  0  0  0  0  0  0  0  0  0  0
    2.2854    0.6860    0.0000 H   0  0  0  0  0  0  0  0  0  0  0  0
    4.5603    0.3632    0.0000 H   0  0  0  0  0  0  0  0  0  0  0  0
    5.0953   -0.5634    0.0000 H   0  0  0  0  0  0  0  0  0  0  0  0
    5.1403   -2.9190    0.0000 H   0  0  0  0  0  0  0  0  0  0  0  0
    6.2103   -2.9190    0.0000 H   0  0  0  0  0  0  0  0  0  0  0  0
    7.0353   -2.9190    0.0000 H   0  0  0  0  0  0  0  0  0  0  0  0
    7.0353   -1.0658    0.0000 H   0  0  0  0  0  0  0  0  0  0  0  0
    7.5703   -1.9924    0.0000 H   0  0  0  0  0  0  0  0  0  0  0  0
    2.5756    1.9234    0.0000 H   0  0  0  0  0  0  0  0  0  0  0  0
    3.5022    2.4584    0.0000 H   0  0  0  0  0  0  0  0  0  0  0  0
    5.8578    2.5034    0.0000 H   0  0  0  0  0  0  0  0  0  0  0  0
    5.8577    3.5734    0.0000 H   0  0  0  0  0  0  0  0  0  0  0  0
    5.8577    4.3984    0.0000 H   0  0  0  0  0  0  0  0  0  0  0  0
    4.0045    4.3984    0.0000 H   0  0  0  0  0  0  0  0  0  0  0  0
    4.9311    4.9334    0.0000 H   0  0  0  0  0  0  0  0  0  0  0  0
    1.5709   -0.7966    0.0000 H   0  0  0  0  0  0  0  0  0  0  0  0
    1.1467   -3.2715    0.0000 H   0  0  0  0  0  0  0  0  0  0  0  0
    2.0733   -3.8065    0.0000 H   0  0  0  0  0  0  0  0  0  0  0  0
    4.4289   -3.8515    0.0000 H   0  0  0  0  0  0  0  0  0  0  0  0
    4.4288   -4.9215    0.0000 H   0  0  0  0  0  0  0  0  0  0  0  0
    2.5756   -5.7465    0.0000 H   0  0  0  0  0  0  0  0  0  0  0  0
    4.4288   -5.7465    0.0000 H   0  0  0  0  0  0  0  0  0  0  0  0
    3.5022   -6.2815    0.0000 H   0  0  0  0  0  0  0  0  0  0  0  0
    2.4288   -2.9279    0.0000 H   0  0  0  0  0  0  0  0  0  0  0  0
    1.8938   -3.8545    0.0000 H   0  0  0  0  0  0  0  0  0  0  0  0
   -0.1237   -5.0713    0.0000 H   0  0  0  0  0  0  0  0  0  0  0  0
    0.4113   -5.9979    0.0000 H   0  0  0  0  0  0  0  0  0  0  0  0
    0.8238   -6.7124    0.0000 H   0  0  0  0  0  0  0  0  0  0  0  0
    2.4288   -5.7858    0.0000 H   0  0  0  0  0  0  0  0  0  0  0  0
    1.8938   -6.7125    0.0000 H   0  0  0  0  0  0  0  0  0  0  0  0
   -0.0701   -0.9191    0.0000 H   0  0  0  0  0  0  0  0  0  0  0  0
   -2.4256   -1.7890    0.0000 H   0  0  0  0  0  0  0  0  0  0  0  0
   -2.4256   -2.8590    0.0000 H   0  0  0  0  0  0  0  0  0  0  0  0
   -1.2868   -4.9215    0.0000 H   0  0  0  0  0  0  0  0  0  0  0  0
   -2.2135   -5.4565    0.0000 H   0  0  0  0  0  0  0  0  0  0  0  0
   -3.8546   -4.2640    0.0000 H   0  0  0  0  0  0  0  0  0  0  0  0
   -2.9279   -5.8690    0.0000 H   0  0  0  0  0  0  0  0  0  0  0  0
   -3.8545   -5.3340    0.0000 H   0  0  0  0  0  0  0  0  0  0  0  0
   -1.4870    0.5546    0.0000 H   0  0  0  0  0  0  0  0  0  0  0  0
   -2.5570    0.5546    0.0000 H   0  0  0  0  0  0  0  0  0  0  0  0
   -4.6195   -0.1598    0.0000 H   0  0  0  0  0  0  0  0  0  0  0  0
   -5.1545   -1.0865    0.0000 H   0  0  0  0  0  0  0  0  0  0  0  0
   -5.5670   -1.8009    0.0000 H   0  0  0  0  0  0  0  0  0  0  0  0
   -3.9620   -2.7276    0.0000 H   0  0  0  0  0  0  0  0  0  0  0  0
   -5.0320   -2.7275    0.0000 H   0  0  0  0  0  0  0  0  0  0  0  0
  1  2  1  0  0  0  0
  1 90  1  0  0  0  0
  1 91  1  0  0  0  0
  1 92  1  0  0  0  0
  2  3  1  0  0  0  0
  2 93  1  0  0  0  0
  2 94  1  0  0  0  0
  3  4  1  0  0  0  0
  3 95  1  0  0  0  0
  3 96  1  0  0  0  0
  4  5  1  0  0  0  0
  4 97  1  0  0  0  0
  4 98  1  0  0  0  0
  5  6  1  0  0  0  0
  5 99  1  0  0  0  0
  5100  1  0  0  0  0
  6  7  1  0  0  0  0
  6101  1  0  0  0  0
  6102  1  0  0  0  0
  7  8  1  0  0  0  0
  7103  1  0  0  0  0
  7104  1  0  0  0  0
  8  9  1  0  0  0  0
  8105  1  0  0  0  0
  8106  1  0  0  0  0
 10  9  1  0  0  0  0
 10 11  1  0  0  0  0
 10 72  1  0  0  0  0
 10107  1  1  0  0  0
 11 12  1  0  0  0  0
 11 18  1  0  0  0  0
 11108  1  1  0  0  0
 12 13  1  0  0  0  0
 13 14  2  0  0  0  0
 13 15  1  0  0  0  0
 15 16  1  0  0  0  0
 15109  1  0  0  0  0
 15110  1  0  0  0  0
 16 17  1  0  0  0  0
 16111  1  0  0  0  0
 16112  1  0  0  0  0
 17113  1  0  0  0  0
 17114  1  0  0  0  0
 17115  1  0  0  0  0
 18 19  1  0  0  0  0
 18 36  1  0  0  0  0
 18116  1  1  0  0  0
 19 20  1  0  0  0  0
 20 21  2  0  0  0  0
 20 22  1  0  0  0  0
 20 29  1  0  0  0  0
 22 23  1  0  0  0  0
 23 24  1  0  0  0  0
 23117  1  0  0  0  0
 23118  1  0  0  0  0
 24 25  1  0  0  0  0
 25 26  2  0  0  0  0
 25 27  1  0  0  0  0
 27 28  1  0  0  0  0
 27119  1  0  0  0  0
 27120  1  0  0  0  0
 28121  1  0  0  0  0
 28122  1  0  0  0  0
 28123  1  0  0  0  0
 29 30  1  0  0  0  0
 30 31  1  0  0  0  0
 30124  1  0  0  0  0
 30125  1  0  0  0  0
 31 32  1  0  0  0  0
 32 33  2  0  0  0  0
 32 34  1  0  0  0  0
 34 35  1  0  0  0  0
 34126  1  0  0  0  0
 34127  1  0  0  0  0
 35128  1  0  0  0  0
 35129  1  0  0  0  0
 35130  1  0  0  0  0
 36 37  1  0  0  0  0
 36131  1  6  0  0  0
 37 38  1  0  0  0  0
 38 39  2  0  0  0  0
 38 40  1  0  0  0  0
 38 47  1  0  0  0  0
 40 41  1  0  0  0  0
 41 42  1  0  0  0  0
 41132  1  0  0  0  0
 41133  1  0  0  0  0
 42 43  1  0  0  0  0
 43 44  2  0  0  0  0
 43 45  1  0  0  0  0
 45 46  1  0  0  0  0
 45134  1  0  0  0  0
 45135  1  0  0  0  0
 46136  1  0  0  0  0
 46137  1  0  0  0  0
 46138  1  0  0  0  0
 47 48  1  0  0  0  0
 48 49  1  0  0  0  0
 48139  1  0  0  0  0
 48140  1  0  0  0  0
 49 50  1  0  0  0  0
 50 51  2  0  0  0  0
 50 52  1  0  0  0  0
 52 53  1  0  0  0  0
 52141  1  0  0  0  0
 52142  1  0  0  0  0
 53143  1  0  0  0  0
 53144  1  0  0  0  0
 53145  1  0  0  0  0
 54 36  1  0  0  0  0
 54 55  1  0  0  0  0
 54146  1  1  0  0  0
 55 56  1  0  0  0  0
 56 57  2  0  0  0  0
 56 58  1  0  0  0  0
 56 65  1  0  0  0  0
 58 59  1  0  0  0  0
 59 60  1  0  0  0  0
 59147  1  0  0  0  0
 59148  1  0  0  0  0
 60 61  1  0  0  0  0
 61 62  2  0  0  0  0
 61 63  1  0  0  0  0
 63 64  1  0  0  0  0
 63149  1  0  0  0  0
 63150  1  0  0  0  0
 64151  1  0  0  0  0
 64152  1  0  0  0  0
 64153  1  0  0  0  0
 65 66  1  0  0  0  0
 66 67  1  0  0  0  0
 66154  1  0  0  0  0
 66155  1  0  0  0  0
 67 68  1  0  0  0  0
 68 69  2  0  0  0  0
 68 70  1  0  0  0  0
 70 71  1  0  0  0  0
 70156  1  0  0  0  0
 70157  1  0  0  0  0
 71158  1  0  0  0  0
 71159  1  0  0  0  0
 71160  1  0  0  0  0
 72 54  1  0  0  0  0
 72 73  1  0  0  0  0
 72161  1  6  0  0  0
 73 74  1  0  0  0  0
 74 75  2  0  0  0  0
 74 76  1  0  0  0  0
 74 83  1  0  0  0  0
 76 77  1  0  0  0  0
 77 78  1  0  0  0  0
 77162  1  0  0  0  0
 77163  1  0  0  0  0
 78 79  1  0  0  0  0
 79 80  2  0  0  0  0
 79 81  1  0  0  0  0
 81 82  1  0  0  0  0
 81164  1  0  0  0  0
 81165  1  0  0  0  0
 82166  1  0  0  0  0
 82167  1  0  0  0  0
 82168  1  0  0  0  0
 83 84  1  0  0  0  0
 84 85  1  0  0  0  0
 84169  1  0  0  0  0
 84170  1  0  0  0  0
 85 86  1  0  0  0  0
 86 87  2  0  0  0  0
 86 88  1  0  0  0  0
 88 89  1  0  0  0  0
 88171  1  0  0  0  0
 88172  1  0  0  0  0
 89173  1  0  0  0  0
 89174  1  0  0  0  0
 89175  1  0  0  0  0
M  END
>  <DRUGBANK_ID>
DB17834

>  <COMMON_NAME>
INO-4995

>  <CAS_NUMBER>
868171-91-9

>  <UNII>
3LM5SX2N4X

>  <SYNONYMS>
2-O-butyryl-1-O-octyl-myo-Inositol 3,4,5,6-tetrakisphosphate octakis(propionoxymethyl)ester

$$$$
