
 OpenBabel10282417072D

 44 47  0  0  0  0  0  0  0  0999 V2000
    1.0515    1.5056    0.0000 C   0  0  0  0  0  0  0  0  0  0  0  0
    1.0515    0.6806    0.0000 C   0  0  1  0  0  0  0  0  0  0  0  0
    1.0515   -0.1443    0.0000 C   0  0  2  0  0  0  0  0  0  0  0  0
    0.3392   -0.5661    0.0000 C   0  0  1  0  0  0  0  0  0  0  0  0
   -0.3731   -0.1505    0.0000 C   0  0  2  0  0  0  0  0  0  0  0  0
   -0.3731    0.6806    0.0000 C   0  0  0  0  0  0  0  0  0  0  0  0
    0.3392    1.0962    0.0000 C   0  0  0  0  0  0  0  0  0  0  0  0
   -1.0876   -0.5661    0.0000 C   0  0  0  0  0  0  0  0  0  0  0  0
   -1.0876   -1.3973    0.0000 C   0  0  0  0  0  0  0  0  0  0  0  0
   -0.3731   -1.8129    0.0000 C   0  0  0  0  0  0  0  0  0  0  0  0
    0.3392   -1.3973    0.0000 C   0  0  0  0  0  0  0  0  0  0  0  0
   -1.8002   -1.8129    0.0000 C   0  0  0  0  0  0  0  0  0  0  0  0
   -2.5126   -1.3973    0.0000 C   0  0  0  0  0  0  0  0  0  0  0  0
   -2.5126   -0.5661    0.0000 C   0  0  0  0  0  0  0  0  0  0  0  0
   -1.8002   -0.1505    0.0000 C   0  0  0  0  0  0  0  0  0  0  0  0
   -3.2271   -1.8109    0.0000 O   0  0  0  0  0  0  0  0  0  0  0  0
   -0.3731   -0.9755    0.0000 H   0  0  0  0  0  0  0  0  0  0  0  0
    0.3392    0.2588    0.0000 H   0  0  0  0  0  0  0  0  0  0  0  0
    1.8362   -0.3992    0.0000 C   0  0  0  0  0  0  0  0  0  0  0  0
    2.3211    0.2681    0.0000 C   0  0  2  0  0  0  0  0  0  0  0  0
    1.8362    0.9355    0.0000 C   0  0  2  0  0  0  0  0  0  0  0  0
    2.0528    1.8129    0.0000 O   0  0  0  0  0  0  0  0  0  0  0  0
    3.2271    0.5372    0.0000 F   0  0  0  0  0  0  0  0  0  0  0  0
    1.0515   -0.9755    0.0000 H   0  0  0  0  0  0  0  0  0  0  0  0
    1.9781    2.0406    0.0000 H   0  0  0  0  0  0  0  0  0  0  0  0
    0.1249    2.0406    0.0000 H   0  0  0  0  0  0  0  0  0  0  0  0
    1.0515    2.5756    0.0000 H   0  0  0  0  0  0  0  0  0  0  0  0
   -1.3010    1.2135    0.0000 H   0  0  0  0  0  0  0  0  0  0  0  0
   -0.3768    1.7506    0.0000 H   0  0  0  0  0  0  0  0  0  0  0  0
    0.3392    2.1662    0.0000 H   0  0  0  0  0  0  0  0  0  0  0  0
   -0.5887    1.6291    0.0000 H   0  0  0  0  0  0  0  0  0  0  0  0
   -0.3724   -2.8829    0.0000 H   0  0  0  0  0  0  0  0  0  0  0  0
    0.5549   -2.3455    0.0000 H   0  0  0  0  0  0  0  0  0  0  0  0
    1.2671   -1.9302    0.0000 H   0  0  0  0  0  0  0  0  0  0  0  0
    0.3429   -2.4673    0.0000 H   0  0  0  0  0  0  0  0  0  0  0  0
   -1.8003   -2.8449    0.0000 H   0  0  0  0  0  0  0  0  0  0  0  0
   -3.4075   -0.0521    0.0000 H   0  0  0  0  0  0  0  0  0  0  0  0
   -1.8003    0.8815    0.0000 H   0  0  0  0  0  0  0  0  0  0  0  0
   -4.0391   -1.3433    0.0000 H   0  0  0  0  0  0  0  0  0  0  0  0
    2.1668   -1.4168    0.0000 H   0  0  0  0  0  0  0  0  0  0  0  0
    2.8930   -0.5666    0.0000 H   0  0  0  0  0  0  0  0  0  0  0  0
    2.9389   -0.6055    0.0000 H   0  0  0  0  0  0  0  0  0  0  0  0
    1.0528    1.6644    0.0000 H   0  0  0  0  0  0  0  0  0  0  0  0
    2.9846    2.0824    0.0000 H   0  0  0  0  0  0  0  0  0  0  0  0
  1 25  1  0  0  0  0
  1 26  1  0  0  0  0
  1 27  1  0  0  0  0
  2  1  1  1  0  0  0
  2  3  1  0  0  0  0
  2  7  1  0  0  0  0
  2 21  1  0  0  0  0
  3  4  1  0  0  0  0
  3 19  1  0  0  0  0
  3 24  1  6  0  0  0
  4  5  1  0  0  0  0
  4 11  1  0  0  0  0
  4 18  1  1  0  0  0
  5  8  1  0  0  0  0
  5 17  1  6  0  0  0
  6  5  1  0  0  0  0
  6 28  1  0  0  0  0
  6 29  1  0  0  0  0
  7  6  1  0  0  0  0
  7 30  1  0  0  0  0
  7 31  1  0  0  0  0
  8  9  2  0  0  0  0
  8 15  1  0  0  0  0
  9 12  1  0  0  0  0
 10  9  1  0  0  0  0
 10 32  1  0  0  0  0
 10 33  1  0  0  0  0
 11 10  1  0  0  0  0
 11 34  1  0  0  0  0
 11 35  1  0  0  0  0
 12 13  2  0  0  0  0
 12 36  1  0  0  0  0
 13 16  1  0  0  0  0
 14 13  1  0  0  0  0
 14 37  1  0  0  0  0
 15 14  2  0  0  0  0
 15 38  1  0  0  0  0
 16 39  1  0  0  0  0
 19 20  1  0  0  0  0
 19 40  1  0  0  0  0
 19 41  1  0  0  0  0
 20 23  1  0  0  0  0
 20 42  1  1  0  0  0
 21 20  1  0  0  0  0
 21 22  1  0  0  0  0
 21 43  1  6  0  0  0
 22 44  1  0  0  0  0
M  ISO  1  23  18
M  END
>  <DRUGBANK_ID>
DB15690

>  <COMMON_NAME>
Fluoroestradiol F-18

>  <CAS_NUMBER>
94153-53-4

>  <UNII>
T32277KB09

>  <SYNONYMS>
(18F)FES; 16-alpha-(18-Fluoro)-17betaestradiol; 16-alpha-(18F)Fluoro-17beta-estradiol; 16alpha-(18F)Fluoro-17beta-estradiol; F-18 16 alpha-Fluoroestradiol; F-18 Fes; Fes F-18

$$$$
