
 OpenBabel10282417072D

144143  0  0  0  0  0  0  0  0999 V2000
   -6.7875    2.2687    0.0000 C   0  0  0  0  0  0  0  0  0  0  0  0
    8.2164    0.2062    0.0000 C   0  0  0  0  0  0  0  0  0  0  0  0
    3.2151    1.4437    0.0000 C   0  0  0  0  0  0  0  0  0  0  0  0
   -0.3571   -1.4437    0.0000 C   0  0  0  0  0  0  0  0  0  0  0  0
   -1.0716    1.4437    0.0000 C   0  0  0  0  0  0  0  0  0  0  0  0
    7.5019   -0.2062    0.0000 C   0  0  0  0  0  0  0  0  0  0  0  0
    4.6441   -1.0312    0.0000 C   0  0  0  0  0  0  0  0  0  0  0  0
    2.5006    1.0312    0.0000 C   0  0  0  0  0  0  0  0  0  0  0  0
    0.3572   -1.0312    0.0000 C   0  0  0  0  0  0  0  0  0  0  0  0
   -1.7861    1.0312    0.0000 C   0  0  0  0  0  0  0  0  0  0  0  0
    8.9309   -0.2062    0.0000 C   0  0  0  0  0  0  0  0  0  0  0  0
    3.2151    2.2687    0.0000 C   0  0  0  0  0  0  0  0  0  0  0  0
   -0.3571   -2.2687    0.0000 C   0  0  0  0  0  0  0  0  0  0  0  0
   -1.0716    2.2687    0.0000 C   0  0  0  0  0  0  0  0  0  0  0  0
   -8.9309    0.2062    0.0000 C   0  0  0  0  0  0  0  0  0  0  0  0
   -6.7875   -0.2062    0.0000 C   0  0  0  0  0  0  0  0  0  0  0  0
   -6.7875    1.4437    0.0000 C   0  0  0  0  0  0  0  0  0  0  0  0
   -9.6454   -0.2062    0.0000 C   0  0  1  0  0  0  0  0  0  0  0  0
    6.7875    0.2062    0.0000 C   0  0  2  0  0  0  0  0  0  0  0  0
    4.6441   -0.2062    0.0000 C   0  0  2  0  0  0  0  0  0  0  0  0
    2.5006    0.2062    0.0000 C   0  0  2  0  0  0  0  0  0  0  0  0
    0.3572   -0.2062    0.0000 C   0  0  2  0  0  0  0  0  0  0  0  0
   -1.7861    0.2062    0.0000 C   0  0  2  0  0  0  0  0  0  0  0  0
   -6.0729    0.2062    0.0000 C   0  0  2  0  0  0  0  0  0  0  0  0
    6.7875    1.0312    0.0000 C   0  0  0  0  0  0  0  0  0  0  0  0
    5.3585    0.2062    0.0000 C   0  0  0  0  0  0  0  0  0  0  0  0
    3.2151   -0.2062    0.0000 C   0  0  0  0  0  0  0  0  0  0  0  0
    1.0717    0.2062    0.0000 C   0  0  0  0  0  0  0  0  0  0  0  0
   -1.0716   -0.2062    0.0000 C   0  0  0  0  0  0  0  0  0  0  0  0
   -5.3584   -0.2062    0.0000 C   0  0  0  0  0  0  0  0  0  0  0  0
  -10.3597    0.2062    0.0000 C   0  0  0  0  0  0  0  0  0  0  0  0
   10.3598   -0.2062    0.0000 C   0  0  0  0  0  0  0  0  0  0  0  0
    3.9296    3.5062    0.0000 C   0  0  0  0  0  0  0  0  0  0  0  0
   -1.0716   -3.5062    0.0000 C   0  0  0  0  0  0  0  0  0  0  0  0
   -0.3571    3.5062    0.0000 C   0  0  0  0  0  0  0  0  0  0  0  0
   -9.6454   -1.0312    0.0000 N   0  0  0  0  0  0  0  0  0  0  0  0
    6.0730    1.4437    0.0000 N   0  0  0  0  0  0  0  0  0  0  0  0
   11.0743    0.2062    0.0000 N   0  0  0  0  0  0  0  0  0  0  0  0
   10.3598   -1.0312    0.0000 N   0  0  0  0  0  0  0  0  0  0  0  0
    3.2151    3.9187    0.0000 N   0  0  0  0  0  0  0  0  0  0  0  0
    4.6441    3.9187    0.0000 N   0  0  0  0  0  0  0  0  0  0  0  0
   -0.3571   -3.9187    0.0000 N   0  0  0  0  0  0  0  0  0  0  0  0
   -1.7861   -3.9187    0.0000 N   0  0  0  0  0  0  0  0  0  0  0  0
   -1.0716    3.9187    0.0000 N   0  0  0  0  0  0  0  0  0  0  0  0
    0.3572    3.9187    0.0000 N   0  0  0  0  0  0  0  0  0  0  0  0
    9.6454    0.2062    0.0000 N   0  0  0  0  0  0  0  0  0  0  0  0
    3.9296    2.6812    0.0000 N   0  0  0  0  0  0  0  0  0  0  0  0
   -1.0716   -2.6812    0.0000 N   0  0  0  0  0  0  0  0  0  0  0  0
   -0.3571    2.6812    0.0000 N   0  0  0  0  0  0  0  0  0  0  0  0
   -6.0729    1.0312    0.0000 N   0  0  0  0  0  0  0  0  0  0  0  0
    6.0730   -0.2062    0.0000 N   0  0  0  0  0  0  0  0  0  0  0  0
    3.9296    0.2062    0.0000 N   0  0  0  0  0  0  0  0  0  0  0  0
    1.7862   -0.2062    0.0000 N   0  0  0  0  0  0  0  0  0  0  0  0
   -0.3571    0.2062    0.0000 N   0  0  0  0  0  0  0  0  0  0  0  0
   -4.6440    0.2062    0.0000 N   0  0  0  0  0  0  0  0  0  0  0  0
   -7.5020    1.0312    0.0000 O   0  0  0  0  0  0  0  0  0  0  0  0
    7.5019    1.4437    0.0000 O   0  0  0  0  0  0  0  0  0  0  0  0
    5.3585    1.0312    0.0000 O   0  0  0  0  0  0  0  0  0  0  0  0
    3.2151   -1.0312    0.0000 O   0  0  0  0  0  0  0  0  0  0  0  0
    1.0717    1.0312    0.0000 O   0  0  0  0  0  0  0  0  0  0  0  0
   -1.0716   -1.0312    0.0000 O   0  0  0  0  0  0  0  0  0  0  0  0
   -5.3584   -1.0312    0.0000 O   0  0  0  0  0  0  0  0  0  0  0  0
  -11.0743   -0.2062    0.0000 O   0  0  0  0  0  0  0  0  0  0  0  0
  -10.3597    1.0312    0.0000 O   0  0  0  0  0  0  0  0  0  0  0  0
   -8.2164   -0.2062    0.0000 S   0  0  0  0  0  0  0  0  0  0  0  0
   -7.5020    0.2062    0.0000 S   0  0  0  0  0  0  0  0  0  0  0  0
   -3.9295   -0.2062    0.0000 C   0  0  1  0  0  0  0  0  0  0  0  0
   -3.2150    0.2062    0.0000 C   0  0  0  0  0  0  0  0  0  0  0  0
   -3.9295   -1.0312    0.0000 C   0  0  0  0  0  0  0  0  0  0  0  0
   -2.5006   -0.2062    0.0000 N   0  0  0  0  0  0  0  0  0  0  0  0
   -3.2150    1.0312    0.0000 O   0  0  0  0  0  0  0  0  0  0  0  0
   -5.8609    2.8037    0.0000 H   0  0  0  0  0  0  0  0  0  0  0  0
   -7.7141    2.8037    0.0000 H   0  0  0  0  0  0  0  0  0  0  0  0
   -6.7875    3.3387    0.0000 H   0  0  0  0  0  0  0  0  0  0  0  0
    8.2164    1.2762    0.0000 H   0  0  0  0  0  0  0  0  0  0  0  0
    9.1430    0.7413    0.0000 H   0  0  0  0  0  0  0  0  0  0  0  0
    4.1417    0.9087    0.0000 H   0  0  0  0  0  0  0  0  0  0  0  0
    4.1417    1.9787    0.0000 H   0  0  0  0  0  0  0  0  0  0  0  0
   -1.2838   -0.9087    0.0000 H   0  0  0  0  0  0  0  0  0  0  0  0
   -1.2837   -1.9787    0.0000 H   0  0  0  0  0  0  0  0  0  0  0  0
   -0.1450    0.9087    0.0000 H   0  0  0  0  0  0  0  0  0  0  0  0
   -0.1450    1.9787    0.0000 H   0  0  0  0  0  0  0  0  0  0  0  0
    7.5019   -1.2762    0.0000 H   0  0  0  0  0  0  0  0  0  0  0  0
    6.5753   -0.7412    0.0000 H   0  0  0  0  0  0  0  0  0  0  0  0
    3.7175   -1.5662    0.0000 H   0  0  0  0  0  0  0  0  0  0  0  0
    5.5707   -1.5662    0.0000 H   0  0  0  0  0  0  0  0  0  0  0  0
    4.6441   -2.1012    0.0000 H   0  0  0  0  0  0  0  0  0  0  0  0
    1.5740    1.5662    0.0000 H   0  0  0  0  0  0  0  0  0  0  0  0
    1.5740    0.4962    0.0000 H   0  0  0  0  0  0  0  0  0  0  0  0
    1.2839   -1.5662    0.0000 H   0  0  0  0  0  0  0  0  0  0  0  0
    1.2838   -0.4962    0.0000 H   0  0  0  0  0  0  0  0  0  0  0  0
   -2.7127    1.5662    0.0000 H   0  0  0  0  0  0  0  0  0  0  0  0
   -2.7127    0.4962    0.0000 H   0  0  0  0  0  0  0  0  0  0  0  0
    8.9309   -1.2762    0.0000 H   0  0  0  0  0  0  0  0  0  0  0  0
    9.8575   -0.7413    0.0000 H   0  0  0  0  0  0  0  0  0  0  0  0
    2.2885    2.8037    0.0000 H   0  0  0  0  0  0  0  0  0  0  0  0
    3.2151    3.3387    0.0000 H   0  0  0  0  0  0  0  0  0  0  0  0
    0.5695   -2.8037    0.0000 H   0  0  0  0  0  0  0  0  0  0  0  0
   -0.3571   -3.3387    0.0000 H   0  0  0  0  0  0  0  0  0  0  0  0
   -1.9982    2.8037    0.0000 H   0  0  0  0  0  0  0  0  0  0  0  0
   -1.0716    3.3387    0.0000 H   0  0  0  0  0  0  0  0  0  0  0  0
   -8.9309    1.2762    0.0000 H   0  0  0  0  0  0  0  0  0  0  0  0
   -8.0043    0.7413    0.0000 H   0  0  0  0  0  0  0  0  0  0  0  0
   -6.7875   -1.2762    0.0000 H   0  0  0  0  0  0  0  0  0  0  0  0
   -7.7141   -0.7412    0.0000 H   0  0  0  0  0  0  0  0  0  0  0  0
   -8.7188   -0.7413    0.0000 H   0  0  0  0  0  0  0  0  0  0  0  0
    6.7875   -0.8638    0.0000 H   0  0  0  0  0  0  0  0  0  0  0  0
    3.7175   -0.7413    0.0000 H   0  0  0  0  0  0  0  0  0  0  0  0
    1.5740    0.7412    0.0000 H   0  0  0  0  0  0  0  0  0  0  0  0
   -0.5694   -0.7412    0.0000 H   0  0  0  0  0  0  0  0  0  0  0  0
   -0.8595    0.7413    0.0000 H   0  0  0  0  0  0  0  0  0  0  0  0
   -6.9995    0.7413    0.0000 H   0  0  0  0  0  0  0  0  0  0  0  0
  -10.5287   -1.5412    0.0000 H   0  0  0  0  0  0  0  0  0  0  0  0
   -8.7621   -1.5412    0.0000 H   0  0  0  0  0  0  0  0  0  0  0  0
    6.0730    2.4282    0.0000 H   0  0  0  0  0  0  0  0  0  0  0  0
    5.2204    0.9514    0.0000 H   0  0  0  0  0  0  0  0  0  0  0  0
   11.9268   -0.2862    0.0000 H   0  0  0  0  0  0  0  0  0  0  0  0
    9.5072   -1.5234    0.0000 H   0  0  0  0  0  0  0  0  0  0  0  0
   11.2124   -1.5234    0.0000 H   0  0  0  0  0  0  0  0  0  0  0  0
    3.2151    4.9032    0.0000 H   0  0  0  0  0  0  0  0  0  0  0  0
    5.4967    3.4264    0.0000 H   0  0  0  0  0  0  0  0  0  0  0  0
    4.6441    4.9032    0.0000 H   0  0  0  0  0  0  0  0  0  0  0  0
   -0.3571   -4.9032    0.0000 H   0  0  0  0  0  0  0  0  0  0  0  0
   -2.6387   -3.4264    0.0000 H   0  0  0  0  0  0  0  0  0  0  0  0
   -1.7861   -4.9032    0.0000 H   0  0  0  0  0  0  0  0  0  0  0  0
   -1.0716    4.9032    0.0000 H   0  0  0  0  0  0  0  0  0  0  0  0
    1.2099    3.4265    0.0000 H   0  0  0  0  0  0  0  0  0  0  0  0
    0.3571    4.9032    0.0000 H   0  0  0  0  0  0  0  0  0  0  0  0
    9.6454    1.1907    0.0000 H   0  0  0  0  0  0  0  0  0  0  0  0
    4.7822    2.1889    0.0000 H   0  0  0  0  0  0  0  0  0  0  0  0
   -1.9242   -2.1889    0.0000 H   0  0  0  0  0  0  0  0  0  0  0  0
    0.4955    2.1889    0.0000 H   0  0  0  0  0  0  0  0  0  0  0  0
   -5.2203    1.5235    0.0000 H   0  0  0  0  0  0  0  0  0  0  0  0
    6.0730   -1.1907    0.0000 H   0  0  0  0  0  0  0  0  0  0  0  0
    3.9296    1.1907    0.0000 H   0  0  0  0  0  0  0  0  0  0  0  0
    1.7862   -1.1907    0.0000 H   0  0  0  0  0  0  0  0  0  0  0  0
   -0.3570    1.1907    0.0000 H   0  0  0  0  0  0  0  0  0  0  0  0
   -4.6440    1.1907    0.0000 H   0  0  0  0  0  0  0  0  0  0  0  0
   -9.5482    1.4997    0.0000 H   0  0  0  0  0  0  0  0  0  0  0  0
   -4.8561   -0.7413    0.0000 H   0  0  0  0  0  0  0  0  0  0  0  0
   -4.8561   -1.5662    0.0000 H   0  0  0  0  0  0  0  0  0  0  0  0
   -3.0029   -1.5662    0.0000 H   0  0  0  0  0  0  0  0  0  0  0  0
   -3.9295   -2.1012    0.0000 H   0  0  0  0  0  0  0  0  0  0  0  0
   -2.5006   -1.1907    0.0000 H   0  0  0  0  0  0  0  0  0  0  0  0
  1 72  1  0  0  0  0
  1 73  1  0  0  0  0
  1 74  1  0  0  0  0
  2 75  1  0  0  0  0
  2 76  1  0  0  0  0
  3 77  1  0  0  0  0
  3 78  1  0  0  0  0
  4 79  1  0  0  0  0
  4 80  1  0  0  0  0
  5 81  1  0  0  0  0
  5 82  1  0  0  0  0
  6  2  1  0  0  0  0
  6 83  1  0  0  0  0
  6 84  1  0  0  0  0
  7 85  1  0  0  0  0
  7 86  1  0  0  0  0
  7 87  1  0  0  0  0
  8  3  1  0  0  0  0
  8 88  1  0  0  0  0
  8 89  1  0  0  0  0
  9  4  1  0  0  0  0
  9 90  1  0  0  0  0
  9 91  1  0  0  0  0
 10  5  1  0  0  0  0
 10 92  1  0  0  0  0
 10 93  1  0  0  0  0
 11  2  1  0  0  0  0
 11 94  1  0  0  0  0
 11 95  1  0  0  0  0
 12  3  1  0  0  0  0
 12 96  1  0  0  0  0
 12 97  1  0  0  0  0
 13  4  1  0  0  0  0
 13 98  1  0  0  0  0
 13 99  1  0  0  0  0
 14  5  1  0  0  0  0
 14100  1  0  0  0  0
 14101  1  0  0  0  0
 15102  1  0  0  0  0
 15103  1  0  0  0  0
 16104  1  0  0  0  0
 16105  1  0  0  0  0
 17  1  1  0  0  0  0
 18 15  1  0  0  0  0
 18 31  1  0  0  0  0
 18 36  1  0  0  0  0
 18106  1  1  0  0  0
 19  6  1  0  0  0  0
 19 25  1  0  0  0  0
 19 51  1  0  0  0  0
 19107  1  6  0  0  0
 20  7  1  0  0  0  0
 20 26  1  0  0  0  0
 20 52  1  0  0  0  0
 20108  1  6  0  0  0
 21  8  1  0  0  0  0
 21 27  1  0  0  0  0
 21 53  1  0  0  0  0
 21109  1  1  0  0  0
 22  9  1  0  0  0  0
 22 28  1  0  0  0  0
 22 54  1  0  0  0  0
 22110  1  6  0  0  0
 23 10  1  0  0  0  0
 23 29  1  0  0  0  0
 23111  1  1  0  0  0
 24 16  1  0  0  0  0
 24 30  1  0  0  0  0
 24 50  1  0  0  0  0
 24112  1  6  0  0  0
 26 58  2  0  0  0  0
 27 59  2  0  0  0  0
 28 60  2  0  0  0  0
 29 61  2  0  0  0  0
 30 62  2  0  0  0  0
 36113  1  0  0  0  0
 36114  1  0  0  0  0
 37 25  1  0  0  0  0
 37115  1  0  0  0  0
 37116  1  0  0  0  0
 38 32  2  0  0  0  0
 38117  1  0  0  0  0
 39 32  1  0  0  0  0
 39118  1  0  0  0  0
 39119  1  0  0  0  0
 40 33  2  0  0  0  0
 40120  1  0  0  0  0
 41 33  1  0  0  0  0
 41121  1  0  0  0  0
 41122  1  0  0  0  0
 42 34  2  0  0  0  0
 42123  1  0  0  0  0
 43 34  1  0  0  0  0
 43124  1  0  0  0  0
 43125  1  0  0  0  0
 44 35  2  0  0  0  0
 44126  1  0  0  0  0
 45 35  1  0  0  0  0
 45127  1  0  0  0  0
 45128  1  0  0  0  0
 46 11  1  0  0  0  0
 46 32  1  0  0  0  0
 46129  1  0  0  0  0
 47 12  1  0  0  0  0
 47 33  1  0  0  0  0
 47130  1  0  0  0  0
 48 13  1  0  0  0  0
 48 34  1  0  0  0  0
 48131  1  0  0  0  0
 49 14  1  0  0  0  0
 49 35  1  0  0  0  0
 49132  1  0  0  0  0
 50 17  1  0  0  0  0
 50133  1  0  0  0  0
 51 26  1  0  0  0  0
 51134  1  0  0  0  0
 52 27  1  0  0  0  0
 52135  1  0  0  0  0
 53 28  1  0  0  0  0
 53136  1  0  0  0  0
 54 29  1  0  0  0  0
 54137  1  0  0  0  0
 55 30  1  0  0  0  0
 55 67  1  0  0  0  0
 55138  1  0  0  0  0
 56 17  2  0  0  0  0
 57 25  2  0  0  0  0
 63 31  2  0  0  0  0
 64 31  1  0  0  0  0
 64139  1  0  0  0  0
 65 15  1  0  0  0  0
 66 16  1  0  0  0  0
 66 65  1  0  0  0  0
 67 68  1  0  0  0  0
 67 69  1  0  0  0  0
 67140  1  6  0  0  0
 68 70  1  0  0  0  0
 68 71  2  0  0  0  0
 69141  1  0  0  0  0
 69142  1  0  0  0  0
 69143  1  0  0  0  0
 70 23  1  0  0  0  0
 70144  1  0  0  0  0
M  END
>  <DRUGBANK_ID>
DB12865

>  <COMMON_NAME>
Etelcalcetide

>  <CAS_NUMBER>
1262780-97-1

>  <UNII>
60ME133FJB

>  <SYNONYMS>
Etelcalcetida; ételcalcétide; Etelcalcetide; Etelcalcetidum; Velcalcetide

$$$$
