
 OpenBabel10282417072D

 44 46  0  0  0  0  0  0  0  0999 V2000
    3.0709    1.0656    0.0000 O   0  0  0  0  0  0  0  0  0  0  0  0
   -0.9390    0.9742    0.0000 O   0  0  0  0  0  0  0  0  0  0  0  0
   -3.2031   -3.6923    0.0000 O   0  0  0  0  0  0  0  0  0  0  0  0
    2.5464    2.4390    0.0000 N   0  0  0  0  0  0  0  0  0  0  0  0
    0.4192    0.5303    0.0000 N   0  0  0  0  0  0  0  0  0  0  0  0
   -1.7079   -1.3783    0.0000 N   0  0  0  0  0  0  0  0  0  0  0  0
   -3.2031   -1.2172    0.0000 N   0  0  0  0  0  0  0  0  0  0  0  0
   -1.7079   -2.7062    0.0000 N   0  0  0  0  0  0  0  0  0  0  0  0
   -3.9176   -2.4548    0.0000 N   0  0  0  0  0  0  0  0  0  0  0  0
    2.8833    3.1922    0.0000 C   0  0  0  0  0  0  0  0  0  0  0  0
    3.7037    3.1045    0.0000 C   0  0  0  0  0  0  0  0  0  0  0  0
    1.7391    2.2689    0.0000 C   0  0  0  0  0  0  0  0  0  0  0  0
    3.8738    2.2972    0.0000 C   0  0  0  0  0  0  0  0  0  0  0  0
    3.1586    1.8859    0.0000 C   0  0  0  0  0  0  0  0  0  0  0  0
    1.4828    1.4847    0.0000 C   0  0  0  0  0  0  0  0  0  0  0  0
    0.6755    1.3146    0.0000 C   0  0  0  0  0  0  0  0  0  0  0  0
   -1.4516   -0.5941    0.0000 C   0  0  0  0  0  0  0  0  0  0  0  0
   -0.6443   -0.4239    0.0000 C   0  0  0  0  0  0  0  0  0  0  0  0
   -0.3880    0.3602    0.0000 C   0  0  0  0  0  0  0  0  0  0  0  0
   -2.4886   -1.6297    0.0000 C   0  0  0  0  0  0  0  0  0  0  0  0
   -2.4886   -2.4548    0.0000 C   0  0  0  0  0  0  0  0  0  0  0  0
   -1.2264   -2.0422    0.0000 C   0  0  0  0  0  0  0  0  0  0  0  0
   -3.2031   -2.8673    0.0000 C   0  0  0  0  0  0  0  0  0  0  0  0
   -3.9176   -1.6297    0.0000 C   0  0  0  0  0  0  0  0  0  0  0  0
    1.0767   -0.2025    0.0000 H   0  0  0  0  0  0  0  0  0  0  0  0
   -3.2031   -0.2327    0.0000 H   0  0  0  0  0  0  0  0  0  0  0  0
    2.3499    4.1198    0.0000 H   0  0  0  0  0  0  0  0  0  0  0  0
    3.4676    4.0885    0.0000 H   0  0  0  0  0  0  0  0  0  0  0  0
    4.4211    3.8984    0.0000 H   0  0  0  0  0  0  0  0  0  0  0  0
    4.7367    2.8257    0.0000 H   0  0  0  0  0  0  0  0  0  0  0  0
    1.0245    3.0653    0.0000 H   0  0  0  0  0  0  0  0  0  0  0  0
    0.6921    2.0483    0.0000 H   0  0  0  0  0  0  0  0  0  0  0  0
    4.8505    1.8603    0.0000 H   0  0  0  0  0  0  0  0  0  0  0  0
    3.9280    1.2286    0.0000 H   0  0  0  0  0  0  0  0  0  0  0  0
    2.1974    0.6883    0.0000 H   0  0  0  0  0  0  0  0  0  0  0  0
    1.1504    0.4677    0.0000 H   0  0  0  0  0  0  0  0  0  0  0  0
   -0.0391    2.1110    0.0000 H   0  0  0  0  0  0  0  0  0  0  0  0
    1.0079    2.3316    0.0000 H   0  0  0  0  0  0  0  0  0  0  0  0
   -2.1662    0.2023    0.0000 H   0  0  0  0  0  0  0  0  0  0  0  0
   -1.1192    0.4230    0.0000 H   0  0  0  0  0  0  0  0  0  0  0  0
    0.0703   -1.2203    0.0000 H   0  0  0  0  0  0  0  0  0  0  0  0
    0.4027   -0.2033    0.0000 H   0  0  0  0  0  0  0  0  0  0  0  0
   -0.1944   -2.0422    0.0000 H   0  0  0  0  0  0  0  0  0  0  0  0
   -4.8113   -1.1137    0.0000 H   0  0  0  0  0  0  0  0  0  0  0  0
  1 14  2  0  0  0  0
  2 19  2  0  0  0  0
  3 23  2  0  0  0  0
  4 10  1  0  0  0  0
  4 12  1  0  0  0  0
  4 14  1  0  0  0  0
  5 16  1  0  0  0  0
  5 19  1  0  0  0  0
  5 25  1  0  0  0  0
  6 17  1  0  0  0  0
  6 20  1  0  0  0  0
  6 22  1  0  0  0  0
  7 20  1  0  0  0  0
  7 24  1  0  0  0  0
  7 26  1  0  0  0  0
  8 21  1  0  0  0  0
  8 22  2  0  0  0  0
  9 23  1  0  0  0  0
  9 24  2  0  0  0  0
 10 11  1  0  0  0  0
 10 27  1  0  0  0  0
 10 28  1  0  0  0  0
 11 13  1  0  0  0  0
 11 29  1  0  0  0  0
 11 30  1  0  0  0  0
 12 15  1  0  0  0  0
 12 31  1  0  0  0  0
 12 32  1  0  0  0  0
 13 14  1  0  0  0  0
 13 33  1  0  0  0  0
 13 34  1  0  0  0  0
 15 16  1  0  0  0  0
 15 35  1  0  0  0  0
 15 36  1  0  0  0  0
 16 37  1  0  0  0  0
 16 38  1  0  0  0  0
 17 18  1  0  0  0  0
 17 39  1  0  0  0  0
 17 40  1  0  0  0  0
 18 19  1  0  0  0  0
 18 41  1  0  0  0  0
 18 42  1  0  0  0  0
 20 21  2  0  0  0  0
 21 23  1  0  0  0  0
 22 43  1  0  0  0  0
 24 44  1  0  0  0  0
M  END
>  <DRUGBANK_ID>
DB06106

>  <COMMON_NAME>
AIT-034

>  <CAS_NUMBER>
138117-48-3

>  <UNII>
5F3GZ8G54Z

$$$$
