
 OpenBabel10282417072D

 17 18  0  0  0  0  0  0  0  0999 V2000
    1.0770   -0.0028    0.0000 O   0  0  0  0  0  0  0  0  0  0  0  0
    0.3552    0.4153    0.0000 C   0  0  0  0  0  0  0  0  0  0  0  0
    1.0770   -0.8278    0.0000 C   0  0  0  0  0  0  0  0  0  0  0  0
   -0.3552   -0.0028    0.0000 C   0  0  0  0  0  0  0  0  0  0  0  0
    0.3552   -1.2403    0.0000 N   0  0  0  0  0  0  0  0  0  0  0  0
   -0.3552   -0.8278    0.0000 C   0  0  0  0  0  0  0  0  0  0  0  0
    0.3552    1.2403    0.0000 O   0  0  0  0  0  0  0  0  0  0  0  0
    1.7818   -1.2403    0.0000 O   0  0  0  0  0  0  0  0  0  0  0  0
   -1.0712    0.4096    0.0000 C   0  0  0  0  0  0  0  0  0  0  0  0
   -1.0712   -1.2403    0.0000 C   0  0  0  0  0  0  0  0  0  0  0  0
   -1.7818   -0.0028    0.0000 C   0  0  0  0  0  0  0  0  0  0  0  0
   -1.7818   -0.8278    0.0000 C   0  0  0  0  0  0  0  0  0  0  0  0
    0.3518   -2.2248    0.0000 H   0  0  0  0  0  0  0  0  0  0  0  0
   -1.0729    1.4416    0.0000 H   0  0  0  0  0  0  0  0  0  0  0  0
   -1.0729   -2.2723    0.0000 H   0  0  0  0  0  0  0  0  0  0  0  0
   -2.6761    0.5122    0.0000 H   0  0  0  0  0  0  0  0  0  0  0  0
   -2.6761   -1.3427    0.0000 H   0  0  0  0  0  0  0  0  0  0  0  0
  2  1  1  0  0  0  0
  3  1  1  0  0  0  0
  4  2  1  0  0  0  0
  4  6  1  0  0  0  0
  5  3  1  0  0  0  0
  5 13  1  0  0  0  0
  6  5  1  0  0  0  0
  7  2  2  0  0  0  0
  8  3  2  0  0  0  0
  9  4  2  0  0  0  0
  9 14  1  0  0  0  0
 10  6  2  0  0  0  0
 10 15  1  0  0  0  0
 11  9  1  0  0  0  0
 11 12  2  0  0  0  0
 11 16  1  0  0  0  0
 12 10  1  0  0  0  0
 12 17  1  0  0  0  0
M  END
>  <DRUGBANK_ID>
DB11593

>  <COMMON_NAME>
Isatoic anhydride

>  <CAS_NUMBER>
118-48-9

>  <UNII>
R8TFA74Y4U

>  <SYNONYMS>
1,2-dihydro-3,1-benzoxazine-2,4-dione; 1h-benz(d)(1,3)oxazine-2,4-dione; 2,4-dioxo-1,2-dihydro-4h-3,1-benzoxazine; 2h-3,1-benzoxazine-2,4(1h)-dione; 3,1-benzoxazine-2,4(1h)-dione; Isatoic acid anhydride; N-carboxyanthranilic anhydride

$$$$
