
 OpenBabel10282417072D

 18 19  0  0  0  0  0  0  0  0999 V2000
    1.0044    0.2933    0.0000 N   0  0  0  0  0  0  0  0  0  0  0  0
    1.0044    1.1183    0.0000 C   0  0  0  0  0  0  0  0  0  0  0  0
    0.2900    1.5308    0.0000 N   0  0  0  0  0  0  0  0  0  0  0  0
   -0.4244    1.1183    0.0000 C   0  0  0  0  0  0  0  0  0  0  0  0
   -0.4244    0.2933    0.0000 C   0  0  0  0  0  0  0  0  0  0  0  0
    0.2900   -0.1191    0.0000 C   0  0  0  0  0  0  0  0  0  0  0  0
    0.2900   -0.9441    0.0000 O   0  0  0  0  0  0  0  0  0  0  0  0
   -1.2090    0.0383    0.0000 C   0  0  0  0  0  0  0  0  0  0  0  0
   -1.4640   -0.7462    0.0000 C   0  0  0  0  0  0  0  0  0  0  0  0
   -1.7189   -1.5308    0.0000 N   0  0  0  0  0  0  0  0  0  0  0  0
   -1.6939    0.7058    0.0000 C   0  0  0  0  0  0  0  0  0  0  0  0
   -1.2090    1.3732    0.0000 N   0  0  0  0  0  0  0  0  0  0  0  0
    1.7189    1.5308    0.0000 N   0  0  0  0  0  0  0  0  0  0  0  0
    1.8570   -0.1990    0.0000 H   0  0  0  0  0  0  0  0  0  0  0  0
   -2.7259    0.7058    0.0000 H   0  0  0  0  0  0  0  0  0  0  0  0
   -1.5132    2.3095    0.0000 H   0  0  0  0  0  0  0  0  0  0  0  0
    2.5715    1.0385    0.0000 H   0  0  0  0  0  0  0  0  0  0  0  0
    1.7189    2.5153    0.0000 H   0  0  0  0  0  0  0  0  0  0  0  0
  1 14  1  0  0  0  0
  2  1  1  0  0  0  0
  2  3  2  0  0  0  0
  2 13  1  0  0  0  0
  4  3  1  0  0  0  0
  4  5  2  0  0  0  0
  4 12  1  0  0  0  0
  5  6  1  0  0  0  0
  5  8  1  0  0  0  0
  6  1  1  0  0  0  0
  6  7  2  0  0  0  0
  8 11  2  0  0  0  0
  9  8  1  0  0  0  0
  9 10  3  0  0  0  0
 11 12  1  0  0  0  0
 11 15  1  0  0  0  0
 12 16  1  0  0  0  0
 13 17  1  0  0  0  0
 13 18  1  0  0  0  0
M  END
>  <DRUGBANK_ID>
DB03074

>  <SECONDARY_ACCESSION_NUMBERS>
EXPT02651

>  <COMMON_NAME>
7-cyano-7-deazaguanine

>  <SYNONYMS>
7-CN-7-deazaG; 7-Cyano-7-carbaguanine

$$$$
