
 OpenBabel10282417072D

 49 52  0  0  0  0  0  0  0  0999 V2000
    2.1753   -0.1139    0.0000 N   0  0  0  0  0  0  0  0  0  0  0  0
    3.0003   -0.1164    0.0000 N   0  0  0  0  0  0  0  0  0  0  0  0
    3.2530   -0.9017    0.0000 C   0  0  0  0  0  0  0  0  0  0  0  0
    2.5842   -1.3846    0.0000 C   0  0  0  0  0  0  0  0  0  0  0  0
    1.9181   -0.8979    0.0000 N   0  0  0  0  0  0  0  0  0  0  0  0
    2.5818   -2.2096    0.0000 S   0  0  0  0  0  0  0  0  0  0  0  0
    1.8277   -2.5449    0.0000 C   0  0  0  0  0  0  0  0  0  0  0  0
    1.1603   -2.0599    0.0000 C   0  0  0  0  0  0  0  0  0  0  0  0
    0.4458   -2.4725    0.0000 C   0  0  0  0  0  0  0  0  0  0  0  0
   -0.2685   -2.0599    0.0000 N   0  0  0  0  0  0  0  0  0  0  0  0
   -0.2687   -1.2349    0.0000 C   0  0  2  0  0  0  0  0  0  0  0  0
    0.4458   -0.8225    0.0000 S   0  0  0  0  0  0  0  0  0  0  0  0
    1.1603   -1.2349    0.0000 C   0  0  0  0  0  0  0  0  0  0  0  0
    0.4458   -3.2975    0.0000 C   0  0  0  0  0  0  0  0  0  0  0  0
   -0.2685   -3.7100    0.0000 O   0  0  0  0  0  0  0  0  0  0  0  0
    1.1603   -3.7100    0.0000 O   0  0  0  0  0  0  0  0  0  0  0  0
   -1.0935   -2.0599    0.0000 C   0  0  0  0  0  0  0  0  0  0  0  0
   -1.0937   -1.2349    0.0000 C   0  0  1  0  0  0  0  0  0  0  0  0
   -1.6769   -2.6433    0.0000 O   0  0  0  0  0  0  0  0  0  0  0  0
   -1.8091   -0.8240    0.0000 N   0  0  0  0  0  0  0  0  0  0  0  0
   -1.8129    0.0009    0.0000 C   0  0  0  0  0  0  0  0  0  0  0  0
   -2.5292    0.4100    0.0000 C   0  0  2  0  0  0  0  0  0  0  0  0
   -1.1003    0.4165    0.0000 O   0  0  0  0  0  0  0  0  0  0  0  0
   -3.2418   -0.0056    0.0000 N   0  0  0  0  0  0  0  0  0  0  0  0
   -2.5329    1.2350    0.0000 C   0  0  0  0  0  0  0  0  0  0  0  0
   -1.8204    1.6507    0.0000 C   0  0  0  0  0  0  0  0  0  0  0  0
   -1.8241    2.4757    0.0000 C   0  0  0  0  0  0  0  0  0  0  0  0
   -2.5405    2.8850    0.0000 C   0  0  0  0  0  0  0  0  0  0  0  0
   -3.2530    2.4692    0.0000 C   0  0  0  0  0  0  0  0  0  0  0  0
   -3.2493    1.6443    0.0000 C   0  0  0  0  0  0  0  0  0  0  0  0
   -2.5442    3.7100    0.0000 O   0  0  0  0  0  0  0  0  0  0  0  0
   -0.2672   -0.4086    0.0000 H   0  0  0  0  0  0  0  0  0  0  0  0
   -1.0922   -0.4086    0.0000 H   0  0  0  0  0  0  0  0  0  0  0  0
    3.5813    0.6784    0.0000 H   0  0  0  0  0  0  0  0  0  0  0  0
    4.2336   -1.2234    0.0000 H   0  0  0  0  0  0  0  0  0  0  0  0
    1.7155   -3.6090    0.0000 H   0  0  0  0  0  0  0  0  0  0  0  0
    0.8501   -2.9799    0.0000 H   0  0  0  0  0  0  0  0  0  0  0  0
    2.0869   -0.6998    0.0000 H   0  0  0  0  0  0  0  0  0  0  0  0
    2.0870   -1.7699    0.0000 H   0  0  0  0  0  0  0  0  0  0  0  0
    1.1603   -4.6470    0.0000 H   0  0  0  0  0  0  0  0  0  0  0  0
   -2.6600   -1.3192    0.0000 H   0  0  0  0  0  0  0  0  0  0  0  0
   -2.5243   -0.6600    0.0000 H   0  0  0  0  0  0  0  0  0  0  0  0
   -4.1274    0.5005    0.0000 H   0  0  0  0  0  0  0  0  0  0  0  0
   -3.2373   -1.0256    0.0000 H   0  0  0  0  0  0  0  0  0  0  0  0
   -0.9243    1.1387    0.0000 H   0  0  0  0  0  0  0  0  0  0  0  0
   -0.9327    2.9957    0.0000 H   0  0  0  0  0  0  0  0  0  0  0  0
   -4.1491    2.9811    0.0000 H   0  0  0  0  0  0  0  0  0  0  0  0
   -4.1407    1.1243    0.0000 H   0  0  0  0  0  0  0  0  0  0  0  0
   -1.7348    4.1821    0.0000 H   0  0  0  0  0  0  0  0  0  0  0  0
  1  2  1  0  0  0  0
  2  3  1  0  0  0  0
  2 34  1  0  0  0  0
  3  4  2  0  0  0  0
  3 35  1  0  0  0  0
  4  5  1  0  0  0  0
  4  6  1  0  0  0  0
  5  1  2  0  0  0  0
  6  7  1  0  0  0  0
  7  8  1  0  0  0  0
  7 36  1  0  0  0  0
  7 37  1  0  0  0  0
  8  9  2  0  0  0  0
  9 10  1  0  0  0  0
  9 14  1  0  0  0  0
 10 11  1  0  0  0  0
 10 17  1  0  0  0  0
 11 12  1  0  0  0  0
 11 18  1  0  0  0  0
 11 32  1  6  0  0  0
 12 13  1  0  0  0  0
 13  8  1  0  0  0  0
 13 38  1  0  0  0  0
 13 39  1  0  0  0  0
 14 15  2  0  0  0  0
 14 16  1  0  0  0  0
 16 40  1  0  0  0  0
 17 19  2  0  0  0  0
 18 17  1  0  0  0  0
 18 20  1  0  0  0  0
 18 33  1  6  0  0  0
 20 21  1  0  0  0  0
 20 41  1  0  0  0  0
 21 22  1  0  0  0  0
 21 23  2  0  0  0  0
 22 24  1  0  0  0  0
 22 25  1  0  0  0  0
 22 42  1  1  0  0  0
 24 43  1  0  0  0  0
 24 44  1  0  0  0  0
 25 26  1  0  0  0  0
 26 27  2  0  0  0  0
 26 45  1  0  0  0  0
 27 28  1  0  0  0  0
 27 46  1  0  0  0  0
 28 29  2  0  0  0  0
 28 31  1  0  0  0  0
 29 30  1  0  0  0  0
 29 47  1  0  0  0  0
 30 25  2  0  0  0  0
 30 48  1  0  0  0  0
 31 49  1  0  0  0  0
M  END
>  <DRUGBANK_ID>
DB13266

>  <COMMON_NAME>
Cefatrizine

>  <CAS_NUMBER>
51627-14-6

>  <UNII>
8P4W949T8K

>  <SYNONYMS>
cefatrizina; cÃ©fatrizine; Cefatrizine; cefatrizinum

$$$$
