
 OpenBabel10282417072D

186188  0  0  1  0  0  0  0  0999 V2000
   -7.7909   -0.5403    0.0000 C   0  0  0  0  0  0  0  0  0  0  0  0
   -7.9570    0.2678    0.0000 C   0  0  1  0  0  0  0  0  0  0  0  0
   -8.7777    0.1844    0.0000 C   0  0  1  0  0  0  0  0  0  0  0  0
   -9.5985    0.2678    0.0000 C   0  0  0  0  0  0  0  0  0  0  0  0
   -9.7646   -0.5403    0.0000 O   0  0  0  0  0  0  0  0  0  0  0  0
  -10.3857    0.5148    0.0000 N   0  0  0  0  0  0  0  0  0  0  0  0
  -10.3717   -0.3101    0.0000 C   0  0  0  0  0  0  0  0  0  0  0  0
  -11.0791   -0.7346    0.0000 C   0  0  0  0  0  0  0  0  0  0  0  0
  -11.8005   -0.3342    0.0000 C   0  0  0  0  0  0  0  0  0  0  0  0
  -11.8144    0.4907    0.0000 C   0  0  0  0  0  0  0  0  0  0  0  0
  -11.1070    0.9152    0.0000 C   0  0  2  0  0  0  0  0  0  0  0  0
  -11.7330    1.4526    0.0000 C   0  0  0  0  0  0  0  0  0  0  0  0
  -12.3309    0.8842    0.0000 O   0  0  0  0  0  0  0  0  0  0  0  0
  -12.2380    2.1050    0.0000 N   0  0  0  0  0  0  0  0  0  0  0  0
  -12.6013    2.8457    0.0000 C   0  0  2  0  0  0  0  0  0  0  0  0
  -12.8081    3.6443    0.0000 C   0  0  0  0  0  0  0  0  0  0  0  0
  -13.6236    3.5194    0.0000 O   0  0  0  0  0  0  0  0  0  0  0  0
  -12.8499    4.4683    0.0000 N   0  0  0  0  0  0  0  0  0  0  0  0
  -12.7249    5.2838    0.0000 C   0  0  2  0  0  0  0  0  0  0  0  0
  -12.4384    6.0574    0.0000 C   0  0  0  0  0  0  0  0  0  0  0  0
  -13.1791    6.4207    0.0000 O   0  0  0  0  0  0  0  0  0  0  0  0
  -12.0020    6.7575    0.0000 N   0  0  0  0  0  0  0  0  0  0  0  0
  -11.4336    7.3555    0.0000 C   0  0  0  0  0  0  0  0  0  0  0  0
  -10.7565    7.8268    0.0000 C   0  0  0  0  0  0  0  0  0  0  0  0
  -11.1569    8.5481    0.0000 O   0  0  0  0  0  0  0  0  0  0  0  0
   -9.9984    8.1521    0.0000 N   0  0  0  0  0  0  0  0  0  0  0  0
   -9.1902    8.3182    0.0000 C   0  0  2  0  0  0  0  0  0  0  0  0
   -8.3652    8.3182    0.0000 C   0  0  0  0  0  0  0  0  0  0  0  0
   -8.2818    9.1390    0.0000 O   0  0  0  0  0  0  0  0  0  0  0  0
   -7.5571    8.1521    0.0000 N   0  0  0  0  0  0  0  0  0  0  0  0
   -6.7990    7.8268    0.0000 C   0  0  0  0  0  0  0  0  0  0  0  0
   -6.1219    7.3555    0.0000 C   0  0  0  0  0  0  0  0  0  0  0  0
   -5.5845    7.9815    0.0000 O   0  0  0  0  0  0  0  0  0  0  0  0
   -5.5535    6.7575    0.0000 N   0  0  0  0  0  0  0  0  0  0  0  0
   -5.1171    6.0574    0.0000 C   0  0  1  0  0  0  0  0  0  0  0  0
   -4.8305    5.2838    0.0000 C   0  0  0  0  0  0  0  0  0  0  0  0
   -4.0319    5.4905    0.0000 O   0  0  0  0  0  0  0  0  0  0  0  0
   -4.7056    4.4683    0.0000 N   0  0  0  0  0  0  0  0  0  0  0  0
   -4.7474    3.6443    0.0000 C   0  0  2  0  0  0  0  0  0  0  0  0
   -4.9542    2.8457    0.0000 C   0  0  0  0  0  0  0  0  0  0  0  0
   -4.1805    2.5591    0.0000 O   0  0  0  0  0  0  0  0  0  0  0  0
   -5.3175    2.1050    0.0000 N   0  0  0  0  0  0  0  0  0  0  0  0
   -4.5410    1.8263    0.0000 C   0  0  0  0  0  0  0  0  0  0  0  0
   -4.5661    1.0017    0.0000 C   0  0  0  0  0  0  0  0  0  0  0  0
   -5.3581    0.7707    0.0000 C   0  0  0  0  0  0  0  0  0  0  0  0
   -5.8225    1.4526    0.0000 C   0  0  1  0  0  0  0  0  0  0  0  0
   -6.4485    0.9152    0.0000 C   0  0  0  0  0  0  0  0  0  0  0  0
   -5.9772    0.2381    0.0000 O   0  0  0  0  0  0  0  0  0  0  0  0
   -7.1698    0.5148    0.0000 N   0  0  0  0  0  0  0  0  0  0  0  0
   -3.9319    3.5194    0.0000 C   0  0  0  0  0  0  0  0  0  0  0  0
   -3.6324    2.7507    0.0000 C   0  0  0  0  0  0  0  0  0  0  0  0
   -3.4160    4.1632    0.0000 C   0  0  0  0  0  0  0  0  0  0  0  0
   -4.3764    6.4207    0.0000 C   0  0  1  0  0  0  0  0  0  0  0  0
   -3.6914    5.9609    0.0000 C   0  0  0  0  0  0  0  0  0  0  0  0
   -4.3207    7.2438    0.0000 N   0  0  0  0  0  0  0  0  0  0  0  0
   -9.2737    9.1390    0.0000 C   0  0  0  0  0  0  0  0  0  0  0  0
  -10.0262    9.4771    0.0000 C   0  0  0  0  0  0  0  0  0  0  0  0
  -10.6953    8.9944    0.0000 O   0  0  0  0  0  0  0  0  0  0  0  0
  -10.1097   10.2978    0.0000 O   0  0  0  0  0  0  0  0  0  0  0  0
  -13.5236    5.4905    0.0000 C   0  0  0  0  0  0  0  0  0  0  0  0
  -14.1020    4.9023    0.0000 C   0  0  0  0  0  0  0  0  0  0  0  0
  -13.8818    4.1072    0.0000 O   0  0  0  0  0  0  0  0  0  0  0  0
  -14.9007    5.1091    0.0000 O   0  0  0  0  0  0  0  0  0  0  0  0
  -13.3749    2.5591    0.0000 C   0  0  2  0  0  0  0  0  0  0  0  0
  -14.0099    3.0859    0.0000 C   0  0  0  0  0  0  0  0  0  0  0  0
  -13.5136    1.7459    0.0000 C   0  0  0  0  0  0  0  0  0  0  0  0
  -12.8787    1.2191    0.0000 O   0  0  0  0  0  0  0  0  0  0  0  0
  -14.2873    1.4593    0.0000 O   0  0  0  0  0  0  0  0  0  0  0  0
   -8.7777   -0.6406    0.0000 N   0  0  0  0  0  0  0  0  0  0  0  0
   -8.0633   -1.0531    0.0000 C   0  0  0  0  0  0  0  0  0  0  0  0
   -7.3488   -0.6406    0.0000 O   0  0  0  0  0  0  0  0  0  0  0  0
   -8.0633   -1.8781    0.0000 C   0  0  2  0  0  0  0  0  0  0  0  0
   -8.7777   -2.2906    0.0000 C   0  0  0  0  0  0  0  0  0  0  0  0
   -8.7777   -3.1156    0.0000 C   0  0  0  0  0  0  0  0  0  0  0  0
   -8.0633   -3.5281    0.0000 O   0  0  0  0  0  0  0  0  0  0  0  0
   -9.4922   -3.5281    0.0000 N   0  0  0  0  0  0  0  0  0  0  0  0
   -7.3488   -2.2906    0.0000 N   0  0  0  0  0  0  0  0  0  0  0  0
   -7.3488   -3.1156    0.0000 C   0  0  0  0  0  0  0  0  0  0  0  0
   -7.6844   -3.8693    0.0000 O   0  0  0  0  0  0  0  0  0  0  0  0
   -6.6343   -3.5281    0.0000 C   0  0  0  0  0  0  0  0  0  0  0  0
   -6.6343   -4.3531    0.0000 C   0  0  0  0  0  0  0  0  0  0  0  0
   -5.9199   -4.7656    0.0000 C   0  0  0  0  0  0  0  0  0  0  0  0
   -5.2054   -4.3531    0.0000 C   0  0  0  0  0  0  0  0  0  0  0  0
   -4.4909   -4.7656    0.0000 C   0  0  0  0  0  0  0  0  0  0  0  0
   -3.7764   -4.3531    0.0000 C   0  0  0  0  0  0  0  0  0  0  0  0
   -3.0620   -4.7656    0.0000 C   0  0  0  0  0  0  0  0  0  0  0  0
   -2.3475   -4.3531    0.0000 C   0  0  0  0  0  0  0  0  0  0  0  0
   -1.6330   -4.7656    0.0000 C   0  0  0  0  0  0  0  0  0  0  0  0
   -0.9186   -4.3531    0.0000 C   0  0  0  0  0  0  0  0  0  0  0  0
   -0.2041   -4.7656    0.0000 C   0  0  0  0  0  0  0  0  0  0  0  0
    0.5104   -4.3531    0.0000 C   0  0  0  0  0  0  0  0  0  0  0  0
   -0.2041   -5.5906    0.0000 C   0  0  0  0  0  0  0  0  0  0  0  0
   -8.5909   -1.2509    0.0000 H   0  0  0  0  0  0  0  0  0  0  0  0
   -6.7755   -0.8778    0.0000 H   0  0  0  0  0  0  0  0  0  0  0  0
   -7.5755   -1.5884    0.0000 H   0  0  0  0  0  0  0  0  0  0  0  0
   -8.5903   -0.5946    0.0000 H   0  0  0  0  0  0  0  0  0  0  0  0
   -7.9838   -0.5329    0.0000 H   0  0  0  0  0  0  0  0  0  0  0  0
   -9.4361   -0.8293    0.0000 H   0  0  0  0  0  0  0  0  0  0  0  0
  -10.3536   -1.3799    0.0000 H   0  0  0  0  0  0  0  0  0  0  0  0
  -11.0610   -1.8044    0.0000 H   0  0  0  0  0  0  0  0  0  0  0  0
  -11.9966   -1.2852    0.0000 H   0  0  0  0  0  0  0  0  0  0  0  0
  -12.7180   -0.8848    0.0000 H   0  0  0  0  0  0  0  0  0  0  0  0
  -12.7360    0.1851    0.0000 H   0  0  0  0  0  0  0  0  0  0  0  0
  -12.7499    1.0100    0.0000 H   0  0  0  0  0  0  0  0  0  0  0  0
  -11.8325    1.5605    0.0000 H   0  0  0  0  0  0  0  0  0  0  0  0
  -11.0890   -0.1546    0.0000 H   0  0  0  0  0  0  0  0  0  0  0  0
  -13.0735    1.5842    0.0000 H   0  0  0  0  0  0  0  0  0  0  0  0
  -12.9982    1.8520    0.0000 H   0  0  0  0  0  0  0  0  0  0  0  0
  -13.8331    4.5182    0.0000 H   0  0  0  0  0  0  0  0  0  0  0  0
  -13.6183    4.6950    0.0000 H   0  0  0  0  0  0  0  0  0  0  0  0
  -12.7805    7.3601    0.0000 H   0  0  0  0  0  0  0  0  0  0  0  0
  -12.1306    8.1674    0.0000 H   0  0  0  0  0  0  0  0  0  0  0  0
  -11.2984    8.4169    0.0000 H   0  0  0  0  0  0  0  0  0  0  0  0
  -10.2931    9.0915    0.0000 H   0  0  0  0  0  0  0  0  0  0  0  0
  -10.0527    8.9515    0.0000 H   0  0  0  0  0  0  0  0  0  0  0  0
   -7.2624    9.0914    0.0000 H   0  0  0  0  0  0  0  0  0  0  0  0
   -6.2797    8.7624    0.0000 H   0  0  0  0  0  0  0  0  0  0  0  0
   -5.7567    8.0687    0.0000 H   0  0  0  0  0  0  0  0  0  0  0  0
   -4.7750    7.3601    0.0000 H   0  0  0  0  0  0  0  0  0  0  0  0
   -4.8227    7.0861    0.0000 H   0  0  0  0  0  0  0  0  0  0  0  0
   -3.7224    4.5181    0.0000 H   0  0  0  0  0  0  0  0  0  0  0  0
   -3.9181    4.3205    0.0000 H   0  0  0  0  0  0  0  0  0  0  0  0
   -3.6566    2.4286    0.0000 H   0  0  0  0  0  0  0  0  0  0  0  0
   -3.6028    1.3117    0.0000 H   0  0  0  0  0  0  0  0  0  0  0  0
   -3.7200    0.3468    0.0000 H   0  0  0  0  0  0  0  0  0  0  0  0
   -4.7655   -0.0496    0.0000 H   0  0  0  0  0  0  0  0  0  0  0  0
   -5.7195   -0.2364    0.0000 H   0  0  0  0  0  0  0  0  0  0  0  0
   -6.4195    0.6355    0.0000 H   0  0  0  0  0  0  0  0  0  0  0  0
   -4.7530    1.4201    0.0000 H   0  0  0  0  0  0  0  0  0  0  0  0
   -6.7815   -0.3899    0.0000 H   0  0  0  0  0  0  0  0  0  0  0  0
   -2.8742    3.3574    0.0000 H   0  0  0  0  0  0  0  0  0  0  0  0
   -4.3016    1.9158    0.0000 H   0  0  0  0  0  0  0  0  0  0  0  0
   -2.5747    2.5886    0.0000 H   0  0  0  0  0  0  0  0  0  0  0  0
   -3.2440    1.7537    0.0000 H   0  0  0  0  0  0  0  0  0  0  0  0
   -2.3583    4.0012    0.0000 H   0  0  0  0  0  0  0  0  0  0  0  0
   -3.8046    5.1602    0.0000 H   0  0  0  0  0  0  0  0  0  0  0  0
   -2.7469    4.9982    0.0000 H   0  0  0  0  0  0  0  0  0  0  0  0
   -4.4487    5.3531    0.0000 H   0  0  0  0  0  0  0  0  0  0  0  0
   -3.7636    4.8933    0.0000 H   0  0  0  0  0  0  0  0  0  0  0  0
   -2.7307    6.4321    0.0000 H   0  0  0  0  0  0  0  0  0  0  0  0
   -2.8030    5.3646    0.0000 H   0  0  0  0  0  0  0  0  0  0  0  0
   -3.4049    7.6930    0.0000 H   0  0  0  0  0  0  0  0  0  0  0  0
   -5.1676    7.8123    0.0000 H   0  0  0  0  0  0  0  0  0  0  0  0
   -8.4059    9.7650    0.0000 H   0  0  0  0  0  0  0  0  0  0  0  0
   -9.3819   10.2035    0.0000 H   0  0  0  0  0  0  0  0  0  0  0  0
   -9.3498   10.8460    0.0000 H   0  0  0  0  0  0  0  0  0  0  0  0
  -13.8093    6.5217    0.0000 H   0  0  0  0  0  0  0  0  0  0  0  0
  -14.5594    5.7587    0.0000 H   0  0  0  0  0  0  0  0  0  0  0  0
  -15.1508    6.0121    0.0000 H   0  0  0  0  0  0  0  0  0  0  0  0
  -14.3783    2.1875    0.0000 H   0  0  0  0  0  0  0  0  0  0  0  0
  -13.8300    4.1407    0.0000 H   0  0  0  0  0  0  0  0  0  0  0  0
  -15.0133    2.7143    0.0000 H   0  0  0  0  0  0  0  0  0  0  0  0
  -14.8334    3.7691    0.0000 H   0  0  0  0  0  0  0  0  0  0  0  0
  -15.0085    2.0575    0.0000 H   0  0  0  0  0  0  0  0  0  0  0  0
   -9.6303   -1.1328    0.0000 H   0  0  0  0  0  0  0  0  0  0  0  0
   -7.1367   -1.3431    0.0000 H   0  0  0  0  0  0  0  0  0  0  0  0
   -9.7044   -1.7556    0.0000 H   0  0  0  0  0  0  0  0  0  0  0  0
   -9.7043   -2.8256    0.0000 H   0  0  0  0  0  0  0  0  0  0  0  0
  -10.3448   -3.0358    0.0000 H   0  0  0  0  0  0  0  0  0  0  0  0
   -9.4922   -4.5126    0.0000 H   0  0  0  0  0  0  0  0  0  0  0  0
   -6.4962   -1.7983    0.0000 H   0  0  0  0  0  0  0  0  0  0  0  0
   -5.7077   -2.9931    0.0000 H   0  0  0  0  0  0  0  0  0  0  0  0
   -5.7077   -4.0631    0.0000 H   0  0  0  0  0  0  0  0  0  0  0  0
   -7.5280   -4.8691    0.0000 H   0  0  0  0  0  0  0  0  0  0  0  0
   -5.9199   -5.7976    0.0000 H   0  0  0  0  0  0  0  0  0  0  0  0
   -5.2054   -3.2831    0.0000 H   0  0  0  0  0  0  0  0  0  0  0  0
   -4.2788   -3.8181    0.0000 H   0  0  0  0  0  0  0  0  0  0  0  0
   -4.4909   -5.8356    0.0000 H   0  0  0  0  0  0  0  0  0  0  0  0
   -3.5643   -5.3006    0.0000 H   0  0  0  0  0  0  0  0  0  0  0  0
   -3.7764   -3.2831    0.0000 H   0  0  0  0  0  0  0  0  0  0  0  0
   -2.8497   -3.8181    0.0000 H   0  0  0  0  0  0  0  0  0  0  0  0
   -3.0620   -5.8356    0.0000 H   0  0  0  0  0  0  0  0  0  0  0  0
   -2.1354   -5.3006    0.0000 H   0  0  0  0  0  0  0  0  0  0  0  0
   -2.3475   -3.2831    0.0000 H   0  0  0  0  0  0  0  0  0  0  0  0
   -1.4209   -3.8181    0.0000 H   0  0  0  0  0  0  0  0  0  0  0  0
   -1.6330   -5.8356    0.0000 H   0  0  0  0  0  0  0  0  0  0  0  0
   -0.7063   -5.3006    0.0000 H   0  0  0  0  0  0  0  0  0  0  0  0
   -0.9186   -3.2831    0.0000 H   0  0  0  0  0  0  0  0  0  0  0  0
    0.0080   -3.8181    0.0000 H   0  0  0  0  0  0  0  0  0  0  0  0
    0.7225   -5.3006    0.0000 H   0  0  0  0  0  0  0  0  0  0  0  0
    1.4370   -4.8881    0.0000 H   0  0  0  0  0  0  0  0  0  0  0  0
    0.5104   -3.2831    0.0000 H   0  0  0  0  0  0  0  0  0  0  0  0
    1.4371   -3.8181    0.0000 H   0  0  0  0  0  0  0  0  0  0  0  0
   -1.1307   -6.1256    0.0000 H   0  0  0  0  0  0  0  0  0  0  0  0
    0.7225   -6.1256    0.0000 H   0  0  0  0  0  0  0  0  0  0  0  0
   -0.2041   -6.6606    0.0000 H   0  0  0  0  0  0  0  0  0  0  0  0
  1 93  1  0  0  0  0
  1 94  1  0  0  0  0
  1 95  1  0  0  0  0
  2  1  1  0  0  0  0
  2  3  1  0  0  0  0
  2 49  1  0  0  0  0
  2 96  1  6  0  0  0
  3  4  1  0  0  0  0
  3 69  1  0  0  0  0
  3 97  1  1  0  0  0
  4  5  2  0  0  0  0
  4  6  1  0  0  0  0
  6  7  1  0  0  0  0
  7  8  1  0  0  0  0
  7 98  1  0  0  0  0
  7 99  1  0  0  0  0
  8  9  1  0  0  0  0
  8100  1  0  0  0  0
  8101  1  0  0  0  0
  9 10  1  0  0  0  0
  9102  1  0  0  0  0
  9103  1  0  0  0  0
 10 11  1  0  0  0  0
 10104  1  0  0  0  0
 10105  1  0  0  0  0
 11  6  1  0  0  0  0
 11 12  1  0  0  0  0
 11106  1  1  0  0  0
 12 13  2  0  0  0  0
 12 14  1  0  0  0  0
 14 15  1  0  0  0  0
 14107  1  0  0  0  0
 15 16  1  0  0  0  0
 15 64  1  0  0  0  0
 15108  1  6  0  0  0
 16 17  2  0  0  0  0
 16 18  1  0  0  0  0
 18 19  1  0  0  0  0
 18109  1  0  0  0  0
 19 20  1  0  0  0  0
 19 60  1  0  0  0  0
 19110  1  6  0  0  0
 20 21  2  0  0  0  0
 20 22  1  0  0  0  0
 22 23  1  0  0  0  0
 22111  1  0  0  0  0
 23 24  1  0  0  0  0
 23112  1  0  0  0  0
 23113  1  0  0  0  0
 24 25  2  0  0  0  0
 24 26  1  0  0  0  0
 26 27  1  0  0  0  0
 26114  1  0  0  0  0
 27 28  1  0  0  0  0
 27 56  1  0  0  0  0
 27115  1  6  0  0  0
 28 29  2  0  0  0  0
 28 30  1  0  0  0  0
 30 31  1  0  0  0  0
 30116  1  0  0  0  0
 31 32  1  0  0  0  0
 31117  1  0  0  0  0
 31118  1  0  0  0  0
 32 33  2  0  0  0  0
 32 34  1  0  0  0  0
 34 35  1  0  0  0  0
 34119  1  0  0  0  0
 35 36  1  0  0  0  0
 35 53  1  0  0  0  0
 35120  1  1  0  0  0
 36 37  2  0  0  0  0
 36 38  1  0  0  0  0
 38 39  1  0  0  0  0
 38121  1  0  0  0  0
 39 40  1  0  0  0  0
 39 50  1  0  0  0  0
 39122  1  6  0  0  0
 40 41  2  0  0  0  0
 40 42  1  0  0  0  0
 42 43  1  0  0  0  0
 43 44  1  0  0  0  0
 43123  1  0  0  0  0
 43124  1  0  0  0  0
 44 45  1  0  0  0  0
 44125  1  0  0  0  0
 44126  1  0  0  0  0
 45 46  1  0  0  0  0
 45127  1  0  0  0  0
 45128  1  0  0  0  0
 46 42  1  0  0  0  0
 46 47  1  0  0  0  0
 46129  1  6  0  0  0
 47 48  2  0  0  0  0
 47 49  1  0  0  0  0
 49130  1  0  0  0  0
 50 51  1  0  0  0  0
 50 52  1  0  0  0  0
 50131  1  0  0  0  0
 51132  1  0  0  0  0
 51133  1  0  0  0  0
 51134  1  0  0  0  0
 52135  1  0  0  0  0
 52136  1  0  0  0  0
 52137  1  0  0  0  0
 53 54  1  0  0  0  0
 53 55  1  0  0  0  0
 53138  1  1  0  0  0
 54139  1  0  0  0  0
 54140  1  0  0  0  0
 54141  1  0  0  0  0
 55142  1  0  0  0  0
 55143  1  0  0  0  0
 56 57  1  0  0  0  0
 56144  1  0  0  0  0
 56145  1  0  0  0  0
 57 58  2  0  0  0  0
 57 59  1  0  0  0  0
 59146  1  0  0  0  0
 60 61  1  0  0  0  0
 60147  1  0  0  0  0
 60148  1  0  0  0  0
 61 62  2  0  0  0  0
 61 63  1  0  0  0  0
 63149  1  0  0  0  0
 64 65  1  0  0  0  0
 64 66  1  0  0  0  0
 64150  1  6  0  0  0
 65151  1  0  0  0  0
 65152  1  0  0  0  0
 65153  1  0  0  0  0
 66 67  2  0  0  0  0
 66 68  1  0  0  0  0
 68154  1  0  0  0  0
 69 70  1  0  0  0  0
 69155  1  0  0  0  0
 70 71  2  0  0  0  0
 70 72  1  0  0  0  0
 72 73  1  0  0  0  0
 72 77  1  0  0  0  0
 72156  1  6  0  0  0
 73 74  1  0  0  0  0
 73157  1  0  0  0  0
 73158  1  0  0  0  0
 74 75  2  0  0  0  0
 74 76  1  0  0  0  0
 76159  1  0  0  0  0
 76160  1  0  0  0  0
 77 78  1  0  0  0  0
 77161  1  0  0  0  0
 78 79  2  0  0  0  0
 78 80  1  0  0  0  0
 80 81  1  0  0  0  0
 80162  1  0  0  0  0
 80163  1  0  0  0  0
 81 82  2  0  0  0  0
 81164  1  0  0  0  0
 82 83  1  0  0  0  0
 82165  1  0  0  0  0
 83 84  1  0  0  0  0
 83166  1  0  0  0  0
 83167  1  0  0  0  0
 84 85  1  0  0  0  0
 84168  1  0  0  0  0
 84169  1  0  0  0  0
 85 86  1  0  0  0  0
 85170  1  0  0  0  0
 85171  1  0  0  0  0
 86 87  1  0  0  0  0
 86172  1  0  0  0  0
 86173  1  0  0  0  0
 87 88  1  0  0  0  0
 87174  1  0  0  0  0
 87175  1  0  0  0  0
 88 89  1  0  0  0  0
 88176  1  0  0  0  0
 88177  1  0  0  0  0
 89 90  1  0  0  0  0
 89178  1  0  0  0  0
 89179  1  0  0  0  0
 90 91  1  0  0  0  0
 90 92  1  0  0  0  0
 90180  1  0  0  0  0
 91181  1  0  0  0  0
 91182  1  0  0  0  0
 91183  1  0  0  0  0
 92184  1  0  0  0  0
 92185  1  0  0  0  0
 92186  1  0  0  0  0
M  END
>  <DRUGBANK_ID>
DB06087

>  <COMMON_NAME>
Friulimicin B

>  <CAS_NUMBER>
239802-15-4

>  <UNII>
AYO43961I1

>  <SYNONYMS>
Friulimycin B

$$$$
