
 OpenBabel10282417072D

 40 43  0  0  0  0  0  0  0  0999 V2000
    1.6500   -3.3000    0.0000 Cl  0  0  0  0  0  0  0  0  0  0  0  0
    4.5079   -1.6500    0.0000 N   0  0  0  0  0  0  0  0  0  0  0  0
    3.7934    0.4125    0.0000 N   0  0  0  0  0  0  0  0  0  0  0  0
    3.7934   -0.4125    0.0000 N   0  0  0  0  0  0  0  0  0  0  0  0
    2.3644    2.8875    0.0000 N   0  0  0  0  0  0  0  0  0  0  0  0
    5.2223    0.4125    0.0000 C   0  0  0  0  0  0  0  0  0  0  0  0
    5.2223   -0.4125    0.0000 C   0  0  0  0  0  0  0  0  0  0  0  0
    4.5079    0.8250    0.0000 C   0  0  0  0  0  0  0  0  0  0  0  0
    4.5079    1.6500    0.0000 C   0  0  0  0  0  0  0  0  0  0  0  0
    4.5079   -0.8250    0.0000 C   0  0  0  0  0  0  0  0  0  0  0  0
    5.9599    0.8536    0.0000 C   0  0  0  0  0  0  0  0  0  0  0  0
    3.7934    2.0625    0.0000 C   0  0  0  0  0  0  0  0  0  0  0  0
    5.9599   -0.8536    0.0000 C   0  0  0  0  0  0  0  0  0  0  0  0
    6.7073    0.4297    0.0000 C   0  0  0  0  0  0  0  0  0  0  0  0
    6.7073   -0.4297    0.0000 C   0  0  0  0  0  0  0  0  0  0  0  0
    3.7934   -2.0625    0.0000 C   0  0  0  0  0  0  0  0  0  0  0  0
    3.0790    1.6500    0.0000 C   0  0  0  0  0  0  0  0  0  0  0  0
    3.7934    2.8875    0.0000 C   0  0  0  0  0  0  0  0  0  0  0  0
    3.7934   -2.8875    0.0000 C   0  0  0  0  0  0  0  0  0  0  0  0
    3.0790   -1.6500    0.0000 C   0  0  0  0  0  0  0  0  0  0  0  0
    2.3644    2.0625    0.0000 C   0  0  0  0  0  0  0  0  0  0  0  0
    3.0790    3.3000    0.0000 C   0  0  0  0  0  0  0  0  0  0  0  0
    3.0790   -3.3000    0.0000 C   0  0  0  0  0  0  0  0  0  0  0  0
    2.3644   -2.0625    0.0000 C   0  0  0  0  0  0  0  0  0  0  0  0
    2.3644   -2.8875    0.0000 C   0  0  0  0  0  0  0  0  0  0  0  0
    5.3605   -2.1423    0.0000 H   0  0  0  0  0  0  0  0  0  0  0  0
    5.4345    2.1850    0.0000 H   0  0  0  0  0  0  0  0  0  0  0  0
    4.5079    2.7200    0.0000 H   0  0  0  0  0  0  0  0  0  0  0  0
    5.9480    1.8855    0.0000 H   0  0  0  0  0  0  0  0  0  0  0  0
    5.9480   -1.8855    0.0000 H   0  0  0  0  0  0  0  0  0  0  0  0
    7.5991    0.9491    0.0000 H   0  0  0  0  0  0  0  0  0  0  0  0
    7.5991   -0.9491    0.0000 H   0  0  0  0  0  0  0  0  0  0  0  0
    3.0791    0.6180    0.0000 H   0  0  0  0  0  0  0  0  0  0  0  0
    4.6871    3.4035    0.0000 H   0  0  0  0  0  0  0  0  0  0  0  0
    4.6871   -3.4035    0.0000 H   0  0  0  0  0  0  0  0  0  0  0  0
    3.0791   -0.6180    0.0000 H   0  0  0  0  0  0  0  0  0  0  0  0
    1.4707    1.5465    0.0000 H   0  0  0  0  0  0  0  0  0  0  0  0
    3.0791    4.3320    0.0000 H   0  0  0  0  0  0  0  0  0  0  0  0
    3.0791   -4.3320    0.0000 H   0  0  0  0  0  0  0  0  0  0  0  0
    1.4707   -1.5465    0.0000 H   0  0  0  0  0  0  0  0  0  0  0  0
  1 25  1  0  0  0  0
  2 10  1  0  0  0  0
  2 16  1  0  0  0  0
  2 26  1  0  0  0  0
  3  4  1  0  0  0  0
  3  8  2  0  0  0  0
  4 10  2  0  0  0  0
  5 21  2  0  0  0  0
  5 22  1  0  0  0  0
  6  7  1  0  0  0  0
  6  8  1  0  0  0  0
  6 11  2  0  0  0  0
  7 10  1  0  0  0  0
  7 13  2  0  0  0  0
  8  9  1  0  0  0  0
  9 12  1  0  0  0  0
  9 27  1  0  0  0  0
  9 28  1  0  0  0  0
 11 14  1  0  0  0  0
 11 29  1  0  0  0  0
 12 17  2  0  0  0  0
 12 18  1  0  0  0  0
 13 15  1  0  0  0  0
 13 30  1  0  0  0  0
 14 15  2  0  0  0  0
 14 31  1  0  0  0  0
 15 32  1  0  0  0  0
 16 19  2  0  0  0  0
 16 20  1  0  0  0  0
 17 21  1  0  0  0  0
 17 33  1  0  0  0  0
 18 22  2  0  0  0  0
 18 34  1  0  0  0  0
 19 23  1  0  0  0  0
 19 35  1  0  0  0  0
 20 24  2  0  0  0  0
 20 36  1  0  0  0  0
 21 37  1  0  0  0  0
 22 38  1  0  0  0  0
 23 25  2  0  0  0  0
 23 39  1  0  0  0  0
 24 25  1  0  0  0  0
 24 40  1  0  0  0  0
M  END
>  <DRUGBANK_ID>
DB04879

>  <COMMON_NAME>
Vatalanib

>  <CAS_NUMBER>
212141-54-3

>  <UNII>
5DX9U76296

>  <SYNONYMS>
Vatalanib; Vatalinib

$$$$
