
 OpenBabel10282417072D

 37 40  0  0  0  0  0  0  0  0999 V2000
   -2.1450   -0.8250    0.0000 C   0  0  0  0  0  0  0  0  0  0  0  0
   -2.1450    0.0000    0.0000 C   0  0  0  0  0  0  0  0  0  0  0  0
   -1.4437    0.4125    0.0000 C   0  0  0  0  0  0  0  0  0  0  0  0
   -0.7012    0.0000    0.0000 C   0  0  0  0  0  0  0  0  0  0  0  0
   -0.7012   -0.8250    0.0000 C   0  0  0  0  0  0  0  0  0  0  0  0
   -1.4437   -1.2375    0.0000 C   0  0  0  0  0  0  0  0  0  0  0  0
    0.0000    0.4125    0.0000 C   0  0  3  0  0  0  0  0  0  0  0  0
    0.7012    0.0000    0.0000 C   0  0  3  0  0  0  0  0  0  0  0  0
    0.7012   -0.8250    0.0000 C   0  0  3  0  0  0  0  0  0  0  0  0
    0.0000   -1.2375    0.0000 O   0  0  0  0  0  0  0  0  0  0  0  0
    1.4437    0.4125    0.0000 C   0  0  0  0  0  0  0  0  0  0  0  0
    2.1450    0.0000    0.0000 N   0  0  0  0  0  0  0  0  0  0  0  0
    2.1450   -0.8250    0.0000 C   0  0  0  0  0  0  0  0  0  0  0  0
    1.4437   -1.2375    0.0000 C   0  0  0  0  0  0  0  0  0  0  0  0
    2.8462    0.4125    0.0000 C   0  0  0  0  0  0  0  0  0  0  0  0
   -2.8462    0.4125    0.0000 Cl  0  0  0  0  0  0  0  0  0  0  0  0
    0.0000    1.2375    0.0000 C   0  0  0  0  0  0  0  0  0  0  0  0
    0.1518   -0.4125    0.0000 N   0  0  0  0  0  0  0  0  0  0  0  0
    0.7144    0.8250    0.0000 C   0  0  0  0  0  0  0  0  0  0  0  0
    1.4998    1.0321    0.0000 O   0  0  0  0  0  0  0  0  0  0  0  0
   -3.0408   -1.3374    0.0000 H   0  0  0  0  0  0  0  0  0  0  0  0
   -1.4564    1.4444    0.0000 H   0  0  0  0  0  0  0  0  0  0  0  0
   -1.4564   -2.2694    0.0000 H   0  0  0  0  0  0  0  0  0  0  0  0
    0.0000   -0.6575    0.0000 H   0  0  0  0  0  0  0  0  0  0  0  0
   -0.2276   -0.5312    0.0000 H   0  0  0  0  0  0  0  0  0  0  0  0
    1.4569    1.4824    0.0000 H   0  0  0  0  0  0  0  0  0  0  0  0
    2.3758    0.9380    0.0000 H   0  0  0  0  0  0  0  0  0  0  0  0
    3.0738   -1.3562    0.0000 H   0  0  0  0  0  0  0  0  0  0  0  0
    2.1515   -1.8950    0.0000 H   0  0  0  0  0  0  0  0  0  0  0  0
    1.4569   -2.3074    0.0000 H   0  0  0  0  0  0  0  0  0  0  0  0
    0.5249   -1.7858    0.0000 H   0  0  0  0  0  0  0  0  0  0  0  0
    3.7772   -0.1149    0.0000 H   0  0  0  0  0  0  0  0  0  0  0  0
    2.8375    1.4825    0.0000 H   0  0  0  0  0  0  0  0  0  0  0  0
    3.7685    0.9550    0.0000 H   0  0  0  0  0  0  0  0  0  0  0  0
   -0.5350    2.1642    0.0000 H   0  0  0  0  0  0  0  0  0  0  0  0
    0.7566    1.9941    0.0000 H   0  0  0  0  0  0  0  0  0  0  0  0
   -0.8021   -0.6561    0.0000 H   0  0  0  0  0  0  0  0  0  0  0  0
  1  2  2  0  0  0  0
  1  6  1  0  0  0  0
  1 21  1  0  0  0  0
  2  3  1  0  0  0  0
  2 16  1  0  0  0  0
  3  4  2  0  0  0  0
  3 22  1  0  0  0  0
  4  5  1  0  0  0  0
  4  7  1  0  0  0  0
  5  6  2  0  0  0  0
  5 10  1  0  0  0  0
  6 23  1  0  0  0  0
  7  8  1  0  0  0  0
  7 17  1  0  0  0  0
  7 24  1  0  0  0  0
  8  9  1  0  0  0  0
  8 11  1  0  0  0  0
  8 25  1  0  0  0  0
  9 10  1  0  0  0  0
  9 14  1  0  0  0  0
  9 18  1  0  0  0  0
 11 12  1  0  0  0  0
 11 26  1  0  0  0  0
 11 27  1  0  0  0  0
 12 13  1  0  0  0  0
 12 15  1  0  0  0  0
 13 14  1  0  0  0  0
 13 28  1  0  0  0  0
 13 29  1  0  0  0  0
 14 30  1  0  0  0  0
 14 31  1  0  0  0  0
 15 32  1  0  0  0  0
 15 33  1  0  0  0  0
 15 34  1  0  0  0  0
 17 19  1  0  0  0  0
 17 35  1  0  0  0  0
 17 36  1  0  0  0  0
 18 37  1  0  0  0  0
 19 18  1  0  0  0  0
 19 20  2  0  0  0  0
M  END
>  <DRUGBANK_ID>
DB09187

>  <COMMON_NAME>
Lortalamine

>  <CAS_NUMBER>
70384-91-7

>  <UNII>
9GIR4SV22T

>  <SYNONYMS>
Lortalamine

$$$$
