
 OpenBabel10282417072D

 63 62  0  0  0  0  0  0  0  0999 V2000
    1.4289   -0.8250    0.0000 O   0  0  0  0  0  0  0  0  0  0  0  0
    0.7144    0.4125    0.0000 C   0  0  3  0  0  0  0  0  0  0  0  0
    0.0000    0.8250    0.0000 C   0  0  0  0  0  0  0  0  0  0  0  0
    1.4289    0.8250    0.0000 C   0  0  0  0  0  0  0  0  0  0  0  0
    0.7144   -0.4125    0.0000 C   0  0  0  0  0  0  0  0  0  0  0  0
   -0.7145    0.4125    0.0000 C   0  0  0  0  0  0  0  0  0  0  0  0
    2.1433    0.4125    0.0000 C   0  0  0  0  0  0  0  0  0  0  0  0
   -1.4289    0.8250    0.0000 C   0  0  0  0  0  0  0  0  0  0  0  0
    2.8578    0.8250    0.0000 C   0  0  0  0  0  0  0  0  0  0  0  0
   -2.1434    0.4125    0.0000 C   0  0  0  0  0  0  0  0  0  0  0  0
    3.5723    0.4125    0.0000 C   0  0  0  0  0  0  0  0  0  0  0  0
   -2.8579    0.8250    0.0000 C   0  0  0  0  0  0  0  0  0  0  0  0
   -3.5723    0.4125    0.0000 C   0  0  0  0  0  0  0  0  0  0  0  0
    4.2867    0.8250    0.0000 C   0  0  0  0  0  0  0  0  0  0  0  0
   -4.2868    0.8250    0.0000 C   0  0  0  0  0  0  0  0  0  0  0  0
    5.0012    0.4125    0.0000 C   0  0  0  0  0  0  0  0  0  0  0  0
   -5.0013    0.4125    0.0000 C   0  0  0  0  0  0  0  0  0  0  0  0
    5.7157    0.8250    0.0000 C   0  0  0  0  0  0  0  0  0  0  0  0
   -5.7158    0.8250    0.0000 C   0  0  0  0  0  0  0  0  0  0  0  0
    6.4302    0.4125    0.0000 C   0  0  0  0  0  0  0  0  0  0  0  0
   -6.4302    0.4125    0.0000 C   0  0  0  0  0  0  0  0  0  0  0  0
    1.4289   -1.7950    0.0000 H   0  0  0  0  0  0  0  0  0  0  0  0
    0.7144    1.4825    0.0000 H   0  0  0  0  0  0  0  0  0  0  0  0
    0.0000    1.8950    0.0000 H   0  0  0  0  0  0  0  0  0  0  0  0
   -0.9266    1.3600    0.0000 H   0  0  0  0  0  0  0  0  0  0  0  0
    1.4289    1.8950    0.0000 H   0  0  0  0  0  0  0  0  0  0  0  0
    2.3556    1.3600    0.0000 H   0  0  0  0  0  0  0  0  0  0  0  0
   -0.2122   -0.9475    0.0000 H   0  0  0  0  0  0  0  0  0  0  0  0
   -0.2122    0.1225    0.0000 H   0  0  0  0  0  0  0  0  0  0  0  0
   -0.7145   -0.6575    0.0000 H   0  0  0  0  0  0  0  0  0  0  0  0
   -1.6412   -0.1225    0.0000 H   0  0  0  0  0  0  0  0  0  0  0  0
    2.1433   -0.6575    0.0000 H   0  0  0  0  0  0  0  0  0  0  0  0
    3.0699   -0.1225    0.0000 H   0  0  0  0  0  0  0  0  0  0  0  0
   -1.4289    1.8950    0.0000 H   0  0  0  0  0  0  0  0  0  0  0  0
   -2.3555    1.3600    0.0000 H   0  0  0  0  0  0  0  0  0  0  0  0
    2.8578    1.8950    0.0000 H   0  0  0  0  0  0  0  0  0  0  0  0
    3.7844    1.3600    0.0000 H   0  0  0  0  0  0  0  0  0  0  0  0
   -2.1434   -0.6575    0.0000 H   0  0  0  0  0  0  0  0  0  0  0  0
   -3.0700   -0.1225    0.0000 H   0  0  0  0  0  0  0  0  0  0  0  0
    3.5723   -0.6575    0.0000 H   0  0  0  0  0  0  0  0  0  0  0  0
    4.4990   -0.1225    0.0000 H   0  0  0  0  0  0  0  0  0  0  0  0
   -2.8579    1.8950    0.0000 H   0  0  0  0  0  0  0  0  0  0  0  0
   -3.7846    1.3600    0.0000 H   0  0  0  0  0  0  0  0  0  0  0  0
   -3.5723   -0.6575    0.0000 H   0  0  0  0  0  0  0  0  0  0  0  0
   -4.4989   -0.1225    0.0000 H   0  0  0  0  0  0  0  0  0  0  0  0
    4.2867    1.8950    0.0000 H   0  0  0  0  0  0  0  0  0  0  0  0
    5.2133    1.3600    0.0000 H   0  0  0  0  0  0  0  0  0  0  0  0
   -4.2868    1.8950    0.0000 H   0  0  0  0  0  0  0  0  0  0  0  0
   -5.2134    1.3600    0.0000 H   0  0  0  0  0  0  0  0  0  0  0  0
    5.0012   -0.6575    0.0000 H   0  0  0  0  0  0  0  0  0  0  0  0
    5.9278   -0.1225    0.0000 H   0  0  0  0  0  0  0  0  0  0  0  0
   -5.0013   -0.6575    0.0000 H   0  0  0  0  0  0  0  0  0  0  0  0
   -5.9279   -0.1225    0.0000 H   0  0  0  0  0  0  0  0  0  0  0  0
    5.7157    1.8950    0.0000 H   0  0  0  0  0  0  0  0  0  0  0  0
    6.6423    1.3600    0.0000 H   0  0  0  0  0  0  0  0  0  0  0  0
   -5.7158    1.8950    0.0000 H   0  0  0  0  0  0  0  0  0  0  0  0
   -6.6425    1.3600    0.0000 H   0  0  0  0  0  0  0  0  0  0  0  0
    6.4302   -0.6575    0.0000 H   0  0  0  0  0  0  0  0  0  0  0  0
    7.3568    0.9475    0.0000 H   0  0  0  0  0  0  0  0  0  0  0  0
    7.3569   -0.1225    0.0000 H   0  0  0  0  0  0  0  0  0  0  0  0
   -7.3569    0.9475    0.0000 H   0  0  0  0  0  0  0  0  0  0  0  0
   -6.4302   -0.6575    0.0000 H   0  0  0  0  0  0  0  0  0  0  0  0
   -7.3568   -0.1225    0.0000 H   0  0  0  0  0  0  0  0  0  0  0  0
  1  5  1  0  0  0  0
  1 22  1  0  0  0  0
  2  3  1  0  0  0  0
  2  4  1  0  0  0  0
  2  5  1  0  0  0  0
  2 23  1  0  0  0  0
  3  6  1  0  0  0  0
  3 24  1  0  0  0  0
  3 25  1  0  0  0  0
  4  7  1  0  0  0  0
  4 26  1  0  0  0  0
  4 27  1  0  0  0  0
  5 28  1  0  0  0  0
  5 29  1  0  0  0  0
  6  8  1  0  0  0  0
  6 30  1  0  0  0  0
  6 31  1  0  0  0  0
  7  9  1  0  0  0  0
  7 32  1  0  0  0  0
  7 33  1  0  0  0  0
  8 10  1  0  0  0  0
  8 34  1  0  0  0  0
  8 35  1  0  0  0  0
  9 11  1  0  0  0  0
  9 36  1  0  0  0  0
  9 37  1  0  0  0  0
 10 12  1  0  0  0  0
 10 38  1  0  0  0  0
 10 39  1  0  0  0  0
 11 14  1  0  0  0  0
 11 40  1  0  0  0  0
 11 41  1  0  0  0  0
 12 13  1  0  0  0  0
 12 42  1  0  0  0  0
 12 43  1  0  0  0  0
 13 15  1  0  0  0  0
 13 44  1  0  0  0  0
 13 45  1  0  0  0  0
 14 16  1  0  0  0  0
 14 46  1  0  0  0  0
 14 47  1  0  0  0  0
 15 17  1  0  0  0  0
 15 48  1  0  0  0  0
 15 49  1  0  0  0  0
 16 18  1  0  0  0  0
 16 50  1  0  0  0  0
 16 51  1  0  0  0  0
 17 19  1  0  0  0  0
 17 52  1  0  0  0  0
 17 53  1  0  0  0  0
 18 20  1  0  0  0  0
 18 54  1  0  0  0  0
 18 55  1  0  0  0  0
 19 21  1  0  0  0  0
 19 56  1  0  0  0  0
 19 57  1  0  0  0  0
 20 58  1  0  0  0  0
 20 59  1  0  0  0  0
 20 60  1  0  0  0  0
 21 61  1  0  0  0  0
 21 62  1  0  0  0  0
 21 63  1  0  0  0  0
M  END
>  <DRUGBANK_ID>
DB14134

>  <COMMON_NAME>
Octyldodecanol

>  <CAS_NUMBER>
5333-42-6

>  <UNII>
461N1O614Y

>  <SYNONYMS>
2-Octyl dodecanol; 2-Octyl-1-dodecanol; 2-Octyldodecyl alcohol; Octyl dodecanol

$$$$
