
 OpenBabel10282417072D

 57 59  0  0  1  0  0  0  0  0999 V2000
   -1.0793    3.8783    0.0000 H   0  0  0  0  0  0  0  0  0  0  0  0
   -0.6435    3.1778    0.0000 C   0  0  1  0  0  0  0  0  0  0  0  0
   -0.0198    3.7179    0.0000 S   0  0  0  0  0  0  0  0  0  0  0  0
    0.6866    3.2917    0.0000 C   0  0  0  0  0  0  0  0  0  0  0  0
    1.4466    3.6127    0.0000 S   0  0  0  0  0  0  0  0  0  0  0  0
    1.5486    4.4313    0.0000 C   0  0  1  0  0  0  0  0  0  0  0  0
    0.9463    4.9951    0.0000 C   0  0  0  0  0  0  0  0  0  0  0  0
    1.2964    5.7421    0.0000 C   0  0  0  0  0  0  0  0  0  0  0  0
    2.1150    5.6401    0.0000 S   0  3  1  0  0  0  0  0  0  0  0  0
    2.6788    6.2424    0.0000 O   0  5  0  0  0  0  0  0  0  0  0  0
    2.2709    4.8299    0.0000 C   0  0  0  0  0  0  0  0  0  0  0  0
    0.4995    2.4882    0.0000 C   0  0  0  0  0  0  0  0  0  0  0  0
   -0.3225    2.4178    0.0000 N   0  0  0  0  0  0  0  0  0  0  0  0
   -1.0825    2.0969    0.0000 C   0  0  0  0  0  0  0  0  0  0  0  0
   -1.3930    1.3325    0.0000 O   0  0  0  0  0  0  0  0  0  0  0  0
   -1.4035    2.8569    0.0000 C   0  0  2  0  0  0  0  0  0  0  0  0
   -1.4091    3.6819    0.0000 H   0  0  0  0  0  0  0  0  0  0  0  0
   -2.1678    3.1674    0.0000 C   0  0  1  0  0  0  0  0  0  0  0  0
   -2.2811    3.9846    0.0000 C   0  0  0  0  0  0  0  0  0  0  0  0
   -2.8189    2.6607    0.0000 O   0  0  0  0  0  0  0  0  0  0  0  0
    1.0396    1.8646    0.0000 C   0  0  0  0  0  0  0  0  0  0  0  0
    0.7695    1.0850    0.0000 O   0  0  0  0  0  0  0  0  0  0  0  0
    1.8497    2.0205    0.0000 O   0  0  0  0  0  0  0  0  0  0  0  0
    2.3898    1.3968    0.0000 C   0  0  0  0  0  0  0  0  0  0  0  0
    3.1999    1.5527    0.0000 O   0  0  0  0  0  0  0  0  0  0  0  0
    3.7400    0.9291    0.0000 C   0  0  0  0  0  0  0  0  0  0  0  0
    3.4700    0.1495    0.0000 O   0  0  0  0  0  0  0  0  0  0  0  0
    4.5501    1.0850    0.0000 C   0  0  0  0  0  0  0  0  0  0  0  0
    5.0902    0.4614    0.0000 C   0  0  0  0  0  0  0  0  0  0  0  0
    5.9004    0.6173    0.0000 C   0  0  0  0  0  0  0  0  0  0  0  0
    4.8202    1.8646    0.0000 C   0  0  0  0  0  0  0  0  0  0  0  0
    5.6303    2.0205    0.0000 C   0  0  0  0  0  0  0  0  0  0  0  0
    0.5425    4.0672    0.0000 H   0  0  0  0  0  0  0  0  0  0  0  0
   -0.1044    4.7930    0.0000 H   0  0  0  0  0  0  0  0  0  0  0  0
    0.2892    5.8395    0.0000 H   0  0  0  0  0  0  0  0  0  0  0  0
    0.7794    6.6789    0.0000 H   0  0  0  0  0  0  0  0  0  0  0  0
    1.8964    6.6281    0.0000 H   0  0  0  0  0  0  0  0  0  0  0  0
    3.2398    4.3759    0.0000 H   0  0  0  0  0  0  0  0  0  0  0  0
    2.3062    3.7605    0.0000 H   0  0  0  0  0  0  0  0  0  0  0  0
   -1.3234    3.8246    0.0000 H   0  0  0  0  0  0  0  0  0  0  0  0
   -1.4367    4.6418    0.0000 H   0  0  0  0  0  0  0  0  0  0  0  0
   -3.2724    4.3873    0.0000 H   0  0  0  0  0  0  0  0  0  0  0  0
   -2.4280    5.0445    0.0000 H   0  0  0  0  0  0  0  0  0  0  0  0
   -3.7176    3.0258    0.0000 H   0  0  0  0  0  0  0  0  0  0  0  0
    2.0395    0.3858    0.0000 H   0  0  0  0  0  0  0  0  0  0  0  0
    3.0903    0.5879    0.0000 H   0  0  0  0  0  0  0  0  0  0  0  0
    5.6008    1.2872    0.0000 H   0  0  0  0  0  0  0  0  0  0  0  0
    4.7400   -0.5497    0.0000 H   0  0  0  0  0  0  0  0  0  0  0  0
    5.7907   -0.3475    0.0000 H   0  0  0  0  0  0  0  0  0  0  0  0
    6.6009   -0.1916    0.0000 H   0  0  0  0  0  0  0  0  0  0  0  0
    6.2507    1.6283    0.0000 H   0  0  0  0  0  0  0  0  0  0  0  0
    6.9511    0.8195    0.0000 H   0  0  0  0  0  0  0  0  0  0  0  0
    4.1197    2.6735    0.0000 H   0  0  0  0  0  0  0  0  0  0  0  0
    5.1705    2.8756    0.0000 H   0  0  0  0  0  0  0  0  0  0  0  0
    6.3308    1.2117    0.0000 H   0  0  0  0  0  0  0  0  0  0  0  0
    5.9805    3.0316    0.0000 H   0  0  0  0  0  0  0  0  0  0  0  0
    6.6810    2.2227    0.0000 H   0  0  0  0  0  0  0  0  0  0  0  0
  2  1  1  6  0  0  0
  2  3  1  0  0  0  0
  2 13  1  0  0  0  0
  3  4  1  0  0  0  0
  4  5  1  0  0  0  0
  4 12  2  0  0  0  0
  6  5  1  0  0  0  0
  6  7  1  0  0  0  0
  6 11  1  0  0  0  0
  6 33  1  6  0  0  0
  7  8  1  0  0  0  0
  7 34  1  0  0  0  0
  7 35  1  0  0  0  0
  8 36  1  0  0  0  0
  8 37  1  0  0  0  0
  9  8  1  0  0  0  0
  9 10  1  1  0  0  0
  9 11  1  0  0  0  0
 11 38  1  0  0  0  0
 11 39  1  0  0  0  0
 12 13  1  0  0  0  0
 12 21  1  0  0  0  0
 13 14  1  0  0  0  0
 14 15  2  0  0  0  0
 16 14  1  0  0  0  0
 16  2  1  0  0  0  0
 16 17  1  1  0  0  0
 16 18  1  0  0  0  0
 18 19  1  0  0  0  0
 18 20  1  0  0  0  0
 18 40  1  1  0  0  0
 19 41  1  0  0  0  0
 19 42  1  0  0  0  0
 19 43  1  0  0  0  0
 20 44  1  0  0  0  0
 21 22  2  0  0  0  0
 21 23  1  0  0  0  0
 23 24  1  0  0  0  0
 24 25  1  0  0  0  0
 24 45  1  0  0  0  0
 24 46  1  0  0  0  0
 25 26  1  0  0  0  0
 26 27  2  0  0  0  0
 26 28  1  0  0  0  0
 28 29  1  0  0  0  0
 28 31  1  0  0  0  0
 28 47  1  0  0  0  0
 29 30  1  0  0  0  0
 29 48  1  0  0  0  0
 29 49  1  0  0  0  0
 30 50  1  0  0  0  0
 30 51  1  0  0  0  0
 30 52  1  0  0  0  0
 31 32  1  0  0  0  0
 31 53  1  0  0  0  0
 31 54  1  0  0  0  0
 32 55  1  0  0  0  0
 32 56  1  0  0  0  0
 32 57  1  0  0  0  0
M  CHG  2   9   1  10  -1
M  END
>  <DRUGBANK_ID>
DB16335

>  <COMMON_NAME>
Sulopenem etzadroxil

>  <CAS_NUMBER>
1000296-70-7

>  <UNII>
492M3I304T

>  <SYNONYMS>
Sulopenem etzadroxil

$$$$
