AED
 OpenBabel10282417072D

 37 38  0  0  0  0  0  0  0  0999 V2000
   -0.8034   -0.8844    0.0000 C   0  0  0  0  0  0  0  0  0  0  0  0
    1.3400   -0.4719    0.0000 C   0  0  0  0  0  0  0  0  0  0  0  0
    0.6255   -1.7094    0.0000 C   0  0  0  0  0  0  0  0  0  0  0  0
   -0.8034    0.7656    0.0000 C   0  0  0  0  0  0  0  0  0  0  0  0
   -1.5179   -0.4719    0.0000 C   0  0  0  0  0  0  0  0  0  0  0  0
    2.0545   -0.8844    0.0000 C   0  0  0  0  0  0  0  0  0  0  0  0
   -0.8034    1.5906    0.0000 C   0  0  0  0  0  0  0  0  0  0  0  0
   -1.5179    2.0031    0.0000 C   0  0  0  0  0  0  0  0  0  0  0  0
   -0.8034   -1.7094    0.0000 O   0  0  0  0  0  0  0  0  0  0  0  0
   -1.5179    0.3531    0.0000 C   0  0  0  0  0  0  0  0  0  0  0  0
   -1.5179    2.8281    0.0000 N   0  0  0  0  0  0  0  0  0  0  0  0
   -0.0889    0.3531    0.0000 C   0  0  0  0  0  0  0  0  0  0  0  0
   -0.0889   -0.4719    0.0000 C   0  0  0  0  0  0  0  0  0  0  0  0
    0.6255   -0.8844    0.0000 C   0  0  0  0  0  0  0  0  0  0  0  0
    2.0545   -1.7094    0.0000 C   0  0  0  0  0  0  0  0  0  0  0  0
    1.3400   -2.1219    0.0000 C   0  0  0  0  0  0  0  0  0  0  0  0
    1.3400    0.5981    0.0000 H   0  0  0  0  0  0  0  0  0  0  0  0
    0.4134    0.0631    0.0000 H   0  0  0  0  0  0  0  0  0  0  0  0
   -0.3011   -2.2444    0.0000 H   0  0  0  0  0  0  0  0  0  0  0  0
    0.6255   -2.7794    0.0000 H   0  0  0  0  0  0  0  0  0  0  0  0
   -2.4116   -0.9879    0.0000 H   0  0  0  0  0  0  0  0  0  0  0  0
    2.9811   -0.3494    0.0000 H   0  0  0  0  0  0  0  0  0  0  0  0
    2.9811   -1.4194    0.0000 H   0  0  0  0  0  0  0  0  0  0  0  0
    0.1232    2.1256    0.0000 H   0  0  0  0  0  0  0  0  0  0  0  0
   -0.8034    2.6606    0.0000 H   0  0  0  0  0  0  0  0  0  0  0  0
   -2.4445    1.4681    0.0000 H   0  0  0  0  0  0  0  0  0  0  0  0
   -2.4445    2.5381    0.0000 H   0  0  0  0  0  0  0  0  0  0  0  0
   -1.6149   -2.1779    0.0000 H   0  0  0  0  0  0  0  0  0  0  0  0
   -2.4116    0.8691    0.0000 H   0  0  0  0  0  0  0  0  0  0  0  0
   -0.6346    3.3381    0.0000 H   0  0  0  0  0  0  0  0  0  0  0  0
   -2.4012    3.3381    0.0000 H   0  0  0  0  0  0  0  0  0  0  0  0
    0.8048    0.8691    0.0000 H   0  0  0  0  0  0  0  0  0  0  0  0
   -0.3012   -1.4194    0.0000 H   0  0  0  0  0  0  0  0  0  0  0  0
    2.9811   -2.2444    0.0000 H   0  0  0  0  0  0  0  0  0  0  0  0
    2.0545   -2.7794    0.0000 H   0  0  0  0  0  0  0  0  0  0  0  0
    1.3400   -3.1919    0.0000 H   0  0  0  0  0  0  0  0  0  0  0  0
    2.2666   -2.6569    0.0000 H   0  0  0  0  0  0  0  0  0  0  0  0
  1  5  2  0  0  0  0
  1  9  1  0  0  0  0
  1 13  1  0  0  0  0
  2  6  1  0  0  0  0
  2 14  1  0  0  0  0
  2 17  1  0  0  0  0
  2 18  1  0  0  0  0
  3 14  1  0  0  0  0
  3 16  1  0  0  0  0
  3 19  1  0  0  0  0
  3 20  1  0  0  0  0
  4  7  1  0  0  0  0
  4 10  2  0  0  0  0
  4 12  1  0  0  0  0
  5 10  1  0  0  0  0
  5 21  1  0  0  0  0
  6 15  1  0  0  0  0
  6 22  1  0  0  0  0
  6 23  1  0  0  0  0
  7  8  1  0  0  0  0
  7 24  1  0  0  0  0
  7 25  1  0  0  0  0
  8 11  1  0  0  0  0
  8 26  1  0  0  0  0
  8 27  1  0  0  0  0
  9 28  1  0  0  0  0
 10 29  1  0  0  0  0
 11 30  1  0  0  0  0
 11 31  1  0  0  0  0
 12 13  2  0  0  0  0
 12 32  1  0  0  0  0
 13 14  1  0  0  0  0
 14 33  1  0  0  0  0
 15 16  1  0  0  0  0
 15 34  1  0  0  0  0
 15 35  1  0  0  0  0
 16 36  1  0  0  0  0
 16 37  1  0  0  0  0
M  END
>  <DRUGBANK_ID>
DB07345

>  <COMMON_NAME>
4-(2-aminoethyl)-2-cyclohexylphenol

$$$$
