
 OpenBabel10282417072D

 34 35  0  0  0  0  0  0  0  0999 V2000
    2.9165   -1.8043    0.0000 O   0  0  0  0  0  0  0  0  0  0  0  0
    2.5040   -1.0898    0.0000 C   0  0  0  0  0  0  0  0  0  0  0  0
    2.9165   -0.3753    0.0000 O   0  0  0  0  0  0  0  0  0  0  0  0
    1.6790   -1.0898    0.0000 C   0  0  0  0  0  0  0  0  0  0  0  0
    1.2665   -0.3753    0.0000 C   0  0  1  0  0  0  0  0  0  0  0  0
    1.6790    0.3390    0.0000 O   0  0  0  0  0  0  0  0  0  0  0  0
    0.4415   -0.3753    0.0000 C   0  0  1  0  0  0  0  0  0  0  0  0
   -0.0433   -1.0428    0.0000 C   0  0  2  0  0  0  0  0  0  0  0  0
    0.2115   -1.8274    0.0000 C   0  0  0  0  0  0  0  0  0  0  0  0
   -0.8279   -0.7878    0.0000 O   0  0  0  0  0  0  0  0  0  0  0  0
   -0.8279    0.0371    0.0000 C   0  0  0  0  0  0  0  0  0  0  0  0
   -0.0433    0.2920    0.0000 N   0  0  0  0  0  0  0  0  0  0  0  0
   -1.4954    0.5220    0.0000 C   0  0  0  0  0  0  0  0  0  0  0  0
   -2.2491    0.1864    0.0000 C   0  0  0  0  0  0  0  0  0  0  0  0
   -2.9165    0.6714    0.0000 C   0  0  0  0  0  0  0  0  0  0  0  0
   -2.8303    1.4918    0.0000 C   0  0  0  0  0  0  0  0  0  0  0  0
   -2.0766    1.8274    0.0000 C   0  0  0  0  0  0  0  0  0  0  0  0
   -1.4091    1.3425    0.0000 C   0  0  0  0  0  0  0  0  0  0  0  0
   -0.6555    1.6780    0.0000 O   0  0  0  0  0  0  0  0  0  0  0  0
    2.4480   -2.6158    0.0000 H   0  0  0  0  0  0  0  0  0  0  0  0
    1.1440   -2.0164    0.0000 H   0  0  0  0  0  0  0  0  0  0  0  0
    0.6090   -1.0898    0.0000 H   0  0  0  0  0  0  0  0  0  0  0  0
    0.7315   -1.3019    0.0000 H   0  0  0  0  0  0  0  0  0  0  0  0
    2.6490    0.3389    0.0000 H   0  0  0  0  0  0  0  0  0  0  0  0
    0.9273   -1.3286    0.0000 H   0  0  0  0  0  0  0  0  0  0  0  0
    1.0135   -1.2102    0.0000 H   0  0  0  0  0  0  0  0  0  0  0  0
   -0.5046   -2.6225    0.0000 H   0  0  0  0  0  0  0  0  0  0  0  0
    1.2581   -2.0500    0.0000 H   0  0  0  0  0  0  0  0  0  0  0  0
    0.5420   -2.8451    0.0000 H   0  0  0  0  0  0  0  0  0  0  0  0
   -2.3570   -0.8399    0.0000 H   0  0  0  0  0  0  0  0  0  0  0  0
   -3.8593    0.2517    0.0000 H   0  0  0  0  0  0  0  0  0  0  0  0
   -3.6652    2.0984    0.0000 H   0  0  0  0  0  0  0  0  0  0  0  0
   -1.9688    2.8538    0.0000 H   0  0  0  0  0  0  0  0  0  0  0  0
    0.1025    1.1272    0.0000 H   0  0  0  0  0  0  0  0  0  0  0  0
  1  2  1  0  0  0  0
  1 20  1  0  0  0  0
  2  3  2  0  0  0  0
  2  4  1  0  0  0  0
  4 21  1  0  0  0  0
  4 22  1  0  0  0  0
  5  4  1  0  0  0  0
  5  6  1  0  0  0  0
  5 23  1  1  0  0  0
  6 24  1  0  0  0  0
  7  5  1  0  0  0  0
  7  8  1  0  0  0  0
  7 12  1  0  0  0  0
  7 25  1  6  0  0  0
  8  9  1  0  0  0  0
  8 10  1  0  0  0  0
  8 26  1  1  0  0  0
  9 27  1  0  0  0  0
  9 28  1  0  0  0  0
  9 29  1  0  0  0  0
 10 11  1  0  0  0  0
 11 12  2  0  0  0  0
 11 13  1  0  0  0  0
 13 14  2  0  0  0  0
 13 18  1  0  0  0  0
 14 15  1  0  0  0  0
 14 30  1  0  0  0  0
 15 16  2  0  0  0  0
 15 31  1  0  0  0  0
 16 17  1  0  0  0  0
 16 32  1  0  0  0  0
 17 18  2  0  0  0  0
 17 33  1  0  0  0  0
 18 19  1  0  0  0  0
 19 34  1  0  0  0  0
M  END
>  <DRUGBANK_ID>
DB15553

>  <COMMON_NAME>
Leptazoline C

$$$$
