
 OpenBabel10282417072D

 52 55  0  0  1  0  0  0  0  0999 V2000
   -0.0726    2.9763    0.0000 C   0  0  0  0  0  0  0  0  0  0  0  0
   -0.1014    2.1518    0.0000 C   0  0  0  0  0  0  0  0  0  0  0  0
    0.1536    1.3672    0.0000 C   0  0  0  0  0  0  0  0  0  0  0  0
   -0.3984    0.7541    0.0000 N   0  0  3  0  0  0  0  0  0  0  0  0
   -1.2054    0.9256    0.0000 C   0  0  0  0  0  0  0  0  0  0  0  0
   -1.4604    1.7103    0.0000 C   0  0  0  0  0  0  0  0  0  0  0  0
   -0.9083    2.3234    0.0000 N   0  0  0  0  0  0  0  0  0  0  0  0
   -1.1633    3.1080    0.0000 C   0  0  0  0  0  0  0  0  0  0  0  0
   -0.1435   -0.0305    0.0000 C   0  0  2  0  0  0  0  0  0  0  0  0
   -0.6284   -0.6979    0.0000 C   0  0  0  0  0  0  0  0  0  0  0  0
   -0.1435   -1.3654    0.0000 C   0  0  2  0  0  0  0  0  0  0  0  0
    0.6411   -1.1104    0.0000 C   0  0  0  0  0  0  0  0  0  0  0  0
    0.6411   -0.2854    0.0000 C   0  0  0  0  0  0  0  0  0  0  0  0
    1.3556    0.1271    0.0000 C   0  0  0  0  0  0  0  0  0  0  0  0
    2.0701   -0.2854    0.0000 C   0  0  0  0  0  0  0  0  0  0  0  0
    2.0701   -1.1104    0.0000 C   0  0  0  0  0  0  0  0  0  0  0  0
    1.3556   -1.5229    0.0000 C   0  0  0  0  0  0  0  0  0  0  0  0
    2.7845    0.1271    0.0000 Cl  0  0  0  0  0  0  0  0  0  0  0  0
   -0.3984   -2.1500    0.0000 C   0  0  0  0  0  0  0  0  0  0  0  0
    0.1536   -2.7631    0.0000 C   0  0  0  0  0  0  0  0  0  0  0  0
   -0.1014   -3.5477    0.0000 C   0  0  0  0  0  0  0  0  0  0  0  0
   -0.9083   -3.7192    0.0000 C   0  0  0  0  0  0  0  0  0  0  0  0
   -1.4604   -3.1062    0.0000 C   0  0  0  0  0  0  0  0  0  0  0  0
   -1.2054   -2.3215    0.0000 C   0  0  0  0  0  0  0  0  0  0  0  0
    0.7156    2.2667    0.0000 C   0  0  0  0  0  0  0  0  0  0  0  0
    0.8722    3.4786    0.0000 H   0  0  0  0  0  0  0  0  0  0  0  0
   -0.9800    3.5433    0.0000 H   0  0  0  0  0  0  0  0  0  0  0  0
   -0.0352    4.0456    0.0000 H   0  0  0  0  0  0  0  0  0  0  0  0
    1.2002    1.1448    0.0000 H   0  0  0  0  0  0  0  0  0  0  0  0
    0.4843    0.3496    0.0000 H   0  0  0  0  0  0  0  0  0  0  0  0
   -1.9213    0.1304    0.0000 H   0  0  0  0  0  0  0  0  0  0  0  0
   -2.2520    1.1480    0.0000 H   0  0  0  0  0  0  0  0  0  0  0  0
   -2.5070    1.9328    0.0000 H   0  0  0  0  0  0  0  0  0  0  0  0
   -1.7910    2.7279    0.0000 H   0  0  0  0  0  0  0  0  0  0  0  0
   -0.4474    3.9032    0.0000 H   0  0  0  0  0  0  0  0  0  0  0  0
   -2.2099    3.3304    0.0000 H   0  0  0  0  0  0  0  0  0  0  0  0
   -1.4940    4.1256    0.0000 H   0  0  0  0  0  0  0  0  0  0  0  0
   -1.2003    0.1369    0.0000 H   0  0  0  0  0  0  0  0  0  0  0  0
   -1.6984   -0.6979    0.0000 H   0  0  0  0  0  0  0  0  0  0  0  0
   -1.1142   -1.6513    0.0000 H   0  0  0  0  0  0  0  0  0  0  0  0
   -1.2003   -1.5328    0.0000 H   0  0  0  0  0  0  0  0  0  0  0  0
    1.3556    1.1591    0.0000 H   0  0  0  0  0  0  0  0  0  0  0  0
    2.9638   -1.6264    0.0000 H   0  0  0  0  0  0  0  0  0  0  0  0
    1.3556   -2.5549    0.0000 H   0  0  0  0  0  0  0  0  0  0  0  0
    1.1631   -2.5486    0.0000 H   0  0  0  0  0  0  0  0  0  0  0  0
    0.5891   -4.3147    0.0000 H   0  0  0  0  0  0  0  0  0  0  0  0
   -1.2271   -4.7007    0.0000 H   0  0  0  0  0  0  0  0  0  0  0  0
   -2.4698   -3.3208    0.0000 H   0  0  0  0  0  0  0  0  0  0  0  0
   -1.8959   -1.5545    0.0000 H   0  0  0  0  0  0  0  0  0  0  0  0
    1.3744    1.4236    0.0000 H   0  0  0  0  0  0  0  0  0  0  0  0
    1.1163    3.2588    0.0000 H   0  0  0  0  0  0  0  0  0  0  0  0
    1.7752    2.4157    0.0000 H   0  0  0  0  0  0  0  0  0  0  0  0
  1  2  1  0  0  0  0
  1 26  1  0  0  0  0
  1 27  1  0  0  0  0
  1 28  1  0  0  0  0
  2  3  1  0  0  0  0
  2  7  1  0  0  0  0
  2 25  1  0  0  0  0
  3  4  1  0  0  0  0
  3 29  1  0  0  0  0
  3 30  1  0  0  0  0
  4  5  1  0  0  0  0
  5  6  1  0  0  0  0
  5 31  1  0  0  0  0
  5 32  1  0  0  0  0
  6  7  1  0  0  0  0
  6 33  1  0  0  0  0
  6 34  1  0  0  0  0
  7  8  1  0  0  0  0
  8 35  1  0  0  0  0
  8 36  1  0  0  0  0
  8 37  1  0  0  0  0
  9  4  1  0  0  0  0
  9 10  1  0  0  0  0
  9 13  1  0  0  0  0
  9 38  1  6  0  0  0
 10 11  1  0  0  0  0
 10 39  1  0  0  0  0
 10 40  1  0  0  0  0
 11 12  1  0  0  0  0
 11 19  1  0  0  0  0
 11 41  1  1  0  0  0
 12 13  2  0  0  0  0
 12 17  1  0  0  0  0
 13 14  1  0  0  0  0
 14 15  2  0  0  0  0
 14 42  1  0  0  0  0
 15 16  1  0  0  0  0
 15 18  1  0  0  0  0
 16 17  2  0  0  0  0
 16 43  1  0  0  0  0
 17 44  1  0  0  0  0
 19 20  2  0  0  0  0
 19 24  1  0  0  0  0
 20 21  1  0  0  0  0
 20 45  1  0  0  0  0
 21 22  2  0  0  0  0
 21 46  1  0  0  0  0
 22 23  1  0  0  0  0
 22 47  1  0  0  0  0
 23 24  2  0  0  0  0
 23 48  1  0  0  0  0
 24 49  1  0  0  0  0
 25 50  1  0  0  0  0
 25 51  1  0  0  0  0
 25 52  1  0  0  0  0
M  END
>  <DRUGBANK_ID>
DB12188

>  <COMMON_NAME>
Zicronapine

>  <CAS_NUMBER>
170381-16-5

>  <UNII>
QZV11V7G6A

>  <SYNONYMS>
Zicronapine

$$$$
