
 OpenBabel10282417072D

 16 16  0  0  0  0  0  0  0  0999 V2000
   -3.2152   -0.8249    0.0000 C   0  0  0  0  0  0  0  0  0  0  0  0
   -3.9296   -1.2374    0.0000 C   0  0  0  0  0  0  0  0  0  0  0  0
   -3.9296   -2.0623    0.0000 C   0  0  0  0  0  0  0  0  0  0  0  0
   -3.2152   -2.4749    0.0000 C   0  0  0  0  0  0  0  0  0  0  0  0
   -2.5007   -2.0623    0.0000 C   0  0  0  0  0  0  0  0  0  0  0  0
   -2.5007   -1.2374    0.0000 C   0  0  0  0  0  0  0  0  0  0  0  0
   -4.6441   -0.8250    0.0000 F   0  0  0  0  0  0  0  0  0  0  0  0
   -3.2152   -3.2999    0.0000 F   0  0  0  0  0  0  0  0  0  0  0  0
   -1.7862   -2.4749    0.0000 C   0  0  0  0  0  0  0  0  0  0  0  0
   -1.7862   -3.3000    0.0000 O   0  0  0  0  0  0  0  0  0  0  0  0
   -3.2152    0.2071    0.0000 H   0  0  0  0  0  0  0  0  0  0  0  0
   -4.8234   -2.5782    0.0000 H   0  0  0  0  0  0  0  0  0  0  0  0
   -1.6070   -0.7214    0.0000 H   0  0  0  0  0  0  0  0  0  0  0  0
   -0.8595   -1.9399    0.0000 H   0  0  0  0  0  0  0  0  0  0  0  0
   -0.8596   -3.0099    0.0000 H   0  0  0  0  0  0  0  0  0  0  0  0
   -2.6262   -3.7850    0.0000 H   0  0  0  0  0  0  0  0  0  0  0  0
  1  2  2  0  0  0  0
  1 11  1  0  0  0  0
  2  3  1  0  0  0  0
  2  7  1  0  0  0  0
  3  4  2  0  0  0  0
  3 12  1  0  0  0  0
  4  5  1  0  0  0  0
  4  8  1  0  0  0  0
  5  6  2  0  0  0  0
  5  9  1  0  0  0  0
  6  1  1  0  0  0  0
  6 13  1  0  0  0  0
  9 10  1  0  0  0  0
  9 14  1  0  0  0  0
  9 15  1  0  0  0  0
 10 16  1  0  0  0  0
M  END
>  <DRUGBANK_ID>
DB04448

>  <SECONDARY_ACCESSION_NUMBERS>
EXPT00093

>  <COMMON_NAME>
2,4-Difluorobenzyl Alcohol 2,4-Difluoro-1-(Hydroxymethyl)Benzene

>  <UNII>
SVX5XQB2MB

$$$$
