
 OpenBabel10282417072D

 51 52  0  0  0  0  0  0  0  0999 V2000
    0.0000    0.6187    0.0000 P   0  0  3  0  0  0  0  0  0  0  0  0
    0.8249    0.6187    0.0000 O   0  0  0  0  0  0  0  0  0  0  0  0
   -0.8250    0.6187    0.0000 O   0  0  0  0  0  0  0  0  0  0  0  0
   -1.4289    0.6187    0.0000 O   0  0  0  0  0  0  0  0  0  0  0  0
   -2.1433   -0.6187    0.0000 O   0  0  0  0  0  0  0  0  0  0  0  0
   -2.1433   -3.0937    0.0000 N   0  0  0  0  0  0  0  0  0  0  0  0
   -2.8579   -4.3312    0.0000 N   0  0  0  0  0  0  0  0  0  0  0  0
   -1.4289   -4.3312    0.0000 N   0  0  0  0  0  0  0  0  0  0  0  0
    0.0000   -0.2062    0.0000 C   0  0  0  0  0  0  0  0  0  0  0  0
    0.0000    1.4437    0.0000 C   0  0  0  0  0  0  0  0  0  0  0  0
   -0.7144   -0.6187    0.0000 C   0  0  3  0  0  0  0  0  0  0  0  0
    0.7144    1.8562    0.0000 C   0  0  0  0  0  0  0  0  0  0  0  0
    0.7144    2.6812    0.0000 C   0  0  0  0  0  0  0  0  0  0  0  0
   -0.7144   -1.4437    0.0000 C   0  0  0  0  0  0  0  0  0  0  0  0
   -1.4289   -0.2062    0.0000 C   0  0  0  0  0  0  0  0  0  0  0  0
    1.4289    3.0937    0.0000 C   0  0  0  0  0  0  0  0  0  0  0  0
   -1.4289   -1.8562    0.0000 C   0  0  0  0  0  0  0  0  0  0  0  0
    0.0000   -1.8562    0.0000 C   0  0  0  0  0  0  0  0  0  0  0  0
   -1.4289   -2.6812    0.0000 C   0  0  0  0  0  0  0  0  0  0  0  0
    0.0000   -2.6812    0.0000 C   0  0  0  0  0  0  0  0  0  0  0  0
    2.1433    2.6812    0.0000 C   0  0  0  0  0  0  0  0  0  0  0  0
    1.4289    3.9187    0.0000 C   0  0  0  0  0  0  0  0  0  0  0  0
   -0.7144   -3.0937    0.0000 C   0  0  0  0  0  0  0  0  0  0  0  0
    2.8578    3.0937    0.0000 C   0  0  0  0  0  0  0  0  0  0  0  0
    2.1433    4.3312    0.0000 C   0  0  0  0  0  0  0  0  0  0  0  0
    2.8578    3.9187    0.0000 C   0  0  0  0  0  0  0  0  0  0  0  0
   -2.1433   -3.9187    0.0000 C   0  0  0  0  0  0  0  0  0  0  0  0
    1.3099   -0.2213    0.0000 H   0  0  0  0  0  0  0  0  0  0  0  0
   -0.6174    1.0872    0.0000 H   0  0  0  0  0  0  0  0  0  0  0  0
   -3.7105   -3.8389    0.0000 H   0  0  0  0  0  0  0  0  0  0  0  0
   -2.8580   -5.3157    0.0000 H   0  0  0  0  0  0  0  0  0  0  0  0
   -1.4289   -5.3157    0.0000 H   0  0  0  0  0  0  0  0  0  0  0  0
   -0.5763   -3.8390    0.0000 H   0  0  0  0  0  0  0  0  0  0  0  0
    0.9267   -0.7412    0.0000 H   0  0  0  0  0  0  0  0  0  0  0  0
    0.0000   -1.2762    0.0000 H   0  0  0  0  0  0  0  0  0  0  0  0
   -0.9267    1.9787    0.0000 H   0  0  0  0  0  0  0  0  0  0  0  0
   -0.0000    2.5137    0.0000 H   0  0  0  0  0  0  0  0  0  0  0  0
    0.2123   -1.1537    0.0000 H   0  0  0  0  0  0  0  0  0  0  0  0
    1.6411    1.3212    0.0000 H   0  0  0  0  0  0  0  0  0  0  0  0
    1.6410    2.3912    0.0000 H   0  0  0  0  0  0  0  0  0  0  0  0
   -0.2122    3.2162    0.0000 H   0  0  0  0  0  0  0  0  0  0  0  0
    0.7144    3.7512    0.0000 H   0  0  0  0  0  0  0  0  0  0  0  0
   -2.3226   -1.3402    0.0000 H   0  0  0  0  0  0  0  0  0  0  0  0
    0.8937   -1.3402    0.0000 H   0  0  0  0  0  0  0  0  0  0  0  0
    0.8937   -3.1972    0.0000 H   0  0  0  0  0  0  0  0  0  0  0  0
    2.1433    1.6492    0.0000 H   0  0  0  0  0  0  0  0  0  0  0  0
    0.5352    4.4347    0.0000 H   0  0  0  0  0  0  0  0  0  0  0  0
   -0.7144   -4.1257    0.0000 H   0  0  0  0  0  0  0  0  0  0  0  0
    3.7515    2.5777    0.0000 H   0  0  0  0  0  0  0  0  0  0  0  0
    2.1433    5.3632    0.0000 H   0  0  0  0  0  0  0  0  0  0  0  0
    3.7515    4.4347    0.0000 H   0  0  0  0  0  0  0  0  0  0  0  0
  1  2  1  0  0  0  0
  1  3  2  0  0  0  0
  1  9  1  0  0  0  0
  1 10  1  0  0  0  0
  2 28  1  0  0  0  0
  4 15  1  0  0  0  0
  4 29  1  0  0  0  0
  5 15  2  0  0  0  0
  6 19  1  0  0  0  0
  6 27  2  0  0  0  0
  7 27  1  0  0  0  0
  7 30  1  0  0  0  0
  7 31  1  0  0  0  0
  8 27  1  0  0  0  0
  8 32  1  0  0  0  0
  8 33  1  0  0  0  0
  9 34  1  0  0  0  0
  9 35  1  0  0  0  0
 10 12  1  0  0  0  0
 10 36  1  0  0  0  0
 10 37  1  0  0  0  0
 11  9  1  0  0  0  0
 11 14  1  0  0  0  0
 11 15  1  0  0  0  0
 11 38  1  0  0  0  0
 12 13  1  0  0  0  0
 12 39  1  0  0  0  0
 12 40  1  0  0  0  0
 13 16  1  0  0  0  0
 13 41  1  0  0  0  0
 13 42  1  0  0  0  0
 14 17  2  0  0  0  0
 14 18  1  0  0  0  0
 16 21  2  0  0  0  0
 16 22  1  0  0  0  0
 17 19  1  0  0  0  0
 17 43  1  0  0  0  0
 18 20  2  0  0  0  0
 18 44  1  0  0  0  0
 19 23  2  0  0  0  0
 20 23  1  0  0  0  0
 20 45  1  0  0  0  0
 21 24  1  0  0  0  0
 21 46  1  0  0  0  0
 22 25  2  0  0  0  0
 22 47  1  0  0  0  0
 23 48  1  0  0  0  0
 24 26  2  0  0  0  0
 24 49  1  0  0  0  0
 25 26  1  0  0  0  0
 25 50  1  0  0  0  0
 26 51  1  0  0  0  0
M  END
>  <DRUGBANK_ID>
DB07182

>  <COMMON_NAME>
(2S)-2-(3-Carbamimidamidophenyl)-3-[hydroxy(3-phenylpropyl)phosphoryl]propanoic acid

$$$$
