
 OpenBabel10282417072D

 35 36  0  0  0  0  0  0  0  0999 V2000
    0.0000   -0.8250    0.0000 S   0  0  0  0  0  0  0  0  0  0  0  0
   -2.4454   -1.5394    0.0000 F   0  0  0  0  0  0  0  0  0  0  0  0
   -3.2704   -0.1105    0.0000 F   0  0  0  0  0  0  0  0  0  0  0  0
   -3.5724   -1.2375    0.0000 F   0  0  0  0  0  0  0  0  0  0  0  0
    1.4289   -1.6499    0.0000 O   0  0  0  0  0  0  0  0  0  0  0  0
   -1.4289    1.6499    0.0000 O   0  0  0  0  0  0  0  0  0  0  0  0
    2.1434   -0.4124    0.0000 N   0  0  0  0  0  0  0  0  0  0  0  0
   -1.4289   -0.8250    0.0000 N   0  0  0  0  0  0  0  0  0  0  0  0
   -0.7145    0.4124    0.0000 N   0  0  0  0  0  0  0  0  0  0  0  0
    3.5724    0.4124    0.0000 C   0  0  0  0  0  0  0  0  0  0  0  0
    2.8578    0.8250    0.0000 C   0  0  0  0  0  0  0  0  0  0  0  0
    3.5724   -0.4124    0.0000 C   0  0  0  0  0  0  0  0  0  0  0  0
    2.1434    0.4124    0.0000 C   0  0  0  0  0  0  0  0  0  0  0  0
    2.8578   -0.8250    0.0000 C   0  0  0  0  0  0  0  0  0  0  0  0
    1.4289   -0.8250    0.0000 C   0  0  0  0  0  0  0  0  0  0  0  0
    0.7145   -0.4124    0.0000 C   0  0  0  0  0  0  0  0  0  0  0  0
   -0.7145   -0.4124    0.0000 C   0  0  0  0  0  0  0  0  0  0  0  0
   -2.1434   -0.4124    0.0000 C   0  0  0  0  0  0  0  0  0  0  0  0
   -2.1434    0.4124    0.0000 C   0  0  0  0  0  0  0  0  0  0  0  0
   -2.8579   -0.8250    0.0000 C   0  0  0  0  0  0  0  0  0  0  0  0
   -1.4289    0.8250    0.0000 C   0  0  0  0  0  0  0  0  0  0  0  0
   -1.4289   -1.3365    0.0000 H   0  0  0  0  0  0  0  0  0  0  0  0
    4.4991    0.9474    0.0000 H   0  0  0  0  0  0  0  0  0  0  0  0
    4.4990   -0.1226    0.0000 H   0  0  0  0  0  0  0  0  0  0  0  0
    2.8577    1.8950    0.0000 H   0  0  0  0  0  0  0  0  0  0  0  0
    1.9311    1.3599    0.0000 H   0  0  0  0  0  0  0  0  0  0  0  0
    4.4991   -0.9474    0.0000 H   0  0  0  0  0  0  0  0  0  0  0  0
    3.5724   -1.4824    0.0000 H   0  0  0  0  0  0  0  0  0  0  0  0
    1.2167    0.9473    0.0000 H   0  0  0  0  0  0  0  0  0  0  0  0
    2.1433    1.4824    0.0000 H   0  0  0  0  0  0  0  0  0  0  0  0
    2.8577   -1.8950    0.0000 H   0  0  0  0  0  0  0  0  0  0  0  0
    3.7844   -1.3600    0.0000 H   0  0  0  0  0  0  0  0  0  0  0  0
    0.7145    0.6576    0.0000 H   0  0  0  0  0  0  0  0  0  0  0  0
    1.6412    0.1225    0.0000 H   0  0  0  0  0  0  0  0  0  0  0  0
   -3.0372    0.9284    0.0000 H   0  0  0  0  0  0  0  0  0  0  0  0
  1 16  1  0  0  0  0
  1 17  1  0  0  0  0
  2 20  1  0  0  0  0
  3 20  1  0  0  0  0
  4 20  1  0  0  0  0
  5 15  2  0  0  0  0
  6 21  2  0  0  0  0
  7 13  1  0  0  0  0
  7 14  1  0  0  0  0
  7 15  1  0  0  0  0
  8 17  1  0  0  0  0
  8 18  1  0  0  0  0
  8 22  1  0  0  0  0
  9 17  2  0  0  0  0
  9 21  1  0  0  0  0
 10 11  1  0  0  0  0
 10 12  1  0  0  0  0
 10 23  1  0  0  0  0
 10 24  1  0  0  0  0
 11 13  1  0  0  0  0
 11 25  1  0  0  0  0
 11 26  1  0  0  0  0
 12 14  1  0  0  0  0
 12 27  1  0  0  0  0
 12 28  1  0  0  0  0
 13 29  1  0  0  0  0
 13 30  1  0  0  0  0
 14 31  1  0  0  0  0
 14 32  1  0  0  0  0
 15 16  1  0  0  0  0
 16 33  1  0  0  0  0
 16 34  1  0  0  0  0
 18 19  2  0  0  0  0
 18 20  1  0  0  0  0
 19 21  1  0  0  0  0
 19 35  1  0  0  0  0
M  END
>  <DRUGBANK_ID>
DB03009

>  <SECONDARY_ACCESSION_NUMBERS>
EXPT00609

>  <COMMON_NAME>
2-{[2-Oxo-2-(1-piperidinyl)ethyl]sulfanyl}-6-(trifluoromethyl)-4(1H)-pyrimidinone

$$$$
