55F
 OpenBabel10282417072D

 42 45  0  0  0  0  0  0  0  0999 V2000
   -3.4085    0.0275    0.0000 C   0  0  0  0  0  0  0  0  0  0  0  0
   -3.4085   -0.7975    0.0000 C   0  0  0  0  0  0  0  0  0  0  0  0
   -2.6940   -1.2100    0.0000 N   0  0  0  0  0  0  0  0  0  0  0  0
   -1.9795   -0.7975    0.0000 C   0  0  0  0  0  0  0  0  0  0  0  0
   -1.9795    0.0275    0.0000 C   0  0  0  0  0  0  0  0  0  0  0  0
   -2.6940    0.4400    0.0000 N   0  0  0  0  0  0  0  0  0  0  0  0
   -1.2651   -1.2100    0.0000 C   0  0  0  0  0  0  0  0  0  0  0  0
   -0.5506   -0.7975    0.0000 C   0  0  0  0  0  0  0  0  0  0  0  0
   -0.5506    0.0275    0.0000 C   0  0  0  0  0  0  0  0  0  0  0  0
   -1.2651    0.4400    0.0000 C   0  0  0  0  0  0  0  0  0  0  0  0
    0.1639    0.4400    0.0000 C   0  0  0  0  0  0  0  0  0  0  0  0
    0.9176    0.1044    0.0000 C   0  0  0  0  0  0  0  0  0  0  0  0
    1.4696    0.7175    0.0000 N   0  0  0  0  0  0  0  0  0  0  0  0
    1.0571    1.4320    0.0000 C   0  0  0  0  0  0  0  0  0  0  0  0
    0.2501    1.2604    0.0000 N   0  0  0  0  0  0  0  0  0  0  0  0
    1.0891   -0.7026    0.0000 C   0  0  0  0  0  0  0  0  0  0  0  0
    1.8737   -0.9575    0.0000 C   0  0  0  0  0  0  0  0  0  0  0  0
    2.0452   -1.7645    0.0000 C   0  0  0  0  0  0  0  0  0  0  0  0
    1.4321   -2.3165    0.0000 C   0  0  0  0  0  0  0  0  0  0  0  0
    0.6475   -2.0616    0.0000 C   0  0  0  0  0  0  0  0  0  0  0  0
    0.4760   -1.2546    0.0000 N   0  0  0  0  0  0  0  0  0  0  0  0
    1.3926    2.1856    0.0000 N   0  0  0  0  0  0  0  0  0  0  0  0
    0.0344   -2.6136    0.0000 C   0  0  0  0  0  0  0  0  0  0  0  0
    1.6037   -3.1235    0.0000 F   0  0  0  0  0  0  0  0  0  0  0  0
    0.9077    2.8531    0.0000 C   0  0  0  0  0  0  0  0  0  0  0  0
    0.0872    2.7668    0.0000 O   0  0  0  0  0  0  0  0  0  0  0  0
    1.2433    3.6067    0.0000 C   0  0  0  0  0  0  0  0  0  0  0  0
   -4.3022    0.5435    0.0000 H   0  0  0  0  0  0  0  0  0  0  0  0
   -4.3022   -1.3135    0.0000 H   0  0  0  0  0  0  0  0  0  0  0  0
   -1.2651   -2.2420    0.0000 H   0  0  0  0  0  0  0  0  0  0  0  0
    0.3431   -1.3135    0.0000 H   0  0  0  0  0  0  0  0  0  0  0  0
   -1.2651    1.4720    0.0000 H   0  0  0  0  0  0  0  0  0  0  0  0
   -0.4816    1.9191    0.0000 H   0  0  0  0  0  0  0  0  0  0  0  0
    2.6406   -0.2670    0.0000 H   0  0  0  0  0  0  0  0  0  0  0  0
    3.0267   -2.0834    0.0000 H   0  0  0  0  0  0  0  0  0  0  0  0
    2.3717    2.2885    0.0000 H   0  0  0  0  0  0  0  0  0  0  0  0
   -0.9832   -2.2829    0.0000 H   0  0  0  0  0  0  0  0  0  0  0  0
    0.2568   -3.6602    0.0000 H   0  0  0  0  0  0  0  0  0  0  0  0
   -0.7608   -3.3295    0.0000 H   0  0  0  0  0  0  0  0  0  0  0  0
    2.3074    3.7185    0.0000 H   0  0  0  0  0  0  0  0  0  0  0  0
    0.6144    4.4724    0.0000 H   0  0  0  0  0  0  0  0  0  0  0  0
    1.6786    4.5842    0.0000 H   0  0  0  0  0  0  0  0  0  0  0  0
  1 28  1  0  0  0  0
  2  1  1  0  0  0  0
  2 29  1  0  0  0  0
  3  2  2  0  0  0  0
  4  3  1  0  0  0  0
  4  5  1  0  0  0  0
  5  6  1  0  0  0  0
  6  1  2  0  0  0  0
  7  4  2  0  0  0  0
  7 30  1  0  0  0  0
  8  7  1  0  0  0  0
  8  9  2  0  0  0  0
  8 31  1  0  0  0  0
  9 10  1  0  0  0  0
 10  5  2  0  0  0  0
 10 32  1  0  0  0  0
 11  9  1  0  0  0  0
 11 15  1  0  0  0  0
 12 11  2  0  0  0  0
 13 12  1  0  0  0  0
 13 14  2  0  0  0  0
 14 22  1  0  0  0  0
 14 15  1  0  0  0  0
 15 33  1  0  0  0  0
 16 12  1  0  0  0  0
 16 17  1  0  0  0  0
 17 34  1  0  0  0  0
 18 17  2  0  0  0  0
 18 35  1  0  0  0  0
 19 18  1  0  0  0  0
 20 19  2  0  0  0  0
 20 21  1  0  0  0  0
 21 16  2  0  0  0  0
 22 25  1  0  0  0  0
 22 36  1  0  0  0  0
 23 20  1  0  0  0  0
 23 37  1  0  0  0  0
 23 38  1  0  0  0  0
 23 39  1  0  0  0  0
 24 19  1  0  0  0  0
 25 26  2  0  0  0  0
 27 25  1  0  0  0  0
 27 40  1  0  0  0  0
 27 41  1  0  0  0  0
 27 42  1  0  0  0  0
M  END
>  <DRUGBANK_ID>
DB07152

>  <COMMON_NAME>
N-[4-(5-fluoro-6-methylpyridin-2-yl)-5-quinoxalin-6-yl-1H-imidazol-2-yl]acetamide

>  <UNII>
3QF3J56NXP

$$$$
