
 OpenBabel10282417072D

 50 53  0  0  1  0  0  0  0  0999 V2000
    1.3895   -1.8497    0.0000 C   0  0  0  0  0  0  0  0  0  0  0  0
    1.7494   -2.5921    0.0000 C   0  0  2  0  0  0  0  0  0  0  0  0
    2.2812   -1.9614    0.0000 C   0  0  0  0  0  0  0  0  0  0  0  0
    3.0934   -2.1066    0.0000 C   0  0  1  0  0  0  0  0  0  0  0  0
    3.3737   -2.8825    0.0000 C   0  0  2  0  0  0  0  0  0  0  0  0
    4.1858   -3.0277    0.0000 C   0  0  0  0  0  0  0  0  0  0  0  0
    4.7176   -2.3970    0.0000 C   0  0  0  0  0  0  0  0  0  0  0  0
    5.5297   -2.5422    0.0000 C   0  0  0  0  0  0  0  0  0  0  0  0
    5.8100   -3.3182    0.0000 C   0  0  0  0  0  0  0  0  0  0  0  0
    5.2782   -3.9489    0.0000 C   0  0  0  0  0  0  0  0  0  0  0  0
    4.4661   -3.8037    0.0000 C   0  0  0  0  0  0  0  0  0  0  0  0
    3.9343   -4.4344    0.0000 C   0  0  0  0  0  0  0  0  0  0  0  0
    3.1221   -4.2891    0.0000 C   0  0  0  0  0  0  0  0  0  0  0  0
    2.8418   -3.5132    0.0000 C   0  0  1  0  0  0  0  0  0  0  0  0
    2.0297   -3.3680    0.0000 C   0  0  2  0  0  0  0  0  0  0  0  0
    1.3784   -3.8744    0.0000 C   0  0  0  0  0  0  0  0  0  0  0  0
    0.6955   -3.4114    0.0000 C   0  0  0  0  0  0  0  0  0  0  0  0
    0.9249   -2.6189    0.0000 C   0  0  1  0  0  0  0  0  0  0  0  0
    0.1640   -2.3000    0.0000 C   0  0  0  0  0  0  0  0  0  0  0  0
   -0.5969   -1.9811    0.0000 C   0  0  0  0  0  0  0  0  0  0  0  0
    0.8035   -1.8029    0.0000 O   0  0  0  0  0  0  0  0  0  0  0  0
    6.6221   -3.4634    0.0000 O   0  0  0  0  0  0  0  0  0  0  0  0
    3.6252   -1.4759    0.0000 O   0  0  0  0  0  0  0  0  0  0  0  0
    4.4373   -1.6211    0.0000 C   0  0  0  0  0  0  0  0  0  0  0  0
    1.9900   -0.9641    0.0000 H   0  0  0  0  0  0  0  0  0  0  0  0
    0.3223   -1.7725    0.0000 H   0  0  0  0  0  0  0  0  0  0  0  0
    0.9227   -0.8869    0.0000 H   0  0  0  0  0  0  0  0  0  0  0  0
    1.9176   -0.9551    0.0000 H   0  0  0  0  0  0  0  0  0  0  0  0
    2.9709   -1.1434    0.0000 H   0  0  0  0  0  0  0  0  0  0  0  0
    2.7298   -1.1003    0.0000 H   0  0  0  0  0  0  0  0  0  0  0  0
    4.0634   -2.0645    0.0000 H   0  0  0  0  0  0  0  0  0  0  0  0
    4.3670   -1.4264    0.0000 H   0  0  0  0  0  0  0  0  0  0  0  0
    6.1950   -1.7532    0.0000 H   0  0  0  0  0  0  0  0  0  0  0  0
    5.6288   -4.9195    0.0000 H   0  0  0  0  0  0  0  0  0  0  0  0
    4.2978   -5.4408    0.0000 H   0  0  0  0  0  0  0  0  0  0  0  0
    3.2445   -5.2524    0.0000 H   0  0  0  0  0  0  0  0  0  0  0  0
    2.4323   -5.1071    0.0000 H   0  0  0  0  0  0  0  0  0  0  0  0
    2.0688   -4.1007    0.0000 H   0  0  0  0  0  0  0  0  0  0  0  0
    3.8951   -3.7016    0.0000 H   0  0  0  0  0  0  0  0  0  0  0  0
    2.2861   -4.4068    0.0000 H   0  0  0  0  0  0  0  0  0  0  0  0
    1.4132   -4.9438    0.0000 H   0  0  0  0  0  0  0  0  0  0  0  0
    0.4413   -4.3909    0.0000 H   0  0  0  0  0  0  0  0  0  0  0  0
   -0.3109   -3.7749    0.0000 H   0  0  0  0  0  0  0  0  0  0  0  0
   -0.0852   -2.6797    0.0000 H   0  0  0  0  0  0  0  0  0  0  0  0
   -1.5136   -1.5969    0.0000 H   0  0  0  0  0  0  0  0  0  0  0  0
    1.5630   -1.1996    0.0000 H   0  0  0  0  0  0  0  0  0  0  0  0
    6.9405   -4.3447    0.0000 H   0  0  0  0  0  0  0  0  0  0  0  0
    4.8009   -2.6274    0.0000 H   0  0  0  0  0  0  0  0  0  0  0  0
    5.1270   -0.8031    0.0000 H   0  0  0  0  0  0  0  0  0  0  0  0
    5.4906   -1.8094    0.0000 H   0  0  0  0  0  0  0  0  0  0  0  0
  1 25  1  0  0  0  0
  1 26  1  0  0  0  0
  1 27  1  0  0  0  0
  2  1  1  6  0  0  0
  2  3  1  0  0  0  0
  2 15  1  0  0  0  0
  2 18  1  0  0  0  0
  3  4  1  0  0  0  0
  3 28  1  0  0  0  0
  3 29  1  0  0  0  0
  4  5  1  0  0  0  0
  4 23  1  0  0  0  0
  4 30  1  1  0  0  0
  5  6  1  0  0  0  0
  5 14  1  0  0  0  0
  5 31  1  1  0  0  0
  6  7  2  0  0  0  0
  6 11  1  0  0  0  0
  7  8  1  0  0  0  0
  7 32  1  0  0  0  0
  8  9  2  0  0  0  0
  8 33  1  0  0  0  0
  9 10  1  0  0  0  0
  9 22  1  0  0  0  0
 10 11  2  0  0  0  0
 10 34  1  0  0  0  0
 11 12  1  0  0  0  0
 12 13  1  0  0  0  0
 12 35  1  0  0  0  0
 12 36  1  0  0  0  0
 13 37  1  0  0  0  0
 13 38  1  0  0  0  0
 14 13  1  0  0  0  0
 14 15  1  0  0  0  0
 14 39  1  6  0  0  0
 15 16  1  0  0  0  0
 15 40  1  1  0  0  0
 16 17  1  0  0  0  0
 16 41  1  0  0  0  0
 16 42  1  0  0  0  0
 17 18  1  0  0  0  0
 17 43  1  0  0  0  0
 17 44  1  0  0  0  0
 18 19  1  1  0  0  0
 18 21  1  0  0  0  0
 19 20  3  0  0  0  0
 20 45  1  0  0  0  0
 21 46  1  0  0  0  0
 22 47  1  0  0  0  0
 23 24  1  0  0  0  0
 24 48  1  0  0  0  0
 24 49  1  0  0  0  0
 24 50  1  0  0  0  0
M  END
>  <DRUGBANK_ID>
DB13418

>  <COMMON_NAME>
Moxestrol

>  <CAS_NUMBER>
34816-55-2

>  <UNII>
6923NT44OW

>  <SYNONYMS>
Moxestrol

$$$$
