1499
 OpenBabel10282417072D

 45 46  0  0  1  0  0  0  0  0999 V2000
    3.0573    0.6582    0.0000 O   0  0  0  0  0  0  0  0  0  0  0  0
    1.6500    0.9064    0.0000 O   0  0  0  0  0  0  0  0  0  0  0  0
    3.4698   -1.7063    0.0000 N   0  0  0  0  0  0  0  0  0  0  0  0
    3.4698   -0.0563    0.0000 C   0  0  1  0  0  0  0  0  0  0  0  0
    2.7553   -0.4688    0.0000 C   0  0  2  0  0  0  0  0  0  0  0  0
    4.1843   -0.4688    0.0000 C   0  0  0  0  0  0  0  0  0  0  0  0
    2.7553   -1.2938    0.0000 C   0  0  0  0  0  0  0  0  0  0  0  0
    4.1843   -1.2938    0.0000 C   0  0  0  0  0  0  0  0  0  0  0  0
    1.9428   -0.6121    0.0000 C   0  0  0  0  0  0  0  0  0  0  0  0
    3.8823    0.6582    0.0000 C   0  0  0  0  0  0  0  0  0  0  0  0
    3.4698   -2.5313    0.0000 C   0  0  0  0  0  0  0  0  0  0  0  0
    1.6606   -1.3873    0.0000 C   0  0  0  0  0  0  0  0  0  0  0  0
    3.4698    1.3727    0.0000 C   0  0  0  0  0  0  0  0  0  0  0  0
    4.7073    0.6582    0.0000 C   0  0  0  0  0  0  0  0  0  0  0  0
    2.4254    1.1886    0.0000 C   0  0  0  0  0  0  0  0  0  0  0  0
    3.8823    2.0872    0.0000 C   0  0  0  0  0  0  0  0  0  0  0  0
    5.1198    1.3727    0.0000 C   0  0  0  0  0  0  0  0  0  0  0  0
    2.5685    2.0010    0.0000 C   0  0  0  0  0  0  0  0  0  0  0  0
    4.7073    2.0872    0.0000 C   0  0  0  0  0  0  0  0  0  0  0  0
    1.9366    2.5313    0.0000 C   0  0  0  0  0  0  0  0  0  0  0  0
    2.3893    0.5367    0.0000 H   0  0  0  0  0  0  0  0  0  0  0  0
    5.1109    0.0662    0.0000 H   0  0  0  0  0  0  0  0  0  0  0  0
    5.1109   -1.0038    0.0000 H   0  0  0  0  0  0  0  0  0  0  0  0
    1.8287   -1.8288    0.0000 H   0  0  0  0  0  0  0  0  0  0  0  0
    1.8287   -0.7588    0.0000 H   0  0  0  0  0  0  0  0  0  0  0  0
    5.1109   -1.8288    0.0000 H   0  0  0  0  0  0  0  0  0  0  0  0
    5.1109   -0.7588    0.0000 H   0  0  0  0  0  0  0  0  0  0  0  0
    1.2550    0.2076    0.0000 H   0  0  0  0  0  0  0  0  0  0  0  0
    0.8890   -0.7979    0.0000 H   0  0  0  0  0  0  0  0  0  0  0  0
    2.5432   -3.0663    0.0000 H   0  0  0  0  0  0  0  0  0  0  0  0
    4.3964   -3.0663    0.0000 H   0  0  0  0  0  0  0  0  0  0  0  0
    3.4698   -3.6013    0.0000 H   0  0  0  0  0  0  0  0  0  0  0  0
    0.6068   -1.5730    0.0000 H   0  0  0  0  0  0  0  0  0  0  0  0
    2.3483   -2.2070    0.0000 H   0  0  0  0  0  0  0  0  0  0  0  0
    1.2946   -2.3928    0.0000 H   0  0  0  0  0  0  0  0  0  0  0  0
    2.4378    1.3727    0.0000 H   0  0  0  0  0  0  0  0  0  0  0  0
    5.2233   -0.2355    0.0000 H   0  0  0  0  0  0  0  0  0  0  0  0
    3.3663    2.9809    0.0000 H   0  0  0  0  0  0  0  0  0  0  0  0
    6.1518    1.3727    0.0000 H   0  0  0  0  0  0  0  0  0  0  0  0
    3.5740    2.3670    0.0000 H   0  0  0  0  0  0  0  0  0  0  0  0
    2.7543    3.0547    0.0000 H   0  0  0  0  0  0  0  0  0  0  0  0
    5.2233    2.9809    0.0000 H   0  0  0  0  0  0  0  0  0  0  0  0
    2.1225    3.5850    0.0000 H   0  0  0  0  0  0  0  0  0  0  0  0
    0.9311    2.1654    0.0000 H   0  0  0  0  0  0  0  0  0  0  0  0
    1.1170    3.2191    0.0000 H   0  0  0  0  0  0  0  0  0  0  0  0
  1 15  1  0  0  0  0
  2 15  2  0  0  0  0
  3  7  1  0  0  0  0
  3  8  1  0  0  0  0
  3 11  1  0  0  0  0
  4  1  1  6  0  0  0
  4  5  1  0  0  0  0
  4  6  1  0  0  0  0
  4 10  1  0  0  0  0
  5  7  1  0  0  0  0
  5  9  1  0  0  0  0
  5 21  1  1  0  0  0
  6  8  1  0  0  0  0
  6 22  1  0  0  0  0
  6 23  1  0  0  0  0
  7 24  1  0  0  0  0
  7 25  1  0  0  0  0
  8 26  1  0  0  0  0
  8 27  1  0  0  0  0
  9 12  1  0  0  0  0
  9 28  1  0  0  0  0
  9 29  1  0  0  0  0
 10 13  2  0  0  0  0
 10 14  1  0  0  0  0
 11 30  1  0  0  0  0
 11 31  1  0  0  0  0
 11 32  1  0  0  0  0
 12 33  1  0  0  0  0
 12 34  1  0  0  0  0
 12 35  1  0  0  0  0
 13 16  1  0  0  0  0
 13 36  1  0  0  0  0
 14 17  2  0  0  0  0
 14 37  1  0  0  0  0
 15 18  1  0  0  0  0
 16 19  2  0  0  0  0
 16 38  1  0  0  0  0
 17 19  1  0  0  0  0
 17 39  1  0  0  0  0
 18 20  1  0  0  0  0
 18 40  1  0  0  0  0
 18 41  1  0  0  0  0
 19 42  1  0  0  0  0
 20 43  1  0  0  0  0
 20 44  1  0  0  0  0
 20 45  1  0  0  0  0
M  END
>  <DRUGBANK_ID>
DB01499

>  <COMMON_NAME>
Alphameprodine

>  <CAS_NUMBER>
468-51-9

>  <UNII>
1177I648L1

>  <SYNONYMS>
3alpha-Ethyl-1-methyl-4-phenyl-4alpha-piperidyl propionat; Alfameprodina; alpha-3-ethyl-1-methyl-4-phenyl-4-propionoxypiperidine; alpha-3-Ethyl-1-methyl-4-phenyl-4-propionyloxypiperidine; Alphameprodine; Alphameprodinum

$$$$
