
 OpenBabel10282417072D

 32 32  0  0  0  0  0  0  0  0999 V2000
    0.9626    2.6447    0.0000 C   0  0  0  0  0  0  0  0  0  0  0  0
    1.2448    1.8695    0.0000 C   0  0  0  0  0  0  0  0  0  0  0  0
    2.0572    1.7262    0.0000 C   0  0  0  0  0  0  0  0  0  0  0  0
    0.7145    1.2375    0.0000 C   0  0  3  0  0  0  0  0  0  0  0  0
    1.4289    0.8250    0.0000 C   0  0  0  0  0  0  0  0  0  0  0  0
    2.1434    1.2375    0.0000 O   0  0  0  0  0  0  0  0  0  0  0  0
    1.4289   -0.0000    0.0000 N   0  0  0  0  0  0  0  0  0  0  0  0
    0.7145   -0.4125    0.0000 C   0  0  0  0  0  0  0  0  0  0  0  0
    0.7145   -1.2375    0.0000 O   0  0  0  0  0  0  0  0  0  0  0  0
    0.0000    0.0000    0.0000 N   0  0  0  0  0  0  0  0  0  0  0  0
    0.0000    0.8250    0.0000 C   0  0  0  0  0  0  0  0  0  0  0  0
   -0.7145    1.2375    0.0000 O   0  0  0  0  0  0  0  0  0  0  0  0
   -0.7145   -0.4125    0.0000 C   0  0  0  0  0  0  0  0  0  0  0  0
    0.1842    1.8695    0.0000 C   0  0  0  0  0  0  0  0  0  0  0  0
    0.4663    2.6447    0.0000 C   0  0  0  0  0  0  0  0  0  0  0  0
   -0.0640    3.2767    0.0000 C   0  0  0  0  0  0  0  0  0  0  0  0
    1.1948    3.0320    0.0000 Br  0  0  0  0  0  0  0  0  0  0  0  0
    1.6503    3.4644    0.0000 H   0  0  0  0  0  0  0  0  0  0  0  0
   -0.0912    2.8304    0.0000 H   0  0  0  0  0  0  0  0  0  0  0  0
    0.5966    3.6502    0.0000 H   0  0  0  0  0  0  0  0  0  0  0  0
    1.6107    0.8640    0.0000 H   0  0  0  0  0  0  0  0  0  0  0  0
    2.4231    0.7207    0.0000 H   0  0  0  0  0  0  0  0  0  0  0  0
    2.7450    2.5458    0.0000 H   0  0  0  0  0  0  0  0  0  0  0  0
    3.1109    1.5403    0.0000 H   0  0  0  0  0  0  0  0  0  0  0  0
    2.2815   -0.4922    0.0000 H   0  0  0  0  0  0  0  0  0  0  0  0
   -1.6411    0.1225    0.0000 H   0  0  0  0  0  0  0  0  0  0  0  0
   -0.7145   -1.4825    0.0000 H   0  0  0  0  0  0  0  0  0  0  0  0
   -1.6412   -0.9475    0.0000 H   0  0  0  0  0  0  0  0  0  0  0  0
   -0.8695    1.6837    0.0000 H   0  0  0  0  0  0  0  0  0  0  0  0
   -0.5036    2.6891    0.0000 H   0  0  0  0  0  0  0  0  0  0  0  0
    0.2890    4.2465    0.0000 H   0  0  0  0  0  0  0  0  0  0  0  0
   -1.0803    3.0975    0.0000 H   0  0  0  0  0  0  0  0  0  0  0  0
  1  2  1  0  0  0  0
  1 18  1  0  0  0  0
  1 19  1  0  0  0  0
  1 20  1  0  0  0  0
  2  3  1  0  0  0  0
  2  4  1  0  0  0  0
  2 21  1  0  0  0  0
  3 22  1  0  0  0  0
  3 23  1  0  0  0  0
  3 24  1  0  0  0  0
  4  5  1  0  0  0  0
  4 11  1  0  0  0  0
  4 14  1  0  0  0  0
  5  6  2  0  0  0  0
  5  7  1  0  0  0  0
  7  8  1  0  0  0  0
  7 25  1  0  0  0  0
  8  9  2  0  0  0  0
  8 10  1  0  0  0  0
 10 11  1  0  0  0  0
 10 13  1  0  0  0  0
 11 12  2  0  0  0  0
 13 26  1  0  0  0  0
 13 27  1  0  0  0  0
 13 28  1  0  0  0  0
 14 15  1  0  0  0  0
 14 29  1  0  0  0  0
 14 30  1  0  0  0  0
 15 16  2  0  0  0  0
 15 17  1  0  0  0  0
 16 31  1  0  0  0  0
 16 32  1  0  0  0  0
M  END
>  <DRUGBANK_ID>
DB13229

>  <COMMON_NAME>
Enibomal

>  <CAS_NUMBER>
125-55-3

>  <UNII>
A77U8G9H84

>  <SYNONYMS>
Narcobarbital

$$$$
