
 OpenBabel10282417072D

 66 69  0  0  0  0  0  0  0  0999 V2000
    5.5739    1.8181    0.0000 Cl  0  0  0  0  0  0  0  0  0  0  0  0
    2.1446    1.2117    0.0000 F   0  0  0  0  0  0  0  0  0  0  0  0
    1.5732    0.9917    0.0000 F   0  0  0  0  0  0  0  0  0  0  0  0
    1.5732    0.3318    0.0000 F   0  0  0  0  0  0  0  0  0  0  0  0
    2.8607   -0.5765    0.0000 O   0  0  0  0  0  0  0  0  0  0  0  0
   -4.2871    0.2351    0.0000 O   0  0  0  0  0  0  0  0  0  0  0  0
   -3.5756    1.3100    0.0000 O   0  0  0  0  0  0  0  0  0  0  0  0
    2.8588    1.9008    0.0000 N   0  0  0  0  0  0  0  0  0  0  0  0
    2.1150    1.5603    0.0000 N   0  0  0  0  0  0  0  0  0  0  0  0
    2.1467   -1.8156    0.0000 N   0  0  0  0  0  0  0  0  0  0  0  0
    0.7179   -1.8156    0.0000 N   0  0  0  0  0  0  0  0  0  0  0  0
    1.4322   -2.8882    0.0000 N   0  0  0  0  0  0  0  0  0  0  0  0
   -2.8550   -0.4200    0.0000 N   0  0  0  0  0  0  0  0  0  0  0  0
    2.8596    0.2488    0.0000 C   0  0  2  0  0  0  0  0  0  0  0  0
    3.5735    0.6630    0.0000 C   0  0  0  0  0  0  0  0  0  0  0  0
    2.1448    0.6617    0.0000 C   0  0  0  0  0  0  0  0  0  0  0  0
    3.5735    1.4881    0.0000 C   0  0  0  0  0  0  0  0  0  0  0  0
    4.2881    0.2506    0.0000 C   0  0  0  0  0  0  0  0  0  0  0  0
    2.1467   -0.9907    0.0000 C   0  0  0  0  0  0  0  0  0  0  0  0
    4.2880    1.9006    0.0000 C   0  0  0  0  0  0  0  0  0  0  0  0
    5.0025    1.4881    0.0000 C   0  0  0  0  0  0  0  0  0  0  0  0
    5.0025    0.6631    0.0000 C   0  0  0  0  0  0  0  0  0  0  0  0
    1.4322   -0.5782    0.0000 C   0  0  0  0  0  0  0  0  0  0  0  0
    2.7842    2.7153    0.0000 C   0  0  0  0  0  0  0  0  0  0  0  0
    0.7179   -0.9907    0.0000 C   0  0  0  0  0  0  0  0  0  0  0  0
    1.5639    2.1743    0.0000 C   0  0  0  0  0  0  0  0  0  0  0  0
    1.4322   -2.2281    0.0000 C   0  0  0  0  0  0  0  0  0  0  0  0
    1.9775    2.8882    0.0000 C   0  0  0  0  0  0  0  0  0  0  0  0
    0.0030   -0.5780    0.0000 C   0  0  0  0  0  0  0  0  0  0  0  0
    0.0016    0.2469    0.0000 C   0  0  0  0  0  0  0  0  0  0  0  0
   -0.7108   -0.9915    0.0000 C   0  0  0  0  0  0  0  0  0  0  0  0
   -1.4272    0.2446    0.0000 C   0  0  0  0  0  0  0  0  0  0  0  0
    0.9074    2.1064    0.0000 C   0  0  0  0  0  0  0  0  0  0  0  0
   -0.7135    0.6583    0.0000 C   0  0  0  0  0  0  0  0  0  0  0  0
   -1.4258   -0.5802    0.0000 C   0  0  0  0  0  0  0  0  0  0  0  0
   -2.8572    0.2399    0.0000 C   0  0  1  0  0  0  0  0  0  0  0  0
   -2.1436    0.6548    0.0000 C   0  0  0  0  0  0  0  0  0  0  0  0
   -3.5734    0.6500    0.0000 C   0  0  0  0  0  0  0  0  0  0  0  0
   -5.0035    0.6452    0.0000 C   0  0  0  0  0  0  0  0  0  0  0  0
   -5.5739    0.3136    0.0000 C   0  0  0  0  0  0  0  0  0  0  0  0
    0.5796   -3.3804    0.0000 H   0  0  0  0  0  0  0  0  0  0  0  0
    2.2848   -3.3804    0.0000 H   0  0  0  0  0  0  0  0  0  0  0  0
   -3.7366   -0.9329    0.0000 H   0  0  0  0  0  0  0  0  0  0  0  0
   -1.9700   -0.9271    0.0000 H   0  0  0  0  0  0  0  0  0  0  0  0
    3.7872   -0.2846    0.0000 H   0  0  0  0  0  0  0  0  0  0  0  0
    4.2882   -0.7814    0.0000 H   0  0  0  0  0  0  0  0  0  0  0  0
    4.2880    2.9326    0.0000 H   0  0  0  0  0  0  0  0  0  0  0  0
    5.8962    0.1471    0.0000 H   0  0  0  0  0  0  0  0  0  0  0  0
    1.4321    0.4538    0.0000 H   0  0  0  0  0  0  0  0  0  0  0  0
    3.5563    3.4000    0.0000 H   0  0  0  0  0  0  0  0  0  0  0  0
    1.5593    3.8316    0.0000 H   0  0  0  0  0  0  0  0  0  0  0  0
    0.8945    0.7643    0.0000 H   0  0  0  0  0  0  0  0  0  0  0  0
   -0.7092   -2.0235    0.0000 H   0  0  0  0  0  0  0  0  0  0  0  0
    0.2799    2.9731    0.0000 H   0  0  0  0  0  0  0  0  0  0  0  0
    0.4706    1.1296    0.0000 H   0  0  0  0  0  0  0  0  0  0  0  0
   -0.1569    1.9963    0.0000 H   0  0  0  0  0  0  0  0  0  0  0  0
   -0.7152    1.6903    0.0000 H   0  0  0  0  0  0  0  0  0  0  0  0
   -2.3187   -1.0977    0.0000 H   0  0  0  0  0  0  0  0  0  0  0  0
   -1.9289   -0.2921    0.0000 H   0  0  0  0  0  0  0  0  0  0  0  0
   -2.1471    1.7248    0.0000 H   0  0  0  0  0  0  0  0  0  0  0  0
   -3.0719    1.1869    0.0000 H   0  0  0  0  0  0  0  0  0  0  0  0
   -5.0071    1.7152    0.0000 H   0  0  0  0  0  0  0  0  0  0  0  0
   -5.9318    1.1773    0.0000 H   0  0  0  0  0  0  0  0  0  0  0  0
   -6.5021    0.8458    0.0000 H   0  0  0  0  0  0  0  0  0  0  0  0
   -5.5707   -0.7564    0.0000 H   0  0  0  0  0  0  0  0  0  0  0  0
   -6.4989   -0.2242    0.0000 H   0  0  0  0  0  0  0  0  0  0  0  0
  1 21  1  0  0  0  0
  5 19  1  0  0  0  0
  6 39  1  0  0  0  0
  8 24  1  0  0  0  0
  9  8  1  0  0  0  0
 10 19  1  0  0  0  0
 11 27  1  0  0  0  0
 12 41  1  0  0  0  0
 12 42  1  0  0  0  0
 13 43  1  0  0  0  0
 13 44  1  0  0  0  0
 14  5  1  0  0  0  0
 14 16  1  0  0  0  0
 14 45  1  6  0  0  0
 15 14  1  0  0  0  0
 15 17  1  0  0  0  0
 16  2  1  0  0  0  0
 16  3  1  0  0  0  0
 16  4  1  0  0  0  0
 17  8  1  0  0  0  0
 17 20  2  0  0  0  0
 18 15  2  0  0  0  0
 18 46  1  0  0  0  0
 19 23  2  0  0  0  0
 20 21  1  0  0  0  0
 20 47  1  0  0  0  0
 21 22  2  0  0  0  0
 22 18  1  0  0  0  0
 22 48  1  0  0  0  0
 23 25  1  0  0  0  0
 23 49  1  0  0  0  0
 24 28  2  0  0  0  0
 24 50  1  0  0  0  0
 25 11  2  0  0  0  0
 25 29  1  0  0  0  0
 26  9  2  0  0  0  0
 26 33  1  0  0  0  0
 27 10  2  0  0  0  0
 27 12  1  0  0  0  0
 28 26  1  0  0  0  0
 28 51  1  0  0  0  0
 29 31  1  0  0  0  0
 30 29  2  0  0  0  0
 30 52  1  0  0  0  0
 31 35  2  0  0  0  0
 31 53  1  0  0  0  0
 32 34  2  0  0  0  0
 32 37  1  0  0  0  0
 33 54  1  0  0  0  0
 33 55  1  0  0  0  0
 33 56  1  0  0  0  0
 34 30  1  0  0  0  0
 34 57  1  0  0  0  0
 35 32  1  0  0  0  0
 35 58  1  0  0  0  0
 36 13  1  0  0  0  0
 36 38  1  0  0  0  0
 36 59  1  1  0  0  0
 37 36  1  0  0  0  0
 37 60  1  0  0  0  0
 37 61  1  0  0  0  0
 38  6  1  0  0  0  0
 38  7  2  0  0  0  0
 39 40  1  0  0  0  0
 39 62  1  0  0  0  0
 39 63  1  0  0  0  0
 40 64  1  0  0  0  0
 40 65  1  0  0  0  0
 40 66  1  0  0  0  0
M  END
>  <DRUGBANK_ID>
DB12095

>  <COMMON_NAME>
Telotristat ethyl

>  <CAS_NUMBER>
1033805-22-9

>  <UNII>
8G388563M7

>  <SYNONYMS>
Telotristat ethyl

$$$$
