
 OpenBabel10282417072D

 46 47  0  0  1  0  0  0  0  0999 V2000
    3.0791    0.2063    0.0000 O   0  0  0  0  0  0  0  0  0  0  0  0
    2.3645   -2.6813    0.0000 O   0  0  0  0  0  0  0  0  0  0  0  0
    5.2224   -2.6813    0.0000 O   0  0  0  0  0  0  0  0  0  0  0  0
    3.7935   -3.5063    0.0000 O   0  0  0  0  0  0  0  0  0  0  0  0
    4.5080    3.5063    0.0000 O   0  0  0  0  0  0  0  0  0  0  0  0
    5.9370    2.6813    0.0000 O   0  0  0  0  0  0  0  0  0  0  0  0
    3.7935   -0.2063    0.0000 C   0  0  1  0  0  0  0  0  0  0  0  0
    4.5080    0.2063    0.0000 C   0  0  0  0  0  0  0  0  0  0  0  0
    3.7935   -1.0313    0.0000 C   0  0  0  0  0  0  0  0  0  0  0  0
    4.5080    1.0313    0.0000 C   0  0  0  0  0  0  0  0  0  0  0  0
    4.5080   -1.4438    0.0000 C   0  0  0  0  0  0  0  0  0  0  0  0
    3.0791   -1.4438    0.0000 C   0  0  0  0  0  0  0  0  0  0  0  0
    3.0791   -2.2688    0.0000 C   0  0  0  0  0  0  0  0  0  0  0  0
    4.5080   -2.2688    0.0000 C   0  0  0  0  0  0  0  0  0  0  0  0
    5.2224    1.4438    0.0000 C   0  0  0  0  0  0  0  0  0  0  0  0
    3.7935    1.4438    0.0000 C   0  0  0  0  0  0  0  0  0  0  0  0
    3.7935   -2.6813    0.0000 C   0  0  0  0  0  0  0  0  0  0  0  0
    5.2224    2.2688    0.0000 C   0  0  0  0  0  0  0  0  0  0  0  0
    3.7935    2.2688    0.0000 C   0  0  0  0  0  0  0  0  0  0  0  0
    4.5080    2.6813    0.0000 C   0  0  0  0  0  0  0  0  0  0  0  0
    1.6500   -2.2688    0.0000 C   0  0  0  0  0  0  0  0  0  0  0  0
    5.9370   -2.2688    0.0000 C   0  0  0  0  0  0  0  0  0  0  0  0
    3.0791   -3.9188    0.0000 C   0  0  0  0  0  0  0  0  0  0  0  0
    3.7935    3.9188    0.0000 C   0  0  0  0  0  0  0  0  0  0  0  0
    3.0792    1.1763    0.0000 H   0  0  0  0  0  0  0  0  0  0  0  0
    6.7484    2.2127    0.0000 H   0  0  0  0  0  0  0  0  0  0  0  0
    3.7935    0.8637    0.0000 H   0  0  0  0  0  0  0  0  0  0  0  0
    5.4347   -0.3287    0.0000 H   0  0  0  0  0  0  0  0  0  0  0  0
    5.4346    0.7413    0.0000 H   0  0  0  0  0  0  0  0  0  0  0  0
    5.4017   -0.9278    0.0000 H   0  0  0  0  0  0  0  0  0  0  0  0
    2.1854   -0.9278    0.0000 H   0  0  0  0  0  0  0  0  0  0  0  0
    6.1161    0.9278    0.0000 H   0  0  0  0  0  0  0  0  0  0  0  0
    2.8998    0.9278    0.0000 H   0  0  0  0  0  0  0  0  0  0  0  0
    2.8998    2.7848    0.0000 H   0  0  0  0  0  0  0  0  0  0  0  0
    1.6500   -1.1988    0.0000 H   0  0  0  0  0  0  0  0  0  0  0  0
    0.7234   -2.8038    0.0000 H   0  0  0  0  0  0  0  0  0  0  0  0
    0.7233   -1.7338    0.0000 H   0  0  0  0  0  0  0  0  0  0  0  0
    6.8636   -2.8039    0.0000 H   0  0  0  0  0  0  0  0  0  0  0  0
    5.9371   -1.1988    0.0000 H   0  0  0  0  0  0  0  0  0  0  0  0
    6.8637   -1.7339    0.0000 H   0  0  0  0  0  0  0  0  0  0  0  0
    2.1524   -3.3838    0.0000 H   0  0  0  0  0  0  0  0  0  0  0  0
    3.0791   -4.9888    0.0000 H   0  0  0  0  0  0  0  0  0  0  0  0
    2.1525   -4.4538    0.0000 H   0  0  0  0  0  0  0  0  0  0  0  0
    3.7935    4.9888    0.0000 H   0  0  0  0  0  0  0  0  0  0  0  0
    2.8669    3.3838    0.0000 H   0  0  0  0  0  0  0  0  0  0  0  0
    2.8668    4.4538    0.0000 H   0  0  0  0  0  0  0  0  0  0  0  0
  1 25  1  0  0  0  0
  2 13  1  0  0  0  0
  2 21  1  0  0  0  0
  3 14  1  0  0  0  0
  3 22  1  0  0  0  0
  4 17  1  0  0  0  0
  4 23  1  0  0  0  0
  5 20  1  0  0  0  0
  5 24  1  0  0  0  0
  6 18  1  0  0  0  0
  6 26  1  0  0  0  0
  7  1  1  0  0  0  0
  7  8  1  0  0  0  0
  7  9  1  0  0  0  0
  7 27  1  6  0  0  0
  8 10  1  0  0  0  0
  8 28  1  0  0  0  0
  8 29  1  0  0  0  0
  9 11  2  0  0  0  0
  9 12  1  0  0  0  0
 10 15  2  0  0  0  0
 10 16  1  0  0  0  0
 11 14  1  0  0  0  0
 11 30  1  0  0  0  0
 12 13  2  0  0  0  0
 12 31  1  0  0  0  0
 13 17  1  0  0  0  0
 14 17  2  0  0  0  0
 15 18  1  0  0  0  0
 15 32  1  0  0  0  0
 16 19  2  0  0  0  0
 16 33  1  0  0  0  0
 18 20  2  0  0  0  0
 19 20  1  0  0  0  0
 19 34  1  0  0  0  0
 21 35  1  0  0  0  0
 21 36  1  0  0  0  0
 21 37  1  0  0  0  0
 22 38  1  0  0  0  0
 22 39  1  0  0  0  0
 22 40  1  0  0  0  0
 23 41  1  0  0  0  0
 23 42  1  0  0  0  0
 23 43  1  0  0  0  0
 24 44  1  0  0  0  0
 24 45  1  0  0  0  0
 24 46  1  0  0  0  0
M  END
>  <DRUGBANK_ID>
DB05284

>  <COMMON_NAME>
CA4P

>  <CAS_NUMBER>
222030-63-9

$$$$
