
 OpenBabel10282417072D

 47 50  0  0  0  0  0  0  0  0999 V2000
   -4.5019   -1.2559    0.0000 C   0  0  0  0  0  0  0  0  0  0  0  0
   -4.5030   -2.0832    0.0000 C   0  0  0  0  0  0  0  0  0  0  0  0
   -3.7882   -2.4961    0.0000 C   0  0  0  0  0  0  0  0  0  0  0  0
   -3.7900   -0.8431    0.0000 C   0  0  0  0  0  0  0  0  0  0  0  0
   -3.0745   -1.2522    0.0000 C   0  0  0  0  0  0  0  0  0  0  0  0
   -3.0739   -2.0791    0.0000 C   0  0  0  0  0  0  0  0  0  0  0  0
   -2.3585   -2.4900    0.0000 N   0  0  0  0  0  0  0  0  0  0  0  0
   -1.6435   -2.0753    0.0000 C   0  0  0  0  0  0  0  0  0  0  0  0
   -1.6483   -1.2453    0.0000 C   0  0  0  0  0  0  0  0  0  0  0  0
   -2.3642   -0.8381    0.0000 C   0  0  0  0  0  0  0  0  0  0  0  0
   -2.3686   -0.0131    0.0000 C   0  0  0  0  0  0  0  0  0  0  0  0
   -1.6563    0.4031    0.0000 N   0  0  0  0  0  0  0  0  0  0  0  0
   -1.6607    1.2281    0.0000 C   0  0  0  0  0  0  0  0  0  0  0  0
   -0.9923    1.7119    0.0000 C   0  0  0  0  0  0  0  0  0  0  0  0
   -1.2515    2.4961    0.0000 S   0  0  0  0  0  0  0  0  0  0  0  0
   -2.0776    2.4905    0.0000 C   0  0  0  0  0  0  0  0  0  0  0  0
   -2.3262    1.7028    0.0000 C   0  0  0  0  0  0  0  0  0  0  0  0
   -0.2072    1.4582    0.0000 C   0  0  0  0  0  0  0  0  0  0  0  0
   -0.0343    0.6517    0.0000 O   0  0  0  0  0  0  0  0  0  0  0  0
    0.4048    2.0114    0.0000 N   0  0  0  0  0  0  0  0  0  0  0  0
    1.1899    1.7578    0.0000 C   0  0  0  0  0  0  0  0  0  0  0  0
    1.3609    0.9525    0.0000 C   0  0  0  0  0  0  0  0  0  0  0  0
    2.1450    0.6988    0.0000 C   0  0  0  0  0  0  0  0  0  0  0  0
    2.7581    1.2522    0.0000 C   0  0  0  0  0  0  0  0  0  0  0  0
    2.5818    2.0625    0.0000 C   0  0  0  0  0  0  0  0  0  0  0  0
    1.7978    2.3124    0.0000 C   0  0  0  0  0  0  0  0  0  0  0  0
    3.5435    0.9996    0.0000 O   0  0  0  0  0  0  0  0  0  0  0  0
    3.7176    0.1931    0.0000 C   0  0  0  0  0  0  0  0  0  0  0  0
    4.5030   -0.0593    0.0000 F   0  0  0  0  0  0  0  0  0  0  0  0
    3.1062   -0.3606    0.0000 F   0  0  0  0  0  0  0  0  0  0  0  0
    3.8649   -0.5439    0.0000 F   0  0  0  0  0  0  0  0  0  0  0  0
   -5.3958   -0.7401    0.0000 H   0  0  0  0  0  0  0  0  0  0  0  0
   -5.3971   -2.5985    0.0000 H   0  0  0  0  0  0  0  0  0  0  0  0
   -3.7858   -3.5281    0.0000 H   0  0  0  0  0  0  0  0  0  0  0  0
   -3.7931    0.1889    0.0000 H   0  0  0  0  0  0  0  0  0  0  0  0
   -0.7478   -2.5878    0.0000 H   0  0  0  0  0  0  0  0  0  0  0  0
   -0.7577   -0.7238    0.0000 H   0  0  0  0  0  0  0  0  0  0  0  0
   -3.2981    0.5170    0.0000 H   0  0  0  0  0  0  0  0  0  0  0  0
   -2.3742    1.0569    0.0000 H   0  0  0  0  0  0  0  0  0  0  0  0
   -0.8011   -0.0847    0.0000 H   0  0  0  0  0  0  0  0  0  0  0  0
   -2.6905    3.3208    0.0000 H   0  0  0  0  0  0  0  0  0  0  0  0
   -3.3049    1.3755    0.0000 H   0  0  0  0  0  0  0  0  0  0  0  0
    0.1983    2.9740    0.0000 H   0  0  0  0  0  0  0  0  0  0  0  0
    0.5943    0.2616    0.0000 H   0  0  0  0  0  0  0  0  0  0  0  0
    2.3608   -0.3104    0.0000 H   0  0  0  0  0  0  0  0  0  0  0  0
    3.3451    2.7570    0.0000 H   0  0  0  0  0  0  0  0  0  0  0  0
    1.5771    3.3205    0.0000 H   0  0  0  0  0  0  0  0  0  0  0  0
  1  2  2  0  0  0  0
  1 32  1  0  0  0  0
  2  3  1  0  0  0  0
  2 33  1  0  0  0  0
  3  6  2  0  0  0  0
  3 34  1  0  0  0  0
  4  1  1  0  0  0  0
  4 35  1  0  0  0  0
  5  4  2  0  0  0  0
  5  6  1  0  0  0  0
  6  7  1  0  0  0  0
  7  8  2  0  0  0  0
  8  9  1  0  0  0  0
  8 36  1  0  0  0  0
  9 10  2  0  0  0  0
  9 37  1  0  0  0  0
 10  5  1  0  0  0  0
 10 11  1  0  0  0  0
 11 12  1  0  0  0  0
 11 38  1  0  0  0  0
 11 39  1  0  0  0  0
 12 13  1  0  0  0  0
 12 40  1  0  0  0  0
 13 14  2  0  0  0  0
 14 18  1  0  0  0  0
 14 15  1  0  0  0  0
 15 16  1  0  0  0  0
 16 17  2  0  0  0  0
 16 41  1  0  0  0  0
 17 13  1  0  0  0  0
 17 42  1  0  0  0  0
 18 19  2  0  0  0  0
 18 20  1  0  0  0  0
 20 21  1  0  0  0  0
 20 43  1  0  0  0  0
 21 22  2  0  0  0  0
 22 23  1  0  0  0  0
 22 44  1  0  0  0  0
 23 24  2  0  0  0  0
 23 45  1  0  0  0  0
 24 25  1  0  0  0  0
 24 27  1  0  0  0  0
 25 26  2  0  0  0  0
 25 46  1  0  0  0  0
 26 21  1  0  0  0  0
 26 47  1  0  0  0  0
 27 28  1  0  0  0  0
 28 29  1  0  0  0  0
 28 30  1  0  0  0  0
 28 31  1  0  0  0  0
M  END
>  <DRUGBANK_ID>
DB05913

>  <COMMON_NAME>
OSI-930

>  <CAS_NUMBER>
728033-96-3

>  <UNII>
G1PEG5Q9Y2

$$$$
