
 OpenBabel10282417072D

 66 70  0  0  1  0  0  0  0  0999 V2000
    5.3945    1.8414    0.0000 N   0  0  0  0  0  0  0  0  0  0  0  0
    4.9820    1.1270    0.0000 C   0  0  0  0  0  0  0  0  0  0  0  0
    5.3945    0.4125    0.0000 N   0  0  0  0  0  0  0  0  0  0  0  0
    4.9820   -0.3020    0.0000 C   0  0  0  0  0  0  0  0  0  0  0  0
    5.3945   -1.0164    0.0000 O   0  0  0  0  0  0  0  0  0  0  0  0
    6.2195   -1.0164    0.0000 C   0  0  2  0  0  0  0  0  0  0  0  0
    6.6320   -1.7309    0.0000 C   0  0  0  0  0  0  0  0  0  0  0  0
    7.4570   -1.7309    0.0000 C   0  0  0  0  0  0  0  0  0  0  0  0
    7.8695   -2.4454    0.0000 C   0  0  0  0  0  0  0  0  0  0  0  0
    7.4570   -3.1599    0.0000 C   0  0  0  0  0  0  0  0  0  0  0  0
    7.8695   -3.8743    0.0000 Cl  0  0  0  0  0  0  0  0  0  0  0  0
    6.6320   -3.1599    0.0000 C   0  0  0  0  0  0  0  0  0  0  0  0
    6.2195   -2.4454    0.0000 C   0  0  0  0  0  0  0  0  0  0  0  0
    5.3945   -2.4454    0.0000 C   0  0  0  0  0  0  0  0  0  0  0  0
    4.9820   -3.1599    0.0000 C   0  0  0  0  0  0  0  0  0  0  0  0
    4.1570   -3.1599    0.0000 C   0  0  0  0  0  0  0  0  0  0  0  0
    3.7445   -2.4454    0.0000 C   0  0  0  0  0  0  0  0  0  0  0  0
    4.1570   -1.7309    0.0000 C   0  0  0  0  0  0  0  0  0  0  0  0
    4.9820   -1.7309    0.0000 C   0  0  0  0  0  0  0  0  0  0  0  0
    6.6320   -0.3020    0.0000 C   0  0  0  0  0  0  0  0  0  0  0  0
    7.0445    0.4125    0.0000 F   0  0  0  0  0  0  0  0  0  0  0  0
    7.3465   -0.7145    0.0000 F   0  0  0  0  0  0  0  0  0  0  0  0
    5.9176    0.1105    0.0000 F   0  0  0  0  0  0  0  0  0  0  0  0
    4.1570   -0.3020    0.0000 C   0  0  0  0  0  0  0  0  0  0  0  0
    3.7445    0.4125    0.0000 C   0  0  0  0  0  0  0  0  0  0  0  0
    4.1570    1.1270    0.0000 N   0  0  0  0  0  0  0  0  0  0  0  0
    2.9195    0.4125    0.0000 N   0  0  0  0  0  0  0  0  0  0  0  0
    2.5070   -0.3020    0.0000 C   0  0  0  0  0  0  0  0  0  0  0  0
    1.6820   -0.3020    0.0000 C   0  0  0  0  0  0  0  0  0  0  0  0
    1.2695    0.4125    0.0000 C   0  0  3  0  0  0  0  0  0  0  0  0
    0.7846   -0.2549    0.0000 C   0  0  0  0  0  0  0  0  0  0  0  0
    0.0000   -0.0000    0.0000 N   0  0  0  0  0  0  0  0  0  0  0  0
   -0.0000    0.8250    0.0000 C   0  0  1  0  0  0  0  0  0  0  0  0
    0.7846    1.0799    0.0000 C   0  0  0  0  0  0  0  0  0  0  0  0
   -0.6674    1.3099    0.0000 C   0  0  0  0  0  0  0  0  0  0  0  0
   -1.4211    0.9744    0.0000 O   0  0  0  0  0  0  0  0  0  0  0  0
   -0.5812    2.1304    0.0000 O   0  0  0  0  0  0  0  0  0  0  0  0
    1.6820    1.1270    0.0000 C   0  0  0  0  0  0  0  0  0  0  0  0
    2.5070    1.1270    0.0000 C   0  0  0  0  0  0  0  0  0  0  0  0
    6.3790    1.8414    0.0000 H   0  0  0  0  0  0  0  0  0  0  0  0
    4.9023    2.6940    0.0000 H   0  0  0  0  0  0  0  0  0  0  0  0
    5.6845   -1.9430    0.0000 H   0  0  0  0  0  0  0  0  0  0  0  0
    7.9730   -0.8372    0.0000 H   0  0  0  0  0  0  0  0  0  0  0  0
    8.9015   -2.4454    0.0000 H   0  0  0  0  0  0  0  0  0  0  0  0
    6.1160   -4.0536    0.0000 H   0  0  0  0  0  0  0  0  0  0  0  0
    5.4980   -4.0536    0.0000 H   0  0  0  0  0  0  0  0  0  0  0  0
    3.6410   -4.0536    0.0000 H   0  0  0  0  0  0  0  0  0  0  0  0
    2.7125   -2.4454    0.0000 H   0  0  0  0  0  0  0  0  0  0  0  0
    3.6410   -0.8372    0.0000 H   0  0  0  0  0  0  0  0  0  0  0  0
    5.4980   -0.8372    0.0000 H   0  0  0  0  0  0  0  0  0  0  0  0
    3.6410   -1.1957    0.0000 H   0  0  0  0  0  0  0  0  0  0  0  0
    3.0420   -1.2286    0.0000 H   0  0  0  0  0  0  0  0  0  0  0  0
    1.9720   -1.2286    0.0000 H   0  0  0  0  0  0  0  0  0  0  0  0
    1.1470   -1.2286    0.0000 H   0  0  0  0  0  0  0  0  0  0  0  0
    0.6120   -0.3020    0.0000 H   0  0  0  0  0  0  0  0  0  0  0  0
    1.1153   -1.2725    0.0000 H   0  0  0  0  0  0  0  0  0  0  0  0
    0.0280   -1.0115    0.0000 H   0  0  0  0  0  0  0  0  0  0  0  0
   -0.8252   -0.5996    0.0000 H   0  0  0  0  0  0  0  0  0  0  0  0
   -0.9534    0.3392    0.0000 H   0  0  0  0  0  0  0  0  0  0  0  0
    1.1153    2.0975    0.0000 H   0  0  0  0  0  0  0  0  0  0  0  0
    1.8414    1.2473    0.0000 H   0  0  0  0  0  0  0  0  0  0  0  0
   -2.1791    1.5252    0.0000 H   0  0  0  0  0  0  0  0  0  0  0  0
    1.1470    2.0536    0.0000 H   0  0  0  0  0  0  0  0  0  0  0  0
    2.2170    2.0536    0.0000 H   0  0  0  0  0  0  0  0  0  0  0  0
    3.0420    2.0536    0.0000 H   0  0  0  0  0  0  0  0  0  0  0  0
    3.5770    1.1270    0.0000 H   0  0  0  0  0  0  0  0  0  0  0  0
  1  2  1  0  0  0  0
  1 40  1  0  0  0  0
  1 41  1  0  0  0  0
  2  3  2  0  0  0  0
  2 26  1  0  0  0  0
  3  4  1  0  0  0  0
  4  5  1  0  0  0  0
  4 24  2  0  0  0  0
  6  5  1  0  0  0  0
  6  7  1  0  0  0  0
  6 20  1  0  0  0  0
  6 42  1  6  0  0  0
  7  8  2  0  0  0  0
  7 13  1  0  0  0  0
  8  9  1  0  0  0  0
  8 43  1  0  0  0  0
  9 10  2  0  0  0  0
  9 44  1  0  0  0  0
 10 11  1  0  0  0  0
 10 12  1  0  0  0  0
 12 13  2  0  0  0  0
 12 45  1  0  0  0  0
 13 14  1  0  0  0  0
 14 15  2  0  0  0  0
 14 19  1  0  0  0  0
 15 16  1  0  0  0  0
 15 46  1  0  0  0  0
 16 17  2  0  0  0  0
 16 47  1  0  0  0  0
 17 18  1  0  0  0  0
 17 48  1  0  0  0  0
 18 19  2  0  0  0  0
 18 49  1  0  0  0  0
 19 50  1  0  0  0  0
 20 21  1  0  0  0  0
 20 22  1  0  0  0  0
 20 23  1  0  0  0  0
 24 25  1  0  0  0  0
 24 51  1  0  0  0  0
 25 26  2  0  0  0  0
 25 27  1  0  0  0  0
 27 28  1  0  0  0  0
 27 39  1  0  0  0  0
 28 29  1  0  0  0  0
 28 52  1  0  0  0  0
 28 53  1  0  0  0  0
 29 30  1  0  0  0  0
 29 54  1  0  0  0  0
 29 55  1  0  0  0  0
 30 31  1  0  0  0  0
 30 34  1  0  0  0  0
 30 38  1  0  0  0  0
 31 32  1  0  0  0  0
 31 56  1  0  0  0  0
 31 57  1  0  0  0  0
 32 58  1  0  0  0  0
 33 32  1  0  0  0  0
 33 34  1  0  0  0  0
 33 35  1  0  0  0  0
 33 59  1  1  0  0  0
 34 60  1  0  0  0  0
 34 61  1  0  0  0  0
 35 36  1  0  0  0  0
 35 37  2  0  0  0  0
 36 62  1  0  0  0  0
 38 39  1  0  0  0  0
 38 63  1  0  0  0  0
 38 64  1  0  0  0  0
 39 65  1  0  0  0  0
 39 66  1  0  0  0  0
M  END
>  <DRUGBANK_ID>
DB18478

>  <COMMON_NAME>
Rodatristat

>  <CAS_NUMBER>
1673568-73-4

>  <UNII>
91D8378G2V

>  <SYNONYMS>
(3s)-8-(2-amino-6-((1r)-1-(5-chloro(1,1'-biphenyl)-2-yl)-2,2,2-trifluoroethoxy)-4-pyrimidinyl)-2,8-diazaspiro(4.5)decane-3-carboxylic acid; (3s)-8-(2-amino-6-((1r)-1-(5-chloro(1,1'-biphenyl)-2-yl)-2,2,2-trifluoroethoxy)pyrimidin-4-yl)-2,8-diazaspiro(4.5)decane-3-carboxylic acid; 2,8-diazaspiro(4.5)decane-3-carboxylic acid, 8-(2-amino-6-((1r)-1-(5-chloro(1,1'-biphenyl)-2-yl)-2,2,2-trifluoroethoxy)-4-pyrimidinyl)-, (3s)-

$$$$
