
 OpenBabel10282417072D

 75 76  0  0  1  0  0  0  0  0999 V2000
    5.7158  -11.5500    0.0000 C   0  0  0  0  0  0  0  0  0  0  0  0
    6.4302  -11.1375    0.0000 S   0  0  0  0  0  0  0  0  0  0  0  0
    7.1447  -11.5500    0.0000 C   0  0  0  0  0  0  0  0  0  0  0  0
    7.8592  -11.1375    0.0000 C   0  0  0  0  0  0  0  0  0  0  0  0
    8.5737  -11.5500    0.0000 C   0  0  1  0  0  0  0  0  0  0  0  0
    8.5737  -12.3750    0.0000 C   0  0  0  0  0  0  0  0  0  0  0  0
    7.8592  -12.7875    0.0000 O   0  0  0  0  0  0  0  0  0  0  0  0
    9.2881  -12.7875    0.0000 O   0  0  0  0  0  0  0  0  0  0  0  0
    9.2881  -11.1375    0.0000 N   0  0  0  0  0  0  0  0  0  0  0  0
   10.0026  -11.5500    0.0000 C   0  0  0  0  0  0  0  0  0  0  0  0
   10.0026  -12.3750    0.0000 O   0  0  0  0  0  0  0  0  0  0  0  0
   10.7171  -11.1375    0.0000 C   0  0  2  0  0  0  0  0  0  0  0  0
   10.7171  -10.3125    0.0000 C   0  0  0  0  0  0  0  0  0  0  0  0
   10.0026   -9.9000    0.0000 C   0  0  0  0  0  0  0  0  0  0  0  0
    9.2881  -10.3125    0.0000 C   0  0  0  0  0  0  0  0  0  0  0  0
    8.5737   -9.9000    0.0000 C   0  0  0  0  0  0  0  0  0  0  0  0
    8.5737   -9.0750    0.0000 C   0  0  0  0  0  0  0  0  0  0  0  0
    9.2881   -8.6625    0.0000 C   0  0  0  0  0  0  0  0  0  0  0  0
   10.0026   -9.0750    0.0000 C   0  0  0  0  0  0  0  0  0  0  0  0
   11.4315  -11.5500    0.0000 N   0  0  0  0  0  0  0  0  0  0  0  0
   12.1460  -11.1375    0.0000 C   0  0  0  0  0  0  0  0  0  0  0  0
   12.1460  -10.3125    0.0000 O   0  0  0  0  0  0  0  0  0  0  0  0
   12.8605  -11.5500    0.0000 C   0  0  0  0  0  0  0  0  0  0  0  0
   13.5749  -11.1375    0.0000 N   0  0  0  0  0  0  0  0  0  0  0  0
   14.2894  -11.5500    0.0000 C   0  0  0  0  0  0  0  0  0  0  0  0
   14.2894  -12.3750    0.0000 O   0  0  0  0  0  0  0  0  0  0  0  0
   15.0039  -11.1375    0.0000 C   0  0  0  0  0  0  0  0  0  0  0  0
   15.7184  -11.5500    0.0000 N   0  0  0  0  0  0  0  0  0  0  0  0
   16.4328  -11.1375    0.0000 C   0  0  0  0  0  0  0  0  0  0  0  0
   16.4328  -10.3125    0.0000 O   0  0  0  0  0  0  0  0  0  0  0  0
   17.1473  -11.5500    0.0000 C   0  0  2  0  0  0  0  0  0  0  0  0
   17.8618  -11.1375    0.0000 C   0  0  0  0  0  0  0  0  0  0  0  0
   18.5762  -11.5500    0.0000 C   0  0  0  0  0  0  0  0  0  0  0  0
   19.2907  -11.1375    0.0000 C   0  0  0  0  0  0  0  0  0  0  0  0
   20.0052  -11.5500    0.0000 C   0  0  0  0  0  0  0  0  0  0  0  0
   20.0052  -12.3750    0.0000 C   0  0  0  0  0  0  0  0  0  0  0  0
   19.2907  -12.7875    0.0000 C   0  0  0  0  0  0  0  0  0  0  0  0
   18.5762  -12.3750    0.0000 C   0  0  0  0  0  0  0  0  0  0  0  0
   20.7197  -12.7875    0.0000 O   0  0  0  0  0  0  0  0  0  0  0  0
   17.1473  -12.3750    0.0000 N   0  0  0  0  0  0  0  0  0  0  0  0
    4.7891  -11.0150    0.0000 H   0  0  0  0  0  0  0  0  0  0  0  0
    5.7158  -12.6200    0.0000 H   0  0  0  0  0  0  0  0  0  0  0  0
    4.7892  -12.0850    0.0000 H   0  0  0  0  0  0  0  0  0  0  0  0
    7.1447  -12.6200    0.0000 H   0  0  0  0  0  0  0  0  0  0  0  0
    8.0713  -12.0850    0.0000 H   0  0  0  0  0  0  0  0  0  0  0  0
    7.8592  -10.0675    0.0000 H   0  0  0  0  0  0  0  0  0  0  0  0
    8.7858  -10.6025    0.0000 H   0  0  0  0  0  0  0  0  0  0  0  0
    8.5737  -10.4800    0.0000 H   0  0  0  0  0  0  0  0  0  0  0  0
    9.2881  -13.7245    0.0000 H   0  0  0  0  0  0  0  0  0  0  0  0
    9.2881  -10.1530    0.0000 H   0  0  0  0  0  0  0  0  0  0  0  0
   10.7171  -12.2075    0.0000 H   0  0  0  0  0  0  0  0  0  0  0  0
   11.6437   -9.7775    0.0000 H   0  0  0  0  0  0  0  0  0  0  0  0
   10.7171   -9.2425    0.0000 H   0  0  0  0  0  0  0  0  0  0  0  0
    9.2881  -11.3445    0.0000 H   0  0  0  0  0  0  0  0  0  0  0  0
    7.6800  -10.4160    0.0000 H   0  0  0  0  0  0  0  0  0  0  0  0
    7.6800   -8.5590    0.0000 H   0  0  0  0  0  0  0  0  0  0  0  0
    9.2881   -7.6305    0.0000 H   0  0  0  0  0  0  0  0  0  0  0  0
   10.8963   -8.5590    0.0000 H   0  0  0  0  0  0  0  0  0  0  0  0
   11.4315  -12.5345    0.0000 H   0  0  0  0  0  0  0  0  0  0  0  0
   12.8605  -12.6200    0.0000 H   0  0  0  0  0  0  0  0  0  0  0  0
   13.7872  -12.0850    0.0000 H   0  0  0  0  0  0  0  0  0  0  0  0
   13.5749  -10.1530    0.0000 H   0  0  0  0  0  0  0  0  0  0  0  0
   15.0039  -10.0675    0.0000 H   0  0  0  0  0  0  0  0  0  0  0  0
   15.9305  -10.6025    0.0000 H   0  0  0  0  0  0  0  0  0  0  0  0
   15.7184  -12.5345    0.0000 H   0  0  0  0  0  0  0  0  0  0  0  0
   16.2207  -12.0850    0.0000 H   0  0  0  0  0  0  0  0  0  0  0  0
   17.8618  -10.0675    0.0000 H   0  0  0  0  0  0  0  0  0  0  0  0
   18.7885  -10.6025    0.0000 H   0  0  0  0  0  0  0  0  0  0  0  0
   19.2907  -10.1055    0.0000 H   0  0  0  0  0  0  0  0  0  0  0  0
   20.8989  -11.0340    0.0000 H   0  0  0  0  0  0  0  0  0  0  0  0
   19.2907  -13.8195    0.0000 H   0  0  0  0  0  0  0  0  0  0  0  0
   17.6825  -12.8910    0.0000 H   0  0  0  0  0  0  0  0  0  0  0  0
   20.7197  -13.7245    0.0000 H   0  0  0  0  0  0  0  0  0  0  0  0
   16.2640  -12.8850    0.0000 H   0  0  0  0  0  0  0  0  0  0  0  0
   18.0306  -12.8850    0.0000 H   0  0  0  0  0  0  0  0  0  0  0  0
  1  2  1  0  0  0  0
  1 41  1  0  0  0  0
  1 42  1  0  0  0  0
  1 43  1  0  0  0  0
  2  3  1  0  0  0  0
  3  4  1  0  0  0  0
  3 44  1  0  0  0  0
  3 45  1  0  0  0  0
  4  5  1  0  0  0  0
  4 46  1  0  0  0  0
  4 47  1  0  0  0  0
  5  6  1  0  0  0  0
  5  9  1  0  0  0  0
  5 48  1  1  0  0  0
  6  7  2  0  0  0  0
  6  8  1  0  0  0  0
  8 49  1  0  0  0  0
  9 10  1  0  0  0  0
  9 50  1  0  0  0  0
 10 11  2  0  0  0  0
 10 12  1  0  0  0  0
 12 13  1  0  0  0  0
 12 20  1  0  0  0  0
 12 51  1  1  0  0  0
 13 14  1  0  0  0  0
 13 52  1  0  0  0  0
 13 53  1  0  0  0  0
 14 15  2  0  0  0  0
 14 19  1  0  0  0  0
 15 16  1  0  0  0  0
 15 54  1  0  0  0  0
 16 17  2  0  0  0  0
 16 55  1  0  0  0  0
 17 18  1  0  0  0  0
 17 56  1  0  0  0  0
 18 19  2  0  0  0  0
 18 57  1  0  0  0  0
 19 58  1  0  0  0  0
 20 21  1  0  0  0  0
 20 59  1  0  0  0  0
 21 22  2  0  0  0  0
 21 23  1  0  0  0  0
 23 24  1  0  0  0  0
 23 60  1  0  0  0  0
 23 61  1  0  0  0  0
 24 25  1  0  0  0  0
 24 62  1  0  0  0  0
 25 26  2  0  0  0  0
 25 27  1  0  0  0  0
 27 28  1  0  0  0  0
 27 63  1  0  0  0  0
 27 64  1  0  0  0  0
 28 29  1  0  0  0  0
 28 65  1  0  0  0  0
 29 30  2  0  0  0  0
 29 31  1  0  0  0  0
 31 32  1  0  0  0  0
 31 40  1  0  0  0  0
 31 66  1  1  0  0  0
 32 33  1  0  0  0  0
 32 67  1  0  0  0  0
 32 68  1  0  0  0  0
 33 34  2  0  0  0  0
 33 38  1  0  0  0  0
 34 35  1  0  0  0  0
 34 69  1  0  0  0  0
 35 36  2  0  0  0  0
 35 70  1  0  0  0  0
 36 37  1  0  0  0  0
 36 39  1  0  0  0  0
 37 38  2  0  0  0  0
 37 71  1  0  0  0  0
 38 72  1  0  0  0  0
 39 73  1  0  0  0  0
 40 74  1  0  0  0  0
 40 75  1  0  0  0  0
M  END
>  <DRUGBANK_ID>
DB12668

>  <COMMON_NAME>
Metenkefalin

>  <CAS_NUMBER>
58569-55-4

>  <UNII>
9JEZ9OD3AS

>  <SYNONYMS>
[met5]-enkephalin; Metenkefalin; Methionine Enkephalin

$$$$
