
 OpenBabel10282417072D

 19 19  0  0  0  0  0  0  0  0999 V2000
    0.2183    0.2899    0.0000 C   0  0  0  0  0  0  0  0  0  0  0  0
    0.2183   -0.5356    0.0000 C   0  0  0  0  0  0  0  0  0  0  0  0
   -0.4980    0.6993    0.0000 C   0  0  0  0  0  0  0  0  0  0  0  0
    0.9210    0.7026    0.0000 C   0  0  0  0  0  0  0  0  0  0  0  0
   -0.4980   -0.9551    0.0000 N   0  3  0  0  0  0  0  0  0  0  0  0
   -1.2075    0.2899    0.0000 C   0  0  0  0  0  0  0  0  0  0  0  0
    1.6339    0.2934    0.0000 N   0  0  0  0  0  0  0  0  0  0  0  0
    0.9176    1.5179    0.0000 O   0  0  0  0  0  0  0  0  0  0  0  0
   -1.2075   -0.5356    0.0000 C   0  0  0  0  0  0  0  0  0  0  0  0
   -0.4980   -1.7636    0.0000 C   0  0  0  0  0  0  0  0  0  0  0  0
    1.1136   -1.0488    0.0000 H   0  0  0  0  0  0  0  0  0  0  0  0
   -0.5001    1.7313    0.0000 H   0  0  0  0  0  0  0  0  0  0  0  0
   -2.1012    0.8060    0.0000 H   0  0  0  0  0  0  0  0  0  0  0  0
    1.6364   -0.6911    0.0000 H   0  0  0  0  0  0  0  0  0  0  0  0
    2.4853    0.7878    0.0000 H   0  0  0  0  0  0  0  0  0  0  0  0
   -2.1039   -1.0470    0.0000 H   0  0  0  0  0  0  0  0  0  0  0  0
   -1.4246   -2.2986    0.0000 H   0  0  0  0  0  0  0  0  0  0  0  0
    0.4286   -2.2986    0.0000 H   0  0  0  0  0  0  0  0  0  0  0  0
   -0.4980   -2.8336    0.0000 H   0  0  0  0  0  0  0  0  0  0  0  0
  1  2  2  0  0  0  0
  1  3  1  0  0  0  0
  1  4  1  0  0  0  0
  2  5  1  0  0  0  0
  2 11  1  0  0  0  0
  3  6  2  0  0  0  0
  3 12  1  0  0  0  0
  4  7  1  0  0  0  0
  4  8  2  0  0  0  0
  5  9  2  0  0  0  0
  5 10  1  0  0  0  0
  6  9  1  0  0  0  0
  6 13  1  0  0  0  0
  7 14  1  0  0  0  0
  7 15  1  0  0  0  0
  9 16  1  0  0  0  0
 10 17  1  0  0  0  0
 10 18  1  0  0  0  0
 10 19  1  0  0  0  0
M  CHG  1   5   1
M  END
>  <DRUGBANK_ID>
DB11710

>  <COMMON_NAME>
Trigonellamide

>  <CAS_NUMBER>
3106-60-3

>  <UNII>
UM47085BXC

$$$$
