4822
 OpenBabel10282417072D

 40 43  0  0  0  0  0  0  0  0999 V2000
    3.8493   -2.4606    0.0000 S   0  0  0  0  0  0  0  0  0  0  0  0
    3.8493    1.6642    0.0000 N   0  0  0  0  0  0  0  0  0  0  0  0
    3.8493    0.0142    0.0000 C   0  0  0  0  0  0  0  0  0  0  0  0
    3.1348    0.4267    0.0000 C   0  0  0  0  0  0  0  0  0  0  0  0
    4.5638    0.4267    0.0000 C   0  0  0  0  0  0  0  0  0  0  0  0
    3.1348    1.2517    0.0000 C   0  0  0  0  0  0  0  0  0  0  0  0
    4.5638    1.2517    0.0000 C   0  0  0  0  0  0  0  0  0  0  0  0
    3.8493   -0.8107    0.0000 C   0  0  0  0  0  0  0  0  0  0  0  0
    4.5638   -1.2231    0.0000 C   0  0  0  0  0  0  0  0  0  0  0  0
    3.1348   -1.2231    0.0000 C   0  0  0  0  0  0  0  0  0  0  0  0
    3.8493    2.4891    0.0000 C   0  0  0  0  0  0  0  0  0  0  0  0
    4.5638   -2.0481    0.0000 C   0  0  0  0  0  0  0  0  0  0  0  0
    3.1348   -2.0481    0.0000 C   0  0  0  0  0  0  0  0  0  0  0  0
    5.3012   -0.7820    0.0000 C   0  0  0  0  0  0  0  0  0  0  0  0
    2.3974   -0.7820    0.0000 C   0  0  0  0  0  0  0  0  0  0  0  0
    5.3012   -2.4891    0.0000 C   0  0  0  0  0  0  0  0  0  0  0  0
    2.3974   -2.4891    0.0000 C   0  0  0  0  0  0  0  0  0  0  0  0
    1.6499   -1.2060    0.0000 C   0  0  0  0  0  0  0  0  0  0  0  0
    6.0487   -1.2060    0.0000 C   0  0  0  0  0  0  0  0  0  0  0  0
    6.0487   -2.0653    0.0000 C   0  0  0  0  0  0  0  0  0  0  0  0
    1.6499   -2.0653    0.0000 C   0  0  0  0  0  0  0  0  0  0  0  0
    2.2082   -0.1083    0.0000 H   0  0  0  0  0  0  0  0  0  0  0  0
    2.2082    0.9617    0.0000 H   0  0  0  0  0  0  0  0  0  0  0  0
    5.4904   -0.1083    0.0000 H   0  0  0  0  0  0  0  0  0  0  0  0
    5.4904    0.9617    0.0000 H   0  0  0  0  0  0  0  0  0  0  0  0
    2.2082    1.7867    0.0000 H   0  0  0  0  0  0  0  0  0  0  0  0
    2.2082    0.7167    0.0000 H   0  0  0  0  0  0  0  0  0  0  0  0
    5.4904    1.7867    0.0000 H   0  0  0  0  0  0  0  0  0  0  0  0
    5.4904    0.7167    0.0000 H   0  0  0  0  0  0  0  0  0  0  0  0
    4.7759    3.0241    0.0000 H   0  0  0  0  0  0  0  0  0  0  0  0
    2.9227    3.0241    0.0000 H   0  0  0  0  0  0  0  0  0  0  0  0
    3.8493    3.5591    0.0000 H   0  0  0  0  0  0  0  0  0  0  0  0
    5.2893    0.2499    0.0000 H   0  0  0  0  0  0  0  0  0  0  0  0
    2.4093    0.2499    0.0000 H   0  0  0  0  0  0  0  0  0  0  0  0
    5.2892   -3.5210    0.0000 H   0  0  0  0  0  0  0  0  0  0  0  0
    2.4094   -3.5210    0.0000 H   0  0  0  0  0  0  0  0  0  0  0  0
    0.7581   -0.6866    0.0000 H   0  0  0  0  0  0  0  0  0  0  0  0
    6.9405   -0.6866    0.0000 H   0  0  0  0  0  0  0  0  0  0  0  0
    6.9404   -2.5848    0.0000 H   0  0  0  0  0  0  0  0  0  0  0  0
    0.7582   -2.5848    0.0000 H   0  0  0  0  0  0  0  0  0  0  0  0
  1 12  1  0  0  0  0
  1 13  1  0  0  0  0
  2  6  1  0  0  0  0
  2  7  1  0  0  0  0
  2 11  1  0  0  0  0
  3  4  1  0  0  0  0
  3  5  1  0  0  0  0
  3  8  2  0  0  0  0
  4  6  1  0  0  0  0
  4 22  1  0  0  0  0
  4 23  1  0  0  0  0
  5  7  1  0  0  0  0
  5 24  1  0  0  0  0
  5 25  1  0  0  0  0
  6 26  1  0  0  0  0
  6 27  1  0  0  0  0
  7 28  1  0  0  0  0
  7 29  1  0  0  0  0
  8  9  1  0  0  0  0
  8 10  1  0  0  0  0
  9 12  1  0  0  0  0
  9 14  2  0  0  0  0
 10 13  1  0  0  0  0
 10 15  2  0  0  0  0
 11 30  1  0  0  0  0
 11 31  1  0  0  0  0
 11 32  1  0  0  0  0
 12 16  2  0  0  0  0
 13 17  2  0  0  0  0
 14 19  1  0  0  0  0
 14 33  1  0  0  0  0
 15 18  1  0  0  0  0
 15 34  1  0  0  0  0
 16 20  1  0  0  0  0
 16 35  1  0  0  0  0
 17 21  1  0  0  0  0
 17 36  1  0  0  0  0
 18 21  2  0  0  0  0
 18 37  1  0  0  0  0
 19 20  2  0  0  0  0
 19 38  1  0  0  0  0
 20 39  1  0  0  0  0
 21 40  1  0  0  0  0
M  END
>  <DRUGBANK_ID>
DB13292

>  <COMMON_NAME>
Pimethixene

>  <CAS_NUMBER>
314-03-4

>  <UNII>
T46J20J26F

>  <SYNONYMS>
Pimethixene

$$$$
