SX6
 OpenBabel10282417072D

 60 62  0  0  0  0  0  0  0  0999 V2000
   -3.3231   -0.0014    0.0000 O   0  0  0  0  0  0  0  0  0  0  0  0
   -3.3231   -0.8264    0.0000 C   0  0  0  0  0  0  0  0  0  0  0  0
   -4.0376   -1.2389    0.0000 N   0  0  0  0  0  0  0  0  0  0  0  0
   -4.7521   -0.8264    0.0000 C   0  0  0  0  0  0  0  0  0  0  0  0
   -5.4666   -1.2389    0.0000 C   0  0  0  0  0  0  0  0  0  0  0  0
   -5.4666   -2.0639    0.0000 O   0  0  0  0  0  0  0  0  0  0  0  0
   -4.7521   -2.4764    0.0000 C   0  0  0  0  0  0  0  0  0  0  0  0
   -4.0376   -2.0639    0.0000 C   0  0  0  0  0  0  0  0  0  0  0  0
   -2.6087   -1.2389    0.0000 C   0  0  0  0  0  0  0  0  0  0  0  0
   -1.8942   -0.8264    0.0000 C   0  0  0  0  0  0  0  0  0  0  0  0
   -1.1797   -1.2389    0.0000 C   0  0  0  0  0  0  0  0  0  0  0  0
   -1.1797   -2.0639    0.0000 O   0  0  0  0  0  0  0  0  0  0  0  0
   -0.4653   -0.8264    0.0000 N   0  0  0  0  0  0  0  0  0  0  0  0
    0.2492   -1.2389    0.0000 C   0  0  0  0  0  0  0  0  0  0  0  0
    0.2492   -2.0639    0.0000 C   0  0  0  0  0  0  0  0  0  0  0  0
    0.9637   -2.4764    0.0000 C   0  0  0  0  0  0  0  0  0  0  0  0
    1.6781   -2.0639    0.0000 C   0  0  0  0  0  0  0  0  0  0  0  0
    2.3926   -2.4764    0.0000 Br  0  0  0  0  0  0  0  0  0  0  0  0
    1.6781   -1.2389    0.0000 C   0  0  0  0  0  0  0  0  0  0  0  0
    0.9637   -0.8264    0.0000 C   0  0  0  0  0  0  0  0  0  0  0  0
    0.9637   -0.0014    0.0000 C   0  0  0  0  0  0  0  0  0  0  0  0
    0.2492    0.4111    0.0000 O   0  0  0  0  0  0  0  0  0  0  0  0
    1.6781    0.4111    0.0000 N   0  0  0  0  0  0  0  0  0  0  0  0
    2.3926   -0.0014    0.0000 C   0  0  0  0  0  0  0  0  0  0  0  0
    3.1071    0.4111    0.0000 C   0  0  1  0  0  0  0  0  0  0  0  0
    3.8216   -0.0014    0.0000 C   0  0  0  0  0  0  0  0  0  0  0  0
    3.1071    1.2361    0.0000 C   0  0  0  0  0  0  0  0  0  0  0  0
    1.6781    1.2361    0.0000 C   0  0  0  0  0  0  0  0  0  0  0  0
    2.3926    1.6486    0.0000 C   0  0  2  0  0  0  0  0  0  0  0  0
    2.3926    2.4736    0.0000 C   0  0  0  0  0  0  0  0  0  0  0  0
    3.1071   -0.1728    0.0000 H   0  0  0  0  0  0  0  0  0  0  0  0
    2.8983    1.9405    0.0000 H   0  0  0  0  0  0  0  0  0  0  0  0
   -4.7521    0.2436    0.0000 H   0  0  0  0  0  0  0  0  0  0  0  0
   -5.6787   -0.2914    0.0000 H   0  0  0  0  0  0  0  0  0  0  0  0
   -6.3932   -0.7039    0.0000 H   0  0  0  0  0  0  0  0  0  0  0  0
   -6.3932   -1.7739    0.0000 H   0  0  0  0  0  0  0  0  0  0  0  0
   -4.7521   -3.5464    0.0000 H   0  0  0  0  0  0  0  0  0  0  0  0
   -3.8255   -3.0114    0.0000 H   0  0  0  0  0  0  0  0  0  0  0  0
   -3.1110   -2.5989    0.0000 H   0  0  0  0  0  0  0  0  0  0  0  0
   -4.0376   -3.1339    0.0000 H   0  0  0  0  0  0  0  0  0  0  0  0
   -2.6087   -2.3089    0.0000 H   0  0  0  0  0  0  0  0  0  0  0  0
   -1.6821   -1.7739    0.0000 H   0  0  0  0  0  0  0  0  0  0  0  0
   -1.8942    0.2436    0.0000 H   0  0  0  0  0  0  0  0  0  0  0  0
   -0.9676   -0.2914    0.0000 H   0  0  0  0  0  0  0  0  0  0  0  0
   -0.4653    0.1581    0.0000 H   0  0  0  0  0  0  0  0  0  0  0  0
   -0.6445   -2.5799    0.0000 H   0  0  0  0  0  0  0  0  0  0  0  0
    0.9637   -3.5084    0.0000 H   0  0  0  0  0  0  0  0  0  0  0  0
    2.5718   -0.7229    0.0000 H   0  0  0  0  0  0  0  0  0  0  0  0
    2.3926   -1.0714    0.0000 H   0  0  0  0  0  0  0  0  0  0  0  0
    3.3192   -0.5364    0.0000 H   0  0  0  0  0  0  0  0  0  0  0  0
    3.8216   -1.0714    0.0000 H   0  0  0  0  0  0  0  0  0  0  0  0
    4.7482    0.5336    0.0000 H   0  0  0  0  0  0  0  0  0  0  0  0
    4.7483   -0.5364    0.0000 H   0  0  0  0  0  0  0  0  0  0  0  0
    4.0337    1.7711    0.0000 H   0  0  0  0  0  0  0  0  0  0  0  0
    3.1071    2.3061    0.0000 H   0  0  0  0  0  0  0  0  0  0  0  0
    0.7515    1.7711    0.0000 H   0  0  0  0  0  0  0  0  0  0  0  0
    1.6781    2.3061    0.0000 H   0  0  0  0  0  0  0  0  0  0  0  0
    3.3192    3.0086    0.0000 H   0  0  0  0  0  0  0  0  0  0  0  0
    1.4660    3.0086    0.0000 H   0  0  0  0  0  0  0  0  0  0  0  0
    2.3926    3.5436    0.0000 H   0  0  0  0  0  0  0  0  0  0  0  0
  1  2  2  0  0  0  0
  2  9  1  0  0  0  0
  3  2  1  0  0  0  0
  3  8  1  0  0  0  0
  4  3  1  0  0  0  0
  4 33  1  0  0  0  0
  4 34  1  0  0  0  0
  5  4  1  0  0  0  0
  5  6  1  0  0  0  0
  5 35  1  0  0  0  0
  5 36  1  0  0  0  0
  6  7  1  0  0  0  0
  7  8  1  0  0  0  0
  7 37  1  0  0  0  0
  7 38  1  0  0  0  0
  8 39  1  0  0  0  0
  8 40  1  0  0  0  0
  9 10  1  0  0  0  0
  9 41  1  0  0  0  0
  9 42  1  0  0  0  0
 10 11  1  0  0  0  0
 10 43  1  0  0  0  0
 10 44  1  0  0  0  0
 11 12  2  0  0  0  0
 13 11  1  0  0  0  0
 13 14  1  0  0  0  0
 13 45  1  0  0  0  0
 14 20  2  0  0  0  0
 14 15  1  0  0  0  0
 15 16  2  0  0  0  0
 15 46  1  0  0  0  0
 16 17  1  0  0  0  0
 16 47  1  0  0  0  0
 17 18  1  0  0  0  0
 19 17  2  0  0  0  0
 19 48  1  0  0  0  0
 20 19  1  0  0  0  0
 21 20  1  0  0  0  0
 21 23  1  0  0  0  0
 22 21  2  0  0  0  0
 23 28  1  0  0  0  0
 24 23  1  0  0  0  0
 24 25  1  0  0  0  0
 24 49  1  0  0  0  0
 24 50  1  0  0  0  0
 25 27  1  0  0  0  0
 25 31  1  1  0  0  0
 25 26  1  0  0  0  0
 26 51  1  0  0  0  0
 26 52  1  0  0  0  0
 26 53  1  0  0  0  0
 27 29  1  0  0  0  0
 27 54  1  0  0  0  0
 27 55  1  0  0  0  0
 28 29  1  0  0  0  0
 28 56  1  0  0  0  0
 28 57  1  0  0  0  0
 29 30  1  0  0  0  0
 29 32  1  1  0  0  0
 30 58  1  0  0  0  0
 30 59  1  0  0  0  0
 30 60  1  0  0  0  0
M  END
>  <DRUGBANK_ID>
DB08582

>  <COMMON_NAME>
N-(4-bromo-2-{[(3R,5S)-3,5-dimethylpiperidin-1-yl]carbonyl}phenyl)-4-morpholin-4-yl-4-oxobutanamide

$$$$
