FLF
 OpenBabel10282417072D

 30 31  0  0  0  0  0  0  0  0999 V2000
   -1.7565    0.4221    0.0000 C   0  0  0  0  0  0  0  0  0  0  0  0
   -1.0421    1.6596    0.0000 O   0  0  0  0  0  0  0  0  0  0  0  0
   -2.4710    0.0096    0.0000 C   0  0  0  0  0  0  0  0  0  0  0  0
   -2.4710   -0.8154    0.0000 C   0  0  0  0  0  0  0  0  0  0  0  0
   -2.4710    1.6596    0.0000 O   0  0  0  0  0  0  0  0  0  0  0  0
   -1.7565   -1.2279    0.0000 C   0  0  0  0  0  0  0  0  0  0  0  0
   -1.0421   -0.8154    0.0000 C   0  0  0  0  0  0  0  0  0  0  0  0
   -1.0421    0.0096    0.0000 C   0  0  0  0  0  0  0  0  0  0  0  0
   -1.7565    1.2471    0.0000 C   0  0  0  0  0  0  0  0  0  0  0  0
   -0.3276    0.4221    0.0000 N   0  0  0  0  0  0  0  0  0  0  0  0
    0.3869    0.0096    0.0000 C   0  0  0  0  0  0  0  0  0  0  0  0
    1.1014    0.4221    0.0000 C   0  0  0  0  0  0  0  0  0  0  0  0
    1.8158    0.0096    0.0000 C   0  0  0  0  0  0  0  0  0  0  0  0
    1.8158   -0.8154    0.0000 C   0  0  0  0  0  0  0  0  0  0  0  0
    1.1014   -1.2279    0.0000 C   0  0  0  0  0  0  0  0  0  0  0  0
    0.3869   -0.8154    0.0000 C   0  0  0  0  0  0  0  0  0  0  0  0
    2.5303    0.4221    0.0000 C   0  0  0  0  0  0  0  0  0  0  0  0
    3.2448    0.8346    0.0000 F   0  0  0  0  0  0  0  0  0  0  0  0
    2.9428   -0.2923    0.0000 F   0  0  0  0  0  0  0  0  0  0  0  0
    2.1178    1.1366    0.0000 F   0  0  0  0  0  0  0  0  0  0  0  0
   -3.3647    0.5256    0.0000 H   0  0  0  0  0  0  0  0  0  0  0  0
   -3.3647   -1.3314    0.0000 H   0  0  0  0  0  0  0  0  0  0  0  0
   -2.4710    2.5966    0.0000 H   0  0  0  0  0  0  0  0  0  0  0  0
   -1.7565   -2.2599    0.0000 H   0  0  0  0  0  0  0  0  0  0  0  0
   -0.1484   -1.3314    0.0000 H   0  0  0  0  0  0  0  0  0  0  0  0
   -0.3276    1.4066    0.0000 H   0  0  0  0  0  0  0  0  0  0  0  0
    1.1014    1.4541    0.0000 H   0  0  0  0  0  0  0  0  0  0  0  0
    2.7095   -1.3314    0.0000 H   0  0  0  0  0  0  0  0  0  0  0  0
    1.1014   -2.2599    0.0000 H   0  0  0  0  0  0  0  0  0  0  0  0
   -0.5068   -1.3314    0.0000 H   0  0  0  0  0  0  0  0  0  0  0  0
  1  3  2  0  0  0  0
  1  8  1  0  0  0  0
  1  9  1  0  0  0  0
  2  9  2  0  0  0  0
  3  4  1  0  0  0  0
  3 21  1  0  0  0  0
  4  6  2  0  0  0  0
  4 22  1  0  0  0  0
  5  9  1  0  0  0  0
  5 23  1  0  0  0  0
  6  7  1  0  0  0  0
  6 24  1  0  0  0  0
  7  8  2  0  0  0  0
  7 25  1  0  0  0  0
  8 10  1  0  0  0  0
 10 11  1  0  0  0  0
 10 26  1  0  0  0  0
 11 12  2  0  0  0  0
 11 16  1  0  0  0  0
 12 13  1  0  0  0  0
 12 27  1  0  0  0  0
 13 14  2  0  0  0  0
 13 17  1  0  0  0  0
 14 15  1  0  0  0  0
 14 28  1  0  0  0  0
 15 16  2  0  0  0  0
 15 29  1  0  0  0  0
 16 30  1  0  0  0  0
 17 18  1  0  0  0  0
 17 19  1  0  0  0  0
 17 20  1  0  0  0  0
M  END
>  <DRUGBANK_ID>
DB02266

>  <SECONDARY_ACCESSION_NUMBERS>
EXPT01442

>  <COMMON_NAME>
Flufenamic acid

>  <CAS_NUMBER>
530-78-9

>  <UNII>
60GCX7Y6BH

>  <SYNONYMS>
acide flufénamique; ácido flufenámico; Acidum flufenamicum; Flufenamic acid

$$$$
