
 OpenBabel10282417072D

 13 12  0  0  0  0  0  0  0  0999 V2000
    0.7157   -0.2099    0.0000 C   0  0  0  0  0  0  0  0  0  0  0  0
    0.0000   -0.6202    0.0000 C   0  0  0  0  0  0  0  0  0  0  0  0
   -0.7157   -0.2099    0.0000 C   0  0  0  0  0  0  0  0  0  0  0  0
   -1.4314   -0.6202    0.0000 C   0  0  0  0  0  0  0  0  0  0  0  0
    0.7157    0.6202    0.0000 O   0  0  0  0  0  0  0  0  0  0  0  0
    1.4314   -0.6202    0.0000 O   0  0  0  0  0  0  0  0  0  0  0  0
   -0.7157    0.6202    0.0000 O   0  0  0  0  0  0  0  0  0  0  0  0
    0.0000   -1.6902    0.0000 H   0  0  0  0  0  0  0  0  0  0  0  0
   -0.9258   -1.1566    0.0000 H   0  0  0  0  0  0  0  0  0  0  0  0
   -2.3564   -0.0824    0.0000 H   0  0  0  0  0  0  0  0  0  0  0  0
   -1.4347   -1.6902    0.0000 H   0  0  0  0  0  0  0  0  0  0  0  0
   -2.3597   -1.1524    0.0000 H   0  0  0  0  0  0  0  0  0  0  0  0
    1.4343   -1.5572    0.0000 H   0  0  0  0  0  0  0  0  0  0  0  0
  2  1  1  0  0  0  0
  2  8  1  0  0  0  0
  2  9  1  0  0  0  0
  3  2  1  0  0  0  0
  4  3  1  0  0  0  0
  4 10  1  0  0  0  0
  4 11  1  0  0  0  0
  4 12  1  0  0  0  0
  5  1  2  0  0  0  0
  6  1  1  0  0  0  0
  6 13  1  0  0  0  0
  7  3  2  0  0  0  0
M  END
>  <DRUGBANK_ID>
DB01762

>  <SECONDARY_ACCESSION_NUMBERS>
EXPT00381; DB04025

>  <COMMON_NAME>
Acetoacetic acid

>  <CAS_NUMBER>
541-50-4

>  <UNII>
4ZI204Y1MC

>  <SYNONYMS>
3-ketobutanoic acid; 3-Ketobutyric acid; 3-Oxobutanoic acid; 3-Oxobutyric acid; beta-Ketobutyric acid

$$$$
