RS7
 OpenBabel10282417072D

 39 39  0  0  0  0  0  0  0  0999 V2000
   -1.9089   -0.7083    0.0000 C   0  0  0  0  0  0  0  0  0  0  0  0
   -1.9089    0.1167    0.0000 O   0  0  0  0  0  0  0  0  0  0  0  0
   -1.1944   -1.1208    0.0000 O   0  0  0  0  0  0  0  0  0  0  0  0
   -2.6233   -1.1208    0.0000 C   0  0  0  0  0  0  0  0  0  0  0  0
   -2.6233   -1.9458    0.0000 C   0  0  0  0  0  0  0  0  0  0  0  0
   -3.3378   -2.3583    0.0000 C   0  0  0  0  0  0  0  0  0  0  0  0
   -4.0523   -1.9458    0.0000 C   0  0  0  0  0  0  0  0  0  0  0  0
   -4.7667   -2.3583    0.0000 C   0  0  0  0  0  0  0  0  0  0  0  0
   -4.7667   -3.1833    0.0000 C   0  0  0  0  0  0  0  0  0  0  0  0
   -4.0523   -3.5958    0.0000 C   0  0  0  0  0  0  0  0  0  0  0  0
   -3.3378   -3.1833    0.0000 C   0  0  0  0  0  0  0  0  0  0  0  0
   -2.6233   -3.5958    0.0000 C   0  0  0  0  0  0  0  0  0  0  0  0
   -1.9089   -4.0083    0.0000 C   0  0  0  0  0  0  0  0  0  0  0  0
   -1.1944   -4.4208    0.0000 C   0  0  0  0  0  0  0  0  0  0  0  0
   -0.4799   -4.0083    0.0000 C   0  0  0  0  0  0  0  0  0  0  0  0
    0.2346   -4.4208    0.0000 C   0  0  0  0  0  0  0  0  0  0  0  0
    0.9490   -4.0083    0.0000 C   0  0  0  0  0  0  0  0  0  0  0  0
    1.6635   -4.4208    0.0000 C   0  0  0  0  0  0  0  0  0  0  0  0
    2.3780   -4.0083    0.0000 C   0  0  0  0  0  0  0  0  0  0  0  0
   -1.1944   -2.0578    0.0000 H   0  0  0  0  0  0  0  0  0  0  0  0
   -3.5170   -0.6048    0.0000 H   0  0  0  0  0  0  0  0  0  0  0  0
   -1.7296   -2.4618    0.0000 H   0  0  0  0  0  0  0  0  0  0  0  0
   -4.0523   -0.9138    0.0000 H   0  0  0  0  0  0  0  0  0  0  0  0
   -5.6604   -1.8423    0.0000 H   0  0  0  0  0  0  0  0  0  0  0  0
   -5.6604   -3.6993    0.0000 H   0  0  0  0  0  0  0  0  0  0  0  0
   -4.0523   -4.6278    0.0000 H   0  0  0  0  0  0  0  0  0  0  0  0
   -1.1944   -5.4908    0.0000 H   0  0  0  0  0  0  0  0  0  0  0  0
   -0.2678   -4.9558    0.0000 H   0  0  0  0  0  0  0  0  0  0  0  0
   -0.4799   -2.9383    0.0000 H   0  0  0  0  0  0  0  0  0  0  0  0
    0.4467   -3.4733    0.0000 H   0  0  0  0  0  0  0  0  0  0  0  0
    0.2346   -5.4908    0.0000 H   0  0  0  0  0  0  0  0  0  0  0  0
    1.1613   -4.9558    0.0000 H   0  0  0  0  0  0  0  0  0  0  0  0
    0.9490   -2.9383    0.0000 H   0  0  0  0  0  0  0  0  0  0  0  0
    1.8756   -3.4733    0.0000 H   0  0  0  0  0  0  0  0  0  0  0  0
    1.6635   -5.4908    0.0000 H   0  0  0  0  0  0  0  0  0  0  0  0
    2.5901   -4.9558    0.0000 H   0  0  0  0  0  0  0  0  0  0  0  0
    3.3046   -4.5433    0.0000 H   0  0  0  0  0  0  0  0  0  0  0  0
    2.3780   -2.9383    0.0000 H   0  0  0  0  0  0  0  0  0  0  0  0
    3.3047   -3.4733    0.0000 H   0  0  0  0  0  0  0  0  0  0  0  0
  1  4  1  0  0  0  0
  2  1  2  0  0  0  0
  3  1  1  0  0  0  0
  3 20  1  0  0  0  0
  4  5  2  0  0  0  0
  4 21  1  0  0  0  0
  5  6  1  0  0  0  0
  5 22  1  0  0  0  0
  6 11  1  0  0  0  0
  7  6  2  0  0  0  0
  7  8  1  0  0  0  0
  7 23  1  0  0  0  0
  8  9  2  0  0  0  0
  8 24  1  0  0  0  0
  9 10  1  0  0  0  0
  9 25  1  0  0  0  0
 10 26  1  0  0  0  0
 11 12  1  0  0  0  0
 11 10  2  0  0  0  0
 12 13  3  0  0  0  0
 13 14  1  0  0  0  0
 14 15  1  0  0  0  0
 14 27  1  0  0  0  0
 14 28  1  0  0  0  0
 15 29  1  0  0  0  0
 15 30  1  0  0  0  0
 16 15  1  0  0  0  0
 16 31  1  0  0  0  0
 16 32  1  0  0  0  0
 17 16  1  0  0  0  0
 17 33  1  0  0  0  0
 17 34  1  0  0  0  0
 18 17  1  0  0  0  0
 18 35  1  0  0  0  0
 18 36  1  0  0  0  0
 19 18  1  0  0  0  0
 19 37  1  0  0  0  0
 19 38  1  0  0  0  0
 19 39  1  0  0  0  0
M  END
>  <DRUGBANK_ID>
DB08492

>  <COMMON_NAME>
(2E)-3-(2-OCT-1-YN-1-YLPHENYL)ACRYLIC ACID

$$$$
