
 OpenBabel10282417072D

 38 41  0  0  0  0  0  0  0  0999 V2000
   -1.9916   -1.2731    0.0000 N   0  0  0  0  0  0  0  0  0  0  0  0
    0.7230   -0.6210    0.0000 C   0  0  0  0  0  0  0  0  0  0  0  0
    0.0177   -1.8586    0.0000 C   0  0  0  0  0  0  0  0  0  0  0  0
   -1.4061   -1.8586    0.0000 C   0  0  3  0  0  0  0  0  0  0  0  0
   -0.6919   -2.2711    0.0000 C   0  0  3  0  0  0  0  0  0  0  0  0
    0.0177   -1.0335    0.0000 C   0  0  0  0  0  0  0  0  0  0  0  0
    1.4416   -1.8586    0.0000 N   0  0  0  0  0  0  0  0  0  0  0  0
    1.4416   -1.0335    0.0000 C   0  0  0  0  0  0  0  0  0  0  0  0
    0.7230    3.4909    0.0000 N   0  0  0  0  0  0  0  0  0  0  0  0
    0.7230    2.6658    0.0000 C   0  0  0  0  0  0  0  0  0  0  0  0
    0.7230    0.2040    0.0000 C   0  0  0  0  0  0  0  0  0  0  0  0
    0.7230   -2.2711    0.0000 C   0  0  0  0  0  0  0  0  0  0  0  0
   -1.4638   -3.4909    0.0000 C   0  0  3  0  0  0  0  0  0  0  0  0
   -0.6919   -3.0962    0.0000 C   0  0  0  0  0  0  0  0  0  0  0  0
   -2.1158   -2.2312    0.0000 C   0  0  0  0  0  0  0  0  0  0  0  0
    1.4416    0.6077    0.0000 C   0  0  0  0  0  0  0  0  0  0  0  0
    0.0177    0.6077    0.0000 C   0  0  0  0  0  0  0  0  0  0  0  0
    0.7230    1.8453    0.0000 C   0  0  0  0  0  0  0  0  0  0  0  0
    2.1557   -0.6165    0.0000 F   0  0  0  0  0  0  0  0  0  0  0  0
   -2.1557   -3.0563    0.0000 C   0  0  0  0  0  0  0  0  0  0  0  0
    1.4416    1.4327    0.0000 C   0  0  0  0  0  0  0  0  0  0  0  0
    0.0177    1.4327    0.0000 C   0  0  0  0  0  0  0  0  0  0  0  0
   -2.4891   -0.3827    0.0000 H   0  0  0  0  0  0  0  0  0  0  0  0
   -0.7547   -1.0098    0.0000 H   0  0  0  0  0  0  0  0  0  0  0  0
   -0.6934   -1.2011    0.0000 H   0  0  0  0  0  0  0  0  0  0  0  0
   -0.8775   -0.5200    0.0000 H   0  0  0  0  0  0  0  0  0  0  0  0
    0.7188   -3.3031    0.0000 H   0  0  0  0  0  0  0  0  0  0  0  0
   -1.0156   -2.5193    0.0000 H   0  0  0  0  0  0  0  0  0  0  0  0
    0.2208   -3.6546    0.0000 H   0  0  0  0  0  0  0  0  0  0  0  0
    0.2415   -2.5730    0.0000 H   0  0  0  0  0  0  0  0  0  0  0  0
   -3.0179   -1.6557    0.0000 H   0  0  0  0  0  0  0  0  0  0  0  0
   -3.0662   -2.7228    0.0000 H   0  0  0  0  0  0  0  0  0  0  0  0
    2.3323    0.0865    0.0000 H   0  0  0  0  0  0  0  0  0  0  0  0
   -0.8751    0.0900    0.0000 H   0  0  0  0  0  0  0  0  0  0  0  0
   -3.1044   -3.5512    0.0000 H   0  0  0  0  0  0  0  0  0  0  0  0
   -3.0570   -2.4797    0.0000 H   0  0  0  0  0  0  0  0  0  0  0  0
    2.3347    1.9498    0.0000 H   0  0  0  0  0  0  0  0  0  0  0  0
   -0.8775    1.9461    0.0000 H   0  0  0  0  0  0  0  0  0  0  0  0
  1 23  1  0  0  0  0
  2  6  1  0  0  0  0
  2  8  2  0  0  0  0
  3  5  1  0  0  0  0
  4  1  1  0  0  0  0
  4 24  1  0  0  0  0
  5  4  1  0  0  0  0
  5 25  1  0  0  0  0
  6  3  2  0  0  0  0
  6 26  1  0  0  0  0
  7 12  2  0  0  0  0
  8  7  1  0  0  0  0
  9 10  3  0  0  0  0
 10 18  1  0  0  0  0
 11  2  1  0  0  0  0
 12  3  1  0  0  0  0
 12 27  1  0  0  0  0
 13  1  1  0  0  0  0
 13 28  1  0  0  0  0
 14 13  1  0  0  0  0
 14  5  1  0  0  0  0
 14 29  1  0  0  0  0
 14 30  1  0  0  0  0
 15  4  1  0  0  0  0
 15 31  1  0  0  0  0
 15 32  1  0  0  0  0
 16 11  2  0  0  0  0
 16 33  1  0  0  0  0
 17 11  1  0  0  0  0
 17 34  1  0  0  0  0
 18 22  1  0  0  0  0
 18 21  2  0  0  0  0
 19  8  1  0  0  0  0
 20 13  1  0  0  0  0
 20 15  1  0  0  0  0
 20 35  1  0  0  0  0
 20 36  1  0  0  0  0
 21 16  1  0  0  0  0
 21 37  1  0  0  0  0
 22 17  2  0  0  0  0
 22 38  1  0  0  0  0
M  END
>  <DRUGBANK_ID>
DB14029

>  <COMMON_NAME>
Furafylline

>  <CAS_NUMBER>
80288-49-9

>  <UNII>
C2087G0XX3

>  <SYNONYMS>
Furafilina; Furafylline; Furafyllinum

$$$$
