1145
 OpenBabel10282417072D

 41 42  0  0  1  0  0  0  0  0999 V2000
    3.0790    0.0000    0.0000 S   0  0  0  0  0  0  0  0  0  0  0  0
    2.3644   -4.5375    0.0000 S   0  0  3  0  0  0  0  0  0  0  0  0
    3.7934    4.5375    0.0000 S   0  0  3  0  0  0  0  0  0  0  0  0
    3.9040    0.0000    0.0000 O   0  0  0  0  0  0  0  0  0  0  0  0
    2.2540    0.0000    0.0000 O   0  0  0  0  0  0  0  0  0  0  0  0
    1.6500   -4.9500    0.0000 O   0  0  0  0  0  0  0  0  0  0  0  0
    4.5079    4.9500    0.0000 O   0  0  0  0  0  0  0  0  0  0  0  0
    3.0790   -4.9500    0.0000 O   0  0  0  0  0  0  0  0  0  0  0  0
    3.0790    4.9500    0.0000 O   0  0  0  0  0  0  0  0  0  0  0  0
    3.0790   -3.3000    0.0000 N   0  0  0  0  0  0  0  0  0  0  0  0
    3.0790    3.3000    0.0000 N   0  0  0  0  0  0  0  0  0  0  0  0
    3.0790   -0.8250    0.0000 C   0  0  0  0  0  0  0  0  0  0  0  0
    3.0790    0.8250    0.0000 C   0  0  0  0  0  0  0  0  0  0  0  0
    2.3644   -1.2375    0.0000 C   0  0  0  0  0  0  0  0  0  0  0  0
    3.7934    1.2375    0.0000 C   0  0  0  0  0  0  0  0  0  0  0  0
    3.7934   -1.2375    0.0000 C   0  0  0  0  0  0  0  0  0  0  0  0
    2.3644    1.2375    0.0000 C   0  0  0  0  0  0  0  0  0  0  0  0
    3.0790   -2.4750    0.0000 C   0  0  0  0  0  0  0  0  0  0  0  0
    3.0790    2.4750    0.0000 C   0  0  0  0  0  0  0  0  0  0  0  0
    2.3644   -2.0625    0.0000 C   0  0  0  0  0  0  0  0  0  0  0  0
    3.7934    2.0625    0.0000 C   0  0  0  0  0  0  0  0  0  0  0  0
    3.7934   -2.0625    0.0000 C   0  0  0  0  0  0  0  0  0  0  0  0
    2.3644    2.0625    0.0000 C   0  0  0  0  0  0  0  0  0  0  0  0
    2.3644   -3.7125    0.0000 C   0  0  0  0  0  0  0  0  0  0  0  0
    3.7934    3.7125    0.0000 C   0  0  0  0  0  0  0  0  0  0  0  0
    0.8099   -4.4650    0.0000 H   0  0  0  0  0  0  0  0  0  0  0  0
    5.3479    4.4650    0.0000 H   0  0  0  0  0  0  0  0  0  0  0  0
    3.9316   -3.7923    0.0000 H   0  0  0  0  0  0  0  0  0  0  0  0
    2.2264    3.7922    0.0000 H   0  0  0  0  0  0  0  0  0  0  0  0
    1.4707   -0.7215    0.0000 H   0  0  0  0  0  0  0  0  0  0  0  0
    4.6871    0.7215    0.0000 H   0  0  0  0  0  0  0  0  0  0  0  0
    4.6871   -0.7215    0.0000 H   0  0  0  0  0  0  0  0  0  0  0  0
    1.4707    0.7215    0.0000 H   0  0  0  0  0  0  0  0  0  0  0  0
    1.4707   -2.5785    0.0000 H   0  0  0  0  0  0  0  0  0  0  0  0
    4.6871    2.5785    0.0000 H   0  0  0  0  0  0  0  0  0  0  0  0
    4.6871   -2.5785    0.0000 H   0  0  0  0  0  0  0  0  0  0  0  0
    1.4707    2.5785    0.0000 H   0  0  0  0  0  0  0  0  0  0  0  0
    1.4378   -3.1775    0.0000 H   0  0  0  0  0  0  0  0  0  0  0  0
    2.3645   -2.6425    0.0000 H   0  0  0  0  0  0  0  0  0  0  0  0
    4.7201    3.1775    0.0000 H   0  0  0  0  0  0  0  0  0  0  0  0
    3.7934    2.6425    0.0000 H   0  0  0  0  0  0  0  0  0  0  0  0
  1  4  2  0  0  0  0
  1  5  2  0  0  0  0
  1 12  1  0  0  0  0
  1 13  1  0  0  0  0
  2  6  1  0  0  0  0
  2  8  2  0  0  0  0
  2 24  1  0  0  0  0
  3  7  1  0  0  0  0
  3  9  2  0  0  0  0
  3 25  1  0  0  0  0
  6 26  1  0  0  0  0
  7 27  1  0  0  0  0
 10 18  1  0  0  0  0
 10 24  1  0  0  0  0
 10 28  1  0  0  0  0
 11 19  1  0  0  0  0
 11 25  1  0  0  0  0
 11 29  1  0  0  0  0
 12 14  2  0  0  0  0
 12 16  1  0  0  0  0
 13 15  2  0  0  0  0
 13 17  1  0  0  0  0
 14 20  1  0  0  0  0
 14 30  1  0  0  0  0
 15 21  1  0  0  0  0
 15 31  1  0  0  0  0
 16 22  2  0  0  0  0
 16 32  1  0  0  0  0
 17 23  2  0  0  0  0
 17 33  1  0  0  0  0
 18 20  2  0  0  0  0
 18 22  1  0  0  0  0
 19 21  2  0  0  0  0
 19 23  1  0  0  0  0
 20 34  1  0  0  0  0
 21 35  1  0  0  0  0
 22 36  1  0  0  0  0
 23 37  1  0  0  0  0
 24 38  1  0  0  0  0
 24 39  1  0  0  0  0
 25 40  1  0  0  0  0
 25 41  1  0  0  0  0
M  END
>  <DRUGBANK_ID>
DB01145

>  <SECONDARY_ACCESSION_NUMBERS>
APRD00704

>  <COMMON_NAME>
Sulfoxone

>  <CAS_NUMBER>
144-76-3

>  <UNII>
0G3C18OH4D

>  <SYNONYMS>
Aldesulfone; Aldesulphone

$$$$
