
 OpenBabel10282417072D

 70 70  0  0  0  0  0  0  0  0999 V2000
    4.4911   -1.4576    0.0000 C   0  0  1  0  0  0  0  0  0  0  0  0
    3.7735   -1.8503    0.0000 C   0  0  1  0  0  0  0  0  0  0  0  0
    5.2053   -1.8572    0.0000 C   0  0  1  0  0  0  0  0  0  0  0  0
    4.4911   -0.6215    0.0000 O   0  0  0  0  0  0  0  0  0  0  0  0
    3.0627   -1.4478    0.0000 C   0  0  2  0  0  0  0  0  0  0  0  0
    3.7735   -2.6783    0.0000 O   0  0  0  0  0  0  0  0  0  0  0  0
    5.9265   -1.4576    0.0000 C   0  0  0  0  0  0  0  0  0  0  0  0
    5.2053   -2.6818    0.0000 O   0  0  0  0  0  0  0  0  0  0  0  0
    2.3417   -1.8434    0.0000 C   0  0  0  0  0  0  0  0  0  0  0  0
    3.0627   -0.6117    0.0000 O   0  0  0  0  0  0  0  0  0  0  0  0
    6.6406   -1.8572    0.0000 O   0  0  0  0  0  0  0  0  0  0  0  0
    2.3382   -2.6783    0.0000 O   0  0  0  0  0  0  0  0  0  0  0  0
    1.6240   -1.4366    0.0000 O   0  0  0  0  0  0  0  0  0  0  0  0
   -4.1668    0.5261    0.0000 C   0  0  2  0  0  0  0  0  0  0  0  0
   -3.2249    0.0914    0.0000 O   0  0  0  0  0  0  0  0  0  0  0  0
   -4.5878    1.2368    0.0000 O   0  0  0  0  0  0  0  0  0  0  0  0
   -4.5637   -0.1949    0.0000 C   0  0  1  0  0  0  0  0  0  0  0  0
   -3.1939   -1.4542    0.0000 C   0  0  1  0  0  0  0  0  0  0  0  0
   -5.3744    1.2403    0.0000 C   0  0  1  0  0  0  0  0  0  0  0  0
   -5.4089   -0.1742    0.0000 C   0  0  2  0  0  0  0  0  0  0  0  0
   -4.1737   -0.9125    0.0000 O   0  0  0  0  0  0  0  0  0  0  0  0
   -2.4763   -1.8614    0.0000 C   0  0  1  0  0  0  0  0  0  0  0  0
   -3.9081   -1.8683    0.0000 C   0  0  1  0  0  0  0  0  0  0  0  0
   -5.7816    0.5399    0.0000 C   0  0  1  0  0  0  0  0  0  0  0  0
   -5.7885    1.9891    0.0000 C   0  0  0  0  0  0  0  0  0  0  0  0
   -5.8126   -0.9022    0.0000 O   0  0  0  0  0  0  0  0  0  0  0  0
   -1.7655   -1.4508    0.0000 C   0  0  2  0  0  0  0  0  0  0  0  0
   -2.4763   -2.6894    0.0000 O   0  0  0  0  0  0  0  0  0  0  0  0
   -4.6292   -1.4542    0.0000 C   0  0  0  0  0  0  0  0  0  0  0  0
   -3.9081   -2.6928    0.0000 O   0  0  0  0  0  0  0  0  0  0  0  0
   -6.6406    0.5468    0.0000 O   0  0  0  0  0  0  0  0  0  0  0  0
   -5.3468    2.6928    0.0000 O   0  0  0  0  0  0  0  0  0  0  0  0
   -1.0444   -1.8545    0.0000 C   0  0  0  0  0  0  0  0  0  0  0  0
   -1.7655   -0.6159    0.0000 O   0  0  0  0  0  0  0  0  0  0  0  0
   -5.3434   -1.8683    0.0000 O   0  0  0  0  0  0  0  0  0  0  0  0
   -1.0410   -2.6894    0.0000 O   0  0  0  0  0  0  0  0  0  0  0  0
   -0.3268   -1.4404    0.0000 O   0  0  0  0  0  0  0  0  0  0  0  0
    0.5463   -1.4364    0.0000 Ca  0  0  0  0  0  0  0  0  0  0  0  0
    3.5706   -0.9120    0.0000 H   0  0  0  0  0  0  0  0  0  0  0  0
    4.6940   -2.3959    0.0000 H   0  0  0  0  0  0  0  0  0  0  0  0
    4.2823   -2.3984    0.0000 H   0  0  0  0  0  0  0  0  0  0  0  0
    5.3311   -0.1365    0.0000 H   0  0  0  0  0  0  0  0  0  0  0  0
    3.9871   -0.9089    0.0000 H   0  0  0  0  0  0  0  0  0  0  0  0
    2.9335   -3.1633    0.0000 H   0  0  0  0  0  0  0  0  0  0  0  0
    5.9287   -0.3876    0.0000 H   0  0  0  0  0  0  0  0  0  0  0  0
    6.8501   -0.9174    0.0000 H   0  0  0  0  0  0  0  0  0  0  0  0
    4.3653   -3.1668    0.0000 H   0  0  0  0  0  0  0  0  0  0  0  0
    3.9027   -0.1267    0.0000 H   0  0  0  0  0  0  0  0  0  0  0  0
    6.6536   -2.8271    0.0000 H   0  0  0  0  0  0  0  0  0  0  0  0
   -3.4499    1.3204    0.0000 H   0  0  0  0  0  0  0  0  0  0  0  0
   -3.4937   -0.1978    0.0000 H   0  0  0  0  0  0  0  0  0  0  0  0
   -2.2747   -0.9065    0.0000 H   0  0  0  0  0  0  0  0  0  0  0  0
   -4.8288    2.1608    0.0000 H   0  0  0  0  0  0  0  0  0  0  0  0
   -6.4788   -0.1607    0.0000 H   0  0  0  0  0  0  0  0  0  0  0  0
   -4.6802   -1.7398    0.0000 H   0  0  0  0  0  0  0  0  0  0  0  0
   -1.5496   -2.3963    0.0000 H   0  0  0  0  0  0  0  0  0  0  0  0
   -4.8341   -2.4044    0.0000 H   0  0  0  0  0  0  0  0  0  0  0  0
   -6.3399   -0.3729    0.0000 H   0  0  0  0  0  0  0  0  0  0  0  0
   -6.8581    2.0187    0.0000 H   0  0  0  0  0  0  0  0  0  0  0  0
   -6.3447    1.0750    0.0000 H   0  0  0  0  0  0  0  0  0  0  0  0
   -6.7825   -0.9190    0.0000 H   0  0  0  0  0  0  0  0  0  0  0  0
   -2.6922   -0.9159    0.0000 H   0  0  0  0  0  0  0  0  0  0  0  0
   -3.3163   -3.1744    0.0000 H   0  0  0  0  0  0  0  0  0  0  0  0
   -4.6314   -0.3842    0.0000 H   0  0  0  0  0  0  0  0  0  0  0  0
   -5.5569   -0.9210    0.0000 H   0  0  0  0  0  0  0  0  0  0  0  0
   -4.7481   -3.1778    0.0000 H   0  0  0  0  0  0  0  0  0  0  0  0
   -7.1188    1.3907    0.0000 H   0  0  0  0  0  0  0  0  0  0  0  0
   -4.3775    2.6570    0.0000 H   0  0  0  0  0  0  0  0  0  0  0  0
   -0.9255   -0.1309    0.0000 H   0  0  0  0  0  0  0  0  0  0  0  0
   -6.1843   -1.3848    0.0000 H   0  0  0  0  0  0  0  0  0  0  0  0
  1  2  1  0  0  0  0
  1  3  1  0  0  0  0
  1  4  1  0  0  0  0
  1 39  1  1  0  0  0
  2  5  1  0  0  0  0
  2  6  1  0  0  0  0
  2 40  1  1  0  0  0
  3  7  1  0  0  0  0
  3  8  1  0  0  0  0
  3 41  1  6  0  0  0
  4 42  1  0  0  0  0
  5  9  1  0  0  0  0
  5 10  1  0  0  0  0
  5 43  1  1  0  0  0
  6 44  1  0  0  0  0
  7 11  1  0  0  0  0
  7 45  1  0  0  0  0
  7 46  1  0  0  0  0
  8 47  1  0  0  0  0
  9 13  1  0  0  0  0
  9 12  2  0  0  0  0
 10 48  1  0  0  0  0
 11 49  1  0  0  0  0
 14 15  1  0  0  0  0
 14 16  1  0  0  0  0
 14 17  1  0  0  0  0
 14 50  1  6  0  0  0
 16 19  1  0  0  0  0
 17 20  1  0  0  0  0
 17 21  1  0  0  0  0
 17 51  1  1  0  0  0
 18 15  1  0  0  0  0
 18 22  1  0  0  0  0
 18 23  1  0  0  0  0
 18 52  1  6  0  0  0
 19 24  1  0  0  0  0
 19 25  1  0  0  0  0
 19 53  1  6  0  0  0
 20 26  1  0  0  0  0
 20 24  1  0  0  0  0
 20 54  1  6  0  0  0
 21 55  1  0  0  0  0
 22 27  1  0  0  0  0
 22 28  1  0  0  0  0
 22 56  1  6  0  0  0
 23 29  1  0  0  0  0
 23 30  1  0  0  0  0
 23 57  1  1  0  0  0
 24 31  1  0  0  0  0
 24 58  1  6  0  0  0
 25 32  1  0  0  0  0
 25 59  1  0  0  0  0
 25 60  1  0  0  0  0
 26 61  1  0  0  0  0
 27 33  1  0  0  0  0
 27 34  1  0  0  0  0
 27 62  1  6  0  0  0
 28 63  1  0  0  0  0
 29 35  1  0  0  0  0
 29 64  1  0  0  0  0
 29 65  1  0  0  0  0
 30 66  1  0  0  0  0
 31 67  1  0  0  0  0
 32 68  1  0  0  0  0
 33 36  2  0  0  0  0
 33 37  1  0  0  0  0
 34 69  1  0  0  0  0
 35 70  1  0  0  0  0
 37 38  1  0  0  0  0
 38 13  1  0  0  0  0
M  END
>  <DRUGBANK_ID>
DB13142

>  <COMMON_NAME>
Calcium glubionate anhydrous

>  <CAS_NUMBER>
97635-31-9

>  <UNII>
93H20IU3DN

>  <SYNONYMS>
(D-gluconato)(lactobionato)calcium; Calcium D-gluconate lactobionate; Calcium glubionate anhydrous; Glubionate calcium

$$$$
