
 OpenBabel10282417072D

 53 55  0  0  0  0  0  0  0  0999 V2000
   -0.7948    0.8299    0.0000 C   0  0  0  0  0  0  0  0  0  0  0  0
    0.0281    0.8297    0.0000 C   0  0  0  0  0  0  0  0  0  0  0  0
   -1.1324   -0.6128    0.0000 C   0  0  0  0  0  0  0  0  0  0  0  0
   -1.3112    0.1874    0.0000 C   0  0  0  0  0  0  0  0  0  0  0  0
   -1.7380   -1.1785    0.0000 C   0  0  0  0  0  0  0  0  0  0  0  0
   -2.5214   -0.9362    0.0000 C   0  0  0  0  0  0  0  0  0  0  0  0
   -2.7038   -0.1314    0.0000 C   0  0  0  0  0  0  0  0  0  0  0  0
   -2.1024    0.4308    0.0000 C   0  0  0  0  0  0  0  0  0  0  0  0
   -0.3863   -0.9762    0.0000 N   0  0  0  0  0  0  0  0  0  0  0  0
   -0.3906   -1.8027    0.0000 C   0  0  0  0  0  0  0  0  0  0  0  0
    1.0395   -1.8056    0.0000 O   0  0  0  0  0  0  0  0  0  0  0  0
    0.3263   -2.2178    0.0000 C   0  0  0  0  0  0  0  0  0  0  0  0
    0.3219   -3.0441    0.0000 O   0  0  0  0  0  0  0  0  0  0  0  0
    0.3560   -0.6181    0.0000 C   0  0  0  0  0  0  0  0  0  0  0  0
    0.9985   -1.1346    0.0000 O   0  0  0  0  0  0  0  0  0  0  0  0
    0.5383    0.1877    0.0000 C   0  0  1  0  0  0  0  0  0  0  0  0
    1.2627    0.5765    0.0000 N   0  0  0  0  0  0  0  0  0  0  0  0
    1.9855    2.6497    0.0000 O   0  0  0  0  0  0  0  0  0  0  0  0
    1.9861    1.8212    0.0000 C   0  0  0  0  0  0  0  0  0  0  0  0
    2.7038    1.4149    0.0000 O   0  0  0  0  0  0  0  0  0  0  0  0
    1.2738    1.4044    0.0000 C   0  0  2  0  0  0  0  0  0  0  0  0
    0.5596    1.8124    0.0000 C   0  0  0  0  0  0  0  0  0  0  0  0
   -0.1519    1.3956    0.0000 C   0  0  0  0  0  0  0  0  0  0  0  0
   -0.8712    1.8060    0.0000 C   0  0  0  0  0  0  0  0  0  0  0  0
   -1.5860    3.0441    0.0000 C   0  0  0  0  0  0  0  0  0  0  0  0
   -0.8741    2.6310    0.0000 C   0  0  0  0  0  0  0  0  0  0  0  0
   -1.5828    1.3891    0.0000 C   0  0  0  0  0  0  0  0  0  0  0  0
   -2.3021    1.7995    0.0000 C   0  0  0  0  0  0  0  0  0  0  0  0
   -2.3026    2.6296    0.0000 C   0  0  0  0  0  0  0  0  0  0  0  0
    1.2489   -0.2253    0.0000 H   0  0  0  0  0  0  0  0  0  0  0  0
   -1.2571    1.7949    0.0000 H   0  0  0  0  0  0  0  0  0  0  0  0
   -0.2245    1.7352    0.0000 H   0  0  0  0  0  0  0  0  0  0  0  0
    0.4933    1.7933    0.0000 H   0  0  0  0  0  0  0  0  0  0  0  0
    1.0915    0.9481    0.0000 H   0  0  0  0  0  0  0  0  0  0  0  0
   -1.5071   -2.1843    0.0000 H   0  0  0  0  0  0  0  0  0  0  0  0
   -3.2787   -1.6373    0.0000 H   0  0  0  0  0  0  0  0  0  0  0  0
   -3.6903    0.1717    0.0000 H   0  0  0  0  0  0  0  0  0  0  0  0
   -2.3343    1.4364    0.0000 H   0  0  0  0  0  0  0  0  0  0  0  0
   -1.3190   -2.3347    0.0000 H   0  0  0  0  0  0  0  0  0  0  0  0
   -0.3930   -2.8727    0.0000 H   0  0  0  0  0  0  0  0  0  0  0  0
    1.8512   -2.2737    0.0000 H   0  0  0  0  0  0  0  0  0  0  0  0
    2.1345    0.0470    0.0000 H   0  0  0  0  0  0  0  0  0  0  0  0
    2.7117    0.4779    0.0000 H   0  0  0  0  0  0  0  0  0  0  0  0
    0.3448    0.8735    0.0000 H   0  0  0  0  0  0  0  0  0  0  0  0
    0.5538    2.8824    0.0000 H   0  0  0  0  0  0  0  0  0  0  0  0
   -0.3702    2.3419    0.0000 H   0  0  0  0  0  0  0  0  0  0  0  0
   -0.1458    0.3256    0.0000 H   0  0  0  0  0  0  0  0  0  0  0  0
   -1.0756    0.8556    0.0000 H   0  0  0  0  0  0  0  0  0  0  0  0
   -1.5853    4.0761    0.0000 H   0  0  0  0  0  0  0  0  0  0  0  0
    0.0193    3.1476    0.0000 H   0  0  0  0  0  0  0  0  0  0  0  0
   -1.5769    0.3571    0.0000 H   0  0  0  0  0  0  0  0  0  0  0  0
   -3.1944    1.2809    0.0000 H   0  0  0  0  0  0  0  0  0  0  0  0
   -3.1967    3.1450    0.0000 H   0  0  0  0  0  0  0  0  0  0  0  0
  1  2  1  0  0  0  0
  1 31  1  0  0  0  0
  1 32  1  0  0  0  0
  2 16  1  0  0  0  0
  2 33  1  0  0  0  0
  2 34  1  0  0  0  0
  4  1  1  0  0  0  0
  4  3  1  0  0  0  0
  5  3  2  0  0  0  0
  5  6  1  0  0  0  0
  5 35  1  0  0  0  0
  6  7  2  0  0  0  0
  6 36  1  0  0  0  0
  7  8  1  0  0  0  0
  7 37  1  0  0  0  0
  8  4  2  0  0  0  0
  8 38  1  0  0  0  0
  9  3  1  0  0  0  0
  9 10  1  0  0  0  0
 10 12  1  0  0  0  0
 10 39  1  0  0  0  0
 10 40  1  0  0  0  0
 11 41  1  0  0  0  0
 12 11  1  0  0  0  0
 12 13  2  0  0  0  0
 14  9  1  0  0  0  0
 14 15  2  0  0  0  0
 16 14  1  0  0  0  0
 16 17  1  0  0  0  0
 16 30  1  1  0  0  0
 17 21  1  0  0  0  0
 17 42  1  0  0  0  0
 19 18  2  0  0  0  0
 19 20  1  0  0  0  0
 20 43  1  0  0  0  0
 21 19  1  0  0  0  0
 21 22  1  0  0  0  0
 21 44  1  6  0  0  0
 22 23  1  0  0  0  0
 22 45  1  0  0  0  0
 22 46  1  0  0  0  0
 23 24  1  0  0  0  0
 23 47  1  0  0  0  0
 23 48  1  0  0  0  0
 24 27  1  0  0  0  0
 25 26  1  0  0  0  0
 25 29  2  0  0  0  0
 25 49  1  0  0  0  0
 26 24  2  0  0  0  0
 26 50  1  0  0  0  0
 27 28  2  0  0  0  0
 27 51  1  0  0  0  0
 28 29  1  0  0  0  0
 28 52  1  0  0  0  0
 29 53  1  0  0  0  0
M  END
>  <DRUGBANK_ID>
DB14125

>  <COMMON_NAME>
Benazeprilat

>  <CAS_NUMBER>
86541-78-8

>  <UNII>
JRM708L703

>  <SYNONYMS>
(3S)-3-(((1S)-1-Carboxy-3-phenylpropyl)amino)-2,3,4,5-tetrahydro-2-oxo-1H-1-benzazepine-1-acetic acid; Benazepril diacid; Benazeprilat; Bénazéprilate; Benazeprilatum

$$$$
