
 OpenBabel10282417072D

 39 39  0  0  0  0  0  0  0  0999 V2000
   -1.5365    1.0272    0.0000 C   0  0  0  0  0  0  0  0  0  0  0  0
   -0.7115    1.0272    0.0000 C   0  0  0  0  0  0  0  0  0  0  0  0
   -0.4548    1.8113    0.0000 C   0  0  2  0  0  0  0  0  0  0  0  0
   -1.1240    2.2980    0.0000 N   0  0  0  0  0  0  0  0  0  0  0  0
   -1.7890    1.8113    0.0000 C   0  0  0  0  0  0  0  0  0  0  0  0
    0.2550    2.2272    0.0000 C   0  0  0  0  0  0  0  0  0  0  0  0
    0.9675    1.8147    0.0000 O   0  0  0  0  0  0  0  0  0  0  0  0
    0.2529    3.0521    0.0000 O   0  0  0  0  0  0  0  0  0  0  0  0
   -2.5737    2.0659    0.0000 O   0  0  0  0  0  0  0  0  0  0  0  0
    0.4286   -0.5814    0.0000 C   0  0  0  0  0  0  0  0  0  0  0  0
    0.4274   -1.4087    0.0000 C   0  0  0  0  0  0  0  0  0  0  0  0
    1.1423   -1.8214    0.0000 C   0  0  0  0  0  0  0  0  0  0  0  0
    1.8586   -1.4082    0.0000 C   0  0  0  0  0  0  0  0  0  0  0  0
    1.8557   -0.5777    0.0000 C   0  0  0  0  0  0  0  0  0  0  0  0
    1.1405   -0.1686    0.0000 N   0  0  0  0  0  0  0  0  0  0  0  0
    2.5687   -0.1626    0.0000 C   0  0  0  0  0  0  0  0  0  0  0  0
    2.5737   -1.8196    0.0000 O   0  0  0  0  0  0  0  0  0  0  0  0
    1.1384   -2.6397    0.0000 C   0  0  0  0  0  0  0  0  0  0  0  0
    1.8508   -3.0521    0.0000 O   0  0  0  0  0  0  0  0  0  0  0  0
   -0.2865   -1.8147    0.0000 C   0  0  0  0  0  0  0  0  0  0  0  0
   -0.2865   -2.6355    0.0000 O   0  0  0  0  0  0  0  0  0  0  0  0
   -2.1666    0.1624    0.0000 H   0  0  0  0  0  0  0  0  0  0  0  0
   -1.0514    0.0735    0.0000 H   0  0  0  0  0  0  0  0  0  0  0  0
   -0.0835    0.1609    0.0000 H   0  0  0  0  0  0  0  0  0  0  0  0
    0.3456    1.1928    0.0000 H   0  0  0  0  0  0  0  0  0  0  0  0
    0.3782    1.1397    0.0000 H   0  0  0  0  0  0  0  0  0  0  0  0
   -1.1255    3.2825    0.0000 H   0  0  0  0  0  0  0  0  0  0  0  0
    0.9664    0.8777    0.0000 H   0  0  0  0  0  0  0  0  0  0  0  0
   -0.4652   -0.0656    0.0000 H   0  0  0  0  0  0  0  0  0  0  0  0
    3.4973   -0.6942    0.0000 H   0  0  0  0  0  0  0  0  0  0  0  0
    2.5648    0.9074    0.0000 H   0  0  0  0  0  0  0  0  0  0  0  0
    3.4934    0.3758    0.0000 H   0  0  0  0  0  0  0  0  0  0  0  0
    2.5751   -2.7566    0.0000 H   0  0  0  0  0  0  0  0  0  0  0  0
    0.2102   -3.1720    0.0000 H   0  0  0  0  0  0  0  0  0  0  0  0
    1.1362   -3.7097    0.0000 H   0  0  0  0  0  0  0  0  0  0  0  0
    1.8497   -4.0221    0.0000 H   0  0  0  0  0  0  0  0  0  0  0  0
   -1.2114   -1.2767    0.0000 H   0  0  0  0  0  0  0  0  0  0  0  0
   -1.2140   -2.3482    0.0000 H   0  0  0  0  0  0  0  0  0  0  0  0
   -1.1265   -3.1205    0.0000 H   0  0  0  0  0  0  0  0  0  0  0  0
  1  2  1  0  0  0  0
  1 22  1  0  0  0  0
  1 23  1  0  0  0  0
  2  3  1  0  0  0  0
  2 24  1  0  0  0  0
  2 25  1  0  0  0  0
  3  6  1  0  0  0  0
  3  4  1  0  0  0  0
  3 26  1  1  0  0  0
  4  5  1  0  0  0  0
  4 27  1  0  0  0  0
  5  1  1  0  0  0  0
  5  9  2  0  0  0  0
  6  7  1  0  0  0  0
  6  8  2  0  0  0  0
  7 28  1  0  0  0  0
 10 11  2  0  0  0  0
 10 29  1  0  0  0  0
 11 12  1  0  0  0  0
 11 20  1  0  0  0  0
 12 13  2  0  0  0  0
 12 18  1  0  0  0  0
 13 14  1  0  0  0  0
 13 17  1  0  0  0  0
 14 15  2  0  0  0  0
 14 16  1  0  0  0  0
 15 10  1  0  0  0  0
 16 30  1  0  0  0  0
 16 31  1  0  0  0  0
 16 32  1  0  0  0  0
 17 33  1  0  0  0  0
 18 19  1  0  0  0  0
 18 34  1  0  0  0  0
 18 35  1  0  0  0  0
 19 36  1  0  0  0  0
 20 21  1  0  0  0  0
 20 37  1  0  0  0  0
 20 38  1  0  0  0  0
 21 39  1  0  0  0  0
M  END
>  <DRUGBANK_ID>
DB16554

>  <COMMON_NAME>
Metadoxine

>  <CAS_NUMBER>
74536-44-0

>  <UNII>
EJQ7M98H5J

>  <SYNONYMS>
Pyridoxine mixture with Pyrrolidonecarboxylic Acid; Pyridoxine pyroglutamate

$$$$
