3IP
 OpenBabel10282417072D

 27 28  0  0  0  0  0  0  0  0999 V2000
    1.7338    0.9818    0.0000 N   0  0  0  0  0  0  0  0  0  0  0  0
    1.7338    0.1568    0.0000 C   0  0  0  0  0  0  0  0  0  0  0  0
    2.4483   -0.2557    0.0000 N   0  0  0  0  0  0  0  0  0  0  0  0
    2.4483   -1.0807    0.0000 C   0  0  0  0  0  0  0  0  0  0  0  0
    1.7338   -1.4932    0.0000 C   0  0  0  0  0  0  0  0  0  0  0  0
    1.0194   -1.0807    0.0000 C   0  0  0  0  0  0  0  0  0  0  0  0
    1.0194   -0.2557    0.0000 C   0  0  0  0  0  0  0  0  0  0  0  0
    0.3049    0.1568    0.0000 O   0  0  0  0  0  0  0  0  0  0  0  0
   -0.4096   -0.2557    0.0000 C   0  0  0  0  0  0  0  0  0  0  0  0
   -1.1240    0.1568    0.0000 C   0  0  0  0  0  0  0  0  0  0  0  0
   -1.8385   -0.2557    0.0000 C   0  0  0  0  0  0  0  0  0  0  0  0
   -2.5530    0.1568    0.0000 C   0  0  0  0  0  0  0  0  0  0  0  0
   -2.5530    0.9818    0.0000 C   0  0  0  0  0  0  0  0  0  0  0  0
   -1.8385    1.3943    0.0000 C   0  0  0  0  0  0  0  0  0  0  0  0
   -1.1240    0.9818    0.0000 C   0  0  0  0  0  0  0  0  0  0  0  0
    2.5864    1.4741    0.0000 H   0  0  0  0  0  0  0  0  0  0  0  0
    0.8812    1.4741    0.0000 H   0  0  0  0  0  0  0  0  0  0  0  0
    3.3420   -1.5967    0.0000 H   0  0  0  0  0  0  0  0  0  0  0  0
    1.7338   -2.5252    0.0000 H   0  0  0  0  0  0  0  0  0  0  0  0
    0.1257   -1.5967    0.0000 H   0  0  0  0  0  0  0  0  0  0  0  0
   -0.4096   -1.3257    0.0000 H   0  0  0  0  0  0  0  0  0  0  0  0
   -1.3363   -0.7907    0.0000 H   0  0  0  0  0  0  0  0  0  0  0  0
   -1.8385   -1.2877    0.0000 H   0  0  0  0  0  0  0  0  0  0  0  0
   -3.4467   -0.3592    0.0000 H   0  0  0  0  0  0  0  0  0  0  0  0
   -3.4467    1.4978    0.0000 H   0  0  0  0  0  0  0  0  0  0  0  0
   -1.8385    2.4263    0.0000 H   0  0  0  0  0  0  0  0  0  0  0  0
   -0.2303    1.4978    0.0000 H   0  0  0  0  0  0  0  0  0  0  0  0
  1  2  1  0  0  0  0
  1 16  1  0  0  0  0
  1 17  1  0  0  0  0
  2  3  2  0  0  0  0
  2  7  1  0  0  0  0
  3  4  1  0  0  0  0
  4  5  2  0  0  0  0
  4 18  1  0  0  0  0
  5  6  1  0  0  0  0
  5 19  1  0  0  0  0
  6  7  2  0  0  0  0
  6 20  1  0  0  0  0
  7  8  1  0  0  0  0
  8  9  1  0  0  0  0
  9 10  1  0  0  0  0
  9 21  1  0  0  0  0
  9 22  1  0  0  0  0
 10 11  2  0  0  0  0
 10 15  1  0  0  0  0
 11 12  1  0  0  0  0
 11 23  1  0  0  0  0
 12 13  2  0  0  0  0
 12 24  1  0  0  0  0
 13 14  1  0  0  0  0
 13 25  1  0  0  0  0
 14 15  2  0  0  0  0
 14 26  1  0  0  0  0
 15 27  1  0  0  0  0
M  END
>  <DRUGBANK_ID>
DB02352

>  <SECONDARY_ACCESSION_NUMBERS>
EXPT00176

>  <COMMON_NAME>
3-(Benzyloxy)Pyridin-2-Amine

>  <UNII>
IYW7T7718Z

$$$$
