934
 OpenBabel10282417072D

 44 47  0  0  0  0  0  0  0  0999 V2000
    5.3052   -1.8593    0.0000 N   0  0  0  0  0  0  0  0  0  0  0  0
    4.5950    0.7910    0.0000 C   0  0  3  0  0  0  0  0  0  0  0  0
    4.8000    1.5561    0.0000 C   0  0  3  0  0  0  0  0  0  0  0  0
    3.8205    2.2283    0.0000 C   0  0  0  0  0  0  0  0  0  0  0  0
    4.5065    2.6244    0.0000 C   0  0  0  0  0  0  0  0  0  0  0  0
    6.0461    0.1900    0.0000 C   0  0  0  0  0  0  0  0  0  0  0  0
    3.2232   -0.0010    0.0000 C   0  0  0  0  0  0  0  0  0  0  0  0
    4.3900    0.0260    0.0000 C   0  0  0  0  0  0  0  0  0  0  0  0
    6.2511    0.9551    0.0000 C   0  0  0  0  0  0  0  0  0  0  0  0
    2.8271    0.6849    0.0000 C   0  0  0  0  0  0  0  0  0  0  0  0
    4.9501   -0.5341    0.0000 C   0  0  0  0  0  0  0  0  0  0  0  0
    6.6204   -0.4023    0.0000 C   0  0  0  0  0  0  0  0  0  0  0  0
    2.8217   -0.7218    0.0000 C   0  0  0  0  0  0  0  0  0  0  0  0
    7.0446    1.1809    0.0000 C   0  0  0  0  0  0  0  0  0  0  0  0
    2.0022    0.6977    0.0000 C   0  0  0  0  0  0  0  0  0  0  0  0
    4.7451   -1.2991    0.0000 C   0  0  0  0  0  0  0  0  0  0  0  0
    7.4190   -0.1949    0.0000 C   0  0  0  0  0  0  0  0  0  0  0  0
    1.9966   -0.7281    0.0000 C   0  0  0  0  0  0  0  0  0  0  0  0
    7.6324    0.6020    0.0000 C   0  0  0  0  0  0  0  0  0  0  0  0
    1.5841   -0.0136    0.0000 C   0  0  0  0  0  0  0  0  0  0  0  0
    5.1002   -2.6244    0.0000 C   0  0  0  0  0  0  0  0  0  0  0  0
    6.2905   -1.5953    0.0000 H   0  0  0  0  0  0  0  0  0  0  0  0
    5.6022    2.2642    0.0000 H   0  0  0  0  0  0  0  0  0  0  0  0
    2.7911    2.5204    0.0000 H   0  0  0  0  0  0  0  0  0  0  0  0
    3.6886    3.2901    0.0000 H   0  0  0  0  0  0  0  0  0  0  0  0
    4.9128    3.6142    0.0000 H   0  0  0  0  0  0  0  0  0  0  0  0
    3.7009    3.3286    0.0000 H   0  0  0  0  0  0  0  0  0  0  0  0
    3.3565   -0.2509    0.0000 H   0  0  0  0  0  0  0  0  0  0  0  0
    4.1131   -1.0075    0.0000 H   0  0  0  0  0  0  0  0  0  0  0  0
    5.9836   -0.2572    0.0000 H   0  0  0  0  0  0  0  0  0  0  0  0
    5.7067   -1.2907    0.0000 H   0  0  0  0  0  0  0  0  0  0  0  0
    6.3418   -1.3960    0.0000 H   0  0  0  0  0  0  0  0  0  0  0  0
    3.3480   -1.6095    0.0000 H   0  0  0  0  0  0  0  0  0  0  0  0
    7.3002    2.1807    0.0000 H   0  0  0  0  0  0  0  0  0  0  0  0
    1.4967    1.5974    0.0000 H   0  0  0  0  0  0  0  0  0  0  0  0
    3.7115   -1.5760    0.0000 H   0  0  0  0  0  0  0  0  0  0  0  0
    3.9885   -0.5425    0.0000 H   0  0  0  0  0  0  0  0  0  0  0  0
    8.1460   -0.9274    0.0000 H   0  0  0  0  0  0  0  0  0  0  0  0
    1.4840   -1.6238    0.0000 H   0  0  0  0  0  0  0  0  0  0  0  0
    8.6282    0.8730    0.0000 H   0  0  0  0  0  0  0  0  0  0  0  0
    0.5521   -0.0096    0.0000 H   0  0  0  0  0  0  0  0  0  0  0  0
    4.0667   -2.9013    0.0000 H   0  0  0  0  0  0  0  0  0  0  0  0
    5.8568   -3.3810    0.0000 H   0  0  0  0  0  0  0  0  0  0  0  0
    4.8233   -3.6579    0.0000 H   0  0  0  0  0  0  0  0  0  0  0  0
  1 16  1  0  0  0  0
  1 21  1  0  0  0  0
  1 22  1  0  0  0  0
  2  4  1  0  0  0  0
  2  6  1  0  0  0  0
  2  7  1  0  0  0  0
  2  8  1  0  0  0  0
  3  5  1  0  0  0  0
  3  9  1  0  0  0  0
  3 10  1  0  0  0  0
  3 23  1  0  0  0  0
  4  5  1  0  0  0  0
  4 24  1  0  0  0  0
  4 25  1  0  0  0  0
  5 26  1  0  0  0  0
  5 27  1  0  0  0  0
  6  9  1  0  0  0  0
  6 12  2  0  0  0  0
  7 10  1  0  0  0  0
  7 13  2  0  0  0  0
  8 11  1  0  0  0  0
  8 28  1  0  0  0  0
  8 29  1  0  0  0  0
  9 14  2  0  0  0  0
 10 15  2  0  0  0  0
 11 16  1  0  0  0  0
 11 30  1  0  0  0  0
 11 31  1  0  0  0  0
 12 17  1  0  0  0  0
 12 32  1  0  0  0  0
 13 18  1  0  0  0  0
 13 33  1  0  0  0  0
 14 19  1  0  0  0  0
 14 34  1  0  0  0  0
 15 20  1  0  0  0  0
 15 35  1  0  0  0  0
 16 36  1  0  0  0  0
 16 37  1  0  0  0  0
 17 19  2  0  0  0  0
 17 38  1  0  0  0  0
 18 20  2  0  0  0  0
 18 39  1  0  0  0  0
 19 40  1  0  0  0  0
 20 41  1  0  0  0  0
 21 42  1  0  0  0  0
 21 43  1  0  0  0  0
 21 44  1  0  0  0  0
M  END
>  <DRUGBANK_ID>
DB00934

>  <SECONDARY_ACCESSION_NUMBERS>
APRD00747

>  <COMMON_NAME>
Maprotiline

>  <CAS_NUMBER>
10262-69-8

>  <UNII>
2U1W68TROF

>  <SYNONYMS>
Maprotilina; Maprotiline; Maprotilinum; Maprotylina

$$$$
