
 OpenBabel10282417072D

163165  0  0  0  0  0  0  0  0999 V2000
   -6.1673   -0.2818    0.0000 C   0  0  3  0  0  0  0  0  0  0  0  0
   -6.5802   -0.9959    0.0000 C   0  0  2  0  0  0  0  0  0  0  0  0
   -7.4013   -0.9959    0.0000 C   0  0  2  0  0  0  0  0  0  0  0  0
   -4.1998    2.4922    0.0000 C   0  0  3  0  0  0  0  0  0  0  0  0
   -6.5802    0.4322    0.0000 O   0  0  0  0  0  0  0  0  0  0  0  0
   -7.8190   -0.2818    0.0000 C   0  0  1  0  0  0  0  0  0  0  0  0
   -3.4808    2.9002    0.0000 C   0  0  3  0  0  0  0  0  0  0  0  0
   -4.2046    1.6663    0.0000 C   0  0  3  0  0  0  0  0  0  0  0  0
    6.5026    1.2145    0.0000 O   0  0  0  0  0  0  0  0  0  0  0  0
    7.2216    1.6274    0.0000 C   0  0  0  0  0  0  0  0  0  0  0  0
    6.5026    0.3886    0.0000 C   0  0  3  0  0  0  0  0  0  0  0  0
   -7.4013    0.4322    0.0000 C   0  0  1  0  0  0  0  0  0  0  0  0
   -4.9140    2.9099    0.0000 C   0  0  0  0  0  0  0  0  0  0  0  0
    7.2118   -2.5019    0.0000 C   0  0  0  0  0  0  0  0  0  0  0  0
    6.4977   -2.0889    0.0000 C   0  0  0  0  0  0  0  0  0  0  0  0
   -2.7716    2.4825    0.0000 C   0  0  0  0  0  0  0  0  0  0  0  0
    7.2216    2.4533    0.0000 C   0  0  0  0  0  0  0  0  0  0  0  0
   -5.3414   -0.2818    0.0000 O   0  0  0  0  0  0  0  0  0  0  0  0
   -4.9236    1.2582    0.0000 C   0  0  0  0  0  0  0  0  0  0  0  0
   -2.0524    2.8905    0.0000 C   0  0  0  0  0  0  0  0  0  0  0  0
    7.2167   -0.0242    0.0000 C   0  0  3  0  0  0  0  0  0  0  0  0
    7.2167   -0.8502    0.0000 C   0  0  0  0  0  0  0  0  0  0  0  0
    7.9308   -2.0889    0.0000 C   0  0  3  0  0  0  0  0  0  0  0  0
    5.7835   -2.5019    0.0000 C   0  0  0  0  0  0  0  0  0  0  0  0
   -4.9285    0.4322    0.0000 C   0  0  3  0  0  0  0  0  0  0  0  0
   -1.3383    2.4727    0.0000 C   0  0  0  0  0  0  0  0  0  0  0  0
    7.9308   -1.2630    0.0000 C   0  0  3  0  0  0  0  0  0  0  0  0
    6.5075    2.8662    0.0000 C   0  0  0  0  0  0  0  0  0  0  0  0
    7.9357    1.2097    0.0000 O   0  0  0  0  0  0  0  0  0  0  0  0
    2.9513    2.4484    0.0000 C   0  0  0  0  0  0  0  0  0  0  0  0
    5.7884   -0.0194    0.0000 C   0  0  3  0  0  0  0  0  0  0  0  0
   -4.9091    3.7358    0.0000 O   0  0  0  0  0  0  0  0  0  0  0  0
    1.5230    2.4581    0.0000 C   0  0  0  0  0  0  0  0  0  0  0  0
    0.0899    2.4679    0.0000 C   0  0  0  0  0  0  0  0  0  0  0  0
    3.6702    2.8565    0.0000 C   0  0  0  0  0  0  0  0  0  0  0  0
    6.4977   -1.2630    0.0000 O   0  0  0  0  0  0  0  0  0  0  0  0
   -0.6193    2.8856    0.0000 C   0  0  3  0  0  0  0  0  0  0  0  0
    2.2371    2.8662    0.0000 C   0  0  3  0  0  0  0  0  0  0  0  0
    0.8089    2.8760    0.0000 C   0  0  3  0  0  0  0  0  0  0  0  0
   -7.8142   -1.7101    0.0000 N   0  0  0  0  0  0  0  0  0  0  0  0
   -2.0475    3.7164    0.0000 O   0  0  0  0  0  0  0  0  0  0  0  0
   -2.0670    0.4177    0.0000 C   0  0  0  0  0  0  0  0  0  0  0  0
   -1.3529    0.0048    0.0000 C   0  0  0  0  0  0  0  0  0  0  0  0
   -0.6388    0.4129    0.0000 C   0  0  0  0  0  0  0  0  0  0  0  0
    0.0753    0.0000    0.0000 C   0  0  0  0  0  0  0  0  0  0  0  0
    0.7894    0.4080    0.0000 C   0  0  0  0  0  0  0  0  0  0  0  0
    1.5035   -0.0048    0.0000 C   0  0  0  0  0  0  0  0  0  0  0  0
    2.2177    0.4032    0.0000 C   0  0  0  0  0  0  0  0  0  0  0  0
    2.9318   -0.0096    0.0000 C   0  0  0  0  0  0  0  0  0  0  0  0
    3.6459    0.3984    0.0000 C   0  0  0  0  0  0  0  0  0  0  0  0
   -2.7812    0.0096    0.0000 C   0  0  0  0  0  0  0  0  0  0  0  0
    4.3602   -0.0145    0.0000 C   0  0  0  0  0  0  0  0  0  0  0  0
   -3.4954    0.4226    0.0000 C   0  0  0  0  0  0  0  0  0  0  0  0
   -4.2144    0.0145    0.0000 C   0  0  0  0  0  0  0  0  0  0  0  0
    5.0743    0.3935    0.0000 C   0  0  0  0  0  0  0  0  0  0  0  0
    6.5075    3.6921    0.0000 O   0  0  0  0  0  0  0  0  0  0  0  0
    3.6751    3.6823    0.0000 O   0  0  0  0  0  0  0  0  0  0  0  0
   -6.1624   -1.7101    0.0000 O   0  0  0  0  0  0  0  0  0  0  0  0
    5.0694   -2.0840    0.0000 C   0  0  0  0  0  0  0  0  0  0  0  0
    5.7884   -3.3229    0.0000 C   0  0  0  0  0  0  0  0  0  0  0  0
   -8.6450   -0.2818    0.0000 O   0  0  0  0  0  0  0  0  0  0  0  0
   -3.4759    3.7261    0.0000 O   0  0  0  0  0  0  0  0  0  0  0  0
   -3.4905    1.2484    0.0000 O   0  0  0  0  0  0  0  0  0  0  0  0
   -5.6281    2.5019    0.0000 O   0  0  0  0  0  0  0  0  0  0  0  0
    4.3553   -3.3229    0.0000 C   0  0  0  0  0  0  0  0  0  0  0  0
    3.6410   -3.7358    0.0000 N   0  0  0  0  0  0  0  0  0  0  0  0
    4.3553   -2.4971    0.0000 C   0  0  0  0  0  0  0  0  0  0  0  0
    5.0743   -3.7358    0.0000 C   0  0  0  0  0  0  0  0  0  0  0  0
    8.6450   -2.5019    0.0000 O   0  0  0  0  0  0  0  0  0  0  0  0
    0.8137    3.7018    0.0000 O   0  0  0  0  0  0  0  0  0  0  0  0
    2.2419    3.6921    0.0000 O   0  0  0  0  0  0  0  0  0  0  0  0
   -0.6145    3.7115    0.0000 O   0  0  0  0  0  0  0  0  0  0  0  0
   -7.8142    1.1514    0.0000 C   0  0  0  0  0  0  0  0  0  0  0  0
    5.0986    2.8516    0.0000 C   0  0  0  0  0  0  0  0  0  0  0  0
    7.9308    0.3886    0.0000 C   0  0  0  0  0  0  0  0  0  0  0  0
    5.7933    2.4533    0.0000 C   0  0  0  0  0  0  0  0  0  0  0  0
    4.3844    2.4435    0.0000 C   0  0  0  0  0  0  0  0  0  0  0  0
    8.6450   -0.8502    0.0000 C   0  0  0  0  0  0  0  0  0  0  0  0
    5.7835   -0.8453    0.0000 C   0  0  0  0  0  0  0  0  0  0  0  0
   -7.2373   -0.2818    0.0000 H   0  0  0  0  0  0  0  0  0  0  0  0
   -5.5102   -0.9932    0.0000 H   0  0  0  0  0  0  0  0  0  0  0  0
   -6.8666   -1.9227    0.0000 H   0  0  0  0  0  0  0  0  0  0  0  0
   -3.2767    1.9511    0.0000 H   0  0  0  0  0  0  0  0  0  0  0  0
   -8.3513    0.6464    0.0000 H   0  0  0  0  0  0  0  0  0  0  0  0
   -3.4894    1.8302    0.0000 H   0  0  0  0  0  0  0  0  0  0  0  0
   -5.1277    2.2074    0.0000 H   0  0  0  0  0  0  0  0  0  0  0  0
    5.5772    0.9257    0.0000 H   0  0  0  0  0  0  0  0  0  0  0  0
   -8.4713    0.4366    0.0000 H   0  0  0  0  0  0  0  0  0  0  0  0
    7.2102   -3.5719    0.0000 H   0  0  0  0  0  0  0  0  0  0  0  0
    6.2846   -3.0359    0.0000 H   0  0  0  0  0  0  0  0  0  0  0  0
   -2.7803    1.4125    0.0000 H   0  0  0  0  0  0  0  0  0  0  0  0
   -1.8492    1.9402    0.0000 H   0  0  0  0  0  0  0  0  0  0  0  0
    8.1484    2.9880    0.0000 H   0  0  0  0  0  0  0  0  0  0  0  0
    7.2221    3.5233    0.0000 H   0  0  0  0  0  0  0  0  0  0  0  0
   -5.8467    1.7993    0.0000 H   0  0  0  0  0  0  0  0  0  0  0  0
   -5.8536    0.7290    0.0000 H   0  0  0  0  0  0  0  0  0  0  0  0
    6.2899   -0.5589    0.0000 H   0  0  0  0  0  0  0  0  0  0  0  0
    6.2899   -1.3849    0.0000 H   0  0  0  0  0  0  0  0  0  0  0  0
    7.2163   -1.9202    0.0000 H   0  0  0  0  0  0  0  0  0  0  0  0
    7.0047   -1.5529    0.0000 H   0  0  0  0  0  0  0  0  0  0  0  0
   -5.9611    0.7126    0.0000 H   0  0  0  0  0  0  0  0  0  0  0  0
   -1.3426    1.4027    0.0000 H   0  0  0  0  0  0  0  0  0  0  0  0
   -0.4134    1.9348    0.0000 H   0  0  0  0  0  0  0  0  0  0  0  0
    7.0040   -1.7977    0.0000 H   0  0  0  0  0  0  0  0  0  0  0  0
    2.9443    1.3784    0.0000 H   0  0  0  0  0  0  0  0  0  0  0  0
    3.8742    1.9070    0.0000 H   0  0  0  0  0  0  0  0  0  0  0  0
    5.7912    1.0506    0.0000 H   0  0  0  0  0  0  0  0  0  0  0  0
    1.5175    1.3881    0.0000 H   0  0  0  0  0  0  0  0  0  0  0  0
    2.4471    1.9187    0.0000 H   0  0  0  0  0  0  0  0  0  0  0  0
    0.0813    1.3979    0.0000 H   0  0  0  0  0  0  0  0  0  0  0  0
    1.0124    1.9258    0.0000 H   0  0  0  0  0  0  0  0  0  0  0  0
   -0.6252    1.8156    0.0000 H   0  0  0  0  0  0  0  0  0  0  0  0
    2.2317    1.7962    0.0000 H   0  0  0  0  0  0  0  0  0  0  0  0
    0.8018    1.8060    0.0000 H   0  0  0  0  0  0  0  0  0  0  0  0
   -8.8342   -1.7095    0.0000 H   0  0  0  0  0  0  0  0  0  0  0  0
   -7.3047   -2.5937    0.0000 H   0  0  0  0  0  0  0  0  0  0  0  0
   -2.0644    1.4497    0.0000 H   0  0  0  0  0  0  0  0  0  0  0  0
   -1.3555   -1.0272    0.0000 H   0  0  0  0  0  0  0  0  0  0  0  0
   -0.6362    1.4449    0.0000 H   0  0  0  0  0  0  0  0  0  0  0  0
    0.0726   -1.0320    0.0000 H   0  0  0  0  0  0  0  0  0  0  0  0
    0.7920    1.4400    0.0000 H   0  0  0  0  0  0  0  0  0  0  0  0
    1.5009   -1.0368    0.0000 H   0  0  0  0  0  0  0  0  0  0  0  0
    2.2203    1.4352    0.0000 H   0  0  0  0  0  0  0  0  0  0  0  0
    2.9292   -1.0416    0.0000 H   0  0  0  0  0  0  0  0  0  0  0  0
    3.6485    1.4304    0.0000 H   0  0  0  0  0  0  0  0  0  0  0  0
   -2.7839   -1.0224    0.0000 H   0  0  0  0  0  0  0  0  0  0  0  0
    4.3576   -1.0465    0.0000 H   0  0  0  0  0  0  0  0  0  0  0  0
   -3.4913    1.4546    0.0000 H   0  0  0  0  0  0  0  0  0  0  0  0
   -4.2211   -1.0175    0.0000 H   0  0  0  0  0  0  0  0  0  0  0  0
    5.0770    1.4255    0.0000 H   0  0  0  0  0  0  0  0  0  0  0  0
   -6.6426   -2.5529    0.0000 H   0  0  0  0  0  0  0  0  0  0  0  0
    5.0720   -1.0520    0.0000 H   0  0  0  0  0  0  0  0  0  0  0  0
    6.6838   -3.8359    0.0000 H   0  0  0  0  0  0  0  0  0  0  0  0
   -9.1300    0.5582    0.0000 H   0  0  0  0  0  0  0  0  0  0  0  0
   -2.6330    4.2061    0.0000 H   0  0  0  0  0  0  0  0  0  0  0  0
   -3.4962    0.2784    0.0000 H   0  0  0  0  0  0  0  0  0  0  0  0
   -6.4374    2.9741    0.0000 H   0  0  0  0  0  0  0  0  0  0  0  0
    2.7881   -3.2440    0.0000 H   0  0  0  0  0  0  0  0  0  0  0  0
    3.6415   -4.7203    0.0000 H   0  0  0  0  0  0  0  0  0  0  0  0
    3.4613   -1.9815    0.0000 H   0  0  0  0  0  0  0  0  0  0  0  0
    5.0758   -4.7678    0.0000 H   0  0  0  0  0  0  0  0  0  0  0  0
    8.6443   -3.4719    0.0000 H   0  0  0  0  0  0  0  0  0  0  0  0
    1.6565    4.1819    0.0000 H   0  0  0  0  0  0  0  0  0  0  0  0
    3.0847    4.1722    0.0000 H   0  0  0  0  0  0  0  0  0  0  0  0
    0.2283    4.1916    0.0000 H   0  0  0  0  0  0  0  0  0  0  0  0
   -7.2769    2.0767    0.0000 H   0  0  0  0  0  0  0  0  0  0  0  0
   -8.8842    1.1540    0.0000 H   0  0  0  0  0  0  0  0  0  0  0  0
   -8.3469    2.0793    0.0000 H   0  0  0  0  0  0  0  0  0  0  0  0
    5.0994    3.9216    0.0000 H   0  0  0  0  0  0  0  0  0  0  0  0
    6.0246    3.3877    0.0000 H   0  0  0  0  0  0  0  0  0  0  0  0
    8.8577   -0.1459    0.0000 H   0  0  0  0  0  0  0  0  0  0  0  0
    7.9302    1.4586    0.0000 H   0  0  0  0  0  0  0  0  0  0  0  0
    8.8572    0.9241    0.0000 H   0  0  0  0  0  0  0  0  0  0  0  0
    5.7952    1.3833    0.0000 H   0  0  0  0  0  0  0  0  0  0  0  0
    4.8679    1.9161    0.0000 H   0  0  0  0  0  0  0  0  0  0  0  0
    4.3816    1.3735    0.0000 H   0  0  0  0  0  0  0  0  0  0  0  0
    3.4569    1.9100    0.0000 H   0  0  0  0  0  0  0  0  0  0  0  0
    9.5719   -1.3848    0.0000 H   0  0  0  0  0  0  0  0  0  0  0  0
    8.6445    0.2198    0.0000 H   0  0  0  0  0  0  0  0  0  0  0  0
    9.5714   -0.3148    0.0000 H   0  0  0  0  0  0  0  0  0  0  0  0
    4.8537   -1.3748    0.0000 H   0  0  0  0  0  0  0  0  0  0  0  0
    6.7070   -1.3858    0.0000 H   0  0  0  0  0  0  0  0  0  0  0  0
    5.7772   -1.9153    0.0000 H   0  0  0  0  0  0  0  0  0  0  0  0
  1 18  1  0  0  0  0
  1 80  1  0  0  0  0
  2  1  1  0  0  0  0
  2 58  1  0  0  0  0
  2 81  1  6  0  0  0
  3  2  1  0  0  0  0
  3 40  1  0  0  0  0
  3 82  1  6  0  0  0
  4  8  1  0  0  0  0
  4 83  1  0  0  0  0
  5  1  1  0  0  0  0
  6 12  1  0  0  0  0
  6 61  1  0  0  0  0
  6  3  1  0  0  0  0
  6 84  1  1  0  0  0
  7  4  1  0  0  0  0
  7 85  1  0  0  0  0
  8 19  1  0  0  0  0
  8 86  1  0  0  0  0
  9 11  1  0  0  0  0
 10  9  1  0  0  0  0
 11 31  1  0  0  0  0
 11 87  1  0  0  0  0
 12  5  1  0  0  0  0
 12 73  1  0  0  0  0
 12 88  1  6  0  0  0
 13  4  1  0  0  0  0
 14 23  1  0  0  0  0
 14 89  1  0  0  0  0
 14 90  1  0  0  0  0
 15 14  1  0  0  0  0
 16  7  1  0  0  0  0
 16 91  1  0  0  0  0
 16 92  1  0  0  0  0
 17 10  1  0  0  0  0
 17 93  1  0  0  0  0
 17 94  1  0  0  0  0
 19 25  1  0  0  0  0
 19 95  1  0  0  0  0
 19 96  1  0  0  0  0
 20 16  1  0  0  0  0
 21 11  1  0  0  0  0
 21 97  1  0  0  0  0
 22 21  1  0  0  0  0
 22 98  1  0  0  0  0
 22 99  1  0  0  0  0
 23 27  1  0  0  0  0
 23100  1  0  0  0  0
 24 15  1  0  0  0  0
 25 18  1  0  0  0  0
 25101  1  0  0  0  0
 26 20  1  0  0  0  0
 26102  1  0  0  0  0
 26103  1  0  0  0  0
 27 22  1  0  0  0  0
 27104  1  0  0  0  0
 28 76  1  0  0  0  0
 28 17  1  0  0  0  0
 29 10  2  0  0  0  0
 30 38  1  0  0  0  0
 30105  1  0  0  0  0
 30106  1  0  0  0  0
 31 55  1  0  0  0  0
 31107  1  0  0  0  0
 32 13  2  0  0  0  0
 33 39  1  0  0  0  0
 33108  1  0  0  0  0
 33109  1  0  0  0  0
 34 37  1  0  0  0  0
 34110  1  0  0  0  0
 34111  1  0  0  0  0
 35 30  1  0  0  0  0
 36 15  2  0  0  0  0
 37 26  1  0  0  0  0
 37112  1  0  0  0  0
 38 33  1  0  0  0  0
 38113  1  0  0  0  0
 39 34  1  0  0  0  0
 39114  1  0  0  0  0
 40115  1  0  0  0  0
 40116  1  0  0  0  0
 41 20  2  0  0  0  0
 42 51  2  0  0  0  0
 42117  1  0  0  0  0
 43 42  1  0  0  0  0
 43118  1  0  0  0  0
 44 43  2  0  0  0  0
 44119  1  0  0  0  0
 45 44  1  0  0  0  0
 45120  1  0  0  0  0
 46 45  2  0  0  0  0
 46121  1  0  0  0  0
 47 46  1  0  0  0  0
 47122  1  0  0  0  0
 48 47  2  0  0  0  0
 48123  1  0  0  0  0
 49 48  1  0  0  0  0
 49124  1  0  0  0  0
 50 49  2  0  0  0  0
 50125  1  0  0  0  0
 51 53  1  0  0  0  0
 51126  1  0  0  0  0
 52 50  1  0  0  0  0
 52127  1  0  0  0  0
 53 54  2  0  0  0  0
 53128  1  0  0  0  0
 54 25  1  0  0  0  0
 54129  1  0  0  0  0
 55 52  2  0  0  0  0
 55130  1  0  0  0  0
 56 28  2  0  0  0  0
 57 35  2  0  0  0  0
 58131  1  0  0  0  0
 59 24  2  0  0  0  0
 59132  1  0  0  0  0
 60 24  1  0  0  0  0
 60133  1  0  0  0  0
 61134  1  0  0  0  0
 62  7  1  0  0  0  0
 62135  1  0  0  0  0
 63  8  1  0  0  0  0
 63136  1  0  0  0  0
 64 13  1  0  0  0  0
 64137  1  0  0  0  0
 65 68  1  0  0  0  0
 65 67  2  0  0  0  0
 66 65  1  0  0  0  0
 66138  1  0  0  0  0
 66139  1  0  0  0  0
 67 59  1  0  0  0  0
 67140  1  0  0  0  0
 68 60  2  0  0  0  0
 68141  1  0  0  0  0
 69 23  1  0  0  0  0
 69142  1  0  0  0  0
 70 39  1  0  0  0  0
 70143  1  0  0  0  0
 71 38  1  0  0  0  0
 71144  1  0  0  0  0
 72 37  1  0  0  0  0
 72145  1  0  0  0  0
 73146  1  0  0  0  0
 73147  1  0  0  0  0
 73148  1  0  0  0  0
 74 77  1  0  0  0  0
 74149  1  0  0  0  0
 74150  1  0  0  0  0
 75 21  1  0  0  0  0
 75151  1  0  0  0  0
 75152  1  0  0  0  0
 75153  1  0  0  0  0
 76 74  1  0  0  0  0
 76154  1  0  0  0  0
 76155  1  0  0  0  0
 77 35  1  0  0  0  0
 77156  1  0  0  0  0
 77157  1  0  0  0  0
 78 27  1  0  0  0  0
 78158  1  0  0  0  0
 78159  1  0  0  0  0
 78160  1  0  0  0  0
 79 31  1  0  0  0  0
 79161  1  0  0  0  0
 79162  1  0  0  0  0
 79163  1  0  0  0  0
M  END
>  <DRUGBANK_ID>
DB01152

>  <SECONDARY_ACCESSION_NUMBERS>
APRD00843

>  <COMMON_NAME>
Candicidin

>  <CAS_NUMBER>
1403-17-4

>  <UNII>
48N2IYJ202

>  <SYNONYMS>
Candicidin; Candicidina; Candicidine; Candicidinum; Candizidin; Levorin; Levorina; Levorine; Levorinum

$$$$
