
 OpenBabel10282417072D

  4  3  0  0  0  0  0  0  0  0999 V2000
    1.2375    0.7145    0.0000 Cl  0  0  0  0  0  0  0  0  0  0  0  0
    0.8250    0.0000    0.0000 Al  0  0  0  0  0  0  0  0  0  0  0  0
    1.2375   -0.7145    0.0000 Cl  0  0  0  0  0  0  0  0  0  0  0  0
    0.0000    0.0000    0.0000 Cl  0  0  0  0  0  0  0  0  0  0  0  0
  1  2  1  0  0  0  0
  2  3  1  0  0  0  0
  2  4  1  0  0  0  0
M  END
>  <DRUGBANK_ID>
DB11081

>  <COMMON_NAME>
Aluminum chloride

>  <CAS_NUMBER>
7446-70-0

>  <UNII>
LIF1N9568Y

>  <SYNONYMS>
Aluminium chloride

$$$$
