
 OpenBabel10282417072D

 84 84  0  0  0  0  0  0  0  0999 V2000
    0.7144    0.4124    0.0000 N   0  0  0  0  0  0  0  0  0  0  0  0
    0.0000    0.8249    0.0000 C   0  0  0  0  0  0  0  0  0  0  0  0
   -0.7144    0.4124    0.0000 C   0  0  0  0  0  0  0  0  0  0  0  0
   -0.7145   -0.4125    0.0000 N   0  0  0  0  0  0  0  0  0  0  0  0
    0.0000   -0.8250    0.0000 C   0  0  0  0  0  0  0  0  0  0  0  0
    0.7144   -0.4125    0.0000 C   0  0  0  0  0  0  0  0  0  0  0  0
    1.4289    0.8249    0.0000 C   0  0  0  0  0  0  0  0  0  0  0  0
    2.1434    0.4124    0.0000 C   0  0  0  0  0  0  0  0  0  0  0  0
    2.8578    0.8249    0.0000 C   0  0  0  0  0  0  0  0  0  0  0  0
    3.5723    0.4124    0.0000 N   0  0  0  0  0  0  0  0  0  0  0  0
    4.2868    0.8249    0.0000 C   0  0  0  0  0  0  0  0  0  0  0  0
    5.0012    0.4124    0.0000 C   0  0  1  0  0  0  0  0  0  0  0  0
    4.2868    1.6499    0.0000 O   0  0  0  0  0  0  0  0  0  0  0  0
    5.7157    0.8249    0.0000 N   0  0  0  0  0  0  0  0  0  0  0  0
    5.0012   -0.4125    0.0000 C   0  0  0  0  0  0  0  0  0  0  0  0
    5.7157   -0.8250    0.0000 C   0  0  0  0  0  0  0  0  0  0  0  0
    5.7157   -1.6500    0.0000 C   0  0  0  0  0  0  0  0  0  0  0  0
    6.4302   -2.0625    0.0000 N   0  0  0  0  0  0  0  0  0  0  0  0
    6.4302   -2.8875    0.0000 C   0  0  0  0  0  0  0  0  0  0  0  0
    7.1447   -3.3000    0.0000 N   0  0  0  0  0  0  0  0  0  0  0  0
    5.7157   -3.3000    0.0000 N   0  0  0  0  0  0  0  0  0  0  0  0
   -1.4289   -0.8250    0.0000 C   0  0  0  0  0  0  0  0  0  0  0  0
   -2.1434   -0.4125    0.0000 C   0  0  0  0  0  0  0  0  0  0  0  0
   -2.8579   -0.8250    0.0000 C   0  0  0  0  0  0  0  0  0  0  0  0
   -3.5723   -0.4125    0.0000 N   0  0  0  0  0  0  0  0  0  0  0  0
   -4.2868   -0.8250    0.0000 C   0  0  0  0  0  0  0  0  0  0  0  0
   -5.0013   -0.4125    0.0000 C   0  0  1  0  0  0  0  0  0  0  0  0
   -4.2868   -1.6500    0.0000 O   0  0  0  0  0  0  0  0  0  0  0  0
   -5.7158   -0.8250    0.0000 N   0  0  0  0  0  0  0  0  0  0  0  0
   -5.0013    0.4124    0.0000 C   0  0  0  0  0  0  0  0  0  0  0  0
   -5.7158    0.8249    0.0000 C   0  0  0  0  0  0  0  0  0  0  0  0
   -5.7158    1.6499    0.0000 C   0  0  0  0  0  0  0  0  0  0  0  0
   -6.4302    2.0624    0.0000 N   0  0  0  0  0  0  0  0  0  0  0  0
   -6.4302    2.8874    0.0000 C   0  0  0  0  0  0  0  0  0  0  0  0
   -7.1447    3.3000    0.0000 N   0  0  0  0  0  0  0  0  0  0  0  0
   -5.7158    3.3000    0.0000 N   0  0  0  0  0  0  0  0  0  0  0  0
    0.0000    1.8949    0.0000 H   0  0  0  0  0  0  0  0  0  0  0  0
   -0.9267    1.3599    0.0000 H   0  0  0  0  0  0  0  0  0  0  0  0
   -1.6410    0.9474    0.0000 H   0  0  0  0  0  0  0  0  0  0  0  0
   -1.6411   -0.1225    0.0000 H   0  0  0  0  0  0  0  0  0  0  0  0
    0.0000   -1.8950    0.0000 H   0  0  0  0  0  0  0  0  0  0  0  0
    0.9267   -1.3600    0.0000 H   0  0  0  0  0  0  0  0  0  0  0  0
    1.6411   -0.9475    0.0000 H   0  0  0  0  0  0  0  0  0  0  0  0
    1.6410    0.1225    0.0000 H   0  0  0  0  0  0  0  0  0  0  0  0
    1.4289    1.8949    0.0000 H   0  0  0  0  0  0  0  0  0  0  0  0
    2.3555    1.3599    0.0000 H   0  0  0  0  0  0  0  0  0  0  0  0
    2.1434   -0.6576    0.0000 H   0  0  0  0  0  0  0  0  0  0  0  0
    3.0701   -0.1226    0.0000 H   0  0  0  0  0  0  0  0  0  0  0  0
    2.8578    1.8949    0.0000 H   0  0  0  0  0  0  0  0  0  0  0  0
    3.7844    1.3599    0.0000 H   0  0  0  0  0  0  0  0  0  0  0  0
    3.5723   -0.5721    0.0000 H   0  0  0  0  0  0  0  0  0  0  0  0
    4.0745   -0.1226    0.0000 H   0  0  0  0  0  0  0  0  0  0  0  0
    6.5990    0.3149    0.0000 H   0  0  0  0  0  0  0  0  0  0  0  0
    5.7157    1.8449    0.0000 H   0  0  0  0  0  0  0  0  0  0  0  0
    4.0746   -0.9475    0.0000 H   0  0  0  0  0  0  0  0  0  0  0  0
    5.0012   -1.4825    0.0000 H   0  0  0  0  0  0  0  0  0  0  0  0
    6.6423   -0.2900    0.0000 H   0  0  0  0  0  0  0  0  0  0  0  0
    6.6423   -1.3600    0.0000 H   0  0  0  0  0  0  0  0  0  0  0  0
    4.7891   -2.1850    0.0000 H   0  0  0  0  0  0  0  0  0  0  0  0
    5.7157   -2.7200    0.0000 H   0  0  0  0  0  0  0  0  0  0  0  0
    7.2828   -1.5702    0.0000 H   0  0  0  0  0  0  0  0  0  0  0  0
    7.1447   -4.2845    0.0000 H   0  0  0  0  0  0  0  0  0  0  0  0
    7.9973   -2.8077    0.0000 H   0  0  0  0  0  0  0  0  0  0  0  0
    4.8631   -2.8077    0.0000 H   0  0  0  0  0  0  0  0  0  0  0  0
   -1.4289   -1.8950    0.0000 H   0  0  0  0  0  0  0  0  0  0  0  0
   -2.3555   -1.3600    0.0000 H   0  0  0  0  0  0  0  0  0  0  0  0
   -2.1434    0.6575    0.0000 H   0  0  0  0  0  0  0  0  0  0  0  0
   -3.0700    0.1225    0.0000 H   0  0  0  0  0  0  0  0  0  0  0  0
   -2.8579   -1.8950    0.0000 H   0  0  0  0  0  0  0  0  0  0  0  0
   -3.7846   -1.3600    0.0000 H   0  0  0  0  0  0  0  0  0  0  0  0
   -3.5723    0.5720    0.0000 H   0  0  0  0  0  0  0  0  0  0  0  0
   -4.0747    0.1225    0.0000 H   0  0  0  0  0  0  0  0  0  0  0  0
   -6.5991   -0.3150    0.0000 H   0  0  0  0  0  0  0  0  0  0  0  0
   -5.7158   -1.8450    0.0000 H   0  0  0  0  0  0  0  0  0  0  0  0
   -4.0747    0.9474    0.0000 H   0  0  0  0  0  0  0  0  0  0  0  0
   -5.0013    1.4824    0.0000 H   0  0  0  0  0  0  0  0  0  0  0  0
   -6.6424    0.2899    0.0000 H   0  0  0  0  0  0  0  0  0  0  0  0
   -6.6424    1.3599    0.0000 H   0  0  0  0  0  0  0  0  0  0  0  0
   -4.7891    2.1849    0.0000 H   0  0  0  0  0  0  0  0  0  0  0  0
   -5.7158    2.7199    0.0000 H   0  0  0  0  0  0  0  0  0  0  0  0
   -7.2828    1.5702    0.0000 H   0  0  0  0  0  0  0  0  0  0  0  0
   -7.1446    4.2845    0.0000 H   0  0  0  0  0  0  0  0  0  0  0  0
   -7.9973    2.8078    0.0000 H   0  0  0  0  0  0  0  0  0  0  0  0
   -4.8631    2.8079    0.0000 H   0  0  0  0  0  0  0  0  0  0  0  0
  1  2  1  0  0  0  0
  1  7  1  0  0  0  0
  2  3  1  0  0  0  0
  2 37  1  0  0  0  0
  2 38  1  0  0  0  0
  3  4  1  0  0  0  0
  3 39  1  0  0  0  0
  3 40  1  0  0  0  0
  4  5  1  0  0  0  0
  4 22  1  0  0  0  0
  5  6  1  0  0  0  0
  5 41  1  0  0  0  0
  5 42  1  0  0  0  0
  6  1  1  0  0  0  0
  6 43  1  0  0  0  0
  6 44  1  0  0  0  0
  7  8  1  0  0  0  0
  7 45  1  0  0  0  0
  7 46  1  0  0  0  0
  8  9  1  0  0  0  0
  8 47  1  0  0  0  0
  8 48  1  0  0  0  0
  9 10  1  0  0  0  0
  9 49  1  0  0  0  0
  9 50  1  0  0  0  0
 10 11  1  0  0  0  0
 10 51  1  0  0  0  0
 11 12  1  0  0  0  0
 11 13  2  0  0  0  0
 12 14  1  0  0  0  0
 12 15  1  0  0  0  0
 12 52  1  6  0  0  0
 14 53  1  0  0  0  0
 14 54  1  0  0  0  0
 15 16  1  0  0  0  0
 15 55  1  0  0  0  0
 15 56  1  0  0  0  0
 16 17  1  0  0  0  0
 16 57  1  0  0  0  0
 16 58  1  0  0  0  0
 17 18  1  0  0  0  0
 17 59  1  0  0  0  0
 17 60  1  0  0  0  0
 18 19  1  0  0  0  0
 18 61  1  0  0  0  0
 19 20  1  0  0  0  0
 19 21  2  0  0  0  0
 20 62  1  0  0  0  0
 20 63  1  0  0  0  0
 21 64  1  0  0  0  0
 22 23  1  0  0  0  0
 22 65  1  0  0  0  0
 22 66  1  0  0  0  0
 23 24  1  0  0  0  0
 23 67  1  0  0  0  0
 23 68  1  0  0  0  0
 24 25  1  0  0  0  0
 24 69  1  0  0  0  0
 24 70  1  0  0  0  0
 25 26  1  0  0  0  0
 25 71  1  0  0  0  0
 26 27  1  0  0  0  0
 26 28  2  0  0  0  0
 27 29  1  0  0  0  0
 27 30  1  0  0  0  0
 27 72  1  6  0  0  0
 29 73  1  0  0  0  0
 29 74  1  0  0  0  0
 30 31  1  0  0  0  0
 30 75  1  0  0  0  0
 30 76  1  0  0  0  0
 31 32  1  0  0  0  0
 31 77  1  0  0  0  0
 31 78  1  0  0  0  0
 32 33  1  0  0  0  0
 32 79  1  0  0  0  0
 32 80  1  0  0  0  0
 33 34  1  0  0  0  0
 33 81  1  0  0  0  0
 34 35  1  0  0  0  0
 34 36  2  0  0  0  0
 35 82  1  0  0  0  0
 35 83  1  0  0  0  0
 36 84  1  0  0  0  0
M  END
>  <DRUGBANK_ID>
DB15199

>  <COMMON_NAME>
Ciraparantag

>  <CAS_NUMBER>
1438492-26-2

>  <UNII>
U2R67KV65Q

>  <SYNONYMS>
Ciraparantag; Ciraparantagum

$$$$
