6SC
 OpenBabel10282417072D

 38 41  0  0  0  0  0  0  0  0999 V2000
   -2.2592    1.0370    0.0000 C   0  0  0  0  0  0  0  0  0  0  0  0
   -1.4746    0.7820    0.0000 C   0  0  0  0  0  0  0  0  0  0  0  0
   -1.4746   -0.0430    0.0000 N   0  0  0  0  0  0  0  0  0  0  0  0
   -2.2592   -0.2979    0.0000 N   0  0  0  0  0  0  0  0  0  0  0  0
   -2.7441    0.3695    0.0000 C   0  0  0  0  0  0  0  0  0  0  0  0
   -0.7601    1.1945    0.0000 N   0  0  0  0  0  0  0  0  0  0  0  0
   -0.0457    0.7820    0.0000 C   0  0  0  0  0  0  0  0  0  0  0  0
   -0.0457   -0.0430    0.0000 C   0  0  0  0  0  0  0  0  0  0  0  0
   -0.7601   -0.4555    0.0000 C   0  0  0  0  0  0  0  0  0  0  0  0
   -0.7601   -1.2805    0.0000 N   0  0  0  0  0  0  0  0  0  0  0  0
    0.6688    1.1945    0.0000 C   0  0  0  0  0  0  0  0  0  0  0  0
   -1.4746   -1.6930    0.0000 C   0  0  0  0  0  0  0  0  0  0  0  0
   -1.4746   -2.5180    0.0000 C   0  0  0  0  0  0  0  0  0  0  0  0
   -2.1891   -2.9305    0.0000 C   0  0  0  0  0  0  0  0  0  0  0  0
   -2.1891   -3.7555    0.0000 C   0  0  0  0  0  0  0  0  0  0  0  0
   -1.4746   -4.1680    0.0000 N   0  0  0  0  0  0  0  0  0  0  0  0
   -0.7601   -3.7555    0.0000 C   0  0  0  0  0  0  0  0  0  0  0  0
   -0.7601   -2.9305    0.0000 C   0  0  0  0  0  0  0  0  0  0  0  0
    0.6688    2.0195    0.0000 C   0  0  0  0  0  0  0  0  0  0  0  0
    1.3833    2.4320    0.0000 C   0  0  0  0  0  0  0  0  0  0  0  0
    2.0978    2.0195    0.0000 C   0  0  0  0  0  0  0  0  0  0  0  0
    2.0978    1.1945    0.0000 C   0  0  0  0  0  0  0  0  0  0  0  0
    1.3833    0.7820    0.0000 C   0  0  0  0  0  0  0  0  0  0  0  0
   -2.5142    1.8216    0.0000 Br  0  0  0  0  0  0  0  0  0  0  0  0
   -3.7761    0.3695    0.0000 H   0  0  0  0  0  0  0  0  0  0  0  0
    0.8480   -0.5590    0.0000 H   0  0  0  0  0  0  0  0  0  0  0  0
    0.0925   -1.7728    0.0000 H   0  0  0  0  0  0  0  0  0  0  0  0
   -2.4012   -1.1580    0.0000 H   0  0  0  0  0  0  0  0  0  0  0  0
   -2.4012   -2.2280    0.0000 H   0  0  0  0  0  0  0  0  0  0  0  0
   -3.0828   -2.4145    0.0000 H   0  0  0  0  0  0  0  0  0  0  0  0
   -3.0828   -4.2715    0.0000 H   0  0  0  0  0  0  0  0  0  0  0  0
    0.1336   -4.2715    0.0000 H   0  0  0  0  0  0  0  0  0  0  0  0
    0.1336   -2.4145    0.0000 H   0  0  0  0  0  0  0  0  0  0  0  0
   -0.2249    2.5355    0.0000 H   0  0  0  0  0  0  0  0  0  0  0  0
    1.3833    3.4640    0.0000 H   0  0  0  0  0  0  0  0  0  0  0  0
    2.9915    2.5355    0.0000 H   0  0  0  0  0  0  0  0  0  0  0  0
    2.9915    0.6785    0.0000 H   0  0  0  0  0  0  0  0  0  0  0  0
    1.3833   -0.2500    0.0000 H   0  0  0  0  0  0  0  0  0  0  0  0
  1  2  2  0  0  0  0
  1 24  1  0  0  0  0
  2  6  1  0  0  0  0
  3  9  1  0  0  0  0
  3  2  1  0  0  0  0
  4  5  2  0  0  0  0
  4  3  1  0  0  0  0
  5  1  1  0  0  0  0
  5 25  1  0  0  0  0
  7  6  2  0  0  0  0
  7 11  1  0  0  0  0
  8  7  1  0  0  0  0
  8 26  1  0  0  0  0
  9  8  2  0  0  0  0
 10 12  1  0  0  0  0
 10  9  1  0  0  0  0
 10 27  1  0  0  0  0
 11 19  2  0  0  0  0
 11 23  1  0  0  0  0
 12 28  1  0  0  0  0
 12 29  1  0  0  0  0
 13 18  1  0  0  0  0
 13 12  1  0  0  0  0
 14 13  2  0  0  0  0
 14 30  1  0  0  0  0
 15 16  2  0  0  0  0
 15 14  1  0  0  0  0
 15 31  1  0  0  0  0
 16 17  1  0  0  0  0
 17 18  2  0  0  0  0
 17 32  1  0  0  0  0
 18 33  1  0  0  0  0
 19 20  1  0  0  0  0
 19 34  1  0  0  0  0
 20 21  2  0  0  0  0
 20 35  1  0  0  0  0
 21 36  1  0  0  0  0
 22 21  1  0  0  0  0
 22 37  1  0  0  0  0
 23 22  2  0  0  0  0
 23 38  1  0  0  0  0
M  END
>  <DRUGBANK_ID>
DB07210

>  <COMMON_NAME>
3-bromo-5-phenyl-N-(pyridin-4-ylmethyl)pyrazolo[1,5-a]pyrimidin-7-amine

$$$$
