
 OpenBabel10282417072D

 55 58  0  0  0  0  0  0  0  0999 V2000
    8.6945    1.8414    0.0000 F   0  0  0  0  0  0  0  0  0  0  0  0
    7.8695    1.8414    0.0000 C   0  0  0  0  0  0  0  0  0  0  0  0
    7.4570    1.1270    0.0000 C   0  0  0  0  0  0  0  0  0  0  0  0
    6.6320    1.1270    0.0000 C   0  0  0  0  0  0  0  0  0  0  0  0
    6.2195    1.8414    0.0000 C   0  0  0  0  0  0  0  0  0  0  0  0
    6.6320    2.5559    0.0000 C   0  0  0  0  0  0  0  0  0  0  0  0
    7.4570    2.5559    0.0000 C   0  0  0  0  0  0  0  0  0  0  0  0
    5.3945    1.8414    0.0000 C   0  0  0  0  0  0  0  0  0  0  0  0
    4.9820    2.5559    0.0000 O   0  0  0  0  0  0  0  0  0  0  0  0
    4.9820    1.1270    0.0000 C   0  0  0  0  0  0  0  0  0  0  0  0
    4.1570    1.1270    0.0000 C   0  0  0  0  0  0  0  0  0  0  0  0
    3.7445    0.4125    0.0000 C   0  0  0  0  0  0  0  0  0  0  0  0
    2.9195    0.4125    0.0000 N   0  0  0  0  0  0  0  0  0  0  0  0
    2.5070   -0.3020    0.0000 C   0  0  0  0  0  0  0  0  0  0  0  0
    1.6820   -0.3020    0.0000 C   0  0  0  0  0  0  0  0  0  0  0  0
    1.2695    0.4125    0.0000 C   0  0  0  0  0  0  0  0  0  0  0  0
    1.6820    1.1270    0.0000 C   0  0  0  0  0  0  0  0  0  0  0  0
    2.5070    1.1270    0.0000 C   0  0  0  0  0  0  0  0  0  0  0  0
    0.7846   -0.2549    0.0000 N   0  0  0  0  0  0  0  0  0  0  0  0
    0.0000   -0.0000    0.0000 C   0  0  0  0  0  0  0  0  0  0  0  0
   -0.0000    0.8250    0.0000 N   0  0  0  0  0  0  0  0  0  0  0  0
    0.7846    1.0799    0.0000 C   0  0  0  0  0  0  0  0  0  0  0  0
    1.0396    1.8646    0.0000 O   0  0  0  0  0  0  0  0  0  0  0  0
    1.0396   -1.0396    0.0000 C   0  0  0  0  0  0  0  0  0  0  0  0
    1.8465   -1.2111    0.0000 C   0  0  0  0  0  0  0  0  0  0  0  0
    2.1015   -1.9957    0.0000 C   0  0  0  0  0  0  0  0  0  0  0  0
    1.5494   -2.6088    0.0000 C   0  0  0  0  0  0  0  0  0  0  0  0
    0.7425   -2.4373    0.0000 C   0  0  0  0  0  0  0  0  0  0  0  0
    0.4875   -1.6527    0.0000 C   0  0  0  0  0  0  0  0  0  0  0  0
    7.9730    0.2333    0.0000 H   0  0  0  0  0  0  0  0  0  0  0  0
    6.1160    0.2333    0.0000 H   0  0  0  0  0  0  0  0  0  0  0  0
    6.1160    3.4496    0.0000 H   0  0  0  0  0  0  0  0  0  0  0  0
    7.9730    3.4496    0.0000 H   0  0  0  0  0  0  0  0  0  0  0  0
    5.5170    0.2003    0.0000 H   0  0  0  0  0  0  0  0  0  0  0  0
    4.4470    0.2004    0.0000 H   0  0  0  0  0  0  0  0  0  0  0  0
    3.6220    2.0536    0.0000 H   0  0  0  0  0  0  0  0  0  0  0  0
    3.0870    1.1270    0.0000 H   0  0  0  0  0  0  0  0  0  0  0  0
    4.2795   -0.5141    0.0000 H   0  0  0  0  0  0  0  0  0  0  0  0
    3.2095   -0.5141    0.0000 H   0  0  0  0  0  0  0  0  0  0  0  0
    3.0420   -1.2286    0.0000 H   0  0  0  0  0  0  0  0  0  0  0  0
    1.9720   -1.2286    0.0000 H   0  0  0  0  0  0  0  0  0  0  0  0
    1.1470   -1.2286    0.0000 H   0  0  0  0  0  0  0  0  0  0  0  0
    0.6120   -0.3020    0.0000 H   0  0  0  0  0  0  0  0  0  0  0  0
    1.1470    2.0536    0.0000 H   0  0  0  0  0  0  0  0  0  0  0  0
    2.2170    2.0536    0.0000 H   0  0  0  0  0  0  0  0  0  0  0  0
    3.0420    2.0536    0.0000 H   0  0  0  0  0  0  0  0  0  0  0  0
    3.5770    1.1270    0.0000 H   0  0  0  0  0  0  0  0  0  0  0  0
   -0.8656   -0.6289    0.0000 H   0  0  0  0  0  0  0  0  0  0  0  0
   -0.9534    0.4858    0.0000 H   0  0  0  0  0  0  0  0  0  0  0  0
   -0.7965    1.4037    0.0000 H   0  0  0  0  0  0  0  0  0  0  0  0
    2.5370   -0.4441    0.0000 H   0  0  0  0  0  0  0  0  0  0  0  0
    3.1110   -2.2103    0.0000 H   0  0  0  0  0  0  0  0  0  0  0  0
    1.8683   -3.5903    0.0000 H   0  0  0  0  0  0  0  0  0  0  0  0
    0.0520   -3.2043    0.0000 H   0  0  0  0  0  0  0  0  0  0  0  0
   -0.5220   -1.4381    0.0000 H   0  0  0  0  0  0  0  0  0  0  0  0
  1  2  1  0  0  0  0
  2  3  2  0  0  0  0
  2  7  1  0  0  0  0
  3  4  1  0  0  0  0
  3 30  1  0  0  0  0
  4  5  2  0  0  0  0
  4 31  1  0  0  0  0
  5  6  1  0  0  0  0
  5  8  1  0  0  0  0
  6  7  2  0  0  0  0
  6 32  1  0  0  0  0
  7 33  1  0  0  0  0
  8  9  2  0  0  0  0
  8 10  1  0  0  0  0
 10 11  1  0  0  0  0
 10 34  1  0  0  0  0
 10 35  1  0  0  0  0
 11 12  1  0  0  0  0
 11 36  1  0  0  0  0
 11 37  1  0  0  0  0
 12 13  1  0  0  0  0
 12 38  1  0  0  0  0
 12 39  1  0  0  0  0
 13 14  1  0  0  0  0
 13 18  1  0  0  0  0
 14 15  1  0  0  0  0
 14 40  1  0  0  0  0
 14 41  1  0  0  0  0
 15 16  1  0  0  0  0
 15 42  1  0  0  0  0
 15 43  1  0  0  0  0
 16 17  1  0  0  0  0
 16 19  1  0  0  0  0
 16 22  1  0  0  0  0
 17 18  1  0  0  0  0
 17 44  1  0  0  0  0
 17 45  1  0  0  0  0
 18 46  1  0  0  0  0
 18 47  1  0  0  0  0
 19 20  1  0  0  0  0
 19 24  1  0  0  0  0
 20 21  1  0  0  0  0
 20 48  1  0  0  0  0
 20 49  1  0  0  0  0
 21 22  1  0  0  0  0
 21 50  1  0  0  0  0
 22 23  2  0  0  0  0
 24 25  2  0  0  0  0
 24 29  1  0  0  0  0
 25 26  1  0  0  0  0
 25 51  1  0  0  0  0
 26 27  2  0  0  0  0
 26 52  1  0  0  0  0
 27 28  1  0  0  0  0
 27 53  1  0  0  0  0
 28 29  2  0  0  0  0
 28 54  1  0  0  0  0
 29 55  1  0  0  0  0
M  END
>  <DRUGBANK_ID>
DB17056

>  <COMMON_NAME>
Spiperone

>  <CAS_NUMBER>
749-02-0

>  <UNII>
4X6E73CJ0Q

>  <SYNONYMS>
Spiropitan

$$$$
