
 OpenBabel10282417072D

 39 40  0  0  1  0  0  0  0  0999 V2000
    2.5006   -0.4125    0.0000 C   0  0  0  0  0  0  0  0  0  0  0  0
    1.7861   -3.3000    0.0000 C   0  0  0  0  0  0  0  0  0  0  0  0
    2.5006   -2.8875    0.0000 C   0  0  0  0  0  0  0  0  0  0  0  0
    1.0717   -2.8875    0.0000 C   0  0  0  0  0  0  0  0  0  0  0  0
    2.5006   -2.0625    0.0000 C   0  0  0  0  0  0  0  0  0  0  0  0
    1.0717   -2.0625    0.0000 C   0  0  0  0  0  0  0  0  0  0  0  0
   -0.3572    2.8875    0.0000 C   0  0  0  0  0  0  0  0  0  0  0  0
   -1.0717    3.3000    0.0000 C   0  0  0  0  0  0  0  0  0  0  0  0
    0.3572    1.6500    0.0000 C   0  0  0  0  0  0  0  0  0  0  0  0
   -1.0717    1.6500    0.0000 C   0  0  0  0  0  0  0  0  0  0  0  0
   -0.3572    0.4125    0.0000 C   0  0  0  0  0  0  0  0  0  0  0  0
    1.7861   -0.8250    0.0000 C   0  0  1  0  0  0  0  0  0  0  0  0
   -0.3572    2.0625    0.0000 C   0  0  0  0  0  0  0  0  0  0  0  0
    1.7861   -1.6500    0.0000 C   0  0  0  0  0  0  0  0  0  0  0  0
    0.3572    0.8250    0.0000 C   0  0  0  0  0  0  0  0  0  0  0  0
   -1.7861    2.8875    0.0000 C   0  0  0  0  0  0  0  0  0  0  0  0
   -1.7861    2.0625    0.0000 C   0  0  0  0  0  0  0  0  0  0  0  0
    1.0717    0.4125    0.0000 C   0  0  0  0  0  0  0  0  0  0  0  0
   -1.0717    0.0000    0.0000 N   0  0  0  0  0  0  0  0  0  0  0  0
    1.0717   -0.4125    0.0000 N   0  0  0  0  0  0  0  0  0  0  0  0
   -2.5006    3.3000    0.0000 O   0  0  0  0  0  0  0  0  0  0  0  0
   -2.5006    1.6500    0.0000 O   0  0  0  0  0  0  0  0  0  0  0  0
    1.7861    0.8250    0.0000 O   0  0  0  0  0  0  0  0  0  0  0  0
    1.0717    2.0625    0.0000 H   0  0  0  0  0  0  0  0  0  0  0  0
    2.5006   -1.2375    0.0000 H   0  0  0  0  0  0  0  0  0  0  0  0
    3.4272   -0.9475    0.0000 H   0  0  0  0  0  0  0  0  0  0  0  0
    2.5006    0.6575    0.0000 H   0  0  0  0  0  0  0  0  0  0  0  0
    3.4273    0.1225    0.0000 H   0  0  0  0  0  0  0  0  0  0  0  0
    1.7861   -4.3320    0.0000 H   0  0  0  0  0  0  0  0  0  0  0  0
    3.3943   -3.4035    0.0000 H   0  0  0  0  0  0  0  0  0  0  0  0
    0.1780   -3.4035    0.0000 H   0  0  0  0  0  0  0  0  0  0  0  0
    3.3943   -1.5465    0.0000 H   0  0  0  0  0  0  0  0  0  0  0  0
    0.1780   -1.5465    0.0000 H   0  0  0  0  0  0  0  0  0  0  0  0
    0.5365    3.4035    0.0000 H   0  0  0  0  0  0  0  0  0  0  0  0
   -1.0717    4.3320    0.0000 H   0  0  0  0  0  0  0  0  0  0  0  0
   -1.0717    0.6180    0.0000 H   0  0  0  0  0  0  0  0  0  0  0  0
   -2.5006    4.2370    0.0000 H   0  0  0  0  0  0  0  0  0  0  0  0
   -3.3121    2.1185    0.0000 H   0  0  0  0  0  0  0  0  0  0  0  0
    2.5976    0.3565    0.0000 H   0  0  0  0  0  0  0  0  0  0  0  0
  1 26  1  0  0  0  0
  1 27  1  0  0  0  0
  1 28  1  0  0  0  0
  2 29  1  0  0  0  0
  3  2  2  0  0  0  0
  3 30  1  0  0  0  0
  4  2  1  0  0  0  0
  4 31  1  0  0  0  0
  5  3  1  0  0  0  0
  5 32  1  0  0  0  0
  6  4  2  0  0  0  0
  6 33  1  0  0  0  0
  7 34  1  0  0  0  0
  8  7  2  0  0  0  0
  8 35  1  0  0  0  0
 10 36  1  0  0  0  0
 12  1  1  0  0  0  0
 12 14  1  0  0  0  0
 12 20  1  0  0  0  0
 12 25  1  6  0  0  0
 13  7  1  0  0  0  0
 13  9  1  0  0  0  0
 13 10  2  0  0  0  0
 14  5  2  0  0  0  0
 14  6  1  0  0  0  0
 15  9  2  0  0  0  0
 15 11  1  0  0  0  0
 16  8  1  0  0  0  0
 17 10  1  0  0  0  0
 17 16  2  0  0  0  0
 18 15  1  0  0  0  0
 18 23  1  0  0  0  0
 19 11  3  0  0  0  0
 20 18  2  3  0  0  0
 21 16  1  0  0  0  0
 21 37  1  0  0  0  0
 22 17  1  0  0  0  0
 22 38  1  0  0  0  0
 23 39  1  0  0  0  0
 24  9  1  0  0  0  0
M  END
>  <DRUGBANK_ID>
DB16763

>  <COMMON_NAME>
Tyrphostin AG 835

>  <CAS_NUMBER>
133550-37-5

>  <SYNONYMS>
Tyrphostin Ag-835; Tyrphostin B44, (+) enantiomer; Tyrphostin B50

$$$$
