
 OpenBabel10282417072D

 38 38  0  0  0  0  0  0  0  0999 V2000
   -0.3572   -0.4124    0.0000 C   0  0  2  0  0  0  0  0  0  0  0  0
   -1.0716   -0.8249    0.0000 C   0  0  0  0  0  0  0  0  0  0  0  0
   -1.0716   -1.6499    0.0000 C   0  0  1  0  0  0  0  0  0  0  0  0
   -0.3572   -2.0625    0.0000 C   0  0  0  0  0  0  0  0  0  0  0  0
    0.3572   -1.6499    0.0000 C   0  0  0  0  0  0  0  0  0  0  0  0
    0.3572   -0.8249    0.0000 C   0  0  1  0  0  0  0  0  0  0  0  0
   -0.3572    0.4125    0.0000 O   0  0  0  0  0  0  0  0  0  0  0  0
    0.3572    0.8250    0.0000 C   0  0  0  0  0  0  0  0  0  0  0  0
    0.3572    1.6500    0.0000 C   0  0  0  0  0  0  0  0  0  0  0  0
    1.0717    2.0625    0.0000 O   0  0  0  0  0  0  0  0  0  0  0  0
   -1.7861   -2.0625    0.0000 C   0  0  0  0  0  0  0  0  0  0  0  0
    1.0717   -0.4124    0.0000 C   0  0  0  0  0  0  0  0  0  0  0  0
    1.0717    0.4125    0.0000 C   0  0  0  0  0  0  0  0  0  0  0  0
    1.7861   -0.8249    0.0000 C   0  0  0  0  0  0  0  0  0  0  0  0
   -1.2839    0.1226    0.0000 H   0  0  0  0  0  0  0  0  0  0  0  0
   -1.9983   -0.2899    0.0000 H   0  0  0  0  0  0  0  0  0  0  0  0
   -1.9982   -1.3599    0.0000 H   0  0  0  0  0  0  0  0  0  0  0  0
   -1.9983   -1.1149    0.0000 H   0  0  0  0  0  0  0  0  0  0  0  0
   -0.3572   -3.1325    0.0000 H   0  0  0  0  0  0  0  0  0  0  0  0
    0.5695   -2.5974    0.0000 H   0  0  0  0  0  0  0  0  0  0  0  0
    1.2839   -2.1848    0.0000 H   0  0  0  0  0  0  0  0  0  0  0  0
    1.2838   -1.1149    0.0000 H   0  0  0  0  0  0  0  0  0  0  0  0
    1.2838   -1.3599    0.0000 H   0  0  0  0  0  0  0  0  0  0  0  0
    1.2839    0.2900    0.0000 H   0  0  0  0  0  0  0  0  0  0  0  0
    1.2838    1.3600    0.0000 H   0  0  0  0  0  0  0  0  0  0  0  0
   -0.5694    2.1850    0.0000 H   0  0  0  0  0  0  0  0  0  0  0  0
    0.3572    2.7200    0.0000 H   0  0  0  0  0  0  0  0  0  0  0  0
    1.9117    1.5775    0.0000 H   0  0  0  0  0  0  0  0  0  0  0  0
   -2.7128   -1.5276    0.0000 H   0  0  0  0  0  0  0  0  0  0  0  0
   -1.7860   -3.1325    0.0000 H   0  0  0  0  0  0  0  0  0  0  0  0
   -2.7127   -2.5976    0.0000 H   0  0  0  0  0  0  0  0  0  0  0  0
    1.9984    0.1226    0.0000 H   0  0  0  0  0  0  0  0  0  0  0  0
    1.9983    0.9475    0.0000 H   0  0  0  0  0  0  0  0  0  0  0  0
    0.1451    0.9475    0.0000 H   0  0  0  0  0  0  0  0  0  0  0  0
    1.0717    1.4825    0.0000 H   0  0  0  0  0  0  0  0  0  0  0  0
    1.7861   -1.8949    0.0000 H   0  0  0  0  0  0  0  0  0  0  0  0
    2.7128   -0.2899    0.0000 H   0  0  0  0  0  0  0  0  0  0  0  0
    2.7127   -1.3599    0.0000 H   0  0  0  0  0  0  0  0  0  0  0  0
  1  2  1  0  0  0  0
  1  6  1  0  0  0  0
  1  7  1  0  0  0  0
  1 15  1  6  0  0  0
  2  3  1  0  0  0  0
  2 16  1  0  0  0  0
  2 17  1  0  0  0  0
  3  4  1  0  0  0  0
  3 11  1  0  0  0  0
  3 18  1  6  0  0  0
  4  5  1  0  0  0  0
  4 19  1  0  0  0  0
  4 20  1  0  0  0  0
  5  6  1  0  0  0  0
  5 21  1  0  0  0  0
  5 22  1  0  0  0  0
  6 12  1  0  0  0  0
  6 23  1  1  0  0  0
  7  8  1  0  0  0  0
  8  9  1  0  0  0  0
  8 24  1  0  0  0  0
  8 25  1  0  0  0  0
  9 10  1  0  0  0  0
  9 26  1  0  0  0  0
  9 27  1  0  0  0  0
 10 28  1  0  0  0  0
 11 29  1  0  0  0  0
 11 30  1  0  0  0  0
 11 31  1  0  0  0  0
 12 13  1  0  0  0  0
 12 14  1  0  0  0  0
 12 32  1  0  0  0  0
 13 33  1  0  0  0  0
 13 34  1  0  0  0  0
 13 35  1  0  0  0  0
 14 36  1  0  0  0  0
 14 37  1  0  0  0  0
 14 38  1  0  0  0  0
M  END
>  <DRUGBANK_ID>
DB11174

>  <COMMON_NAME>
2-(l-menthoxy)ethanol

>  <CAS_NUMBER>
75443-64-0

>  <UNII>
5ZWW23169H

$$$$
