
 OpenBabel10282417072D

 54 57  0  0  0  0  0  0  0  0999 V2000
   -1.6659    2.3984    0.0000 N   0  0  0  0  0  0  0  0  0  0  0  0
   -1.1809    1.7309    0.0000 C   0  0  0  0  0  0  0  0  0  0  0  0
   -1.6659    1.0635    0.0000 C   0  0  0  0  0  0  0  0  0  0  0  0
   -2.4506    1.3184    0.0000 C   0  0  0  0  0  0  0  0  0  0  0  0
   -3.1650    0.9059    0.0000 C   0  0  0  0  0  0  0  0  0  0  0  0
   -3.8795    1.3184    0.0000 C   0  0  0  0  0  0  0  0  0  0  0  0
   -3.8795    2.1434    0.0000 C   0  0  0  0  0  0  0  0  0  0  0  0
   -3.1650    2.5559    0.0000 C   0  0  0  0  0  0  0  0  0  0  0  0
   -2.4506    2.1434    0.0000 C   0  0  0  0  0  0  0  0  0  0  0  0
   -0.3560    1.7309    0.0000 C   0  0  0  0  0  0  0  0  0  0  0  0
    0.0564    2.4454    0.0000 O   0  0  0  0  0  0  0  0  0  0  0  0
    0.0564    1.0164    0.0000 N   0  0  0  0  0  0  0  0  0  0  0  0
    0.8814    1.0164    0.0000 C   0  0  2  0  0  0  0  0  0  0  0  0
    1.2939    1.7309    0.0000 C   0  0  0  0  0  0  0  0  0  0  0  0
    0.8814    2.4454    0.0000 O   0  0  0  0  0  0  0  0  0  0  0  0
    2.1189    1.7309    0.0000 N   0  0  0  0  0  0  0  0  0  0  0  0
    2.5314    2.4454    0.0000 C   0  0  0  0  0  0  0  0  0  0  0  0
    3.3564    2.4454    0.0000 C   0  0  0  0  0  0  0  0  0  0  0  0
    3.7690    1.7309    0.0000 C   0  0  3  0  0  0  0  0  0  0  0  0
    3.3564    1.0164    0.0000 C   0  0  0  0  0  0  0  0  0  0  0  0
    2.5314    1.0164    0.0000 C   0  0  0  0  0  0  0  0  0  0  0  0
    4.5940    1.7309    0.0000 O   0  0  0  0  0  0  0  0  0  0  0  0
    1.2939    0.3020    0.0000 C   0  0  0  0  0  0  0  0  0  0  0  0
    0.8814   -0.4124    0.0000 C   0  0  0  0  0  0  0  0  0  0  0  0
    1.2939   -1.1269    0.0000 C   0  0  0  0  0  0  0  0  0  0  0  0
    0.8814   -1.8413    0.0000 C   0  0  0  0  0  0  0  0  0  0  0  0
    0.0564   -1.8413    0.0000 C   0  0  0  0  0  0  0  0  0  0  0  0
   -0.3560   -1.1269    0.0000 C   0  0  0  0  0  0  0  0  0  0  0  0
    0.0564   -0.4124    0.0000 C   0  0  0  0  0  0  0  0  0  0  0  0
   -0.3560   -2.5558    0.0000 F   0  0  0  0  0  0  0  0  0  0  0  0
   -4.5940    0.9059    0.0000 Cl  0  0  0  0  0  0  0  0  0  0  0  0
   -1.3617    3.3347    0.0000 H   0  0  0  0  0  0  0  0  0  0  0  0
   -1.3470    0.0820    0.0000 H   0  0  0  0  0  0  0  0  0  0  0  0
   -3.1650   -0.1261    0.0000 H   0  0  0  0  0  0  0  0  0  0  0  0
   -4.7732    2.6594    0.0000 H   0  0  0  0  0  0  0  0  0  0  0  0
   -3.1650    3.5879    0.0000 H   0  0  0  0  0  0  0  0  0  0  0  0
   -0.4359    0.1638    0.0000 H   0  0  0  0  0  0  0  0  0  0  0  0
    1.9514    1.0164    0.0000 H   0  0  0  0  0  0  0  0  0  0  0  0
    1.9964    3.3720    0.0000 H   0  0  0  0  0  0  0  0  0  0  0  0
    3.0664    3.3720    0.0000 H   0  0  0  0  0  0  0  0  0  0  0  0
    3.8914    3.3721    0.0000 H   0  0  0  0  0  0  0  0  0  0  0  0
    4.4264    2.4455    0.0000 H   0  0  0  0  0  0  0  0  0  0  0  0
    2.6990    1.7309    0.0000 H   0  0  0  0  0  0  0  0  0  0  0  0
    3.8914    0.0897    0.0000 H   0  0  0  0  0  0  0  0  0  0  0  0
    2.8214    0.0898    0.0000 H   0  0  0  0  0  0  0  0  0  0  0  0
    1.9964    0.0898    0.0000 H   0  0  0  0  0  0  0  0  0  0  0  0
    1.4614    1.0164    0.0000 H   0  0  0  0  0  0  0  0  0  0  0  0
    5.0790    0.8909    0.0000 H   0  0  0  0  0  0  0  0  0  0  0  0
    2.3639    0.3020    0.0000 H   0  0  0  0  0  0  0  0  0  0  0  0
    1.8289    1.2287    0.0000 H   0  0  0  0  0  0  0  0  0  0  0  0
    2.3259   -1.1269    0.0000 H   0  0  0  0  0  0  0  0  0  0  0  0
    1.3974   -2.7350    0.0000 H   0  0  0  0  0  0  0  0  0  0  0  0
   -1.3880   -1.1269    0.0000 H   0  0  0  0  0  0  0  0  0  0  0  0
   -0.4597    0.4813    0.0000 H   0  0  0  0  0  0  0  0  0  0  0  0
  1  2  1  0  0  0  0
  1  9  1  0  0  0  0
  1 32  1  0  0  0  0
  2  3  2  0  0  0  0
  2 10  1  0  0  0  0
  3  4  1  0  0  0  0
  3 33  1  0  0  0  0
  4  5  1  0  0  0  0
  4  9  2  0  0  0  0
  5  6  2  0  0  0  0
  5 34  1  0  0  0  0
  6  7  1  0  0  0  0
  6 31  1  0  0  0  0
  7  8  2  0  0  0  0
  7 35  1  0  0  0  0
  8  9  1  0  0  0  0
  8 36  1  0  0  0  0
 10 11  2  0  0  0  0
 10 12  1  0  0  0  0
 12 37  1  0  0  0  0
 13 14  1  0  0  0  0
 13 23  1  0  0  0  0
 13 12  1  0  0  0  0
 13 38  1  1  0  0  0
 14 15  2  0  0  0  0
 14 16  1  0  0  0  0
 16 17  1  0  0  0  0
 16 21  1  0  0  0  0
 17 18  1  0  0  0  0
 17 39  1  0  0  0  0
 17 40  1  0  0  0  0
 18 19  1  0  0  0  0
 18 41  1  0  0  0  0
 18 42  1  0  0  0  0
 19 20  1  0  0  0  0
 19 22  1  0  0  0  0
 19 43  1  0  0  0  0
 20 21  1  0  0  0  0
 20 44  1  0  0  0  0
 20 45  1  0  0  0  0
 21 46  1  0  0  0  0
 21 47  1  0  0  0  0
 22 48  1  0  0  0  0
 23 24  1  0  0  0  0
 23 49  1  0  0  0  0
 23 50  1  0  0  0  0
 24 25  1  0  0  0  0
 24 29  2  0  0  0  0
 25 26  2  0  0  0  0
 25 51  1  0  0  0  0
 26 27  1  0  0  0  0
 26 52  1  0  0  0  0
 27 28  2  0  0  0  0
 27 30  1  0  0  0  0
 28 29  1  0  0  0  0
 28 53  1  0  0  0  0
 29 54  1  0  0  0  0
M  END
>  <DRUGBANK_ID>
DB03383

>  <SECONDARY_ACCESSION_NUMBERS>
EXPT00907

>  <COMMON_NAME>
CP-320626

>  <CAS_NUMBER>
186430-23-9

>  <UNII>
FKX709RK3Q

$$$$
