
 OpenBabel10282417072D

144147  0  0  0  0  0  0  0  0999 V2000
   -2.1439    4.2946    0.0000 C   0  0  0  0  0  0  0  0  0  0  0  0
   -2.1439    3.4697    0.0000 C   0  0  2  0  0  0  0  0  0  0  0  0
   -2.8583    4.7072    0.0000 C   0  0  0  0  0  0  0  0  0  0  0  0
   -2.8583    3.0571    0.0000 N   0  0  0  0  0  0  0  0  0  0  0  0
   -3.5729    4.2946    0.0000 C   0  0  0  0  0  0  0  0  0  0  0  0
   -3.5729    3.4697    0.0000 C   0  0  0  0  0  0  0  0  0  0  0  0
   -1.4291    3.0571    0.0000 C   0  0  0  0  0  0  0  0  0  0  0  0
   -1.4291    2.2321    0.0000 O   0  0  0  0  0  0  0  0  0  0  0  0
   -2.1439    1.8195    0.0000 O   0  0  0  0  0  0  0  0  0  0  0  0
   -2.8582    2.2321    0.0000 C   0  0  0  0  0  0  0  0  0  0  0  0
   -3.5728    1.8194    0.0000 C   0  0  0  0  0  0  0  0  0  0  0  0
   -4.2871    2.2319    0.0000 O   0  0  0  0  0  0  0  0  0  0  0  0
    0.0000    3.0571    0.0000 C   0  0  2  0  0  0  0  0  0  0  0  0
    0.0000    2.2321    0.0000 C   0  0  0  0  0  0  0  0  0  0  0  0
   -0.7148    3.4697    0.0000 O   0  0  0  0  0  0  0  0  0  0  0  0
    1.4288    3.0571    0.0000 C   0  0  0  0  0  0  0  0  0  0  0  0
    1.4288    2.2321    0.0000 O   0  0  0  0  0  0  0  0  0  0  0  0
    0.7144    3.4697    0.0000 C   0  0  1  0  0  0  0  0  0  0  0  0
    0.7144    1.8195    0.0000 C   0  0  0  0  0  0  0  0  0  0  0  0
    2.1435    4.2946    0.0000 C   0  0  0  0  0  0  0  0  0  0  0  0
    2.1435    3.4697    0.0000 C   0  0  2  0  0  0  0  0  0  0  0  0
    0.7145    4.2946    0.0000 C   0  0  0  0  0  0  0  0  0  0  0  0
    3.5727    4.2946    0.0000 C   0  0  1  0  0  0  0  0  0  0  0  0
    3.5727    3.4697    0.0000 C   0  0  1  0  0  0  0  0  0  0  0  0
    2.8580    4.7072    0.0000 C   0  0  0  0  0  0  0  0  0  0  0  0
    2.8580    3.0571    0.0000 C   0  0  0  0  0  0  0  0  0  0  0  0
   -2.8583    0.5820    0.0000 O   0  0  0  0  0  0  0  0  0  0  0  0
   -3.5728    0.9946    0.0000 C   0  0  2  0  0  0  0  0  0  0  0  0
   -2.8583   -0.2428    0.0000 C   0  0  1  0  0  0  0  0  0  0  0  0
   -3.5729   -0.6551    0.0000 C   0  0  0  0  0  0  0  0  0  0  0  0
   -4.2871    0.5821    0.0000 C   0  0  1  0  0  0  0  0  0  0  0  0
   -4.2873   -0.2426    0.0000 C   0  0  0  0  0  0  0  0  0  0  0  0
   -2.1439   -0.6553    0.0000 C   0  0  0  0  0  0  0  0  0  0  0  0
   -2.1439   -1.4805    0.0000 C   0  0  2  0  0  0  0  0  0  0  0  0
   -2.8583   -1.8930    0.0000 O   0  0  0  0  0  0  0  0  0  0  0  0
   -0.7148   -1.4805    0.0000 C   0  0  0  0  0  0  0  0  0  0  0  0
   -1.4294   -1.8930    0.0000 C   0  0  0  0  0  0  0  0  0  0  0  0
   -1.4294   -2.7180    0.0000 C   0  0  0  0  0  0  0  0  0  0  0  0
   -2.8583   -2.7178    0.0000 C   0  0  0  0  0  0  0  0  0  0  0  0
   -0.0011    3.9919    0.0000 H   0  0  0  0  0  0  0  0  0  0  0  0
   -5.0016    0.9948    0.0000 C   0  0  0  0  0  0  0  0  0  0  0  0
    0.7144    0.9944    0.0000 C   0  0  2  0  0  0  0  0  0  0  0  0
   -0.0002    0.5820    0.0000 C   0  0  0  0  0  0  0  0  0  0  0  0
    1.4288    0.5818    0.0000 C   0  0  0  0  0  0  0  0  0  0  0  0
    1.4288   -0.2431    0.0000 C   0  0  0  0  0  0  0  0  0  0  0  0
    0.7144   -0.6556    0.0000 C   0  0  0  0  0  0  0  0  0  0  0  0
    2.1434   -0.6556    0.0000 C   0  0  2  0  0  0  0  0  0  0  0  0
    2.1434   -1.4807    0.0000 C   0  0  1  0  0  0  0  0  0  0  0  0
    1.4287   -1.8931    0.0000 O   0  0  0  0  0  0  0  0  0  0  0  0
    2.8580   -0.2431    0.0000 O   0  0  0  0  0  0  0  0  0  0  0  0
    2.8579   -1.8931    0.0000 C   0  0  0  0  0  0  0  0  0  0  0  0
   -2.1934    0.2209    0.0000 H   0  0  0  0  0  0  0  0  0  0  0  0
   -0.7211   -3.1504    0.0000 C   0  0  0  0  0  0  0  0  0  0  0  0
   -0.7211   -4.1090    0.0000 C   0  0  0  0  0  0  0  0  0  0  0  0
    2.8579   -2.7182    0.0000 C   0  0  1  0  0  0  0  0  0  0  0  0
    2.1198   -3.1149    0.0000 C   0  0  0  0  0  0  0  0  0  0  0  0
    1.4288   -2.7180    0.0000 C   0  0  0  0  0  0  0  0  0  0  0  0
    3.5724   -1.4807    0.0000 O   0  0  0  0  0  0  0  0  0  0  0  0
   -0.0609   -4.4784    0.0000 C   0  0  0  0  0  0  0  0  0  0  0  0
    0.6540   -3.9833    0.0000 C   0  0  0  0  0  0  0  0  0  0  0  0
    1.5631   -3.9833    0.0000 C   0  0  1  0  0  0  0  0  0  0  0  0
    3.5772   -3.1032    0.0000 C   0  0  0  0  0  0  0  0  0  0  0  0
    2.1548    2.6720    0.0000 H   0  0  0  0  0  0  0  0  0  0  0  0
    4.2870    4.7072    0.0000 O   0  0  0  0  0  0  0  0  0  0  0  0
    4.2870    3.0571    0.0000 O   0  0  0  0  0  0  0  0  0  0  0  0
    5.0016    3.4696    0.0000 C   0  0  0  0  0  0  0  0  0  0  0  0
   -2.1433    2.6249    0.0000 H   0  0  0  0  0  0  0  0  0  0  0  0
   -2.9085    1.4050    0.0000 O   0  0  0  0  0  0  0  0  0  0  0  0
    1.9590   -4.7073    0.0000 C   0  0  0  0  0  0  0  0  0  0  0  0
   -1.2172    4.8295    0.0000 H   0  0  0  0  0  0  0  0  0  0  0  0
   -2.1438    5.3646    0.0000 H   0  0  0  0  0  0  0  0  0  0  0  0
   -2.8582    5.7772    0.0000 H   0  0  0  0  0  0  0  0  0  0  0  0
   -3.7849    5.2422    0.0000 H   0  0  0  0  0  0  0  0  0  0  0  0
   -4.4996    4.8296    0.0000 H   0  0  0  0  0  0  0  0  0  0  0  0
   -4.4995    3.7596    0.0000 H   0  0  0  0  0  0  0  0  0  0  0  0
   -4.4996    2.9347    0.0000 H   0  0  0  0  0  0  0  0  0  0  0  0
   -3.5729    2.3997    0.0000 H   0  0  0  0  0  0  0  0  0  0  0  0
   -0.9267    1.6972    0.0000 H   0  0  0  0  0  0  0  0  0  0  0  0
   -0.0001    1.1621    0.0000 H   0  0  0  0  0  0  0  0  0  0  0  0
    1.4287    1.9871    0.0000 H   0  0  0  0  0  0  0  0  0  0  0  0
    0.5021    2.5222    0.0000 H   0  0  0  0  0  0  0  0  0  0  0  0
   -0.2123    4.0047    0.0000 H   0  0  0  0  0  0  0  0  0  0  0  0
    1.2168    4.8296    0.0000 H   0  0  0  0  0  0  0  0  0  0  0  0
    1.2169    3.7596    0.0000 H   0  0  0  0  0  0  0  0  0  0  0  0
    1.6412    4.8295    0.0000 H   0  0  0  0  0  0  0  0  0  0  0  0
   -0.2121    4.8297    0.0000 H   0  0  0  0  0  0  0  0  0  0  0  0
    0.7146    5.3646    0.0000 H   0  0  0  0  0  0  0  0  0  0  0  0
    4.4994    3.7597    0.0000 H   0  0  0  0  0  0  0  0  0  0  0  0
    4.4994    4.0046    0.0000 H   0  0  0  0  0  0  0  0  0  0  0  0
    2.8579    5.7772    0.0000 H   0  0  0  0  0  0  0  0  0  0  0  0
    1.9313    5.2421    0.0000 H   0  0  0  0  0  0  0  0  0  0  0  0
    2.8579    1.9871    0.0000 H   0  0  0  0  0  0  0  0  0  0  0  0
    1.9313    2.5222    0.0000 H   0  0  0  0  0  0  0  0  0  0  0  0
   -3.5731   -1.7251    0.0000 H   0  0  0  0  0  0  0  0  0  0  0  0
   -2.6464   -1.1903    0.0000 H   0  0  0  0  0  0  0  0  0  0  0  0
   -4.2871    1.6521    0.0000 H   0  0  0  0  0  0  0  0  0  0  0  0
   -5.2140   -0.7775    0.0000 H   0  0  0  0  0  0  0  0  0  0  0  0
   -5.2138    0.2926    0.0000 H   0  0  0  0  0  0  0  0  0  0  0  0
   -1.2172   -0.1203    0.0000 H   0  0  0  0  0  0  0  0  0  0  0  0
   -1.2173   -1.1903    0.0000 H   0  0  0  0  0  0  0  0  0  0  0  0
   -3.0706   -0.9455    0.0000 H   0  0  0  0  0  0  0  0  0  0  0  0
    0.2118   -2.0156    0.0000 H   0  0  0  0  0  0  0  0  0  0  0  0
   -0.7147   -0.4105    0.0000 H   0  0  0  0  0  0  0  0  0  0  0  0
    0.2119   -0.9456    0.0000 H   0  0  0  0  0  0  0  0  0  0  0  0
   -2.3294   -3.2230    0.0000 H   0  0  0  0  0  0  0  0  0  0  0  0
   -3.7849   -3.2528    0.0000 H   0  0  0  0  0  0  0  0  0  0  0  0
   -1.9317   -3.2528    0.0000 H   0  0  0  0  0  0  0  0  0  0  0  0
   -2.8583   -3.7878    0.0000 H   0  0  0  0  0  0  0  0  0  0  0  0
   -5.0014    2.0648    0.0000 H   0  0  0  0  0  0  0  0  0  0  0  0
   -5.9284    0.4600    0.0000 H   0  0  0  0  0  0  0  0  0  0  0  0
   -5.9281    1.5300    0.0000 H   0  0  0  0  0  0  0  0  0  0  0  0
   -0.2122    1.5295    0.0000 H   0  0  0  0  0  0  0  0  0  0  0  0
   -0.9267    1.1172    0.0000 H   0  0  0  0  0  0  0  0  0  0  0  0
   -0.0004   -0.4880    0.0000 H   0  0  0  0  0  0  0  0  0  0  0  0
   -0.9269    0.0472    0.0000 H   0  0  0  0  0  0  0  0  0  0  0  0
    2.3226    1.0977    0.0000 H   0  0  0  0  0  0  0  0  0  0  0  0
   -0.2123   -0.1206    0.0000 H   0  0  0  0  0  0  0  0  0  0  0  0
    0.7144   -1.7256    0.0000 H   0  0  0  0  0  0  0  0  0  0  0  0
   -0.2122   -1.1906    0.0000 H   0  0  0  0  0  0  0  0  0  0  0  0
    3.0700   -1.1906    0.0000 H   0  0  0  0  0  0  0  0  0  0  0  0
    1.2168   -0.9456    0.0000 H   0  0  0  0  0  0  0  0  0  0  0  0
    3.6980   -0.7282    0.0000 H   0  0  0  0  0  0  0  0  0  0  0  0
    0.1789   -2.6454    0.0000 H   0  0  0  0  0  0  0  0  0  0  0  0
   -1.6113   -4.6310    0.0000 H   0  0  0  0  0  0  0  0  0  0  0  0
    3.7758   -2.1684    0.0000 H   0  0  0  0  0  0  0  0  0  0  0  0
    1.3928   -2.3298    0.0000 H   0  0  0  0  0  0  0  0  0  0  0  0
    1.0540   -3.2094    0.0000 H   0  0  0  0  0  0  0  0  0  0  0  0
    0.5022   -3.2531    0.0000 H   0  0  0  0  0  0  0  0  0  0  0  0
    2.3555   -3.2529    0.0000 H   0  0  0  0  0  0  0  0  0  0  0  0
    1.4289   -3.7880    0.0000 H   0  0  0  0  0  0  0  0  0  0  0  0
   -0.0116   -5.5092    0.0000 H   0  0  0  0  0  0  0  0  0  0  0  0
    0.3462   -2.9983    0.0000 H   0  0  0  0  0  0  0  0  0  0  0  0
    1.0174   -4.9037    0.0000 H   0  0  0  0  0  0  0  0  0  0  0  0
    3.6116   -4.1726    0.0000 H   0  0  0  0  0  0  0  0  0  0  0  0
    4.4862   -2.5387    0.0000 H   0  0  0  0  0  0  0  0  0  0  0  0
    4.5206   -3.6081    0.0000 H   0  0  0  0  0  0  0  0  0  0  0  0
    5.1271    4.2224    0.0000 H   0  0  0  0  0  0  0  0  0  0  0  0
    5.9282    2.9345    0.0000 H   0  0  0  0  0  0  0  0  0  0  0  0
    5.0017    4.5396    0.0000 H   0  0  0  0  0  0  0  0  0  0  0  0
    5.9283    4.0045    0.0000 H   0  0  0  0  0  0  0  0  0  0  0  0
   -2.0544    0.9452    0.0000 H   0  0  0  0  0  0  0  0  0  0  0  0
    1.4026   -5.6213    0.0000 H   0  0  0  0  0  0  0  0  0  0  0  0
    3.0287   -4.7321    0.0000 H   0  0  0  0  0  0  0  0  0  0  0  0
    2.4724   -5.6461    0.0000 H   0  0  0  0  0  0  0  0  0  0  0  0
  1 70  1  0  0  0  0
  1 71  1  0  0  0  0
  2  1  1  0  0  0  0
  2  7  1  0  0  0  0
  2 67  1  6  0  0  0
  3  1  1  0  0  0  0
  3 72  1  0  0  0  0
  3 73  1  0  0  0  0
  4  2  1  0  0  0  0
  5  3  1  0  0  0  0
  5 74  1  0  0  0  0
  5 75  1  0  0  0  0
  6  5  1  0  0  0  0
  6  4  1  0  0  0  0
  6 76  1  0  0  0  0
  6 77  1  0  0  0  0
  7 15  1  0  0  0  0
  8  7  2  0  0  0  0
 10  4  1  0  0  0  0
 10  9  2  0  0  0  0
 11 10  1  0  0  0  0
 12 11  2  0  0  0  0
 13 18  1  0  0  0  0
 13 40  1  1  0  0  0
 14 13  1  0  0  0  0
 14 19  1  0  0  0  0
 14 78  1  0  0  0  0
 14 79  1  0  0  0  0
 15 13  1  0  0  0  0
 16 21  1  0  0  0  0
 16 80  1  0  0  0  0
 16 81  1  0  0  0  0
 18 16  1  0  0  0  0
 18 22  1  0  0  0  0
 18 82  1  1  0  0  0
 19 17  2  0  0  0  0
 20 25  1  0  0  0  0
 20 83  1  0  0  0  0
 20 84  1  0  0  0  0
 21 26  1  0  0  0  0
 21 20  1  0  0  0  0
 21 63  1  1  0  0  0
 22 85  1  0  0  0  0
 22 86  1  0  0  0  0
 22 87  1  0  0  0  0
 23 64  1  0  0  0  0
 23 88  1  6  0  0  0
 24 23  1  0  0  0  0
 24 65  1  0  0  0  0
 24 89  1  1  0  0  0
 25 23  1  0  0  0  0
 25 90  1  0  0  0  0
 25 91  1  0  0  0  0
 26 24  1  0  0  0  0
 26 92  1  0  0  0  0
 26 93  1  0  0  0  0
 28 11  1  0  0  0  0
 28 27  1  0  0  0  0
 28 68  1  1  0  0  0
 29 27  1  0  0  0  0
 29 33  1  0  0  0  0
 29 52  1  1  0  0  0
 30 29  1  0  0  0  0
 30 94  1  0  0  0  0
 30 95  1  0  0  0  0
 31 28  1  0  0  0  0
 31 41  1  0  0  0  0
 31 96  1  6  0  0  0
 32 30  1  0  0  0  0
 32 31  1  0  0  0  0
 32 97  1  0  0  0  0
 32 98  1  0  0  0  0
 33 99  1  0  0  0  0
 33100  1  0  0  0  0
 34 33  1  0  0  0  0
 34 37  1  0  0  0  0
 34 35  1  0  0  0  0
 34101  1  6  0  0  0
 36102  1  0  0  0  0
 36103  1  0  0  0  0
 36104  1  0  0  0  0
 37 36  1  0  0  0  0
 38 37  2  0  0  0  0
 38105  1  0  0  0  0
 39 35  1  0  0  0  0
 39106  1  0  0  0  0
 39107  1  0  0  0  0
 39108  1  0  0  0  0
 41109  1  0  0  0  0
 41110  1  0  0  0  0
 41111  1  0  0  0  0
 42 19  1  0  0  0  0
 42 44  1  0  0  0  0
 42 43  1  0  0  0  0
 42112  1  6  0  0  0
 43113  1  0  0  0  0
 43114  1  0  0  0  0
 43115  1  0  0  0  0
 44116  1  0  0  0  0
 45 44  2  0  0  0  0
 45 47  1  0  0  0  0
 46 45  1  0  0  0  0
 46117  1  0  0  0  0
 46118  1  0  0  0  0
 46119  1  0  0  0  0
 47 50  1  0  0  0  0
 47120  1  6  0  0  0
 48 47  1  0  0  0  0
 48 51  1  0  0  0  0
 48 49  1  0  0  0  0
 48121  1  1  0  0  0
 50122  1  0  0  0  0
 53 38  1  0  0  0  0
 53123  1  0  0  0  0
 54 53  2  0  0  0  0
 54124  1  0  0  0  0
 55 51  1  0  0  0  0
 55 62  1  0  0  0  0
 55125  1  1  0  0  0
 56 55  1  0  0  0  0
 56 61  1  0  0  0  0
 56126  1  0  0  0  0
 56127  1  0  0  0  0
 57 49  1  0  0  0  0
 57128  1  0  0  0  0
 57129  1  0  0  0  0
 57130  1  0  0  0  0
 58 51  2  0  0  0  0
 59 54  1  0  0  0  0
 59131  1  0  0  0  0
 60 59  2  0  0  0  0
 60132  1  0  0  0  0
 61 60  1  0  0  0  0
 61 69  1  0  0  0  0
 61133  1  1  0  0  0
 62134  1  0  0  0  0
 62135  1  0  0  0  0
 62136  1  0  0  0  0
 64137  1  0  0  0  0
 66 65  1  0  0  0  0
 66138  1  0  0  0  0
 66139  1  0  0  0  0
 66140  1  0  0  0  0
 68141  1  0  0  0  0
 69142  1  0  0  0  0
 69143  1  0  0  0  0
 69144  1  0  0  0  0
M  END
>  <DRUGBANK_ID>
DB00877

>  <SECONDARY_ACCESSION_NUMBERS>
APRD00178; DB02439

>  <COMMON_NAME>
Sirolimus

>  <CAS_NUMBER>
53123-88-9

>  <UNII>
W36ZG6FT64

>  <SYNONYMS>
(-)-Rapamycin; Rapamycin; Sirolimús; Sirolimus; Sirolimusum

$$$$
