
 OpenBabel10282417072D

 87 93  0  0  1  0  0  0  0  0999 V2000
   11.3786   -5.0930    0.0000 C   0  0  0  0  0  0  0  0  0  0  0  0
   10.6641   -5.5055    0.0000 C   0  0  0  0  0  0  0  0  0  0  0  0
    9.9496   -5.0930    0.0000 C   0  0  0  0  0  0  0  0  0  0  0  0
   10.6641   -6.3305    0.0000 N   0  0  0  0  0  0  0  0  0  0  0  0
   11.3316   -6.8154    0.0000 C   0  0  0  0  0  0  0  0  0  0  0  0
   11.0766   -7.6000    0.0000 C   0  0  0  0  0  0  0  0  0  0  0  0
   10.2516   -7.6000    0.0000 N   0  0  0  0  0  0  0  0  0  0  0  0
    9.9967   -6.8154    0.0000 C   0  0  0  0  0  0  0  0  0  0  0  0
    9.2121   -6.5605    0.0000 O   0  0  0  0  0  0  0  0  0  0  0  0
    9.7667   -8.2675    0.0000 C   0  0  0  0  0  0  0  0  0  0  0  0
   10.1023   -9.0211    0.0000 C   0  0  0  0  0  0  0  0  0  0  0  0
    9.6173   -9.6886    0.0000 C   0  0  0  0  0  0  0  0  0  0  0  0
    8.7968   -9.6023    0.0000 C   0  0  0  0  0  0  0  0  0  0  0  0
    8.4613   -8.8487    0.0000 C   0  0  0  0  0  0  0  0  0  0  0  0
    8.9462   -8.1812    0.0000 C   0  0  0  0  0  0  0  0  0  0  0  0
    8.3119  -10.2698    0.0000 N   0  0  0  0  0  0  0  0  0  0  0  0
    8.6475  -11.0235    0.0000 C   0  0  0  0  0  0  0  0  0  0  0  0
    8.1626  -11.6909    0.0000 C   0  0  0  0  0  0  0  0  0  0  0  0
    7.3421  -11.6047    0.0000 N   0  0  0  0  0  0  0  0  0  0  0  0
    7.0065  -10.8510    0.0000 C   0  0  0  0  0  0  0  0  0  0  0  0
    7.4914  -10.1836    0.0000 C   0  0  0  0  0  0  0  0  0  0  0  0
    6.8572  -12.2721    0.0000 C   0  0  0  0  0  0  0  0  0  0  0  0
    7.1927  -13.0258    0.0000 C   0  0  0  0  0  0  0  0  0  0  0  0
    6.7078  -13.6932    0.0000 C   0  0  0  0  0  0  0  0  0  0  0  0
    5.8873  -13.6070    0.0000 C   0  0  0  0  0  0  0  0  0  0  0  0
    5.5518  -12.8533    0.0000 C   0  0  0  0  0  0  0  0  0  0  0  0
    6.0367  -12.1859    0.0000 C   0  0  0  0  0  0  0  0  0  0  0  0
    5.4024  -14.2744    0.0000 O   0  0  0  0  0  0  0  0  0  0  0  0
    4.5819  -14.1882    0.0000 C   0  0  0  0  0  0  0  0  0  0  0  0
    4.0970  -14.8556    0.0000 C   0  0  1  0  0  0  0  0  0  0  0  0
    4.3519  -15.6402    0.0000 O   0  0  0  0  0  0  0  0  0  0  0  0
    3.6845  -16.1252    0.0000 C   0  0  0  0  0  0  0  0  0  0  0  0
    3.0170  -15.6402    0.0000 C   0  0  2  0  0  0  0  0  0  0  0  0
    3.2720  -14.8556    0.0000 O   0  0  0  0  0  0  0  0  0  0  0  0
    2.4586  -16.2475    0.0000 C   0  0  0  0  0  0  0  0  0  0  0  0
    2.7053  -17.0348    0.0000 N   0  0  0  0  0  0  0  0  0  0  0  0
    3.4872  -17.2979    0.0000 C   0  0  0  0  0  0  0  0  0  0  0  0
    3.4786  -18.1229    0.0000 N   0  0  0  0  0  0  0  0  0  0  0  0
    2.6914  -18.3696    0.0000 C   0  0  0  0  0  0  0  0  0  0  0  0
    2.2134  -17.6971    0.0000 N   0  0  0  0  0  0  0  0  0  0  0  0
    2.2083  -15.4772    0.0000 C   0  0  0  0  0  0  0  0  0  0  0  0
    1.6627  -16.0960    0.0000 C   0  0  0  0  0  0  0  0  0  0  0  0
    0.8540  -15.9330    0.0000 C   0  0  0  0  0  0  0  0  0  0  0  0
    0.5909  -15.1510    0.0000 C   0  0  0  0  0  0  0  0  0  0  0  0
    1.1365  -14.5322    0.0000 C   0  0  0  0  0  0  0  0  0  0  0  0
    1.9452  -14.6953    0.0000 C   0  0  0  0  0  0  0  0  0  0  0  0
    2.4908  -14.0764    0.0000 F   0  0  0  0  0  0  0  0  0  0  0  0
   -0.2178  -14.9880    0.0000 F   0  0  0  0  0  0  0  0  0  0  0  0
   12.3052   -5.6280    0.0000 H   0  0  0  0  0  0  0  0  0  0  0  0
   11.3786   -4.0230    0.0000 H   0  0  0  0  0  0  0  0  0  0  0  0
   12.3053   -4.5580    0.0000 H   0  0  0  0  0  0  0  0  0  0  0  0
    9.7375   -6.0405    0.0000 H   0  0  0  0  0  0  0  0  0  0  0  0
    9.9496   -4.0230    0.0000 H   0  0  0  0  0  0  0  0  0  0  0  0
    9.0230   -5.6280    0.0000 H   0  0  0  0  0  0  0  0  0  0  0  0
    9.0229   -4.5580    0.0000 H   0  0  0  0  0  0  0  0  0  0  0  0
   12.3492   -6.4848    0.0000 H   0  0  0  0  0  0  0  0  0  0  0  0
   12.0882   -7.5720    0.0000 H   0  0  0  0  0  0  0  0  0  0  0  0
   11.7055   -8.4657    0.0000 H   0  0  0  0  0  0  0  0  0  0  0  0
   10.5908   -8.5534    0.0000 H   0  0  0  0  0  0  0  0  0  0  0  0
   11.1286   -9.1289    0.0000 H   0  0  0  0  0  0  0  0  0  0  0  0
   10.0370  -10.6314    0.0000 H   0  0  0  0  0  0  0  0  0  0  0  0
    7.4350   -8.7408    0.0000 H   0  0  0  0  0  0  0  0  0  0  0  0
    8.5265   -7.2384    0.0000 H   0  0  0  0  0  0  0  0  0  0  0  0
    9.7116  -11.1353    0.0000 H   0  0  0  0  0  0  0  0  0  0  0  0
    9.0827  -12.0010    0.0000 H   0  0  0  0  0  0  0  0  0  0  0  0
    8.5978  -12.6684    0.0000 H   0  0  0  0  0  0  0  0  0  0  0  0
    7.5337  -12.5566    0.0000 H   0  0  0  0  0  0  0  0  0  0  0  0
    5.9424  -10.7392    0.0000 H   0  0  0  0  0  0  0  0  0  0  0  0
    6.5713   -9.8735    0.0000 H   0  0  0  0  0  0  0  0  0  0  0  0
    7.0562   -9.2061    0.0000 H   0  0  0  0  0  0  0  0  0  0  0  0
    8.1203   -9.3179    0.0000 H   0  0  0  0  0  0  0  0  0  0  0  0
    8.2190  -13.1337    0.0000 H   0  0  0  0  0  0  0  0  0  0  0  0
    7.1276  -14.6360    0.0000 H   0  0  0  0  0  0  0  0  0  0  0  0
    4.5255  -12.7454    0.0000 H   0  0  0  0  0  0  0  0  0  0  0  0
    5.6169  -11.2431    0.0000 H   0  0  0  0  0  0  0  0  0  0  0  0
    4.1467  -13.2107    0.0000 H   0  0  0  0  0  0  0  0  0  0  0  0
    3.5178  -14.0764    0.0000 H   0  0  0  0  0  0  0  0  0  0  0  0
    5.1538  -15.0230    0.0000 H   0  0  0  0  0  0  0  0  0  0  0  0
    3.6845  -17.1952    0.0000 H   0  0  0  0  0  0  0  0  0  0  0  0
    2.7311  -16.6110    0.0000 H   0  0  0  0  0  0  0  0  0  0  0  0
    1.4144  -16.0141    0.0000 H   0  0  0  0  0  0  0  0  0  0  0  0
    1.7343  -17.0351    0.0000 H   0  0  0  0  0  0  0  0  0  0  0  0
    4.3284  -16.7000    0.0000 H   0  0  0  0  0  0  0  0  0  0  0  0
    2.3623  -19.3477    0.0000 H   0  0  0  0  0  0  0  0  0  0  0  0
    1.9919  -17.0741    0.0000 H   0  0  0  0  0  0  0  0  0  0  0  0
    0.1715  -16.7071    0.0000 H   0  0  0  0  0  0  0  0  0  0  0  0
    0.8074  -13.5541    0.0000 H   0  0  0  0  0  0  0  0  0  0  0  0
  1  2  1  0  0  0  0
  1 49  1  0  0  0  0
  1 50  1  0  0  0  0
  1 51  1  0  0  0  0
  2  3  1  0  0  0  0
  2  4  1  0  0  0  0
  2 52  1  0  0  0  0
  3 53  1  0  0  0  0
  3 54  1  0  0  0  0
  3 55  1  0  0  0  0
  4  5  1  0  0  0  0
  4  8  1  0  0  0  0
  5  6  1  0  0  0  0
  5 56  1  0  0  0  0
  5 57  1  0  0  0  0
  6  7  1  0  0  0  0
  6 58  1  0  0  0  0
  6 59  1  0  0  0  0
  7  8  1  0  0  0  0
  7 10  1  0  0  0  0
  8  9  2  0  0  0  0
 10 11  2  0  0  0  0
 10 15  1  0  0  0  0
 11 12  1  0  0  0  0
 11 60  1  0  0  0  0
 12 13  2  0  0  0  0
 12 61  1  0  0  0  0
 13 14  1  0  0  0  0
 13 16  1  0  0  0  0
 14 15  2  0  0  0  0
 14 62  1  0  0  0  0
 15 63  1  0  0  0  0
 16 17  1  0  0  0  0
 16 21  1  0  0  0  0
 17 18  1  0  0  0  0
 17 64  1  0  0  0  0
 17 65  1  0  0  0  0
 18 19  1  0  0  0  0
 18 66  1  0  0  0  0
 18 67  1  0  0  0  0
 19 20  1  0  0  0  0
 19 22  1  0  0  0  0
 20 21  1  0  0  0  0
 20 68  1  0  0  0  0
 20 69  1  0  0  0  0
 21 70  1  0  0  0  0
 21 71  1  0  0  0  0
 22 23  2  0  0  0  0
 22 27  1  0  0  0  0
 23 24  1  0  0  0  0
 23 72  1  0  0  0  0
 24 25  2  0  0  0  0
 24 73  1  0  0  0  0
 25 26  1  0  0  0  0
 25 28  1  0  0  0  0
 26 27  2  0  0  0  0
 26 74  1  0  0  0  0
 27 75  1  0  0  0  0
 28 29  1  0  0  0  0
 29 76  1  0  0  0  0
 29 77  1  0  0  0  0
 30 29  1  0  0  0  0
 30 31  1  0  0  0  0
 30 34  1  0  0  0  0
 30 78  1  6  0  0  0
 31 32  1  0  0  0  0
 32 33  1  0  0  0  0
 32 79  1  0  0  0  0
 32 80  1  0  0  0  0
 33 34  1  0  0  0  0
 33 35  1  1  0  0  0
 33 41  1  0  0  0  0
 35 36  1  0  0  0  0
 35 81  1  0  0  0  0
 35 82  1  0  0  0  0
 36 37  1  0  0  0  0
 36 40  1  0  0  0  0
 37 38  2  0  0  0  0
 37 83  1  0  0  0  0
 38 39  1  0  0  0  0
 39 40  2  0  0  0  0
 39 84  1  0  0  0  0
 41 42  2  0  0  0  0
 41 46  1  0  0  0  0
 42 43  1  0  0  0  0
 42 85  1  0  0  0  0
 43 44  2  0  0  0  0
 43 86  1  0  0  0  0
 44 45  1  0  0  0  0
 44 48  1  0  0  0  0
 45 46  2  0  0  0  0
 45 87  1  0  0  0  0
 46 47  1  0  0  0  0
M  END
>  <DRUGBANK_ID>
DB06295

>  <COMMON_NAME>
Pramiconazole

>  <CAS_NUMBER>
219923-85-0

>  <UNII>
4SYH0R661F

>  <SYNONYMS>
Pramiconazole

$$$$
