
 OpenBabel10282417072D

 53 55  0  0  0  0  0  0  0  0999 V2000
   -1.0540    0.1444    0.0000 C   0  0  1  0  0  0  0  0  0  0  0  0
   -0.4155   -0.2270    0.0000 C   0  0  2  0  0  0  0  0  0  0  0  0
   -1.3814    1.5424    0.0000 C   0  0  0  0  0  0  0  0  0  0  0  0
   -0.4155    0.5104    0.0000 C   0  0  0  0  0  0  0  0  0  0  0  0
   -1.0540    0.8792    0.0000 C   0  0  1  0  0  0  0  0  0  0  0  0
   -1.6951   -0.2270    0.0000 C   0  0  0  0  0  0  0  0  0  0  0  0
   -0.0027   -0.9424    0.0000 C   0  0  0  0  0  0  0  0  0  0  0  0
   -1.6951    0.5104    0.0000 C   0  0  0  0  0  0  0  0  0  0  0  0
    0.3825   -0.0123    0.0000 O   0  0  0  0  0  0  0  0  0  0  0  0
   -1.0540   -0.6865    0.0000 C   0  0  0  0  0  0  0  0  0  0  0  0
    1.3099    1.8450    0.0000 N   0  0  0  0  0  0  0  0  0  0  0  0
   -1.1172    2.3239    0.0000 C   0  0  0  0  0  0  0  0  0  0  0  0
   -2.0170    2.0762    0.0000 C   0  0  0  0  0  0  0  0  0  0  0  0
    0.4430    0.8077    0.0000 C   0  0  0  0  0  0  0  0  0  0  0  0
    1.2438    1.0223    0.0000 C   0  0  0  0  0  0  0  0  0  0  0  0
    0.8228   -0.9424    0.0000 C   0  0  0  0  0  0  0  0  0  0  0  0
   -0.4155   -1.6552    0.0000 C   0  0  0  0  0  0  0  0  0  0  0  0
    0.6742    2.3735    0.0000 C   0  0  0  0  0  0  0  0  0  0  0  0
    2.0170    2.2688    0.0000 C   0  0  0  0  0  0  0  0  0  0  0  0
   -0.0027   -2.3735    0.0000 C   0  0  0  0  0  0  0  0  0  0  0  0
    1.2356   -1.6552    0.0000 C   0  0  0  0  0  0  0  0  0  0  0  0
    0.8228   -2.3735    0.0000 C   0  0  0  0  0  0  0  0  0  0  0  0
   -0.4512    1.4433    0.0000 H   0  0  0  0  0  0  0  0  0  0  0  0
    0.5112    1.0453    0.0000 H   0  0  0  0  0  0  0  0  0  0  0  0
   -0.4153    1.5804    0.0000 H   0  0  0  0  0  0  0  0  0  0  0  0
   -2.2294   -1.1540    0.0000 H   0  0  0  0  0  0  0  0  0  0  0  0
   -2.7287    0.0496    0.0000 H   0  0  0  0  0  0  0  0  0  0  0  0
   -2.6213    1.0461    0.0000 H   0  0  0  0  0  0  0  0  0  0  0  0
   -1.6938    1.5804    0.0000 H   0  0  0  0  0  0  0  0  0  0  0  0
   -1.9806   -1.2215    0.0000 H   0  0  0  0  0  0  0  0  0  0  0  0
   -0.1274   -1.2215    0.0000 H   0  0  0  0  0  0  0  0  0  0  0  0
   -1.0540   -1.7565    0.0000 H   0  0  0  0  0  0  0  0  0  0  0  0
   -0.0680    2.5340    0.0000 H   0  0  0  0  0  0  0  0  0  0  0  0
   -1.8237    3.1275    0.0000 H   0  0  0  0  0  0  0  0  0  0  0  0
   -0.7745    3.3375    0.0000 H   0  0  0  0  0  0  0  0  0  0  0  0
   -1.8307    3.1299    0.0000 H   0  0  0  0  0  0  0  0  0  0  0  0
   -3.0226    1.7107    0.0000 H   0  0  0  0  0  0  0  0  0  0  0  0
   -2.8364    2.7643    0.0000 H   0  0  0  0  0  0  0  0  0  0  0  0
   -0.3813    1.4899    0.0000 H   0  0  0  0  0  0  0  0  0  0  0  0
    0.6710    1.8531    0.0000 H   0  0  0  0  0  0  0  0  0  0  0  0
    2.0659    0.3374    0.0000 H   0  0  0  0  0  0  0  0  0  0  0  0
    1.0141   -0.0228    0.0000 H   0  0  0  0  0  0  0  0  0  0  0  0
    1.3382   -0.0483    0.0000 H   0  0  0  0  0  0  0  0  0  0  0  0
   -1.4475   -1.6535    0.0000 H   0  0  0  0  0  0  0  0  0  0  0  0
    0.8552    3.4281    0.0000 H   0  0  0  0  0  0  0  0  0  0  0  0
   -0.3296    2.0030    0.0000 H   0  0  0  0  0  0  0  0  0  0  0  0
   -0.1486    3.0575    0.0000 H   0  0  0  0  0  0  0  0  0  0  0  0
    2.9523    1.7490    0.0000 H   0  0  0  0  0  0  0  0  0  0  0  0
    1.9995    3.3387    0.0000 H   0  0  0  0  0  0  0  0  0  0  0  0
    2.9348    2.8189    0.0000 H   0  0  0  0  0  0  0  0  0  0  0  0
   -0.5196   -3.2667    0.0000 H   0  0  0  0  0  0  0  0  0  0  0  0
    2.2676   -1.6535    0.0000 H   0  0  0  0  0  0  0  0  0  0  0  0
    1.3397   -3.2667    0.0000 H   0  0  0  0  0  0  0  0  0  0  0  0
  1 10  1  1  0  0  0
  2  1  1  0  0  0  0
  2  7  1  0  0  0  0
  2  9  1  1  0  0  0
  3  1  1  0  0  0  0
  4  2  1  0  0  0  0
  4  5  1  0  0  0  0
  4 24  1  0  0  0  0
  4 25  1  0  0  0  0
  5  3  1  0  0  0  0
  5 23  1  6  0  0  0
  5  8  1  0  0  0  0
  6  1  1  0  0  0  0
  6 26  1  0  0  0  0
  6 27  1  0  0  0  0
  8  6  1  0  0  0  0
  8 28  1  0  0  0  0
  8 29  1  0  0  0  0
 10 30  1  0  0  0  0
 10 31  1  0  0  0  0
 10 32  1  0  0  0  0
 11 15  1  0  0  0  0
 12  3  1  0  0  0  0
 12 33  1  0  0  0  0
 12 34  1  0  0  0  0
 12 35  1  0  0  0  0
 13  3  1  0  0  0  0
 13 36  1  0  0  0  0
 13 37  1  0  0  0  0
 13 38  1  0  0  0  0
 14  9  1  0  0  0  0
 14 39  1  0  0  0  0
 14 40  1  0  0  0  0
 15 14  1  0  0  0  0
 15 41  1  0  0  0  0
 15 42  1  0  0  0  0
 16  7  2  0  0  0  0
 16 43  1  0  0  0  0
 17  7  1  0  0  0  0
 17 44  1  0  0  0  0
 18 11  1  0  0  0  0
 18 45  1  0  0  0  0
 18 46  1  0  0  0  0
 18 47  1  0  0  0  0
 19 11  1  0  0  0  0
 19 48  1  0  0  0  0
 19 49  1  0  0  0  0
 19 50  1  0  0  0  0
 20 17  2  0  0  0  0
 20 51  1  0  0  0  0
 21 16  1  0  0  0  0
 21 22  2  0  0  0  0
 21 52  1  0  0  0  0
 22 20  1  0  0  0  0
 22 53  1  0  0  0  0
M  END
>  <DRUGBANK_ID>
DB06512

>  <COMMON_NAME>
Deramciclane

>  <CAS_NUMBER>
120444-71-5

>  <UNII>
O5KFK61E74

>  <SYNONYMS>
Deramciclane

$$$$
