
 OpenBabel10282417072D

 25 26  0  0  0  0  0  0  0  0999 V2000
   -1.4054   -0.0362    0.0000 C   0  0  0  0  0  0  0  0  0  0  0  0
   -2.1199   -0.4487    0.0000 C   0  0  0  0  0  0  0  0  0  0  0  0
   -1.4054   -1.6862    0.0000 N   0  0  0  0  0  0  0  0  0  0  0  0
   -2.1199   -1.2737    0.0000 C   0  0  0  0  0  0  0  0  0  0  0  0
   -0.6909   -1.2737    0.0000 C   0  0  0  0  0  0  0  0  0  0  0  0
   -0.6909   -0.4487    0.0000 C   0  0  0  0  0  0  0  0  0  0  0  0
   -2.8343   -1.6862    0.0000 Cl  0  0  0  0  0  0  0  0  0  0  0  0
    2.0728   -0.4487    0.0000 S   0  0  0  0  0  0  0  0  0  0  0  0
    1.4054    0.0361    0.0000 C   0  0  0  0  0  0  0  0  0  0  0  0
    0.7379   -0.4487    0.0000 N   0  0  0  0  0  0  0  0  0  0  0  0
    1.8179   -1.2333    0.0000 C   0  0  0  0  0  0  0  0  0  0  0  0
    1.4054    0.8611    0.0000 N   0  0  0  0  0  0  0  0  0  0  0  0
    2.1198    1.2736    0.0000 C   0  0  0  0  0  0  0  0  0  0  0  0
    2.8343    1.6862    0.0000 N   0  0  0  0  0  0  0  0  0  0  0  0
    0.9929   -1.2333    0.0000 C   0  0  0  0  0  0  0  0  0  0  0  0
    0.0234   -0.0362    0.0000 C   0  0  0  0  0  0  0  0  0  0  0  0
   -1.4054    0.9958    0.0000 H   0  0  0  0  0  0  0  0  0  0  0  0
   -3.0136    0.0673    0.0000 H   0  0  0  0  0  0  0  0  0  0  0  0
    0.2028   -1.7897    0.0000 H   0  0  0  0  0  0  0  0  0  0  0  0
    2.4468   -2.0989    0.0000 H   0  0  0  0  0  0  0  0  0  0  0  0
    1.3321   -2.1867    0.0000 H   0  0  0  0  0  0  0  0  0  0  0  0
    0.3640   -2.0990    0.0000 H   0  0  0  0  0  0  0  0  0  0  0  0
    1.4787   -2.1867    0.0000 H   0  0  0  0  0  0  0  0  0  0  0  0
    0.0233    1.0338    0.0000 H   0  0  0  0  0  0  0  0  0  0  0  0
    0.9500    0.4988    0.0000 H   0  0  0  0  0  0  0  0  0  0  0  0
  1  2  1  0  0  0  0
  1 17  1  0  0  0  0
  2  4  2  0  0  0  0
  2 18  1  0  0  0  0
  3  4  1  0  0  0  0
  3  5  2  0  0  0  0
  5  6  1  0  0  0  0
  5 19  1  0  0  0  0
  6  1  2  0  0  0  0
  6 16  1  0  0  0  0
  7  4  1  0  0  0  0
  9  8  1  0  0  0  0
 10  9  1  0  0  0  0
 11  8  1  0  0  0  0
 11 15  1  0  0  0  0
 11 20  1  0  0  0  0
 11 21  1  0  0  0  0
 12  9  2  0  0  0  0
 13 12  1  0  0  0  0
 14 13  3  0  0  0  0
 15 10  1  0  0  0  0
 15 22  1  0  0  0  0
 15 23  1  0  0  0  0
 16 10  1  0  0  0  0
 16 24  1  0  0  0  0
 16 25  1  0  0  0  0
M  END
>  <DRUGBANK_ID>
DB08620

>  <COMMON_NAME>
Thiacloprid

>  <CAS_NUMBER>
111988-49-9

>  <UNII>
DSV3A944A4

>  <SYNONYMS>
(Z)-thiacloprid

$$$$
