PS0
 OpenBabel10282417072D

 27 27  0  0  0  0  0  0  0  0999 V2000
   -0.4858    0.9907    0.0000 N   0  0  0  0  0  0  0  0  0  0  0  0
    0.2287    0.5782    0.0000 C   0  0  2  0  0  0  0  0  0  0  0  0
    0.9431    0.9907    0.0000 C   0  0  1  0  0  0  0  0  0  0  0  0
    0.9431    1.8157    0.0000 O   0  0  0  0  0  0  0  0  0  0  0  0
    0.2287   -0.2468    0.0000 C   0  0  0  0  0  0  0  0  0  0  0  0
   -0.4858   -0.6593    0.0000 C   0  0  0  0  0  0  0  0  0  0  0  0
   -0.4858   -1.4843    0.0000 C   0  0  0  0  0  0  0  0  0  0  0  0
   -1.2003   -0.2468    0.0000 C   0  0  0  0  0  0  0  0  0  0  0  0
   -1.2003   -1.8968    0.0000 C   0  0  0  0  0  0  0  0  0  0  0  0
   -1.9148   -0.6593    0.0000 C   0  0  0  0  0  0  0  0  0  0  0  0
   -1.9148   -1.4843    0.0000 C   0  0  0  0  0  0  0  0  0  0  0  0
    1.6576    0.5782    0.0000 C   0  0  0  0  0  0  0  0  0  0  0  0
    0.0289    1.1269    0.0000 H   0  0  0  0  0  0  0  0  0  0  0  0
    0.5678    1.4380    0.0000 H   0  0  0  0  0  0  0  0  0  0  0  0
   -0.4858    2.0107    0.0000 H   0  0  0  0  0  0  0  0  0  0  0  0
   -1.3691    0.4807    0.0000 H   0  0  0  0  0  0  0  0  0  0  0  0
    1.7831    2.3007    0.0000 H   0  0  0  0  0  0  0  0  0  0  0  0
    1.1553   -0.7818    0.0000 H   0  0  0  0  0  0  0  0  0  0  0  0
    0.2287   -1.3168    0.0000 H   0  0  0  0  0  0  0  0  0  0  0  0
    0.4079   -2.0003    0.0000 H   0  0  0  0  0  0  0  0  0  0  0  0
   -1.2003    0.7852    0.0000 H   0  0  0  0  0  0  0  0  0  0  0  0
   -1.2003   -2.9288    0.0000 H   0  0  0  0  0  0  0  0  0  0  0  0
   -2.8085   -0.1433    0.0000 H   0  0  0  0  0  0  0  0  0  0  0  0
   -2.8085   -2.0003    0.0000 H   0  0  0  0  0  0  0  0  0  0  0  0
    1.6576   -0.4918    0.0000 H   0  0  0  0  0  0  0  0  0  0  0  0
    2.5842    1.1132    0.0000 H   0  0  0  0  0  0  0  0  0  0  0  0
    2.5843    0.0432    0.0000 H   0  0  0  0  0  0  0  0  0  0  0  0
  1 15  1  0  0  0  0
  1 16  1  0  0  0  0
  2  1  1  0  0  0  0
  2  3  1  0  0  0  0
  2  5  1  0  0  0  0
  2 13  1  1  0  0  0
  3  4  1  0  0  0  0
  3 12  1  0  0  0  0
  3 14  1  6  0  0  0
  4 17  1  0  0  0  0
  5  6  1  0  0  0  0
  5 18  1  0  0  0  0
  5 19  1  0  0  0  0
  6  7  2  0  0  0  0
  6  8  1  0  0  0  0
  7  9  1  0  0  0  0
  7 20  1  0  0  0  0
  8 10  2  0  0  0  0
  8 21  1  0  0  0  0
  9 11  2  0  0  0  0
  9 22  1  0  0  0  0
 10 11  1  0  0  0  0
 10 23  1  0  0  0  0
 11 24  1  0  0  0  0
 12 25  1  0  0  0  0
 12 26  1  0  0  0  0
 12 27  1  0  0  0  0
M  END
>  <DRUGBANK_ID>
DB08428

>  <COMMON_NAME>
3(S)-AMINO-4-PHENYL-BUTAN-2(S)-OL

$$$$
