272
 OpenBabel10282417072D

 27 29  0  0  0  0  0  0  0  0999 V2000
    1.8405   -1.3710    0.0000 C   0  0  0  0  0  0  0  0  0  0  0  0
    1.1260   -1.7835    0.0000 C   0  0  0  0  0  0  0  0  0  0  0  0
    0.4115   -1.3710    0.0000 C   0  0  0  0  0  0  0  0  0  0  0  0
    0.4115   -0.5460    0.0000 C   0  0  0  0  0  0  0  0  0  0  0  0
    1.1260   -0.1335    0.0000 C   0  0  0  0  0  0  0  0  0  0  0  0
    1.8405   -0.5460    0.0000 C   0  0  0  0  0  0  0  0  0  0  0  0
   -0.3731   -1.6260    0.0000 O   0  0  0  0  0  0  0  0  0  0  0  0
   -0.8580   -0.9585    0.0000 N   0  0  0  0  0  0  0  0  0  0  0  0
   -0.3731   -0.2911    0.0000 C   0  0  0  0  0  0  0  0  0  0  0  0
   -0.6280    0.4935    0.0000 C   0  0  0  0  0  0  0  0  0  0  0  0
   -1.4350    0.6651    0.0000 C   0  0  0  0  0  0  0  0  0  0  0  0
   -1.6899    1.4497    0.0000 C   0  0  0  0  0  0  0  0  0  0  0  0
   -1.1379    2.0628    0.0000 C   0  0  0  0  0  0  0  0  0  0  0  0
   -0.3309    1.8913    0.0000 C   0  0  0  0  0  0  0  0  0  0  0  0
   -0.0760    1.1066    0.0000 C   0  0  0  0  0  0  0  0  0  0  0  0
   -1.3928    2.8474    0.0000 O   0  0  0  0  0  0  0  0  0  0  0  0
   -1.9870    0.0520    0.0000 O   0  0  0  0  0  0  0  0  0  0  0  0
    2.5550   -1.7835    0.0000 O   0  0  0  0  0  0  0  0  0  0  0  0
    1.1260   -2.8155    0.0000 H   0  0  0  0  0  0  0  0  0  0  0  0
    1.1260    0.8985    0.0000 H   0  0  0  0  0  0  0  0  0  0  0  0
    2.7342   -0.0300    0.0000 H   0  0  0  0  0  0  0  0  0  0  0  0
   -2.6993    1.6643    0.0000 H   0  0  0  0  0  0  0  0  0  0  0  0
    0.3597    2.6582    0.0000 H   0  0  0  0  0  0  0  0  0  0  0  0
    0.9334    0.8920    0.0000 H   0  0  0  0  0  0  0  0  0  0  0  0
   -0.7658    3.5437    0.0000 H   0  0  0  0  0  0  0  0  0  0  0  0
   -2.9035    0.2468    0.0000 H   0  0  0  0  0  0  0  0  0  0  0  0
    2.5550   -2.7205    0.0000 H   0  0  0  0  0  0  0  0  0  0  0  0
  1  2  2  0  0  0  0
  1  6  1  0  0  0  0
  1 18  1  0  0  0  0
  2  3  1  0  0  0  0
  2 19  1  0  0  0  0
  3  4  2  0  0  0  0
  3  7  1  0  0  0  0
  4  5  1  0  0  0  0
  4  9  1  0  0  0  0
  5  6  2  0  0  0  0
  5 20  1  0  0  0  0
  6 21  1  0  0  0  0
  7  8  1  0  0  0  0
  8  9  2  0  0  0  0
  9 10  1  0  0  0  0
 10 11  2  0  0  0  0
 10 15  1  0  0  0  0
 11 12  1  0  0  0  0
 11 17  1  0  0  0  0
 12 13  2  0  0  0  0
 12 22  1  0  0  0  0
 13 14  1  0  0  0  0
 13 16  1  0  0  0  0
 14 15  2  0  0  0  0
 14 23  1  0  0  0  0
 15 24  1  0  0  0  0
 16 25  1  0  0  0  0
 17 26  1  0  0  0  0
 18 27  1  0  0  0  0
M  END
>  <DRUGBANK_ID>
DB06937

>  <COMMON_NAME>
4-(6-HYDROXY-BENZO[D]ISOXAZOL-3-YL)BENZENE-1,3-DIOL

$$$$
