1119
 OpenBabel10282417072D

 21 22  0  0  0  0  0  0  0  0999 V2000
    5.7524   -0.7138    0.0000 Cl  0  0  0  0  0  0  0  0  0  0  0  0
    2.9562   -0.6947    0.0000 S   0  0  0  0  0  0  0  0  0  0  0  0
    3.3523   -1.3807    0.0000 O   0  0  0  0  0  0  0  0  0  0  0  0
    2.5601   -1.3807    0.0000 O   0  0  0  0  0  0  0  0  0  0  0  0
    2.9562    0.8895    0.0000 N   0  0  0  0  0  0  0  0  0  0  0  0
    2.2702   -0.2986    0.0000 N   0  0  0  0  0  0  0  0  0  0  0  0
    3.6422   -0.2986    0.0000 C   0  0  0  0  0  0  0  0  0  0  0  0
    3.6422    0.4934    0.0000 C   0  0  0  0  0  0  0  0  0  0  0  0
    2.2702    0.4934    0.0000 C   0  0  0  0  0  0  0  0  0  0  0  0
    4.3502   -0.7221    0.0000 C   0  0  0  0  0  0  0  0  0  0  0  0
    4.3502    0.9170    0.0000 C   0  0  0  0  0  0  0  0  0  0  0  0
    5.0680   -0.3151    0.0000 C   0  0  0  0  0  0  0  0  0  0  0  0
    5.0680    0.5100    0.0000 C   0  0  0  0  0  0  0  0  0  0  0  0
    1.5842    0.8895    0.0000 C   0  0  0  0  0  0  0  0  0  0  0  0
    2.9562    1.8740    0.0000 H   0  0  0  0  0  0  0  0  0  0  0  0
    4.3382   -1.7540    0.0000 H   0  0  0  0  0  0  0  0  0  0  0  0
    4.3381    1.9489    0.0000 H   0  0  0  0  0  0  0  0  0  0  0  0
    5.9597    1.0295    0.0000 H   0  0  0  0  0  0  0  0  0  0  0  0
    1.5842    1.9595    0.0000 H   0  0  0  0  0  0  0  0  0  0  0  0
    0.6575    0.3545    0.0000 H   0  0  0  0  0  0  0  0  0  0  0  0
    0.6576    1.4245    0.0000 H   0  0  0  0  0  0  0  0  0  0  0  0
  1 12  1  0  0  0  0
  2  3  2  0  0  0  0
  2  4  2  0  0  0  0
  2  6  1  0  0  0  0
  2  7  1  0  0  0  0
  5  8  1  0  0  0  0
  5  9  1  0  0  0  0
  5 15  1  0  0  0  0
  6  9  2  0  0  0  0
  7  8  2  0  0  0  0
  7 10  1  0  0  0  0
  8 11  1  0  0  0  0
  9 14  1  0  0  0  0
 10 12  2  0  0  0  0
 10 16  1  0  0  0  0
 11 13  2  0  0  0  0
 11 17  1  0  0  0  0
 12 13  1  0  0  0  0
 13 18  1  0  0  0  0
 14 19  1  0  0  0  0
 14 20  1  0  0  0  0
 14 21  1  0  0  0  0
M  END
>  <DRUGBANK_ID>
DB01119

>  <SECONDARY_ACCESSION_NUMBERS>
APRD00914

>  <COMMON_NAME>
Diazoxide

>  <CAS_NUMBER>
364-98-7

>  <UNII>
O5CB12L4FN

>  <SYNONYMS>
7-chloro-3-methyl-2H-1,2,4-benzothiadiazine 1,1-dioxide; Diazossido; Diazoxide; Diazoxido; Diazoxidum

$$$$
