
 OpenBabel10282417072D

 21 17  0  0  0  0  0  0  0  0999 V2000
   -0.0483   -0.5459    0.0000 C   0  0  0  0  0  0  0  0  0  0  0  0
   -0.7627   -0.9585    0.0000 C   0  0  0  0  0  0  0  0  0  0  0  0
   -1.4772   -0.5459    0.0000 C   0  0  0  0  0  0  0  0  0  0  0  0
   -0.0483    0.2789    0.0000 C   0  0  0  0  0  0  0  0  0  0  0  0
    0.6661   -0.9585    0.0000 C   0  0  0  0  0  0  0  0  0  0  0  0
    1.3806   -0.5459    0.0000 C   0  0  0  0  0  0  0  0  0  0  0  0
   -0.0483   -1.3710    0.0000 O   0  0  0  0  0  0  0  0  0  0  0  0
   -1.4772    0.2789    0.0000 O   0  0  0  0  0  0  0  0  0  0  0  0
   -2.1917   -0.9585    0.0000 O   0  5  0  0  0  0  0  0  0  0  0  0
    1.3806    0.2789    0.0000 O   0  0  0  0  0  0  0  0  0  0  0  0
    2.0951   -0.9585    0.0000 O   0  5  0  0  0  0  0  0  0  0  0  0
   -0.7627    0.6914    0.0000 O   0  5  0  0  0  0  0  0  0  0  0  0
    0.6661    0.6914    0.0000 O   0  0  0  0  0  0  0  0  0  0  0  0
    2.6242    0.1413    0.0000 Li  0  3  0  0  0  0  0  0  0  0  0  0
    0.0089    1.3710    0.0000 Li  0  3  0  0  0  0  0  0  0  0  0  0
   -2.6242    0.1451    0.0000 Li  0  3  0  0  0  0  0  0  0  0  0  0
   -0.7627   -2.0285    0.0000 H   0  0  0  0  0  0  0  0  0  0  0  0
   -1.6894   -1.4935    0.0000 H   0  0  0  0  0  0  0  0  0  0  0  0
    0.6661   -2.0285    0.0000 H   0  0  0  0  0  0  0  0  0  0  0  0
   -0.2606   -1.4934    0.0000 H   0  0  0  0  0  0  0  0  0  0  0  0
   -0.8883   -1.8560    0.0000 H   0  0  0  0  0  0  0  0  0  0  0  0
  1  7  1  0  0  0  0
  1  2  1  0  0  0  0
  1  4  1  0  0  0  0
  2  3  1  0  0  0  0
  2 17  1  0  0  0  0
  2 18  1  0  0  0  0
  3  9  1  0  0  0  0
  3  8  2  0  0  0  0
  4 12  1  0  0  0  0
  4 13  2  0  0  0  0
  5  1  1  0  0  0  0
  5 19  1  0  0  0  0
  5 20  1  0  0  0  0
  6  5  1  0  0  0  0
  6 11  1  0  0  0  0
  6 10  2  0  0  0  0
  7 21  1  0  0  0  0
M  CHG  6   9  -1  11  -1  12  -1  14   1  15   1  16   1
M  END
>  <DRUGBANK_ID>
DB14507

>  <SECONDARY_ACCESSION_NUMBERS>
DBSALT001430

>  <COMMON_NAME>
Lithium citrate

>  <CAS_NUMBER>
919-16-4

>  <UNII>
3655633623

>  <SYNONYMS>
Anhydrous lithium citrate; Citric acid, trilithium salt; Lithium citrate (anhydrous); Trilithium citrate

$$$$
