
 OpenBabel10282417072D

 49 52  0  0  0  0  0  0  0  0999 V2000
   -2.3808   -1.0027    0.0000 N   0  0  0  0  0  0  0  0  0  0  0  0
   -2.9310   -0.3896    0.0000 C   0  0  0  0  0  0  0  0  0  0  0  0
    4.0828    0.1775    0.0000 C   0  0  3  0  0  0  0  0  0  0  0  0
   -2.5183    0.3323    0.0000 O   0  0  0  0  0  0  0  0  0  0  0  0
   -1.6302   -0.6647    0.0000 C   0  0  0  0  0  0  0  0  0  0  0  0
    4.8391    0.5100    0.0000 C   0  0  0  0  0  0  0  0  0  0  0  0
    4.1801   -0.6475    0.0000 C   0  0  0  0  0  0  0  0  0  0  0  0
    5.3892   -0.0973    0.0000 N   0  0  0  0  0  0  0  0  0  0  0  0
   -1.7104    0.1603    0.0000 C   0  0  0  0  0  0  0  0  0  0  0  0
    4.9767   -0.8136    0.0000 O   0  0  0  0  0  0  0  0  0  0  0  0
    3.3607    0.5787    0.0000 C   0  0  0  0  0  0  0  0  0  0  0  0
   -3.7447   -0.4756    0.0000 C   0  0  0  0  0  0  0  0  0  0  0  0
    5.0052    1.3179    0.0000 O   0  0  0  0  0  0  0  0  0  0  0  0
    3.5670   -1.1976    0.0000 O   0  0  0  0  0  0  0  0  0  0  0  0
   -0.9197   -1.0772    0.0000 C   0  0  0  0  0  0  0  0  0  0  0  0
    2.6559    0.1603    0.0000 C   0  0  0  0  0  0  0  0  0  0  0  0
    1.2291   -0.6647    0.0000 C   0  0  0  0  0  0  0  0  0  0  0  0
   -0.2034   -0.6647    0.0000 C   0  0  0  0  0  0  0  0  0  0  0  0
    2.6559   -0.6647    0.0000 C   0  0  0  0  0  0  0  0  0  0  0  0
    1.9339    0.5730    0.0000 C   0  0  0  0  0  0  0  0  0  0  0  0
    1.9339   -1.0772    0.0000 C   0  0  0  0  0  0  0  0  0  0  0  0
    1.2291    0.1603    0.0000 C   0  0  0  0  0  0  0  0  0  0  0  0
    0.5071   -1.0772    0.0000 O   0  0  0  0  0  0  0  0  0  0  0  0
   -1.0974    0.7105    0.0000 C   0  0  0  0  0  0  0  0  0  0  0  0
   -4.0828   -1.2262    0.0000 C   0  0  0  0  0  0  0  0  0  0  0  0
   -4.2374    0.1948    0.0000 C   0  0  0  0  0  0  0  0  0  0  0  0
   -5.0511    0.1088    0.0000 C   0  0  0  0  0  0  0  0  0  0  0  0
   -4.8965   -1.3179    0.0000 C   0  0  0  0  0  0  0  0  0  0  0  0
   -5.3892   -0.6475    0.0000 C   0  0  0  0  0  0  0  0  0  0  0  0
    4.1325    1.2463    0.0000 H   0  0  0  0  0  0  0  0  0  0  0  0
    6.3681    0.0076    0.0000 H   0  0  0  0  0  0  0  0  0  0  0  0
    3.3454    1.6486    0.0000 H   0  0  0  0  0  0  0  0  0  0  0  0
    2.4271    1.1014    0.0000 H   0  0  0  0  0  0  0  0  0  0  0  0
   -0.9216   -2.1472    0.0000 H   0  0  0  0  0  0  0  0  0  0  0  0
    0.0062   -1.6135    0.0000 H   0  0  0  0  0  0  0  0  0  0  0  0
   -0.2015    0.4053    0.0000 H   0  0  0  0  0  0  0  0  0  0  0  0
    0.7244   -0.1316    0.0000 H   0  0  0  0  0  0  0  0  0  0  0  0
    3.5485   -1.1827    0.0000 H   0  0  0  0  0  0  0  0  0  0  0  0
    1.9285    1.6050    0.0000 H   0  0  0  0  0  0  0  0  0  0  0  0
    1.9285   -2.1092    0.0000 H   0  0  0  0  0  0  0  0  0  0  0  0
    0.3338    0.6736    0.0000 H   0  0  0  0  0  0  0  0  0  0  0  0
   -0.0803    0.3782    0.0000 H   0  0  0  0  0  0  0  0  0  0  0  0
   -1.3182    1.7575    0.0000 H   0  0  0  0  0  0  0  0  0  0  0  0
   -0.3011    1.4252    0.0000 H   0  0  0  0  0  0  0  0  0  0  0  0
   -3.4749   -2.0601    0.0000 H   0  0  0  0  0  0  0  0  0  0  0  0
   -3.8205    1.1388    0.0000 H   0  0  0  0  0  0  0  0  0  0  0  0
   -5.6573    0.9440    0.0000 H   0  0  0  0  0  0  0  0  0  0  0  0
   -5.3101   -2.2634    0.0000 H   0  0  0  0  0  0  0  0  0  0  0  0
   -6.4153   -0.7574    0.0000 H   0  0  0  0  0  0  0  0  0  0  0  0
  2  1  2  0  0  0  0
  3 11  1  0  0  0  0
  3 30  1  0  0  0  0
  4  2  1  0  0  0  0
  5  1  1  0  0  0  0
  6  3  1  0  0  0  0
  7  3  1  0  0  0  0
  8  6  1  0  0  0  0
  8 10  1  0  0  0  0
  8 31  1  0  0  0  0
  9  5  2  0  0  0  0
  9  4  1  0  0  0  0
 10  7  1  0  0  0  0
 11 16  1  0  0  0  0
 11 32  1  0  0  0  0
 11 33  1  0  0  0  0
 12  2  1  0  0  0  0
 13  6  2  0  0  0  0
 14  7  2  0  0  0  0
 15  5  1  0  0  0  0
 15 34  1  0  0  0  0
 15 35  1  0  0  0  0
 16 20  2  0  0  0  0
 16 19  1  0  0  0  0
 17 23  1  0  0  0  0
 18 15  1  0  0  0  0
 18 36  1  0  0  0  0
 18 37  1  0  0  0  0
 19 21  2  0  0  0  0
 19 38  1  0  0  0  0
 20 22  1  0  0  0  0
 20 39  1  0  0  0  0
 21 17  1  0  0  0  0
 21 40  1  0  0  0  0
 22 17  2  0  0  0  0
 22 41  1  0  0  0  0
 23 18  1  0  0  0  0
 24  9  1  0  0  0  0
 24 42  1  0  0  0  0
 24 43  1  0  0  0  0
 24 44  1  0  0  0  0
 25 12  1  0  0  0  0
 25 45  1  0  0  0  0
 26 12  2  0  0  0  0
 26 46  1  0  0  0  0
 27 26  1  0  0  0  0
 27 47  1  0  0  0  0
 28 25  2  0  0  0  0
 28 48  1  0  0  0  0
 29 27  2  0  0  0  0
 29 28  1  0  0  0  0
 29 49  1  0  0  0  0
M  END
>  <DRUGBANK_ID>
DB04971

>  <COMMON_NAME>
Reglitazar

>  <CAS_NUMBER>
170861-63-9

>  <UNII>
P9UTN18JVV

>  <SYNONYMS>
Reglitazar; Reglixane

$$$$
