
 OpenBabel10282417072D

 23 22  0  0  1  0  0  0  0  0999 V2000
    0.1105    2.0625    0.0000 C   0  0  0  0  0  0  0  0  0  0  0  0
    1.6500    0.0000    0.0000 C   0  0  0  0  0  0  0  0  0  0  0  0
    0.8250    0.8250    0.0000 C   0  0  0  0  0  0  0  0  0  0  0  0
    0.8250   -0.8250    0.0000 C   0  0  0  0  0  0  0  0  0  0  0  0
    0.1105    1.2375    0.0000 C   0  0  1  0  0  0  0  0  0  0  0  0
    0.8250    0.0000    0.0000 C   0  0  2  0  0  0  0  0  0  0  0  0
    1.5395   -1.2375    0.0000 O   0  0  0  0  0  0  0  0  0  0  0  0
   -0.6039    0.8250    0.0000 O   0  0  0  0  0  0  0  0  0  0  0  0
    0.0000    0.0000    0.0000 O   0  0  0  0  0  0  0  0  0  0  0  0
    0.8250    1.6500    0.0000 H   0  0  0  0  0  0  0  0  0  0  0  0
    1.0371    2.5975    0.0000 H   0  0  0  0  0  0  0  0  0  0  0  0
   -0.8161    2.5975    0.0000 H   0  0  0  0  0  0  0  0  0  0  0  0
    0.1105    3.1325    0.0000 H   0  0  0  0  0  0  0  0  0  0  0  0
    2.1850   -0.9266    0.0000 H   0  0  0  0  0  0  0  0  0  0  0  0
    2.1850    0.9266    0.0000 H   0  0  0  0  0  0  0  0  0  0  0  0
    2.7200    0.0000    0.0000 H   0  0  0  0  0  0  0  0  0  0  0  0
    1.7516    1.3600    0.0000 H   0  0  0  0  0  0  0  0  0  0  0  0
    1.7516    0.2900    0.0000 H   0  0  0  0  0  0  0  0  0  0  0  0
   -0.1016   -1.3600    0.0000 H   0  0  0  0  0  0  0  0  0  0  0  0
    0.8250   -1.8950    0.0000 H   0  0  0  0  0  0  0  0  0  0  0  0
    1.5395   -2.2075    0.0000 H   0  0  0  0  0  0  0  0  0  0  0  0
   -1.4440    1.3100    0.0000 H   0  0  0  0  0  0  0  0  0  0  0  0
   -0.4850    0.8400    0.0000 H   0  0  0  0  0  0  0  0  0  0  0  0
  1 11  1  0  0  0  0
  1 12  1  0  0  0  0
  1 13  1  0  0  0  0
  2 14  1  0  0  0  0
  2 15  1  0  0  0  0
  2 16  1  0  0  0  0
  3 17  1  0  0  0  0
  3 18  1  0  0  0  0
  4 19  1  0  0  0  0
  4 20  1  0  0  0  0
  5  1  1  0  0  0  0
  5  3  1  0  0  0  0
  5  8  1  0  0  0  0
  5 10  1  6  0  0  0
  6  2  1  0  0  0  0
  6  3  1  0  0  0  0
  6  4  1  0  0  0  0
  6  9  1  6  0  0  0
  7  4  1  0  0  0  0
  7 21  1  0  0  0  0
  8 22  1  0  0  0  0
  9 23  1  0  0  0  0
M  END
>  <DRUGBANK_ID>
DB01881

>  <SECONDARY_ACCESSION_NUMBERS>
EXPT02229

>  <COMMON_NAME>
2-Methylpentane-1,2,4-Triol

$$$$
