3CZ
 OpenBabel10282417072D

 56 58  0  0  0  0  0  0  0  0999 V2000
   -1.3347    5.6064    0.0000 O   0  5  0  0  0  0  0  0  0  0  0  0
   -0.6202    5.1939    0.0000 N   0  3  0  0  0  0  0  0  0  0  0  0
    0.0943    5.6064    0.0000 O   0  0  0  0  0  0  0  0  0  0  0  0
   -0.6202    4.3689    0.0000 C   0  0  0  0  0  0  0  0  0  0  0  0
    0.0943    3.9564    0.0000 C   0  0  0  0  0  0  0  0  0  0  0  0
    0.0943    3.1314    0.0000 C   0  0  0  0  0  0  0  0  0  0  0  0
   -1.3347    3.9564    0.0000 C   0  0  0  0  0  0  0  0  0  0  0  0
   -1.3347    3.1314    0.0000 C   0  0  0  0  0  0  0  0  0  0  0  0
   -0.6202    2.7189    0.0000 C   0  0  0  0  0  0  0  0  0  0  0  0
   -0.6202    1.8939    0.0000 N   0  0  0  0  0  0  0  0  0  0  0  0
    0.0943    1.4814    0.0000 C   0  0  0  0  0  0  0  0  0  0  0  0
    0.0943    0.6564    0.0000 C   0  0  1  0  0  0  0  0  0  0  0  0
    0.8087    0.2439    0.0000 C   0  0  0  0  0  0  0  0  0  0  0  0
   -1.3347    1.4814    0.0000 C   0  0  0  0  0  0  0  0  0  0  0  0
   -1.3347    0.6564    0.0000 C   0  0  0  0  0  0  0  0  0  0  0  0
   -0.6202    0.2439    0.0000 N   0  0  0  0  0  0  0  0  0  0  0  0
   -0.6202   -0.5811    0.0000 S   0  0  0  0  0  0  0  0  0  0  0  0
   -1.4452   -0.5811    0.0000 O   0  0  0  0  0  0  0  0  0  0  0  0
    0.2048   -0.5811    0.0000 O   0  0  0  0  0  0  0  0  0  0  0  0
   -0.6202   -1.4061    0.0000 C   0  0  0  0  0  0  0  0  0  0  0  0
    0.0943   -1.8186    0.0000 C   0  0  0  0  0  0  0  0  0  0  0  0
    0.0943   -2.6436    0.0000 C   0  0  0  0  0  0  0  0  0  0  0  0
   -1.3347   -1.8186    0.0000 C   0  0  0  0  0  0  0  0  0  0  0  0
   -1.3347   -2.6436    0.0000 C   0  0  0  0  0  0  0  0  0  0  0  0
   -0.6202   -3.0561    0.0000 C   0  0  0  0  0  0  0  0  0  0  0  0
   -0.6202   -3.8811    0.0000 C   0  0  0  0  0  0  0  0  0  0  0  0
   -0.6202   -4.7061    0.0000 C   0  0  0  0  0  0  0  0  0  0  0  0
   -1.4452   -3.8811    0.0000 C   0  0  0  0  0  0  0  0  0  0  0  0
    0.2048   -3.8811    0.0000 C   0  0  0  0  0  0  0  0  0  0  0  0
    0.6000    0.9483    0.0000 H   0  0  0  0  0  0  0  0  0  0  0  0
    0.9880    4.4724    0.0000 H   0  0  0  0  0  0  0  0  0  0  0  0
    0.9880    2.6154    0.0000 H   0  0  0  0  0  0  0  0  0  0  0  0
   -2.2284    4.4724    0.0000 H   0  0  0  0  0  0  0  0  0  0  0  0
   -2.2284    2.6154    0.0000 H   0  0  0  0  0  0  0  0  0  0  0  0
    1.0209    2.0164    0.0000 H   0  0  0  0  0  0  0  0  0  0  0  0
    1.0209    0.9464    0.0000 H   0  0  0  0  0  0  0  0  0  0  0  0
    0.8087   -0.8261    0.0000 H   0  0  0  0  0  0  0  0  0  0  0  0
    1.7354    0.7789    0.0000 H   0  0  0  0  0  0  0  0  0  0  0  0
    1.7353   -0.2911    0.0000 H   0  0  0  0  0  0  0  0  0  0  0  0
   -2.2613    2.0164    0.0000 H   0  0  0  0  0  0  0  0  0  0  0  0
   -2.2613    0.9464    0.0000 H   0  0  0  0  0  0  0  0  0  0  0  0
   -2.2613    0.1214    0.0000 H   0  0  0  0  0  0  0  0  0  0  0  0
   -1.3347   -0.4136    0.0000 H   0  0  0  0  0  0  0  0  0  0  0  0
    0.9880   -1.3026    0.0000 H   0  0  0  0  0  0  0  0  0  0  0  0
    0.9880   -3.1596    0.0000 H   0  0  0  0  0  0  0  0  0  0  0  0
   -2.2284   -1.3026    0.0000 H   0  0  0  0  0  0  0  0  0  0  0  0
   -2.2284   -3.1596    0.0000 H   0  0  0  0  0  0  0  0  0  0  0  0
   -1.5468   -5.2411    0.0000 H   0  0  0  0  0  0  0  0  0  0  0  0
    0.3064   -5.2411    0.0000 H   0  0  0  0  0  0  0  0  0  0  0  0
   -0.6202   -5.7761    0.0000 H   0  0  0  0  0  0  0  0  0  0  0  0
   -1.9802   -2.9545    0.0000 H   0  0  0  0  0  0  0  0  0  0  0  0
   -1.9802   -4.8077    0.0000 H   0  0  0  0  0  0  0  0  0  0  0  0
   -2.5152   -3.8811    0.0000 H   0  0  0  0  0  0  0  0  0  0  0  0
    0.7398   -4.8077    0.0000 H   0  0  0  0  0  0  0  0  0  0  0  0
    0.7398   -2.9545    0.0000 H   0  0  0  0  0  0  0  0  0  0  0  0
    1.2748   -3.8811    0.0000 H   0  0  0  0  0  0  0  0  0  0  0  0
  1  2  1  0  0  0  0
  2  3  2  0  0  0  0
  2  4  1  0  0  0  0
  4  5  2  0  0  0  0
  4  7  1  0  0  0  0
  5  6  1  0  0  0  0
  5 31  1  0  0  0  0
  6  9  2  0  0  0  0
  6 32  1  0  0  0  0
  7  8  2  0  0  0  0
  7 33  1  0  0  0  0
  8  9  1  0  0  0  0
  8 34  1  0  0  0  0
  9 10  1  0  0  0  0
 10 11  1  0  0  0  0
 10 14  1  0  0  0  0
 11 12  1  0  0  0  0
 11 35  1  0  0  0  0
 11 36  1  0  0  0  0
 12 13  1  0  0  0  0
 12 16  1  0  0  0  0
 12 30  1  6  0  0  0
 13 37  1  0  0  0  0
 13 38  1  0  0  0  0
 13 39  1  0  0  0  0
 14 15  1  0  0  0  0
 14 40  1  0  0  0  0
 14 41  1  0  0  0  0
 15 16  1  0  0  0  0
 15 42  1  0  0  0  0
 15 43  1  0  0  0  0
 16 17  1  0  0  0  0
 17 18  2  0  0  0  0
 17 19  2  0  0  0  0
 17 20  1  0  0  0  0
 20 21  2  0  0  0  0
 20 23  1  0  0  0  0
 21 22  1  0  0  0  0
 21 44  1  0  0  0  0
 22 25  2  0  0  0  0
 22 45  1  0  0  0  0
 23 24  2  0  0  0  0
 23 46  1  0  0  0  0
 24 25  1  0  0  0  0
 24 47  1  0  0  0  0
 25 26  1  0  0  0  0
 26 27  1  0  0  0  0
 26 28  1  0  0  0  0
 26 29  1  0  0  0  0
 27 48  1  0  0  0  0
 27 49  1  0  0  0  0
 27 50  1  0  0  0  0
 28 51  1  0  0  0  0
 28 52  1  0  0  0  0
 28 53  1  0  0  0  0
 29 54  1  0  0  0  0
 29 55  1  0  0  0  0
 29 56  1  0  0  0  0
M  CHG  2   1  -1   2   1
M  END
>  <DRUGBANK_ID>
DB07049

>  <COMMON_NAME>
(2R)-1-[(4-tert-butylphenyl)sulfonyl]-2-methyl-4-(4-nitrophenyl)piperazine

$$$$
