OA5
 OpenBabel10282417072D

 31 32  0  0  0  0  0  0  0  0999 V2000
   -3.9315   -0.2303    0.0000 N   0  0  0  0  0  0  0  0  0  0  0  0
   -3.2169    0.1822    0.0000 C   0  0  0  0  0  0  0  0  0  0  0  0
   -3.2169    1.0073    0.0000 N   0  0  0  0  0  0  0  0  0  0  0  0
   -2.5025    1.4198    0.0000 C   0  0  0  0  0  0  0  0  0  0  0  0
   -2.5025    2.2449    0.0000 N   0  0  0  0  0  0  0  0  0  0  0  0
   -1.7879    1.0073    0.0000 N   0  0  0  0  0  0  0  0  0  0  0  0
   -2.5025   -0.2303    0.0000 N   0  0  0  0  0  0  0  0  0  0  0  0
   -1.7879    0.1822    0.0000 C   0  0  0  0  0  0  0  0  0  0  0  0
   -1.0734   -0.2303    0.0000 O   0  0  0  0  0  0  0  0  0  0  0  0
   -0.3588    0.1822    0.0000 C   0  0  0  0  0  0  0  0  0  0  0  0
    0.3556   -0.2303    0.0000 C   0  0  0  0  0  0  0  0  0  0  0  0
    1.0702    0.1822    0.0000 O   0  0  0  0  0  0  0  0  0  0  0  0
    1.7847   -0.2303    0.0000 C   0  0  0  0  0  0  0  0  0  0  0  0
    2.4992    0.1822    0.0000 C   0  0  0  0  0  0  0  0  0  0  0  0
    3.2137   -0.2303    0.0000 C   0  0  0  0  0  0  0  0  0  0  0  0
    3.2137   -1.0554    0.0000 C   0  0  0  0  0  0  0  0  0  0  0  0
    2.4992   -1.4679    0.0000 C   0  0  0  0  0  0  0  0  0  0  0  0
    1.7847   -1.0554    0.0000 C   0  0  0  0  0  0  0  0  0  0  0  0
   -4.7841    0.2620    0.0000 H   0  0  0  0  0  0  0  0  0  0  0  0
   -3.9316   -1.2148    0.0000 H   0  0  0  0  0  0  0  0  0  0  0  0
   -1.6499    2.7371    0.0000 H   0  0  0  0  0  0  0  0  0  0  0  0
   -3.3551    2.7371    0.0000 H   0  0  0  0  0  0  0  0  0  0  0  0
   -0.3587    1.2522    0.0000 H   0  0  0  0  0  0  0  0  0  0  0  0
    0.5679    0.7172    0.0000 H   0  0  0  0  0  0  0  0  0  0  0  0
    0.3555   -1.3003    0.0000 H   0  0  0  0  0  0  0  0  0  0  0  0
    1.2822   -0.7654    0.0000 H   0  0  0  0  0  0  0  0  0  0  0  0
    2.4992    1.2142    0.0000 H   0  0  0  0  0  0  0  0  0  0  0  0
    4.1074    0.2857    0.0000 H   0  0  0  0  0  0  0  0  0  0  0  0
    4.1074   -1.5714    0.0000 H   0  0  0  0  0  0  0  0  0  0  0  0
    2.4992   -2.4999    0.0000 H   0  0  0  0  0  0  0  0  0  0  0  0
    0.8910   -1.5714    0.0000 H   0  0  0  0  0  0  0  0  0  0  0  0
  1  2  1  0  0  0  0
  1 19  1  0  0  0  0
  1 20  1  0  0  0  0
  2  3  1  0  0  0  0
  2  7  2  0  0  0  0
  3  4  2  0  0  0  0
  4  5  1  0  0  0  0
  4  6  1  0  0  0  0
  5 21  1  0  0  0  0
  5 22  1  0  0  0  0
  6  8  2  0  0  0  0
  7  8  1  0  0  0  0
  8  9  1  0  0  0  0
  9 10  1  0  0  0  0
 10 11  1  0  0  0  0
 10 23  1  0  0  0  0
 10 24  1  0  0  0  0
 11 12  1  0  0  0  0
 11 25  1  0  0  0  0
 11 26  1  0  0  0  0
 12 13  1  0  0  0  0
 13 14  1  0  0  0  0
 13 18  2  0  0  0  0
 14 15  2  0  0  0  0
 14 27  1  0  0  0  0
 15 16  1  0  0  0  0
 15 28  1  0  0  0  0
 16 17  2  0  0  0  0
 16 29  1  0  0  0  0
 17 18  1  0  0  0  0
 17 30  1  0  0  0  0
 18 31  1  0  0  0  0
M  END
>  <DRUGBANK_ID>
DB08318

>  <COMMON_NAME>
6-(2-phenoxyethoxy)-1,3,5-triazine-2,4-diamine

$$$$
