
 OpenBabel10282417072D

 31 31  0  0  0  0  0  0  0  0999 V2000
   -1.0670    0.6159    0.0000 C   0  0  0  0  0  0  0  0  0  0  0  0
   -1.0670   -0.2094    0.0000 C   0  0  0  0  0  0  0  0  0  0  0  0
   -0.3540   -0.6201    0.0000 C   0  0  3  0  0  0  0  0  0  0  0  0
    0.3548   -0.2094    0.0000 C   0  0  3  0  0  0  0  0  0  0  0  0
    0.3548    0.6159    0.0000 C   0  0  0  0  0  0  0  0  0  0  0  0
   -0.3540    1.0308    0.0000 C   0  0  3  0  0  0  0  0  0  0  0  0
   -0.3540   -1.4455    0.0000 C   0  0  0  0  0  0  0  0  0  0  0  0
   -1.0695   -1.8562    0.0000 C   0  0  0  0  0  0  0  0  0  0  0  0
    0.3573   -1.8562    0.0000 C   0  0  0  0  0  0  0  0  0  0  0  0
   -0.3540    1.8562    0.0000 C   0  0  0  0  0  0  0  0  0  0  0  0
    1.0695   -0.6252    0.0000 O   0  0  0  0  0  0  0  0  0  0  0  0
   -1.9946    1.1493    0.0000 H   0  0  0  0  0  0  0  0  0  0  0  0
   -1.0697    1.6859    0.0000 H   0  0  0  0  0  0  0  0  0  0  0  0
   -1.9934   -0.7449    0.0000 H   0  0  0  0  0  0  0  0  0  0  0  0
   -1.0662   -1.2794    0.0000 H   0  0  0  0  0  0  0  0  0  0  0  0
   -1.2804   -1.1556    0.0000 H   0  0  0  0  0  0  0  0  0  0  0  0
   -0.5723    0.3249    0.0000 H   0  0  0  0  0  0  0  0  0  0  0  0
    1.2830    1.1481    0.0000 H   0  0  0  0  0  0  0  0  0  0  0  0
    0.3596    1.6859    0.0000 H   0  0  0  0  0  0  0  0  0  0  0  0
   -0.3554   -0.0392    0.0000 H   0  0  0  0  0  0  0  0  0  0  0  0
   -0.3554   -2.5155    0.0000 H   0  0  0  0  0  0  0  0  0  0  0  0
   -1.9948   -1.3189    0.0000 H   0  0  0  0  0  0  0  0  0  0  0  0
   -1.0722   -2.9262    0.0000 H   0  0  0  0  0  0  0  0  0  0  0  0
   -1.9975   -2.3889    0.0000 H   0  0  0  0  0  0  0  0  0  0  0  0
    0.3573   -2.9262    0.0000 H   0  0  0  0  0  0  0  0  0  0  0  0
    1.2840   -1.3212    0.0000 H   0  0  0  0  0  0  0  0  0  0  0  0
    1.2839   -2.3912    0.0000 H   0  0  0  0  0  0  0  0  0  0  0  0
    0.5726    2.3912    0.0000 H   0  0  0  0  0  0  0  0  0  0  0  0
   -1.2806    2.3912    0.0000 H   0  0  0  0  0  0  0  0  0  0  0  0
   -0.3540    2.9262    0.0000 H   0  0  0  0  0  0  0  0  0  0  0  0
    1.0663   -1.5952    0.0000 H   0  0  0  0  0  0  0  0  0  0  0  0
  1  2  1  0  0  0  0
  1  6  1  0  0  0  0
  1 12  1  0  0  0  0
  1 13  1  0  0  0  0
  2  3  1  0  0  0  0
  2 14  1  0  0  0  0
  2 15  1  0  0  0  0
  3  7  1  0  0  0  0
  3  4  1  0  0  0  0
  3 16  1  0  0  0  0
  4  5  1  0  0  0  0
  4 11  1  0  0  0  0
  4 17  1  0  0  0  0
  5  6  1  0  0  0  0
  5 18  1  0  0  0  0
  5 19  1  0  0  0  0
  6 10  1  0  0  0  0
  6 20  1  0  0  0  0
  7  8  1  0  0  0  0
  7  9  1  0  0  0  0
  7 21  1  0  0  0  0
  8 22  1  0  0  0  0
  8 23  1  0  0  0  0
  8 24  1  0  0  0  0
  9 25  1  0  0  0  0
  9 26  1  0  0  0  0
  9 27  1  0  0  0  0
 10 28  1  0  0  0  0
 10 29  1  0  0  0  0
 10 30  1  0  0  0  0
 11 31  1  0  0  0  0
M  END
>  <DRUGBANK_ID>
DB14123

>  <COMMON_NAME>
Menthol

>  <CAS_NUMBER>
1490-04-6

>  <UNII>
L7T10EIP3A

>  <SYNONYMS>
(+-)-Menthol; (1R,2S,5R)-Menthol; DL-menthol; Hexahydrothymol; Menthol natural; Menthol racemic; Menthol racemique; p-Menthan-3-ol; Racementhol; Racementholum; Racementol

$$$$
