959
 OpenBabel10282417072D

 28 28  0  0  0  0  0  0  0  0999 V2000
   -3.4802    0.5406    0.0000 O   0  0  0  0  0  0  0  0  0  0  0  0
   -2.7657    0.1281    0.0000 C   0  0  0  0  0  0  0  0  0  0  0  0
   -2.7657   -0.6969    0.0000 C   0  0  0  0  0  0  0  0  0  0  0  0
   -2.0513    0.5406    0.0000 C   0  0  0  0  0  0  0  0  0  0  0  0
   -1.3368    0.1281    0.0000 N   0  0  0  0  0  0  0  0  0  0  0  0
   -0.6223    0.5406    0.0000 C   0  0  0  0  0  0  0  0  0  0  0  0
   -0.6223    1.3656    0.0000 O   0  0  0  0  0  0  0  0  0  0  0  0
    0.0921    0.1281    0.0000 O   0  0  0  0  0  0  0  0  0  0  0  0
    0.8066    0.5406    0.0000 C   0  0  0  0  0  0  0  0  0  0  0  0
    1.5211    0.1281    0.0000 C   0  0  0  0  0  0  0  0  0  0  0  0
    2.2356    0.5406    0.0000 C   0  0  0  0  0  0  0  0  0  0  0  0
    2.9500    0.1281    0.0000 C   0  0  0  0  0  0  0  0  0  0  0  0
    2.9500   -0.6969    0.0000 C   0  0  0  0  0  0  0  0  0  0  0  0
    2.2356   -1.1094    0.0000 C   0  0  0  0  0  0  0  0  0  0  0  0
    1.5211   -0.6969    0.0000 C   0  0  0  0  0  0  0  0  0  0  0  0
   -3.6923   -1.2319    0.0000 H   0  0  0  0  0  0  0  0  0  0  0  0
   -1.8391   -1.2319    0.0000 H   0  0  0  0  0  0  0  0  0  0  0  0
   -2.7657   -1.7669    0.0000 H   0  0  0  0  0  0  0  0  0  0  0  0
   -2.0513    1.6106    0.0000 H   0  0  0  0  0  0  0  0  0  0  0  0
   -1.1247    1.0756    0.0000 H   0  0  0  0  0  0  0  0  0  0  0  0
   -1.3368   -0.8564    0.0000 H   0  0  0  0  0  0  0  0  0  0  0  0
    0.8066    1.6106    0.0000 H   0  0  0  0  0  0  0  0  0  0  0  0
    1.7332    1.0756    0.0000 H   0  0  0  0  0  0  0  0  0  0  0  0
    2.2356    1.5726    0.0000 H   0  0  0  0  0  0  0  0  0  0  0  0
    3.8437    0.6441    0.0000 H   0  0  0  0  0  0  0  0  0  0  0  0
    3.8437   -1.2129    0.0000 H   0  0  0  0  0  0  0  0  0  0  0  0
    2.2356   -2.1414    0.0000 H   0  0  0  0  0  0  0  0  0  0  0  0
    0.6274   -1.2129    0.0000 H   0  0  0  0  0  0  0  0  0  0  0  0
  1  2  2  0  0  0  0
  2  3  1  0  0  0  0
  2  4  1  0  0  0  0
  3 16  1  0  0  0  0
  3 17  1  0  0  0  0
  3 18  1  0  0  0  0
  4  5  1  0  0  0  0
  4 19  1  0  0  0  0
  4 20  1  0  0  0  0
  5  6  1  0  0  0  0
  5 21  1  0  0  0  0
  6  7  2  0  0  0  0
  6  8  1  0  0  0  0
  8  9  1  0  0  0  0
  9 10  1  0  0  0  0
  9 22  1  0  0  0  0
  9 23  1  0  0  0  0
 10 11  2  0  0  0  0
 10 15  1  0  0  0  0
 11 12  1  0  0  0  0
 11 24  1  0  0  0  0
 12 13  2  0  0  0  0
 12 25  1  0  0  0  0
 13 14  1  0  0  0  0
 13 26  1  0  0  0  0
 14 15  2  0  0  0  0
 14 27  1  0  0  0  0
 15 28  1  0  0  0  0
M  END
>  <DRUGBANK_ID>
DB07293

>  <COMMON_NAME>
benzyl (2-oxopropyl)carbamate

>  <UNII>
UAZ6B2TP7B

$$$$
