
 OpenBabel10282417072D

 35 36  0  0  0  0  0  0  0  0999 V2000
   -1.8551    0.0000    0.0000 C   0  0  0  0  0  0  0  0  0  0  0  0
   -1.8551   -0.8250    0.0000 C   0  0  0  0  0  0  0  0  0  0  0  0
   -1.1405   -1.2376    0.0000 C   0  0  0  0  0  0  0  0  0  0  0  0
   -0.4260   -0.8250    0.0000 C   0  0  0  0  0  0  0  0  0  0  0  0
   -0.4260    0.0000    0.0000 C   0  0  0  0  0  0  0  0  0  0  0  0
   -1.1405    0.4126    0.0000 C   0  0  0  0  0  0  0  0  0  0  0  0
   -2.6398    0.2549    0.0000 O   0  0  0  0  0  0  0  0  0  0  0  0
   -3.1248   -0.4124    0.0000 C   0  0  0  0  0  0  0  0  0  0  0  0
   -2.6398   -1.0799    0.0000 O   0  0  0  0  0  0  0  0  0  0  0  0
    0.2995    0.4191    0.0000 C   0  0  0  0  0  0  0  0  0  0  0  0
    1.0098    0.0090    0.0000 C   0  0  0  0  0  0  0  0  0  0  0  0
    1.7066    0.4114    0.0000 C   0  0  3  0  0  0  0  0  0  0  0  0
    2.4103    0.0052    0.0000 C   0  0  0  0  0  0  0  0  0  0  0  0
    1.7066    1.2376    0.0000 O   0  0  0  0  0  0  0  0  0  0  0  0
    3.1248   -0.4072    0.0000 C   0  0  0  0  0  0  0  0  0  0  0  0
    1.9916   -0.7202    0.0000 C   0  0  0  0  0  0  0  0  0  0  0  0
    2.8163    0.7089    0.0000 C   0  0  0  0  0  0  0  0  0  0  0  0
   -1.1405   -2.2696    0.0000 H   0  0  0  0  0  0  0  0  0  0  0  0
    0.4678   -1.3410    0.0000 H   0  0  0  0  0  0  0  0  0  0  0  0
   -1.1405    1.4446    0.0000 H   0  0  0  0  0  0  0  0  0  0  0  0
   -4.1948   -0.4123    0.0000 H   0  0  0  0  0  0  0  0  0  0  0  0
   -3.6106   -1.3658    0.0000 H   0  0  0  0  0  0  0  0  0  0  0  0
    0.2994    1.4511    0.0000 H   0  0  0  0  0  0  0  0  0  0  0  0
    1.0099   -1.0230    0.0000 H   0  0  0  0  0  0  0  0  0  0  0  0
    1.7067   -0.6586    0.0000 H   0  0  0  0  0  0  0  0  0  0  0  0
    2.5466    1.7226    0.0000 H   0  0  0  0  0  0  0  0  0  0  0  0
    3.1249   -1.4772    0.0000 H   0  0  0  0  0  0  0  0  0  0  0  0
    4.0514    0.1279    0.0000 H   0  0  0  0  0  0  0  0  0  0  0  0
    4.0515   -0.9421    0.0000 H   0  0  0  0  0  0  0  0  0  0  0  0
    0.9216   -0.7203    0.0000 H   0  0  0  0  0  0  0  0  0  0  0  0
    2.5267   -1.6468    0.0000 H   0  0  0  0  0  0  0  0  0  0  0  0
    1.4567   -1.6469    0.0000 H   0  0  0  0  0  0  0  0  0  0  0  0
    3.8863    0.7092    0.0000 H   0  0  0  0  0  0  0  0  0  0  0  0
    2.2810    1.6354    0.0000 H   0  0  0  0  0  0  0  0  0  0  0  0
    3.3510    1.6357    0.0000 H   0  0  0  0  0  0  0  0  0  0  0  0
  1  2  2  0  0  0  0
  1  6  1  0  0  0  0
  1  7  1  0  0  0  0
  2  3  1  0  0  0  0
  2  9  1  0  0  0  0
  3  4  2  0  0  0  0
  3 18  1  0  0  0  0
  4  5  1  0  0  0  0
  4 19  1  0  0  0  0
  5  6  2  0  0  0  0
  5 10  1  0  0  0  0
  6 20  1  0  0  0  0
  7  8  1  0  0  0  0
  8  9  1  0  0  0  0
  8 21  1  0  0  0  0
  8 22  1  0  0  0  0
 10 11  2  0  0  0  0
 10 23  1  0  0  0  0
 11 12  1  0  0  0  0
 11 24  1  0  0  0  0
 12 13  1  0  0  0  0
 12 14  1  0  0  0  0
 12 25  1  0  0  0  0
 13 15  1  0  0  0  0
 13 16  1  0  0  0  0
 13 17  1  0  0  0  0
 14 26  1  0  0  0  0
 15 27  1  0  0  0  0
 15 28  1  0  0  0  0
 15 29  1  0  0  0  0
 16 30  1  0  0  0  0
 16 31  1  0  0  0  0
 16 32  1  0  0  0  0
 17 33  1  0  0  0  0
 17 34  1  0  0  0  0
 17 35  1  0  0  0  0
M  END
>  <DRUGBANK_ID>
DB09118

>  <COMMON_NAME>
Stiripentol

>  <CAS_NUMBER>
49763-96-4

>  <UNII>
R02XOT8V8I

>  <SYNONYMS>
1-(1,3-Benzodioxol-5-yl)-4,4-dimethyl-1-penten-3-ol; 4,4-Dimethyl-1-((3,4-methylenedioxy)phenyl)-1-penten-3-ol; Estiripentol; Stiripentol; Stiripentolum

$$$$
