
 OpenBabel10282417072D

 54 55  0  0  0  0  0  0  0  0999 V2000
   -1.7361   -0.6195    0.0000 N   0  0  0  0  0  0  0  0  0  0  0  0
   -1.0127   -0.2036    0.0000 C   0  0  0  0  0  0  0  0  0  0  0  0
   -1.0127    0.6236    0.0000 N   0  0  0  0  0  0  0  0  0  0  0  0
   -1.7361   -1.7921    0.0000 C   0  0  2  0  0  0  0  0  0  0  0  0
   -2.4389   -0.2036    0.0000 C   0  0  0  0  0  0  0  0  0  0  0  0
   -2.4389    0.6236    0.0000 N   0  0  0  0  0  0  0  0  0  0  0  0
   -1.7278    1.0353    0.0000 C   0  0  0  0  0  0  0  0  0  0  0  0
   -2.5220   -1.3471    0.0000 O   0  0  0  0  0  0  0  0  0  0  0  0
   -2.0397   -2.3950    0.0000 C   0  0  0  0  0  0  0  0  0  0  0  0
   -3.0210   -2.3950    0.0000 C   0  0  1  0  0  0  0  0  0  0  0  0
   -3.3121   -1.7961    0.0000 C   0  0  1  0  0  0  0  0  0  0  0  0
   -3.4586   -3.0944    0.0000 O   0  0  0  0  0  0  0  0  0  0  0  0
   -0.3015   -0.6195    0.0000 O   0  0  0  0  0  0  0  0  0  0  0  0
   -1.7278    1.8586    0.0000 N   0  0  0  0  0  0  0  0  0  0  0  0
   -4.1000   -1.5518    0.0000 C   0  0  0  0  0  0  0  0  0  0  0  0
   -4.7058   -2.1120    0.0000 O   0  0  0  0  0  0  0  0  0  0  0  0
   -1.0102    2.2692    0.0000 C   0  0  0  0  0  0  0  0  0  0  0  0
   -1.0102    3.0944    0.0000 O   0  0  0  0  0  0  0  0  0  0  0  0
   -0.2958    1.8567    0.0000 O   0  0  0  0  0  0  0  0  0  0  0  0
    0.4187    2.2692    0.0000 C   0  0  0  0  0  0  0  0  0  0  0  0
    1.1332    1.8567    0.0000 C   0  0  0  0  0  0  0  0  0  0  0  0
    1.8477    2.2692    0.0000 C   0  0  0  0  0  0  0  0  0  0  0  0
    2.5623    1.8567    0.0000 C   0  0  0  0  0  0  0  0  0  0  0  0
    3.2768    2.2692    0.0000 C   0  0  0  0  0  0  0  0  0  0  0  0
    3.9913    1.8567    0.0000 C   0  0  0  0  0  0  0  0  0  0  0  0
    4.7058    2.2692    0.0000 C   0  0  0  0  0  0  0  0  0  0  0  0
   -2.2750   -0.8677    0.0000 H   0  0  0  0  0  0  0  0  0  0  0  0
   -3.3684   -0.7336    0.0000 H   0  0  0  0  0  0  0  0  0  0  0  0
   -3.3641    0.3339    0.0000 H   0  0  0  0  0  0  0  0  0  0  0  0
   -3.2918    1.1153    0.0000 H   0  0  0  0  0  0  0  0  0  0  0  0
   -1.4785   -3.3060    0.0000 H   0  0  0  0  0  0  0  0  0  0  0  0
   -2.5614   -3.3292    0.0000 H   0  0  0  0  0  0  0  0  0  0  0  0
   -2.5025   -3.3310    0.0000 H   0  0  0  0  0  0  0  0  0  0  0  0
   -3.4275   -0.7323    0.0000 H   0  0  0  0  0  0  0  0  0  0  0  0
   -4.4280   -3.0600    0.0000 H   0  0  0  0  0  0  0  0  0  0  0  0
   -2.5794    2.3525    0.0000 H   0  0  0  0  0  0  0  0  0  0  0  0
   -4.3365   -0.5083    0.0000 H   0  0  0  0  0  0  0  0  0  0  0  0
   -5.1219   -1.2347    0.0000 H   0  0  0  0  0  0  0  0  0  0  0  0
   -5.6322   -1.8245    0.0000 H   0  0  0  0  0  0  0  0  0  0  0  0
    0.4187    3.3392    0.0000 H   0  0  0  0  0  0  0  0  0  0  0  0
    1.3453    2.8042    0.0000 H   0  0  0  0  0  0  0  0  0  0  0  0
    1.1332    0.7867    0.0000 H   0  0  0  0  0  0  0  0  0  0  0  0
    2.0598    1.3217    0.0000 H   0  0  0  0  0  0  0  0  0  0  0  0
    1.8477    3.3392    0.0000 H   0  0  0  0  0  0  0  0  0  0  0  0
    2.7743    2.8043    0.0000 H   0  0  0  0  0  0  0  0  0  0  0  0
    2.5623    0.7867    0.0000 H   0  0  0  0  0  0  0  0  0  0  0  0
    3.4890    1.3217    0.0000 H   0  0  0  0  0  0  0  0  0  0  0  0
    3.2768    3.3392    0.0000 H   0  0  0  0  0  0  0  0  0  0  0  0
    4.2034    2.8042    0.0000 H   0  0  0  0  0  0  0  0  0  0  0  0
    3.9913    0.7867    0.0000 H   0  0  0  0  0  0  0  0  0  0  0  0
    4.9179    1.3217    0.0000 H   0  0  0  0  0  0  0  0  0  0  0  0
    5.6324    1.7342    0.0000 H   0  0  0  0  0  0  0  0  0  0  0  0
    4.7058    3.3392    0.0000 H   0  0  0  0  0  0  0  0  0  0  0  0
    5.6325    2.8042    0.0000 H   0  0  0  0  0  0  0  0  0  0  0  0
  2  1  1  0  0  0  0
  3  2  1  0  0  0  0
  3  7  2  0  0  0  0
  4  1  1  0  0  0  0
  4 27  1  6  0  0  0
  5  1  1  0  0  0  0
  5 28  1  0  0  0  0
  5 29  1  0  0  0  0
  6  5  1  0  0  0  0
  6 30  1  0  0  0  0
  7  6  1  0  0  0  0
  8  4  1  0  0  0  0
  9  4  1  0  0  0  0
  9 31  1  0  0  0  0
  9 32  1  0  0  0  0
 10  9  1  0  0  0  0
 10 12  1  0  0  0  0
 10 33  1  1  0  0  0
 11  8  1  0  0  0  0
 11 15  1  0  0  0  0
 11 10  1  0  0  0  0
 11 34  1  6  0  0  0
 12 35  1  0  0  0  0
 13  2  2  0  0  0  0
 14  7  1  0  0  0  0
 14 17  1  0  0  0  0
 14 36  1  0  0  0  0
 15 37  1  0  0  0  0
 15 38  1  0  0  0  0
 16 15  1  0  0  0  0
 16 39  1  0  0  0  0
 17 18  2  0  0  0  0
 17 19  1  0  0  0  0
 19 20  1  0  0  0  0
 20 21  1  0  0  0  0
 20 40  1  0  0  0  0
 20 41  1  0  0  0  0
 21 22  1  0  0  0  0
 21 42  1  0  0  0  0
 21 43  1  0  0  0  0
 22 23  1  0  0  0  0
 22 44  1  0  0  0  0
 22 45  1  0  0  0  0
 23 24  1  0  0  0  0
 23 46  1  0  0  0  0
 23 47  1  0  0  0  0
 24 25  1  0  0  0  0
 24 48  1  0  0  0  0
 24 49  1  0  0  0  0
 25 26  1  0  0  0  0
 25 50  1  0  0  0  0
 25 51  1  0  0  0  0
 26 52  1  0  0  0  0
 26 53  1  0  0  0  0
 26 54  1  0  0  0  0
M  END
>  <DRUGBANK_ID>
DB05644

>  <COMMON_NAME>
KP-1461

>  <CAS_NUMBER>
815588-85-3

>  <UNII>
3PEN569TJP

$$$$
