
 OpenBabel10282417072D

 72 75  0  0  1  0  0  0  0  0999 V2000
   -2.1190   -1.1952    0.0000 C   0  0  0  0  0  0  0  0  0  0  0  0
   -1.7065   -0.4807    0.0000 N   0  0  0  0  0  0  0  0  0  0  0  0
   -2.0420    0.2730    0.0000 N   0  0  0  0  0  0  0  0  0  0  0  0
   -1.4289    0.8250    0.0000 C   0  0  0  0  0  0  0  0  0  0  0  0
   -1.4289    1.6500    0.0000 C   0  0  0  0  0  0  0  0  0  0  0  0
   -0.7145    2.0625    0.0000 C   0  0  0  0  0  0  0  0  0  0  0  0
    0.0000    1.6500    0.0000 N   0  0  0  0  0  0  0  0  0  0  0  0
    0.0000    0.8250    0.0000 C   0  0  0  0  0  0  0  0  0  0  0  0
   -0.7145    0.4125    0.0000 C   0  0  2  0  0  0  0  0  0  0  0  0
   -0.0470   -0.0724    0.0000 C   0  0  0  0  0  0  0  0  0  0  0  0
    0.7066    0.2631    0.0000 C   0  0  0  0  0  0  0  0  0  0  0  0
    0.7929    1.0836    0.0000 C   0  0  0  0  0  0  0  0  0  0  0  0
    1.5164    1.3065    0.0000 C   0  0  0  0  0  0  0  0  0  0  0  0
    2.2140    0.9343    0.0000 C   0  0  0  0  0  0  0  0  0  0  0  0
    2.1278    0.1138    0.0000 C   0  0  0  0  0  0  0  0  0  0  0  0
    1.3741   -0.2218    0.0000 C   0  0  0  0  0  0  0  0  0  0  0  0
   -0.8860   -0.3945    0.0000 C   0  0  0  0  0  0  0  0  0  0  0  0
   -0.3340   -1.0076    0.0000 O   0  0  0  0  0  0  0  0  0  0  0  0
    0.7145    2.0625    0.0000 C   0  0  0  0  0  0  0  0  0  0  0  0
    0.7145    2.8875    0.0000 O   0  0  0  0  0  0  0  0  0  0  0  0
    1.4289    1.6500    0.0000 C   0  0  1  0  0  0  0  0  0  0  0  0
    2.1434    2.0625    0.0000 C   0  0  0  0  0  0  0  0  0  0  0  0
    2.8579    1.6500    0.0000 O   0  0  0  0  0  0  0  0  0  0  0  0
    3.5724    2.0625    0.0000 C   0  0  0  0  0  0  0  0  0  0  0  0
    4.2868    1.6500    0.0000 C   0  0  0  0  0  0  0  0  0  0  0  0
    5.0013    2.0625    0.0000 C   0  0  0  0  0  0  0  0  0  0  0  0
    5.7158    1.6500    0.0000 C   0  0  0  0  0  0  0  0  0  0  0  0
    5.7158    0.8250    0.0000 C   0  0  0  0  0  0  0  0  0  0  0  0
    5.0013    0.4125    0.0000 C   0  0  0  0  0  0  0  0  0  0  0  0
    4.2868    0.8250    0.0000 C   0  0  0  0  0  0  0  0  0  0  0  0
    1.4289    0.8250    0.0000 N   0  0  0  0  0  0  0  0  0  0  0  0
    2.1434    0.4125    0.0000 C   0  0  0  0  0  0  0  0  0  0  0  0
    2.1434   -0.4125    0.0000 O   0  0  0  0  0  0  0  0  0  0  0  0
    2.8579    0.8250    0.0000 C   0  0  0  0  0  0  0  0  0  0  0  0
    3.2704    0.1105    0.0000 C   0  0  0  0  0  0  0  0  0  0  0  0
    2.4454    1.5395    0.0000 C   0  0  0  0  0  0  0  0  0  0  0  0
    3.5724    1.2375    0.0000 N   0  0  0  0  0  0  0  0  0  0  0  0
   -3.1890   -1.1952    0.0000 H   0  0  0  0  0  0  0  0  0  0  0  0
   -1.5840   -2.1218    0.0000 H   0  0  0  0  0  0  0  0  0  0  0  0
   -2.6540   -2.1219    0.0000 H   0  0  0  0  0  0  0  0  0  0  0  0
   -2.3556    2.1850    0.0000 H   0  0  0  0  0  0  0  0  0  0  0  0
   -1.4289    2.7200    0.0000 H   0  0  0  0  0  0  0  0  0  0  0  0
   -0.7145    3.1325    0.0000 H   0  0  0  0  0  0  0  0  0  0  0  0
    0.2121    2.5975    0.0000 H   0  0  0  0  0  0  0  0  0  0  0  0
    0.9266    0.2900    0.0000 H   0  0  0  0  0  0  0  0  0  0  0  0
   -0.0000   -0.2450    0.0000 H   0  0  0  0  0  0  0  0  0  0  0  0
   -0.1588   -1.1365    0.0000 H   0  0  0  0  0  0  0  0  0  0  0  0
    0.8186   -0.7013    0.0000 H   0  0  0  0  0  0  0  0  0  0  0  0
   -0.0041    1.7392    0.0000 H   0  0  0  0  0  0  0  0  0  0  0  0
    1.6149    2.3338    0.0000 H   0  0  0  0  0  0  0  0  0  0  0  0
    3.1255    1.4182    0.0000 H   0  0  0  0  0  0  0  0  0  0  0  0
    2.9627   -0.4928    0.0000 H   0  0  0  0  0  0  0  0  0  0  0  0
    1.2663   -1.2482    0.0000 H   0  0  0  0  0  0  0  0  0  0  0  0
    0.5022    1.1150    0.0000 H   0  0  0  0  0  0  0  0  0  0  0  0
    2.1434    3.1325    0.0000 H   0  0  0  0  0  0  0  0  0  0  0  0
    3.0700    2.5975    0.0000 H   0  0  0  0  0  0  0  0  0  0  0  0
    3.5724    3.1325    0.0000 H   0  0  0  0  0  0  0  0  0  0  0  0
    4.4991    2.5975    0.0000 H   0  0  0  0  0  0  0  0  0  0  0  0
    5.0013    3.0945    0.0000 H   0  0  0  0  0  0  0  0  0  0  0  0
    6.6095    2.1660    0.0000 H   0  0  0  0  0  0  0  0  0  0  0  0
    6.6095    0.3090    0.0000 H   0  0  0  0  0  0  0  0  0  0  0  0
    5.0013   -0.6195    0.0000 H   0  0  0  0  0  0  0  0  0  0  0  0
    3.3931    0.3090    0.0000 H   0  0  0  0  0  0  0  0  0  0  0  0
    0.5763    0.3327    0.0000 H   0  0  0  0  0  0  0  0  0  0  0  0
    2.7354   -0.8161    0.0000 H   0  0  0  0  0  0  0  0  0  0  0  0
    4.3404    0.1105    0.0000 H   0  0  0  0  0  0  0  0  0  0  0  0
    3.8054   -0.8162    0.0000 H   0  0  0  0  0  0  0  0  0  0  0  0
    2.9804    2.4661    0.0000 H   0  0  0  0  0  0  0  0  0  0  0  0
    1.3754    1.5395    0.0000 H   0  0  0  0  0  0  0  0  0  0  0  0
    1.9104    2.4662    0.0000 H   0  0  0  0  0  0  0  0  0  0  0  0
    4.4557    0.7275    0.0000 H   0  0  0  0  0  0  0  0  0  0  0  0
    3.5724    2.2575    0.0000 H   0  0  0  0  0  0  0  0  0  0  0  0
  1  2  1  0  0  0  0
  1 38  1  0  0  0  0
  1 39  1  0  0  0  0
  1 40  1  0  0  0  0
  2  3  1  0  0  0  0
  2 17  1  0  0  0  0
  3  4  2  0  0  0  0
  4  5  1  0  0  0  0
  5  6  1  0  0  0  0
  5 41  1  0  0  0  0
  5 42  1  0  0  0  0
  6  7  1  0  0  0  0
  6 43  1  0  0  0  0
  6 44  1  0  0  0  0
  7  8  1  0  0  0  0
  7 19  1  0  0  0  0
  8 45  1  0  0  0  0
  8 46  1  0  0  0  0
  9  8  1  0  0  0  0
  9  4  1  0  0  0  0
  9 10  1  6  0  0  0
  9 17  1  0  0  0  0
 10 11  1  0  0  0  0
 10 47  1  0  0  0  0
 10 48  1  0  0  0  0
 11 12  2  0  0  0  0
 11 16  1  0  0  0  0
 12 13  1  0  0  0  0
 12 49  1  0  0  0  0
 13 14  2  0  0  0  0
 13 50  1  0  0  0  0
 14 15  1  0  0  0  0
 14 51  1  0  0  0  0
 15 16  2  0  0  0  0
 15 52  1  0  0  0  0
 16 53  1  0  0  0  0
 17 18  2  0  0  0  0
 19 20  2  0  0  0  0
 21 19  1  0  0  0  0
 21 22  1  0  0  0  0
 21 31  1  0  0  0  0
 21 54  1  6  0  0  0
 22 23  1  0  0  0  0
 22 55  1  0  0  0  0
 22 56  1  0  0  0  0
 23 24  1  0  0  0  0
 24 25  1  0  0  0  0
 24 57  1  0  0  0  0
 24 58  1  0  0  0  0
 25 26  2  0  0  0  0
 25 30  1  0  0  0  0
 26 27  1  0  0  0  0
 26 59  1  0  0  0  0
 27 28  2  0  0  0  0
 27 60  1  0  0  0  0
 28 29  1  0  0  0  0
 28 61  1  0  0  0  0
 29 30  2  0  0  0  0
 29 62  1  0  0  0  0
 30 63  1  0  0  0  0
 31 32  1  0  0  0  0
 31 64  1  0  0  0  0
 32 33  2  0  0  0  0
 32 34  1  0  0  0  0
 34 35  1  0  0  0  0
 34 36  1  0  0  0  0
 34 37  1  0  0  0  0
 35 65  1  0  0  0  0
 35 66  1  0  0  0  0
 35 67  1  0  0  0  0
 36 68  1  0  0  0  0
 36 69  1  0  0  0  0
 36 70  1  0  0  0  0
 37 71  1  0  0  0  0
 37 72  1  0  0  0  0
M  END
>  <DRUGBANK_ID>
DB15205

>  <COMMON_NAME>
Capromorelin

>  <CAS_NUMBER>
193273-66-4

>  <UNII>
0MQ44VUN84

>  <SYNONYMS>
Capromorelin; CP-424,391

$$$$
