701
 OpenBabel10282417072D

 53 55  0  0  0  0  0  0  0  0999 V2000
    1.3071    3.4319    0.0000 Cl  0  0  0  0  0  0  0  0  0  0  0  0
    1.3071    2.6069    0.0000 C   0  0  0  0  0  0  0  0  0  0  0  0
    1.9745    2.1220    0.0000 C   0  0  0  0  0  0  0  0  0  0  0  0
    1.7196    1.3373    0.0000 C   0  0  0  0  0  0  0  0  0  0  0  0
    0.8946    1.3373    0.0000 C   0  0  0  0  0  0  0  0  0  0  0  0
    0.4096    0.6699    0.0000 C   0  0  0  0  0  0  0  0  0  0  0  0
    0.7452   -0.0838    0.0000 C   0  0  0  0  0  0  0  0  0  0  0  0
   -0.8958    0.0887    0.0000 S   0  0  0  0  0  0  0  0  0  0  0  0
   -1.5632    0.5736    0.0000 O   0  0  0  0  0  0  0  0  0  0  0  0
   -0.2283   -0.3962    0.0000 O   0  0  0  0  0  0  0  0  0  0  0  0
   -1.3807   -0.5787    0.0000 N   0  0  0  0  0  0  0  0  0  0  0  0
   -1.0451   -1.3324    0.0000 C   0  0  1  0  0  0  0  0  0  0  0  0
   -0.2382   -1.5039    0.0000 C   0  0  0  0  0  0  0  0  0  0  0  0
   -0.1519   -2.3244    0.0000 C   0  0  0  0  0  0  0  0  0  0  0  0
   -1.4576   -2.0469    0.0000 C   0  0  0  0  0  0  0  0  0  0  0  0
   -2.2781   -2.1331    0.0000 O   0  0  0  0  0  0  0  0  0  0  0  0
   -0.9056   -2.6600    0.0000 N   0  0  0  0  0  0  0  0  0  0  0  0
   -1.0771   -3.4669    0.0000 C   0  0  1  0  0  0  0  0  0  0  0  0
   -1.8618   -3.7219    0.0000 C   0  0  0  0  0  0  0  0  0  0  0  0
   -0.4640   -4.0190    0.0000 C   0  0  0  0  0  0  0  0  0  0  0  0
    0.3206   -3.7640    0.0000 O   0  0  0  0  0  0  0  0  0  0  0  0
   -0.6356   -4.8259    0.0000 N   0  0  0  0  0  0  0  0  0  0  0  0
   -0.0225   -5.3780    0.0000 C   0  0  0  0  0  0  0  0  0  0  0  0
   -0.1940   -6.1850    0.0000 C   0  0  0  0  0  0  0  0  0  0  0  0
   -0.9786   -6.4399    0.0000 O   0  0  0  0  0  0  0  0  0  0  0  0
   -1.5917   -5.8879    0.0000 C   0  0  0  0  0  0  0  0  0  0  0  0
   -1.4202   -5.0809    0.0000 C   0  0  0  0  0  0  0  0  0  0  0  0
    0.6396    2.1220    0.0000 S   0  0  0  0  0  0  0  0  0  0  0  0
   -0.4108    0.7561    0.0000 C   0  0  0  0  0  0  0  0  0  0  0  0
   -0.6777   -0.8786    0.0000 H   0  0  0  0  0  0  0  0  0  0  0  0
   -1.5111   -3.0762    0.0000 H   0  0  0  0  0  0  0  0  0  0  0  0
    2.9560    2.4409    0.0000 H   0  0  0  0  0  0  0  0  0  0  0  0
    2.3262    0.5024    0.0000 H   0  0  0  0  0  0  0  0  0  0  0  0
    0.1163   -0.9495    0.0000 H   0  0  0  0  0  0  0  0  0  0  0  0
    1.8093   -0.1956    0.0000 H   0  0  0  0  0  0  0  0  0  0  0  0
    1.1804   -1.0613    0.0000 H   0  0  0  0  0  0  0  0  0  0  0  0
   -2.3951   -0.4721    0.0000 H   0  0  0  0  0  0  0  0  0  0  0  0
    0.5569   -0.7879    0.0000 H   0  0  0  0  0  0  0  0  0  0  0  0
    0.7608   -1.8873    0.0000 H   0  0  0  0  0  0  0  0  0  0  0  0
    0.7748   -2.8593    0.0000 H   0  0  0  0  0  0  0  0  0  0  0  0
   -0.2079   -3.3929    0.0000 H   0  0  0  0  0  0  0  0  0  0  0  0
   -2.6570   -3.0060    0.0000 H   0  0  0  0  0  0  0  0  0  0  0  0
   -2.0842   -4.7685    0.0000 H   0  0  0  0  0  0  0  0  0  0  0  0
   -2.8794   -4.0526    0.0000 H   0  0  0  0  0  0  0  0  0  0  0  0
    0.9951   -5.0474    0.0000 H   0  0  0  0  0  0  0  0  0  0  0  0
    0.7727   -6.0940    0.0000 H   0  0  0  0  0  0  0  0  0  0  0  0
    0.6012   -6.9010    0.0000 H   0  0  0  0  0  0  0  0  0  0  0  0
   -0.4165   -7.2316    0.0000 H   0  0  0  0  0  0  0  0  0  0  0  0
   -2.6093   -6.2186    0.0000 H   0  0  0  0  0  0  0  0  0  0  0  0
   -2.3869   -5.1720    0.0000 H   0  0  0  0  0  0  0  0  0  0  0  0
   -2.2154   -4.3650    0.0000 H   0  0  0  0  0  0  0  0  0  0  0  0
   -2.4378   -5.4116    0.0000 H   0  0  0  0  0  0  0  0  0  0  0  0
   -0.8305    1.6989    0.0000 H   0  0  0  0  0  0  0  0  0  0  0  0
  1  2  1  0  0  0  0
  2  3  2  0  0  0  0
  2 28  1  0  0  0  0
  3  4  1  0  0  0  0
  3 32  1  0  0  0  0
  4  5  2  0  0  0  0
  4 33  1  0  0  0  0
  5  6  1  0  0  0  0
  5 28  1  0  0  0  0
  6  7  1  0  0  0  0
  6 29  2  0  0  0  0
  7 34  1  0  0  0  0
  7 35  1  0  0  0  0
  7 36  1  0  0  0  0
  8  9  2  0  0  0  0
  8 10  2  0  0  0  0
  8 11  1  0  0  0  0
  8 29  1  0  0  0  0
 11 37  1  0  0  0  0
 12 11  1  0  0  0  0
 12 13  1  0  0  0  0
 12 15  1  0  0  0  0
 12 30  1  6  0  0  0
 13 14  1  0  0  0  0
 13 38  1  0  0  0  0
 13 39  1  0  0  0  0
 14 17  1  0  0  0  0
 14 40  1  0  0  0  0
 14 41  1  0  0  0  0
 15 16  2  0  0  0  0
 15 17  1  0  0  0  0
 17 18  1  0  0  0  0
 18 19  1  0  0  0  0
 18 20  1  0  0  0  0
 18 31  1  1  0  0  0
 19 42  1  0  0  0  0
 19 43  1  0  0  0  0
 19 44  1  0  0  0  0
 20 21  2  0  0  0  0
 20 22  1  0  0  0  0
 22 23  1  0  0  0  0
 22 27  1  0  0  0  0
 23 24  1  0  0  0  0
 23 45  1  0  0  0  0
 23 46  1  0  0  0  0
 24 25  1  0  0  0  0
 24 47  1  0  0  0  0
 24 48  1  0  0  0  0
 25 26  1  0  0  0  0
 26 27  1  0  0  0  0
 26 49  1  0  0  0  0
 26 50  1  0  0  0  0
 27 51  1  0  0  0  0
 27 52  1  0  0  0  0
 29 53  1  0  0  0  0
M  END
>  <DRUGBANK_ID>
DB07211

>  <COMMON_NAME>
(2R)-2-(5-CHLORO-2-THIENYL)-N-{(3S)-1-[(1S)-1-METHYL-2-MORPHOLIN-4-YL-2-OXOETHYL]-2-OXOPYRROLIDIN-3-YL}PROPENE-1-SULFONAMIDE

$$$$
