
 OpenBabel10282417072D

 97100  0  0  1  0  0  0  0  0999 V2000
   17.5301   -5.5000    0.0000 O   0  0  0  0  0  0  0  0  0  0  0  0
   16.8157   -6.7375    0.0000 O   0  0  0  0  0  0  0  0  0  0  0  0
   14.6722   -5.5000    0.0000 O   0  0  0  0  0  0  0  0  0  0  0  0
   20.3880   -7.1500    0.0000 O   0  0  0  0  0  0  0  0  0  0  0  0
   19.6736   -5.9125    0.0000 O   0  0  0  0  0  0  0  0  0  0  0  0
   22.5316   -5.9125    0.0000 O   0  0  0  0  0  0  0  0  0  0  0  0
   14.6722   -7.1500    0.0000 O   0  0  0  0  0  0  0  0  0  0  0  0
   13.9577   -6.7375    0.0000 O   0  0  0  0  0  0  0  0  0  0  0  0
   17.5301   -7.1500    0.0000 O   0  0  0  0  0  0  0  0  0  0  0  0
   18.9591   -7.9750    0.0000 O   0  0  0  0  0  0  0  0  0  0  0  0
   20.3880   -5.5000    0.0000 O   0  0  0  0  0  0  0  0  0  0  0  0
   13.2432   -4.6750    0.0000 O   0  0  0  0  0  0  0  0  0  0  0  0
   23.2460   -7.1500    0.0000 O   0  0  0  0  0  0  0  0  0  0  0  0
   16.8157   -8.3875    0.0000 O   0  0  0  0  0  0  0  0  0  0  0  0
   11.8142   -5.5000    0.0000 O   0  0  0  0  0  0  0  0  0  0  0  0
   11.8142   -7.1500    0.0000 O   0  0  0  0  0  0  0  0  0  0  0  0
   19.6736   -4.2625    0.0000 O   0  0  0  0  0  0  0  0  0  0  0  0
   22.5316   -4.2625    0.0000 O   0  0  0  0  0  0  0  0  0  0  0  0
   18.2447   -4.2625    0.0000 O   0  0  0  0  0  0  0  0  0  0  0  0
   17.5301   -4.6750    0.0000 O   0  0  0  0  0  0  0  0  0  0  0  0
   12.5288   -8.3875    0.0000 O   0  0  0  0  0  0  0  0  0  0  0  0
   13.9577   -8.3875    0.0000 O   0  0  0  0  0  0  0  0  0  0  0  0
   22.5316   -9.2126    0.0000 O   0  0  0  0  0  0  0  0  0  0  0  0
   16.1012   -4.6750    0.0000 N   0  0  0  0  0  0  0  0  0  0  0  0
   21.8171   -7.9750    0.0000 N   0  0  0  0  0  0  0  0  0  0  0  0
   15.3867   -5.9125    0.0000 C   0  0  3  0  0  0  0  0  0  0  0  0
   16.1012   -5.5000    0.0000 C   0  0  2  0  0  0  0  0  0  0  0  0
   16.8157   -5.9125    0.0000 C   0  0  2  0  0  0  0  0  0  0  0  0
   15.3867   -6.7375    0.0000 C   0  0  1  0  0  0  0  0  0  0  0  0
   18.2447   -5.9125    0.0000 C   0  0  1  0  0  0  0  0  0  0  0  0
   16.1012   -7.1500    0.0000 C   0  0  1  0  0  0  0  0  0  0  0  0
   18.2447   -6.7375    0.0000 C   0  0  1  0  0  0  0  0  0  0  0  0
   18.9591   -7.1500    0.0000 C   0  0  2  0  0  0  0  0  0  0  0  0
   21.1026   -6.7375    0.0000 C   0  0  3  0  0  0  0  0  0  0  0  0
   19.6736   -6.7375    0.0000 C   0  0  2  0  0  0  0  0  0  0  0  0
   18.9591   -5.5000    0.0000 C   0  0  1  0  0  0  0  0  0  0  0  0
   21.8171   -7.1500    0.0000 C   0  0  2  0  0  0  0  0  0  0  0  0
   21.1026   -5.9125    0.0000 C   0  0  1  0  0  0  0  0  0  0  0  0
   13.9577   -5.9125    0.0000 C   0  0  2  0  0  0  0  0  0  0  0  0
   21.8171   -5.5000    0.0000 C   0  0  1  0  0  0  0  0  0  0  0  0
   13.2432   -5.5000    0.0000 C   0  0  1  0  0  0  0  0  0  0  0  0
   22.5316   -6.7375    0.0000 C   0  0  1  0  0  0  0  0  0  0  0  0
   16.1012   -7.9750    0.0000 C   0  0  0  0  0  0  0  0  0  0  0  0
   12.5288   -5.9125    0.0000 C   0  0  2  0  0  0  0  0  0  0  0  0
   12.5288   -6.7375    0.0000 C   0  0  1  0  0  0  0  0  0  0  0  0
   13.2432   -7.1500    0.0000 C   0  0  1  0  0  0  0  0  0  0  0  0
   18.9591   -4.6750    0.0000 C   0  0  0  0  0  0  0  0  0  0  0  0
   21.8171   -4.6750    0.0000 C   0  0  0  0  0  0  0  0  0  0  0  0
   16.8157   -4.2625    0.0000 C   0  0  0  0  0  0  0  0  0  0  0  0
   13.2432   -7.9750    0.0000 C   0  0  0  0  0  0  0  0  0  0  0  0
   22.5316   -8.3875    0.0000 C   0  0  0  0  0  0  0  0  0  0  0  0
   16.8157   -3.4375    0.0000 C   0  0  0  0  0  0  0  0  0  0  0  0
   23.2460   -7.9750    0.0000 C   0  0  0  0  0  0  0  0  0  0  0  0
   13.8322   -6.6650    0.0000 H   0  0  0  0  0  0  0  0  0  0  0  0
   16.6901   -6.6649    0.0000 H   0  0  0  0  0  0  0  0  0  0  0  0
   18.1191   -8.4600    0.0000 H   0  0  0  0  0  0  0  0  0  0  0  0
   20.3879   -4.5300    0.0000 H   0  0  0  0  0  0  0  0  0  0  0  0
   14.0832   -4.1900    0.0000 H   0  0  0  0  0  0  0  0  0  0  0  0
   23.2460   -8.1200    0.0000 H   0  0  0  0  0  0  0  0  0  0  0  0
   16.8157   -9.3575    0.0000 H   0  0  0  0  0  0  0  0  0  0  0  0
   11.8141   -4.5300    0.0000 H   0  0  0  0  0  0  0  0  0  0  0  0
   10.9742   -6.6649    0.0000 H   0  0  0  0  0  0  0  0  0  0  0  0
   20.4851   -4.7310    0.0000 H   0  0  0  0  0  0  0  0  0  0  0  0
   23.3716   -4.7475    0.0000 H   0  0  0  0  0  0  0  0  0  0  0  0
   11.7173   -7.9190    0.0000 H   0  0  0  0  0  0  0  0  0  0  0  0
   15.2486   -4.1827    0.0000 H   0  0  0  0  0  0  0  0  0  0  0  0
   20.9645   -8.4673    0.0000 H   0  0  0  0  0  0  0  0  0  0  0  0
   15.3867   -4.8425    0.0000 H   0  0  0  0  0  0  0  0  0  0  0  0
   15.1746   -4.9650    0.0000 H   0  0  0  0  0  0  0  0  0  0  0  0
   17.7424   -6.4475    0.0000 H   0  0  0  0  0  0  0  0  0  0  0  0
   14.4601   -6.2025    0.0000 H   0  0  0  0  0  0  0  0  0  0  0  0
   17.3181   -6.4475    0.0000 H   0  0  0  0  0  0  0  0  0  0  0  0
   17.0278   -7.6850    0.0000 H   0  0  0  0  0  0  0  0  0  0  0  0
   17.3181   -6.2025    0.0000 H   0  0  0  0  0  0  0  0  0  0  0  0
   18.0324   -7.6850    0.0000 H   0  0  0  0  0  0  0  0  0  0  0  0
   21.1026   -7.8075    0.0000 H   0  0  0  0  0  0  0  0  0  0  0  0
   20.6003   -6.2025    0.0000 H   0  0  0  0  0  0  0  0  0  0  0  0
   19.8857   -4.9650    0.0000 H   0  0  0  0  0  0  0  0  0  0  0  0
   20.8905   -7.6850    0.0000 H   0  0  0  0  0  0  0  0  0  0  0  0
   20.1760   -6.4475    0.0000 H   0  0  0  0  0  0  0  0  0  0  0  0
   14.8843   -6.4475    0.0000 H   0  0  0  0  0  0  0  0  0  0  0  0
   22.7437   -4.9650    0.0000 H   0  0  0  0  0  0  0  0  0  0  0  0
   14.1698   -4.9650    0.0000 H   0  0  0  0  0  0  0  0  0  0  0  0
   23.4583   -6.2025    0.0000 H   0  0  0  0  0  0  0  0  0  0  0  0
   15.1746   -8.5100    0.0000 H   0  0  0  0  0  0  0  0  0  0  0  0
   15.1746   -7.4400    0.0000 H   0  0  0  0  0  0  0  0  0  0  0  0
   12.5287   -4.8425    0.0000 H   0  0  0  0  0  0  0  0  0  0  0  0
   11.6022   -6.2025    0.0000 H   0  0  0  0  0  0  0  0  0  0  0  0
   14.1698   -7.6850    0.0000 H   0  0  0  0  0  0  0  0  0  0  0  0
   20.8905   -4.1400    0.0000 H   0  0  0  0  0  0  0  0  0  0  0  0
   20.8905   -5.2100    0.0000 H   0  0  0  0  0  0  0  0  0  0  0  0
   17.7423   -2.9025    0.0000 H   0  0  0  0  0  0  0  0  0  0  0  0
   15.8891   -2.9025    0.0000 H   0  0  0  0  0  0  0  0  0  0  0  0
   16.8157   -2.3675    0.0000 H   0  0  0  0  0  0  0  0  0  0  0  0
   24.1727   -8.5100    0.0000 H   0  0  0  0  0  0  0  0  0  0  0  0
   23.2460   -6.9050    0.0000 H   0  0  0  0  0  0  0  0  0  0  0  0
   24.1726   -7.4400    0.0000 H   0  0  0  0  0  0  0  0  0  0  0  0
  2 28  1  0  0  0  0
  2 31  1  0  0  0  0
  3 26  1  0  0  0  0
  4 34  1  0  0  0  0
  5 35  1  0  0  0  0
  5 36  1  0  0  0  0
  6 40  1  0  0  0  0
  6 42  1  0  0  0  0
  7 54  1  0  0  0  0
  8 39  1  0  0  0  0
  8 46  1  0  0  0  0
  9 55  1  0  0  0  0
 10 56  1  0  0  0  0
 11 57  1  0  0  0  0
 12 58  1  0  0  0  0
 13 59  1  0  0  0  0
 14 43  1  0  0  0  0
 14 60  1  0  0  0  0
 15 61  1  0  0  0  0
 16 62  1  0  0  0  0
 17 47  1  0  0  0  0
 17 63  1  0  0  0  0
 18 48  1  0  0  0  0
 18 64  1  0  0  0  0
 19 47  2  0  0  0  0
 20 49  2  0  0  0  0
 21 50  1  0  0  0  0
 21 65  1  0  0  0  0
 22 50  2  0  0  0  0
 23 51  2  0  0  0  0
 24 49  1  0  0  0  0
 24 66  1  0  0  0  0
 25 51  1  0  0  0  0
 25 67  1  0  0  0  0
 26 27  1  0  0  0  0
 26 29  1  0  0  0  0
 26 68  1  0  0  0  0
 27 24  1  0  0  0  0
 27 28  1  0  0  0  0
 27 69  1  6  0  0  0
 28  1  1  0  0  0  0
 28 70  1  1  0  0  0
 29  7  1  0  0  0  0
 29 31  1  0  0  0  0
 29 71  1  6  0  0  0
 30  1  1  0  0  0  0
 30 32  1  0  0  0  0
 30 36  1  0  0  0  0
 30 72  1  1  0  0  0
 31 43  1  0  0  0  0
 31 73  1  1  0  0  0
 32  9  1  0  0  0  0
 32 33  1  0  0  0  0
 32 74  1  6  0  0  0
 33 10  1  0  0  0  0
 33 35  1  0  0  0  0
 33 75  1  1  0  0  0
 34 37  1  0  0  0  0
 34 38  1  0  0  0  0
 34 76  1  0  0  0  0
 35  4  1  0  0  0  0
 35 77  1  6  0  0  0
 36 47  1  0  0  0  0
 36 78  1  6  0  0  0
 37 25  1  0  0  0  0
 37 42  1  0  0  0  0
 37 79  1  1  0  0  0
 38 11  1  0  0  0  0
 38 40  1  0  0  0  0
 38 80  1  1  0  0  0
 39  3  1  0  0  0  0
 39 41  1  0  0  0  0
 39 81  1  1  0  0  0
 40 48  1  0  0  0  0
 40 82  1  6  0  0  0
 41 12  1  0  0  0  0
 41 44  1  0  0  0  0
 41 83  1  6  0  0  0
 42 13  1  0  0  0  0
 42 84  1  6  0  0  0
 43 85  1  0  0  0  0
 43 86  1  0  0  0  0
 44 15  1  0  0  0  0
 44 45  1  0  0  0  0
 44 87  1  1  0  0  0
 45 16  1  0  0  0  0
 45 46  1  0  0  0  0
 45 88  1  6  0  0  0
 46 50  1  0  0  0  0
 46 89  1  1  0  0  0
 48 90  1  0  0  0  0
 48 91  1  0  0  0  0
 49 52  1  0  0  0  0
 51 53  1  0  0  0  0
 52 92  1  0  0  0  0
 52 93  1  0  0  0  0
 52 94  1  0  0  0  0
 53 95  1  0  0  0  0
 53 96  1  0  0  0  0
 53 97  1  0  0  0  0
M  END
>  <DRUGBANK_ID>
DB08818

>  <COMMON_NAME>
Hyaluronic acid

>  <CAS_NUMBER>
9004-61-9

>  <UNII>
S270N0TRQY

>  <SYNONYMS>
Hyaluronan; Hyaluronate

$$$$
