
 OpenBabel10282417072D

 52 55  0  0  0  0  0  0  0  0999 V2000
   -1.0164   -2.3645    0.0000 O   0  0  0  0  0  0  0  0  0  0  0  0
   -1.4289   -1.6500    0.0000 C   0  0  3  0  0  0  0  0  0  0  0  0
   -0.7145   -1.2375    0.0000 C   0  0  0  0  0  0  0  0  0  0  0  0
   -0.7145   -0.4125    0.0000 O   0  0  0  0  0  0  0  0  0  0  0  0
   -0.0000    0.0000    0.0000 C   0  0  3  0  0  0  0  0  0  0  0  0
    0.0000    0.8250    0.0000 C   0  0  0  0  0  0  0  0  0  0  0  0
    0.7145    1.2375    0.0000 N   0  0  3  0  0  0  0  0  0  0  0  0
    1.4289    0.8250    0.0000 C   0  0  0  0  0  0  0  0  0  0  0  0
    1.4289    0.0000    0.0000 C   0  0  0  0  0  0  0  0  0  0  0  0
    0.7145   -0.4125    0.0000 C   0  0  3  0  0  0  0  0  0  0  0  0
    0.8520    0.1375    0.0000 C   0  0  0  0  0  0  0  0  0  0  0  0
    0.8520    0.6875    0.0000 C   0  0  0  0  0  0  0  0  0  0  0  0
   -1.8414   -0.9355    0.0000 C   0  0  0  0  0  0  0  0  0  0  0  0
   -2.6619   -0.8493    0.0000 C   0  0  0  0  0  0  0  0  0  0  0  0
   -2.8334   -0.0423    0.0000 C   0  0  0  0  0  0  0  0  0  0  0  0
   -2.1190    0.3702    0.0000 C   0  0  0  0  0  0  0  0  0  0  0  0
   -1.5059   -0.1819    0.0000 C   0  0  0  0  0  0  0  0  0  0  0  0
   -2.1434   -2.0625    0.0000 C   0  0  0  0  0  0  0  0  0  0  0  0
   -2.1434   -2.8875    0.0000 C   0  0  0  0  0  0  0  0  0  0  0  0
   -2.8579   -3.3000    0.0000 C   0  0  0  0  0  0  0  0  0  0  0  0
   -3.5724   -2.8875    0.0000 C   0  0  0  0  0  0  0  0  0  0  0  0
   -3.5724   -2.0625    0.0000 C   0  0  0  0  0  0  0  0  0  0  0  0
   -2.8579   -1.6500    0.0000 C   0  0  0  0  0  0  0  0  0  0  0  0
   -1.5014   -3.2045    0.0000 H   0  0  0  0  0  0  0  0  0  0  0  0
    0.2122   -1.7725    0.0000 H   0  0  0  0  0  0  0  0  0  0  0  0
    0.2121   -0.7025    0.0000 H   0  0  0  0  0  0  0  0  0  0  0  0
   -0.9266    0.5350    0.0000 H   0  0  0  0  0  0  0  0  0  0  0  0
   -0.9266    1.3600    0.0000 H   0  0  0  0  0  0  0  0  0  0  0  0
    0.0000    1.8950    0.0000 H   0  0  0  0  0  0  0  0  0  0  0  0
    2.3556    1.3600    0.0000 H   0  0  0  0  0  0  0  0  0  0  0  0
    2.3555    0.2900    0.0000 H   0  0  0  0  0  0  0  0  0  0  0  0
    2.3556   -0.5350    0.0000 H   0  0  0  0  0  0  0  0  0  0  0  0
    1.4289   -1.0700    0.0000 H   0  0  0  0  0  0  0  0  0  0  0  0
    0.7145    0.6575    0.0000 H   0  0  0  0  0  0  0  0  0  0  0  0
    1.9140    0.0068    0.0000 H   0  0  0  0  0  0  0  0  0  0  0  0
    1.6535    0.8464    0.0000 H   0  0  0  0  0  0  0  0  0  0  0  0
    1.9140    0.8182    0.0000 H   0  0  0  0  0  0  0  0  0  0  0  0
    1.4576    1.5696    0.0000 H   0  0  0  0  0  0  0  0  0  0  0  0
   -2.3764   -0.0089    0.0000 H   0  0  0  0  0  0  0  0  0  0  0  0
   -3.3779   -1.6445    0.0000 H   0  0  0  0  0  0  0  0  0  0  0  0
   -3.6954   -0.5723    0.0000 H   0  0  0  0  0  0  0  0  0  0  0  0
   -3.8109    0.3929    0.0000 H   0  0  0  0  0  0  0  0  0  0  0  0
   -2.8894    1.0262    0.0000 H   0  0  0  0  0  0  0  0  0  0  0  0
   -2.0071    1.4343    0.0000 H   0  0  0  0  0  0  0  0  0  0  0  0
   -1.1201    0.7536    0.0000 H   0  0  0  0  0  0  0  0  0  0  0  0
   -0.4593    0.0406    0.0000 H   0  0  0  0  0  0  0  0  0  0  0  0
   -0.8325   -1.0134    0.0000 H   0  0  0  0  0  0  0  0  0  0  0  0
   -1.2497   -3.4035    0.0000 H   0  0  0  0  0  0  0  0  0  0  0  0
   -2.8579   -4.3320    0.0000 H   0  0  0  0  0  0  0  0  0  0  0  0
   -4.4661   -3.4035    0.0000 H   0  0  0  0  0  0  0  0  0  0  0  0
   -4.4661   -1.5465    0.0000 H   0  0  0  0  0  0  0  0  0  0  0  0
   -2.8579   -0.6180    0.0000 H   0  0  0  0  0  0  0  0  0  0  0  0
  1  2  1  0  0  0  0
  1 24  1  0  0  0  0
  2  3  1  0  0  0  0
  2 13  1  0  0  0  0
  2 18  1  0  0  0  0
  3  4  1  0  0  0  0
  3 25  1  0  0  0  0
  3 26  1  0  0  0  0
  4  5  1  0  0  0  0
  5  6  1  0  0  0  0
  5 10  1  0  0  0  0
  5 27  1  0  0  0  0
  6  7  1  0  0  0  0
  6 28  1  0  0  0  0
  6 29  1  0  0  0  0
  7  8  1  0  0  0  0
  7 12  1  0  0  0  0
  8  9  1  0  0  0  0
  8 30  1  0  0  0  0
  8 31  1  0  0  0  0
  9 10  1  0  0  0  0
  9 32  1  0  0  0  0
  9 33  1  0  0  0  0
 10 11  1  0  0  0  0
 10 34  1  0  0  0  0
 11 12  1  0  0  0  0
 11 35  1  0  0  0  0
 11 36  1  0  0  0  0
 12 37  1  0  0  0  0
 12 38  1  0  0  0  0
 13 14  1  0  0  0  0
 13 17  1  0  0  0  0
 13 39  1  0  0  0  0
 14 15  1  0  0  0  0
 14 40  1  0  0  0  0
 14 41  1  0  0  0  0
 15 16  1  0  0  0  0
 15 42  1  0  0  0  0
 15 43  1  0  0  0  0
 16 17  1  0  0  0  0
 16 44  1  0  0  0  0
 16 45  1  0  0  0  0
 17 46  1  0  0  0  0
 17 47  1  0  0  0  0
 18 19  2  0  0  0  0
 18 23  1  0  0  0  0
 19 20  1  0  0  0  0
 19 48  1  0  0  0  0
 20 21  2  0  0  0  0
 20 49  1  0  0  0  0
 21 22  1  0  0  0  0
 21 50  1  0  0  0  0
 22 23  2  0  0  0  0
 22 51  1  0  0  0  0
 23 52  1  0  0  0  0
M  END
>  <DRUGBANK_ID>
DB16287

>  <COMMON_NAME>
Penequinine, Penehyclidine

>  <CAS_NUMBER>
87827-02-9

>  <UNII>
353CX8CSHD

>  <SYNONYMS>
Penehyclidine; Penequine; Penequinine; Penethequinine

$$$$
