
 OpenBabel10282417072D

 57 59  0  0  0  0  0  0  0  0999 V2000
    2.5305    0.4183    0.0000 C   0  0  0  0  0  0  0  0  0  0  0  0
    1.8194    0.8365    0.0000 C   0  0  0  0  0  0  0  0  0  0  0  0
    1.0665    0.4183    0.0000 C   0  0  0  0  0  0  0  0  0  0  0  0
    1.0665   -0.4183    0.0000 N   0  0  0  0  0  0  0  0  0  0  0  0
    1.8194   -0.8365    0.0000 C   0  0  0  0  0  0  0  0  0  0  0  0
    2.5305   -0.4183    0.0000 C   0  0  0  0  0  0  0  0  0  0  0  0
    0.3555   -0.8365    0.0000 C   0  0  0  0  0  0  0  0  0  0  0  0
   -0.3555   -0.4183    0.0000 C   0  0  0  0  0  0  0  0  0  0  0  0
   -1.1084   -0.8365    0.0000 C   0  0  0  0  0  0  0  0  0  0  0  0
   -1.8194   -0.4183    0.0000 C   0  0  0  0  0  0  0  0  0  0  0  0
   -2.5305   -0.8365    0.0000 C   0  0  0  0  0  0  0  0  0  0  0  0
   -1.8194    0.4183    0.0000 O   0  0  0  0  0  0  0  0  0  0  0  0
   -3.2415   -0.4183    0.0000 C   0  0  0  0  0  0  0  0  0  0  0  0
   -3.9944   -0.8365    0.0000 C   0  0  0  0  0  0  0  0  0  0  0  0
   -3.9944   -1.6731    0.0000 C   0  0  0  0  0  0  0  0  0  0  0  0
   -3.2415   -2.0913    0.0000 C   0  0  0  0  0  0  0  0  0  0  0  0
   -2.5305   -1.6731    0.0000 C   0  0  0  0  0  0  0  0  0  0  0  0
   -4.7055   -2.0495    0.0000 F   0  0  0  0  0  0  0  0  0  0  0  0
    3.2415    0.8365    0.0000 N   0  0  0  0  0  0  0  0  0  0  0  0
    3.9944    0.4183    0.0000 C   0  0  0  0  0  0  0  0  0  0  0  0
    4.7055    0.8365    0.0000 C   0  0  0  0  0  0  0  0  0  0  0  0
    4.7055    1.6731    0.0000 C   0  0  0  0  0  0  0  0  0  0  0  0
    3.9944    2.0913    0.0000 C   0  0  0  0  0  0  0  0  0  0  0  0
    3.2415    1.6731    0.0000 C   0  0  0  0  0  0  0  0  0  0  0  0
    2.9488   -0.2927    0.0000 C   0  0  0  0  0  0  0  0  0  0  0  0
    3.7853   -0.2927    0.0000 N   0  0  0  0  0  0  0  0  0  0  0  0
    2.5305   -1.0038    0.0000 O   0  0  0  0  0  0  0  0  0  0  0  0
    1.8326    1.9064    0.0000 H   0  0  0  0  0  0  0  0  0  0  0  0
    0.9006    1.3848    0.0000 H   0  0  0  0  0  0  0  0  0  0  0  0
    0.1443    0.9610    0.0000 H   0  0  0  0  0  0  0  0  0  0  0  0
    0.1376   -0.1129    0.0000 H   0  0  0  0  0  0  0  0  0  0  0  0
    1.8326   -1.9064    0.0000 H   0  0  0  0  0  0  0  0  0  0  0  0
    2.7514   -1.3621    0.0000 H   0  0  0  0  0  0  0  0  0  0  0  0
    3.4593   -0.9496    0.0000 H   0  0  0  0  0  0  0  0  0  0  0  0
    2.5369   -1.4883    0.0000 H   0  0  0  0  0  0  0  0  0  0  0  0
    0.3555   -1.9065    0.0000 H   0  0  0  0  0  0  0  0  0  0  0  0
   -0.5733   -1.3677    0.0000 H   0  0  0  0  0  0  0  0  0  0  0  0
   -0.3423    0.6516    0.0000 H   0  0  0  0  0  0  0  0  0  0  0  0
   -1.2743    0.1300    0.0000 H   0  0  0  0  0  0  0  0  0  0  0  0
   -1.1216   -1.9064    0.0000 H   0  0  0  0  0  0  0  0  0  0  0  0
   -2.0405   -1.3620    0.0000 H   0  0  0  0  0  0  0  0  0  0  0  0
   -3.2288    0.6136    0.0000 H   0  0  0  0  0  0  0  0  0  0  0  0
   -4.8838   -0.3131    0.0000 H   0  0  0  0  0  0  0  0  0  0  0  0
   -3.2288   -3.1232    0.0000 H   0  0  0  0  0  0  0  0  0  0  0  0
   -1.6347   -2.1855    0.0000 H   0  0  0  0  0  0  0  0  0  0  0  0
    4.0076   -0.6516    0.0000 H   0  0  0  0  0  0  0  0  0  0  0  0
    4.9264   -0.1073    0.0000 H   0  0  0  0  0  0  0  0  0  0  0  0
    5.6343    0.3052    0.0000 H   0  0  0  0  0  0  0  0  0  0  0  0
    5.6311    1.3734    0.0000 H   0  0  0  0  0  0  0  0  0  0  0  0
    5.6343    2.2044    0.0000 H   0  0  0  0  0  0  0  0  0  0  0  0
    4.7119    2.7431    0.0000 H   0  0  0  0  0  0  0  0  0  0  0  0
    4.0076    3.1612    0.0000 H   0  0  0  0  0  0  0  0  0  0  0  0
    3.0756    2.6396    0.0000 H   0  0  0  0  0  0  0  0  0  0  0  0
    2.3193    2.2158    0.0000 H   0  0  0  0  0  0  0  0  0  0  0  0
    2.3126    1.1419    0.0000 H   0  0  0  0  0  0  0  0  0  0  0  0
    4.2775   -1.1453    0.0000 H   0  0  0  0  0  0  0  0  0  0  0  0
    4.2775    0.5599    0.0000 H   0  0  0  0  0  0  0  0  0  0  0  0
  1 19  1  0  0  0  0
  1  2  1  0  0  0  0
  2  3  1  0  0  0  0
  2 28  1  0  0  0  0
  2 29  1  0  0  0  0
  3  4  1  0  0  0  0
  3 30  1  0  0  0  0
  3 31  1  0  0  0  0
  4  7  1  0  0  0  0
  4  5  1  0  0  0  0
  5  6  1  0  0  0  0
  5 32  1  0  0  0  0
  5 33  1  0  0  0  0
  6  1  1  0  0  0  0
  6 34  1  0  0  0  0
  6 35  1  0  0  0  0
  7  8  1  0  0  0  0
  7 36  1  0  0  0  0
  7 37  1  0  0  0  0
  8  9  1  0  0  0  0
  8 38  1  0  0  0  0
  8 39  1  0  0  0  0
  9 10  1  0  0  0  0
  9 40  1  0  0  0  0
  9 41  1  0  0  0  0
 10 11  1  0  0  0  0
 10 12  2  0  0  0  0
 11 13  2  0  0  0  0
 13 14  1  0  0  0  0
 13 42  1  0  0  0  0
 14 15  2  0  0  0  0
 14 43  1  0  0  0  0
 15 16  1  0  0  0  0
 15 18  1  0  0  0  0
 16 17  2  0  0  0  0
 16 44  1  0  0  0  0
 17 11  1  0  0  0  0
 17 45  1  0  0  0  0
 19 20  1  0  0  0  0
 20 21  1  0  0  0  0
 20 46  1  0  0  0  0
 20 47  1  0  0  0  0
 21 22  1  0  0  0  0
 21 48  1  0  0  0  0
 21 49  1  0  0  0  0
 22 23  1  0  0  0  0
 22 50  1  0  0  0  0
 22 51  1  0  0  0  0
 23 24  1  0  0  0  0
 23 52  1  0  0  0  0
 23 53  1  0  0  0  0
 24 19  1  0  0  0  0
 24 54  1  0  0  0  0
 24 55  1  0  0  0  0
 25 26  1  0  0  0  0
 25  1  1  0  0  0  0
 25 27  2  0  0  0  0
 26 56  1  0  0  0  0
 26 57  1  0  0  0  0
M  END
>  <DRUGBANK_ID>
DB09286

>  <COMMON_NAME>
Pipamperone

>  <CAS_NUMBER>
1893-33-0

>  <UNII>
5402501F0W

>  <SYNONYMS>
Carpiperone; Floropipamide; Fluoropipamide; Pipamperona; Pipamperone

$$$$
