
 OpenBabel10282417072D

 53 56  0  0  1  0  0  0  0  0999 V2000
    9.1461   -3.4366    0.0000 C   0  0  0  0  0  0  0  0  0  0  0  0
    7.7172   -5.9117    0.0000 N   0  0  0  0  0  0  0  0  0  0  0  0
    7.0027   -4.6741    0.0000 C   0  0  2  0  0  0  0  0  0  0  0  0
    7.0027   -3.8491    0.0000 C   0  0  2  0  0  0  0  0  0  0  0  0
    7.7172   -5.0866    0.0000 C   0  0  1  0  0  0  0  0  0  0  0  0
    6.2882   -5.0866    0.0000 C   0  0  0  0  0  0  0  0  0  0  0  0
    6.2882   -3.4366    0.0000 C   0  0  0  0  0  0  0  0  0  0  0  0
    7.7172   -3.4366    0.0000 C   0  0  0  0  0  0  0  0  0  0  0  0
    7.0027   -3.0241    0.0000 O   0  0  0  0  0  0  0  0  0  0  0  0
    8.4316   -4.6741    0.0000 C   0  0  0  0  0  0  0  0  0  0  0  0
    5.5737   -4.6741    0.0000 C   0  0  1  0  0  0  0  0  0  0  0  0
    5.5737   -3.8491    0.0000 C   0  0  0  0  0  0  0  0  0  0  0  0
    6.2882   -2.6116    0.0000 O   0  0  0  0  0  0  0  0  0  0  0  0
    8.4316   -3.8491    0.0000 C   0  0  0  0  0  0  0  0  0  0  0  0
    7.7172   -2.6116    0.0000 O   0  0  0  0  0  0  0  0  0  0  0  0
    9.1461   -5.0866    0.0000 O   0  0  0  0  0  0  0  0  0  0  0  0
    4.8592   -5.0866    0.0000 C   0  0  1  0  0  0  0  0  0  0  0  0
    4.8592   -3.4366    0.0000 C   0  0  0  0  0  0  0  0  0  0  0  0
    4.1447   -4.6741    0.0000 C   0  0  0  0  0  0  0  0  0  0  0  0
    4.8592   -5.9117    0.0000 O   0  0  0  0  0  0  0  0  0  0  0  0
    4.1447   -3.8491    0.0000 C   0  0  0  0  0  0  0  0  0  0  0  0
    4.8592   -2.6116    0.0000 O   0  0  0  0  0  0  0  0  0  0  0  0
    3.4303   -5.0866    0.0000 C   0  0  0  0  0  0  0  0  0  0  0  0
    3.4303   -3.4366    0.0000 C   0  0  0  0  0  0  0  0  0  0  0  0
    2.7158   -4.6741    0.0000 C   0  0  0  0  0  0  0  0  0  0  0  0
    3.4303   -5.9117    0.0000 Cl  0  0  0  0  0  0  0  0  0  0  0  0
    2.7158   -3.8491    0.0000 C   0  0  0  0  0  0  0  0  0  0  0  0
    3.4303   -2.6116    0.0000 O   0  0  0  0  0  0  0  0  0  0  0  0
    7.0027   -5.4992    0.0000 H   0  0  0  0  0  0  0  0  0  0  0  0
    5.5737   -5.4992    0.0000 H   0  0  0  0  0  0  0  0  0  0  0  0
    8.4316   -6.3242    0.0000 C   0  0  0  0  0  0  0  0  0  0  0  0
    7.0027   -6.3242    0.0000 C   0  0  0  0  0  0  0  0  0  0  0  0
    9.1461   -2.6116    0.0000 O   0  0  0  0  0  0  0  0  0  0  0  0
    9.8606   -3.8491    0.0000 N   0  0  0  0  0  0  0  0  0  0  0  0
    6.7906   -5.6216    0.0000 H   0  0  0  0  0  0  0  0  0  0  0  0
    6.2882   -6.1566    0.0000 H   0  0  0  0  0  0  0  0  0  0  0  0
    5.3616   -5.6216    0.0000 H   0  0  0  0  0  0  0  0  0  0  0  0
    7.8427   -2.5391    0.0000 H   0  0  0  0  0  0  0  0  0  0  0  0
    7.0997   -2.1431    0.0000 H   0  0  0  0  0  0  0  0  0  0  0  0
    9.1461   -6.0236    0.0000 H   0  0  0  0  0  0  0  0  0  0  0  0
    3.9326   -5.6216    0.0000 H   0  0  0  0  0  0  0  0  0  0  0  0
    4.0192   -6.3967    0.0000 H   0  0  0  0  0  0  0  0  0  0  0  0
    1.8221   -5.1901    0.0000 H   0  0  0  0  0  0  0  0  0  0  0  0
    1.8221   -3.3331    0.0000 H   0  0  0  0  0  0  0  0  0  0  0  0
    4.2418   -2.1431    0.0000 H   0  0  0  0  0  0  0  0  0  0  0  0
    8.4316   -7.3942    0.0000 H   0  0  0  0  0  0  0  0  0  0  0  0
    9.3583   -5.7892    0.0000 H   0  0  0  0  0  0  0  0  0  0  0  0
    9.3582   -6.8592    0.0000 H   0  0  0  0  0  0  0  0  0  0  0  0
    6.0761   -5.7892    0.0000 H   0  0  0  0  0  0  0  0  0  0  0  0
    7.0027   -7.3942    0.0000 H   0  0  0  0  0  0  0  0  0  0  0  0
    6.0760   -6.8592    0.0000 H   0  0  0  0  0  0  0  0  0  0  0  0
    9.8606   -4.8336    0.0000 H   0  0  0  0  0  0  0  0  0  0  0  0
   10.7132   -3.3568    0.0000 H   0  0  0  0  0  0  0  0  0  0  0  0
  1 33  2  0  0  0  0
  1 34  1  0  0  0  0
  2 31  1  0  0  0  0
  2 32  1  0  0  0  0
  3 29  1  1  0  0  0
  3  4  1  0  0  0  0
  3  5  1  0  0  0  0
  3  6  1  0  0  0  0
  4  7  1  0  0  0  0
  4  8  1  0  0  0  0
  4  9  1  1  0  0  0
  5 10  1  0  0  0  0
  5  2  1  0  0  0  0
  5 35  1  6  0  0  0
  6 11  1  0  0  0  0
  6 36  1  0  0  0  0
  6 37  1  0  0  0  0
  7 12  2  0  0  0  0
  7 13  1  0  0  0  0
  8 14  1  0  0  0  0
  8 15  2  0  0  0  0
  9 38  1  0  0  0  0
 10 14  2  0  0  0  0
 10 16  1  0  0  0  0
 11 12  1  0  0  0  0
 11 30  1  1  0  0  0
 11 17  1  0  0  0  0
 12 18  1  0  0  0  0
 13 39  1  0  0  0  0
 14  1  1  0  0  0  0
 16 40  1  0  0  0  0
 17 19  1  0  0  0  0
 17 20  1  0  0  0  0
 17 41  1  1  0  0  0
 18 21  1  0  0  0  0
 18 22  2  0  0  0  0
 19 23  1  0  0  0  0
 19 21  2  0  0  0  0
 20 42  1  0  0  0  0
 21 24  1  0  0  0  0
 23 25  2  0  0  0  0
 23 26  1  0  0  0  0
 24 27  2  0  0  0  0
 24 28  1  0  0  0  0
 25 27  1  0  0  0  0
 25 43  1  0  0  0  0
 27 44  1  0  0  0  0
 28 45  1  0  0  0  0
 31 46  1  0  0  0  0
 31 47  1  0  0  0  0
 31 48  1  0  0  0  0
 32 49  1  0  0  0  0
 32 50  1  0  0  0  0
 32 51  1  0  0  0  0
 34 52  1  0  0  0  0
 34 53  1  0  0  0  0
M  END
>  <DRUGBANK_ID>
DB00618

>  <SECONDARY_ACCESSION_NUMBERS>
APRD00272

>  <COMMON_NAME>
Demeclocycline

>  <CAS_NUMBER>
127-33-3

>  <UNII>
5R5W9ICI6O

>  <SYNONYMS>
[4S-(4α,4aα,5aα,6β,12aα)]-7-chloro-4-(dimethylamino)1,4,4a,5,5a,6,11,12a-octahydro-3,6,10,12,12a-pentahydroxy-1,11-dioxo-2-naphthacenecarboxamide; 6-demethyl-7-chlorotetracycline; 7-chloro-6-demethyltetracycline; Demeclociclina; Demeclocycline; Demeclocyclinum; Demethylchlortetracyclin; Demethylchlortetracycline; DMCT; DMCTC

$$$$
