
 OpenBabel10282417072D

 75 79  0  0  0  0  0  0  0  0999 V2000
    4.2868   -2.4750    0.0000 O   0  0  0  0  0  0  0  0  0  0  0  0
    5.0013   -2.0625    0.0000 C   0  0  0  0  0  0  0  0  0  0  0  0
    5.7158   -1.6500    0.0000 C   0  0  0  0  0  0  0  0  0  0  0  0
    6.4302   -2.0625    0.0000 C   0  0  0  0  0  0  0  0  0  0  0  0
    7.1447   -1.6500    0.0000 C   0  0  0  0  0  0  0  0  0  0  0  0
    7.8592   -2.0625    0.0000 N   0  0  0  0  0  0  0  0  0  0  0  0
    8.5737   -1.6500    0.0000 C   0  0  0  0  0  0  0  0  0  0  0  0
    8.5737   -0.8250    0.0000 O   0  0  0  0  0  0  0  0  0  0  0  0
    9.2881   -2.0625    0.0000 O   0  0  0  0  0  0  0  0  0  0  0  0
   10.0026   -1.6500    0.0000 C   0  0  0  0  0  0  0  0  0  0  0  0
   10.7171   -2.0625    0.0000 C   0  0  0  0  0  0  0  0  0  0  0  0
   11.4315   -1.6500    0.0000 O   0  0  0  0  0  0  0  0  0  0  0  0
   12.1460   -2.0625    0.0000 C   0  0  0  0  0  0  0  0  0  0  0  0
   12.8605   -1.6500    0.0000 C   0  0  0  0  0  0  0  0  0  0  0  0
   13.5749   -2.0625    0.0000 C   0  0  0  0  0  0  0  0  0  0  0  0
   13.5749   -2.8875    0.0000 C   0  0  0  0  0  0  0  0  0  0  0  0
   14.2894   -3.3000    0.0000 C   0  0  0  0  0  0  0  0  0  0  0  0
   14.2894   -4.1250    0.0000 C   0  0  0  0  0  0  0  0  0  0  0  0
   13.5749   -4.5375    0.0000 C   0  0  0  0  0  0  0  0  0  0  0  0
   12.8605   -4.1250    0.0000 N   0  0  0  0  0  0  0  0  0  0  0  0
   12.8605   -3.3000    0.0000 C   0  0  0  0  0  0  0  0  0  0  0  0
   12.1460   -2.8875    0.0000 C   0  0  0  0  0  0  0  0  0  0  0  0
   15.0039   -2.8875    0.0000 C   0  0  0  0  0  0  0  0  0  0  0  0
   15.0901   -2.0670    0.0000 C   0  0  0  0  0  0  0  0  0  0  0  0
   14.6776   -1.3525    0.0000 C   0  0  0  0  0  0  0  0  0  0  0  0
   15.2297   -0.7395    0.0000 C   0  0  0  0  0  0  0  0  0  0  0  0
   15.9833   -1.0750    0.0000 C   0  0  0  0  0  0  0  0  0  0  0  0
   15.8971   -1.8955    0.0000 N   0  0  0  0  0  0  0  0  0  0  0  0
   16.3096   -2.6100    0.0000 N   0  0  0  0  0  0  0  0  0  0  0  0
   15.7576   -3.2231    0.0000 C   0  0  0  0  0  0  0  0  0  0  0  0
   15.9291   -4.0300    0.0000 C   0  0  0  0  0  0  0  0  0  0  0  0
   16.7137   -4.2850    0.0000 C   0  0  0  0  0  0  0  0  0  0  0  0
   16.8852   -5.0919    0.0000 C   0  0  0  0  0  0  0  0  0  0  0  0
   16.2721   -5.6440    0.0000 C   0  0  0  0  0  0  0  0  0  0  0  0
   15.4875   -5.3890    0.0000 C   0  0  0  0  0  0  0  0  0  0  0  0
   15.3160   -4.5821    0.0000 N   0  0  0  0  0  0  0  0  0  0  0  0
    4.5888   -1.3480    0.0000 P   0  0  0  0  0  0  0  0  0  0  0  0
    4.1763   -0.6336    0.0000 O   0  0  0  0  0  0  0  0  0  0  0  0
    5.3033   -0.9355    0.0000 O   0  0  0  0  0  0  0  0  0  0  0  0
    3.8743   -1.7605    0.0000 O   0  0  0  0  0  0  0  0  0  0  0  0
    5.4138   -2.7770    0.0000 P   0  0  0  0  0  0  0  0  0  0  0  0
    6.1283   -2.3645    0.0000 O   0  0  0  0  0  0  0  0  0  0  0  0
    5.8263   -3.4914    0.0000 O   0  0  0  0  0  0  0  0  0  0  0  0
    4.6993   -3.1895    0.0000 O   0  0  0  0  0  0  0  0  0  0  0  0
    3.4468   -1.9900    0.0000 H   0  0  0  0  0  0  0  0  0  0  0  0
    5.7158   -0.5800    0.0000 H   0  0  0  0  0  0  0  0  0  0  0  0
    6.6425   -1.1150    0.0000 H   0  0  0  0  0  0  0  0  0  0  0  0
    6.4302   -3.1325    0.0000 H   0  0  0  0  0  0  0  0  0  0  0  0
    7.3568   -2.5975    0.0000 H   0  0  0  0  0  0  0  0  0  0  0  0
    7.1447   -0.5800    0.0000 H   0  0  0  0  0  0  0  0  0  0  0  0
    8.0713   -1.1150    0.0000 H   0  0  0  0  0  0  0  0  0  0  0  0
    7.8592   -3.0470    0.0000 H   0  0  0  0  0  0  0  0  0  0  0  0
   10.0026   -0.5800    0.0000 H   0  0  0  0  0  0  0  0  0  0  0  0
   10.9292   -1.1150    0.0000 H   0  0  0  0  0  0  0  0  0  0  0  0
   10.7171   -3.1325    0.0000 H   0  0  0  0  0  0  0  0  0  0  0  0
   11.6438   -2.5975    0.0000 H   0  0  0  0  0  0  0  0  0  0  0  0
   12.8605   -0.6180    0.0000 H   0  0  0  0  0  0  0  0  0  0  0  0
   14.4686   -1.5465    0.0000 H   0  0  0  0  0  0  0  0  0  0  0  0
   15.1831   -4.6410    0.0000 H   0  0  0  0  0  0  0  0  0  0  0  0
   13.5749   -5.5695    0.0000 H   0  0  0  0  0  0  0  0  0  0  0  0
   11.2523   -3.4035    0.0000 H   0  0  0  0  0  0  0  0  0  0  0  0
   13.6135   -1.2406    0.0000 H   0  0  0  0  0  0  0  0  0  0  0  0
   14.2943   -0.3535    0.0000 H   0  0  0  0  0  0  0  0  0  0  0  0
   15.0073    0.3071    0.0000 H   0  0  0  0  0  0  0  0  0  0  0  0
   16.0613   -0.0661    0.0000 H   0  0  0  0  0  0  0  0  0  0  0  0
   16.9099   -0.5400    0.0000 H   0  0  0  0  0  0  0  0  0  0  0  0
   16.8807   -1.6577    0.0000 H   0  0  0  0  0  0  0  0  0  0  0  0
   17.4807   -3.5945    0.0000 H   0  0  0  0  0  0  0  0  0  0  0  0
   17.8667   -5.4108    0.0000 H   0  0  0  0  0  0  0  0  0  0  0  0
   16.4867   -6.6535    0.0000 H   0  0  0  0  0  0  0  0  0  0  0  0
   14.7205   -6.0795    0.0000 H   0  0  0  0  0  0  0  0  0  0  0  0
    4.6613    0.2065    0.0000 H   0  0  0  0  0  0  0  0  0  0  0  0
    6.1433   -1.4205    0.0000 H   0  0  0  0  0  0  0  0  0  0  0  0
    6.9683   -2.8495    0.0000 H   0  0  0  0  0  0  0  0  0  0  0  0
    5.3413   -4.3315    0.0000 H   0  0  0  0  0  0  0  0  0  0  0  0
  1  2  1  0  0  0  0
  1 45  1  0  0  0  0
  2  3  1  0  0  0  0
  2 37  1  0  0  0  0
  2 41  1  0  0  0  0
  3  4  1  0  0  0  0
  3 46  1  0  0  0  0
  3 47  1  0  0  0  0
  4  5  1  0  0  0  0
  4 48  1  0  0  0  0
  4 49  1  0  0  0  0
  5  6  1  0  0  0  0
  5 50  1  0  0  0  0
  5 51  1  0  0  0  0
  6  7  1  0  0  0  0
  6 52  1  0  0  0  0
  7  8  2  0  0  0  0
  7  9  1  0  0  0  0
  9 10  1  0  0  0  0
 10 11  1  0  0  0  0
 10 53  1  0  0  0  0
 10 54  1  0  0  0  0
 11 12  1  0  0  0  0
 11 55  1  0  0  0  0
 11 56  1  0  0  0  0
 12 13  1  0  0  0  0
 13 14  1  0  0  0  0
 13 22  2  0  0  0  0
 14 15  2  0  0  0  0
 14 57  1  0  0  0  0
 15 16  1  0  0  0  0
 15 58  1  0  0  0  0
 16 17  2  0  0  0  0
 16 21  1  0  0  0  0
 17 18  1  0  0  0  0
 17 23  1  0  0  0  0
 18 19  2  0  0  0  0
 18 59  1  0  0  0  0
 19 20  1  0  0  0  0
 19 60  1  0  0  0  0
 20 21  2  0  0  0  0
 21 22  1  0  0  0  0
 22 61  1  0  0  0  0
 23 24  2  0  0  0  0
 23 30  1  0  0  0  0
 24 25  1  0  0  0  0
 24 28  1  0  0  0  0
 25 26  1  0  0  0  0
 25 62  1  0  0  0  0
 25 63  1  0  0  0  0
 26 27  1  0  0  0  0
 26 64  1  0  0  0  0
 26 65  1  0  0  0  0
 27 28  1  0  0  0  0
 27 66  1  0  0  0  0
 27 67  1  0  0  0  0
 28 29  1  0  0  0  0
 29 30  2  0  0  0  0
 30 31  1  0  0  0  0
 31 32  2  0  0  0  0
 31 36  1  0  0  0  0
 32 33  1  0  0  0  0
 32 68  1  0  0  0  0
 33 34  2  0  0  0  0
 33 69  1  0  0  0  0
 34 35  1  0  0  0  0
 34 70  1  0  0  0  0
 35 36  2  0  0  0  0
 35 71  1  0  0  0  0
 37 38  1  0  0  0  0
 37 39  1  0  0  0  0
 37 40  2  0  0  0  0
 38 72  1  0  0  0  0
 39 73  1  0  0  0  0
 41 42  1  0  0  0  0
 41 43  1  0  0  0  0
 41 44  2  0  0  0  0
 42 74  1  0  0  0  0
 43 75  1  0  0  0  0
M  END
>  <DRUGBANK_ID>
DB18408

>  <COMMON_NAME>
BR-007

>  <CAS_NUMBER>
2409546-40-1

>  <UNII>
87VER89275

>  <SYNONYMS>
(1-hydroxy-4-(((2-((4-(2-(pyridin-2-yl)-5,6-dihydro-4H-pyrrolo[1,2-b]pyrazol-3-yl)quinolin-7-yl)oxy)ethoxy)carbonyl)amino)butane-1,1-diyl)bis(hydrogen phosphonate)

$$$$
