
 OpenBabel10282417072D

 27 26  0  0  0  0  0  0  0  0999 V2000
    1.0717    0.2062    0.0000 C   0  0  0  0  0  0  0  0  0  0  0  0
    1.7861   -0.2062    0.0000 C   0  0  1  0  0  0  0  0  0  0  0  0
    2.5006    0.2062    0.0000 C   0  0  0  0  0  0  0  0  0  0  0  0
    0.3572   -0.2062    0.0000 C   0  0  0  0  0  0  0  0  0  0  0  0
   -0.3572    0.2062    0.0000 C   0  0  0  0  0  0  0  0  0  0  0  0
   -1.0716   -0.2062    0.0000 N   0  0  0  0  0  0  0  0  0  0  0  0
   -1.7861    0.2062    0.0000 C   0  0  0  0  0  0  0  0  0  0  0  0
   -2.5006   -0.2062    0.0000 N   0  0  0  0  0  0  0  0  0  0  0  0
    3.2151   -0.2062    0.0000 O   0  0  0  0  0  0  0  0  0  0  0  0
    1.7861   -1.0312    0.0000 N   0  0  0  0  0  0  0  0  0  0  0  0
    2.5006    1.0312    0.0000 O   0  0  0  0  0  0  0  0  0  0  0  0
   -1.7861    1.0312    0.0000 N   0  0  0  0  0  0  0  0  0  0  0  0
   -3.2151    0.2062    0.0000 O   0  0  0  0  0  0  0  0  0  0  0  0
    1.0717    1.2762    0.0000 H   0  0  0  0  0  0  0  0  0  0  0  0
    0.1451    0.7413    0.0000 H   0  0  0  0  0  0  0  0  0  0  0  0
    0.8595   -0.7412    0.0000 H   0  0  0  0  0  0  0  0  0  0  0  0
    0.3572   -1.2762    0.0000 H   0  0  0  0  0  0  0  0  0  0  0  0
   -0.5694   -0.7412    0.0000 H   0  0  0  0  0  0  0  0  0  0  0  0
   -0.3572    1.2762    0.0000 H   0  0  0  0  0  0  0  0  0  0  0  0
   -1.2838    0.7412    0.0000 H   0  0  0  0  0  0  0  0  0  0  0  0
   -1.0716   -1.1907    0.0000 H   0  0  0  0  0  0  0  0  0  0  0  0
   -2.5006   -1.1907    0.0000 H   0  0  0  0  0  0  0  0  0  0  0  0
    3.2152   -1.1432    0.0000 H   0  0  0  0  0  0  0  0  0  0  0  0
    0.9028   -1.5412    0.0000 H   0  0  0  0  0  0  0  0  0  0  0  0
    2.6694   -1.5412    0.0000 H   0  0  0  0  0  0  0  0  0  0  0  0
   -0.9335    1.5234    0.0000 H   0  0  0  0  0  0  0  0  0  0  0  0
   -3.2152    1.1762    0.0000 H   0  0  0  0  0  0  0  0  0  0  0  0
  1  4  1  0  0  0  0
  1 14  1  0  0  0  0
  1 15  1  0  0  0  0
  2  1  1  0  0  0  0
  2 10  1  0  0  0  0
  2  3  1  0  0  0  0
  2 16  1  6  0  0  0
  3 11  2  0  0  0  0
  3  9  1  0  0  0  0
  4  5  1  0  0  0  0
  4 17  1  0  0  0  0
  4 18  1  0  0  0  0
  5  6  1  0  0  0  0
  5 19  1  0  0  0  0
  5 20  1  0  0  0  0
  6  7  1  0  0  0  0
  6 21  1  0  0  0  0
  7 12  2  0  0  0  0
  7  8  1  0  0  0  0
  8 13  1  0  0  0  0
  8 22  1  0  0  0  0
  9 23  1  0  0  0  0
 10 24  1  0  0  0  0
 10 25  1  0  0  0  0
 12 26  1  0  0  0  0
 13 27  1  0  0  0  0
M  END
>  <DRUGBANK_ID>
DB03144

>  <SECONDARY_ACCESSION_NUMBERS>
EXPT01692

>  <COMMON_NAME>
N(5)-[(hydroxyamino)(imino)methyl]-L-ornithine

>  <UNII>
J2FGL272NZ

>  <SYNONYMS>
N-omega-hydroxy-L-arginine

$$$$
