
 OpenBabel10282417072D

  4  0  0  0  0  0  0  0  0  0999 V2000
    0.0000    0.2500    0.0000 Ga  0  1  0  0  0  0  0  0  0  0  0  0
    0.8660    0.7500    0.0000 Cl  0  5  0  0  0  0  0  0  0  0  0  0
   -0.8660    0.7500    0.0000 Cl  0  5  0  0  0  0  0  0  0  0  0  0
    0.0000   -0.7500    0.0000 Cl  0  5  0  0  0  0  0  0  0  0  0  0
M  ISO  1   1  67
M  CHG  4   1   3   2  -1   3  -1   4  -1
M  END
>  <DRUGBANK_ID>
DB14550

>  <COMMON_NAME>
Gallium chloride Ga-67

>  <UNII>
A04B19O2B0

>  <SYNONYMS>
Gallium (67Ga) chloride; Gallium (Ga-67) chloride; Gallium chloride Ga 67; Gallium chloride, Ga-67; Gallium chloride,Ga-67

$$$$
