Creatinine.mol
 OpenBabel10282417072D

 15 15  0  0  0  0  0  0  0  0999 V2000
    0.0711   -0.6674    0.0000 N   0  0  0  0  0  0  0  0  0  0  0  0
   -0.7136   -0.4125    0.0000 C   0  0  0  0  0  0  0  0  0  0  0  0
   -1.3810   -0.8974    0.0000 N   0  0  0  0  0  0  0  0  0  0  0  0
   -0.7136    0.4125    0.0000 N   0  0  0  0  0  0  0  0  0  0  0  0
   -1.3810    0.8974    0.0000 C   0  0  0  0  0  0  0  0  0  0  0  0
    0.0711    0.6674    0.0000 C   0  0  0  0  0  0  0  0  0  0  0  0
    0.5560    0.0000    0.0000 C   0  0  0  0  0  0  0  0  0  0  0  0
    1.3810    0.0000    0.0000 O   0  0  0  0  0  0  0  0  0  0  0  0
    0.3754   -1.6037    0.0000 H   0  0  0  0  0  0  0  0  0  0  0  0
   -2.2804   -0.4970    0.0000 H   0  0  0  0  0  0  0  0  0  0  0  0
   -1.2691    1.9615    0.0000 H   0  0  0  0  0  0  0  0  0  0  0  0
   -2.3585    0.4622    0.0000 H   0  0  0  0  0  0  0  0  0  0  0  0
   -2.2466    1.5263    0.0000 H   0  0  0  0  0  0  0  0  0  0  0  0
    0.4018    1.6850    0.0000 H   0  0  0  0  0  0  0  0  0  0  0  0
    1.1279    0.8348    0.0000 H   0  0  0  0  0  0  0  0  0  0  0  0
  1  2  1  0  0  0  0
  1  7  1  0  0  0  0
  1  9  1  0  0  0  0
  2  3  2  0  0  0  0
  2  4  1  0  0  0  0
  3 10  1  0  0  0  0
  4  5  1  0  0  0  0
  4  6  1  0  0  0  0
  5 11  1  0  0  0  0
  5 12  1  0  0  0  0
  5 13  1  0  0  0  0
  6  7  1  0  0  0  0
  6 14  1  0  0  0  0
  6 15  1  0  0  0  0
  7  8  2  0  0  0  0
M  END
>  <DRUGBANK_ID>
DB11846

>  <COMMON_NAME>
Creatinine

>  <CAS_NUMBER>
60-27-5

>  <UNII>
AYI8EX34EU

>  <SYNONYMS>
creatinina

$$$$
