
 OpenBabel10282417072D

110117  0  0  1  0  0  0  0  0999 V2000
    3.1039   -2.8203    0.0000 C   0  0  0  0  0  0  0  0  0  0  0  0
    2.3087   -2.6005    0.0000 O   0  0  0  0  0  0  0  0  0  0  0  0
    2.1015   -1.8019    0.0000 C   0  0  2  0  0  0  0  0  0  0  0  0
    1.3511   -2.1446    0.0000 C   0  0  0  0  0  0  0  0  0  0  0  0
    1.2727   -2.9659    0.0000 N   0  0  0  0  0  0  0  0  0  0  0  0
    1.9447   -3.4444    0.0000 C   0  0  0  0  0  0  0  0  0  0  0  0
    1.8663   -4.2657    0.0000 C   0  0  0  0  0  0  0  0  0  0  0  0
    1.1158   -4.6084    0.0000 N   0  0  1  0  0  0  0  0  0  0  0  0
    1.0374   -5.4297    0.0000 C   0  0  0  0  0  0  0  0  0  0  0  0
    0.2870   -5.7724    0.0000 C   0  0  0  0  0  0  0  0  0  0  0  0
   -0.3851   -5.2939    0.0000 C   0  0  0  0  0  0  0  0  0  0  0  0
   -0.3067   -4.4726    0.0000 C   0  0  0  0  0  0  0  0  0  0  0  0
    0.4438   -4.1299    0.0000 C   0  0  2  0  0  0  0  0  0  0  0  0
    0.5222   -3.3086    0.0000 C   0  0  0  0  0  0  0  0  0  0  0  0
    1.6337   -1.1224    0.0000 C   0  0  0  0  0  0  0  0  0  0  0  0
    0.8113   -1.1878    0.0000 C   0  0  0  0  0  0  0  0  0  0  0  0
    0.3435   -0.5082    0.0000 C   0  0  0  0  0  0  0  0  0  0  0  0
    0.6981    0.2367    0.0000 C   0  0  2  0  0  0  0  0  0  0  0  0
    1.5205    0.3021    0.0000 C   0  0  0  0  0  0  0  0  0  0  0  0
    0.2302    0.9162    0.0000 C   0  0  1  0  0  0  0  0  0  0  0  0
   -0.5922    0.8508    0.0000 C   0  0  0  0  0  0  0  0  0  0  0  0
    0.5848    1.6611    0.0000 S   0  0  0  0  0  0  0  0  0  0  0  0
   -0.2104    1.8810    0.0000 O   0  0  0  0  0  0  0  0  0  0  0  0
    0.6632    2.4824    0.0000 O   0  0  0  0  0  0  0  0  0  0  0  0
    1.4072    1.7265    0.0000 N   0  0  0  0  0  0  0  0  0  0  0  0
    1.8750    1.0470    0.0000 C   0  0  0  0  0  0  0  0  0  0  0  0
    2.0260    0.2359    0.0000 O   0  0  0  0  0  0  0  0  0  0  0  0
    2.6974    1.1124    0.0000 C   0  0  0  0  0  0  0  0  0  0  0  0
    3.0121    1.8750    0.0000 C   0  0  0  0  0  0  0  0  0  0  0  0
    3.8299    1.9839    0.0000 C   0  0  0  0  0  0  0  0  0  0  0  0
    4.3330    1.3301    0.0000 C   0  0  0  0  0  0  0  0  0  0  0  0
    5.1255    1.5596    0.0000 O   0  0  0  0  0  0  0  0  0  0  0  0
    5.7990    1.0831    0.0000 C   0  0  0  0  0  0  0  0  0  0  0  0
    6.1762    0.3766    0.0000 C   0  0  1  0  0  0  0  0  0  0  0  0
    6.8300    0.8798    0.0000 C   0  0  0  0  0  0  0  0  0  0  0  0
    7.5927    0.5651    0.0000 C   0  0  0  0  0  0  0  0  0  0  0  0
    7.4888   -0.6996    0.0000 C   0  0  0  0  0  0  0  0  0  0  0  0
    6.7179   -0.8729    0.0000 C   0  0  0  0  0  0  0  0  0  0  0  0
    7.3717   -0.3698    0.0000 C   0  0  0  0  0  0  0  0  0  0  0  0
    7.2628    0.4480    0.0000 C   0  0  0  0  0  0  0  0  0  0  0  0
    7.9166    0.9512    0.0000 Cl  0  0  0  0  0  0  0  0  0  0  0  0
    6.5002    0.7627    0.0000 C   0  0  0  0  0  0  0  0  0  0  0  0
    5.8464    0.2595    0.0000 C   0  0  0  0  0  0  0  0  0  0  0  0
    5.9552   -0.5583    0.0000 C   0  0  0  0  0  0  0  0  0  0  0  0
    5.2320   -0.2911    0.0000 C   0  0  0  0  0  0  0  0  0  0  0  0
    4.4555   -0.1813    0.0000 N   0  0  0  0  0  0  0  0  0  0  0  0
    4.1009   -0.9262    0.0000 C   0  0  0  0  0  0  0  0  0  0  0  0
    3.2785   -0.9916    0.0000 C   0  0  2  0  0  0  0  0  0  0  0  0
    2.5336   -0.6370    0.0000 C   0  0  0  0  0  0  0  0  0  0  0  0
    2.1790   -1.3819    0.0000 C   0  0  0  0  0  0  0  0  0  0  0  0
    2.9239   -1.7365    0.0000 C   0  0  1  0  0  0  0  0  0  0  0  0
    3.9877    0.4982    0.0000 C   0  0  0  0  0  0  0  0  0  0  0  0
    3.1653    0.4328    0.0000 C   0  0  0  0  0  0  0  0  0  0  0  0
    3.3727   -3.8560    0.0000 H   0  0  0  0  0  0  0  0  0  0  0  0
    3.8664   -2.0697    0.0000 H   0  0  0  0  0  0  0  0  0  0  0  0
    4.1352   -3.1054    0.0000 H   0  0  0  0  0  0  0  0  0  0  0  0
    0.4795   -1.5240    0.0000 H   0  0  0  0  0  0  0  0  0  0  0  0
    0.3778   -2.5891    0.0000 H   0  0  0  0  0  0  0  0  0  0  0  0
    2.9180   -2.9999    0.0000 H   0  0  0  0  0  0  0  0  0  0  0  0
    2.8163   -4.0650    0.0000 H   0  0  0  0  0  0  0  0  0  0  0  0
    2.7379   -4.8864    0.0000 H   0  0  0  0  0  0  0  0  0  0  0  0
    1.7646   -5.3309    0.0000 H   0  0  0  0  0  0  0  0  0  0  0  0
    1.9090   -6.0503    0.0000 H   0  0  0  0  0  0  0  0  0  0  0  0
    0.9357   -6.4949    0.0000 H   0  0  0  0  0  0  0  0  0  0  0  0
    0.1853   -6.8376    0.0000 H   0  0  0  0  0  0  0  0  0  0  0  0
   -0.6863   -6.2170    0.0000 H   0  0  0  0  0  0  0  0  0  0  0  0
   -1.3584   -5.7385    0.0000 H   0  0  0  0  0  0  0  0  0  0  0  0
   -1.2567   -4.6733    0.0000 H   0  0  0  0  0  0  0  0  0  0  0  0
   -1.1783   -3.8519    0.0000 H   0  0  0  0  0  0  0  0  0  0  0  0
   -0.2050   -3.4074    0.0000 H   0  0  0  0  0  0  0  0  0  0  0  0
    0.3421   -5.1951    0.0000 H   0  0  0  0  0  0  0  0  0  0  0  0
   -0.3494   -2.6879    0.0000 H   0  0  0  0  0  0  0  0  0  0  0  0
    0.6239   -2.2434    0.0000 H   0  0  0  0  0  0  0  0  0  0  0  0
    2.0772   -0.1906    0.0000 H   0  0  0  0  0  0  0  0  0  0  0  0
    0.3677   -2.1196    0.0000 H   0  0  0  0  0  0  0  0  0  0  0  0
   -0.7231   -0.5929    0.0000 H   0  0  0  0  0  0  0  0  0  0  0  0
   -0.2632    0.3732    0.0000 H   0  0  0  0  0  0  0  0  0  0  0  0
    1.3049   -0.6446    0.0000 H   0  0  0  0  0  0  0  0  0  0  0  0
    2.1273   -0.5792    0.0000 H   0  0  0  0  0  0  0  0  0  0  0  0
    1.9804    1.2682    0.0000 H   0  0  0  0  0  0  0  0  0  0  0  0
    2.5871    0.3869    0.0000 H   0  0  0  0  0  0  0  0  0  0  0  0
   -0.2296   -0.0500    0.0000 H   0  0  0  0  0  0  0  0  0  0  0  0
   -1.1990    1.7321    0.0000 H   0  0  0  0  0  0  0  0  0  0  0  0
   -1.0521   -0.1153    0.0000 H   0  0  0  0  0  0  0  0  0  0  0  0
   -1.6588    0.7660    0.0000 H   0  0  0  0  0  0  0  0  0  0  0  0
    1.8303    2.6154    0.0000 H   0  0  0  0  0  0  0  0  0  0  0  0
    2.3827    2.6929    0.0000 H   0  0  0  0  0  0  0  0  0  0  0  0
    4.2235    2.9379    0.0000 H   0  0  0  0  0  0  0  0  0  0  0  0
    6.6015    1.7908    0.0000 H   0  0  0  0  0  0  0  0  0  0  0  0
    6.8519    0.8928    0.0000 H   0  0  0  0  0  0  0  0  0  0  0  0
    6.6888    1.9404    0.0000 H   0  0  0  0  0  0  0  0  0  0  0  0
    7.6780    1.5324    0.0000 H   0  0  0  0  0  0  0  0  0  0  0  0
    8.5056    1.1232    0.0000 H   0  0  0  0  0  0  0  0  0  0  0  0
    8.5038    0.0040    0.0000 H   0  0  0  0  0  0  0  0  0  0  0  0
    8.2962   -1.4018    0.0000 H   0  0  0  0  0  0  0  0  0  0  0  0
    7.2268   -1.7370    0.0000 H   0  0  0  0  0  0  0  0  0  0  0  0
    8.3257   -0.7634    0.0000 H   0  0  0  0  0  0  0  0  0  0  0  0
    6.3641    1.7857    0.0000 H   0  0  0  0  0  0  0  0  0  0  0  0
    4.8924    0.6531    0.0000 H   0  0  0  0  0  0  0  0  0  0  0  0
    5.4838   -1.3311    0.0000 H   0  0  0  0  0  0  0  0  0  0  0  0
    4.5130   -1.0835    0.0000 H   0  0  0  0  0  0  0  0  0  0  0  0
    4.7077   -1.8075    0.0000 H   0  0  0  0  0  0  0  0  0  0  0  0
    3.6410   -1.8923    0.0000 H   0  0  0  0  0  0  0  0  0  0  0  0
    3.4727    0.0606    0.0000 H   0  0  0  0  0  0  0  0  0  0  0  0
    2.1757    0.3714    0.0000 H   0  0  0  0  0  0  0  0  0  0  0  0
    1.4650   -0.5818    0.0000 H   0  0  0  0  0  0  0  0  0  0  0  0
    1.1706   -1.7398    0.0000 H   0  0  0  0  0  0  0  0  0  0  0  0
    2.1238   -2.4505    0.0000 H   0  0  0  0  0  0  0  0  0  0  0  0
    1.8717   -1.5423    0.0000 H   0  0  0  0  0  0  0  0  0  0  0  0
    2.7218   -0.4990    0.0000 H   0  0  0  0  0  0  0  0  0  0  0  0
  1  2  1  0  0  0  0
  1 54  1  0  0  0  0
  1 55  1  0  0  0  0
  1 56  1  0  0  0  0
  3  2  1  6  0  0  0
  3  4  1  0  0  0  0
  3 15  1  0  0  0  0
  4  5  1  0  0  0  0
  4 57  1  0  0  0  0
  4 58  1  0  0  0  0
  5  6  1  0  0  0  0
  5 14  1  0  0  0  0
  6  7  1  0  0  0  0
  6 59  1  0  0  0  0
  6 60  1  0  0  0  0
  7 61  1  0  0  0  0
  7 62  1  0  0  0  0
  8  7  1  1  0  0  0
  8  9  1  0  0  0  0
  8 13  1  0  0  0  0
  9 10  1  0  0  0  0
  9 63  1  0  0  0  0
  9 64  1  0  0  0  0
 10 11  1  0  0  0  0
 10 65  1  0  0  0  0
 10 66  1  0  0  0  0
 11 12  1  0  0  0  0
 11 67  1  0  0  0  0
 11 68  1  0  0  0  0
 12 69  1  0  0  0  0
 12 70  1  0  0  0  0
 13 12  1  0  0  0  0
 13 14  1  0  0  0  0
 13 71  1  1  0  0  0
 14 72  1  0  0  0  0
 14 73  1  0  0  0  0
 15 16  2  0  0  0  0
 15 74  1  0  0  0  0
 16 17  1  0  0  0  0
 16 75  1  0  0  0  0
 17 76  1  0  0  0  0
 17 77  1  0  0  0  0
 18 17  1  0  0  0  0
 18 19  1  0  0  0  0
 18 20  1  0  0  0  0
 18 78  1  6  0  0  0
 19 79  1  0  0  0  0
 19 80  1  0  0  0  0
 19 81  1  0  0  0  0
 20 21  1  0  0  0  0
 20 22  1  0  0  0  0
 20 82  1  6  0  0  0
 21 83  1  0  0  0  0
 21 84  1  0  0  0  0
 21 85  1  0  0  0  0
 22 23  2  0  0  0  0
 22 24  2  0  0  0  0
 22 25  1  0  0  0  0
 25 26  1  0  0  0  0
 25 86  1  0  0  0  0
 26 27  2  0  0  0  0
 26 28  1  0  0  0  0
 28 29  2  0  0  0  0
 28 53  1  0  0  0  0
 29 30  1  0  0  0  0
 29 87  1  0  0  0  0
 30 31  2  0  0  0  0
 30 88  1  0  0  0  0
 31 32  1  0  0  0  0
 31 52  1  0  0  0  0
 32 33  1  0  0  0  0
 33 89  1  0  0  0  0
 33 90  1  0  0  0  0
 34 33  1  0  0  0  0
 34 35  1  0  0  0  0
 34 44  1  1  0  0  0
 34 45  1  0  0  0  0
 35 36  1  0  0  0  0
 35 91  1  0  0  0  0
 35 92  1  0  0  0  0
 36 37  1  0  0  0  0
 36 93  1  0  0  0  0
 36 94  1  0  0  0  0
 37 38  1  0  0  0  0
 37 95  1  0  0  0  0
 37 96  1  0  0  0  0
 38 39  2  0  0  0  0
 38 44  1  0  0  0  0
 39 40  1  0  0  0  0
 39 97  1  0  0  0  0
 40 41  1  0  0  0  0
 40 42  2  0  0  0  0
 42 43  1  0  0  0  0
 42 98  1  0  0  0  0
 43 44  2  0  0  0  0
 43 99  1  0  0  0  0
 45 46  1  0  0  0  0
 45100  1  0  0  0  0
 45101  1  0  0  0  0
 46 47  1  0  0  0  0
 46 52  1  0  0  0  0
 47102  1  0  0  0  0
 47103  1  0  0  0  0
 48 47  1  0  0  0  0
 48 49  1  0  0  0  0
 48104  1  6  0  0  0
 49 50  1  0  0  0  0
 49105  1  0  0  0  0
 49106  1  0  0  0  0
 50107  1  0  0  0  0
 50108  1  0  0  0  0
 51 50  1  0  0  0  0
 51  3  1  0  0  0  0
 51 48  1  0  0  0  0
 51109  1  1  0  0  0
 52 53  2  0  0  0  0
 53110  1  0  0  0  0
M  END
>  <DRUGBANK_ID>
DB17977

>  <COMMON_NAME>
Murizatoclax

>  <CAS_NUMBER>
2245848-05-7

>  <UNII>
BO0V7196L2

>  <SYNONYMS>
Murizatoclax

$$$$
