LAZ
 OpenBabel10282417072D

 23 23  0  0  0  0  0  0  0  0999 V2000
   -0.0081   -1.3559    0.0000 O   0  0  0  0  0  0  0  0  0  0  0  0
   -0.0081   -0.5309    0.0000 C   0  0  0  0  0  0  0  0  0  0  0  0
    0.7064   -0.1184    0.0000 N   0  0  0  0  0  0  0  0  0  0  0  0
    1.4208   -0.5309    0.0000 C   0  0  0  0  0  0  0  0  0  0  0  0
    2.1353   -0.1184    0.0000 C   0  0  0  0  0  0  0  0  0  0  0  0
    2.8498   -0.5309    0.0000 O   0  0  0  0  0  0  0  0  0  0  0  0
   -0.7226   -0.1184    0.0000 C   0  0  0  0  0  0  0  0  0  0  0  0
   -1.4370   -0.5309    0.0000 C   0  0  0  0  0  0  0  0  0  0  0  0
   -2.1515   -0.1184    0.0000 C   0  0  0  0  0  0  0  0  0  0  0  0
   -2.1515    0.7066    0.0000 C   0  0  0  0  0  0  0  0  0  0  0  0
   -2.8660    1.1191    0.0000 Cl  0  0  0  0  0  0  0  0  0  0  0  0
   -1.4370    1.1191    0.0000 C   0  0  0  0  0  0  0  0  0  0  0  0
   -0.7226    0.7066    0.0000 C   0  0  0  0  0  0  0  0  0  0  0  0
    0.7064    0.8661    0.0000 H   0  0  0  0  0  0  0  0  0  0  0  0
    1.4208   -1.6009    0.0000 H   0  0  0  0  0  0  0  0  0  0  0  0
    2.3474   -1.0659    0.0000 H   0  0  0  0  0  0  0  0  0  0  0  0
    2.1353    0.9516    0.0000 H   0  0  0  0  0  0  0  0  0  0  0  0
    3.0619    0.4166    0.0000 H   0  0  0  0  0  0  0  0  0  0  0  0
    2.8498   -1.5009    0.0000 H   0  0  0  0  0  0  0  0  0  0  0  0
   -1.4370   -1.5629    0.0000 H   0  0  0  0  0  0  0  0  0  0  0  0
   -3.0452   -0.6344    0.0000 H   0  0  0  0  0  0  0  0  0  0  0  0
   -1.4370    2.1511    0.0000 H   0  0  0  0  0  0  0  0  0  0  0  0
    0.1711    1.2226    0.0000 H   0  0  0  0  0  0  0  0  0  0  0  0
  1  2  2  0  0  0  0
  2  3  1  0  0  0  0
  2  7  1  0  0  0  0
  3  4  1  0  0  0  0
  3 14  1  0  0  0  0
  4  5  1  0  0  0  0
  4 15  1  0  0  0  0
  4 16  1  0  0  0  0
  5  6  1  0  0  0  0
  5 17  1  0  0  0  0
  5 18  1  0  0  0  0
  6 19  1  0  0  0  0
  7  8  2  0  0  0  0
  7 13  1  0  0  0  0
  8  9  1  0  0  0  0
  8 20  1  0  0  0  0
  9 10  2  0  0  0  0
  9 21  1  0  0  0  0
 10 11  1  0  0  0  0
 10 12  1  0  0  0  0
 12 13  2  0  0  0  0
 12 22  1  0  0  0  0
 13 23  1  0  0  0  0
M  END
>  <DRUGBANK_ID>
DB08082

>  <COMMON_NAME>
N-(2-AMINOETHYL)-P-CHLOROBENZAMIDE

>  <UNII>
9CYV9RP6X6

$$$$
