
 OpenBabel10282417072D

 52 54  0  0  1  0  0  0  0  0999 V2000
    2.0930    1.6502    0.0000 O   0  0  0  0  0  0  0  0  0  0  0  0
    7.1606    1.9017    0.0000 N   0  0  0  0  0  0  0  0  0  0  0  0
    4.2365    2.0627    0.0000 N   0  0  0  0  0  0  0  0  0  0  0  0
    5.6655    2.0627    0.0000 N   0  0  0  0  0  0  0  0  0  0  0  0
    7.1606    0.5738    0.0000 N   0  0  0  0  0  0  0  0  0  0  0  0
    4.9509    0.8252    0.0000 N   0  0  0  0  0  0  0  0  0  0  0  0
    5.6655   -0.4123    0.0000 N   0  0  0  0  0  0  0  0  0  0  0  0
    7.4169    2.6858    0.0000 C   0  0  0  0  0  0  0  0  0  0  0  0
    3.5220    1.6502    0.0000 C   0  0  2  0  0  0  0  0  0  0  0  0
    6.3799    1.6502    0.0000 C   0  0  0  0  0  0  0  0  0  0  0  0
    6.3799    0.8252    0.0000 C   0  0  0  0  0  0  0  0  0  0  0  0
    3.5220    0.8252    0.0000 C   0  0  0  0  0  0  0  0  0  0  0  0
    5.6655    0.4127    0.0000 C   0  0  0  0  0  0  0  0  0  0  0  0
    4.9509    1.6502    0.0000 C   0  0  0  0  0  0  0  0  0  0  0  0
    7.6421    1.2377    0.0000 C   0  0  0  0  0  0  0  0  0  0  0  0
    8.2242    2.8560    0.0000 C   0  0  0  0  0  0  0  0  0  0  0  0
    6.8659    3.2999    0.0000 C   0  0  0  0  0  0  0  0  0  0  0  0
    2.8075    2.0627    0.0000 C   0  0  0  0  0  0  0  0  0  0  0  0
    2.8075    0.4127    0.0000 C   0  0  0  0  0  0  0  0  0  0  0  0
    4.9509   -0.8249    0.0000 C   0  0  0  0  0  0  0  0  0  0  0  0
    4.9509   -1.6499    0.0000 C   0  0  0  0  0  0  0  0  0  0  0  0
    5.6655   -2.0624    0.0000 C   0  0  0  0  0  0  0  0  0  0  0  0
    4.2365   -2.0624    0.0000 C   0  0  0  0  0  0  0  0  0  0  0  0
    5.6655   -2.8874    0.0000 C   0  0  0  0  0  0  0  0  0  0  0  0
    4.2365   -2.8874    0.0000 C   0  0  0  0  0  0  0  0  0  0  0  0
    4.9509   -3.2999    0.0000 C   0  0  0  0  0  0  0  0  0  0  0  0
    1.2530    2.1352    0.0000 H   0  0  0  0  0  0  0  0  0  0  0  0
    4.2365    3.0472    0.0000 H   0  0  0  0  0  0  0  0  0  0  0  0
    6.5181   -0.9045    0.0000 H   0  0  0  0  0  0  0  0  0  0  0  0
    7.7493    3.7029    0.0000 H   0  0  0  0  0  0  0  0  0  0  0  0
    4.4486    1.1152    0.0000 H   0  0  0  0  0  0  0  0  0  0  0  0
    4.4486    0.2902    0.0000 H   0  0  0  0  0  0  0  0  0  0  0  0
    3.5220   -0.2448    0.0000 H   0  0  0  0  0  0  0  0  0  0  0  0
    8.6741    1.2377    0.0000 H   0  0  0  0  0  0  0  0  0  0  0  0
    8.9389    2.0597    0.0000 H   0  0  0  0  0  0  0  0  0  0  0  0
    8.5565    3.8731    0.0000 H   0  0  0  0  0  0  0  0  0  0  0  0
    9.2712    3.0767    0.0000 H   0  0  0  0  0  0  0  0  0  0  0  0
    7.1983    4.3170    0.0000 H   0  0  0  0  0  0  0  0  0  0  0  0
    5.8189    3.0793    0.0000 H   0  0  0  0  0  0  0  0  0  0  0  0
    6.1513    4.0963    0.0000 H   0  0  0  0  0  0  0  0  0  0  0  0
    2.8075    3.1327    0.0000 H   0  0  0  0  0  0  0  0  0  0  0  0
    3.7341    2.5977    0.0000 H   0  0  0  0  0  0  0  0  0  0  0  0
    1.8809    0.9477    0.0000 H   0  0  0  0  0  0  0  0  0  0  0  0
    2.8075   -0.6573    0.0000 H   0  0  0  0  0  0  0  0  0  0  0  0
    1.8808   -0.1223    0.0000 H   0  0  0  0  0  0  0  0  0  0  0  0
    4.0242   -0.2899    0.0000 H   0  0  0  0  0  0  0  0  0  0  0  0
    4.0243   -1.3599    0.0000 H   0  0  0  0  0  0  0  0  0  0  0  0
    6.5592   -1.5464    0.0000 H   0  0  0  0  0  0  0  0  0  0  0  0
    3.3428   -1.5464    0.0000 H   0  0  0  0  0  0  0  0  0  0  0  0
    6.5592   -3.4034    0.0000 H   0  0  0  0  0  0  0  0  0  0  0  0
    3.3428   -3.4034    0.0000 H   0  0  0  0  0  0  0  0  0  0  0  0
    4.9508   -4.3319    0.0000 H   0  0  0  0  0  0  0  0  0  0  0  0
  1 18  1  0  0  0  0
  1 27  1  0  0  0  0
  2  8  1  0  0  0  0
  2 10  1  0  0  0  0
  2 15  1  0  0  0  0
  3 14  1  0  0  0  0
  3 28  1  0  0  0  0
  4 10  2  0  0  0  0
  4 14  1  0  0  0  0
  5 11  1  0  0  0  0
  5 15  2  0  0  0  0
  6 13  1  0  0  0  0
  6 14  2  0  0  0  0
  7 13  1  0  0  0  0
  7 20  1  0  0  0  0
  7 29  1  0  0  0  0
  8 16  1  0  0  0  0
  8 17  1  0  0  0  0
  8 30  1  0  0  0  0
  9  3  1  0  0  0  0
  9 12  1  0  0  0  0
  9 18  1  0  0  0  0
  9 31  1  1  0  0  0
 10 11  1  0  0  0  0
 11 13  2  0  0  0  0
 12 19  1  0  0  0  0
 12 32  1  0  0  0  0
 12 33  1  0  0  0  0
 15 34  1  0  0  0  0
 16 35  1  0  0  0  0
 16 36  1  0  0  0  0
 16 37  1  0  0  0  0
 17 38  1  0  0  0  0
 17 39  1  0  0  0  0
 17 40  1  0  0  0  0
 18 41  1  0  0  0  0
 18 42  1  0  0  0  0
 19 43  1  0  0  0  0
 19 44  1  0  0  0  0
 19 45  1  0  0  0  0
 20 21  1  0  0  0  0
 20 46  1  0  0  0  0
 20 47  1  0  0  0  0
 21 22  2  0  0  0  0
 21 23  1  0  0  0  0
 22 24  1  0  0  0  0
 22 48  1  0  0  0  0
 23 25  2  0  0  0  0
 23 49  1  0  0  0  0
 24 26  2  0  0  0  0
 24 50  1  0  0  0  0
 25 26  1  0  0  0  0
 25 51  1  0  0  0  0
 26 52  1  0  0  0  0
M  END
>  <DRUGBANK_ID>
DB06195

>  <COMMON_NAME>
Seliciclib

>  <CAS_NUMBER>
186692-46-6

>  <UNII>
0ES1C2KQ94

>  <SYNONYMS>
2-(R)-(1-ethyl-2-hydroxyethylamino)-6-benzylamino-9-isopropylpurine; R-roscovitine; Seliciclib

$$$$
