24I
 OpenBabel10282417072D

 37 37  0  0  0  0  0  0  0  0999 V2000
   -2.6687    0.8781    0.0000 O   0  0  0  0  0  0  0  0  0  0  0  0
   -2.0451    0.3380    0.0000 C   0  0  0  0  0  0  0  0  0  0  0  0
   -2.2010   -0.4722    0.0000 O   0  0  0  0  0  0  0  0  0  0  0  0
   -1.2655    0.6080    0.0000 C   0  0  0  0  0  0  0  0  0  0  0  0
   -0.6419    0.0679    0.0000 C   0  0  0  0  0  0  0  0  0  0  0  0
    0.1376    0.3380    0.0000 C   0  0  1  0  0  0  0  0  0  0  0  0
    0.2936    1.1481    0.0000 C   0  0  0  0  0  0  0  0  0  0  0  0
    1.0731    1.4182    0.0000 O   0  0  0  0  0  0  0  0  0  0  0  0
   -0.3301    1.6882    0.0000 O   0  0  0  0  0  0  0  0  0  0  0  0
    0.7613   -0.2021    0.0000 C   0  0  0  0  0  0  0  0  0  0  0  0
    1.5408    0.0679    0.0000 P   0  0  1  0  0  0  0  0  0  0  0  0
    1.8109   -0.7116    0.0000 O   0  0  0  0  0  0  0  0  0  0  0  0
    1.2708    0.8475    0.0000 O   0  0  0  0  0  0  0  0  0  0  0  0
    2.3204    0.3380    0.0000 C   0  0  0  0  0  0  0  0  0  0  0  0
    2.9440   -0.2021    0.0000 C   0  0  0  0  0  0  0  0  0  0  0  0
    3.7236    0.0679    0.0000 C   0  0  0  0  0  0  0  0  0  0  0  0
    4.3472   -0.4722    0.0000 C   0  0  0  0  0  0  0  0  0  0  0  0
    2.7881   -1.0122    0.0000 C   0  0  0  0  0  0  0  0  0  0  0  0
    3.4118   -1.5523    0.0000 C   0  0  0  0  0  0  0  0  0  0  0  0
    4.1913   -1.2823    0.0000 C   0  0  0  0  0  0  0  0  0  0  0  0
    4.8150   -1.8224    0.0000 I   0  0  0  0  0  0  0  0  0  0  0  0
   -0.3038    0.7202    0.0000 H   0  0  0  0  0  0  0  0  0  0  0  0
   -3.0864   -0.7789    0.0000 H   0  0  0  0  0  0  0  0  0  0  0  0
   -1.0632    1.6587    0.0000 H   0  0  0  0  0  0  0  0  0  0  0  0
   -0.2544    0.9582    0.0000 H   0  0  0  0  0  0  0  0  0  0  0  0
   -0.8441   -0.9828    0.0000 H   0  0  0  0  0  0  0  0  0  0  0  0
    0.1670   -0.6325    0.0000 H   0  0  0  0  0  0  0  0  0  0  0  0
    1.7815    0.8048    0.0000 H   0  0  0  0  0  0  0  0  0  0  0  0
    0.5591   -1.2528    0.0000 H   0  0  0  0  0  0  0  0  0  0  0  0
    1.5701   -0.9026    0.0000 H   0  0  0  0  0  0  0  0  0  0  0  0
    1.9059    1.5807    0.0000 H   0  0  0  0  0  0  0  0  0  0  0  0
    2.5226    1.3887    0.0000 H   0  0  0  0  0  0  0  0  0  0  0  0
    3.3315    0.6882    0.0000 H   0  0  0  0  0  0  0  0  0  0  0  0
    3.9187    1.0813    0.0000 H   0  0  0  0  0  0  0  0  0  0  0  0
    5.3224   -0.1344    0.0000 H   0  0  0  0  0  0  0  0  0  0  0  0
    1.8130   -1.3500    0.0000 H   0  0  0  0  0  0  0  0  0  0  0  0
    3.2168   -2.5657    0.0000 H   0  0  0  0  0  0  0  0  0  0  0  0
  1  2  2  0  0  0  0
  2  3  1  0  0  0  0
  2  4  1  0  0  0  0
  3 23  1  0  0  0  0
  4  5  1  0  0  0  0
  4 24  1  0  0  0  0
  4 25  1  0  0  0  0
  5  6  1  0  0  0  0
  5 26  1  0  0  0  0
  5 27  1  0  0  0  0
  6  7  1  0  0  0  0
  6 10  1  0  0  0  0
  6 22  1  6  0  0  0
  7  8  1  0  0  0  0
  7  9  2  0  0  0  0
  8 28  1  0  0  0  0
 10 11  1  0  0  0  0
 10 29  1  0  0  0  0
 10 30  1  0  0  0  0
 11 12  2  6  0  0  0
 11 13  1  0  0  0  0
 11 14  1  0  0  0  0
 13 31  1  0  0  0  0
 14 15  1  0  0  0  0
 14 32  1  0  0  0  0
 14 33  1  0  0  0  0
 15 16  2  0  0  0  0
 15 18  1  0  0  0  0
 16 17  1  0  0  0  0
 16 34  1  0  0  0  0
 17 20  2  0  0  0  0
 17 35  1  0  0  0  0
 18 19  2  0  0  0  0
 18 36  1  0  0  0  0
 19 20  1  0  0  0  0
 19 37  1  0  0  0  0
 20 21  1  0  0  0  0
M  END
>  <DRUGBANK_ID>
DB06928

>  <COMMON_NAME>
(2S)-2-{[HYDROXY(4-IODOBENZYL)PHOSPHORYL]METHYL}PENTANEDIOIC ACID

$$$$
