496
 OpenBabel10282417072D

 62 66  0  0  1  0  0  0  0  0999 V2000
    3.2716    1.3928    0.0000 O   0  0  0  0  0  0  0  0  0  0  0  0
   10.5908   -1.4435    0.0000 O   0  0  0  0  0  0  0  0  0  0  0  0
    6.2378    0.0455    0.0000 N   0  0  0  0  0  0  0  0  0  0  0  0
    4.3609    1.8109    0.0000 N   0  0  0  0  0  0  0  0  0  0  0  0
    4.9320    0.3230    0.0000 C   0  0  2  0  0  0  0  0  0  0  0  0
    4.1116    0.2368    0.0000 C   0  0  0  0  0  0  0  0  0  0  0  0
    5.3446    1.0375    0.0000 C   0  0  0  0  0  0  0  0  0  0  0  0
    5.4841   -0.2902    0.0000 C   0  0  0  0  0  0  0  0  0  0  0  0
    6.1515    0.8659    0.0000 C   0  0  0  0  0  0  0  0  0  0  0  0
    6.9523   -0.3671    0.0000 C   0  0  0  0  0  0  0  0  0  0  0  0
    3.2910    0.1505    0.0000 C   0  0  0  0  0  0  0  0  0  0  0  0
    4.1978   -0.5838    0.0000 C   0  0  0  0  0  0  0  0  0  0  0  0
    4.0253    1.0573    0.0000 C   0  0  0  0  0  0  0  0  0  0  0  0
    7.6667    0.0455    0.0000 C   0  0  0  0  0  0  0  0  0  0  0  0
    2.8061    0.8179    0.0000 C   0  0  0  0  0  0  0  0  0  0  0  0
    3.5303   -1.0687    0.0000 C   0  0  0  0  0  0  0  0  0  0  0  0
    2.9555   -0.6032    0.0000 C   0  0  0  0  0  0  0  0  0  0  0  0
    4.9514   -0.9193    0.0000 C   0  0  0  0  0  0  0  0  0  0  0  0
    8.3812   -0.3671    0.0000 C   0  0  0  0  0  0  0  0  0  0  0  0
    1.9856    0.7317    0.0000 C   0  0  0  0  0  0  0  0  0  0  0  0
    3.6165   -1.8892    0.0000 C   0  0  0  0  0  0  0  0  0  0  0  0
    2.1350   -0.6894    0.0000 C   0  0  0  0  0  0  0  0  0  0  0  0
    5.0377   -1.7398    0.0000 C   0  0  0  0  0  0  0  0  0  0  0  0
    9.0957    0.0455    0.0000 C   0  0  0  0  0  0  0  0  0  0  0  0
    8.3812   -1.1921    0.0000 C   0  0  0  0  0  0  0  0  0  0  0  0
    1.6500   -0.0219    0.0000 C   0  0  0  0  0  0  0  0  0  0  0  0
    4.3703   -2.2247    0.0000 C   0  0  0  0  0  0  0  0  0  0  0  0
    9.8102   -0.3671    0.0000 C   0  0  0  0  0  0  0  0  0  0  0  0
    9.8102   -1.1921    0.0000 C   0  0  0  0  0  0  0  0  0  0  0  0
   10.5908   -0.1157    0.0000 C   0  0  0  0  0  0  0  0  0  0  0  0
    9.0957   -1.6046    0.0000 C   0  0  0  0  0  0  0  0  0  0  0  0
   11.0723   -0.7796    0.0000 C   0  0  0  0  0  0  0  0  0  0  0  0
    5.3400    1.9137    0.0000 H   0  0  0  0  0  0  0  0  0  0  0  0
    3.7823    2.6074    0.0000 H   0  0  0  0  0  0  0  0  0  0  0  0
    4.3493    1.2204    0.0000 H   0  0  0  0  0  0  0  0  0  0  0  0
    4.9095    2.0150    0.0000 H   0  0  0  0  0  0  0  0  0  0  0  0
    6.0181    1.8690    0.0000 H   0  0  0  0  0  0  0  0  0  0  0  0
    5.2617   -1.3368    0.0000 H   0  0  0  0  0  0  0  0  0  0  0  0
    4.4506   -0.5672    0.0000 H   0  0  0  0  0  0  0  0  0  0  0  0
    6.9467    1.5819    0.0000 H   0  0  0  0  0  0  0  0  0  0  0  0
    5.8746    1.8995    0.0000 H   0  0  0  0  0  0  0  0  0  0  0  0
    6.9523   -1.4371    0.0000 H   0  0  0  0  0  0  0  0  0  0  0  0
    7.8790   -0.9020    0.0000 H   0  0  0  0  0  0  0  0  0  0  0  0
    7.6667    1.1155    0.0000 H   0  0  0  0  0  0  0  0  0  0  0  0
    8.5934    0.5805    0.0000 H   0  0  0  0  0  0  0  0  0  0  0  0
    3.2259    1.7607    0.0000 H   0  0  0  0  0  0  0  0  0  0  0  0
    2.5875   -0.6489    0.0000 H   0  0  0  0  0  0  0  0  0  0  0  0
    3.5621   -1.4381    0.0000 H   0  0  0  0  0  0  0  0  0  0  0  0
    5.7863   -0.3127    0.0000 H   0  0  0  0  0  0  0  0  0  0  0  0
    1.3791    1.5666    0.0000 H   0  0  0  0  0  0  0  0  0  0  0  0
    2.7816   -2.4958    0.0000 H   0  0  0  0  0  0  0  0  0  0  0  0
    1.7152   -1.6322    0.0000 H   0  0  0  0  0  0  0  0  0  0  0  0
    5.9805   -2.1595    0.0000 H   0  0  0  0  0  0  0  0  0  0  0  0
    9.0957    1.0775    0.0000 H   0  0  0  0  0  0  0  0  0  0  0  0
    7.4875   -1.7081    0.0000 H   0  0  0  0  0  0  0  0  0  0  0  0
    0.6237   -0.1297    0.0000 H   0  0  0  0  0  0  0  0  0  0  0  0
    4.4782   -3.2510    0.0000 H   0  0  0  0  0  0  0  0  0  0  0  0
   10.9232    0.9014    0.0000 H   0  0  0  0  0  0  0  0  0  0  0  0
   11.6478    0.0503    0.0000 H   0  0  0  0  0  0  0  0  0  0  0  0
    9.0957   -2.6366    0.0000 H   0  0  0  0  0  0  0  0  0  0  0  0
   12.1423   -0.7796    0.0000 H   0  0  0  0  0  0  0  0  0  0  0  0
   11.5585    0.1736    0.0000 H   0  0  0  0  0  0  0  0  0  0  0  0
  1 13  2  0  0  0  0
  2 29  1  0  0  0  0
  2 32  1  0  0  0  0
  3  8  1  0  0  0  0
  3  9  1  0  0  0  0
  3 10  1  0  0  0  0
  4 13  1  0  0  0  0
  4 33  1  0  0  0  0
  4 34  1  0  0  0  0
  5  6  1  0  0  0  0
  5  7  1  0  0  0  0
  5  8  1  0  0  0  0
  5 35  1  1  0  0  0
  6 11  1  0  0  0  0
  6 12  1  0  0  0  0
  6 13  1  0  0  0  0
  7  9  1  0  0  0  0
  7 36  1  0  0  0  0
  7 37  1  0  0  0  0
  8 38  1  0  0  0  0
  8 39  1  0  0  0  0
  9 40  1  0  0  0  0
  9 41  1  0  0  0  0
 10 14  1  0  0  0  0
 10 42  1  0  0  0  0
 10 43  1  0  0  0  0
 11 15  2  0  0  0  0
 11 17  1  0  0  0  0
 12 16  2  0  0  0  0
 12 18  1  0  0  0  0
 14 19  1  0  0  0  0
 14 44  1  0  0  0  0
 14 45  1  0  0  0  0
 15 20  1  0  0  0  0
 15 46  1  0  0  0  0
 16 21  1  0  0  0  0
 16 47  1  0  0  0  0
 17 22  2  0  0  0  0
 17 48  1  0  0  0  0
 18 23  2  0  0  0  0
 18 49  1  0  0  0  0
 19 24  2  0  0  0  0
 19 25  1  0  0  0  0
 20 26  2  0  0  0  0
 20 50  1  0  0  0  0
 21 27  2  0  0  0  0
 21 51  1  0  0  0  0
 22 26  1  0  0  0  0
 22 52  1  0  0  0  0
 23 27  1  0  0  0  0
 23 53  1  0  0  0  0
 24 28  1  0  0  0  0
 24 54  1  0  0  0  0
 25 31  2  0  0  0  0
 25 55  1  0  0  0  0
 26 56  1  0  0  0  0
 27 57  1  0  0  0  0
 28 29  2  0  0  0  0
 28 30  1  0  0  0  0
 29 31  1  0  0  0  0
 30 32  1  0  0  0  0
 30 58  1  0  0  0  0
 30 59  1  0  0  0  0
 31 60  1  0  0  0  0
 32 61  1  0  0  0  0
 32 62  1  0  0  0  0
M  END
>  <DRUGBANK_ID>
DB00496

>  <SECONDARY_ACCESSION_NUMBERS>
APRD00903

>  <COMMON_NAME>
Darifenacin

>  <CAS_NUMBER>
133099-04-4

>  <UNII>
APG9819VLM

>  <SYNONYMS>
(S)-1-(2-(2,3-dihydro-5-benzofuranyl)ethyl)-α,α-diphenyl-3-pyrrolidineacetamide; Darifenacin; Darifenacina; Darifénacine; Darifenacinum

$$$$
