734
 OpenBabel10282417072D

 57 61  0  0  0  0  0  0  0  0999 V2000
    1.6500   -0.1193    0.0000 F   0  0  0  0  0  0  0  0  0  0  0  0
    3.9340   -1.9522    0.0000 O   0  0  0  0  0  0  0  0  0  0  0  0
    9.8223   -0.5514    0.0000 O   0  0  0  0  0  0  0  0  0  0  0  0
    6.9643    0.2736    0.0000 N   0  0  0  0  0  0  0  0  0  0  0  0
   10.5367    0.6861    0.0000 N   0  0  0  0  0  0  0  0  0  0  0  0
    4.7359   -1.7796    0.0000 N   0  0  0  0  0  0  0  0  0  0  0  0
    9.8223    1.9236    0.0000 N   0  0  0  0  0  0  0  0  0  0  0  0
    5.5353   -0.5514    0.0000 C   0  0  0  0  0  0  0  0  0  0  0  0
    5.5353    0.2736    0.0000 C   0  0  0  0  0  0  0  0  0  0  0  0
    6.2498   -0.9640    0.0000 C   0  0  0  0  0  0  0  0  0  0  0  0
    6.2498    0.6861    0.0000 C   0  0  0  0  0  0  0  0  0  0  0  0
    6.9643   -0.5514    0.0000 C   0  0  0  0  0  0  0  0  0  0  0  0
    7.6788    0.6861    0.0000 C   0  0  0  0  0  0  0  0  0  0  0  0
    4.8208   -0.9640    0.0000 C   0  0  0  0  0  0  0  0  0  0  0  0
    8.3932    0.2736    0.0000 C   0  0  0  0  0  0  0  0  0  0  0  0
    9.1078    0.6861    0.0000 C   0  0  0  0  0  0  0  0  0  0  0  0
    4.0719   -0.6297    0.0000 C   0  0  0  0  0  0  0  0  0  0  0  0
   11.2742    0.2450    0.0000 C   0  0  0  0  0  0  0  0  0  0  0  0
   12.0218    0.6689    0.0000 C   0  0  0  0  0  0  0  0  0  0  0  0
   10.5367    1.5111    0.0000 C   0  0  0  0  0  0  0  0  0  0  0  0
   12.0218    1.5283    0.0000 C   0  0  0  0  0  0  0  0  0  0  0  0
   11.2742    1.9522    0.0000 C   0  0  0  0  0  0  0  0  0  0  0  0
    9.8223    0.2736    0.0000 C   0  0  0  0  0  0  0  0  0  0  0  0
    9.1078    1.5111    0.0000 C   0  0  0  0  0  0  0  0  0  0  0  0
    3.5209   -1.2438    0.0000 C   0  0  0  0  0  0  0  0  0  0  0  0
    3.8156    0.1545    0.0000 C   0  0  0  0  0  0  0  0  0  0  0  0
    8.3932    1.9236    0.0000 C   0  0  0  0  0  0  0  0  0  0  0  0
    2.7136   -1.0736    0.0000 C   0  0  0  0  0  0  0  0  0  0  0  0
    3.0083    0.3246    0.0000 C   0  0  0  0  0  0  0  0  0  0  0  0
    2.4573   -0.2894    0.0000 C   0  0  0  0  0  0  0  0  0  0  0  0
    5.5353   -1.6214    0.0000 H   0  0  0  0  0  0  0  0  0  0  0  0
    4.6087    0.8086    0.0000 H   0  0  0  0  0  0  0  0  0  0  0  0
    5.5353    1.3436    0.0000 H   0  0  0  0  0  0  0  0  0  0  0  0
    6.2498   -2.0340    0.0000 H   0  0  0  0  0  0  0  0  0  0  0  0
    7.1765   -1.4990    0.0000 H   0  0  0  0  0  0  0  0  0  0  0  0
    6.2498    1.7561    0.0000 H   0  0  0  0  0  0  0  0  0  0  0  0
    5.3232    1.2211    0.0000 H   0  0  0  0  0  0  0  0  0  0  0  0
    7.8910   -1.0864    0.0000 H   0  0  0  0  0  0  0  0  0  0  0  0
    6.9644   -1.6214    0.0000 H   0  0  0  0  0  0  0  0  0  0  0  0
    7.6788    1.7561    0.0000 H   0  0  0  0  0  0  0  0  0  0  0  0
    8.6055    1.2211    0.0000 H   0  0  0  0  0  0  0  0  0  0  0  0
    8.3931   -0.7964    0.0000 H   0  0  0  0  0  0  0  0  0  0  0  0
    9.3198   -0.2615    0.0000 H   0  0  0  0  0  0  0  0  0  0  0  0
   11.2618   -0.8249    0.0000 H   0  0  0  0  0  0  0  0  0  0  0  0
   12.1956   -0.2990    0.0000 H   0  0  0  0  0  0  0  0  0  0  0  0
   12.9464    0.1303    0.0000 H   0  0  0  0  0  0  0  0  0  0  0  0
   12.9495    1.2021    0.0000 H   0  0  0  0  0  0  0  0  0  0  0  0
   12.9464    2.0669    0.0000 H   0  0  0  0  0  0  0  0  0  0  0  0
   12.0156    2.5983    0.0000 H   0  0  0  0  0  0  0  0  0  0  0  0
   11.2618    3.0221    0.0000 H   0  0  0  0  0  0  0  0  0  0  0  0
   12.1956    2.4962    0.0000 H   0  0  0  0  0  0  0  0  0  0  0  0
    4.5048    0.9226    0.0000 H   0  0  0  0  0  0  0  0  0  0  0  0
    8.3931    2.9936    0.0000 H   0  0  0  0  0  0  0  0  0  0  0  0
    7.4666    1.3885    0.0000 H   0  0  0  0  0  0  0  0  0  0  0  0
    7.4665    2.4585    0.0000 H   0  0  0  0  0  0  0  0  0  0  0  0
    2.0244   -1.8417    0.0000 H   0  0  0  0  0  0  0  0  0  0  0  0
    2.6877    1.3055    0.0000 H   0  0  0  0  0  0  0  0  0  0  0  0
  1 30  1  0  0  0  0
  2  6  1  0  0  0  0
  2 25  1  0  0  0  0
  3 23  2  0  0  0  0
  4 11  1  0  0  0  0
  4 12  1  0  0  0  0
  4 13  1  0  0  0  0
  5 18  1  0  0  0  0
  5 20  1  0  0  0  0
  5 23  1  0  0  0  0
  6 14  2  0  0  0  0
  7 20  2  0  0  0  0
  7 24  1  0  0  0  0
  8  9  1  0  0  0  0
  8 10  1  0  0  0  0
  8 14  1  0  0  0  0
  8 31  1  0  0  0  0
  9 11  1  0  0  0  0
  9 32  1  0  0  0  0
  9 33  1  0  0  0  0
 10 12  1  0  0  0  0
 10 34  1  0  0  0  0
 10 35  1  0  0  0  0
 11 36  1  0  0  0  0
 11 37  1  0  0  0  0
 12 38  1  0  0  0  0
 12 39  1  0  0  0  0
 13 15  1  0  0  0  0
 13 40  1  0  0  0  0
 13 41  1  0  0  0  0
 14 17  1  0  0  0  0
 15 16  1  0  0  0  0
 15 42  1  0  0  0  0
 15 43  1  0  0  0  0
 16 23  1  0  0  0  0
 16 24  2  0  0  0  0
 17 25  2  0  0  0  0
 17 26  1  0  0  0  0
 18 19  1  0  0  0  0
 18 44  1  0  0  0  0
 18 45  1  0  0  0  0
 19 21  1  0  0  0  0
 19 46  1  0  0  0  0
 19 47  1  0  0  0  0
 20 22  1  0  0  0  0
 21 22  1  0  0  0  0
 21 48  1  0  0  0  0
 21 49  1  0  0  0  0
 22 50  1  0  0  0  0
 22 51  1  0  0  0  0
 24 27  1  0  0  0  0
 25 28  1  0  0  0  0
 26 29  2  0  0  0  0
 26 52  1  0  0  0  0
 27 53  1  0  0  0  0
 27 54  1  0  0  0  0
 27 55  1  0  0  0  0
 28 30  2  0  0  0  0
 28 56  1  0  0  0  0
 29 30  1  0  0  0  0
 29 57  1  0  0  0  0
M  END
>  <DRUGBANK_ID>
DB00734

>  <SECONDARY_ACCESSION_NUMBERS>
APRD00187

>  <COMMON_NAME>
Risperidone

>  <CAS_NUMBER>
106266-06-2

>  <UNII>
L6UH7ZF8HC

>  <SYNONYMS>
Risperidona; Risperidone; Risp√©ridone; Risperidonum

$$$$
