
 OpenBabel10282417072D

 45 48  0  0  0  0  0  0  0  0999 V2000
    1.2906    3.3809    0.0000 C   0  0  0  0  0  0  0  0  0  0  0  0
    3.7656   -0.9059    0.0000 C   0  0  0  0  0  0  0  0  0  0  0  0
    0.8781    2.6664    0.0000 C   0  0  0  0  0  0  0  0  0  0  0  0
    2.1156    3.3809    0.0000 C   0  0  0  0  0  0  0  0  0  0  0  0
    4.1781   -0.1914    0.0000 C   0  0  0  0  0  0  0  0  0  0  0  0
    2.9406   -0.9059    0.0000 C   0  0  0  0  0  0  0  0  0  0  0  0
    1.2906    1.9520    0.0000 C   0  0  0  0  0  0  0  0  0  0  0  0
    2.5281    2.6664    0.0000 C   0  0  0  0  0  0  0  0  0  0  0  0
    3.7656    0.5230    0.0000 C   0  0  0  0  0  0  0  0  0  0  0  0
    2.5281   -0.1914    0.0000 C   0  0  0  0  0  0  0  0  0  0  0  0
    0.3846    0.8250    0.0000 C   0  0  0  0  0  0  0  0  0  0  0  0
    1.2366    0.6875    0.0000 C   0  0  0  0  0  0  0  0  0  0  0  0
    0.3846   -0.0000    0.0000 C   0  0  0  0  0  0  0  0  0  0  0  0
    1.2366    0.1375    0.0000 C   0  0  0  0  0  0  0  0  0  0  0  0
    1.8136   -0.0000    0.0000 C   0  0  0  0  0  0  0  0  0  0  0  0
    1.0991    1.2375    0.0000 C   0  0  3  0  0  0  0  0  0  0  0  0
    2.1156    1.9520    0.0000 C   0  0  0  0  0  0  0  0  0  0  0  0
    2.9406    0.5230    0.0000 C   0  0  0  0  0  0  0  0  0  0  0  0
    1.8136    0.8250    0.0000 C   0  0  3  0  0  0  0  0  0  0  0  0
    2.5281    1.2375    0.0000 C   0  0  0  0  0  0  0  0  0  0  0  0
    1.0991   -0.4125    0.0000 N   0  0  3  0  0  0  0  0  0  0  0  0
    3.2425    1.6500    0.0000 O   0  0  0  0  0  0  0  0  0  0  0  0
    0.7746    4.2746    0.0000 H   0  0  0  0  0  0  0  0  0  0  0  0
    4.2816   -1.7996    0.0000 H   0  0  0  0  0  0  0  0  0  0  0  0
   -0.1539    2.6664    0.0000 H   0  0  0  0  0  0  0  0  0  0  0  0
    2.6316    4.2746    0.0000 H   0  0  0  0  0  0  0  0  0  0  0  0
    5.2101   -0.1914    0.0000 H   0  0  0  0  0  0  0  0  0  0  0  0
    2.4246   -1.7996    0.0000 H   0  0  0  0  0  0  0  0  0  0  0  0
    0.7746    1.0583    0.0000 H   0  0  0  0  0  0  0  0  0  0  0  0
    3.5601    2.6664    0.0000 H   0  0  0  0  0  0  0  0  0  0  0  0
    4.2816    1.4167    0.0000 H   0  0  0  0  0  0  0  0  0  0  0  0
    1.4961   -0.1914    0.0000 H   0  0  0  0  0  0  0  0  0  0  0  0
   -0.5420    1.3600    0.0000 H   0  0  0  0  0  0  0  0  0  0  0  0
    0.3846    1.8950    0.0000 H   0  0  0  0  0  0  0  0  0  0  0  0
    2.2986    0.8182    0.0000 H   0  0  0  0  0  0  0  0  0  0  0  0
    1.8422    1.5696    0.0000 H   0  0  0  0  0  0  0  0  0  0  0  0
   -0.5420   -0.5350    0.0000 H   0  0  0  0  0  0  0  0  0  0  0  0
    0.3846   -1.0700    0.0000 H   0  0  0  0  0  0  0  0  0  0  0  0
    2.2986    0.0068    0.0000 H   0  0  0  0  0  0  0  0  0  0  0  0
    1.8422   -0.7446    0.0000 H   0  0  0  0  0  0  0  0  0  0  0  0
    2.7402   -0.5350    0.0000 H   0  0  0  0  0  0  0  0  0  0  0  0
    1.8136   -1.0700    0.0000 H   0  0  0  0  0  0  0  0  0  0  0  0
    0.6813    0.2524    0.0000 H   0  0  0  0  0  0  0  0  0  0  0  0
    0.8870    0.2900    0.0000 H   0  0  0  0  0  0  0  0  0  0  0  0
    4.0826    1.1650    0.0000 H   0  0  0  0  0  0  0  0  0  0  0  0
  1 23  1  0  0  0  0
  2 24  1  0  0  0  0
  3  1  2  0  0  0  0
  3 25  1  0  0  0  0
  4  1  1  0  0  0  0
  4 26  1  0  0  0  0
  5  2  2  0  0  0  0
  5 27  1  0  0  0  0
  6  2  1  0  0  0  0
  6 28  1  0  0  0  0
  7  3  1  0  0  0  0
  7 29  1  0  0  0  0
  8  4  2  0  0  0  0
  8 30  1  0  0  0  0
  9  5  1  0  0  0  0
  9 31  1  0  0  0  0
 10  6  2  0  0  0  0
 10 32  1  0  0  0  0
 11 33  1  0  0  0  0
 11 34  1  0  0  0  0
 12 35  1  0  0  0  0
 12 36  1  0  0  0  0
 13 11  1  0  0  0  0
 13 37  1  0  0  0  0
 13 38  1  0  0  0  0
 14 12  1  0  0  0  0
 14 39  1  0  0  0  0
 14 40  1  0  0  0  0
 15 41  1  0  0  0  0
 15 42  1  0  0  0  0
 16 11  1  0  0  0  0
 16 12  1  0  0  0  0
 16 43  1  0  0  0  0
 17  7  2  0  0  0  0
 17  8  1  0  0  0  0
 18  9  2  0  0  0  0
 18 10  1  0  0  0  0
 19 15  1  0  0  0  0
 19 16  1  0  0  0  0
 19 44  1  0  0  0  0
 20 17  1  0  0  0  0
 20 18  1  0  0  0  0
 20 19  1  0  0  0  0
 21 13  1  0  0  0  0
 21 14  1  0  0  0  0
 21 15  1  0  0  0  0
 22 20  1  0  0  0  0
 22 45  1  0  0  0  0
M  END
>  <DRUGBANK_ID>
DB13713

>  <COMMON_NAME>
Quifenadine

>  <CAS_NUMBER>
10447-39-9

>  <UNII>
W9A18RJ49B

>  <SYNONYMS>
Quifenadine

$$$$
