
 OpenBabel10282417072D

 54 54  0  0  0  0  0  0  0  0999 V2000
   -4.2355    6.3493    0.0000 C   0  0  0  0  0  0  0  0  0  0  0  0
   -3.4105    6.3493    0.0000 C   0  0  0  0  0  0  0  0  0  0  0  0
   -2.9980    5.6349    0.0000 C   0  0  0  0  0  0  0  0  0  0  0  0
   -2.1730    5.6349    0.0000 O   0  0  0  0  0  0  0  0  0  0  0  0
   -1.7605    4.9204    0.0000 C   0  0  0  0  0  0  0  0  0  0  0  0
   -2.1730    4.2059    0.0000 O   0  0  0  0  0  0  0  0  0  0  0  0
   -0.9355    4.9204    0.0000 C   0  0  0  0  0  0  0  0  0  0  0  0
   -0.5230    4.2059    0.0000 C   0  0  0  0  0  0  0  0  0  0  0  0
    0.3020    4.2059    0.0000 C   0  0  0  0  0  0  0  0  0  0  0  0
    0.7145    3.4914    0.0000 C   0  0  0  0  0  0  0  0  0  0  0  0
    0.3020    2.7770    0.0000 C   0  0  0  0  0  0  0  0  0  0  0  0
   -0.5230    2.7770    0.0000 C   0  0  0  0  0  0  0  0  0  0  0  0
   -0.9355    3.4914    0.0000 C   0  0  0  0  0  0  0  0  0  0  0  0
   -0.9355    2.0625    0.0000 O   0  0  0  0  0  0  0  0  0  0  0  0
   -0.5230    1.3480    0.0000 C   0  0  0  0  0  0  0  0  0  0  0  0
   -0.9355    0.6336    0.0000 C   0  0  0  0  0  0  0  0  0  0  0  0
    0.7145    2.0625    0.0000 O   0  0  0  0  0  0  0  0  0  0  0  0
    1.5395    2.0625    0.0000 C   0  0  0  0  0  0  0  0  0  0  0  0
    1.9520    1.3480    0.0000 C   0  0  0  0  0  0  0  0  0  0  0  0
    1.5395    0.6336    0.0000 O   0  0  0  0  0  0  0  0  0  0  0  0
    2.7770    1.3480    0.0000 N   0  0  0  0  0  0  0  0  0  0  0  0
    3.1895    0.6336    0.0000 C   0  0  0  0  0  0  0  0  0  0  0  0
    4.0145    0.6336    0.0000 C   0  0  0  0  0  0  0  0  0  0  0  0
    3.1895    2.0625    0.0000 C   0  0  0  0  0  0  0  0  0  0  0  0
    4.0145    2.0625    0.0000 C   0  0  0  0  0  0  0  0  0  0  0  0
   -4.7705    7.2759    0.0000 H   0  0  0  0  0  0  0  0  0  0  0  0
   -4.7705    5.4227    0.0000 H   0  0  0  0  0  0  0  0  0  0  0  0
   -5.3055    6.3493    0.0000 H   0  0  0  0  0  0  0  0  0  0  0  0
   -2.8755    7.2760    0.0000 H   0  0  0  0  0  0  0  0  0  0  0  0
   -2.3405    6.3493    0.0000 H   0  0  0  0  0  0  0  0  0  0  0  0
   -3.5330    4.7082    0.0000 H   0  0  0  0  0  0  0  0  0  0  0  0
   -2.4630    4.7083    0.0000 H   0  0  0  0  0  0  0  0  0  0  0  0
   -0.4005    5.8470    0.0000 H   0  0  0  0  0  0  0  0  0  0  0  0
    0.1345    4.9204    0.0000 H   0  0  0  0  0  0  0  0  0  0  0  0
    0.8180    5.0996    0.0000 H   0  0  0  0  0  0  0  0  0  0  0  0
    1.7465    3.4914    0.0000 H   0  0  0  0  0  0  0  0  0  0  0  0
   -1.9675    3.4914    0.0000 H   0  0  0  0  0  0  0  0  0  0  0  0
    0.5470    1.3480    0.0000 H   0  0  0  0  0  0  0  0  0  0  0  0
    0.0120    0.4213    0.0000 H   0  0  0  0  0  0  0  0  0  0  0  0
   -2.0055    0.6336    0.0000 H   0  0  0  0  0  0  0  0  0  0  0  0
   -0.4005   -0.2931    0.0000 H   0  0  0  0  0  0  0  0  0  0  0  0
   -1.4705   -0.2930    0.0000 H   0  0  0  0  0  0  0  0  0  0  0  0
    2.0745    2.9891    0.0000 H   0  0  0  0  0  0  0  0  0  0  0  0
    2.6095    2.0625    0.0000 H   0  0  0  0  0  0  0  0  0  0  0  0
    2.6545   -0.2931    0.0000 H   0  0  0  0  0  0  0  0  0  0  0  0
    3.7245   -0.2930    0.0000 H   0  0  0  0  0  0  0  0  0  0  0  0
    4.5495   -0.2930    0.0000 H   0  0  0  0  0  0  0  0  0  0  0  0
    4.5495    1.5602    0.0000 H   0  0  0  0  0  0  0  0  0  0  0  0
    5.0845    0.6336    0.0000 H   0  0  0  0  0  0  0  0  0  0  0  0
    2.6545    2.9891    0.0000 H   0  0  0  0  0  0  0  0  0  0  0  0
    3.7245    2.9891    0.0000 H   0  0  0  0  0  0  0  0  0  0  0  0
    4.5495    1.1359    0.0000 H   0  0  0  0  0  0  0  0  0  0  0  0
    4.5495    2.9891    0.0000 H   0  0  0  0  0  0  0  0  0  0  0  0
    5.0845    2.0625    0.0000 H   0  0  0  0  0  0  0  0  0  0  0  0
  1  2  1  0  0  0  0
  1 26  1  0  0  0  0
  1 27  1  0  0  0  0
  1 28  1  0  0  0  0
  2  3  1  0  0  0  0
  2 29  1  0  0  0  0
  2 30  1  0  0  0  0
  3  4  1  0  0  0  0
  3 31  1  0  0  0  0
  3 32  1  0  0  0  0
  4  5  1  0  0  0  0
  5  6  2  0  0  0  0
  5  7  1  0  0  0  0
  7  8  1  0  0  0  0
  7 33  1  0  0  0  0
  7 34  1  0  0  0  0
  8  9  2  0  0  0  0
  8 13  1  0  0  0  0
  9 10  1  0  0  0  0
  9 35  1  0  0  0  0
 10 11  2  0  0  0  0
 10 36  1  0  0  0  0
 11 12  1  0  0  0  0
 11 17  1  0  0  0  0
 12 13  2  0  0  0  0
 12 14  1  0  0  0  0
 13 37  1  0  0  0  0
 14 15  1  0  0  0  0
 15 16  1  0  0  0  0
 15 38  1  0  0  0  0
 15 39  1  0  0  0  0
 16 40  1  0  0  0  0
 16 41  1  0  0  0  0
 16 42  1  0  0  0  0
 17 18  1  0  0  0  0
 18 19  1  0  0  0  0
 18 43  1  0  0  0  0
 18 44  1  0  0  0  0
 19 20  2  0  0  0  0
 19 21  1  0  0  0  0
 21 22  1  0  0  0  0
 21 24  1  0  0  0  0
 22 23  1  0  0  0  0
 22 45  1  0  0  0  0
 22 46  1  0  0  0  0
 23 47  1  0  0  0  0
 23 48  1  0  0  0  0
 23 49  1  0  0  0  0
 24 25  1  0  0  0  0
 24 50  1  0  0  0  0
 24 51  1  0  0  0  0
 25 52  1  0  0  0  0
 25 53  1  0  0  0  0
 25 54  1  0  0  0  0
M  END
>  <DRUGBANK_ID>
DB12576

>  <COMMON_NAME>
AZD-3043

>  <CAS_NUMBER>
579494-66-9

>  <UNII>
372AB76LQL

$$$$
