1604
 OpenBabel10282417072D

 61 63  0  0  1  0  0  0  0  0999 V2000
    7.6202    2.1383    0.0000 S   0  0  0  0  0  0  0  0  0  0  0  0
    5.4215    0.4703    0.0000 O   0  0  0  0  0  0  0  0  0  0  0  0
    7.3231   -0.5943    0.0000 O   0  0  0  0  0  0  0  0  0  0  0  0
    8.6820   -0.1528    0.0000 O   0  0  0  0  0  0  0  0  0  0  0  0
    4.4090    1.4630    0.0000 O   0  0  0  0  0  0  0  0  0  0  0  0
    7.0259   -1.9921    0.0000 O   0  0  0  0  0  0  0  0  0  0  0  0
    8.0879   -2.9482    0.0000 O   0  0  0  0  0  0  0  0  0  0  0  0
    6.8355    1.0583    0.0000 N   0  0  0  0  0  0  0  0  0  0  0  0
    5.4215    2.4713    0.0000 N   0  0  0  0  0  0  0  0  0  0  0  0
    4.2572    3.6404    0.0000 N   0  0  0  0  0  0  0  0  0  0  0  0
    6.8355    1.8833    0.0000 C   0  0  1  0  0  0  0  0  0  0  0  0
    8.1050    1.4708    0.0000 C   0  0  0  0  0  0  0  0  0  0  0  0
    7.6202    0.8034    0.0000 C   0  0  2  0  0  0  0  0  0  0  0  0
    6.0037    1.8868    0.0000 C   0  0  1  0  0  0  0  0  0  0  0  0
    6.0037    1.0549    0.0000 C   0  0  0  0  0  0  0  0  0  0  0  0
    8.7725    1.9558    0.0000 C   0  0  0  0  0  0  0  0  0  0  0  0
    8.7725    0.9859    0.0000 C   0  0  0  0  0  0  0  0  0  0  0  0
    7.8751    0.0187    0.0000 C   0  0  0  0  0  0  0  0  0  0  0  0
    4.6242    2.2594    0.0000 C   0  0  0  0  0  0  0  0  0  0  0  0
    4.0420    2.8440    0.0000 C   0  0  1  0  0  0  0  0  0  0  0  0
    7.5780   -1.3790    0.0000 C   0  0  0  0  0  0  0  0  0  0  0  0
    3.2447    2.6321    0.0000 C   0  0  0  0  0  0  0  0  0  0  0  0
    6.7288   -3.3898    0.0000 C   0  0  0  0  0  0  0  0  0  0  0  0
    3.0295    1.8356    0.0000 C   0  0  0  0  0  0  0  0  0  0  0  0
    2.6625    3.2167    0.0000 C   0  0  0  0  0  0  0  0  0  0  0  0
    7.2809   -2.7767    0.0000 C   0  0  0  0  0  0  0  0  0  0  0  0
    6.1768   -4.0028    0.0000 C   0  0  0  0  0  0  0  0  0  0  0  0
    7.3420   -3.9418    0.0000 C   0  0  0  0  0  0  0  0  0  0  0  0
    6.1158   -2.8378    0.0000 C   0  0  0  0  0  0  0  0  0  0  0  0
    2.2322    1.6238    0.0000 C   0  0  0  0  0  0  0  0  0  0  0  0
    1.8652    3.0048    0.0000 C   0  0  0  0  0  0  0  0  0  0  0  0
    1.6500    2.2083    0.0000 C   0  0  0  0  0  0  0  0  0  0  0  0
    6.7336    2.5354    0.0000 H   0  0  0  0  0  0  0  0  0  0  0  0
    5.6782    3.4217    0.0000 H   0  0  0  0  0  0  0  0  0  0  0  0
    5.2430    3.9023    0.0000 H   0  0  0  0  0  0  0  0  0  0  0  0
    3.5375    4.3632    0.0000 H   0  0  0  0  0  0  0  0  0  0  0  0
    6.8636    0.0468    0.0000 H   0  0  0  0  0  0  0  0  0  0  0  0
    6.4162    2.8741    0.0000 H   0  0  0  0  0  0  0  0  0  0  0  0
    9.7500    1.5206    0.0000 H   0  0  0  0  0  0  0  0  0  0  0  0
    8.6606    3.0199    0.0000 H   0  0  0  0  0  0  0  0  0  0  0  0
    9.6381    2.5848    0.0000 H   0  0  0  0  0  0  0  0  0  0  0  0
    8.6607   -0.0782    0.0000 H   0  0  0  0  0  0  0  0  0  0  0  0
    9.7500    1.4212    0.0000 H   0  0  0  0  0  0  0  0  0  0  0  0
    9.6382    0.3570    0.0000 H   0  0  0  0  0  0  0  0  0  0  0  0
    5.0761    3.1188    0.0000 H   0  0  0  0  0  0  0  0  0  0  0  0
    8.6246   -1.6015    0.0000 H   0  0  0  0  0  0  0  0  0  0  0  0
    7.9086   -2.3967    0.0000 H   0  0  0  0  0  0  0  0  0  0  0  0
    3.7577    1.1043    0.0000 H   0  0  0  0  0  0  0  0  0  0  0  0
    2.9316    4.2130    0.0000 H   0  0  0  0  0  0  0  0  0  0  0  0
    5.1302   -3.7803    0.0000 H   0  0  0  0  0  0  0  0  0  0  0  0
    6.5074   -5.0204    0.0000 H   0  0  0  0  0  0  0  0  0  0  0  0
    5.4608   -4.7979    0.0000 H   0  0  0  0  0  0  0  0  0  0  0  0
    7.1197   -4.9884    0.0000 H   0  0  0  0  0  0  0  0  0  0  0  0
    8.3596   -3.6110    0.0000 H   0  0  0  0  0  0  0  0  0  0  0  0
    8.1372   -4.6577    0.0000 H   0  0  0  0  0  0  0  0  0  0  0  0
    6.3383   -1.7912    0.0000 H   0  0  0  0  0  0  0  0  0  0  0  0
    5.0982   -3.1684    0.0000 H   0  0  0  0  0  0  0  0  0  0  0  0
    5.3207   -2.1218    0.0000 H   0  0  0  0  0  0  0  0  0  0  0  0
    1.9630    0.6275    0.0000 H   0  0  0  0  0  0  0  0  0  0  0  0
    1.1370    3.7360    0.0000 H   0  0  0  0  0  0  0  0  0  0  0  0
    0.6526    1.9432    0.0000 H   0  0  0  0  0  0  0  0  0  0  0  0
  1 11  1  0  0  0  0
  1 12  1  0  0  0  0
  2 15  2  0  0  0  0
  3 18  1  0  0  0  0
  3 21  1  0  0  0  0
  4 18  2  0  0  0  0
  5 19  2  0  0  0  0
  6 21  1  0  0  0  0
  6 26  1  0  0  0  0
  7 26  2  0  0  0  0
  8 11  1  0  0  0  0
  8 13  1  0  0  0  0
  8 15  1  0  0  0  0
  9 19  1  0  0  0  0
  9 34  1  0  0  0  0
 10 35  1  0  0  0  0
 10 36  1  0  0  0  0
 11 14  1  0  0  0  0
 11 33  1  6  0  0  0
 12 13  1  0  0  0  0
 12 16  1  0  0  0  0
 12 17  1  0  0  0  0
 13 18  1  0  0  0  0
 13 37  1  1  0  0  0
 14  9  1  0  0  0  0
 14 15  1  0  0  0  0
 14 38  1  6  0  0  0
 16 39  1  0  0  0  0
 16 40  1  0  0  0  0
 16 41  1  0  0  0  0
 17 42  1  0  0  0  0
 17 43  1  0  0  0  0
 17 44  1  0  0  0  0
 19 20  1  0  0  0  0
 20 10  1  0  0  0  0
 20 22  1  0  0  0  0
 20 45  1  6  0  0  0
 21 46  1  0  0  0  0
 21 47  1  0  0  0  0
 22 24  2  0  0  0  0
 22 25  1  0  0  0  0
 23 26  1  0  0  0  0
 23 27  1  0  0  0  0
 23 28  1  0  0  0  0
 23 29  1  0  0  0  0
 24 30  1  0  0  0  0
 24 48  1  0  0  0  0
 25 31  2  0  0  0  0
 25 49  1  0  0  0  0
 27 50  1  0  0  0  0
 27 51  1  0  0  0  0
 27 52  1  0  0  0  0
 28 53  1  0  0  0  0
 28 54  1  0  0  0  0
 28 55  1  0  0  0  0
 29 56  1  0  0  0  0
 29 57  1  0  0  0  0
 29 58  1  0  0  0  0
 30 32  2  0  0  0  0
 30 59  1  0  0  0  0
 31 32  1  0  0  0  0
 31 60  1  0  0  0  0
 32 61  1  0  0  0  0
M  END
>  <DRUGBANK_ID>
DB01604

>  <COMMON_NAME>
Pivampicillin

>  <CAS_NUMBER>
33817-20-8

>  <UNII>
0HLM346LL7

>  <SYNONYMS>
Ampicillin pivaloyloxymethyl ester; Pivaloylampicillin; Pivaloyloxymethyl ampicillinate; Pivampicilina; Pivampicillin; Pivampicilline; Pivampicillinum

$$$$
