919
 OpenBabel10282417072D

 47 49  0  0  1  0  0  0  0  0999 V2000
    5.0678    0.7104    0.0000 O   0  0  0  0  0  0  0  0  0  0  0  0
    5.0678   -0.8737    0.0000 O   0  0  0  0  0  0  0  0  0  0  0  0
    6.4618   -0.9013    0.0000 O   0  0  0  0  0  0  0  0  0  0  0  0
    3.6830   -1.6932    0.0000 O   0  0  0  0  0  0  0  0  0  0  0  0
    2.2716    0.7295    0.0000 O   0  0  0  0  0  0  0  0  0  0  0  0
    5.7538    1.1065    0.0000 O   0  0  0  0  0  0  0  0  0  0  0  0
    6.4527    1.5299    0.0000 O   0  0  0  0  0  0  0  0  0  0  0  0
    3.6830    1.5299    0.0000 N   0  0  0  0  0  0  0  0  0  0  0  0
    2.2716   -0.8929    0.0000 N   0  0  0  0  0  0  0  0  0  0  0  0
    4.3818    0.3143    0.0000 C   0  0  1  0  0  0  0  0  0  0  0  0
    4.3818   -0.4777    0.0000 C   0  0  1  0  0  0  0  0  0  0  0  0
    3.6737    0.7379    0.0000 C   0  0  2  0  0  0  0  0  0  0  0  0
    3.6737   -0.9013    0.0000 C   0  0  2  0  0  0  0  0  0  0  0  0
    2.9560   -0.4942    0.0000 C   0  0  1  0  0  0  0  0  0  0  0  0
    2.9560    0.3309    0.0000 C   0  0  2  0  0  0  0  0  0  0  0  0
    5.7538    0.3143    0.0000 C   0  0  2  0  0  0  0  0  0  0  0  0
    5.7538   -0.4777    0.0000 C   0  0  2  0  0  0  0  0  0  0  0  0
    6.4618    0.7379    0.0000 C   0  0  0  0  0  0  0  0  0  0  0  0
    7.1795   -0.4942    0.0000 C   0  0  1  0  0  0  0  0  0  0  0  0
    7.1795    0.3309    0.0000 C   0  0  0  0  0  0  0  0  0  0  0  0
    3.0016    1.9339    0.0000 C   0  0  0  0  0  0  0  0  0  0  0  0
    1.5841   -0.4995    0.0000 C   0  0  0  0  0  0  0  0  0  0  0  0
    7.8639   -0.8929    0.0000 C   0  0  0  0  0  0  0  0  0  0  0  0
    4.3867    0.9480    0.0000 H   0  0  0  0  0  0  0  0  0  0  0  0
    4.3867   -1.1113    0.0000 H   0  0  0  0  0  0  0  0  0  0  0  0
    5.7489   -1.1113    0.0000 H   0  0  0  0  0  0  0  0  0  0  0  0
    2.8487   -2.1880    0.0000 H   0  0  0  0  0  0  0  0  0  0  0  0
    2.2753    1.6995    0.0000 H   0  0  0  0  0  0  0  0  0  0  0  0
    6.5938    1.5915    0.0000 H   0  0  0  0  0  0  0  0  0  0  0  0
    4.5722    2.0296    0.0000 H   0  0  0  0  0  0  0  0  0  0  0  0
    2.2756   -1.9129    0.0000 H   0  0  0  0  0  0  0  0  0  0  0  0
    4.6076    1.2602    0.0000 H   0  0  0  0  0  0  0  0  0  0  0  0
    4.6076   -1.4236    0.0000 H   0  0  0  0  0  0  0  0  0  0  0  0
    2.9622   -1.5642    0.0000 H   0  0  0  0  0  0  0  0  0  0  0  0
    2.9622    1.4009    0.0000 H   0  0  0  0  0  0  0  0  0  0  0  0
    7.1733   -1.5642    0.0000 H   0  0  0  0  0  0  0  0  0  0  0  0
    8.1041    0.8695    0.0000 H   0  0  0  0  0  0  0  0  0  0  0  0
    8.1072   -0.2023    0.0000 H   0  0  0  0  0  0  0  0  0  0  0  0
    3.0140    3.0038    0.0000 H   0  0  0  0  0  0  0  0  0  0  0  0
    2.0688    1.4097    0.0000 H   0  0  0  0  0  0  0  0  0  0  0  0
    2.0812    2.4796    0.0000 H   0  0  0  0  0  0  0  0  0  0  0  0
    1.5800    0.5705    0.0000 H   0  0  0  0  0  0  0  0  0  0  0  0
    0.6595   -1.0381    0.0000 H   0  0  0  0  0  0  0  0  0  0  0  0
    0.6554    0.0319    0.0000 H   0  0  0  0  0  0  0  0  0  0  0  0
    7.8597   -1.9629    0.0000 H   0  0  0  0  0  0  0  0  0  0  0  0
    8.7926   -0.3615    0.0000 H   0  0  0  0  0  0  0  0  0  0  0  0
    8.7885   -1.4315    0.0000 H   0  0  0  0  0  0  0  0  0  0  0  0
  1 10  1  0  0  0  0
  1 16  1  0  0  0  0
  2 11  1  0  0  0  0
  2 17  1  0  0  0  0
  3 17  1  0  0  0  0
  3 19  1  0  0  0  0
  4 27  1  0  0  0  0
  5 28  1  0  0  0  0
  6 29  1  0  0  0  0
  7 18  2  0  0  0  0
  8 21  1  0  0  0  0
  8 30  1  0  0  0  0
  9 22  1  0  0  0  0
  9 31  1  0  0  0  0
 10 11  1  0  0  0  0
 10 12  1  0  0  0  0
 10 24  1  6  0  0  0
 11 13  1  0  0  0  0
 11 25  1  1  0  0  0
 12  8  1  0  0  0  0
 12 15  1  0  0  0  0
 12 32  1  1  0  0  0
 13  4  1  0  0  0  0
 13 14  1  0  0  0  0
 13 33  1  6  0  0  0
 14  9  1  0  0  0  0
 14 15  1  0  0  0  0
 14 34  1  1  0  0  0
 15  5  1  0  0  0  0
 15 35  1  1  0  0  0
 16  6  1  6  0  0  0
 16 17  1  0  0  0  0
 16 18  1  0  0  0  0
 17 26  1  6  0  0  0
 18 20  1  0  0  0  0
 19 20  1  0  0  0  0
 19 23  1  0  0  0  0
 19 36  1  6  0  0  0
 20 37  1  0  0  0  0
 20 38  1  0  0  0  0
 21 39  1  0  0  0  0
 21 40  1  0  0  0  0
 21 41  1  0  0  0  0
 22 42  1  0  0  0  0
 22 43  1  0  0  0  0
 22 44  1  0  0  0  0
 23 45  1  0  0  0  0
 23 46  1  0  0  0  0
 23 47  1  0  0  0  0
M  END
>  <DRUGBANK_ID>
DB00919

>  <SECONDARY_ACCESSION_NUMBERS>
APRD01232

>  <COMMON_NAME>
Spectinomycin

>  <CAS_NUMBER>
1695-77-8

>  <UNII>
93AKI1U6QF

>  <SYNONYMS>
Actinospectacina; Espectinomicina; SCM; Spectinomicina; Spectinomycin; Spectinomycine; Spectinomycinum

$$$$
