
 OpenBabel10282417072D

 28 30  0  0  0  0  0  0  0  0999 V2000
    0.0574    0.5833    0.0000 C   0  0  0  0  0  0  0  0  0  0  0  0
   -0.6590    1.0059    0.0000 N   0  0  0  0  0  0  0  0  0  0  0  0
   -1.3665    0.5833    0.0000 C   0  0  0  0  0  0  0  0  0  0  0  0
   -1.3665   -0.2433    0.0000 C   0  0  0  0  0  0  0  0  0  0  0  0
    0.0574   -0.2433    0.0000 C   0  0  0  0  0  0  0  0  0  0  0  0
   -0.6590   -0.6476    0.0000 C   0  0  0  0  0  0  0  0  0  0  0  0
    0.7740    0.9921    0.0000 C   0  0  0  0  0  0  0  0  0  0  0  0
    0.7693   -0.6476    0.0000 C   0  0  0  0  0  0  0  0  0  0  0  0
    1.4767    0.5833    0.0000 C   0  0  0  0  0  0  0  0  0  0  0  0
    0.9392    1.7959    0.0000 O   0  0  0  0  0  0  0  0  0  0  0  0
   -2.0830    0.9921    0.0000 O   0  0  0  0  0  0  0  0  0  0  0  0
    2.0830    1.1299    0.0000 O   0  0  0  0  0  0  0  0  0  0  0  0
    1.7524    1.8878    0.0000 C   0  0  0  0  0  0  0  0  0  0  0  0
    1.4905   -0.2433    0.0000 C   0  0  0  0  0  0  0  0  0  0  0  0
   -0.6590   -1.4744    0.0000 O   0  0  0  0  0  0  0  0  0  0  0  0
   -0.6590    1.8327    0.0000 C   0  0  0  0  0  0  0  0  0  0  0  0
   -1.3756   -1.8878    0.0000 C   0  0  0  0  0  0  0  0  0  0  0  0
   -2.2591   -0.7613    0.0000 H   0  0  0  0  0  0  0  0  0  0  0  0
    0.7664   -1.6796    0.0000 H   0  0  0  0  0  0  0  0  0  0  0  0
    2.2873    2.8145    0.0000 H   0  0  0  0  0  0  0  0  0  0  0  0
    2.8207    1.8278    0.0000 H   0  0  0  0  0  0  0  0  0  0  0  0
    2.3853   -0.7575    0.0000 H   0  0  0  0  0  0  0  0  0  0  0  0
    0.2676    2.3677    0.0000 H   0  0  0  0  0  0  0  0  0  0  0  0
   -1.5856    2.3677    0.0000 H   0  0  0  0  0  0  0  0  0  0  0  0
   -0.6590    2.9027    0.0000 H   0  0  0  0  0  0  0  0  0  0  0  0
   -2.3021   -1.3525    0.0000 H   0  0  0  0  0  0  0  0  0  0  0  0
   -1.3760   -2.9578    0.0000 H   0  0  0  0  0  0  0  0  0  0  0  0
   -2.3024   -2.4225    0.0000 H   0  0  0  0  0  0  0  0  0  0  0  0
  2  1  1  0  0  0  0
  3  2  1  0  0  0  0
  3  4  1  0  0  0  0
  4  6  2  0  0  0  0
  4 18  1  0  0  0  0
  5  1  1  0  0  0  0
  6  5  1  0  0  0  0
  7  1  2  0  0  0  0
  8  5  2  0  0  0  0
  8 14  1  0  0  0  0
  8 19  1  0  0  0  0
  9  7  1  0  0  0  0
 10  7  1  0  0  0  0
 11  3  2  0  0  0  0
 12  9  1  0  0  0  0
 12 13  1  0  0  0  0
 13 10  1  0  0  0  0
 13 20  1  0  0  0  0
 13 21  1  0  0  0  0
 14  9  2  0  0  0  0
 14 22  1  0  0  0  0
 15  6  1  0  0  0  0
 16  2  1  0  0  0  0
 16 23  1  0  0  0  0
 16 24  1  0  0  0  0
 16 25  1  0  0  0  0
 17 15  1  0  0  0  0
 17 26  1  0  0  0  0
 17 27  1  0  0  0  0
 17 28  1  0  0  0  0
M  END
>  <DRUGBANK_ID>
DB08744

>  <COMMON_NAME>
Casimiroin

>  <CAS_NUMBER>
477-89-4

>  <UNII>
1X2A1U6BH3

>  <SYNONYMS>
6-Methoxy-9-methyl-(1,3)dioxolo(4,5-h)quinolin-8(9H)-one

$$$$
