
 OpenBabel10282417072D

 55 59  0  0  1  0  0  0  0  0999 V2000
   -2.1730   -1.7309    0.0000 C   0  0  0  0  0  0  0  0  0  0  0  0
   -1.3480   -1.7309    0.0000 C   0  0  0  0  0  0  0  0  0  0  0  0
   -0.9355   -1.0164    0.0000 C   0  0  0  0  0  0  0  0  0  0  0  0
   -0.1105   -1.0164    0.0000 C   0  0  0  0  0  0  0  0  0  0  0  0
    0.3020   -1.7309    0.0000 C   0  0  0  0  0  0  0  0  0  0  0  0
   -0.1105   -2.4454    0.0000 C   0  0  0  0  0  0  0  0  0  0  0  0
   -0.9355   -2.4454    0.0000 N   0  0  0  0  0  0  0  0  0  0  0  0
    1.1270   -1.7309    0.0000 C   0  0  0  0  0  0  0  0  0  0  0  0
    1.5395   -1.0164    0.0000 C   0  0  0  0  0  0  0  0  0  0  0  0
    2.3645   -1.0164    0.0000 C   0  0  0  0  0  0  0  0  0  0  0  0
    2.7770   -0.3020    0.0000 C   0  0  0  0  0  0  0  0  0  0  0  0
    2.3645    0.4125    0.0000 C   0  0  0  0  0  0  0  0  0  0  0  0
    1.5395    0.4125    0.0000 C   0  0  0  0  0  0  0  0  0  0  0  0
    1.1270   -0.3020    0.0000 C   0  0  0  0  0  0  0  0  0  0  0  0
    0.3020   -0.3020    0.0000 C   0  0  0  0  0  0  0  0  0  0  0  0
   -0.1105    0.4125    0.0000 C   0  0  0  0  0  0  0  0  0  0  0  0
    0.3020    1.1270    0.0000 C   0  0  0  0  0  0  0  0  0  0  0  0
    1.1270    1.1270    0.0000 C   0  0  0  0  0  0  0  0  0  0  0  0
    2.7770    1.1270    0.0000 N   0  0  0  0  0  0  0  0  0  0  0  0
    3.6020    1.1270    0.0000 C   0  0  0  0  0  0  0  0  0  0  0  0
    4.0145    0.4125    0.0000 N   0  0  0  0  0  0  0  0  0  0  0  0
    3.6020   -0.3020    0.0000 C   0  0  0  0  0  0  0  0  0  0  0  0
    4.0145   -1.0164    0.0000 O   0  0  0  0  0  0  0  0  0  0  0  0
    4.8395    0.4125    0.0000 C   0  0  1  0  0  0  0  0  0  0  0  0
    5.2520    1.1270    0.0000 C   0  0  0  0  0  0  0  0  0  0  0  0
    6.0770    1.1270    0.0000 C   0  0  0  0  0  0  0  0  0  0  0  0
    6.4895    0.4125    0.0000 C   0  0  0  0  0  0  0  0  0  0  0  0
    6.0770   -0.3020    0.0000 C   0  0  0  0  0  0  0  0  0  0  0  0
    5.2520   -0.3020    0.0000 C   0  0  2  0  0  0  0  0  0  0  0  0
    4.8395   -1.0164    0.0000 O   0  0  0  0  0  0  0  0  0  0  0  0
   -2.7080   -0.8043    0.0000 H   0  0  0  0  0  0  0  0  0  0  0  0
   -2.7080   -2.6575    0.0000 H   0  0  0  0  0  0  0  0  0  0  0  0
   -3.2430   -1.7309    0.0000 H   0  0  0  0  0  0  0  0  0  0  0  0
   -1.4515   -0.1227    0.0000 H   0  0  0  0  0  0  0  0  0  0  0  0
    0.4055   -0.1227    0.0000 H   0  0  0  0  0  0  0  0  0  0  0  0
    0.4055   -3.3391    0.0000 H   0  0  0  0  0  0  0  0  0  0  0  0
    1.6620   -2.6575    0.0000 H   0  0  0  0  0  0  0  0  0  0  0  0
    2.1970   -1.7309    0.0000 H   0  0  0  0  0  0  0  0  0  0  0  0
    2.8805   -1.9101    0.0000 H   0  0  0  0  0  0  0  0  0  0  0  0
   -0.2140   -1.1957    0.0000 H   0  0  0  0  0  0  0  0  0  0  0  0
   -1.1425    0.4125    0.0000 H   0  0  0  0  0  0  0  0  0  0  0  0
   -0.2140    2.0207    0.0000 H   0  0  0  0  0  0  0  0  0  0  0  0
    1.6430    2.0207    0.0000 H   0  0  0  0  0  0  0  0  0  0  0  0
    4.1180    2.0207    0.0000 H   0  0  0  0  0  0  0  0  0  0  0  0
    4.3045    1.3391    0.0000 H   0  0  0  0  0  0  0  0  0  0  0  0
    4.7170    2.0536    0.0000 H   0  0  0  0  0  0  0  0  0  0  0  0
    5.7870    2.0536    0.0000 H   0  0  0  0  0  0  0  0  0  0  0  0
    6.6120    2.0536    0.0000 H   0  0  0  0  0  0  0  0  0  0  0  0
    7.1470    1.1270    0.0000 H   0  0  0  0  0  0  0  0  0  0  0  0
    7.5595    0.4125    0.0000 H   0  0  0  0  0  0  0  0  0  0  0  0
    7.0245   -0.5141    0.0000 H   0  0  0  0  0  0  0  0  0  0  0  0
    6.6120   -1.2286    0.0000 H   0  0  0  0  0  0  0  0  0  0  0  0
    5.5420   -1.2286    0.0000 H   0  0  0  0  0  0  0  0  0  0  0  0
    5.7870   -1.2287    0.0000 H   0  0  0  0  0  0  0  0  0  0  0  0
    3.8695   -1.0164    0.0000 H   0  0  0  0  0  0  0  0  0  0  0  0
  1  2  1  0  0  0  0
  1 31  1  0  0  0  0
  1 32  1  0  0  0  0
  1 33  1  0  0  0  0
  2  3  2  0  0  0  0
  2  7  1  0  0  0  0
  3  4  1  0  0  0  0
  3 34  1  0  0  0  0
  4  5  2  0  0  0  0
  4 35  1  0  0  0  0
  5  6  1  0  0  0  0
  5  8  1  0  0  0  0
  6  7  2  0  0  0  0
  6 36  1  0  0  0  0
  8  9  1  0  0  0  0
  8 37  1  0  0  0  0
  8 38  1  0  0  0  0
  9 10  2  0  0  0  0
  9 14  1  0  0  0  0
 10 11  1  0  0  0  0
 10 39  1  0  0  0  0
 11 12  2  0  0  0  0
 11 22  1  0  0  0  0
 12 13  1  0  0  0  0
 12 19  1  0  0  0  0
 13 14  1  0  0  0  0
 13 18  2  0  0  0  0
 14 15  2  0  0  0  0
 15 16  1  0  0  0  0
 15 40  1  0  0  0  0
 16 17  2  0  0  0  0
 16 41  1  0  0  0  0
 17 18  1  0  0  0  0
 17 42  1  0  0  0  0
 18 43  1  0  0  0  0
 19 20  2  0  0  0  0
 20 21  1  0  0  0  0
 20 44  1  0  0  0  0
 21 22  1  0  0  0  0
 22 23  2  0  0  0  0
 24 21  1  0  0  0  0
 24 25  1  0  0  0  0
 24 29  1  0  0  0  0
 24 45  1  6  0  0  0
 25 26  1  0  0  0  0
 25 46  1  0  0  0  0
 25 47  1  0  0  0  0
 26 27  1  0  0  0  0
 26 48  1  0  0  0  0
 26 49  1  0  0  0  0
 27 28  1  0  0  0  0
 27 50  1  0  0  0  0
 27 51  1  0  0  0  0
 28 29  1  0  0  0  0
 28 52  1  0  0  0  0
 28 53  1  0  0  0  0
 29 30  1  0  0  0  0
 29 54  1  1  0  0  0
 30 55  1  0  0  0  0
M  END
>  <DRUGBANK_ID>
DB12897

>  <COMMON_NAME>
MK-7622

>  <CAS_NUMBER>
1227923-29-6

>  <UNII>
57R7D1Q49R

$$$$
