4BB
 OpenBabel10282417072D

 43 44  0  0  0  0  0  0  0  0999 V2000
    1.2833    3.6870    0.0000 C   0  0  0  0  0  0  0  0  0  0  0  0
    1.2833    2.8620    0.0000 C   0  0  0  0  0  0  0  0  0  0  0  0
    0.4583    2.8620    0.0000 C   0  0  0  0  0  0  0  0  0  0  0  0
    2.1083    2.8620    0.0000 C   0  0  0  0  0  0  0  0  0  0  0  0
    1.2833    2.0370    0.0000 C   0  0  0  0  0  0  0  0  0  0  0  0
    1.9978    1.6245    0.0000 C   0  0  0  0  0  0  0  0  0  0  0  0
    1.9978    0.7995    0.0000 C   0  0  0  0  0  0  0  0  0  0  0  0
    0.5688    1.6245    0.0000 C   0  0  0  0  0  0  0  0  0  0  0  0
    0.5688    0.7995    0.0000 C   0  0  0  0  0  0  0  0  0  0  0  0
    1.2833    0.3870    0.0000 C   0  0  0  0  0  0  0  0  0  0  0  0
    1.2833   -0.4380    0.0000 C   0  0  0  0  0  0  0  0  0  0  0  0
    0.5688   -0.8505    0.0000 O   0  0  0  0  0  0  0  0  0  0  0  0
    1.9978   -0.8505    0.0000 N   0  0  0  0  0  0  0  0  0  0  0  0
    1.9978   -1.6755    0.0000 N   0  0  0  0  0  0  0  0  0  0  0  0
    2.7123   -2.0880    0.0000 C   0  0  0  0  0  0  0  0  0  0  0  0
    2.7123   -2.9130    0.0000 C   0  0  0  0  0  0  0  0  0  0  0  0
    3.4267   -3.3255    0.0000 C   0  0  0  0  0  0  0  0  0  0  0  0
    3.4267   -4.1505    0.0000 C   0  0  0  0  0  0  0  0  0  0  0  0
    4.1412   -4.5630    0.0000 Br  0  0  0  0  0  0  0  0  0  0  0  0
    2.7123   -4.5630    0.0000 C   0  0  0  0  0  0  0  0  0  0  0  0
    2.7123   -5.3880    0.0000 O   0  0  0  0  0  0  0  0  0  0  0  0
    1.9978   -4.1505    0.0000 C   0  0  0  0  0  0  0  0  0  0  0  0
    1.2833   -4.5630    0.0000 Br  0  0  0  0  0  0  0  0  0  0  0  0
    1.9978   -3.3255    0.0000 C   0  0  0  0  0  0  0  0  0  0  0  0
    1.2833   -2.9130    0.0000 O   0  0  0  0  0  0  0  0  0  0  0  0
    2.2099    4.2220    0.0000 H   0  0  0  0  0  0  0  0  0  0  0  0
    0.3567    4.2220    0.0000 H   0  0  0  0  0  0  0  0  0  0  0  0
    1.2833    4.7570    0.0000 H   0  0  0  0  0  0  0  0  0  0  0  0
   -0.0767    3.7886    0.0000 H   0  0  0  0  0  0  0  0  0  0  0  0
   -0.0767    1.9354    0.0000 H   0  0  0  0  0  0  0  0  0  0  0  0
   -0.6117    2.8620    0.0000 H   0  0  0  0  0  0  0  0  0  0  0  0
    2.6433    1.9354    0.0000 H   0  0  0  0  0  0  0  0  0  0  0  0
    2.6433    3.7886    0.0000 H   0  0  0  0  0  0  0  0  0  0  0  0
    3.1783    2.8620    0.0000 H   0  0  0  0  0  0  0  0  0  0  0  0
    2.8915    2.1405    0.0000 H   0  0  0  0  0  0  0  0  0  0  0  0
    2.8915    0.2835    0.0000 H   0  0  0  0  0  0  0  0  0  0  0  0
   -0.3249    2.1405    0.0000 H   0  0  0  0  0  0  0  0  0  0  0  0
   -0.3249    0.2835    0.0000 H   0  0  0  0  0  0  0  0  0  0  0  0
    2.8504   -0.3582    0.0000 H   0  0  0  0  0  0  0  0  0  0  0  0
    3.6060   -1.5720    0.0000 H   0  0  0  0  0  0  0  0  0  0  0  0
    4.3204   -2.8095    0.0000 H   0  0  0  0  0  0  0  0  0  0  0  0
    1.9008   -5.8565    0.0000 H   0  0  0  0  0  0  0  0  0  0  0  0
    1.2833   -1.9760    0.0000 H   0  0  0  0  0  0  0  0  0  0  0  0
  1  2  1  0  0  0  0
  1 26  1  0  0  0  0
  1 27  1  0  0  0  0
  1 28  1  0  0  0  0
  2  3  1  0  0  0  0
  2  4  1  0  0  0  0
  2  5  1  0  0  0  0
  3 29  1  0  0  0  0
  3 30  1  0  0  0  0
  3 31  1  0  0  0  0
  4 32  1  0  0  0  0
  4 33  1  0  0  0  0
  4 34  1  0  0  0  0
  5  6  2  0  0  0  0
  5  8  1  0  0  0  0
  6  7  1  0  0  0  0
  6 35  1  0  0  0  0
  7 10  2  0  0  0  0
  7 36  1  0  0  0  0
  8  9  2  0  0  0  0
  8 37  1  0  0  0  0
  9 10  1  0  0  0  0
  9 38  1  0  0  0  0
 10 11  1  0  0  0  0
 11 12  2  0  0  0  0
 11 13  1  0  0  0  0
 13 14  1  0  0  0  0
 13 39  1  0  0  0  0
 14 15  2  0  0  0  0
 15 16  1  0  0  0  0
 15 40  1  0  0  0  0
 16 17  2  0  0  0  0
 16 24  1  0  0  0  0
 17 18  1  0  0  0  0
 17 41  1  0  0  0  0
 18 19  1  0  0  0  0
 18 20  2  0  0  0  0
 20 21  1  0  0  0  0
 20 22  1  0  0  0  0
 21 42  1  0  0  0  0
 22 23  1  0  0  0  0
 22 24  2  0  0  0  0
 24 25  1  0  0  0  0
 25 43  1  0  0  0  0
M  END
>  <DRUGBANK_ID>
DB07097

>  <COMMON_NAME>
4-tert-butyl-N'-[(1E)-(3,5-dibromo-2,4-dihydroxyphenyl)methylidene]benzohydrazide

$$$$
