
 OpenBabel10282417072D

 42 45  0  0  0  0  0  0  0  0999 V2000
   -3.0587    2.2374    0.0000 C   0  0  0  0  0  0  0  0  0  0  0  0
    0.6538    4.3808    0.0000 C   0  0  0  0  0  0  0  0  0  0  0  0
   -2.6462    1.5229    0.0000 C   0  0  0  0  0  0  0  0  0  0  0  0
   -2.6462    2.9519    0.0000 C   0  0  0  0  0  0  0  0  0  0  0  0
   -0.1712    4.3808    0.0000 C   0  0  0  0  0  0  0  0  0  0  0  0
    1.0663    3.6664    0.0000 C   0  0  0  0  0  0  0  0  0  0  0  0
    3.3523    1.1104    0.0000 C   0  0  0  0  0  0  0  0  0  0  0  0
    3.3523    1.9354    0.0000 C   0  0  0  0  0  0  0  0  0  0  0  0
   -1.8212    1.5229    0.0000 C   0  0  0  0  0  0  0  0  0  0  0  0
   -1.8212    2.9519    0.0000 C   0  0  0  0  0  0  0  0  0  0  0  0
   -0.5837    3.6664    0.0000 C   0  0  0  0  0  0  0  0  0  0  0  0
    0.6538    2.9519    0.0000 C   0  0  0  0  0  0  0  0  0  0  0  0
    2.6378    0.6979    0.0000 C   0  0  0  0  0  0  0  0  0  0  0  0
    2.6378    2.3479    0.0000 C   0  0  0  0  0  0  0  0  0  0  0  0
   -1.4087    2.2374    0.0000 C   0  0  0  0  0  0  0  0  0  0  0  0
   -0.1712    2.9519    0.0000 C   0  0  0  0  0  0  0  0  0  0  0  0
    1.9233    1.1104    0.0000 C   0  0  0  0  0  0  0  0  0  0  0  0
    1.9233    1.9354    0.0000 C   0  0  0  0  0  0  0  0  0  0  0  0
   -0.5837    2.2374    0.0000 C   0  0  0  0  0  0  0  0  0  0  0  0
    0.6538    1.5229    0.0000 C   0  0  0  0  0  0  0  0  0  0  0  0
    1.1387    0.8555    0.0000 C   0  0  0  0  0  0  0  0  0  0  0  0
    1.1387    2.1904    0.0000 C   0  0  0  0  0  0  0  0  0  0  0  0
   -0.1712    1.5229    0.0000 C   0  0  0  0  0  0  0  0  0  0  0  0
    0.8838    0.0709    0.0000 O   0  0  0  0  0  0  0  0  0  0  0  0
    1.1387    3.0154    0.0000 O   0  0  0  0  0  0  0  0  0  0  0  0
   -0.5837    0.8085    0.0000 O   0  0  0  0  0  0  0  0  0  0  0  0
   -4.0907    2.2374    0.0000 H   0  0  0  0  0  0  0  0  0  0  0  0
    1.1698    5.2745    0.0000 H   0  0  0  0  0  0  0  0  0  0  0  0
   -3.1622    0.6292    0.0000 H   0  0  0  0  0  0  0  0  0  0  0  0
   -3.1622    3.8456    0.0000 H   0  0  0  0  0  0  0  0  0  0  0  0
   -0.6872    5.2745    0.0000 H   0  0  0  0  0  0  0  0  0  0  0  0
    2.0983    3.6664    0.0000 H   0  0  0  0  0  0  0  0  0  0  0  0
    4.2460    0.5944    0.0000 H   0  0  0  0  0  0  0  0  0  0  0  0
    4.2460    2.4514    0.0000 H   0  0  0  0  0  0  0  0  0  0  0  0
   -1.3052    0.6292    0.0000 H   0  0  0  0  0  0  0  0  0  0  0  0
   -1.3052    3.8456    0.0000 H   0  0  0  0  0  0  0  0  0  0  0  0
   -1.6157    3.6664    0.0000 H   0  0  0  0  0  0  0  0  0  0  0  0
    1.1698    2.0582    0.0000 H   0  0  0  0  0  0  0  0  0  0  0  0
    2.6378   -0.3341    0.0000 H   0  0  0  0  0  0  0  0  0  0  0  0
    2.6378    3.3799    0.0000 H   0  0  0  0  0  0  0  0  0  0  0  0
    0.4863    2.2374    0.0000 H   0  0  0  0  0  0  0  0  0  0  0  0
    0.1680    2.4763    0.0000 H   0  0  0  0  0  0  0  0  0  0  0  0
  1 27  1  0  0  0  0
  2 28  1  0  0  0  0
  3  1  2  0  0  0  0
  3 29  1  0  0  0  0
  4  1  1  0  0  0  0
  4 30  1  0  0  0  0
  5  2  2  0  0  0  0
  5 31  1  0  0  0  0
  6  2  1  0  0  0  0
  6 32  1  0  0  0  0
  7 33  1  0  0  0  0
  8  7  2  0  0  0  0
  8 34  1  0  0  0  0
  9  3  1  0  0  0  0
  9 35  1  0  0  0  0
 10  4  2  0  0  0  0
 10 36  1  0  0  0  0
 11  5  1  0  0  0  0
 11 37  1  0  0  0  0
 12  6  2  0  0  0  0
 12 38  1  0  0  0  0
 13  7  1  0  0  0  0
 13 39  1  0  0  0  0
 14  8  1  0  0  0  0
 14 40  1  0  0  0  0
 15  9  2  0  0  0  0
 15 10  1  0  0  0  0
 16 11  2  0  0  0  0
 16 12  1  0  0  0  0
 17 13  2  0  0  0  0
 18 14  2  0  0  0  0
 18 17  1  0  0  0  0
 19 15  1  0  0  0  0
 19 16  1  0  0  0  0
 19 41  1  0  0  0  0
 20 42  1  0  0  0  0
 21 17  1  0  0  0  0
 21 20  1  0  0  0  0
 22 18  1  0  0  0  0
 22 20  1  0  0  0  0
 23 19  1  0  0  0  0
 23 20  1  0  0  0  0
 24 21  2  0  0  0  0
 25 22  2  0  0  0  0
 26 23  2  0  0  0  0
M  END
>  <DRUGBANK_ID>
DB13347

>  <COMMON_NAME>
Diphenadione

>  <CAS_NUMBER>
82-66-6

>  <UNII>
54CA01C6JX

>  <SYNONYMS>
Diphenadione

$$$$
