
 OpenBabel10282417072D

 43 45  0  0  0  0  0  0  0  0999 V2000
   -7.1447    5.7750    0.0000 C   0  0  0  0  0  0  0  0  0  0  0  0
   -4.2868    3.3000    0.0000 C   0  0  0  0  0  0  0  0  0  0  0  0
   -1.4289    2.4750    0.0000 C   0  0  0  0  0  0  0  0  0  0  0  0
   -2.1434    6.1875    0.0000 C   0  0  0  0  0  0  0  0  0  0  0  0
   -2.8579    5.7750    0.0000 C   0  0  0  0  0  0  0  0  0  0  0  0
   -1.4289    3.3000    0.0000 C   0  0  0  0  0  0  0  0  0  0  0  0
   -4.2868    5.7750    0.0000 C   0  0  0  0  0  0  0  0  0  0  0  0
   -5.0013    6.1875    0.0000 C   0  0  0  0  0  0  0  0  0  0  0  0
   -2.1434    2.0625    0.0000 C   0  0  0  0  0  0  0  0  0  0  0  0
   -1.4289    5.7750    0.0000 C   0  0  0  0  0  0  0  0  0  0  0  0
   -3.5724    4.5375    0.0000 C   0  0  0  0  0  0  0  0  0  0  0  0
   -5.7158    4.9500    0.0000 C   0  0  0  0  0  0  0  0  0  0  0  0
   -2.8579    3.3000    0.0000 C   0  0  0  0  0  0  0  0  0  0  0  0
   -4.2868    4.9500    0.0000 C   0  0  0  0  0  0  0  0  0  0  0  0
   -2.8579    4.9500    0.0000 C   0  0  0  0  0  0  0  0  0  0  0  0
   -2.1434    3.7125    0.0000 C   0  0  0  0  0  0  0  0  0  0  0  0
   -5.7158    5.7750    0.0000 C   0  0  0  0  0  0  0  0  0  0  0  0
   -5.0013    4.5375    0.0000 C   0  0  0  0  0  0  0  0  0  0  0  0
   -2.1434    4.5375    0.0000 C   0  0  0  0  0  0  0  0  0  0  0  0
   -2.8579    2.4750    0.0000 N   0  0  0  0  0  0  0  0  0  0  0  0
   -1.4289    4.9500    0.0000 N   0  0  0  0  0  0  0  0  0  0  0  0
   -6.4302    6.1875    0.0000 O   0  0  0  0  0  0  0  0  0  0  0  0
   -5.0013    3.7125    0.0000 O   0  0  0  0  0  0  0  0  0  0  0  0
   -3.5724    3.7125    0.0000 H   0  0  0  0  0  0  0  0  0  0  0  0
   -8.0713    6.3100    0.0000 H   0  0  0  0  0  0  0  0  0  0  0  0
   -7.1447    4.7050    0.0000 H   0  0  0  0  0  0  0  0  0  0  0  0
   -8.0714    5.2400    0.0000 H   0  0  0  0  0  0  0  0  0  0  0  0
   -4.2868    2.2300    0.0000 H   0  0  0  0  0  0  0  0  0  0  0  0
   -3.3602    3.8350    0.0000 H   0  0  0  0  0  0  0  0  0  0  0  0
   -3.3601    2.7650    0.0000 H   0  0  0  0  0  0  0  0  0  0  0  0
   -0.5352    1.9590    0.0000 H   0  0  0  0  0  0  0  0  0  0  0  0
   -2.1434    7.2575    0.0000 H   0  0  0  0  0  0  0  0  0  0  0  0
   -1.2168    6.7225    0.0000 H   0  0  0  0  0  0  0  0  0  0  0  0
   -3.7845    6.3100    0.0000 H   0  0  0  0  0  0  0  0  0  0  0  0
   -3.7845    5.2400    0.0000 H   0  0  0  0  0  0  0  0  0  0  0  0
   -0.5352    3.8160    0.0000 H   0  0  0  0  0  0  0  0  0  0  0  0
   -3.3931    6.2910    0.0000 H   0  0  0  0  0  0  0  0  0  0  0  0
   -5.0013    7.2195    0.0000 H   0  0  0  0  0  0  0  0  0  0  0  0
   -2.1434    1.0305    0.0000 H   0  0  0  0  0  0  0  0  0  0  0  0
   -0.5023    6.3100    0.0000 H   0  0  0  0  0  0  0  0  0  0  0  0
   -0.5023    5.2400    0.0000 H   0  0  0  0  0  0  0  0  0  0  0  0
   -6.6095    4.4340    0.0000 H   0  0  0  0  0  0  0  0  0  0  0  0
   -3.7516    3.8160    0.0000 H   0  0  0  0  0  0  0  0  0  0  0  0
  1 25  1  0  0  0  0
  1 26  1  0  0  0  0
  1 27  1  0  0  0  0
  2 28  1  0  0  0  0
  2 29  1  0  0  0  0
  2 30  1  0  0  0  0
  3 31  1  0  0  0  0
  4 32  1  0  0  0  0
  4 33  1  0  0  0  0
  5  4  1  0  0  0  0
  5 34  1  0  0  0  0
  5 35  1  0  0  0  0
  6  3  2  0  0  0  0
  6 36  1  0  0  0  0
  7 37  1  0  0  0  0
  8  7  2  0  0  0  0
  8 38  1  0  0  0  0
  9  3  1  0  0  0  0
  9 39  1  0  0  0  0
 10  4  1  0  0  0  0
 10 40  1  0  0  0  0
 10 41  1  0  0  0  0
 12 42  1  0  0  0  0
 13 43  1  0  0  0  0
 14  7  1  0  0  0  0
 14 11  1  0  0  0  0
 15  5  1  0  0  0  0
 15 11  2  0  0  0  0
 16  6  1  0  0  0  0
 16 13  2  0  0  0  0
 17  8  1  0  0  0  0
 17 12  2  0  0  0  0
 18 12  1  0  0  0  0
 18 14  2  0  0  0  0
 19 15  1  0  0  0  0
 19 16  1  0  0  0  0
 20  9  2  0  0  0  0
 20 13  1  0  0  0  0
 21 10  1  0  0  0  0
 21 19  2  0  0  0  0
 22  1  1  0  0  0  0
 22 17  1  0  0  0  0
 23  2  1  0  0  0  0
 23 18  1  0  0  0  0
 24 11  1  0  0  0  0
M  END
>  <DRUGBANK_ID>
DB05708

>  <COMMON_NAME>
GTS-21

>  <CAS_NUMBER>
148372-04-7

>  <UNII>
8S399XDN2K

>  <SYNONYMS>
3-(2,4-dimethoxybenzylidene)anabaseine; Dimethoxybenzylidene anabaseine; DMXB-A; DMXB-Anabaseine

$$$$
