
 OpenBabel10282417072D

 57 59  0  0  0  0  0  0  0  0999 V2000
   -4.5408    1.6455    0.0000 O   0  0  0  0  0  0  0  0  0  0  0  0
   -5.3478    1.8170    0.0000 N   0  0  0  0  0  0  0  0  0  0  0  0
   -5.7603    1.1025    0.0000 C   0  0  0  0  0  0  0  0  0  0  0  0
   -6.5808    1.0163    0.0000 C   0  0  0  0  0  0  0  0  0  0  0  0
   -5.2083    0.4894    0.0000 C   0  0  0  0  0  0  0  0  0  0  0  0
   -4.4546    0.8250    0.0000 C   0  0  0  0  0  0  0  0  0  0  0  0
   -3.7401    0.4125    0.0000 C   0  0  0  0  0  0  0  0  0  0  0  0
   -3.0257    0.8250    0.0000 C   0  0  0  0  0  0  0  0  0  0  0  0
   -2.3112    0.4125    0.0000 C   0  0  0  0  0  0  0  0  0  0  0  0
   -1.5967    0.8250    0.0000 C   0  0  0  0  0  0  0  0  0  0  0  0
   -0.8823    0.4125    0.0000 C   0  0  0  0  0  0  0  0  0  0  0  0
   -0.1678    0.8250    0.0000 C   0  0  0  0  0  0  0  0  0  0  0  0
    0.5466    0.4125    0.0000 C   0  0  0  0  0  0  0  0  0  0  0  0
    1.2611    0.8250    0.0000 O   0  0  0  0  0  0  0  0  0  0  0  0
    1.9755    0.4125    0.0000 C   0  0  0  0  0  0  0  0  0  0  0  0
    2.6900    0.8250    0.0000 C   0  0  0  0  0  0  0  0  0  0  0  0
    3.4045    0.4125    0.0000 C   0  0  0  0  0  0  0  0  0  0  0  0
    3.4045   -0.4124    0.0000 C   0  0  0  0  0  0  0  0  0  0  0  0
    2.6900   -0.8250    0.0000 C   0  0  0  0  0  0  0  0  0  0  0  0
    1.9755   -0.4124    0.0000 C   0  0  0  0  0  0  0  0  0  0  0  0
    4.1189   -0.8250    0.0000 C   0  0  0  0  0  0  0  0  0  0  0  0
    4.8726   -0.4894    0.0000 N   0  0  0  0  0  0  0  0  0  0  0  0
    5.4246   -1.1025    0.0000 C   0  0  1  0  0  0  0  0  0  0  0  0
    6.2451   -1.0162    0.0000 C   0  0  0  0  0  0  0  0  0  0  0  0
    6.5807   -0.2627    0.0000 C   0  0  0  0  0  0  0  0  0  0  0  0
    5.0121   -1.8170    0.0000 C   0  0  0  0  0  0  0  0  0  0  0  0
    4.2052   -1.6455    0.0000 O   0  0  0  0  0  0  0  0  0  0  0  0
   -7.2097    1.8820    0.0000 H   0  0  0  0  0  0  0  0  0  0  0  0
   -7.0161    0.0388    0.0000 H   0  0  0  0  0  0  0  0  0  0  0  0
   -7.6449    0.9045    0.0000 H   0  0  0  0  0  0  0  0  0  0  0  0
   -5.4229   -0.5200    0.0000 H   0  0  0  0  0  0  0  0  0  0  0  0
   -3.7401   -0.6575    0.0000 H   0  0  0  0  0  0  0  0  0  0  0  0
   -2.8134   -0.1225    0.0000 H   0  0  0  0  0  0  0  0  0  0  0  0
   -3.0257    1.8950    0.0000 H   0  0  0  0  0  0  0  0  0  0  0  0
   -2.0991    1.3600    0.0000 H   0  0  0  0  0  0  0  0  0  0  0  0
   -2.3112   -0.6575    0.0000 H   0  0  0  0  0  0  0  0  0  0  0  0
   -1.3846   -0.1225    0.0000 H   0  0  0  0  0  0  0  0  0  0  0  0
   -1.5967    1.8950    0.0000 H   0  0  0  0  0  0  0  0  0  0  0  0
   -0.6700    1.3600    0.0000 H   0  0  0  0  0  0  0  0  0  0  0  0
   -0.8823   -0.6575    0.0000 H   0  0  0  0  0  0  0  0  0  0  0  0
    0.0443   -0.1225    0.0000 H   0  0  0  0  0  0  0  0  0  0  0  0
   -0.1678    1.8950    0.0000 H   0  0  0  0  0  0  0  0  0  0  0  0
    0.7589    1.3600    0.0000 H   0  0  0  0  0  0  0  0  0  0  0  0
    0.5466   -0.6575    0.0000 H   0  0  0  0  0  0  0  0  0  0  0  0
    1.4732   -0.1225    0.0000 H   0  0  0  0  0  0  0  0  0  0  0  0
    2.6900    1.8570    0.0000 H   0  0  0  0  0  0  0  0  0  0  0  0
    4.2982    0.9285    0.0000 H   0  0  0  0  0  0  0  0  0  0  0  0
    2.6900   -1.8570    0.0000 H   0  0  0  0  0  0  0  0  0  0  0  0
    1.0817   -0.9284    0.0000 H   0  0  0  0  0  0  0  0  0  0  0  0
    5.8080   -0.1036    0.0000 H   0  0  0  0  0  0  0  0  0  0  0  0
    6.8740   -1.8819    0.0000 H   0  0  0  0  0  0  0  0  0  0  0  0
    7.3092   -0.9044    0.0000 H   0  0  0  0  0  0  0  0  0  0  0  0
    7.6449   -0.1510    0.0000 H   0  0  0  0  0  0  0  0  0  0  0  0
    5.9519    0.6030    0.0000 H   0  0  0  0  0  0  0  0  0  0  0  0
    7.0160    0.7147    0.0000 H   0  0  0  0  0  0  0  0  0  0  0  0
    5.4473   -2.7945    0.0000 H   0  0  0  0  0  0  0  0  0  0  0  0
    4.3387   -2.6486    0.0000 H   0  0  0  0  0  0  0  0  0  0  0  0
  2  1  1  0  0  0  0
  3  2  2  0  0  0  0
  3  4  1  0  0  0  0
  3  5  1  0  0  0  0
  4 28  1  0  0  0  0
  4 29  1  0  0  0  0
  4 30  1  0  0  0  0
  5  6  2  0  0  0  0
  5 31  1  0  0  0  0
  6  1  1  0  0  0  0
  7  6  1  0  0  0  0
  7  8  1  0  0  0  0
  7 32  1  0  0  0  0
  7 33  1  0  0  0  0
  8  9  1  0  0  0  0
  8 34  1  0  0  0  0
  8 35  1  0  0  0  0
  9 10  1  0  0  0  0
  9 36  1  0  0  0  0
  9 37  1  0  0  0  0
 10 11  1  0  0  0  0
 10 38  1  0  0  0  0
 10 39  1  0  0  0  0
 11 12  1  0  0  0  0
 11 40  1  0  0  0  0
 11 41  1  0  0  0  0
 12 13  1  0  0  0  0
 12 42  1  0  0  0  0
 12 43  1  0  0  0  0
 13 14  1  0  0  0  0
 13 44  1  0  0  0  0
 13 45  1  0  0  0  0
 15 14  1  0  0  0  0
 15 16  2  0  0  0  0
 15 20  1  0  0  0  0
 16 17  1  0  0  0  0
 16 46  1  0  0  0  0
 17 18  2  0  0  0  0
 17 47  1  0  0  0  0
 18 19  1  0  0  0  0
 19 20  2  0  0  0  0
 19 48  1  0  0  0  0
 20 49  1  0  0  0  0
 21 18  1  0  0  0  0
 21 22  2  0  0  0  0
 21 27  1  0  0  0  0
 23 22  1  0  0  0  0
 23 24  1  0  0  0  0
 23 26  1  0  0  0  0
 23 50  1  6  0  0  0
 24 25  1  0  0  0  0
 24 51  1  0  0  0  0
 24 52  1  0  0  0  0
 25 53  1  0  0  0  0
 25 54  1  0  0  0  0
 25 55  1  0  0  0  0
 26 27  1  0  0  0  0
 26 56  1  0  0  0  0
 26 57  1  0  0  0  0
M  END
>  <DRUGBANK_ID>
DB08725

>  <COMMON_NAME>
(S)-5-(7-(4-(4-Ethyl-4,5-dihydro-2-oxazolyl)phenoxy)heptyl)-3-methylisoxazole

>  <CAS_NUMBER>
112270-39-0

$$$$
