
 OpenBabel10282417072D

 43 44  0  0  0  0  0  0  0  0999 V2000
    1.7861    0.4125    0.0000 C   0  0  0  0  0  0  0  0  0  0  0  0
    1.7861   -0.4124    0.0000 C   0  0  0  0  0  0  0  0  0  0  0  0
    1.0717    0.8250    0.0000 C   0  0  0  0  0  0  0  0  0  0  0  0
    2.5006   -0.8249    0.0000 C   0  0  0  0  0  0  0  0  0  0  0  0
   -3.2152    0.8250    0.0000 N   0  0  0  0  0  0  0  0  0  0  0  0
    0.3572    0.4125    0.0000 O   0  0  0  0  0  0  0  0  0  0  0  0
    2.5006    0.8250    0.0000 C   0  0  0  0  0  0  0  0  0  0  0  0
    1.0717    1.6500    0.0000 C   0  0  0  0  0  0  0  0  0  0  0  0
   -2.5006    0.4125    0.0000 C   0  0  0  0  0  0  0  0  0  0  0  0
   -3.9296    0.4125    0.0000 C   0  0  0  0  0  0  0  0  0  0  0  0
   -0.3573    0.8250    0.0000 C   0  0  0  0  0  0  0  0  0  0  0  0
    3.2151   -0.4124    0.0000 C   0  0  0  0  0  0  0  0  0  0  0  0
    2.5006   -1.6500    0.0000 C   0  0  0  0  0  0  0  0  0  0  0  0
   -1.7862    0.8250    0.0000 C   0  0  0  0  0  0  0  0  0  0  0  0
   -1.0716    0.4125    0.0000 C   0  0  0  0  0  0  0  0  0  0  0  0
    2.5006    1.6500    0.0000 C   0  0  0  0  0  0  0  0  0  0  0  0
    1.7861    2.0625    0.0000 C   0  0  0  0  0  0  0  0  0  0  0  0
    3.9296   -0.8249    0.0000 C   0  0  0  0  0  0  0  0  0  0  0  0
    3.2151   -2.0625    0.0000 C   0  0  0  0  0  0  0  0  0  0  0  0
    3.9296   -1.6500    0.0000 C   0  0  0  0  0  0  0  0  0  0  0  0
    0.8595   -0.9474    0.0000 H   0  0  0  0  0  0  0  0  0  0  0  0
    1.7861   -1.4824    0.0000 H   0  0  0  0  0  0  0  0  0  0  0  0
   -3.2153    1.8450    0.0000 H   0  0  0  0  0  0  0  0  0  0  0  0
    3.3943    0.3090    0.0000 H   0  0  0  0  0  0  0  0  0  0  0  0
    0.1780    2.1660    0.0000 H   0  0  0  0  0  0  0  0  0  0  0  0
   -2.5005   -0.6575    0.0000 H   0  0  0  0  0  0  0  0  0  0  0  0
   -1.5739   -0.1225    0.0000 H   0  0  0  0  0  0  0  0  0  0  0  0
   -4.8563    0.9475    0.0000 H   0  0  0  0  0  0  0  0  0  0  0  0
   -3.9296   -0.6575    0.0000 H   0  0  0  0  0  0  0  0  0  0  0  0
   -4.8562   -0.1225    0.0000 H   0  0  0  0  0  0  0  0  0  0  0  0
   -0.3574    1.8950    0.0000 H   0  0  0  0  0  0  0  0  0  0  0  0
   -1.2840    1.3599    0.0000 H   0  0  0  0  0  0  0  0  0  0  0  0
    3.2151    0.6196    0.0000 H   0  0  0  0  0  0  0  0  0  0  0  0
    1.6069   -2.1660    0.0000 H   0  0  0  0  0  0  0  0  0  0  0  0
   -1.7863    1.8950    0.0000 H   0  0  0  0  0  0  0  0  0  0  0  0
   -0.8596    1.3601    0.0000 H   0  0  0  0  0  0  0  0  0  0  0  0
   -1.0715   -0.6575    0.0000 H   0  0  0  0  0  0  0  0  0  0  0  0
   -1.9982   -0.1226    0.0000 H   0  0  0  0  0  0  0  0  0  0  0  0
    3.3943    2.1660    0.0000 H   0  0  0  0  0  0  0  0  0  0  0  0
    1.7861    3.0945    0.0000 H   0  0  0  0  0  0  0  0  0  0  0  0
    4.8233   -0.3089    0.0000 H   0  0  0  0  0  0  0  0  0  0  0  0
    3.2151   -3.0945    0.0000 H   0  0  0  0  0  0  0  0  0  0  0  0
    4.8233   -2.1660    0.0000 H   0  0  0  0  0  0  0  0  0  0  0  0
  1  2  1  0  0  0  0
  1  3  1  0  0  0  0
  1  7  2  0  0  0  0
  2  4  1  0  0  0  0
  2 21  1  0  0  0  0
  2 22  1  0  0  0  0
  3  6  1  0  0  0  0
  3  8  2  0  0  0  0
  4 12  1  0  0  0  0
  4 13  2  0  0  0  0
  5  9  1  0  0  0  0
  5 10  1  0  0  0  0
  5 23  1  0  0  0  0
  6 11  1  0  0  0  0
  7 16  1  0  0  0  0
  7 24  1  0  0  0  0
  8 17  1  0  0  0  0
  8 25  1  0  0  0  0
  9 14  1  0  0  0  0
  9 26  1  0  0  0  0
  9 27  1  0  0  0  0
 10 28  1  0  0  0  0
 10 29  1  0  0  0  0
 10 30  1  0  0  0  0
 11 15  1  0  0  0  0
 11 31  1  0  0  0  0
 11 32  1  0  0  0  0
 12 18  2  0  0  0  0
 12 33  1  0  0  0  0
 13 19  1  0  0  0  0
 13 34  1  0  0  0  0
 14 15  1  0  0  0  0
 14 35  1  0  0  0  0
 14 36  1  0  0  0  0
 15 37  1  0  0  0  0
 15 38  1  0  0  0  0
 16 17  2  0  0  0  0
 16 39  1  0  0  0  0
 17 40  1  0  0  0  0
 18 20  1  0  0  0  0
 18 41  1  0  0  0  0
 19 20  2  0  0  0  0
 19 42  1  0  0  0  0
 20 43  1  0  0  0  0
M  END
>  <DRUGBANK_ID>
DB13550

>  <COMMON_NAME>
Bifemelane

>  <CAS_NUMBER>
90293-01-9

>  <UNII>
Z4501GN13G

>  <SYNONYMS>
Bifemelane; Bifemelano; Bifemelanum

$$$$
