
 OpenBabel10282417072D

 69 72  0  0  0  0  0  0  0  0999 V2000
   -0.7145   -4.6993    0.0000 C   0  0  0  0  0  0  0  0  0  0  0  0
   -0.3020   -3.9849    0.0000 C   0  0  0  0  0  0  0  0  0  0  0  0
   -0.7145   -3.2704    0.0000 C   0  0  0  0  0  0  0  0  0  0  0  0
   -0.3020   -2.5559    0.0000 C   0  0  0  0  0  0  0  0  0  0  0  0
    0.5230   -2.5559    0.0000 C   0  0  0  0  0  0  0  0  0  0  0  0
    0.9355   -3.2704    0.0000 C   0  0  0  0  0  0  0  0  0  0  0  0
    0.5230   -3.9849    0.0000 C   0  0  0  0  0  0  0  0  0  0  0  0
    0.9355   -1.8414    0.0000 C   0  0  0  0  0  0  0  0  0  0  0  0
    1.7605   -1.8414    0.0000 O   0  0  0  0  0  0  0  0  0  0  0  0
    0.5230   -1.1270    0.0000 N   0  0  0  0  0  0  0  0  0  0  0  0
   -0.3020   -1.1270    0.0000 C   0  0  0  0  0  0  0  0  0  0  0  0
   -0.7145   -0.4125    0.0000 C   0  0  0  0  0  0  0  0  0  0  0  0
   -1.5395   -0.4125    0.0000 C   0  0  0  0  0  0  0  0  0  0  0  0
   -1.9520   -1.1270    0.0000 N   0  0  0  0  0  0  0  0  0  0  0  0
    0.9355   -0.4125    0.0000 C   0  0  3  0  0  0  0  0  0  0  0  0
    0.5230    0.3020    0.0000 C   0  0  0  0  0  0  0  0  0  0  0  0
   -0.3020    0.3020    0.0000 N   0  0  0  0  0  0  0  0  0  0  0  0
   -0.7145    1.0164    0.0000 C   0  0  0  0  0  0  0  0  0  0  0  0
   -0.3020    1.7309    0.0000 C   0  0  0  0  0  0  0  0  0  0  0  0
   -0.8540    2.3440    0.0000 C   0  0  0  0  0  0  0  0  0  0  0  0
   -1.6077    2.0084    0.0000 N   0  0  0  0  0  0  0  0  0  0  0  0
   -1.5214    1.1880    0.0000 S   0  0  0  0  0  0  0  0  0  0  0  0
   -0.6825    3.1510    0.0000 C   0  0  0  0  0  0  0  0  0  0  0  0
    0.5230    1.7309    0.0000 C   0  0  0  0  0  0  0  0  0  0  0  0
    0.9355    2.4454    0.0000 O   0  0  0  0  0  0  0  0  0  0  0  0
    0.9355    1.0164    0.0000 N   0  0  0  0  0  0  0  0  0  0  0  0
    1.7605    1.0164    0.0000 C   0  0  0  0  0  0  0  0  0  0  0  0
    2.1730    1.7309    0.0000 C   0  0  0  0  0  0  0  0  0  0  0  0
    1.7605    2.4454    0.0000 C   0  0  0  0  0  0  0  0  0  0  0  0
    2.1730    3.1599    0.0000 C   0  0  0  0  0  0  0  0  0  0  0  0
    2.9980    3.1599    0.0000 C   0  0  0  0  0  0  0  0  0  0  0  0
    3.4105    2.4454    0.0000 C   0  0  0  0  0  0  0  0  0  0  0  0
    2.9980    1.7309    0.0000 C   0  0  0  0  0  0  0  0  0  0  0  0
    1.7605   -0.4125    0.0000 C   0  0  0  0  0  0  0  0  0  0  0  0
    2.1730    0.3020    0.0000 C   0  0  0  0  0  0  0  0  0  0  0  0
    2.1730   -1.1270    0.0000 C   0  0  0  0  0  0  0  0  0  0  0  0
   -1.7845   -4.6993    0.0000 H   0  0  0  0  0  0  0  0  0  0  0  0
   -0.1795   -5.6260    0.0000 H   0  0  0  0  0  0  0  0  0  0  0  0
   -1.2495   -5.6259    0.0000 H   0  0  0  0  0  0  0  0  0  0  0  0
   -1.7465   -3.2704    0.0000 H   0  0  0  0  0  0  0  0  0  0  0  0
   -0.8180   -1.6622    0.0000 H   0  0  0  0  0  0  0  0  0  0  0  0
    1.9675   -3.2704    0.0000 H   0  0  0  0  0  0  0  0  0  0  0  0
    1.0390   -4.8786    0.0000 H   0  0  0  0  0  0  0  0  0  0  0  0
   -0.8370   -2.0536    0.0000 H   0  0  0  0  0  0  0  0  0  0  0  0
   -1.3720   -1.1270    0.0000 H   0  0  0  0  0  0  0  0  0  0  0  0
   -0.1795    0.5141    0.0000 H   0  0  0  0  0  0  0  0  0  0  0  0
   -1.2495    0.5141    0.0000 H   0  0  0  0  0  0  0  0  0  0  0  0
   -2.0745    0.5141    0.0000 H   0  0  0  0  0  0  0  0  0  0  0  0
   -2.6095   -0.4125    0.0000 H   0  0  0  0  0  0  0  0  0  0  0  0
   -2.9720   -1.1270    0.0000 H   0  0  0  0  0  0  0  0  0  0  0  0
   -1.4420   -2.0103    0.0000 H   0  0  0  0  0  0  0  0  0  0  0  0
   -0.1345   -0.4125    0.0000 H   0  0  0  0  0  0  0  0  0  0  0  0
    0.3351    3.4817    0.0000 H   0  0  0  0  0  0  0  0  0  0  0  0
   -1.4777    3.8669    0.0000 H   0  0  0  0  0  0  0  0  0  0  0  0
   -0.4601    4.1976    0.0000 H   0  0  0  0  0  0  0  0  0  0  0  0
    2.2955    0.0898    0.0000 H   0  0  0  0  0  0  0  0  0  0  0  0
    2.8305    1.0164    0.0000 H   0  0  0  0  0  0  0  0  0  0  0  0
    0.7285    2.4454    0.0000 H   0  0  0  0  0  0  0  0  0  0  0  0
    1.6570    4.0536    0.0000 H   0  0  0  0  0  0  0  0  0  0  0  0
    3.5140    4.0536    0.0000 H   0  0  0  0  0  0  0  0  0  0  0  0
    4.4425    2.4454    0.0000 H   0  0  0  0  0  0  0  0  0  0  0  0
    3.5140    0.8372    0.0000 H   0  0  0  0  0  0  0  0  0  0  0  0
    2.8305   -0.4125    0.0000 H   0  0  0  0  0  0  0  0  0  0  0  0
    3.2430    0.3020    0.0000 H   0  0  0  0  0  0  0  0  0  0  0  0
    1.6380    1.2286    0.0000 H   0  0  0  0  0  0  0  0  0  0  0  0
    2.7080    1.2287    0.0000 H   0  0  0  0  0  0  0  0  0  0  0  0
    1.6380   -2.0536    0.0000 H   0  0  0  0  0  0  0  0  0  0  0  0
    3.2430   -1.1270    0.0000 H   0  0  0  0  0  0  0  0  0  0  0  0
    2.7080   -2.0537    0.0000 H   0  0  0  0  0  0  0  0  0  0  0  0
  1  2  1  0  0  0  0
  1 37  1  0  0  0  0
  1 38  1  0  0  0  0
  1 39  1  0  0  0  0
  2  3  2  0  0  0  0
  2  7  1  0  0  0  0
  3  4  1  0  0  0  0
  3 40  1  0  0  0  0
  4  5  2  0  0  0  0
  4 41  1  0  0  0  0
  5  6  1  0  0  0  0
  5  8  1  0  0  0  0
  6  7  2  0  0  0  0
  6 42  1  0  0  0  0
  7 43  1  0  0  0  0
  8  9  2  0  0  0  0
  8 10  1  0  0  0  0
 10 11  1  0  0  0  0
 10 15  1  0  0  0  0
 11 12  1  0  0  0  0
 11 44  1  0  0  0  0
 11 45  1  0  0  0  0
 12 13  1  0  0  0  0
 12 46  1  0  0  0  0
 12 47  1  0  0  0  0
 13 14  1  0  0  0  0
 13 48  1  0  0  0  0
 13 49  1  0  0  0  0
 14 50  1  0  0  0  0
 14 51  1  0  0  0  0
 15 16  1  0  0  0  0
 15 34  1  0  0  0  0
 15 52  1  0  0  0  0
 16 17  2  0  0  0  0
 16 26  1  0  0  0  0
 17 18  1  0  0  0  0
 18 19  2  0  0  0  0
 18 22  1  0  0  0  0
 19 20  1  0  0  0  0
 19 24  1  0  0  0  0
 20 21  2  0  0  0  0
 20 23  1  0  0  0  0
 21 22  1  0  0  0  0
 23 53  1  0  0  0  0
 23 54  1  0  0  0  0
 23 55  1  0  0  0  0
 24 25  2  0  0  0  0
 24 26  1  0  0  0  0
 26 27  1  0  0  0  0
 27 28  1  0  0  0  0
 27 56  1  0  0  0  0
 27 57  1  0  0  0  0
 28 29  2  0  0  0  0
 28 33  1  0  0  0  0
 29 30  1  0  0  0  0
 29 58  1  0  0  0  0
 30 31  2  0  0  0  0
 30 59  1  0  0  0  0
 31 32  1  0  0  0  0
 31 60  1  0  0  0  0
 32 33  2  0  0  0  0
 32 61  1  0  0  0  0
 33 62  1  0  0  0  0
 34 35  1  0  0  0  0
 34 36  1  0  0  0  0
 34 63  1  0  0  0  0
 35 64  1  0  0  0  0
 35 65  1  0  0  0  0
 35 66  1  0  0  0  0
 36 67  1  0  0  0  0
 36 68  1  0  0  0  0
 36 69  1  0  0  0  0
M  END
>  <DRUGBANK_ID>
DB11671

>  <COMMON_NAME>
AZD-4877

>  <CAS_NUMBER>
1176760-49-8

>  <UNII>
19ORU63E06

$$$$
