
 OpenBabel10282417072D

 96 97  0  0  0  0  0  0  0  0999 V2000
   -5.3581   -0.2016    0.0000 C   0  0  0  0  0  0  0  0  0  0  0  0
   -4.6436    0.2109    0.0000 C   0  0  0  0  0  0  0  0  0  0  0  0
   -3.9292   -0.2016    0.0000 C   0  0  0  0  0  0  0  0  0  0  0  0
   -4.6436    1.0359    0.0000 C   0  0  0  0  0  0  0  0  0  0  0  0
   -3.2147    0.2109    0.0000 C   0  0  0  0  0  0  0  0  0  0  0  0
   -2.5002   -0.2016    0.0000 C   0  0  0  0  0  0  0  0  0  0  0  0
   -1.7857    0.2109    0.0000 C   0  0  0  0  0  0  0  0  0  0  0  0
   -1.0713   -0.2016    0.0000 C   0  0  0  0  0  0  0  0  0  0  0  0
   -1.7857    1.0359    0.0000 C   0  0  0  0  0  0  0  0  0  0  0  0
   -0.3568    0.2109    0.0000 C   0  0  0  0  0  0  0  0  0  0  0  0
    0.3577   -0.2016    0.0000 C   0  0  0  0  0  0  0  0  0  0  0  0
    1.0721    0.2109    0.0000 C   0  0  0  0  0  0  0  0  0  0  0  0
    1.7866   -0.2016    0.0000 C   0  0  0  0  0  0  0  0  0  0  0  0
    2.5011    0.2109    0.0000 C   0  0  0  0  0  0  0  0  0  0  0  0
    1.7866   -1.0266    0.0000 C   0  0  0  0  0  0  0  0  0  0  0  0
    3.2155   -0.2016    0.0000 C   0  0  0  0  0  0  0  0  0  0  0  0
    3.9300    0.2109    0.0000 C   0  0  0  0  0  0  0  0  0  0  0  0
    4.6445   -0.2016    0.0000 C   0  0  0  0  0  0  0  0  0  0  0  0
    5.3590    0.2109    0.0000 C   0  0  0  0  0  0  0  0  0  0  0  0
    4.6445   -1.0266    0.0000 C   0  0  0  0  0  0  0  0  0  0  0  0
    6.7879    0.2109    0.0000 C   0  0  0  0  0  0  0  0  0  0  0  0
    6.7879    1.0359    0.0000 C   0  0  0  0  0  0  0  0  0  0  0  0
    6.0734   -0.2016    0.0000 C   0  0  0  0  0  0  0  0  0  0  0  0
    8.2168    0.2109    0.0000 C   0  0  0  0  0  0  0  0  0  0  0  0
    7.5024    1.4484    0.0000 C   0  0  0  0  0  0  0  0  0  0  0  0
    6.0734    1.4484    0.0000 C   0  0  0  0  0  0  0  0  0  0  0  0
    8.2168    1.0359    0.0000 C   0  0  1  0  0  0  0  0  0  0  0  0
    7.5024    2.2734    0.0000 O   0  0  0  0  0  0  0  0  0  0  0  0
    8.9313    1.4484    0.0000 O   0  0  0  0  0  0  0  0  0  0  0  0
    7.9149   -0.9160    0.0000 C   0  0  0  0  0  0  0  0  0  0  0  0
    7.5024   -0.2016    0.0000 C   0  0  0  0  0  0  0  0  0  0  0  0
    7.0899   -0.9160    0.0000 C   0  0  0  0  0  0  0  0  0  0  0  0
   -7.5015   -1.4391    0.0000 C   0  0  0  0  0  0  0  0  0  0  0  0
   -8.2160   -1.0266    0.0000 C   0  0  2  0  0  0  0  0  0  0  0  0
   -6.7870   -0.2016    0.0000 C   0  0  0  0  0  0  0  0  0  0  0  0
   -6.7870   -1.0266    0.0000 C   0  0  0  0  0  0  0  0  0  0  0  0
   -6.0726    0.2109    0.0000 C   0  0  0  0  0  0  0  0  0  0  0  0
   -8.2160   -0.2016    0.0000 C   0  0  0  0  0  0  0  0  0  0  0  0
   -7.5015    0.2109    0.0000 C   0  0  0  0  0  0  0  0  0  0  0  0
   -6.0726   -1.4391    0.0000 C   0  0  0  0  0  0  0  0  0  0  0  0
   -7.5015   -2.2641    0.0000 O   0  0  0  0  0  0  0  0  0  0  0  0
   -8.9305   -1.4391    0.0000 O   0  0  0  0  0  0  0  0  0  0  0  0
   -7.9140    0.9254    0.0000 C   0  0  0  0  0  0  0  0  0  0  0  0
   -7.0890    0.9254    0.0000 C   0  0  0  0  0  0  0  0  0  0  0  0
   -5.3581   -1.2336    0.0000 H   0  0  0  0  0  0  0  0  0  0  0  0
   -3.9292   -1.2336    0.0000 H   0  0  0  0  0  0  0  0  0  0  0  0
   -3.7170    1.5709    0.0000 H   0  0  0  0  0  0  0  0  0  0  0  0
   -5.5702    1.5709    0.0000 H   0  0  0  0  0  0  0  0  0  0  0  0
   -4.6436    2.1059    0.0000 H   0  0  0  0  0  0  0  0  0  0  0  0
   -3.2147    1.2429    0.0000 H   0  0  0  0  0  0  0  0  0  0  0  0
   -2.5002   -1.2336    0.0000 H   0  0  0  0  0  0  0  0  0  0  0  0
   -1.0713   -1.2336    0.0000 H   0  0  0  0  0  0  0  0  0  0  0  0
   -0.8591    1.5709    0.0000 H   0  0  0  0  0  0  0  0  0  0  0  0
   -2.7123    1.5709    0.0000 H   0  0  0  0  0  0  0  0  0  0  0  0
   -1.7857    2.1059    0.0000 H   0  0  0  0  0  0  0  0  0  0  0  0
   -0.3568    1.2429    0.0000 H   0  0  0  0  0  0  0  0  0  0  0  0
    0.3577   -1.2336    0.0000 H   0  0  0  0  0  0  0  0  0  0  0  0
    1.0721    1.2429    0.0000 H   0  0  0  0  0  0  0  0  0  0  0  0
    2.5011    1.2429    0.0000 H   0  0  0  0  0  0  0  0  0  0  0  0
    0.8600   -1.5616    0.0000 H   0  0  0  0  0  0  0  0  0  0  0  0
    2.7132   -1.5616    0.0000 H   0  0  0  0  0  0  0  0  0  0  0  0
    1.7866   -2.0966    0.0000 H   0  0  0  0  0  0  0  0  0  0  0  0
    3.2155   -1.2336    0.0000 H   0  0  0  0  0  0  0  0  0  0  0  0
    3.9300    1.2429    0.0000 H   0  0  0  0  0  0  0  0  0  0  0  0
    5.3590    1.2429    0.0000 H   0  0  0  0  0  0  0  0  0  0  0  0
    3.7179   -1.5616    0.0000 H   0  0  0  0  0  0  0  0  0  0  0  0
    5.5711   -1.5616    0.0000 H   0  0  0  0  0  0  0  0  0  0  0  0
    4.6445   -2.0966    0.0000 H   0  0  0  0  0  0  0  0  0  0  0  0
    6.0734   -1.2336    0.0000 H   0  0  0  0  0  0  0  0  0  0  0  0
    9.1435   -0.3241    0.0000 H   0  0  0  0  0  0  0  0  0  0  0  0
    8.2168   -0.8591    0.0000 H   0  0  0  0  0  0  0  0  0  0  0  0
    6.0734    2.5184    0.0000 H   0  0  0  0  0  0  0  0  0  0  0  0
    5.1468    0.9134    0.0000 H   0  0  0  0  0  0  0  0  0  0  0  0
    5.1467    1.9834    0.0000 H   0  0  0  0  0  0  0  0  0  0  0  0
    8.2168    2.1059    0.0000 H   0  0  0  0  0  0  0  0  0  0  0  0
    9.7713    0.9634    0.0000 H   0  0  0  0  0  0  0  0  0  0  0  0
    7.3799   -1.8427    0.0000 H   0  0  0  0  0  0  0  0  0  0  0  0
    8.9849   -0.9160    0.0000 H   0  0  0  0  0  0  0  0  0  0  0  0
    8.4499   -1.8426    0.0000 H   0  0  0  0  0  0  0  0  0  0  0  0
    6.0199   -0.9160    0.0000 H   0  0  0  0  0  0  0  0  0  0  0  0
    7.6249   -1.8427    0.0000 H   0  0  0  0  0  0  0  0  0  0  0  0
    6.5549   -1.8426    0.0000 H   0  0  0  0  0  0  0  0  0  0  0  0
   -8.2160   -2.0966    0.0000 H   0  0  0  0  0  0  0  0  0  0  0  0
   -6.0726    1.2429    0.0000 H   0  0  0  0  0  0  0  0  0  0  0  0
   -9.1426    0.3334    0.0000 H   0  0  0  0  0  0  0  0  0  0  0  0
   -8.2160    0.8684    0.0000 H   0  0  0  0  0  0  0  0  0  0  0  0
   -6.0726   -2.5091    0.0000 H   0  0  0  0  0  0  0  0  0  0  0  0
   -5.1459   -0.9041    0.0000 H   0  0  0  0  0  0  0  0  0  0  0  0
   -5.1460   -1.9741    0.0000 H   0  0  0  0  0  0  0  0  0  0  0  0
   -9.7705   -0.9541    0.0000 H   0  0  0  0  0  0  0  0  0  0  0  0
   -7.3790    1.8520    0.0000 H   0  0  0  0  0  0  0  0  0  0  0  0
   -8.9840    0.9254    0.0000 H   0  0  0  0  0  0  0  0  0  0  0  0
   -8.4490    1.8521    0.0000 H   0  0  0  0  0  0  0  0  0  0  0  0
   -6.0190    0.9254    0.0000 H   0  0  0  0  0  0  0  0  0  0  0  0
   -7.6240    1.8520    0.0000 H   0  0  0  0  0  0  0  0  0  0  0  0
   -6.5540    1.8521    0.0000 H   0  0  0  0  0  0  0  0  0  0  0  0
  1  2  1  0  0  0  0
  1 45  1  0  0  0  0
  2  3  2  0  0  0  0
  2  4  1  0  0  0  0
  3  5  1  0  0  0  0
  3 46  1  0  0  0  0
  4 47  1  0  0  0  0
  4 48  1  0  0  0  0
  4 49  1  0  0  0  0
  5  6  2  0  0  0  0
  5 50  1  0  0  0  0
  6  7  1  0  0  0  0
  6 51  1  0  0  0  0
  7  8  2  0  0  0  0
  7  9  1  0  0  0  0
  8 10  1  0  0  0  0
  8 52  1  0  0  0  0
  9 53  1  0  0  0  0
  9 54  1  0  0  0  0
  9 55  1  0  0  0  0
 10 11  2  0  0  0  0
 10 56  1  0  0  0  0
 11 12  1  0  0  0  0
 11 57  1  0  0  0  0
 12 13  2  0  0  0  0
 12 58  1  0  0  0  0
 13 14  1  0  0  0  0
 13 15  1  0  0  0  0
 14 16  2  0  0  0  0
 14 59  1  0  0  0  0
 15 60  1  0  0  0  0
 15 61  1  0  0  0  0
 15 62  1  0  0  0  0
 16 17  1  0  0  0  0
 16 63  1  0  0  0  0
 17 18  2  0  0  0  0
 17 64  1  0  0  0  0
 18 19  1  0  0  0  0
 18 20  1  0  0  0  0
 19 23  2  0  0  0  0
 19 65  1  0  0  0  0
 20 66  1  0  0  0  0
 20 67  1  0  0  0  0
 20 68  1  0  0  0  0
 21 22  2  0  0  0  0
 21 23  1  0  0  0  0
 21 31  1  0  0  0  0
 22 26  1  0  0  0  0
 22 25  1  0  0  0  0
 23 69  1  0  0  0  0
 24 27  1  0  0  0  0
 24 70  1  0  0  0  0
 24 71  1  0  0  0  0
 25 28  2  0  0  0  0
 25 27  1  0  0  0  0
 26 72  1  0  0  0  0
 26 73  1  0  0  0  0
 26 74  1  0  0  0  0
 27 29  1  0  0  0  0
 27 75  1  6  0  0  0
 29 76  1  0  0  0  0
 30 77  1  0  0  0  0
 30 78  1  0  0  0  0
 30 79  1  0  0  0  0
 31 30  1  0  0  0  0
 31 32  1  0  0  0  0
 31 24  1  0  0  0  0
 32 80  1  0  0  0  0
 32 81  1  0  0  0  0
 32 82  1  0  0  0  0
 33 41  2  0  0  0  0
 33 34  1  0  0  0  0
 34 42  1  0  0  0  0
 34 83  1  6  0  0  0
 35 36  2  0  0  0  0
 35 37  1  0  0  0  0
 35 39  1  0  0  0  0
 36 33  1  0  0  0  0
 36 40  1  0  0  0  0
 37  1  2  0  0  0  0
 37 84  1  0  0  0  0
 38 34  1  0  0  0  0
 38 85  1  0  0  0  0
 38 86  1  0  0  0  0
 39 38  1  0  0  0  0
 39 43  1  0  0  0  0
 39 44  1  0  0  0  0
 40 87  1  0  0  0  0
 40 88  1  0  0  0  0
 40 89  1  0  0  0  0
 42 90  1  0  0  0  0
 43 91  1  0  0  0  0
 43 92  1  0  0  0  0
 43 93  1  0  0  0  0
 44 94  1  0  0  0  0
 44 95  1  0  0  0  0
 44 96  1  0  0  0  0
M  END
>  <DRUGBANK_ID>
DB06543

>  <COMMON_NAME>
Astaxanthin

>  <CAS_NUMBER>
472-61-7

>  <UNII>
8XPW32PR7I

$$$$
