
 OpenBabel10282417072D

 64 69  0  0  0  0  0  0  0  0999 V2000
   -1.4604    1.7103    0.0000 C   0  0  0  0  0  0  0  0  0  0  0  0
   -1.2054    0.9256    0.0000 N   0  0  0  0  0  0  0  0  0  0  0  0
   -0.3984    0.7541    0.0000 C   0  0  0  0  0  0  0  0  0  0  0  0
    0.1536    1.3672    0.0000 O   0  0  0  0  0  0  0  0  0  0  0  0
   -0.1435   -0.0305    0.0000 C   0  0  0  0  0  0  0  0  0  0  0  0
   -0.6284   -0.6979    0.0000 C   0  0  0  0  0  0  0  0  0  0  0  0
   -0.1435   -1.3654    0.0000 O   0  0  0  0  0  0  0  0  0  0  0  0
    0.6411   -1.1104    0.0000 C   0  0  0  0  0  0  0  0  0  0  0  0
    0.6411   -0.2854    0.0000 C   0  0  0  0  0  0  0  0  0  0  0  0
    1.3556    0.1271    0.0000 C   0  0  0  0  0  0  0  0  0  0  0  0
    1.3556    0.9521    0.0000 F   0  0  0  0  0  0  0  0  0  0  0  0
    2.0701   -0.2854    0.0000 C   0  0  0  0  0  0  0  0  0  0  0  0
    2.0701   -1.1104    0.0000 C   0  0  0  0  0  0  0  0  0  0  0  0
    1.3556   -1.5229    0.0000 C   0  0  0  0  0  0  0  0  0  0  0  0
    2.7845    0.1271    0.0000 C   0  0  0  0  0  0  0  0  0  0  0  0
    2.7845    0.9521    0.0000 C   0  0  0  0  0  0  0  0  0  0  0  0
    2.0701    1.3646    0.0000 C   0  0  0  0  0  0  0  0  0  0  0  0
    3.4990    1.3646    0.0000 C   0  0  0  0  0  0  0  0  0  0  0  0
    4.2135    0.9521    0.0000 C   0  0  0  0  0  0  0  0  0  0  0  0
    4.2135    0.1271    0.0000 C   0  0  0  0  0  0  0  0  0  0  0  0
    3.4990   -0.2854    0.0000 C   0  0  0  0  0  0  0  0  0  0  0  0
    4.9279   -0.2854    0.0000 C   0  0  0  0  0  0  0  0  0  0  0  0
    4.9279   -1.1104    0.0000 O   0  0  0  0  0  0  0  0  0  0  0  0
    5.6424    0.1271    0.0000 N   0  0  0  0  0  0  0  0  0  0  0  0
    6.3569   -0.2854    0.0000 C   0  0  0  0  0  0  0  0  0  0  0  0
    6.8872   -0.9174    0.0000 C   0  0  0  0  0  0  0  0  0  0  0  0
    6.0747   -1.0607    0.0000 C   0  0  0  0  0  0  0  0  0  0  0  0
    6.8872    0.3465    0.0000 C   0  0  0  0  0  0  0  0  0  0  0  0
    6.6050    1.1218    0.0000 N   0  0  0  0  0  0  0  0  0  0  0  0
    7.1353    1.7538    0.0000 C   0  0  0  0  0  0  0  0  0  0  0  0
    7.9478    1.6105    0.0000 C   0  0  0  0  0  0  0  0  0  0  0  0
    8.2299    0.8353    0.0000 C   0  0  0  0  0  0  0  0  0  0  0  0
    7.6996    0.2033    0.0000 N   0  0  0  0  0  0  0  0  0  0  0  0
   -1.4534   -0.6979    0.0000 C   0  0  0  0  0  0  0  0  0  0  0  0
   -1.8659   -1.4124    0.0000 C   0  0  0  0  0  0  0  0  0  0  0  0
   -2.6909   -1.4124    0.0000 C   0  0  0  0  0  0  0  0  0  0  0  0
   -3.1034   -0.6979    0.0000 C   0  0  0  0  0  0  0  0  0  0  0  0
   -3.9284   -0.6979    0.0000 F   0  0  0  0  0  0  0  0  0  0  0  0
   -2.6909    0.0165    0.0000 C   0  0  0  0  0  0  0  0  0  0  0  0
   -1.8659    0.0165    0.0000 C   0  0  0  0  0  0  0  0  0  0  0  0
   -0.7445    2.5055    0.0000 H   0  0  0  0  0  0  0  0  0  0  0  0
   -2.5070    1.9327    0.0000 H   0  0  0  0  0  0  0  0  0  0  0  0
   -1.7911    2.7279    0.0000 H   0  0  0  0  0  0  0  0  0  0  0  0
   -1.8641    0.1939    0.0000 H   0  0  0  0  0  0  0  0  0  0  0  0
    2.9638   -1.6264    0.0000 H   0  0  0  0  0  0  0  0  0  0  0  0
    1.3556   -2.5549    0.0000 H   0  0  0  0  0  0  0  0  0  0  0  0
    2.0701    2.4346    0.0000 H   0  0  0  0  0  0  0  0  0  0  0  0
    1.1434    0.8296    0.0000 H   0  0  0  0  0  0  0  0  0  0  0  0
    1.1435    1.8996    0.0000 H   0  0  0  0  0  0  0  0  0  0  0  0
    3.4990    2.3966    0.0000 H   0  0  0  0  0  0  0  0  0  0  0  0
    5.1072    1.4681    0.0000 H   0  0  0  0  0  0  0  0  0  0  0  0
    3.4990   -1.3174    0.0000 H   0  0  0  0  0  0  0  0  0  0  0  0
    5.6424    1.1116    0.0000 H   0  0  0  0  0  0  0  0  0  0  0  0
    7.8927   -1.2833    0.0000 H   0  0  0  0  0  0  0  0  0  0  0  0
    6.7940   -1.9833    0.0000 H   0  0  0  0  0  0  0  0  0  0  0  0
    5.2550   -1.7485    0.0000 H   0  0  0  0  0  0  0  0  0  0  0  0
    5.1982   -0.4470    0.0000 H   0  0  0  0  0  0  0  0  0  0  0  0
    6.7824    2.7236    0.0000 H   0  0  0  0  0  0  0  0  0  0  0  0
    8.6112    2.4010    0.0000 H   0  0  0  0  0  0  0  0  0  0  0  0
    9.2462    0.6561    0.0000 H   0  0  0  0  0  0  0  0  0  0  0  0
   -1.3499   -2.3061    0.0000 H   0  0  0  0  0  0  0  0  0  0  0  0
   -3.2069   -2.3061    0.0000 H   0  0  0  0  0  0  0  0  0  0  0  0
   -3.2069    0.9102    0.0000 H   0  0  0  0  0  0  0  0  0  0  0  0
   -1.3499    0.9102    0.0000 H   0  0  0  0  0  0  0  0  0  0  0  0
  1  2  1  0  0  0  0
  1 41  1  0  0  0  0
  1 42  1  0  0  0  0
  1 43  1  0  0  0  0
  2  3  1  0  0  0  0
  2 44  1  0  0  0  0
  3  4  2  0  0  0  0
  3  5  1  0  0  0  0
  5  6  2  0  0  0  0
  5  9  1  0  0  0  0
  6  7  1  0  0  0  0
  6 34  1  0  0  0  0
  7  8  1  0  0  0  0
  8  9  2  0  0  0  0
  8 14  1  0  0  0  0
  9 10  1  0  0  0  0
 10 11  1  0  0  0  0
 10 12  2  0  0  0  0
 12 13  1  0  0  0  0
 12 15  1  0  0  0  0
 13 14  2  0  0  0  0
 13 45  1  0  0  0  0
 14 46  1  0  0  0  0
 15 16  2  0  0  0  0
 15 21  1  0  0  0  0
 16 17  1  0  0  0  0
 16 18  1  0  0  0  0
 17 47  1  0  0  0  0
 17 48  1  0  0  0  0
 17 49  1  0  0  0  0
 18 19  2  0  0  0  0
 18 50  1  0  0  0  0
 19 20  1  0  0  0  0
 19 51  1  0  0  0  0
 20 21  2  0  0  0  0
 20 22  1  0  0  0  0
 21 52  1  0  0  0  0
 22 23  2  0  0  0  0
 22 24  1  0  0  0  0
 24 25  1  0  0  0  0
 24 53  1  0  0  0  0
 25 26  1  0  0  0  0
 25 27  1  0  0  0  0
 25 28  1  0  0  0  0
 26 27  1  0  0  0  0
 26 54  1  0  0  0  0
 26 55  1  0  0  0  0
 27 56  1  0  0  0  0
 27 57  1  0  0  0  0
 28 29  2  0  0  0  0
 28 33  1  0  0  0  0
 29 30  1  0  0  0  0
 30 31  2  0  0  0  0
 30 58  1  0  0  0  0
 31 32  1  0  0  0  0
 31 59  1  0  0  0  0
 32 33  2  0  0  0  0
 32 60  1  0  0  0  0
 34 35  2  0  0  0  0
 34 40  1  0  0  0  0
 35 36  1  0  0  0  0
 35 61  1  0  0  0  0
 36 37  2  0  0  0  0
 36 62  1  0  0  0  0
 37 38  1  0  0  0  0
 37 39  1  0  0  0  0
 39 40  2  0  0  0  0
 39 63  1  0  0  0  0
 40 64  1  0  0  0  0
M  END
>  <DRUGBANK_ID>
DB14950

>  <COMMON_NAME>
BMS-929075

>  <CAS_NUMBER>
1217338-97-0

>  <UNII>
8S38482CST

$$$$
