
 OpenBabel10282417072D

 20 20  0  0  0  0  0  0  0  0999 V2000
   -0.1709    0.4125    0.0000 C   0  0  0  0  0  0  0  0  0  0  0  0
    0.4125    0.9959    0.0000 C   0  0  0  0  0  0  0  0  0  0  0  0
    0.9959    0.4125    0.0000 C   0  0  0  0  0  0  0  0  0  0  0  0
    0.4125   -0.1709    0.0000 N   0  0  0  0  0  0  0  0  0  0  0  0
    0.4125   -0.9959    0.0000 C   0  0  0  0  0  0  0  0  0  0  0  0
   -0.3020   -1.4084    0.0000 O   0  0  0  0  0  0  0  0  0  0  0  0
    1.1270   -1.4084    0.0000 C   0  0  0  0  0  0  0  0  0  0  0  0
    1.1270   -2.2334    0.0000 Br  0  0  0  0  0  0  0  0  0  0  0  0
   -0.0186    1.6993    0.0000 N   0  3  0  0  0  0  0  0  0  0  0  0
   -0.8433    1.6777    0.0000 O   0  0  0  0  0  0  0  0  0  0  0  0
    0.3751    2.4243    0.0000 O   0  5  0  0  0  0  0  0  0  0  0  0
    0.8436    1.6993    0.0000 N   0  3  0  0  0  0  0  0  0  0  0  0
    1.6683    1.6777    0.0000 O   0  0  0  0  0  0  0  0  0  0  0  0
    0.6932    2.5105    0.0000 O   0  5  0  0  0  0  0  0  0  0  0  0
   -1.2409    0.4125    0.0000 H   0  0  0  0  0  0  0  0  0  0  0  0
   -0.5804   -0.5761    0.0000 H   0  0  0  0  0  0  0  0  0  0  0  0
    2.0659    0.4125    0.0000 H   0  0  0  0  0  0  0  0  0  0  0  0
    1.4054   -0.5761    0.0000 H   0  0  0  0  0  0  0  0  0  0  0  0
    2.0536   -0.8734    0.0000 H   0  0  0  0  0  0  0  0  0  0  0  0
    2.0536   -1.9434    0.0000 H   0  0  0  0  0  0  0  0  0  0  0  0
  1  2  1  0  0  0  0
  1  4  1  0  0  0  0
  1 15  1  0  0  0  0
  1 16  1  0  0  0  0
  2  3  1  0  0  0  0
  2  9  1  0  0  0  0
  2 12  1  0  0  0  0
  3  4  1  0  0  0  0
  3 17  1  0  0  0  0
  3 18  1  0  0  0  0
  4  5  1  0  0  0  0
  5  6  2  0  0  0  0
  5  7  1  0  0  0  0
  7  8  1  0  0  0  0
  7 19  1  0  0  0  0
  7 20  1  0  0  0  0
  9 10  2  0  0  0  0
  9 11  1  0  0  0  0
 12 13  2  0  0  0  0
 12 14  1  0  0  0  0
M  CHG  4   9   1  11  -1  12   1  14  -1
M  END
>  <DRUGBANK_ID>
DB12060

>  <COMMON_NAME>
RRx-001

>  <CAS_NUMBER>
925206-65-1

>  <UNII>
7RPW6SU9SC

>  <SYNONYMS>
N-(Bromoacetyl)-3,3-Dinitroazetidine

$$$$
