
 OpenBabel10282417072D

 67 69  0  0  0  0  0  0  0  0999 V2000
   -0.1282   -0.6484    0.0000 C   0  0  1  0  0  0  0  0  0  0  0  0
   -0.9433   -0.9006    0.0000 C   0  0  2  0  0  0  0  0  0  0  0  0
   -0.9433   -1.7306    0.0000 C   0  0  2  0  0  0  0  0  0  0  0  0
   -1.6567   -2.1285    0.0000 C   0  0  2  0  0  0  0  0  0  0  0  0
   -1.6567   -2.9535    0.0000 C   0  0  0  0  0  0  0  0  0  0  0  0
   -2.3702   -3.3662    0.0000 C   0  0  0  0  0  0  0  0  0  0  0  0
   -3.0789   -2.9486    0.0000 C   0  0  0  0  0  0  0  0  0  0  0  0
   -3.0789   -2.1236    0.0000 C   0  0  1  0  0  0  0  0  0  0  0  0
   -2.3654   -1.7159    0.0000 C   0  0  1  0  0  0  0  0  0  0  0  0
   -2.3654   -0.8764    0.0000 C   0  0  2  0  0  0  0  0  0  0  0  0
   -1.6325   -0.4783    0.0000 C   0  0  0  0  0  0  0  0  0  0  0  0
   -3.0788   -0.4688    0.0000 O   0  0  0  0  0  0  0  0  0  0  0  0
   -2.3654   -2.5362    0.0000 H   0  0  0  0  0  0  0  0  0  0  0  0
   -3.7971   -1.7014    0.0000 C   0  0  0  0  0  0  0  0  0  0  0  0
   -4.5057   -2.1236    0.0000 C   0  0  0  0  0  0  0  0  0  0  0  0
   -4.5057   -2.9486    0.0000 C   0  0  0  0  0  0  0  0  0  0  0  0
   -5.2239   -3.3613    0.0000 O   0  0  0  0  0  0  0  0  0  0  0  0
   -3.7971   -3.3562    0.0000 C   0  0  0  0  0  0  0  0  0  0  0  0
   -3.0789   -1.3035    0.0000 C   0  0  0  0  0  0  0  0  0  0  0  0
   -1.6567   -1.3083    0.0000 H   0  0  0  0  0  0  0  0  0  0  0  0
   -0.9433   -2.5506    0.0000 H   0  0  0  0  0  0  0  0  0  0  0  0
   -0.1524   -1.9926    0.0000 C   0  0  0  0  0  0  0  0  0  0  0  0
    0.3474   -1.3278    0.0000 C   0  0  1  0  0  0  0  0  0  0  0  0
    1.1386   -1.0803    0.0000 O   0  0  0  0  0  0  0  0  0  0  0  0
    1.1386   -0.2599    0.0000 C   0  0  0  0  0  0  0  0  0  0  0  0
    0.3619    0.0018    0.0000 O   0  0  0  0  0  0  0  0  0  0  0  0
    1.9587   -0.2599    0.0000 C   0  0  0  0  0  0  0  0  0  0  0  0
    1.5461    0.4580    0.0000 C   0  0  0  0  0  0  0  0  0  0  0  0
    0.7599   -2.0364    0.0000 H   0  0  0  0  0  0  0  0  0  0  0  0
   -0.9433   -0.0755    0.0000 C   0  0  0  0  0  0  0  0  0  0  0  0
   -0.1282    0.1715    0.0000 C   0  0  0  0  0  0  0  0  0  0  0  0
   -0.8559    0.5793    0.0000 O   0  0  0  0  0  0  0  0  0  0  0  0
    0.5756    0.5793    0.0000 C   0  0  0  0  0  0  0  0  0  0  0  0
    0.5756    1.4046    0.0000 O   0  0  0  0  0  0  0  0  0  0  0  0
    1.7088    2.0583    0.0000 P   0  0  0  0  0  0  0  0  0  0  0  0
    1.7088    3.3662    0.0000 O   0  0  0  0  0  0  0  0  0  0  0  0
    0.5756    2.7122    0.0000 O   0  5  0  0  0  0  0  0  0  0  0  0
    2.9696    2.3999    0.0000 O   0  5  0  0  0  0  0  0  0  0  0  0
    4.9544    2.9305    0.0000 Na  0  3  0  0  0  0  0  0  0  0  0  0
   -0.0528    4.1880    0.0000 Na  0  3  0  0  0  0  0  0  0  0  0  0
   -0.7298   -3.4881    0.0000 H   0  0  0  0  0  0  0  0  0  0  0  0
   -1.6561   -4.0235    0.0000 H   0  0  0  0  0  0  0  0  0  0  0  0
   -2.3745   -4.4362    0.0000 H   0  0  0  0  0  0  0  0  0  0  0  0
   -3.3003   -3.8952    0.0000 H   0  0  0  0  0  0  0  0  0  0  0  0
   -3.2908   -1.4135    0.0000 H   0  0  0  0  0  0  0  0  0  0  0  0
   -1.6046    0.5913    0.0000 H   0  0  0  0  0  0  0  0  0  0  0  0
   -0.6922    0.0323    0.0000 H   0  0  0  0  0  0  0  0  0  0  0  0
   -3.0832    0.5012    0.0000 H   0  0  0  0  0  0  0  0  0  0  0  0
   -3.8001   -0.6694    0.0000 H   0  0  0  0  0  0  0  0  0  0  0  0
   -5.4030   -1.6138    0.0000 H   0  0  0  0  0  0  0  0  0  0  0  0
   -3.8001   -4.3882    0.0000 H   0  0  0  0  0  0  0  0  0  0  0  0
   -2.1523   -0.7685    0.0000 H   0  0  0  0  0  0  0  0  0  0  0  0
   -4.0055   -0.7685    0.0000 H   0  0  0  0  0  0  0  0  0  0  0  0
   -3.0789   -0.2335    0.0000 H   0  0  0  0  0  0  0  0  0  0  0  0
    0.1670   -3.0138    0.0000 H   0  0  0  0  0  0  0  0  0  0  0  0
    0.9020   -2.1744    0.0000 H   0  0  0  0  0  0  0  0  0  0  0  0
    2.4937   -1.1865    0.0000 H   0  0  0  0  0  0  0  0  0  0  0  0
    2.4937    0.6667    0.0000 H   0  0  0  0  0  0  0  0  0  0  0  0
    3.0287   -0.2599    0.0000 H   0  0  0  0  0  0  0  0  0  0  0  0
    2.6161    0.4658    0.0000 H   0  0  0  0  0  0  0  0  0  0  0  0
    1.0043    1.3807    0.0000 H   0  0  0  0  0  0  0  0  0  0  0  0
    2.0743    1.3885    0.0000 H   0  0  0  0  0  0  0  0  0  0  0  0
   -0.0167    0.4595    0.0000 H   0  0  0  0  0  0  0  0  0  0  0  0
   -1.8699    0.4595    0.0000 H   0  0  0  0  0  0  0  0  0  0  0  0
   -0.9433    0.9945    0.0000 H   0  0  0  0  0  0  0  0  0  0  0  0
    1.5027    0.0450    0.0000 H   0  0  0  0  0  0  0  0  0  0  0  0
    1.5020    1.1147    0.0000 H   0  0  0  0  0  0  0  0  0  0  0  0
  1 26  1  0  0  0  0
  1 31  1  1  0  0  0
  2 30  1  1  0  0  0
  2  1  1  0  0  0  0
  3  2  1  0  0  0  0
  3 21  1  6  0  0  0
  3 22  1  0  0  0  0
  4  3  1  0  0  0  0
  4  9  1  0  0  0  0
  4 20  1  1  0  0  0
  5  4  1  0  0  0  0
  5 41  1  0  0  0  0
  5 42  1  0  0  0  0
  6  5  1  0  0  0  0
  6 43  1  0  0  0  0
  6 44  1  0  0  0  0
  7  6  1  0  0  0  0
  7  8  1  0  0  0  0
  8  9  1  0  0  0  0
  8 19  1  1  0  0  0
  9 10  1  0  0  0  0
  9 13  1  6  0  0  0
 10 11  1  0  0  0  0
 10 12  1  0  0  0  0
 10 45  1  6  0  0  0
 11  2  1  0  0  0  0
 11 46  1  0  0  0  0
 11 47  1  0  0  0  0
 12 48  1  0  0  0  0
 14  8  1  0  0  0  0
 14 49  1  0  0  0  0
 15 14  2  0  0  0  0
 15 50  1  0  0  0  0
 16 15  1  0  0  0  0
 17 16  2  0  0  0  0
 18 16  1  0  0  0  0
 18  7  2  0  0  0  0
 18 51  1  0  0  0  0
 19 52  1  0  0  0  0
 19 53  1  0  0  0  0
 19 54  1  0  0  0  0
 22 23  1  0  0  0  0
 22 55  1  0  0  0  0
 22 56  1  0  0  0  0
 23  1  1  0  0  0  0
 23 24  1  0  0  0  0
 23 29  1  1  0  0  0
 24 25  1  0  0  0  0
 25 26  1  0  0  0  0
 27 25  1  0  0  0  0
 27 57  1  0  0  0  0
 27 58  1  0  0  0  0
 27 59  1  0  0  0  0
 28 25  1  0  0  0  0
 28 60  1  0  0  0  0
 28 61  1  0  0  0  0
 28 62  1  0  0  0  0
 30 63  1  0  0  0  0
 30 64  1  0  0  0  0
 30 65  1  0  0  0  0
 32 31  2  0  0  0  0
 33 31  1  0  0  0  0
 33 66  1  0  0  0  0
 33 67  1  0  0  0  0
 34 33  1  0  0  0  0
 34 35  1  0  0  0  0
 35 36  2  0  0  0  0
 35 37  1  0  0  0  0
 35 38  1  0  0  0  0
M  CHG  4  37  -1  38  -1  39   1  40   1
M  END
>  <DRUGBANK_ID>
DB15835

>  <COMMON_NAME>
Desonide sodium phosphate

>  <CAS_NUMBER>
94087-98-6

>  <UNII>
36H4OGY275

$$$$
