
 OpenBabel10282417072D

 39 40  0  0  0  0  0  0  0  0999 V2000
   12.3935   -9.1090    0.0000 C   0  0  0  0  0  0  0  0  0  0  0  0
   12.3935   -8.2854    0.0000 C   0  0  0  0  0  0  0  0  0  0  0  0
   13.1099   -9.6212    0.0000 S   0  3  0  0  0  0  0  0  0  0  0  0
   11.6807   -9.5243    0.0000 C   0  0  0  0  0  0  0  0  0  0  0  0
   13.1099   -7.8632    0.0000 N   0  0  0  0  0  0  0  0  0  0  0  0
   11.6807   -7.8771    0.0000 C   0  0  0  0  0  0  0  0  0  0  0  0
   13.8331   -9.1125    0.0000 C   0  0  0  0  0  0  0  0  0  0  0  0
   10.9746   -9.1090    0.0000 C   0  0  0  0  0  0  0  0  0  0  0  0
   13.8296   -8.2820    0.0000 C   0  0  0  0  0  0  0  0  0  0  0  0
   10.9746   -8.2854    0.0000 C   0  0  0  0  0  0  0  0  0  0  0  0
   14.5597   -9.5243    0.0000 C   0  0  0  0  0  0  0  0  0  0  0  0
   10.2652   -9.5139    0.0000 N   0  0  0  0  0  0  0  0  0  0  0  0
   14.5459   -7.8529    0.0000 C   0  0  0  0  0  0  0  0  0  0  0  0
   15.2865   -9.1055    0.0000 C   0  0  0  0  0  0  0  0  0  0  0  0
    9.5628   -9.0986    0.0000 C   0  0  0  0  0  0  0  0  0  0  0  0
   10.2619  -10.3306    0.0000 C   0  0  0  0  0  0  0  0  0  0  0  0
   15.2761   -8.2647    0.0000 C   0  0  0  0  0  0  0  0  0  0  0  0
   15.9959   -9.5105    0.0000 N   0  0  0  0  0  0  0  0  0  0  0  0
   15.9994  -10.3237    0.0000 C   0  0  0  0  0  0  0  0  0  0  0  0
   16.6984   -9.0918    0.0000 C   0  0  0  0  0  0  0  0  0  0  0  0
   13.1652  -10.5762    0.0000 Cl  0  5  0  0  0  0  0  0  0  0  0  0
   11.6786  -10.5563    0.0000 H   0  0  0  0  0  0  0  0  0  0  0  0
   11.6786   -6.8451    0.0000 H   0  0  0  0  0  0  0  0  0  0  0  0
   10.0807   -7.7697    0.0000 H   0  0  0  0  0  0  0  0  0  0  0  0
   14.5634  -10.5563    0.0000 H   0  0  0  0  0  0  0  0  0  0  0  0
   14.5324   -6.8210    0.0000 H   0  0  0  0  0  0  0  0  0  0  0  0
    9.5739   -8.0287    0.0000 H   0  0  0  0  0  0  0  0  0  0  0  0
    8.6307   -9.6240    0.0000 H   0  0  0  0  0  0  0  0  0  0  0  0
    8.6417   -8.5540    0.0000 H   0  0  0  0  0  0  0  0  0  0  0  0
    9.3331  -10.8619    0.0000 H   0  0  0  0  0  0  0  0  0  0  0  0
   11.1864  -10.8693    0.0000 H   0  0  0  0  0  0  0  0  0  0  0  0
   10.2576  -11.4006    0.0000 H   0  0  0  0  0  0  0  0  0  0  0  0
   16.1640   -7.7387    0.0000 H   0  0  0  0  0  0  0  0  0  0  0  0
   15.0751  -10.8627    0.0000 H   0  0  0  0  0  0  0  0  0  0  0  0
   16.9283  -10.8547    0.0000 H   0  0  0  0  0  0  0  0  0  0  0  0
   16.0040  -11.3937    0.0000 H   0  0  0  0  0  0  0  0  0  0  0  0
   17.6324   -9.6139    0.0000 H   0  0  0  0  0  0  0  0  0  0  0  0
   16.6835   -8.0219    0.0000 H   0  0  0  0  0  0  0  0  0  0  0  0
   17.6175   -8.5440    0.0000 H   0  0  0  0  0  0  0  0  0  0  0  0
  1  2  1  0  0  0  0
  1  3  2  0  0  0  0
  1  4  1  0  0  0  0
  2  5  2  0  0  0  0
  2  6  1  0  0  0  0
  3  7  1  0  0  0  0
  4  8  2  0  0  0  0
  4 22  1  0  0  0  0
  5  9  1  0  0  0  0
  6 10  2  0  0  0  0
  6 23  1  0  0  0  0
  7 11  1  0  0  0  0
  7  9  2  0  0  0  0
  8 12  1  0  0  0  0
  8 10  1  0  0  0  0
  9 13  1  0  0  0  0
 10 24  1  0  0  0  0
 11 14  2  0  0  0  0
 11 25  1  0  0  0  0
 12 15  1  0  0  0  0
 12 16  1  0  0  0  0
 13 17  2  0  0  0  0
 13 26  1  0  0  0  0
 14 18  1  0  0  0  0
 14 17  1  0  0  0  0
 15 27  1  0  0  0  0
 15 28  1  0  0  0  0
 15 29  1  0  0  0  0
 16 30  1  0  0  0  0
 16 31  1  0  0  0  0
 16 32  1  0  0  0  0
 17 33  1  0  0  0  0
 18 19  1  0  0  0  0
 18 20  1  0  0  0  0
 19 34  1  0  0  0  0
 19 35  1  0  0  0  0
 19 36  1  0  0  0  0
 20 37  1  0  0  0  0
 20 38  1  0  0  0  0
 20 39  1  0  0  0  0
M  CHG  2   3   1  21  -1
M  END
>  <DRUGBANK_ID>
DB09241

>  <COMMON_NAME>
Methylene blue

>  <CAS_NUMBER>
61-73-4

>  <UNII>
8NAP7826UB

>  <SYNONYMS>
Azul de metileno; Basic Blue 9; C.I. basic blue 9; Chlorure de m√©thylthioninium; Cloruro de metiltioninio; Lowacryl blue 9; Methylene blue; Methylene blue anhydrous; Methylenium ceruleum; Methylthioninii chloridum; Methylthioninium chloride; Solvent blue 8; Swiss blue

$$$$
