
 OpenBabel10282417072D

 23 22  0  0  0  0  0  0  0  0999 V2000
    2.1434   -0.2062    0.0000 O   0  0  0  0  0  0  0  0  0  0  0  0
    1.4289    0.2062    0.0000 C   0  0  0  0  0  0  0  0  0  0  0  0
   -0.7145   -0.2062    0.0000 C   0  0  0  0  0  0  0  0  0  0  0  0
    0.0000    0.2062    0.0000 C   0  0  0  0  0  0  0  0  0  0  0  0
    0.7145   -0.2062    0.0000 C   0  0  2  0  0  0  0  0  0  0  0  0
   -2.1434   -0.2062    0.0000 N   0  0  0  0  0  0  0  0  0  0  0  0
   -1.4289    0.2062    0.0000 S   0  0  3  0  0  0  0  0  0  0  0  0
    0.7144   -1.0312    0.0000 N   0  0  0  0  0  0  0  0  0  0  0  0
    1.4290    1.0312    0.0000 O   0  0  0  0  0  0  0  0  0  0  0  0
   -1.4289    1.0311    0.0000 O   0  0  0  0  0  0  0  0  0  0  0  0
   -1.4289   -0.6188    0.0000 C   0  0  0  0  0  0  0  0  0  0  0  0
    2.1435   -1.1432    0.0000 H   0  0  0  0  0  0  0  0  0  0  0  0
   -0.7145   -1.2762    0.0000 H   0  0  0  0  0  0  0  0  0  0  0  0
   -1.6411   -0.7412    0.0000 H   0  0  0  0  0  0  0  0  0  0  0  0
    0.0000    1.2762    0.0000 H   0  0  0  0  0  0  0  0  0  0  0  0
    0.9266    0.7413    0.0000 H   0  0  0  0  0  0  0  0  0  0  0  0
    1.6411   -0.7413    0.0000 H   0  0  0  0  0  0  0  0  0  0  0  0
   -2.9959    0.2862    0.0000 H   0  0  0  0  0  0  0  0  0  0  0  0
   -0.1690   -1.5411    0.0000 H   0  0  0  0  0  0  0  0  0  0  0  0
    1.5977   -1.5413    0.0000 H   0  0  0  0  0  0  0  0  0  0  0  0
   -2.3555   -1.1538    0.0000 H   0  0  0  0  0  0  0  0  0  0  0  0
   -0.5023   -1.1538    0.0000 H   0  0  0  0  0  0  0  0  0  0  0  0
   -1.4289   -1.6888    0.0000 H   0  0  0  0  0  0  0  0  0  0  0  0
  1 12  1  0  0  0  0
  2  1  1  0  0  0  0
  2  9  2  0  0  0  0
  3  4  1  0  0  0  0
  3 13  1  0  0  0  0
  3 14  1  0  0  0  0
  4  5  1  0  0  0  0
  4 15  1  0  0  0  0
  4 16  1  0  0  0  0
  5  2  1  0  0  0  0
  5  8  1  0  0  0  0
  5 17  1  6  0  0  0
  6 18  1  0  0  0  0
  7  6  2  0  0  0  0
  7  3  1  0  0  0  0
  7 10  2  0  0  0  0
  7 11  1  0  0  0  0
  8 19  1  0  0  0  0
  8 20  1  0  0  0  0
 11 21  1  0  0  0  0
 11 22  1  0  0  0  0
 11 23  1  0  0  0  0
M  END
>  <DRUGBANK_ID>
DB14103

>  <COMMON_NAME>
Methionine sulfoximine

>  <CAS_NUMBER>
15985-39-4

>  <UNII>
M9P6YZ6JX9

>  <SYNONYMS>
(2S)-2-Amino-4-(S-methylsufonimidoyl)butanoic acid; BUTANOIC ACID, 2-AMINO-4-(S-METHYLSULFONIMIDOYL)-, (2S)-; L-methionine sulfoximine; L-Methionine-S,R-sulfoximine; METHIONINE-DL-SULFOXIMINE; METHIONINE-DL-SULFOXIMINE, L-

$$$$
