
 OpenBabel10282417072D

 48 50  0  0  0  0  0  0  0  0999 V2000
   -0.8482   -0.6258    0.0000 N   0  0  0  0  0  0  0  0  0  0  0  0
   -0.8482   -2.2758    0.0000 S   0  0  0  0  0  0  0  0  0  0  0  0
   -2.9917   -1.0384    0.0000 C   0  0  0  0  0  0  0  0  0  0  0  0
   -2.9917   -1.8633    0.0000 C   0  0  0  0  0  0  0  0  0  0  0  0
   -2.2771   -2.2758    0.0000 C   0  0  0  0  0  0  0  0  0  0  0  0
   -1.5627   -1.8634    0.0000 C   0  0  0  0  0  0  0  0  0  0  0  0
   -1.5627   -1.0384    0.0000 C   0  0  0  0  0  0  0  0  0  0  0  0
   -2.2772   -0.6258    0.0000 C   0  0  0  0  0  0  0  0  0  0  0  0
    0.5806   -0.6258    0.0000 C   0  0  0  0  0  0  0  0  0  0  0  0
   -0.1337   -1.0383    0.0000 C   0  0  0  0  0  0  0  0  0  0  0  0
   -0.1337   -1.8634    0.0000 C   0  0  0  0  0  0  0  0  0  0  0  0
    0.5806   -2.2759    0.0000 C   0  0  0  0  0  0  0  0  0  0  0  0
    1.2951   -1.8634    0.0000 C   0  0  0  0  0  0  0  0  0  0  0  0
    1.2951   -1.0383    0.0000 C   0  0  0  0  0  0  0  0  0  0  0  0
   -0.8482    0.1991    0.0000 C   0  0  0  0  0  0  0  0  0  0  0  0
   -1.5627    0.6115    0.0000 C   0  0  3  0  0  0  0  0  0  0  0  0
   -2.2771    0.1990    0.0000 C   0  0  0  0  0  0  0  0  0  0  0  0
   -1.5627    1.4365    0.0000 N   0  3  0  0  0  0  0  0  0  0  0  0
   -2.2772    1.8490    0.0000 C   0  0  0  0  0  0  0  0  0  0  0  0
   -0.8482    1.8491    0.0000 C   0  0  0  0  0  0  0  0  0  0  0  0
   -1.5627    2.2615    0.0000 C   0  0  0  0  0  0  0  0  0  0  0  0
   -2.9916    1.4365    0.0000 C   0  0  0  0  0  0  0  0  0  0  0  0
   -3.7061    1.8490    0.0000 O   0  0  0  0  0  0  0  0  0  0  0  0
   -3.8855   -0.5224    0.0000 H   0  0  0  0  0  0  0  0  0  0  0  0
   -3.8854   -2.3793    0.0000 H   0  0  0  0  0  0  0  0  0  0  0  0
   -2.2771   -3.3078    0.0000 H   0  0  0  0  0  0  0  0  0  0  0  0
   -2.2772    0.4062    0.0000 H   0  0  0  0  0  0  0  0  0  0  0  0
    0.5805    0.4062    0.0000 H   0  0  0  0  0  0  0  0  0  0  0  0
    0.5805   -3.3079    0.0000 H   0  0  0  0  0  0  0  0  0  0  0  0
    2.1888   -2.3794    0.0000 H   0  0  0  0  0  0  0  0  0  0  0  0
    2.1888   -0.5223    0.0000 H   0  0  0  0  0  0  0  0  0  0  0  0
    0.0784    0.7342    0.0000 H   0  0  0  0  0  0  0  0  0  0  0  0
   -0.8483    1.2691    0.0000 H   0  0  0  0  0  0  0  0  0  0  0  0
   -1.5626   -0.4585    0.0000 H   0  0  0  0  0  0  0  0  0  0  0  0
   -3.2038    0.7340    0.0000 H   0  0  0  0  0  0  0  0  0  0  0  0
   -2.2771   -0.8710    0.0000 H   0  0  0  0  0  0  0  0  0  0  0  0
   -3.2037   -0.3360    0.0000 H   0  0  0  0  0  0  0  0  0  0  0  0
   -2.2772    2.9190    0.0000 H   0  0  0  0  0  0  0  0  0  0  0  0
   -1.3506    2.3840    0.0000 H   0  0  0  0  0  0  0  0  0  0  0  0
    0.0785    1.3142    0.0000 H   0  0  0  0  0  0  0  0  0  0  0  0
   -0.8483    2.9191    0.0000 H   0  0  0  0  0  0  0  0  0  0  0  0
    0.0784    2.3842    0.0000 H   0  0  0  0  0  0  0  0  0  0  0  0
   -0.6361    2.7965    0.0000 H   0  0  0  0  0  0  0  0  0  0  0  0
   -2.4893    2.7965    0.0000 H   0  0  0  0  0  0  0  0  0  0  0  0
   -1.5627    3.3315    0.0000 H   0  0  0  0  0  0  0  0  0  0  0  0
   -2.9916    0.3665    0.0000 H   0  0  0  0  0  0  0  0  0  0  0  0
   -3.9182    0.9015    0.0000 H   0  0  0  0  0  0  0  0  0  0  0  0
   -3.7061    2.8190    0.0000 H   0  0  0  0  0  0  0  0  0  0  0  0
  1  7  1  0  0  0  0
  1 10  1  0  0  0  0
  1 15  1  0  0  0  0
  2 11  1  0  0  0  0
  3  4  2  0  0  0  0
  3 24  1  0  0  0  0
  4  5  1  0  0  0  0
  4 25  1  0  0  0  0
  5  6  2  0  0  0  0
  5 26  1  0  0  0  0
  6  7  1  0  0  0  0
  6  2  1  0  0  0  0
  7  8  2  0  0  0  0
  8  3  1  0  0  0  0
  8 27  1  0  0  0  0
  9 10  2  0  0  0  0
  9 28  1  0  0  0  0
 10 11  1  0  0  0  0
 11 12  2  0  0  0  0
 12 13  1  0  0  0  0
 12 29  1  0  0  0  0
 13 14  2  0  0  0  0
 13 30  1  0  0  0  0
 14  9  1  0  0  0  0
 14 31  1  0  0  0  0
 15 16  1  0  0  0  0
 15 32  1  0  0  0  0
 15 33  1  0  0  0  0
 16 17  1  0  0  0  0
 16 18  1  0  0  0  0
 16 34  1  0  0  0  0
 17 35  1  0  0  0  0
 17 36  1  0  0  0  0
 17 37  1  0  0  0  0
 18 19  1  0  0  0  0
 18 20  1  0  0  0  0
 18 21  1  0  0  0  0
 19 22  1  0  0  0  0
 19 38  1  0  0  0  0
 19 39  1  0  0  0  0
 20 40  1  0  0  0  0
 20 41  1  0  0  0  0
 20 42  1  0  0  0  0
 21 43  1  0  0  0  0
 21 44  1  0  0  0  0
 21 45  1  0  0  0  0
 22 23  1  0  0  0  0
 22 46  1  0  0  0  0
 22 47  1  0  0  0  0
 23 48  1  0  0  0  0
M  CHG  1  18   1
M  END
>  <DRUGBANK_ID>
DB13840

>  <COMMON_NAME>
Hydroxyethylpromethazine

>  <CAS_NUMBER>
7647-63-4

>  <UNII>
571559SLAJ

>  <SYNONYMS>
Promethazine hydroxyethyl

$$$$
