
 OpenBabel10282417072D

 36 38  0  0  1  0  0  0  0  0999 V2000
    1.8525    0.5018    0.0000 N   0  0  0  0  0  0  0  0  0  0  0  0
    1.0640    0.7508    0.0000 C   0  0  0  0  0  0  0  0  0  0  0  0
    1.2338   -0.7055    0.0000 C   0  0  2  0  0  0  0  0  0  0  0  0
    2.3355    1.1621    0.0000 C   0  0  0  0  0  0  0  0  0  0  0  0
    1.0640    1.5809    0.0000 C   0  0  0  0  0  0  0  0  0  0  0  0
    0.3471    0.3320    0.0000 N   0  0  0  0  0  0  0  0  0  0  0  0
    0.5622   -0.2113    0.0000 O   0  0  0  0  0  0  0  0  0  0  0  0
    0.9848   -1.4714    0.0000 C   0  0  1  0  0  0  0  0  0  0  0  0
    1.8563    1.8374    0.0000 N   0  0  0  0  0  0  0  0  0  0  0  0
    0.3471    1.9922    0.0000 C   0  0  0  0  0  0  0  0  0  0  0  0
   -0.3660    0.7508    0.0000 C   0  0  0  0  0  0  0  0  0  0  0  0
   -0.1094   -0.6904    0.0000 C   0  0  1  0  0  0  0  0  0  0  0  0
    0.1547   -1.4714    0.0000 C   0  0  1  0  0  0  0  0  0  0  0  0
    1.4714   -2.1355    0.0000 O   0  0  0  0  0  0  0  0  0  0  0  0
   -0.3660    1.5809    0.0000 N   0  0  0  0  0  0  0  0  0  0  0  0
    0.3434    2.8147    0.0000 O   0  0  0  0  0  0  0  0  0  0  0  0
   -0.8791   -0.4452    0.0000 C   0  0  0  0  0  0  0  0  0  0  0  0
   -0.3170   -2.1430    0.0000 O   0  0  0  0  0  0  0  0  0  0  0  0
   -1.4904   -0.8074    0.0000 O   0  0  0  0  0  0  0  0  0  0  0  0
   -2.3166   -0.8074    0.0000 P   0  0  0  0  0  0  0  0  0  0  0  0
   -3.1354   -0.8074    0.0000 O   0  0  0  0  0  0  0  0  0  0  0  0
   -2.3166    0.0151    0.0000 O   0  0  0  0  0  0  0  0  0  0  0  0
   -2.3204   -1.6262    0.0000 O   0  0  0  0  0  0  0  0  0  0  0  0
    0.9884    0.3360    0.0000 H   0  0  0  0  0  0  0  0  0  0  0  0
    3.3675    1.1547    0.0000 H   0  0  0  0  0  0  0  0  0  0  0  0
    2.0413   -1.3020    0.0000 H   0  0  0  0  0  0  0  0  0  0  0  0
   -1.2616    0.2381    0.0000 H   0  0  0  0  0  0  0  0  0  0  0  0
   -0.2752    0.3667    0.0000 H   0  0  0  0  0  0  0  0  0  0  0  0
    0.6481   -2.4209    0.0000 H   0  0  0  0  0  0  0  0  0  0  0  0
    1.0804   -3.0232    0.0000 H   0  0  0  0  0  0  0  0  0  0  0  0
   -1.2185    2.0733    0.0000 H   0  0  0  0  0  0  0  0  0  0  0  0
   -1.0000    0.6179    0.0000 H   0  0  0  0  0  0  0  0  0  0  0  0
   -1.8372    0.0311    0.0000 H   0  0  0  0  0  0  0  0  0  0  0  0
   -1.2832   -2.0571    0.0000 H   0  0  0  0  0  0  0  0  0  0  0  0
   -3.6204    0.0326    0.0000 H   0  0  0  0  0  0  0  0  0  0  0  0
   -1.4766    0.5001    0.0000 H   0  0  0  0  0  0  0  0  0  0  0  0
  1  2  1  0  0  0  0
  1  4  1  0  0  0  0
  2  5  2  0  0  0  0
  2  6  1  0  0  0  0
  3  1  1  0  0  0  0
  3  7  1  0  0  0  0
  3  8  1  0  0  0  0
  3 24  1  6  0  0  0
  4  9  2  0  0  0  0
  4 25  1  0  0  0  0
  5 10  1  0  0  0  0
  5  9  1  0  0  0  0
  6 11  2  0  0  0  0
  7 12  1  0  0  0  0
  8 13  1  0  0  0  0
  8 14  1  0  0  0  0
  8 26  1  1  0  0  0
 10 15  1  0  0  0  0
 10 16  2  0  0  0  0
 11 15  1  0  0  0  0
 11 27  1  0  0  0  0
 12 17  1  0  0  0  0
 12 13  1  0  0  0  0
 12 28  1  6  0  0  0
 13 18  1  0  0  0  0
 13 29  1  1  0  0  0
 14 30  1  0  0  0  0
 15 31  1  0  0  0  0
 17 19  1  0  0  0  0
 17 32  1  0  0  0  0
 17 33  1  0  0  0  0
 18 34  1  0  0  0  0
 19 20  1  0  0  0  0
 20 21  1  0  0  0  0
 20 22  1  0  0  0  0
 20 23  2  0  0  0  0
 21 35  1  0  0  0  0
 22 36  1  0  0  0  0
M  END
>  <DRUGBANK_ID>
DB04566

>  <SECONDARY_ACCESSION_NUMBERS>
EXPT01874

>  <COMMON_NAME>
Inosinic Acid

>  <CAS_NUMBER>
131-99-7

>  <UNII>
TAO7US05G5

>  <SYNONYMS>
Cytosine inosinate

$$$$
