C62
 OpenBabel10282417072D

 33 35  0  0  0  0  0  0  0  0999 V2000
   -0.4861    3.9699    0.0000 O   0  0  0  0  0  0  0  0  0  0  0  0
   -0.4861    3.1449    0.0000 S   0  0  0  0  0  0  0  0  0  0  0  0
    0.3389    3.1449    0.0000 O   0  0  0  0  0  0  0  0  0  0  0  0
   -1.3111    3.1449    0.0000 N   0  0  0  0  0  0  0  0  0  0  0  0
   -0.4861    2.3199    0.0000 C   0  0  0  0  0  0  0  0  0  0  0  0
    0.2284    1.9074    0.0000 C   0  0  0  0  0  0  0  0  0  0  0  0
    0.2284    1.0824    0.0000 C   0  0  0  0  0  0  0  0  0  0  0  0
   -0.4861    0.6699    0.0000 C   0  0  0  0  0  0  0  0  0  0  0  0
   -1.2006    1.0824    0.0000 C   0  0  0  0  0  0  0  0  0  0  0  0
   -1.2006    1.9074    0.0000 C   0  0  0  0  0  0  0  0  0  0  0  0
   -0.4861   -0.1551    0.0000 C   0  0  0  0  0  0  0  0  0  0  0  0
    0.1813   -0.6400    0.0000 O   0  0  0  0  0  0  0  0  0  0  0  0
   -1.1535   -0.6400    0.0000 C   0  0  0  0  0  0  0  0  0  0  0  0
   -0.8986   -1.4246    0.0000 C   0  0  0  0  0  0  0  0  0  0  0  0
   -0.0736   -1.4246    0.0000 C   0  0  0  0  0  0  0  0  0  0  0  0
    0.4113   -2.0920    0.0000 C   0  0  0  0  0  0  0  0  0  0  0  0
    1.2318   -2.0058    0.0000 C   0  0  0  0  0  0  0  0  0  0  0  0
    1.6443   -1.2913    0.0000 S   0  0  0  0  0  0  0  0  0  0  0  0
    2.4513   -1.4629    0.0000 C   0  0  0  0  0  0  0  0  0  0  0  0
    2.5375   -2.2833    0.0000 N   0  0  0  0  0  0  0  0  0  0  0  0
    1.7838   -2.6189    0.0000 C   0  0  0  0  0  0  0  0  0  0  0  0
    1.6123   -3.4259    0.0000 O   0  0  0  0  0  0  0  0  0  0  0  0
    3.0644   -0.9108    0.0000 O   0  0  0  0  0  0  0  0  0  0  0  0
   -1.8211    4.0282    0.0000 H   0  0  0  0  0  0  0  0  0  0  0  0
   -1.8211    2.2616    0.0000 H   0  0  0  0  0  0  0  0  0  0  0  0
    1.1221    2.4234    0.0000 H   0  0  0  0  0  0  0  0  0  0  0  0
    1.1221    0.5664    0.0000 H   0  0  0  0  0  0  0  0  0  0  0  0
   -2.0943    0.5664    0.0000 H   0  0  0  0  0  0  0  0  0  0  0  0
   -2.0943    2.4234    0.0000 H   0  0  0  0  0  0  0  0  0  0  0  0
   -2.1350   -0.3211    0.0000 H   0  0  0  0  0  0  0  0  0  0  0  0
   -1.5052   -2.2595    0.0000 H   0  0  0  0  0  0  0  0  0  0  0  0
   -0.0085   -3.0348    0.0000 H   0  0  0  0  0  0  0  0  0  0  0  0
    3.3901   -2.7755    0.0000 H   0  0  0  0  0  0  0  0  0  0  0  0
  2  1  2  0  0  0  0
  2  4  1  0  0  0  0
  2  5  1  0  0  0  0
  3  2  2  0  0  0  0
  4 24  1  0  0  0  0
  4 25  1  0  0  0  0
  5  6  2  0  0  0  0
  5 10  1  0  0  0  0
  6 26  1  0  0  0  0
  7  6  1  0  0  0  0
  7 27  1  0  0  0  0
  8  7  2  0  0  0  0
  8 11  1  0  0  0  0
  9  8  1  0  0  0  0
  9 28  1  0  0  0  0
 10  9  2  0  0  0  0
 10 29  1  0  0  0  0
 11 12  1  0  0  0  0
 11 13  2  0  0  0  0
 12 15  1  0  0  0  0
 13 14  1  0  0  0  0
 13 30  1  0  0  0  0
 14 15  2  0  0  0  0
 14 31  1  0  0  0  0
 15 16  1  0  0  0  0
 16 17  2  0  0  0  0
 16 32  1  0  0  0  0
 17 18  1  0  0  0  0
 17 21  1  0  0  0  0
 18 19  1  0  0  0  0
 19 20  1  0  0  0  0
 19 23  2  0  0  0  0
 20 21  1  0  0  0  0
 20 33  1  0  0  0  0
 21 22  2  0  0  0  0
M  END
>  <DRUGBANK_ID>
DB07531

>  <COMMON_NAME>
4-{5-[(Z)-(2,4-DIOXO-1,3-THIAZOLIDIN-5-YLIDENE)METHYL]FURAN-2-YL}BENZENESULFONAMIDE

$$$$
