
 OpenBabel10282417072D

 60 62  0  0  0  0  0  0  0  0999 V2000
    2.1434   -0.4125    0.0000 C   0  0  0  0  0  0  0  0  0  0  0  0
    2.8579   -2.4750    0.0000 C   0  0  0  0  0  0  0  0  0  0  0  0
    2.8579    0.0000    0.0000 C   0  0  0  0  0  0  0  0  0  0  0  0
    3.5724    3.7125    0.0000 C   0  0  0  0  0  0  0  0  0  0  0  0
    1.4289   -4.9500    0.0000 C   0  0  0  0  0  0  0  0  0  0  0  0
    2.8579    3.3000    0.0000 C   0  0  0  0  0  0  0  0  0  0  0  0
    4.2868    3.3000    0.0000 C   0  0  0  0  0  0  0  0  0  0  0  0
    2.1434   -5.3625    0.0000 C   0  0  0  0  0  0  0  0  0  0  0  0
    1.4289   -4.1250    0.0000 C   0  0  0  0  0  0  0  0  0  0  0  0
    2.8579    2.4750    0.0000 C   0  0  0  0  0  0  0  0  0  0  0  0
    4.2868    2.4750    0.0000 C   0  0  0  0  0  0  0  0  0  0  0  0
    2.8579   -4.9500    0.0000 C   0  0  0  0  0  0  0  0  0  0  0  0
    2.1434   -3.7125    0.0000 C   0  0  0  0  0  0  0  0  0  0  0  0
    5.0013   -1.2375    0.0000 C   0  0  0  0  0  0  0  0  0  0  0  0
    3.5724   -1.2375    0.0000 C   0  0  0  0  0  0  0  0  0  0  0  0
    5.0013   -0.4125    0.0000 C   0  0  0  0  0  0  0  0  0  0  0  0
    3.5724   -0.4125    0.0000 C   0  0  0  0  0  0  0  0  0  0  0  0
    4.2868   -2.4750    0.0000 C   0  0  0  0  0  0  0  0  0  0  0  0
    4.2868    0.8250    0.0000 C   0  0  0  0  0  0  0  0  0  0  0  0
    3.5724   -2.8875    0.0000 C   0  0  3  0  0  0  0  0  0  0  0  0
    3.5724    2.0625    0.0000 C   0  0  0  0  0  0  0  0  0  0  0  0
    2.8579   -4.1250    0.0000 C   0  0  0  0  0  0  0  0  0  0  0  0
    3.5724    1.2375    0.0000 C   0  0  3  0  0  0  0  0  0  0  0  0
    3.5724   -3.7125    0.0000 C   0  0  0  0  0  0  0  0  0  0  0  0
    4.2868   -1.6500    0.0000 N   0  0  0  0  0  0  0  0  0  0  0  0
    4.2868    0.0000    0.0000 N   0  0  0  0  0  0  0  0  0  0  0  0
    4.2868   -4.1250    0.0000 O   0  0  0  0  0  0  0  0  0  0  0  0
    2.8579    0.8250    0.0000 O   0  0  0  0  0  0  0  0  0  0  0  0
    1.2168    0.1225    0.0000 H   0  0  0  0  0  0  0  0  0  0  0  0
    2.1434   -1.4825    0.0000 H   0  0  0  0  0  0  0  0  0  0  0  0
    1.2167   -0.9475    0.0000 H   0  0  0  0  0  0  0  0  0  0  0  0
    2.8579   -1.4050    0.0000 H   0  0  0  0  0  0  0  0  0  0  0  0
    1.9313   -3.0100    0.0000 H   0  0  0  0  0  0  0  0  0  0  0  0
    1.9312   -1.9400    0.0000 H   0  0  0  0  0  0  0  0  0  0  0  0
    3.7845   -0.5350    0.0000 H   0  0  0  0  0  0  0  0  0  0  0  0
    3.7845    0.5350    0.0000 H   0  0  0  0  0  0  0  0  0  0  0  0
    3.5724    4.7445    0.0000 H   0  0  0  0  0  0  0  0  0  0  0  0
    0.5352   -5.4660    0.0000 H   0  0  0  0  0  0  0  0  0  0  0  0
    1.9642    3.8160    0.0000 H   0  0  0  0  0  0  0  0  0  0  0  0
    5.1805    3.8160    0.0000 H   0  0  0  0  0  0  0  0  0  0  0  0
    2.1434   -6.3945    0.0000 H   0  0  0  0  0  0  0  0  0  0  0  0
    0.5352   -3.6090    0.0000 H   0  0  0  0  0  0  0  0  0  0  0  0
    1.9642    1.9590    0.0000 H   0  0  0  0  0  0  0  0  0  0  0  0
    5.1805    1.9590    0.0000 H   0  0  0  0  0  0  0  0  0  0  0  0
    3.7516   -5.4660    0.0000 H   0  0  0  0  0  0  0  0  0  0  0  0
    2.1434   -2.6805    0.0000 H   0  0  0  0  0  0  0  0  0  0  0  0
    5.9279   -1.7725    0.0000 H   0  0  0  0  0  0  0  0  0  0  0  0
    5.0013   -2.3075    0.0000 H   0  0  0  0  0  0  0  0  0  0  0  0
    2.6457   -1.7725    0.0000 H   0  0  0  0  0  0  0  0  0  0  0  0
    3.5724   -2.3075    0.0000 H   0  0  0  0  0  0  0  0  0  0  0  0
    5.9279    0.1225    0.0000 H   0  0  0  0  0  0  0  0  0  0  0  0
    5.0013    0.6575    0.0000 H   0  0  0  0  0  0  0  0  0  0  0  0
    2.6457    0.1225    0.0000 H   0  0  0  0  0  0  0  0  0  0  0  0
    3.5724    0.6575    0.0000 H   0  0  0  0  0  0  0  0  0  0  0  0
    5.2135   -3.0100    0.0000 H   0  0  0  0  0  0  0  0  0  0  0  0
    5.2134   -1.9400    0.0000 H   0  0  0  0  0  0  0  0  0  0  0  0
    5.2135    1.3600    0.0000 H   0  0  0  0  0  0  0  0  0  0  0  0
    5.2134    0.2900    0.0000 H   0  0  0  0  0  0  0  0  0  0  0  0
    3.5724   -1.8175    0.0000 H   0  0  0  0  0  0  0  0  0  0  0  0
    4.4991    1.7725    0.0000 H   0  0  0  0  0  0  0  0  0  0  0  0
  1 29  1  0  0  0  0
  1 30  1  0  0  0  0
  1 31  1  0  0  0  0
  2 32  1  0  0  0  0
  2 33  1  0  0  0  0
  2 34  1  0  0  0  0
  3  1  1  0  0  0  0
  3 35  1  0  0  0  0
  3 36  1  0  0  0  0
  4 37  1  0  0  0  0
  5 38  1  0  0  0  0
  6  4  2  0  0  0  0
  6 39  1  0  0  0  0
  7  4  1  0  0  0  0
  7 40  1  0  0  0  0
  8  5  2  0  0  0  0
  8 41  1  0  0  0  0
  9  5  1  0  0  0  0
  9 42  1  0  0  0  0
 10  6  1  0  0  0  0
 10 43  1  0  0  0  0
 11  7  2  0  0  0  0
 11 44  1  0  0  0  0
 12  8  1  0  0  0  0
 12 45  1  0  0  0  0
 13  9  2  0  0  0  0
 13 46  1  0  0  0  0
 14 47  1  0  0  0  0
 14 48  1  0  0  0  0
 15 49  1  0  0  0  0
 15 50  1  0  0  0  0
 16 14  1  0  0  0  0
 16 51  1  0  0  0  0
 16 52  1  0  0  0  0
 17 15  1  0  0  0  0
 17 53  1  0  0  0  0
 17 54  1  0  0  0  0
 18 55  1  0  0  0  0
 18 56  1  0  0  0  0
 19 57  1  0  0  0  0
 19 58  1  0  0  0  0
 20  2  1  0  0  0  0
 20 18  1  0  0  0  0
 20 59  1  0  0  0  0
 21 10  2  0  0  0  0
 21 11  1  0  0  0  0
 22 12  2  0  0  0  0
 22 13  1  0  0  0  0
 23 19  1  0  0  0  0
 23 21  1  0  0  0  0
 23 60  1  0  0  0  0
 24 20  1  0  0  0  0
 24 22  1  0  0  0  0
 25 14  1  0  0  0  0
 25 15  1  0  0  0  0
 25 18  1  0  0  0  0
 26 16  1  0  0  0  0
 26 17  1  0  0  0  0
 26 19  1  0  0  0  0
 27 24  2  0  0  0  0
 28  3  1  0  0  0  0
 28 23  1  0  0  0  0
M  END
>  <DRUGBANK_ID>
DB08990

>  <COMMON_NAME>
Eprazinone

>  <CAS_NUMBER>
10402-90-1

>  <UNII>
883YNL63WU

>  <SYNONYMS>
eprazinona; Eprazinone; Ã‰prazinone

$$$$
