
 OpenBabel10282417072D

 60 60  0  0  0  0  0  0  0  0999 V2000
    4.5151    0.1091    0.0000 C   0  0  0  0  0  0  0  0  0  0  0  0
    3.8013    0.5194    0.0000 C   0  0  0  0  0  0  0  0  0  0  0  0
    5.2288    0.5229    0.0000 C   0  0  0  0  0  0  0  0  0  0  0  0
    4.5185   -0.7184    0.0000 C   0  0  0  0  0  0  0  0  0  0  0  0
    3.0875    0.1056    0.0000 C   0  0  0  0  0  0  0  0  0  0  0  0
    5.9461    0.1091    0.0000 C   0  0  0  0  0  0  0  0  0  0  0  0
    5.2323   -1.1252    0.0000 C   0  0  0  0  0  0  0  0  0  0  0  0
    5.9461   -0.7114    0.0000 C   0  0  0  0  0  0  0  0  0  0  0  0
    6.9059   -1.3292    0.0000 I   0  0  0  0  0  0  0  0  0  0  0  0
    2.3724    0.5169    0.0000 C   0  0  0  0  0  0  0  0  0  0  0  0
    1.6585    0.1032    0.0000 C   0  0  0  0  0  0  0  0  0  0  0  0
    0.9427    0.5160    0.0000 C   0  0  0  0  0  0  0  0  0  0  0  0
    0.2283    0.1032    0.0000 C   0  0  0  0  0  0  0  0  0  0  0  0
   -0.4863    0.5154    0.0000 C   0  0  0  0  0  0  0  0  0  0  0  0
   -1.2023    0.1041    0.0000 C   0  0  0  0  0  0  0  0  0  0  0  0
   -1.9148    0.5125    0.0000 C   0  0  0  0  0  0  0  0  0  0  0  0
   -2.6273    0.1000    0.0000 C   0  0  0  0  0  0  0  0  0  0  0  0
   -3.3397    0.5084    0.0000 C   0  0  0  0  0  0  0  0  0  0  0  0
   -4.0522    0.0958    0.0000 C   0  0  0  0  0  0  0  0  0  0  0  0
   -4.7647    0.5042    0.0000 C   0  0  3  0  0  0  0  0  0  0  0  0
   -4.7673    1.3292    0.0000 C   0  0  0  0  0  0  0  0  0  0  0  0
   -5.4778    0.0894    0.0000 C   0  0  0  0  0  0  0  0  0  0  0  0
   -6.1936    0.4996    0.0000 C   0  0  0  0  0  0  0  0  0  0  0  0
   -6.9059    0.0849    0.0000 O   0  0  0  0  0  0  0  0  0  0  0  0
   -6.1964    1.3246    0.0000 O   0  0  0  0  0  0  0  0  0  0  0  0
    3.7993    1.5894    0.0000 H   0  0  0  0  0  0  0  0  0  0  0  0
    4.7269    1.0561    0.0000 H   0  0  0  0  0  0  0  0  0  0  0  0
    5.2277    1.5549    0.0000 H   0  0  0  0  0  0  0  0  0  0  0  0
    3.6273   -1.2387    0.0000 H   0  0  0  0  0  0  0  0  0  0  0  0
    3.0893   -0.9644    0.0000 H   0  0  0  0  0  0  0  0  0  0  0  0
    2.1617   -0.4310    0.0000 H   0  0  0  0  0  0  0  0  0  0  0  0
    6.8397    0.6253    0.0000 H   0  0  0  0  0  0  0  0  0  0  0  0
    5.2361   -2.1572    0.0000 H   0  0  0  0  0  0  0  0  0  0  0  0
    2.3707    1.5869    0.0000 H   0  0  0  0  0  0  0  0  0  0  0  0
    1.4449    1.0504    0.0000 H   0  0  0  0  0  0  0  0  0  0  0  0
    1.6596   -0.9668    0.0000 H   0  0  0  0  0  0  0  0  0  0  0  0
    0.7323   -0.4325    0.0000 H   0  0  0  0  0  0  0  0  0  0  0  0
    0.9422    1.5860    0.0000 H   0  0  0  0  0  0  0  0  0  0  0  0
    1.8691    1.0514    0.0000 H   0  0  0  0  0  0  0  0  0  0  0  0
    0.2287   -0.9668    0.0000 H   0  0  0  0  0  0  0  0  0  0  0  0
   -0.6981   -0.4322    0.0000 H   0  0  0  0  0  0  0  0  0  0  0  0
   -0.4853    1.5854    0.0000 H   0  0  0  0  0  0  0  0  0  0  0  0
   -1.4121    1.0518    0.0000 H   0  0  0  0  0  0  0  0  0  0  0  0
   -1.2018   -0.9659    0.0000 H   0  0  0  0  0  0  0  0  0  0  0  0
   -2.1280   -0.4326    0.0000 H   0  0  0  0  0  0  0  0  0  0  0  0
   -1.9171    1.5825    0.0000 H   0  0  0  0  0  0  0  0  0  0  0  0
   -2.8423    1.0459    0.0000 H   0  0  0  0  0  0  0  0  0  0  0  0
   -2.6250   -0.9700    0.0000 H   0  0  0  0  0  0  0  0  0  0  0  0
   -3.5526   -0.4374    0.0000 H   0  0  0  0  0  0  0  0  0  0  0  0
   -3.3420    1.5784    0.0000 H   0  0  0  0  0  0  0  0  0  0  0  0
   -4.2673    1.0418    0.0000 H   0  0  0  0  0  0  0  0  0  0  0  0
   -4.0498   -0.9742    0.0000 H   0  0  0  0  0  0  0  0  0  0  0  0
   -4.9774   -0.4417    0.0000 H   0  0  0  0  0  0  0  0  0  0  0  0
   -3.8397    1.0421    0.0000 H   0  0  0  0  0  0  0  0  0  0  0  0
   -3.8423    1.8671    0.0000 H   0  0  0  0  0  0  0  0  0  0  0  0
   -5.6956    1.8613    0.0000 H   0  0  0  0  0  0  0  0  0  0  0  0
   -4.7707    2.3992    0.0000 H   0  0  0  0  0  0  0  0  0  0  0  0
   -5.4743   -0.9806    0.0000 H   0  0  0  0  0  0  0  0  0  0  0  0
   -6.4027   -0.4486    0.0000 H   0  0  0  0  0  0  0  0  0  0  0  0
   -7.7191    0.5505    0.0000 H   0  0  0  0  0  0  0  0  0  0  0  0
  1  4  1  0  0  0  0
  1  2  1  0  0  0  0
  1  3  2  0  0  0  0
  2  5  1  0  0  0  0
  2 26  1  0  0  0  0
  2 27  1  0  0  0  0
  3  6  1  0  0  0  0
  3 28  1  0  0  0  0
  4  7  2  0  0  0  0
  4 29  1  0  0  0  0
  5 10  1  0  0  0  0
  5 30  1  0  0  0  0
  5 31  1  0  0  0  0
  6  8  2  0  0  0  0
  6 32  1  0  0  0  0
  7  8  1  0  0  0  0
  7 33  1  0  0  0  0
  8  9  1  0  0  0  0
 10 11  1  0  0  0  0
 10 34  1  0  0  0  0
 10 35  1  0  0  0  0
 11 12  1  0  0  0  0
 11 36  1  0  0  0  0
 11 37  1  0  0  0  0
 12 13  1  0  0  0  0
 12 38  1  0  0  0  0
 12 39  1  0  0  0  0
 13 14  1  0  0  0  0
 13 40  1  0  0  0  0
 13 41  1  0  0  0  0
 14 15  1  0  0  0  0
 14 42  1  0  0  0  0
 14 43  1  0  0  0  0
 15 16  1  0  0  0  0
 15 44  1  0  0  0  0
 15 45  1  0  0  0  0
 16 17  1  0  0  0  0
 16 46  1  0  0  0  0
 16 47  1  0  0  0  0
 17 18  1  0  0  0  0
 17 48  1  0  0  0  0
 17 49  1  0  0  0  0
 18 19  1  0  0  0  0
 18 50  1  0  0  0  0
 18 51  1  0  0  0  0
 19 20  1  0  0  0  0
 19 52  1  0  0  0  0
 19 53  1  0  0  0  0
 20 21  1  0  0  0  0
 20 22  1  0  0  0  0
 20 54  1  0  0  0  0
 21 55  1  0  0  0  0
 21 56  1  0  0  0  0
 21 57  1  0  0  0  0
 22 23  1  0  0  0  0
 22 58  1  0  0  0  0
 22 59  1  0  0  0  0
 23 24  1  0  0  0  0
 23 25  2  0  0  0  0
 24 60  1  0  0  0  0
M  ISO  1   9 123
M  END
>  <DRUGBANK_ID>
DB05683

>  <COMMON_NAME>
Iodofiltic acid I-123

>  <CAS_NUMBER>
123748-56-1

>  <UNII>
0J7USQ749M

>  <SYNONYMS>
I-123 BMIPP; Iodofiltic acid (123I); Iodofiltic acid I 123

$$$$
