
 OpenBabel10282417072D

 22 21  0  0  0  0  0  0  0  0999 V2000
   -1.4264    0.2226    0.0000 C   0  0  0  0  0  0  0  0  0  0  0  0
   -0.7171   -0.1989    0.0000 C   0  0  1  0  0  0  0  0  0  0  0  0
    0.0027    0.2107    0.0000 C   0  0  1  0  0  0  0  0  0  0  0  0
    0.7118   -0.2107    0.0000 C   0  0  1  0  0  0  0  0  0  0  0  0
    1.4318    0.1988    0.0000 C   0  0  0  0  0  0  0  0  0  0  0  0
   -2.1462   -0.1870    0.0000 O   0  0  0  0  0  0  0  0  0  0  0  0
   -0.7171   -1.0239    0.0000 O   0  0  0  0  0  0  0  0  0  0  0  0
    0.0027    1.0357    0.0000 O   0  0  0  0  0  0  0  0  0  0  0  0
    0.7118   -1.0357    0.0000 O   0  0  0  0  0  0  0  0  0  0  0  0
    2.1462   -0.2135    0.0000 O   0  0  0  0  0  0  0  0  0  0  0  0
   -1.4163    1.2926    0.0000 H   0  0  0  0  0  0  0  0  0  0  0  0
   -0.4939    0.7474    0.0000 H   0  0  0  0  0  0  0  0  0  0  0  0
   -1.6471   -0.7281    0.0000 H   0  0  0  0  0  0  0  0  0  0  0  0
   -0.9223    0.7486    0.0000 H   0  0  0  0  0  0  0  0  0  0  0  0
   -0.2182   -0.7399    0.0000 H   0  0  0  0  0  0  0  0  0  0  0  0
    1.4352    1.2688    0.0000 H   0  0  0  0  0  0  0  0  0  0  0  0
    2.3592    0.7324    0.0000 H   0  0  0  0  0  0  0  0  0  0  0  0
   -2.9832    0.3032    0.0000 H   0  0  0  0  0  0  0  0  0  0  0  0
   -1.5571   -1.5089    0.0000 H   0  0  0  0  0  0  0  0  0  0  0  0
    0.8427    1.5207    0.0000 H   0  0  0  0  0  0  0  0  0  0  0  0
   -0.1282   -1.5207    0.0000 H   0  0  0  0  0  0  0  0  0  0  0  0
    2.1464   -1.1835    0.0000 H   0  0  0  0  0  0  0  0  0  0  0  0
  1 11  1  0  0  0  0
  1 12  1  0  0  0  0
  2  1  1  0  0  0  0
  2  7  1  0  0  0  0
  2 13  1  6  0  0  0
  3  2  1  0  0  0  0
  3  8  1  0  0  0  0
  3 14  1  1  0  0  0
  4  3  1  0  0  0  0
  4  9  1  0  0  0  0
  4 15  1  6  0  0  0
  5  4  1  0  0  0  0
  5 10  1  0  0  0  0
  5 16  1  0  0  0  0
  5 17  1  0  0  0  0
  6  1  1  0  0  0  0
  6 18  1  0  0  0  0
  7 19  1  0  0  0  0
  8 20  1  0  0  0  0
  9 21  1  0  0  0  0
 10 22  1  0  0  0  0
M  END
>  <DRUGBANK_ID>
DB14704

>  <COMMON_NAME>
Ribitol

>  <CAS_NUMBER>
488-81-3

>  <UNII>
353ZQ9TVDA

>  <SYNONYMS>
(2R,3s,4S)-pentane-1,2,3,4,5-pentol; Adonitol; D-Adonitol; D-Ribitol; L-ribitol

$$$$
