
 OpenBabel10282417072D

 45 48  0  0  0  0  0  0  0  0999 V2000
   -0.0070   -0.8038    0.0000 C   0  0  3  0  0  0  0  0  0  0  0  0
   -0.7093   -1.2177    0.0000 C   0  0  0  0  0  0  0  0  0  0  0  0
    0.7094   -1.2177    0.0000 C   0  0  0  0  0  0  0  0  0  0  0  0
    0.2013   -1.4261    0.0000 C   0  0  0  0  0  0  0  0  0  0  0  0
   -0.0107    0.0210    0.0000 C   0  0  0  0  0  0  0  0  0  0  0  0
   -0.7093   -2.0456    0.0000 C   0  0  0  0  0  0  0  0  0  0  0  0
   -1.4314   -0.8038    0.0000 C   0  0  0  0  0  0  0  0  0  0  0  0
    0.7094   -2.0456    0.0000 C   0  0  0  0  0  0  0  0  0  0  0  0
    1.4315   -0.8038    0.0000 C   0  0  0  0  0  0  0  0  0  0  0  0
   -0.2524   -1.8458    0.0000 C   0  0  0  0  0  0  0  0  0  0  0  0
    0.7020    0.4367    0.0000 C   0  0  3  0  0  0  0  0  0  0  0  0
    0.0242   -2.5022    0.0000 C   0  0  3  0  0  0  0  0  0  0  0  0
   -1.4515   -2.4509    0.0000 C   0  0  0  0  0  0  0  0  0  0  0  0
   -2.1451   -1.2177    0.0000 C   0  0  0  0  0  0  0  0  0  0  0  0
    1.4315   -2.4509    0.0000 C   0  0  0  0  0  0  0  0  0  0  0  0
    2.1451   -1.2177    0.0000 C   0  0  0  0  0  0  0  0  0  0  0  0
    0.6983    1.2617    0.0000 C   0  0  0  0  0  0  0  0  0  0  0  0
    1.4182    0.0274    0.0000 O   0  0  0  0  0  0  0  0  0  0  0  0
   -2.1451   -2.0456    0.0000 C   0  0  0  0  0  0  0  0  0  0  0  0
    2.1451   -2.0456    0.0000 C   0  0  0  0  0  0  0  0  0  0  0  0
    1.4110    1.6772    0.0000 N   0  0  0  0  0  0  0  0  0  0  0  0
    1.4073    2.5022    0.0000 C   0  0  0  0  0  0  0  0  0  0  0  0
    1.2379   -1.6915    0.0000 H   0  0  0  0  0  0  0  0  0  0  0  0
    0.4639   -2.4634    0.0000 H   0  0  0  0  0  0  0  0  0  0  0  0
   -0.9397    0.5519    0.0000 H   0  0  0  0  0  0  0  0  0  0  0  0
   -0.0155    1.0910    0.0000 H   0  0  0  0  0  0  0  0  0  0  0  0
   -1.4340    0.2282    0.0000 H   0  0  0  0  0  0  0  0  0  0  0  0
    1.4341    0.2282    0.0000 H   0  0  0  0  0  0  0  0  0  0  0  0
   -1.2983   -1.6199    0.0000 H   0  0  0  0  0  0  0  0  0  0  0  0
   -0.9354   -2.6694    0.0000 H   0  0  0  0  0  0  0  0  0  0  0  0
   -0.2270    0.9676    0.0000 H   0  0  0  0  0  0  0  0  0  0  0  0
    0.0076   -1.4323    0.0000 H   0  0  0  0  0  0  0  0  0  0  0  0
   -1.4665   -3.4828    0.0000 H   0  0  0  0  0  0  0  0  0  0  0  0
   -3.0393   -0.7026    0.0000 H   0  0  0  0  0  0  0  0  0  0  0  0
    1.4341   -3.4829    0.0000 H   0  0  0  0  0  0  0  0  0  0  0  0
    3.0394   -0.7026    0.0000 H   0  0  0  0  0  0  0  0  0  0  0  0
   -0.2307    1.7927    0.0000 H   0  0  0  0  0  0  0  0  0  0  0  0
    0.6937    2.3317    0.0000 H   0  0  0  0  0  0  0  0  0  0  0  0
    1.4225   -0.9426    0.0000 H   0  0  0  0  0  0  0  0  0  0  0  0
   -3.0402   -2.5593    0.0000 H   0  0  0  0  0  0  0  0  0  0  0  0
    3.0370   -2.5648    0.0000 H   0  0  0  0  0  0  0  0  0  0  0  0
    2.2966    1.1711    0.0000 H   0  0  0  0  0  0  0  0  0  0  0  0
    2.3315    3.0414    0.0000 H   0  0  0  0  0  0  0  0  0  0  0  0
    0.4783    3.0330    0.0000 H   0  0  0  0  0  0  0  0  0  0  0  0
    1.4025    3.5722    0.0000 H   0  0  0  0  0  0  0  0  0  0  0  0
  1  2  1  0  0  0  0
  1  3  1  0  0  0  0
  1  4  1  0  0  0  0
  1  5  1  0  0  0  0
  2  6  1  0  0  0  0
  2  7  2  0  0  0  0
  3  8  1  0  0  0  0
  3  9  2  0  0  0  0
  4 10  1  0  0  0  0
  4 23  1  0  0  0  0
  4 24  1  0  0  0  0
  5 11  1  0  0  0  0
  5 25  1  0  0  0  0
  5 26  1  0  0  0  0
  6 12  1  0  0  0  0
  6 13  2  0  0  0  0
  7 14  1  0  0  0  0
  7 27  1  0  0  0  0
  8 15  2  0  0  0  0
  8 12  1  0  0  0  0
  9 16  1  0  0  0  0
  9 28  1  0  0  0  0
 10 12  1  0  0  0  0
 10 29  1  0  0  0  0
 10 30  1  0  0  0  0
 11 17  1  0  0  0  0
 11 18  1  0  0  0  0
 11 31  1  0  0  0  0
 12 32  1  0  0  0  0
 13 19  1  0  0  0  0
 13 33  1  0  0  0  0
 14 19  2  0  0  0  0
 14 34  1  0  0  0  0
 15 20  1  0  0  0  0
 15 35  1  0  0  0  0
 16 20  2  0  0  0  0
 16 36  1  0  0  0  0
 17 21  1  0  0  0  0
 17 37  1  0  0  0  0
 17 38  1  0  0  0  0
 18 39  1  0  0  0  0
 19 40  1  0  0  0  0
 20 41  1  0  0  0  0
 21 22  1  0  0  0  0
 21 42  1  0  0  0  0
 22 43  1  0  0  0  0
 22 44  1  0  0  0  0
 22 45  1  0  0  0  0
M  END
>  <DRUGBANK_ID>
DB09307

>  <COMMON_NAME>
Oxaprotiline

>  <CAS_NUMBER>
56433-44-4

>  <UNII>
3V3Z2HK4LS

>  <SYNONYMS>
Hydroxymaprotiline; Oxaprotilina; Oxaprotiline; Oxaprotilinum

$$$$
