CLK
 OpenBabel10282417072D

 32 32  0  0  0  0  0  0  0  0999 V2000
   -2.9768    0.6970    0.0000 C   0  0  0  0  0  0  0  0  0  0  0  0
   -3.6913    0.2845    0.0000 Cl  0  0  0  0  0  0  0  0  0  0  0  0
   -2.9768    1.5220    0.0000 Cl  0  0  0  0  0  0  0  0  0  0  0  0
   -2.2624    0.2845    0.0000 C   0  0  0  0  0  0  0  0  0  0  0  0
   -2.2624   -0.5405    0.0000 O   0  0  0  0  0  0  0  0  0  0  0  0
   -1.5479    0.6970    0.0000 N   0  0  0  0  0  0  0  0  0  0  0  0
   -0.8334    0.2845    0.0000 C   0  0  2  0  0  0  0  0  0  0  0  0
   -0.8334   -0.5405    0.0000 C   0  0  0  0  0  0  0  0  0  0  0  0
   -0.1189   -0.9530    0.0000 O   0  0  0  0  0  0  0  0  0  0  0  0
   -0.1189    0.6970    0.0000 C   0  0  2  0  0  0  0  0  0  0  0  0
   -0.1189    1.5220    0.0000 O   0  0  0  0  0  0  0  0  0  0  0  0
    0.5955    0.2845    0.0000 C   0  0  0  0  0  0  0  0  0  0  0  0
    1.3100    0.6970    0.0000 C   0  0  0  0  0  0  0  0  0  0  0  0
    2.0245    0.2845    0.0000 C   0  0  0  0  0  0  0  0  0  0  0  0
    2.0245   -0.5405    0.0000 C   0  0  0  0  0  0  0  0  0  0  0  0
    2.7389   -0.9530    0.0000 N   0  0  0  0  0  0  0  0  0  0  0  0
    1.3100   -0.9530    0.0000 C   0  0  0  0  0  0  0  0  0  0  0  0
    0.5955   -0.5405    0.0000 C   0  0  0  0  0  0  0  0  0  0  0  0
   -1.3391   -0.0075    0.0000 H   0  0  0  0  0  0  0  0  0  0  0  0
   -0.6246    0.9889    0.0000 H   0  0  0  0  0  0  0  0  0  0  0  0
   -2.0501    1.2320    0.0000 H   0  0  0  0  0  0  0  0  0  0  0  0
   -1.5479    1.6815    0.0000 H   0  0  0  0  0  0  0  0  0  0  0  0
   -1.7600   -1.0755    0.0000 H   0  0  0  0  0  0  0  0  0  0  0  0
   -0.8334   -1.6105    0.0000 H   0  0  0  0  0  0  0  0  0  0  0  0
   -0.1189   -1.9230    0.0000 H   0  0  0  0  0  0  0  0  0  0  0  0
    0.7211    2.0070    0.0000 H   0  0  0  0  0  0  0  0  0  0  0  0
    1.3100    1.7290    0.0000 H   0  0  0  0  0  0  0  0  0  0  0  0
    2.9182    0.8005    0.0000 H   0  0  0  0  0  0  0  0  0  0  0  0
    2.7389   -1.9375    0.0000 H   0  0  0  0  0  0  0  0  0  0  0  0
    3.5915   -0.4608    0.0000 H   0  0  0  0  0  0  0  0  0  0  0  0
    1.3100   -1.9850    0.0000 H   0  0  0  0  0  0  0  0  0  0  0  0
   -0.2982   -1.0565    0.0000 H   0  0  0  0  0  0  0  0  0  0  0  0
  1  2  1  0  0  0  0
  1  3  1  0  0  0  0
  1  4  1  0  0  0  0
  1 21  1  0  0  0  0
  4  5  2  0  0  0  0
  4  6  1  0  0  0  0
  6 22  1  0  0  0  0
  7  6  1  0  0  0  0
  7  8  1  0  0  0  0
  7 10  1  0  0  0  0
  7 19  1  6  0  0  0
  8  9  1  0  0  0  0
  8 23  1  0  0  0  0
  8 24  1  0  0  0  0
  9 25  1  0  0  0  0
 10 11  1  0  0  0  0
 10 12  1  0  0  0  0
 10 20  1  1  0  0  0
 11 26  1  0  0  0  0
 12 13  2  0  0  0  0
 12 18  1  0  0  0  0
 13 14  1  0  0  0  0
 13 27  1  0  0  0  0
 14 15  2  0  0  0  0
 14 28  1  0  0  0  0
 15 16  1  0  0  0  0
 15 17  1  0  0  0  0
 16 29  1  0  0  0  0
 16 30  1  0  0  0  0
 17 18  2  0  0  0  0
 17 31  1  0  0  0  0
 18 32  1  0  0  0  0
M  END
>  <DRUGBANK_ID>
DB04411

>  <SECONDARY_ACCESSION_NUMBERS>
EXPT00940

>  <COMMON_NAME>
Alpha-N-Dichloroacetyl-P-Aminophenylserinol

$$$$
