
 OpenBabel10282417072D

104109  0  0  1  0  0  0  0  0999 V2000
    4.1550    4.5496    0.0000 C   0  0  0  0  0  0  0  0  0  0  0  0
    4.4739    3.7888    0.0000 C   0  0  0  0  0  0  0  0  0  0  0  0
    3.9744    3.1322    0.0000 N   0  0  0  0  0  0  0  0  0  0  0  0
    3.1560    3.2364    0.0000 C   0  0  0  0  0  0  0  0  0  0  0  0
    2.8371    3.9973    0.0000 C   0  0  0  0  0  0  0  0  0  0  0  0
    4.2933    2.3713    0.0000 C   0  0  0  0  0  0  0  0  0  0  0  0
    3.7938    1.7147    0.0000 C   0  0  0  0  0  0  0  0  0  0  0  0
    4.1127    0.9538    0.0000 N   0  0  0  0  0  0  0  0  0  0  0  0
    4.9157    0.7646    0.0000 C   0  0  0  0  0  0  0  0  0  0  0  0
    5.5936    1.2347    0.0000 C   0  0  0  0  0  0  0  0  0  0  0  0
    6.3397    0.8826    0.0000 C   0  0  0  0  0  0  0  0  0  0  0  0
    6.4079    0.0604    0.0000 C   0  0  0  0  0  0  0  0  0  0  0  0
    5.7299   -0.4097    0.0000 C   0  0  0  0  0  0  0  0  0  0  0  0
    4.9838   -0.0576    0.0000 C   0  0  0  0  0  0  0  0  0  0  0  0
    4.2229   -0.3765    0.0000 C   0  0  0  0  0  0  0  0  0  0  0  0
    3.6845    0.2486    0.0000 C   0  0  0  0  0  0  0  0  0  0  0  0
    2.8740    0.0949    0.0000 C   0  0  1  0  0  0  0  0  0  0  0  0
    2.3356    0.7200    0.0000 C   0  0  0  0  0  0  0  0  0  0  0  0
    1.5250    0.5662    0.0000 C   0  0  1  0  0  0  0  0  0  0  0  0
    1.2529   -0.2126    0.0000 C   0  0  2  0  0  0  0  0  0  0  0  0
    0.4423   -0.3663    0.0000 C   0  0  0  0  0  0  0  0  0  0  0  0
   -0.0961    0.2588    0.0000 C   0  0  2  0  0  0  0  0  0  0  0  0
    0.1761    1.0376    0.0000 C   0  0  1  0  0  0  0  0  0  0  0  0
    0.9866    1.1913    0.0000 C   0  0  1  0  0  0  0  0  0  0  0  0
    1.2588    1.9701    0.0000 C   0  0  0  0  0  0  0  0  0  0  0  0
    2.0693    2.1239    0.0000 O   0  0  0  0  0  0  0  0  0  0  0  0
    0.7204    2.5952    0.0000 O   0  0  0  0  0  0  0  0  0  0  0  0
    0.9925    3.3741    0.0000 C   0  0  0  0  0  0  0  0  0  0  0  0
   -0.3623    1.6627    0.0000 O   0  0  0  0  0  0  0  0  0  0  0  0
   -0.0902    2.4415    0.0000 C   0  0  0  0  0  0  0  0  0  0  0  0
   -0.9066    0.1050    0.0000 O   0  0  0  0  0  0  0  0  0  0  0  0
   -1.1788   -0.6738    0.0000 C   0  0  0  0  0  0  0  0  0  0  0  0
   -0.6404   -1.2989    0.0000 O   0  0  0  0  0  0  0  0  0  0  0  0
   -1.9893   -0.8275    0.0000 C   0  0  0  0  0  0  0  0  0  0  0  0
   -2.2615   -1.6063    0.0000 C   0  0  0  0  0  0  0  0  0  0  0  0
   -3.0720   -1.7601    0.0000 C   0  0  0  0  0  0  0  0  0  0  0  0
   -3.6104   -1.1350    0.0000 C   0  0  0  0  0  0  0  0  0  0  0  0
   -3.3383   -0.3561    0.0000 C   0  0  0  0  0  0  0  0  0  0  0  0
   -2.5277   -0.2024    0.0000 C   0  0  0  0  0  0  0  0  0  0  0  0
   -3.8767    0.2690    0.0000 O   0  0  0  0  0  0  0  0  0  0  0  0
   -3.6045    1.0478    0.0000 C   0  0  0  0  0  0  0  0  0  0  0  0
   -4.4210   -1.2887    0.0000 O   0  0  0  0  0  0  0  0  0  0  0  0
   -4.6931   -2.0675    0.0000 C   0  0  0  0  0  0  0  0  0  0  0  0
   -3.3442   -2.5389    0.0000 O   0  0  0  0  0  0  0  0  0  0  0  0
   -4.1547   -2.6926    0.0000 C   0  0  0  0  0  0  0  0  0  0  0  0
    1.7913   -0.8377    0.0000 C   0  0  0  0  0  0  0  0  0  0  0  0
    2.6018   -0.6840    0.0000 N   0  0  3  0  0  0  0  0  0  0  0  0
    3.1402   -1.3091    0.0000 C   0  0  0  0  0  0  0  0  0  0  0  0
    3.9508   -1.1553    0.0000 C   0  0  0  0  0  0  0  0  0  0  0  0
    7.0177    1.3527    0.0000 O   0  0  0  0  0  0  0  0  0  0  0  0
    7.7638    1.0007    0.0000 C   0  0  0  0  0  0  0  0  0  0  0  0
    4.8028    5.4012    0.0000 H   0  0  0  0  0  0  0  0  0  0  0  0
    3.0936    4.6848    0.0000 H   0  0  0  0  0  0  0  0  0  0  0  0
    3.7414    5.5364    0.0000 H   0  0  0  0  0  0  0  0  0  0  0  0
    5.5353    3.6536    0.0000 H   0  0  0  0  0  0  0  0  0  0  0  0
    4.8875    2.8020    0.0000 H   0  0  0  0  0  0  0  0  0  0  0  0
    2.5082    2.3848    0.0000 H   0  0  0  0  0  0  0  0  0  0  0  0
    2.0946    3.3716    0.0000 H   0  0  0  0  0  0  0  0  0  0  0  0
    3.4849    4.8489    0.0000 H   0  0  0  0  0  0  0  0  0  0  0  0
    1.7757    4.1325    0.0000 H   0  0  0  0  0  0  0  0  0  0  0  0
    2.4235    4.9841    0.0000 H   0  0  0  0  0  0  0  0  0  0  0  0
    5.3547    2.2361    0.0000 H   0  0  0  0  0  0  0  0  0  0  0  0
    4.7069    1.3845    0.0000 H   0  0  0  0  0  0  0  0  0  0  0  0
    2.7324    1.8499    0.0000 H   0  0  0  0  0  0  0  0  0  0  0  0
    3.1460    0.8631    0.0000 H   0  0  0  0  0  0  0  0  0  0  0  0
    5.5084    2.2632    0.0000 H   0  0  0  0  0  0  0  0  0  0  0  0
    7.3412   -0.3800    0.0000 H   0  0  0  0  0  0  0  0  0  0  0  0
    5.8151   -1.4382    0.0000 H   0  0  0  0  0  0  0  0  0  0  0  0
    3.2270    1.1050    0.0000 H   0  0  0  0  0  0  0  0  0  0  0  0
    2.6885    1.7301    0.0000 H   0  0  0  0  0  0  0  0  0  0  0  0
    1.6373    1.5307    0.0000 H   0  0  0  0  0  0  0  0  0  0  0  0
    2.2233   -0.2445    0.0000 H   0  0  0  0  0  0  0  0  0  0  0  0
    0.5546    0.5981    0.0000 H   0  0  0  0  0  0  0  0  0  0  0  0
    0.0893   -1.3764    0.0000 H   0  0  0  0  0  0  0  0  0  0  0  0
   -0.6090   -0.5657    0.0000 H   0  0  0  0  0  0  0  0  0  0  0  0
   -0.4490   -0.7513    0.0000 H   0  0  0  0  0  0  0  0  0  0  0  0
   -0.8752    0.8383    0.0000 H   0  0  0  0  0  0  0  0  0  0  0  0
    0.2883    2.0021    0.0000 H   0  0  0  0  0  0  0  0  0  0  0  0
    2.0437    3.5736    0.0000 H   0  0  0  0  0  0  0  0  0  0  0  0
    0.2941    4.1848    0.0000 H   0  0  0  0  0  0  0  0  0  0  0  0
    1.3454    4.3842    0.0000 H   0  0  0  0  0  0  0  0  0  0  0  0
    0.9611    2.6409    0.0000 H   0  0  0  0  0  0  0  0  0  0  0  0
   -0.7885    3.2522    0.0000 H   0  0  0  0  0  0  0  0  0  0  0  0
    0.2627    3.4516    0.0000 H   0  0  0  0  0  0  0  0  0  0  0  0
   -1.5880   -2.3882    0.0000 H   0  0  0  0  0  0  0  0  0  0  0  0
   -2.1872    0.7718    0.0000 H   0  0  0  0  0  0  0  0  0  0  0  0
   -2.5532    1.2471    0.0000 H   0  0  0  0  0  0  0  0  0  0  0  0
   -4.3027    1.8586    0.0000 H   0  0  0  0  0  0  0  0  0  0  0  0
   -3.2515    2.0579    0.0000 H   0  0  0  0  0  0  0  0  0  0  0  0
   -5.7444   -2.2669    0.0000 H   0  0  0  0  0  0  0  0  0  0  0  0
   -3.9948   -2.8782    0.0000 H   0  0  0  0  0  0  0  0  0  0  0  0
   -5.0460   -3.0776    0.0000 H   0  0  0  0  0  0  0  0  0  0  0  0
   -4.8530   -1.8819    0.0000 H   0  0  0  0  0  0  0  0  0  0  0  0
   -4.5077   -3.7027    0.0000 H   0  0  0  0  0  0  0  0  0  0  0  0
   -5.2060   -2.8920    0.0000 H   0  0  0  0  0  0  0  0  0  0  0  0
    1.4383   -1.8478    0.0000 H   0  0  0  0  0  0  0  0  0  0  0  0
    2.4896   -1.6484    0.0000 H   0  0  0  0  0  0  0  0  0  0  0  0
    2.7873   -2.3192    0.0000 H   0  0  0  0  0  0  0  0  0  0  0  0
    3.8385   -2.1198    0.0000 H   0  0  0  0  0  0  0  0  0  0  0  0
    4.6491   -1.9660    0.0000 H   0  0  0  0  0  0  0  0  0  0  0  0
    5.0021   -0.9559    0.0000 H   0  0  0  0  0  0  0  0  0  0  0  0
    7.8523   -0.0656    0.0000 H   0  0  0  0  0  0  0  0  0  0  0  0
    8.6430    1.6105    0.0000 H   0  0  0  0  0  0  0  0  0  0  0  0
    8.7315    0.5441    0.0000 H   0  0  0  0  0  0  0  0  0  0  0  0
  1  2  1  0  0  0  0
  1 52  1  0  0  0  0
  1 53  1  0  0  0  0
  1 54  1  0  0  0  0
  2  3  1  0  0  0  0
  2 55  1  0  0  0  0
  2 56  1  0  0  0  0
  3  4  1  0  0  0  0
  3  6  1  0  0  0  0
  4  5  1  0  0  0  0
  4 57  1  0  0  0  0
  4 58  1  0  0  0  0
  5 59  1  0  0  0  0
  5 60  1  0  0  0  0
  5 61  1  0  0  0  0
  6  7  1  0  0  0  0
  6 62  1  0  0  0  0
  6 63  1  0  0  0  0
  7  8  1  0  0  0  0
  7 64  1  0  0  0  0
  7 65  1  0  0  0  0
  8  9  1  0  0  0  0
  8 16  1  0  0  0  0
  9 10  2  0  0  0  0
  9 14  1  0  0  0  0
 10 11  1  0  0  0  0
 10 66  1  0  0  0  0
 11 12  2  0  0  0  0
 11 50  1  0  0  0  0
 12 13  1  0  0  0  0
 12 67  1  0  0  0  0
 13 14  2  0  0  0  0
 13 68  1  0  0  0  0
 14 15  1  0  0  0  0
 15 16  2  0  0  0  0
 15 49  1  0  0  0  0
 17 16  1  0  0  0  0
 17 18  1  0  0  0  0
 17 47  1  0  0  0  0
 17 69  1  1  0  0  0
 18 70  1  0  0  0  0
 18 71  1  0  0  0  0
 19 18  1  0  0  0  0
 19 20  1  0  0  0  0
 19 24  1  0  0  0  0
 19 72  1  6  0  0  0
 20 21  1  0  0  0  0
 20 46  1  0  0  0  0
 20 73  1  6  0  0  0
 21 22  1  0  0  0  0
 21 74  1  0  0  0  0
 21 75  1  0  0  0  0
 22 23  1  0  0  0  0
 22 31  1  0  0  0  0
 22 76  1  6  0  0  0
 23 24  1  0  0  0  0
 23 29  1  0  0  0  0
 23 77  1  1  0  0  0
 24 25  1  0  0  0  0
 24 78  1  6  0  0  0
 25 26  2  0  0  0  0
 25 27  1  0  0  0  0
 27 28  1  0  0  0  0
 28 79  1  0  0  0  0
 28 80  1  0  0  0  0
 28 81  1  0  0  0  0
 29 30  1  0  0  0  0
 30 82  1  0  0  0  0
 30 83  1  0  0  0  0
 30 84  1  0  0  0  0
 31 32  1  0  0  0  0
 32 33  2  0  0  0  0
 32 34  1  0  0  0  0
 34 35  2  0  0  0  0
 34 39  1  0  0  0  0
 35 36  1  0  0  0  0
 35 85  1  0  0  0  0
 36 37  2  0  0  0  0
 36 44  1  0  0  0  0
 37 38  1  0  0  0  0
 37 42  1  0  0  0  0
 38 39  2  0  0  0  0
 38 40  1  0  0  0  0
 39 86  1  0  0  0  0
 40 41  1  0  0  0  0
 41 87  1  0  0  0  0
 41 88  1  0  0  0  0
 41 89  1  0  0  0  0
 42 43  1  0  0  0  0
 43 90  1  0  0  0  0
 43 91  1  0  0  0  0
 43 92  1  0  0  0  0
 44 45  1  0  0  0  0
 45 93  1  0  0  0  0
 45 94  1  0  0  0  0
 45 95  1  0  0  0  0
 46 47  1  0  0  0  0
 46 96  1  0  0  0  0
 46 97  1  0  0  0  0
 47 48  1  0  0  0  0
 48 49  1  0  0  0  0
 48 98  1  0  0  0  0
 48 99  1  0  0  0  0
 49100  1  0  0  0  0
 49101  1  0  0  0  0
 50 51  1  0  0  0  0
 51102  1  0  0  0  0
 51103  1  0  0  0  0
 51104  1  0  0  0  0
M  END
>  <DRUGBANK_ID>
DB13575

>  <COMMON_NAME>
Bietaserpine

>  <CAS_NUMBER>
53-18-9

>  <UNII>
0P5B94FVD5

>  <SYNONYMS>
Bietaserpine

$$$$
