
 OpenBabel10282417072D

 91 95  0  0  0  0  0  0  0  0999 V2000
   -2.8875   -3.0705    0.0000 P   0  0  0  0  0  0  0  0  0  0  0  0
   -0.3500   -2.8411    0.0000 O   0  0  0  0  0  0  0  0  0  0  0  0
    1.2630   -4.2395    0.0000 O   0  0  0  0  0  0  0  0  0  0  0  0
   -0.3738   -4.9758    0.0000 O   0  0  0  0  0  0  0  0  0  0  0  0
   -2.0674   -2.9811    0.0000 O   0  0  0  0  0  0  0  0  0  0  0  0
   -2.9769   -2.2503    0.0000 O   0  0  0  0  0  0  0  0  0  0  0  0
   -3.7077   -3.1598    0.0000 O   0  0  0  0  0  0  0  0  0  0  0  0
   -2.7981   -3.8906    0.0000 O   0  0  0  0  0  0  0  0  0  0  0  0
    1.2847    0.0606    0.0000 O   0  0  0  0  0  0  0  0  0  0  0  0
   -1.1690   -0.4058    0.0000 O   0  0  0  0  0  0  0  0  0  0  0  0
    3.1082    2.0856    0.0000 O   0  0  0  0  0  0  0  0  0  0  0  0
    3.8114    4.9758    0.0000 O   0  0  0  0  0  0  0  0  0  0  0  0
    2.3826    4.9702    0.0000 O   0  0  0  0  0  0  0  0  0  0  0  0
    5.9596    3.7465    0.0000 O   0  0  0  0  0  0  0  0  0  0  0  0
   -4.0876    2.0491    0.0000 O   0  0  0  0  0  0  0  0  0  0  0  0
    5.2499    2.5063    0.0000 O   0  0  0  0  0  0  0  0  0  0  0  0
    1.0685   -2.4552    0.0000 N   0  0  0  0  0  0  0  0  0  0  0  0
    2.2858   -1.9076    0.0000 N   0  0  0  0  0  0  0  0  0  0  0  0
    2.6834   -0.2310    0.0000 N   0  0  0  0  0  0  0  0  0  0  0  0
   -0.4592    0.8343    0.0000 N   0  0  0  0  0  0  0  0  0  0  0  0
    2.3889    3.3203    0.0000 N   0  0  0  0  0  0  0  0  0  0  0  0
   -2.6357    1.2527    0.0000 N   0  0  0  0  0  0  0  0  0  0  0  0
   -4.0876   -0.4257    0.0000 N   0  0  0  0  0  0  0  0  0  0  0  0
   -4.8021    0.8117    0.0000 N   0  0  0  0  0  0  0  0  0  0  0  0
   -5.5167   -0.4257    0.0000 N   0  0  0  0  0  0  0  0  0  0  0  0
    0.5468   -3.8297    0.0000 C   0  0  2  0  0  0  0  0  0  0  0  0
   -0.2053   -4.1682    0.0000 C   0  0  1  0  0  0  0  0  0  0  0  0
    0.4575   -3.0096    0.0000 C   0  0  1  0  0  0  0  0  0  0  0  0
   -0.7598   -3.5572    0.0000 C   0  0  1  0  0  0  0  0  0  0  0  0
   -1.5799   -3.6466    0.0000 C   0  0  0  0  0  0  0  0  0  0  0  0
    0.9791   -1.6350    0.0000 C   0  0  0  0  0  0  0  0  0  0  0  0
    1.8762   -2.6235    0.0000 C   0  0  0  0  0  0  0  0  0  0  0  0
    1.7314   -1.2965    0.0000 C   0  0  0  0  0  0  0  0  0  0  0  0
    0.2630   -1.2253    0.0000 C   0  0  0  0  0  0  0  0  0  0  0  0
    1.8999   -0.4889    0.0000 C   0  0  0  0  0  0  0  0  0  0  0  0
    0.2598   -0.4002    0.0000 C   0  0  0  0  0  0  0  0  0  0  0  0
   -0.4561    0.0093    0.0000 C   0  0  0  0  0  0  0  0  0  0  0  0
   -1.1754    1.2441    0.0000 C   0  0  0  0  0  0  0  0  0  0  0  0
    0.2535    1.2495    0.0000 C   0  0  0  0  0  0  0  0  0  0  0  0
   -1.8883    0.8288    0.0000 C   0  0  0  0  0  0  0  0  0  0  0  0
    0.9695    0.8399    0.0000 C   0  0  0  0  0  0  0  0  0  0  0  0
    0.2503    2.0745    0.0000 C   0  0  0  0  0  0  0  0  0  0  0  0
    1.6791    2.0801    0.0000 C   0  0  0  0  0  0  0  0  0  0  0  0
    3.1018    3.7355    0.0000 C   0  0  1  0  0  0  0  0  0  0  0  0
    1.6824    1.2550    0.0000 C   0  0  0  0  0  0  0  0  0  0  0  0
    0.9632    2.4898    0.0000 C   0  0  0  0  0  0  0  0  0  0  0  0
    3.8178    3.3258    0.0000 C   0  0  0  0  0  0  0  0  0  0  0  0
   -1.8883   -0.0304    0.0000 C   0  0  0  0  0  0  0  0  0  0  0  0
    2.3921    2.4953    0.0000 C   0  0  0  0  0  0  0  0  0  0  0  0
   -3.3732    0.8117    0.0000 C   0  0  0  0  0  0  0  0  0  0  0  0
    4.5307    3.7410    0.0000 C   0  0  0  0  0  0  0  0  0  0  0  0
   -3.3732   -0.0133    0.0000 C   0  0  0  0  0  0  0  0  0  0  0  0
   -2.6357   -0.4543    0.0000 C   0  0  0  0  0  0  0  0  0  0  0  0
    3.0986    4.5606    0.0000 C   0  0  0  0  0  0  0  0  0  0  0  0
   -4.0876    1.2241    0.0000 C   0  0  0  0  0  0  0  0  0  0  0  0
    5.2467    3.3313    0.0000 C   0  0  0  0  0  0  0  0  0  0  0  0
   -4.8021   -0.0133    0.0000 C   0  0  0  0  0  0  0  0  0  0  0  0
    2.7879    0.2696    0.0000 H   0  0  0  0  0  0  0  0  0  0  0  0
    3.0650   -0.5717    0.0000 H   0  0  0  0  0  0  0  0  0  0  0  0
    1.9449    3.5744    0.0000 H   0  0  0  0  0  0  0  0  0  0  0  0
   -4.0876   -0.9373    0.0000 H   0  0  0  0  0  0  0  0  0  0  0  0
   -5.9596   -0.1700    0.0000 H   0  0  0  0  0  0  0  0  0  0  0  0
   -5.5167   -0.9373    0.0000 H   0  0  0  0  0  0  0  0  0  0  0  0
    1.2668   -5.2095    0.0000 H   0  0  0  0  0  0  0  0  0  0  0  0
   -1.2952   -5.2790    0.0000 H   0  0  0  0  0  0  0  0  0  0  0  0
   -2.1944   -1.6771    0.0000 H   0  0  0  0  0  0  0  0  0  0  0  0
   -4.2808   -2.3772    0.0000 H   0  0  0  0  0  0  0  0  0  0  0  0
    4.6247    4.5104    0.0000 H   0  0  0  0  0  0  0  0  0  0  0  0
    6.7728    3.2811    0.0000 H   0  0  0  0  0  0  0  0  0  0  0  0
    0.4950   -4.8984    0.0000 H   0  0  0  0  0  0  0  0  0  0  0  0
    0.6289   -4.8383    0.0000 H   0  0  0  0  0  0  0  0  0  0  0  0
    0.1767   -1.9771    0.0000 H   0  0  0  0  0  0  0  0  0  0  0  0
   -1.3460   -2.6621    0.0000 H   0  0  0  0  0  0  0  0  0  0  0  0
   -2.0113   -4.6258    0.0000 H   0  0  0  0  0  0  0  0  0  0  0  0
   -0.9476   -4.5098    0.0000 H   0  0  0  0  0  0  0  0  0  0  0  0
    2.2997   -3.5646    0.0000 H   0  0  0  0  0  0  0  0  0  0  0  0
   -0.6287   -1.7448    0.0000 H   0  0  0  0  0  0  0  0  0  0  0  0
    1.1515    0.1193    0.0000 H   0  0  0  0  0  0  0  0  0  0  0  0
   -1.1796    2.3141    0.0000 H   0  0  0  0  0  0  0  0  0  0  0  0
   -2.1041    1.7755    0.0000 H   0  0  0  0  0  0  0  0  0  0  0  0
    0.9734   -0.1921    0.0000 H   0  0  0  0  0  0  0  0  0  0  0  0
   -0.6454    2.5870    0.0000 H   0  0  0  0  0  0  0  0  0  0  0  0
    3.1059    2.6655    0.0000 H   0  0  0  0  0  0  0  0  0  0  0  0
    2.5781    0.7424    0.0000 H   0  0  0  0  0  0  0  0  0  0  0  0
    0.9592    3.5218    0.0000 H   0  0  0  0  0  0  0  0  0  0  0  0
    3.8219    2.2558    0.0000 H   0  0  0  0  0  0  0  0  0  0  0  0
    4.7465    2.7943    0.0000 H   0  0  0  0  0  0  0  0  0  0  0  0
   -0.9965   -0.5498    0.0000 H   0  0  0  0  0  0  0  0  0  0  0  0
    4.5266    4.8110    0.0000 H   0  0  0  0  0  0  0  0  0  0  0  0
    5.4553    4.2796    0.0000 H   0  0  0  0  0  0  0  0  0  0  0  0
   -2.6476   -1.4862    0.0000 H   0  0  0  0  0  0  0  0  0  0  0  0
  1  5  1  0  0  0  0
  1  6  1  0  0  0  0
  1  7  1  0  0  0  0
  1  8  2  0  0  0  0
  2 28  1  0  0  0  0
  2 29  1  0  0  0  0
  3 64  1  0  0  0  0
  4 65  1  0  0  0  0
  5 30  1  0  0  0  0
  6 66  1  0  0  0  0
  7 67  1  0  0  0  0
  9 35  2  0  0  0  0
 10 37  2  0  0  0  0
 11 49  2  0  0  0  0
 12 54  1  0  0  0  0
 12 68  1  0  0  0  0
 13 54  2  0  0  0  0
 14 56  1  0  0  0  0
 14 69  1  0  0  0  0
 15 55  2  0  0  0  0
 16 56  2  0  0  0  0
 17 31  1  0  0  0  0
 17 32  1  0  0  0  0
 18 32  2  0  0  0  0
 18 33  1  0  0  0  0
 19 35  1  0  0  0  0
 19 58  1  0  0  0  0
 19 59  1  0  0  0  0
 20 37  1  0  0  0  0
 20 38  1  0  0  0  0
 20 39  1  0  0  0  0
 21 49  1  0  0  0  0
 21 60  1  0  0  0  0
 22 40  2  0  0  0  0
 22 50  1  0  0  0  0
 23 52  1  0  0  0  0
 23 57  1  0  0  0  0
 23 61  1  0  0  0  0
 24 55  1  0  0  0  0
 24 57  2  0  0  0  0
 25 57  1  0  0  0  0
 25 62  1  0  0  0  0
 25 63  1  0  0  0  0
 26  3  1  0  0  0  0
 26 27  1  0  0  0  0
 26 28  1  0  0  0  0
 26 70  1  1  0  0  0
 27  4  1  0  0  0  0
 27 29  1  0  0  0  0
 27 71  1  1  0  0  0
 28 17  1  0  0  0  0
 28 72  1  6  0  0  0
 29 30  1  0  0  0  0
 29 73  1  6  0  0  0
 30 74  1  0  0  0  0
 30 75  1  0  0  0  0
 31 33  2  0  0  0  0
 31 34  1  0  0  0  0
 32 76  1  0  0  0  0
 33 35  1  0  0  0  0
 34 36  2  0  0  0  0
 34 77  1  0  0  0  0
 36 37  1  0  0  0  0
 36 78  1  0  0  0  0
 38 40  1  0  0  0  0
 38 79  1  0  0  0  0
 38 80  1  0  0  0  0
 39 41  2  0  0  0  0
 39 42  1  0  0  0  0
 40 48  1  0  0  0  0
 41 45  1  0  0  0  0
 41 81  1  0  0  0  0
 42 46  2  0  0  0  0
 42 82  1  0  0  0  0
 43 45  2  0  0  0  0
 43 46  1  0  0  0  0
 43 49  1  0  0  0  0
 44 21  1  0  0  0  0
 44 47  1  0  0  0  0
 44 54  1  0  0  0  0
 44 83  1  1  0  0  0
 45 84  1  0  0  0  0
 46 85  1  0  0  0  0
 47 51  1  0  0  0  0
 47 86  1  0  0  0  0
 47 87  1  0  0  0  0
 48 53  2  0  0  0  0
 48 88  1  0  0  0  0
 50 52  2  0  0  0  0
 50 55  1  0  0  0  0
 51 56  1  0  0  0  0
 51 89  1  0  0  0  0
 51 90  1  0  0  0  0
 52 53  1  0  0  0  0
 53 91  1  0  0  0  0
M  END
>  <DRUGBANK_ID>
DB04057

>  <SECONDARY_ACCESSION_NUMBERS>
EXPT02233

>  <COMMON_NAME>
N-[4-([(2-Amino-4-oxo-1,4-dihydropyrido[3,2-d]pyrimidin-6-yl)methyl]{(2E)-3-[4-carbamoyl-1-(5-O-phosphono-beta-D-ribofuranosyl)-1H-imidazol-5-yl]-2-propenoyl}amino)benzoyl]-L-glutamic acid

>  <SYNONYMS>
beta-DADF, MSA, multisubstrate adduct inhibitor; Î²-DADF, MSA, multisubstrate adduct inhibitor

$$$$
