INW
 OpenBabel10282417072D

 34 35  0  0  0  0  0  0  0  0999 V2000
    0.6644   -0.6528    0.0000 C   0  0  0  0  0  0  0  0  0  0  0  0
    1.3789   -1.0653    0.0000 C   0  0  0  0  0  0  0  0  0  0  0  0
    1.3789   -1.8903    0.0000 C   0  0  0  0  0  0  0  0  0  0  0  0
    0.6644   -2.3028    0.0000 C   0  0  0  0  0  0  0  0  0  0  0  0
   -0.0500   -1.8903    0.0000 C   0  0  0  0  0  0  0  0  0  0  0  0
   -0.0500   -1.0653    0.0000 C   0  0  0  0  0  0  0  0  0  0  0  0
   -0.7645   -0.6528    0.0000 C   0  0  0  0  0  0  0  0  0  0  0  0
   -1.4790   -1.0653    0.0000 O   0  0  0  0  0  0  0  0  0  0  0  0
   -0.7645    0.1722    0.0000 N   0  0  0  0  0  0  0  0  0  0  0  0
   -1.4790    0.5847    0.0000 C   0  0  0  0  0  0  0  0  0  0  0  0
    2.0934   -2.3028    0.0000 S   0  0  0  0  0  0  0  0  0  0  0  0
    2.8078   -2.7153    0.0000 N   0  0  0  0  0  0  0  0  0  0  0  0
    2.5059   -1.5883    0.0000 O   0  0  0  0  0  0  0  0  0  0  0  0
    1.6809   -3.0172    0.0000 O   0  0  0  0  0  0  0  0  0  0  0  0
   -1.4790    1.4097    0.0000 C   0  0  0  0  0  0  0  0  0  0  0  0
   -2.1935    1.8222    0.0000 C   0  0  0  0  0  0  0  0  0  0  0  0
   -2.1935    2.6472    0.0000 C   0  0  0  0  0  0  0  0  0  0  0  0
   -1.4790    3.0597    0.0000 C   0  0  0  0  0  0  0  0  0  0  0  0
   -0.7645    2.6472    0.0000 C   0  0  0  0  0  0  0  0  0  0  0  0
   -0.7645    1.8222    0.0000 C   0  0  0  0  0  0  0  0  0  0  0  0
   -1.4790    3.8847    0.0000 F   0  0  0  0  0  0  0  0  0  0  0  0
   -2.9079    1.4097    0.0000 F   0  0  0  0  0  0  0  0  0  0  0  0
    0.6644    0.3792    0.0000 H   0  0  0  0  0  0  0  0  0  0  0  0
    2.2726   -0.5493    0.0000 H   0  0  0  0  0  0  0  0  0  0  0  0
    0.6644   -3.3348    0.0000 H   0  0  0  0  0  0  0  0  0  0  0  0
   -0.9437   -2.4063    0.0000 H   0  0  0  0  0  0  0  0  0  0  0  0
    0.0881    0.6645    0.0000 H   0  0  0  0  0  0  0  0  0  0  0  0
   -2.4056    0.0497    0.0000 H   0  0  0  0  0  0  0  0  0  0  0  0
   -2.4056    1.1197    0.0000 H   0  0  0  0  0  0  0  0  0  0  0  0
    2.8078   -3.7353    0.0000 H   0  0  0  0  0  0  0  0  0  0  0  0
    3.6912   -2.2053    0.0000 H   0  0  0  0  0  0  0  0  0  0  0  0
   -3.0872    3.1632    0.0000 H   0  0  0  0  0  0  0  0  0  0  0  0
    0.1292    3.1632    0.0000 H   0  0  0  0  0  0  0  0  0  0  0  0
    0.1292    1.3062    0.0000 H   0  0  0  0  0  0  0  0  0  0  0  0
  1  2  2  0  0  0  0
  1  6  1  0  0  0  0
  1 23  1  0  0  0  0
  2  3  1  0  0  0  0
  2 24  1  0  0  0  0
  3  4  2  0  0  0  0
  3 11  1  0  0  0  0
  4  5  1  0  0  0  0
  4 25  1  0  0  0  0
  5  6  2  0  0  0  0
  5 26  1  0  0  0  0
  6  7  1  0  0  0  0
  7  8  2  0  0  0  0
  7  9  1  0  0  0  0
  9 10  1  0  0  0  0
  9 27  1  0  0  0  0
 10 15  1  0  0  0  0
 10 28  1  0  0  0  0
 10 29  1  0  0  0  0
 11 12  1  0  0  0  0
 11 13  2  0  0  0  0
 11 14  2  0  0  0  0
 12 30  1  0  0  0  0
 12 31  1  0  0  0  0
 15 16  2  0  0  0  0
 15 20  1  0  0  0  0
 16 17  1  0  0  0  0
 16 22  1  0  0  0  0
 17 18  2  0  0  0  0
 17 32  1  0  0  0  0
 18 19  1  0  0  0  0
 18 21  1  0  0  0  0
 19 20  2  0  0  0  0
 19 33  1  0  0  0  0
 20 34  1  0  0  0  0
M  END
>  <DRUGBANK_ID>
DB04180

>  <SECONDARY_ACCESSION_NUMBERS>
EXPT01896

>  <COMMON_NAME>
4-(Aminosulfonyl)-N-[(2,4-Difluorophenyl)Methyl]-Benzamide

$$$$
