5147
 OpenBabel10282417072D

 17 17  0  0  0  0  0  0  0  0999 V2000
    2.0930   -0.0495    0.0000 O   0  0  0  0  0  0  0  0  0  0  0  0
    2.8075    1.1880    0.0000 O   0  0  0  0  0  0  0  0  0  0  0  0
    4.2365    1.1880    0.0000 N   0  0  0  0  0  0  0  0  0  0  0  0
    3.5220   -0.0495    0.0000 C   0  0  0  0  0  0  0  0  0  0  0  0
    2.8075   -0.4620    0.0000 C   0  0  0  0  0  0  0  0  0  0  0  0
    4.2365   -0.4620    0.0000 C   0  0  0  0  0  0  0  0  0  0  0  0
    2.8075   -1.2870    0.0000 C   0  0  0  0  0  0  0  0  0  0  0  0
    4.2365   -1.2870    0.0000 C   0  0  0  0  0  0  0  0  0  0  0  0
    3.5220   -1.6995    0.0000 C   0  0  0  0  0  0  0  0  0  0  0  0
    3.5220    0.7755    0.0000 C   0  0  0  0  0  0  0  0  0  0  0  0
    2.0930    0.8875    0.0000 H   0  0  0  0  0  0  0  0  0  0  0  0
    5.0891    0.6957    0.0000 H   0  0  0  0  0  0  0  0  0  0  0  0
    4.2365    2.1725    0.0000 H   0  0  0  0  0  0  0  0  0  0  0  0
    5.1302    0.0540    0.0000 H   0  0  0  0  0  0  0  0  0  0  0  0
    1.9138   -1.8030    0.0000 H   0  0  0  0  0  0  0  0  0  0  0  0
    5.1302   -1.8030    0.0000 H   0  0  0  0  0  0  0  0  0  0  0  0
    3.5220   -2.7315    0.0000 H   0  0  0  0  0  0  0  0  0  0  0  0
  1  5  1  0  0  0  0
  1 11  1  0  0  0  0
  2 10  2  0  0  0  0
  3 10  1  0  0  0  0
  3 12  1  0  0  0  0
  3 13  1  0  0  0  0
  4  5  1  0  0  0  0
  4  6  2  0  0  0  0
  4 10  1  0  0  0  0
  5  7  2  0  0  0  0
  6  8  1  0  0  0  0
  6 14  1  0  0  0  0
  7  9  1  0  0  0  0
  7 15  1  0  0  0  0
  8  9  2  0  0  0  0
  8 16  1  0  0  0  0
  9 17  1  0  0  0  0
M  END
>  <DRUGBANK_ID>
DB08797

>  <COMMON_NAME>
Salicylamide

>  <CAS_NUMBER>
65-45-2

>  <UNII>
EM8BM710ZC

>  <SYNONYMS>
2-Carbamoylphenol; 2-Carboxamidophenol; 2-Hydroxybenzamide; o-hydroxybenzamide; OHB; Salicilamida; Salicylamide; Salicylamidum; Salicylic Acid amide

$$$$
