
 OpenBabel10282417072D

 44 47  0  0  0  0  0  0  0  0999 V2000
   -0.5197   -0.1999    0.0000 C   0  0  0  0  0  0  0  0  0  0  0  0
   -1.2395   -0.6031    0.0000 C   0  0  0  0  0  0  0  0  0  0  0  0
    0.8897    0.6264    0.0000 C   0  0  2  0  0  0  0  0  0  0  0  0
   -1.2395   -1.4194    0.0000 C   0  0  0  0  0  0  0  0  0  0  0  0
    0.1599   -0.5298    0.0000 C   0  0  2  0  0  0  0  0  0  0  0  0
    0.8897   -0.1899    0.0000 C   0  0  2  0  0  0  0  0  0  0  0  0
   -0.5031    0.6164    0.0000 C   0  0  0  0  0  0  0  0  0  0  0  0
    0.1866    1.0296    0.0000 C   0  0  0  0  0  0  0  0  0  0  0  0
    1.8193    0.9463    0.0000 C   0  0  2  0  0  0  0  0  0  0  0  0
   -1.9592   -1.8493    0.0000 C   0  0  0  0  0  0  0  0  0  0  0  0
    2.5991    1.3961    0.0000 C   0  0  0  0  0  0  0  0  0  0  0  0
   -1.9692   -0.2132    0.0000 C   0  0  0  0  0  0  0  0  0  0  0  0
    0.1599   -1.4028    0.0000 C   0  0  0  0  0  0  0  0  0  0  0  0
    1.9193   -0.4332    0.0000 C   0  0  0  0  0  0  0  0  0  0  0  0
    3.4188    1.8693    0.0000 C   0  0  0  0  0  0  0  0  0  0  0  0
   -0.5197   -1.8327    0.0000 C   0  0  0  0  0  0  0  0  0  0  0  0
   -2.6790   -1.4428    0.0000 C   0  0  0  0  0  0  0  0  0  0  0  0
    2.3292    0.3099    0.0000 C   0  0  0  0  0  0  0  0  0  0  0  0
   -3.4187   -1.8693    0.0000 O   0  0  0  0  0  0  0  0  0  0  0  0
   -2.6624   -0.6031    0.0000 C   0  0  0  0  0  0  0  0  0  0  0  0
    1.6261    1.8693    0.0000 O   0  0  0  0  0  0  0  0  0  0  0  0
    0.8897    1.4295    0.0000 C   0  0  0  0  0  0  0  0  0  0  0  0
    1.4395   -1.0030    0.0000 H   0  0  0  0  0  0  0  0  0  0  0  0
    0.1866    0.2465    0.0000 H   0  0  0  0  0  0  0  0  0  0  0  0
   -1.3958    1.1343    0.0000 H   0  0  0  0  0  0  0  0  0  0  0  0
    0.1768    2.0616    0.0000 H   0  0  0  0  0  0  0  0  0  0  0  0
   -1.9466   -2.8812    0.0000 H   0  0  0  0  0  0  0  0  0  0  0  0
   -1.9808    0.8567    0.0000 H   0  0  0  0  0  0  0  0  0  0  0  0
   -2.8957    0.3220    0.0000 H   0  0  0  0  0  0  0  0  0  0  0  0
    1.0972   -1.9190    0.0000 H   0  0  0  0  0  0  0  0  0  0  0  0
    0.1923   -2.4723    0.0000 H   0  0  0  0  0  0  0  0  0  0  0  0
    2.3530   -1.4114    0.0000 H   0  0  0  0  0  0  0  0  0  0  0  0
    2.9883   -0.4796    0.0000 H   0  0  0  0  0  0  0  0  0  0  0  0
    4.2797    2.3663    0.0000 H   0  0  0  0  0  0  0  0  0  0  0  0
   -0.4968   -2.9025    0.0000 H   0  0  0  0  0  0  0  0  0  0  0  0
   -1.4399   -2.3787    0.0000 H   0  0  0  0  0  0  0  0  0  0  0  0
    3.3953    0.4015    0.0000 H   0  0  0  0  0  0  0  0  0  0  0  0
    2.7506    1.2934    0.0000 H   0  0  0  0  0  0  0  0  0  0  0  0
   -3.5806   -0.0538    0.0000 H   0  0  0  0  0  0  0  0  0  0  0  0
   -2.6481    0.4668    0.0000 H   0  0  0  0  0  0  0  0  0  0  0  0
    2.3490    2.5161    0.0000 H   0  0  0  0  0  0  0  0  0  0  0  0
    1.8163    1.9645    0.0000 H   0  0  0  0  0  0  0  0  0  0  0  0
   -0.0369    1.9645    0.0000 H   0  0  0  0  0  0  0  0  0  0  0  0
    0.8897    2.4995    0.0000 H   0  0  0  0  0  0  0  0  0  0  0  0
  2  1  2  0  0  0  0
  3  8  1  0  0  0  0
  3 22  1  1  0  0  0
  4  2  1  0  0  0  0
  4 16  1  0  0  0  0
  5  1  1  0  0  0  0
  5 24  1  1  0  0  0
  6  5  1  0  0  0  0
  6 23  1  6  0  0  0
  6  3  1  0  0  0  0
  7  1  1  0  0  0  0
  7 25  1  0  0  0  0
  8  7  2  0  0  0  0
  8 26  1  0  0  0  0
  9  3  1  0  0  0  0
  9 11  1  6  0  0  0
  9 21  1  0  0  0  0
  9 18  1  0  0  0  0
 10  4  2  0  0  0  0
 10 17  1  0  0  0  0
 10 27  1  0  0  0  0
 12  2  1  0  0  0  0
 12 28  1  0  0  0  0
 12 29  1  0  0  0  0
 13  5  1  0  0  0  0
 13 30  1  0  0  0  0
 13 31  1  0  0  0  0
 14  6  1  0  0  0  0
 14 32  1  0  0  0  0
 14 33  1  0  0  0  0
 15 11  3  0  0  0  0
 15 34  1  0  0  0  0
 16 13  1  0  0  0  0
 16 35  1  0  0  0  0
 16 36  1  0  0  0  0
 17 20  1  0  0  0  0
 18 14  1  0  0  0  0
 18 37  1  0  0  0  0
 18 38  1  0  0  0  0
 19 17  2  0  0  0  0
 20 12  1  0  0  0  0
 20 39  1  0  0  0  0
 20 40  1  0  0  0  0
 21 41  1  0  0  0  0
 22 42  1  0  0  0  0
 22 43  1  0  0  0  0
 22 44  1  0  0  0  0
M  END
>  <DRUGBANK_ID>
DB13563

>  <COMMON_NAME>
Norgestrienone

>  <CAS_NUMBER>
848-21-5

>  <UNII>
89386PYU9O

>  <SYNONYMS>
Norgestrienone

$$$$
