
 OpenBabel10282417072D

 65 69  0  0  1  0  0  0  0  0999 V2000
    9.7825    1.5229    0.0000 C   0  0  0  0  0  0  0  0  0  0  0  0
    9.0681    1.9354    0.0000 O   0  0  0  0  0  0  0  0  0  0  0  0
    8.3536    1.5229    0.0000 C   0  0  0  0  0  0  0  0  0  0  0  0
    8.3536    0.6979    0.0000 O   0  0  0  0  0  0  0  0  0  0  0  0
    7.6391    1.9354    0.0000 N   0  0  0  0  0  0  0  0  0  0  0  0
    6.9246    1.5229    0.0000 C   0  0  0  0  0  0  0  0  0  0  0  0
    6.2102    1.9354    0.0000 C   0  0  0  0  0  0  0  0  0  0  0  0
    6.2102    2.7604    0.0000 C   0  0  0  0  0  0  0  0  0  0  0  0
    6.9246    3.1729    0.0000 C   0  0  0  0  0  0  0  0  0  0  0  0
    7.6391    2.7604    0.0000 C   0  0  0  0  0  0  0  0  0  0  0  0
    5.4957    3.1729    0.0000 C   0  0  0  0  0  0  0  0  0  0  0  0
    4.7812    2.7604    0.0000 C   0  0  0  0  0  0  0  0  0  0  0  0
    4.0668    2.3479    0.0000 C   0  0  0  0  0  0  0  0  0  0  0  0
    3.3523    1.9354    0.0000 C   0  0  0  0  0  0  0  0  0  0  0  0
    3.3523    1.1104    0.0000 N   0  0  0  0  0  0  0  0  0  0  0  0
    2.6378    0.6979    0.0000 C   0  0  0  0  0  0  0  0  0  0  0  0
    1.9233    1.1104    0.0000 C   0  0  0  0  0  0  0  0  0  0  0  0
    1.9233    1.9354    0.0000 C   0  0  0  0  0  0  0  0  0  0  0  0
    2.6378    2.3479    0.0000 N   0  0  0  0  0  0  0  0  0  0  0  0
    1.1387    2.1904    0.0000 N   0  0  0  0  0  0  0  0  0  0  0  0
    0.6538    1.5229    0.0000 C   0  0  0  0  0  0  0  0  0  0  0  0
    1.1387    0.8555    0.0000 N   0  0  0  0  0  0  0  0  0  0  0  0
    0.8838    2.9750    0.0000 C   0  0  1  0  0  0  0  0  0  0  0  0
    0.0992    3.2299    0.0000 C   0  0  1  0  0  0  0  0  0  0  0  0
    0.0992    4.0549    0.0000 C   0  0  1  0  0  0  0  0  0  0  0  0
    0.8838    4.3099    0.0000 C   0  0  2  0  0  0  0  0  0  0  0  0
    1.3687    3.6424    0.0000 O   0  0  0  0  0  0  0  0  0  0  0  0
    1.1387    5.0945    0.0000 C   0  0  0  0  0  0  0  0  0  0  0  0
    1.9457    5.2660    0.0000 O   0  0  0  0  0  0  0  0  0  0  0  0
    0.5867    5.7076    0.0000 N   0  0  0  0  0  0  0  0  0  0  0  0
   -0.2203    5.5361    0.0000 C   0  0  0  0  0  0  0  0  0  0  0  0
   -0.8334    4.9840    0.0000 C   0  0  0  0  0  0  0  0  0  0  0  0
   -1.0049    5.7910    0.0000 C   0  0  0  0  0  0  0  0  0  0  0  0
   -0.5683    4.5399    0.0000 O   0  0  0  0  0  0  0  0  0  0  0  0
   -0.5683    2.7450    0.0000 O   0  0  0  0  0  0  0  0  0  0  0  0
    2.6378   -0.1271    0.0000 N   0  0  0  0  0  0  0  0  0  0  0  0
    9.7825    0.4529    0.0000 H   0  0  0  0  0  0  0  0  0  0  0  0
   10.7092    2.0579    0.0000 H   0  0  0  0  0  0  0  0  0  0  0  0
   10.7091    0.9879    0.0000 H   0  0  0  0  0  0  0  0  0  0  0  0
    6.9246    0.4529    0.0000 H   0  0  0  0  0  0  0  0  0  0  0  0
    5.9979    0.9879    0.0000 H   0  0  0  0  0  0  0  0  0  0  0  0
    5.2835    1.4004    0.0000 H   0  0  0  0  0  0  0  0  0  0  0  0
    5.2836    2.4704    0.0000 H   0  0  0  0  0  0  0  0  0  0  0  0
    6.2102    3.8304    0.0000 H   0  0  0  0  0  0  0  0  0  0  0  0
    6.9246    4.2429    0.0000 H   0  0  0  0  0  0  0  0  0  0  0  0
    7.8512    3.7079    0.0000 H   0  0  0  0  0  0  0  0  0  0  0  0
    8.5657    3.2954    0.0000 H   0  0  0  0  0  0  0  0  0  0  0  0
    8.5657    2.2254    0.0000 H   0  0  0  0  0  0  0  0  0  0  0  0
    5.4957    4.2429    0.0000 H   0  0  0  0  0  0  0  0  0  0  0  0
    4.5691    3.7079    0.0000 H   0  0  0  0  0  0  0  0  0  0  0  0
   -0.3782    1.5229    0.0000 H   0  0  0  0  0  0  0  0  0  0  0  0
    0.1272    2.2184    0.0000 H   0  0  0  0  0  0  0  0  0  0  0  0
    0.2666    2.1731    0.0000 H   0  0  0  0  0  0  0  0  0  0  0  0
   -0.8542    3.5691    0.0000 H   0  0  0  0  0  0  0  0  0  0  0  0
    0.1272    5.0665    0.0000 H   0  0  0  0  0  0  0  0  0  0  0  0
    0.8910    6.6439    0.0000 H   0  0  0  0  0  0  0  0  0  0  0  0
   -1.2669    5.3136    0.0000 H   0  0  0  0  0  0  0  0  0  0  0  0
   -1.1640    3.9664    0.0000 H   0  0  0  0  0  0  0  0  0  0  0  0
   -1.9019    5.0400    0.0000 H   0  0  0  0  0  0  0  0  0  0  0  0
   -1.7209    6.5862    0.0000 H   0  0  0  0  0  0  0  0  0  0  0  0
   -0.4222    6.6884    0.0000 H   0  0  0  0  0  0  0  0  0  0  0  0
   -0.4669    5.5046    0.0000 H   0  0  0  0  0  0  0  0  0  0  0  0
   -1.4544    3.1396    0.0000 H   0  0  0  0  0  0  0  0  0  0  0  0
    1.7852   -0.6194    0.0000 H   0  0  0  0  0  0  0  0  0  0  0  0
    3.4904   -0.6193    0.0000 H   0  0  0  0  0  0  0  0  0  0  0  0
  1  2  1  0  0  0  0
  1 37  1  0  0  0  0
  1 38  1  0  0  0  0
  1 39  1  0  0  0  0
  2  3  1  0  0  0  0
  3  4  2  0  0  0  0
  3  5  1  0  0  0  0
  5  6  1  0  0  0  0
  5 10  1  0  0  0  0
  6  7  1  0  0  0  0
  6 40  1  0  0  0  0
  6 41  1  0  0  0  0
  7  8  1  0  0  0  0
  7 42  1  0  0  0  0
  7 43  1  0  0  0  0
  8  9  1  0  0  0  0
  8 11  1  0  0  0  0
  8 44  1  0  0  0  0
  9 10  1  0  0  0  0
  9 45  1  0  0  0  0
  9 46  1  0  0  0  0
 10 47  1  0  0  0  0
 10 48  1  0  0  0  0
 11 12  1  0  0  0  0
 11 49  1  0  0  0  0
 11 50  1  0  0  0  0
 12 13  3  0  0  0  0
 13 14  1  0  0  0  0
 14 15  2  0  0  0  0
 14 19  1  0  0  0  0
 15 16  1  0  0  0  0
 16 17  2  0  0  0  0
 16 36  1  0  0  0  0
 17 18  1  0  0  0  0
 17 22  1  0  0  0  0
 18 19  2  0  0  0  0
 18 20  1  0  0  0  0
 20 21  1  0  0  0  0
 21 22  2  0  0  0  0
 21 51  1  0  0  0  0
 23 20  1  0  0  0  0
 23 24  1  0  0  0  0
 23 27  1  0  0  0  0
 23 52  1  6  0  0  0
 24 25  1  0  0  0  0
 24 35  1  0  0  0  0
 24 53  1  1  0  0  0
 25 26  1  0  0  0  0
 25 34  1  0  0  0  0
 25 54  1  1  0  0  0
 26 27  1  0  0  0  0
 26 28  1  0  0  0  0
 26 55  1  6  0  0  0
 28 29  2  0  0  0  0
 28 30  1  0  0  0  0
 30 31  1  0  0  0  0
 30 56  1  0  0  0  0
 31 32  1  0  0  0  0
 31 33  1  0  0  0  0
 31 57  1  0  0  0  0
 32 33  1  0  0  0  0
 32 58  1  0  0  0  0
 32 59  1  0  0  0  0
 33 60  1  0  0  0  0
 33 61  1  0  0  0  0
 34 62  1  0  0  0  0
 35 63  1  0  0  0  0
 36 64  1  0  0  0  0
 36 65  1  0  0  0  0
M  END
>  <DRUGBANK_ID>
DB12295

>  <COMMON_NAME>
Evodenoson

>  <CAS_NUMBER>
844873-47-8

>  <UNII>
HZ03U10J2Z

>  <SYNONYMS>
Evodenoson

$$$$
