
 OpenBabel10282417072D

 62 62  0  0  0  0  0  0  0  0999 V2000
    0.0000   -2.4750    0.0000 C   0  0  0  0  0  0  0  0  0  0  0  0
    0.7145   -2.8875    0.0000 C   0  0  0  0  0  0  0  0  0  0  0  0
    1.4289   -2.4750    0.0000 C   0  0  0  0  0  0  0  0  0  0  0  0
    2.1434   -2.8875    0.0000 C   0  0  0  0  0  0  0  0  0  0  0  0
    2.8579   -2.4750    0.0000 C   0  0  0  0  0  0  0  0  0  0  0  0
    3.5724   -2.8875    0.0000 C   0  0  0  0  0  0  0  0  0  0  0  0
    4.2868   -2.4750    0.0000 C   0  0  0  0  0  0  0  0  0  0  0  0
    4.2868   -1.6500    0.0000 N   0  0  0  0  0  0  0  0  0  0  0  0
    3.5724   -1.2375    0.0000 C   0  0  0  0  0  0  0  0  0  0  0  0
    3.5724   -0.4125    0.0000 C   0  0  0  0  0  0  0  0  0  0  0  0
    5.0013   -2.8875    0.0000 C   0  0  0  0  0  0  0  0  0  0  0  0
    5.7158   -2.4750    0.0000 O   0  0  0  0  0  0  0  0  0  0  0  0
    5.0013   -3.7125    0.0000 C   0  0  0  0  0  0  0  0  0  0  0  0
    5.7158   -4.1250    0.0000 C   0  0  0  0  0  0  0  0  0  0  0  0
    6.4302   -3.7125    0.0000 C   0  0  0  0  0  0  0  0  0  0  0  0
    7.1447   -4.1250    0.0000 C   0  0  0  0  0  0  0  0  0  0  0  0
    7.1447   -4.9500    0.0000 C   0  0  0  0  0  0  0  0  0  0  0  0
    7.8592   -3.7125    0.0000 C   0  0  0  0  0  0  0  0  0  0  0  0
    8.5737   -4.1250    0.0000 C   0  0  0  0  0  0  0  0  0  0  0  0
    9.2881   -3.7125    0.0000 C   0  0  0  0  0  0  0  0  0  0  0  0
   10.0026   -4.1250    0.0000 C   0  0  0  0  0  0  0  0  0  0  0  0
   10.7171   -3.7125    0.0000 C   0  0  0  0  0  0  0  0  0  0  0  0
   10.0026   -4.9500    0.0000 C   0  0  0  0  0  0  0  0  0  0  0  0
    4.2868   -4.1250    0.0000 C   0  0  0  0  0  0  0  0  0  0  0  0
    4.2868   -4.9500    0.0000 O   0  0  0  0  0  0  0  0  0  0  0  0
    3.5724   -3.7125    0.0000 C   0  0  0  0  0  0  0  0  0  0  0  0
    2.8579   -4.1250    0.0000 O   0  0  0  0  0  0  0  0  0  0  0  0
   -0.0000   -1.4050    0.0000 H   0  0  0  0  0  0  0  0  0  0  0  0
   -0.9266   -3.0100    0.0000 H   0  0  0  0  0  0  0  0  0  0  0  0
   -0.9267   -1.9400    0.0000 H   0  0  0  0  0  0  0  0  0  0  0  0
    0.7145   -3.9575    0.0000 H   0  0  0  0  0  0  0  0  0  0  0  0
    1.6412   -3.4225    0.0000 H   0  0  0  0  0  0  0  0  0  0  0  0
    1.4289   -1.4050    0.0000 H   0  0  0  0  0  0  0  0  0  0  0  0
    2.3555   -1.9400    0.0000 H   0  0  0  0  0  0  0  0  0  0  0  0
    2.1434   -3.9575    0.0000 H   0  0  0  0  0  0  0  0  0  0  0  0
    3.0700   -3.4225    0.0000 H   0  0  0  0  0  0  0  0  0  0  0  0
    2.8579   -1.4050    0.0000 H   0  0  0  0  0  0  0  0  0  0  0  0
    3.7845   -1.9400    0.0000 H   0  0  0  0  0  0  0  0  0  0  0  0
    5.1394   -1.1578    0.0000 H   0  0  0  0  0  0  0  0  0  0  0  0
    2.6457   -1.7725    0.0000 H   0  0  0  0  0  0  0  0  0  0  0  0
    2.6458   -0.7025    0.0000 H   0  0  0  0  0  0  0  0  0  0  0  0
    4.4990    0.1225    0.0000 H   0  0  0  0  0  0  0  0  0  0  0  0
    2.6458    0.1225    0.0000 H   0  0  0  0  0  0  0  0  0  0  0  0
    3.5724    0.6575    0.0000 H   0  0  0  0  0  0  0  0  0  0  0  0
    5.7158   -5.1950    0.0000 H   0  0  0  0  0  0  0  0  0  0  0  0
    6.6425   -4.6600    0.0000 H   0  0  0  0  0  0  0  0  0  0  0  0
    6.4302   -2.6805    0.0000 H   0  0  0  0  0  0  0  0  0  0  0  0
    6.2181   -5.4850    0.0000 H   0  0  0  0  0  0  0  0  0  0  0  0
    8.0713   -5.4850    0.0000 H   0  0  0  0  0  0  0  0  0  0  0  0
    7.1447   -6.0200    0.0000 H   0  0  0  0  0  0  0  0  0  0  0  0
    7.8592   -2.6425    0.0000 H   0  0  0  0  0  0  0  0  0  0  0  0
    8.7858   -3.1775    0.0000 H   0  0  0  0  0  0  0  0  0  0  0  0
    8.5737   -5.1950    0.0000 H   0  0  0  0  0  0  0  0  0  0  0  0
    9.5004   -4.6600    0.0000 H   0  0  0  0  0  0  0  0  0  0  0  0
    9.2881   -2.6805    0.0000 H   0  0  0  0  0  0  0  0  0  0  0  0
   11.6437   -4.2475    0.0000 H   0  0  0  0  0  0  0  0  0  0  0  0
   10.7171   -2.6425    0.0000 H   0  0  0  0  0  0  0  0  0  0  0  0
   11.6438   -3.1775    0.0000 H   0  0  0  0  0  0  0  0  0  0  0  0
    9.0760   -5.4850    0.0000 H   0  0  0  0  0  0  0  0  0  0  0  0
   10.9292   -5.4850    0.0000 H   0  0  0  0  0  0  0  0  0  0  0  0
   10.0026   -6.0200    0.0000 H   0  0  0  0  0  0  0  0  0  0  0  0
    3.4753   -5.4185    0.0000 H   0  0  0  0  0  0  0  0  0  0  0  0
  1  2  1  0  0  0  0
  1 28  1  0  0  0  0
  1 29  1  0  0  0  0
  1 30  1  0  0  0  0
  2  3  1  0  0  0  0
  2 31  1  0  0  0  0
  2 32  1  0  0  0  0
  3  4  1  0  0  0  0
  3 33  1  0  0  0  0
  3 34  1  0  0  0  0
  4  5  1  0  0  0  0
  4 35  1  0  0  0  0
  4 36  1  0  0  0  0
  5  6  1  0  0  0  0
  5 37  1  0  0  0  0
  5 38  1  0  0  0  0
  6  7  2  0  0  0  0
  6 26  1  0  0  0  0
  7  8  1  0  0  0  0
  7 11  1  0  0  0  0
  8  9  1  0  0  0  0
  8 39  1  0  0  0  0
  9 10  1  0  0  0  0
  9 40  1  0  0  0  0
  9 41  1  0  0  0  0
 10 42  1  0  0  0  0
 10 43  1  0  0  0  0
 10 44  1  0  0  0  0
 11 12  2  0  0  0  0
 11 13  1  0  0  0  0
 13 14  1  0  0  0  0
 13 24  2  0  0  0  0
 14 15  1  0  0  0  0
 14 45  1  0  0  0  0
 14 46  1  0  0  0  0
 15 16  2  0  0  0  0
 15 47  1  0  0  0  0
 16 17  1  0  0  0  0
 16 18  1  0  0  0  0
 17 48  1  0  0  0  0
 17 49  1  0  0  0  0
 17 50  1  0  0  0  0
 18 19  1  0  0  0  0
 18 51  1  0  0  0  0
 18 52  1  0  0  0  0
 19 20  1  0  0  0  0
 19 53  1  0  0  0  0
 19 54  1  0  0  0  0
 20 21  2  0  0  0  0
 20 55  1  0  0  0  0
 21 22  1  0  0  0  0
 21 23  1  0  0  0  0
 22 56  1  0  0  0  0
 22 57  1  0  0  0  0
 22 58  1  0  0  0  0
 23 59  1  0  0  0  0
 23 60  1  0  0  0  0
 23 61  1  0  0  0  0
 24 25  1  0  0  0  0
 24 26  1  0  0  0  0
 25 62  1  0  0  0  0
 26 27  2  0  0  0  0
M  END
>  <DRUGBANK_ID>
DB16933

>  <COMMON_NAME>
EHP-102

>  <CAS_NUMBER>
1807652-43-2

>  <UNII>
FDH1SMY691

>  <SYNONYMS>
2-((2e)-3,7-dimethyl-2,6-octadien-1-yl)-6-(ethylamino)-3-hydroxy-5-pentyl-2,5-cyclohexadiene-1,4-dione; 2-(3,7-Dimethyl-Octa-2, 6-Dienyl)-6-Ethylamino-3-Hydroxy-5-Pentyl-[1,4]Benzoquinone; 2-(3,7-Dimethyl-octa-2, 6-dienyl)Â¿6-ethylamino-3-hydroxy-5-pentyl-[1,4]benzoquinone; 2,5-cyclohexadiene-1,4-dione, 2-((2e)-3,7-dimethyl-2,6-octadien-1-yl)-6-(ethylamino)-3-hydroxy-5-pentyl-; EHP102

$$$$
