
 OpenBabel10282417072D

 39 40  0  0  1  0  0  0  0  0999 V2000
    0.4095   -0.3577    0.0000 C   0  0  0  0  0  0  0  0  0  0  0  0
    0.8249    0.3577    0.0000 C   0  0  0  0  0  0  0  0  0  0  0  0
    0.4095    1.0730    0.0000 C   0  0  2  0  0  0  0  0  0  0  0  0
    0.8249    1.7826    0.0000 C   0  0  1  0  0  0  0  0  0  0  0  0
    1.6499    1.7826    0.0000 C   0  0  2  0  0  0  0  0  0  0  0  0
    2.0595    1.0730    0.0000 C   0  0  1  0  0  0  0  0  0  0  0  0
    2.8845    1.0730    0.0000 O   0  0  0  0  0  0  0  0  0  0  0  0
    1.6499    0.3577    0.0000 O   0  0  0  0  0  0  0  0  0  0  0  0
    2.0595    2.4980    0.0000 O   0  0  0  0  0  0  0  0  0  0  0  0
    0.4095    2.4980    0.0000 O   0  0  0  0  0  0  0  0  0  0  0  0
   -0.4096    1.0730    0.0000 N   0  0  0  0  0  0  0  0  0  0  0  0
   -0.8249    0.3577    0.0000 C   0  0  1  0  0  0  0  0  0  0  0  0
   -0.4096   -0.3577    0.0000 C   0  0  0  0  0  0  0  0  0  0  0  0
   -0.8249   -1.0730    0.0000 C   0  0  0  0  0  0  0  0  0  0  0  0
   -0.4096   -1.7826    0.0000 C   0  0  0  0  0  0  0  0  0  0  0  0
   -0.8249   -2.4980    0.0000 O   0  0  0  0  0  0  0  0  0  0  0  0
   -1.6499   -1.0730    0.0000 C   0  0  0  0  0  0  0  0  0  0  0  0
   -2.0595   -0.3577    0.0000 C   0  0  1  0  0  0  0  0  0  0  0  0
   -1.6499    0.3577    0.0000 C   0  0  1  0  0  0  0  0  0  0  0  0
   -2.0595    1.0730    0.0000 O   0  0  0  0  0  0  0  0  0  0  0  0
   -2.8845   -0.3577    0.0000 O   0  0  0  0  0  0  0  0  0  0  0  0
   -2.0595   -1.7826    0.0000 O   0  0  0  0  0  0  0  0  0  0  0  0
   -0.6225   -0.3551    0.0000 H   0  0  0  0  0  0  0  0  0  0  0  0
    0.9233   -1.2527    0.0000 H   0  0  0  0  0  0  0  0  0  0  0  0
   -0.1243    0.1457    0.0000 H   0  0  0  0  0  0  0  0  0  0  0  0
   -0.2451    1.7845    0.0000 H   0  0  0  0  0  0  0  0  0  0  0  0
    1.1132    2.7083    0.0000 H   0  0  0  0  0  0  0  0  0  0  0  0
    2.5945    1.9996    0.0000 H   0  0  0  0  0  0  0  0  0  0  0  0
    3.3695    0.2330    0.0000 H   0  0  0  0  0  0  0  0  0  0  0  0
    3.0295    2.5015    0.0000 H   0  0  0  0  0  0  0  0  0  0  0  0
    0.8924    3.3392    0.0000 H   0  0  0  0  0  0  0  0  0  0  0  0
   -0.9185    1.9570    0.0000 H   0  0  0  0  0  0  0  0  0  0  0  0
    0.2451    0.3577    0.0000 H   0  0  0  0  0  0  0  0  0  0  0  0
    0.6224   -0.3577    0.0000 H   0  0  0  0  0  0  0  0  0  0  0  0
    0.6224   -1.7808    0.0000 H   0  0  0  0  0  0  0  0  0  0  0  0
   -2.5961   -1.2834    0.0000 H   0  0  0  0  0  0  0  0  0  0  0  0
   -1.1133    1.2834    0.0000 H   0  0  0  0  0  0  0  0  0  0  0  0
   -1.5715    1.9113    0.0000 H   0  0  0  0  0  0  0  0  0  0  0  0
   -3.3695    0.4823    0.0000 H   0  0  0  0  0  0  0  0  0  0  0  0
  1  2  2  0  0  0  0
  1 23  1  0  0  0  0
  1 24  1  0  0  0  0
  2  3  1  0  0  0  0
  2  8  1  0  0  0  0
  3  4  1  0  0  0  0
  3 11  1  0  0  0  0
  3 25  1  6  0  0  0
  4  5  1  0  0  0  0
  4 10  1  0  0  0  0
  4 26  1  1  0  0  0
  5  6  1  0  0  0  0
  5  9  1  0  0  0  0
  5 27  1  6  0  0  0
  6  7  1  0  0  0  0
  6  8  1  0  0  0  0
  6 28  1  6  0  0  0
  7 29  1  0  0  0  0
  9 30  1  0  0  0  0
 10 31  1  0  0  0  0
 11 32  1  0  0  0  0
 12 11  1  0  0  0  0
 12 13  1  0  0  0  0
 12 19  1  0  0  0  0
 12 33  1  6  0  0  0
 13 14  2  0  0  0  0
 13 34  1  0  0  0  0
 14 15  1  0  0  0  0
 14 17  1  0  0  0  0
 15 16  2  0  0  0  0
 15 35  1  0  0  0  0
 17 18  1  0  0  0  0
 17 22  2  0  0  0  0
 18 19  1  0  0  0  0
 18 21  1  0  0  0  0
 18 36  1  1  0  0  0
 19 20  1  0  0  0  0
 19 37  1  6  0  0  0
 20 38  1  0  0  0  0
 21 39  1  0  0  0  0
M  END
>  <DRUGBANK_ID>
DB04164

>  <SECONDARY_ACCESSION_NUMBERS>
EXPT01105

>  <COMMON_NAME>
4,6-Dideoxy-4-{[(1S,5R,6S)-3-formyl-5,6-dihydroxy-4-oxo-2-cyclohexen-1-yl]amino}-Î±-D-xylo-hex-5-enopyranose

>  <SYNONYMS>
1,4-Deoxy-4-((5-Hydroxymethyl-2,3,4-Trihydroxycyclohex-5-Enyl)Amino)Fructose; 4,6-Dideoxy-4-{[(1s,5r,6s)-3-formyl-5,6-dihydroxy-4-oxocyclohex-2-en-1-yl]amino}-alpha-d-xylo-hex-5-enopyranose

$$$$
