
 OpenBabel10282417072D

 17 16  0  0  0  0  0  0  0  0999 V2000
    1.0717    0.2062    0.0000 C   0  0  0  0  0  0  0  0  0  0  0  0
    1.0717    1.0313    0.0000 O   0  0  0  0  0  0  0  0  0  0  0  0
    0.3572   -0.2062    0.0000 C   0  0  1  0  0  0  0  0  0  0  0  0
    0.3572   -1.0313    0.0000 N   0  0  0  0  0  0  0  0  0  0  0  0
   -0.3572    0.2062    0.0000 C   0  0  0  0  0  0  0  0  0  0  0  0
    1.7864   -0.2062    0.0000 O   0  0  0  0  0  0  0  0  0  0  0  0
   -1.0717   -0.2063    0.0000 C   0  0  0  0  0  0  0  0  0  0  0  0
   -1.7864    0.2061    0.0000 S   0  0  0  0  0  0  0  0  0  0  0  0
    1.2838   -0.7413    0.0000 H   0  0  0  0  0  0  0  0  0  0  0  0
   -0.5261   -1.5413    0.0000 H   0  0  0  0  0  0  0  0  0  0  0  0
    1.2405   -1.5413    0.0000 H   0  0  0  0  0  0  0  0  0  0  0  0
   -0.3572    1.2762    0.0000 H   0  0  0  0  0  0  0  0  0  0  0  0
   -1.2838    0.7412    0.0000 H   0  0  0  0  0  0  0  0  0  0  0  0
    1.7866   -1.1432    0.0000 H   0  0  0  0  0  0  0  0  0  0  0  0
   -1.0716   -1.2763    0.0000 H   0  0  0  0  0  0  0  0  0  0  0  0
   -1.9983   -0.7415    0.0000 H   0  0  0  0  0  0  0  0  0  0  0  0
   -1.7867    1.5661    0.0000 H   0  0  0  0  0  0  0  0  0  0  0  0
  1  2  2  0  0  0  0
  1  3  1  0  0  0  0
  3  4  1  0  0  0  0
  3  5  1  0  0  0  0
  3  9  1  6  0  0  0
  4 10  1  0  0  0  0
  4 11  1  0  0  0  0
  5 12  1  0  0  0  0
  5 13  1  0  0  0  0
  6  1  1  0  0  0  0
  6 14  1  0  0  0  0
  7  5  1  0  0  0  0
  7 15  1  0  0  0  0
  7 16  1  0  0  0  0
  8  7  1  0  0  0  0
  8 17  1  0  0  0  0
M  END
>  <DRUGBANK_ID>
DB04422

>  <SECONDARY_ACCESSION_NUMBERS>
EXPT01710

>  <COMMON_NAME>
Homocysteine

>  <CAS_NUMBER>
6027-13-0

>  <UNII>
0LVT1QZ0BA

>  <SYNONYMS>
L-2-amino-4-mercaptobutyric acid; L-Homocysteine

$$$$
