
 OpenBabel10282417072D

 59 63  0  0  0  0  0  0  0  0999 V2000
    0.7145   -6.1875    0.0000 O   0  0  0  0  0  0  0  0  0  0  0  0
    0.0000   -5.7750    0.0000 C   0  0  0  0  0  0  0  0  0  0  0  0
   -0.7145   -6.1875    0.0000 O   0  0  0  0  0  0  0  0  0  0  0  0
    0.0000   -4.9500    0.0000 C   0  0  0  0  0  0  0  0  0  0  0  0
   -0.7145   -4.5375    0.0000 C   0  0  0  0  0  0  0  0  0  0  0  0
   -0.7145   -3.7125    0.0000 C   0  0  0  0  0  0  0  0  0  0  0  0
    0.0000   -3.3000    0.0000 C   0  0  0  0  0  0  0  0  0  0  0  0
    0.7145   -3.7125    0.0000 C   0  0  0  0  0  0  0  0  0  0  0  0
    0.7145   -4.5375    0.0000 C   0  0  0  0  0  0  0  0  0  0  0  0
    0.0000   -2.4750    0.0000 S   0  0  0  0  0  0  0  0  0  0  0  0
    0.8250   -2.4750    0.0000 O   0  0  0  0  0  0  0  0  0  0  0  0
   -0.8250   -2.4750    0.0000 O   0  0  0  0  0  0  0  0  0  0  0  0
    0.0000   -1.6500    0.0000 N   0  0  0  0  0  0  0  0  0  0  0  0
   -0.7145   -1.2375    0.0000 C   0  0  0  0  0  0  0  0  0  0  0  0
   -0.7145   -0.4125    0.0000 C   0  0  0  0  0  0  0  0  0  0  0  0
   -1.4289   -0.0000    0.0000 C   0  0  0  0  0  0  0  0  0  0  0  0
   -1.4289    0.8250    0.0000 C   0  0  0  0  0  0  0  0  0  0  0  0
   -0.7145    1.2375    0.0000 C   0  0  0  0  0  0  0  0  0  0  0  0
   -0.7145    2.0625    0.0000 O   0  0  0  0  0  0  0  0  0  0  0  0
   -1.4289    2.4750    0.0000 C   0  0  0  0  0  0  0  0  0  0  0  0
   -2.1434    2.8875    0.0000 F   0  0  0  0  0  0  0  0  0  0  0  0
   -1.0164    3.1895    0.0000 F   0  0  0  0  0  0  0  0  0  0  0  0
   -1.8414    1.7605    0.0000 F   0  0  0  0  0  0  0  0  0  0  0  0
    0.0000    0.8250    0.0000 C   0  0  0  0  0  0  0  0  0  0  0  0
    0.0000   -0.0000    0.0000 C   0  0  0  0  0  0  0  0  0  0  0  0
    0.7145   -1.2375    0.0000 C   0  0  0  0  0  0  0  0  0  0  0  0
    0.7145   -0.4125    0.0000 N   0  0  0  0  0  0  0  0  0  0  0  0
    1.4289    0.0000    0.0000 C   0  0  0  0  0  0  0  0  0  0  0  0
    2.1434   -0.4125    0.0000 C   0  0  0  0  0  0  0  0  0  0  0  0
    2.8579    0.0000    0.0000 C   0  0  0  0  0  0  0  0  0  0  0  0
    3.5724   -0.4125    0.0000 C   0  0  0  0  0  0  0  0  0  0  0  0
    3.5724   -1.2375    0.0000 C   0  0  0  0  0  0  0  0  0  0  0  0
    2.8579   -1.6500    0.0000 C   0  0  0  0  0  0  0  0  0  0  0  0
    2.1434   -1.2375    0.0000 C   0  0  0  0  0  0  0  0  0  0  0  0
    1.4289   -1.6500    0.0000 C   0  0  0  0  0  0  0  0  0  0  0  0
    1.4289   -2.4750    0.0000 C   0  0  0  0  0  0  0  0  0  0  0  0
    1.8414   -3.1895    0.0000 C   0  0  0  0  0  0  0  0  0  0  0  0
    1.0164   -3.1895    0.0000 C   0  0  0  0  0  0  0  0  0  0  0  0
    0.7145   -7.1245    0.0000 H   0  0  0  0  0  0  0  0  0  0  0  0
   -1.6082   -5.0535    0.0000 H   0  0  0  0  0  0  0  0  0  0  0  0
   -1.6082   -3.1965    0.0000 H   0  0  0  0  0  0  0  0  0  0  0  0
    1.6082   -3.1965    0.0000 H   0  0  0  0  0  0  0  0  0  0  0  0
    1.6082   -5.0535    0.0000 H   0  0  0  0  0  0  0  0  0  0  0  0
   -1.6411   -1.7725    0.0000 H   0  0  0  0  0  0  0  0  0  0  0  0
   -1.6411   -0.7025    0.0000 H   0  0  0  0  0  0  0  0  0  0  0  0
   -2.3226   -0.5160    0.0000 H   0  0  0  0  0  0  0  0  0  0  0  0
   -2.3226    1.3410    0.0000 H   0  0  0  0  0  0  0  0  0  0  0  0
    0.8937    1.3410    0.0000 H   0  0  0  0  0  0  0  0  0  0  0  0
    0.8937   -0.5160    0.0000 H   0  0  0  0  0  0  0  0  0  0  0  0
    1.4289    1.0320    0.0000 H   0  0  0  0  0  0  0  0  0  0  0  0
    2.8579    1.0320    0.0000 H   0  0  0  0  0  0  0  0  0  0  0  0
    4.4661    0.1035    0.0000 H   0  0  0  0  0  0  0  0  0  0  0  0
    4.4661   -1.7535    0.0000 H   0  0  0  0  0  0  0  0  0  0  0  0
    2.8579   -2.6820    0.0000 H   0  0  0  0  0  0  0  0  0  0  0  0
    1.4289   -3.5450    0.0000 H   0  0  0  0  0  0  0  0  0  0  0  0
    2.7680   -3.7245    0.0000 H   0  0  0  0  0  0  0  0  0  0  0  0
    1.5645   -4.2230    0.0000 H   0  0  0  0  0  0  0  0  0  0  0  0
    0.0898   -3.7245    0.0000 H   0  0  0  0  0  0  0  0  0  0  0  0
    0.2598   -2.4329    0.0000 H   0  0  0  0  0  0  0  0  0  0  0  0
  1  2  1  0  0  0  0
  1 39  1  0  0  0  0
  2  3  2  0  0  0  0
  2  4  1  0  0  0  0
  4  5  2  0  0  0  0
  4  9  1  0  0  0  0
  5  6  1  0  0  0  0
  5 40  1  0  0  0  0
  6  7  2  0  0  0  0
  6 41  1  0  0  0  0
  7  8  1  0  0  0  0
  7 10  1  0  0  0  0
  8  9  2  0  0  0  0
  8 42  1  0  0  0  0
  9 43  1  0  0  0  0
 10 11  2  0  0  0  0
 10 12  2  0  0  0  0
 10 13  1  0  0  0  0
 13 14  1  0  0  0  0
 13 26  1  0  0  0  0
 14 15  1  0  0  0  0
 14 44  1  0  0  0  0
 14 45  1  0  0  0  0
 15 16  2  0  0  0  0
 15 25  1  0  0  0  0
 16 17  1  0  0  0  0
 16 46  1  0  0  0  0
 17 18  2  0  0  0  0
 17 47  1  0  0  0  0
 18 19  1  0  0  0  0
 18 24  1  0  0  0  0
 19 20  1  0  0  0  0
 20 21  1  0  0  0  0
 20 22  1  0  0  0  0
 20 23  1  0  0  0  0
 24 25  2  0  0  0  0
 24 48  1  0  0  0  0
 25 49  1  0  0  0  0
 26 27  2  0  0  0  0
 26 35  1  0  0  0  0
 27 28  1  0  0  0  0
 28 29  2  0  0  0  0
 28 50  1  0  0  0  0
 29 30  1  0  0  0  0
 29 34  1  0  0  0  0
 30 31  2  0  0  0  0
 30 51  1  0  0  0  0
 31 32  1  0  0  0  0
 31 52  1  0  0  0  0
 32 33  2  0  0  0  0
 32 53  1  0  0  0  0
 33 34  1  0  0  0  0
 33 54  1  0  0  0  0
 34 35  2  0  0  0  0
 35 36  1  0  0  0  0
 36 37  1  0  0  0  0
 36 38  1  0  0  0  0
 36 55  1  0  0  0  0
 37 38  1  0  0  0  0
 37 56  1  0  0  0  0
 37 57  1  0  0  0  0
 38 58  1  0  0  0  0
 38 59  1  0  0  0  0
M  END
>  <DRUGBANK_ID>
DB15287

>  <COMMON_NAME>
Elismetrep

>  <CAS_NUMBER>
1400699-64-0

>  <UNII>
KIB8V5UR7D

>  <SYNONYMS>
Elismetrep

$$$$
