
 OpenBabel10282417072D

 41 42  0  0  0  0  0  0  0  0999 V2000
   -1.7861    0.4124    0.0000 C   0  0  0  0  0  0  0  0  0  0  0  0
   -2.5006    0.0000    0.0000 C   0  0  0  0  0  0  0  0  0  0  0  0
   -2.5006   -0.8250    0.0000 C   0  0  0  0  0  0  0  0  0  0  0  0
   -1.7861   -1.2375    0.0000 C   0  0  0  0  0  0  0  0  0  0  0  0
   -1.0716   -0.8250    0.0000 C   0  0  0  0  0  0  0  0  0  0  0  0
   -1.0716    0.0000    0.0000 C   0  0  0  0  0  0  0  0  0  0  0  0
   -3.2151   -1.2375    0.0000 C   0  0  0  0  0  0  0  0  0  0  0  0
   -0.3572    0.4124    0.0000 C   0  0  0  0  0  0  0  0  0  0  0  0
    0.3572    0.0000    0.0000 C   0  0  3  0  0  0  0  0  0  0  0  0
   -0.3572    1.2374    0.0000 O   0  0  0  0  0  0  0  0  0  0  0  0
    1.0717    0.4124    0.0000 C   0  0  0  0  0  0  0  0  0  0  0  0
    1.7861    0.0000    0.0000 N   0  0  0  0  0  0  0  0  0  0  0  0
    1.7862   -0.8250    0.0000 C   0  0  0  0  0  0  0  0  0  0  0  0
    2.5006   -1.2375    0.0000 C   0  0  0  0  0  0  0  0  0  0  0  0
    3.2151   -0.8250    0.0000 C   0  0  0  0  0  0  0  0  0  0  0  0
    3.2151    0.0000    0.0000 C   0  0  0  0  0  0  0  0  0  0  0  0
    2.5006    0.4124    0.0000 C   0  0  0  0  0  0  0  0  0  0  0  0
    0.3572   -0.8250    0.0000 C   0  0  0  0  0  0  0  0  0  0  0  0
   -1.7861    1.4444    0.0000 H   0  0  0  0  0  0  0  0  0  0  0  0
   -3.3943    0.5161    0.0000 H   0  0  0  0  0  0  0  0  0  0  0  0
   -1.7861   -2.2695    0.0000 H   0  0  0  0  0  0  0  0  0  0  0  0
   -0.1779   -1.3410    0.0000 H   0  0  0  0  0  0  0  0  0  0  0  0
   -4.1417   -0.7025    0.0000 H   0  0  0  0  0  0  0  0  0  0  0  0
   -3.2151   -2.3075    0.0000 H   0  0  0  0  0  0  0  0  0  0  0  0
   -4.1418   -1.7725    0.0000 H   0  0  0  0  0  0  0  0  0  0  0  0
    0.3572    1.0700    0.0000 H   0  0  0  0  0  0  0  0  0  0  0  0
    1.0717    1.4824    0.0000 H   0  0  0  0  0  0  0  0  0  0  0  0
    1.9983    0.9474    0.0000 H   0  0  0  0  0  0  0  0  0  0  0  0
    0.8596   -1.3600    0.0000 H   0  0  0  0  0  0  0  0  0  0  0  0
    1.7862   -1.8950    0.0000 H   0  0  0  0  0  0  0  0  0  0  0  0
    2.5006   -2.3075    0.0000 H   0  0  0  0  0  0  0  0  0  0  0  0
    3.4272   -1.7725    0.0000 H   0  0  0  0  0  0  0  0  0  0  0  0
    4.1417   -1.3600    0.0000 H   0  0  0  0  0  0  0  0  0  0  0  0
    4.1417   -0.2900    0.0000 H   0  0  0  0  0  0  0  0  0  0  0  0
    4.1417    0.5351    0.0000 H   0  0  0  0  0  0  0  0  0  0  0  0
    3.2150    1.0700    0.0000 H   0  0  0  0  0  0  0  0  0  0  0  0
    2.5006    1.4824    0.0000 H   0  0  0  0  0  0  0  0  0  0  0  0
    3.4272    0.9475    0.0000 H   0  0  0  0  0  0  0  0  0  0  0  0
   -0.5694   -1.3600    0.0000 H   0  0  0  0  0  0  0  0  0  0  0  0
    1.2838   -1.3600    0.0000 H   0  0  0  0  0  0  0  0  0  0  0  0
    0.3572   -1.8950    0.0000 H   0  0  0  0  0  0  0  0  0  0  0  0
  1  2  1  0  0  0  0
  1  6  2  0  0  0  0
  1 19  1  0  0  0  0
  2  3  2  0  0  0  0
  2 20  1  0  0  0  0
  3  4  1  0  0  0  0
  3  7  1  0  0  0  0
  4  5  2  0  0  0  0
  4 21  1  0  0  0  0
  5  6  1  0  0  0  0
  5 22  1  0  0  0  0
  6  8  1  0  0  0  0
  7 23  1  0  0  0  0
  7 24  1  0  0  0  0
  7 25  1  0  0  0  0
  8  9  1  0  0  0  0
  8 10  2  0  0  0  0
  9 11  1  0  0  0  0
  9 18  1  0  0  0  0
  9 26  1  0  0  0  0
 11 12  1  0  0  0  0
 11 27  1  0  0  0  0
 11 28  1  0  0  0  0
 12 13  1  0  0  0  0
 13 14  1  0  0  0  0
 13 29  1  0  0  0  0
 13 30  1  0  0  0  0
 14 15  1  0  0  0  0
 14 31  1  0  0  0  0
 14 32  1  0  0  0  0
 15 16  1  0  0  0  0
 15 33  1  0  0  0  0
 15 34  1  0  0  0  0
 16 17  1  0  0  0  0
 16 35  1  0  0  0  0
 16 36  1  0  0  0  0
 17 12  1  0  0  0  0
 17 37  1  0  0  0  0
 17 38  1  0  0  0  0
 18 39  1  0  0  0  0
 18 40  1  0  0  0  0
 18 41  1  0  0  0  0
M  END
>  <DRUGBANK_ID>
DB06264

>  <COMMON_NAME>
Tolperisone

>  <CAS_NUMBER>
728-88-1

>  <UNII>
F5EOM0LD8E

>  <SYNONYMS>
Tolperisone

$$$$
