
 OpenBabel10282417072D

111117  0  0  0  0  0  0  0  0999 V2000
    3.2462   -0.6187    0.0000 O   0  0  0  0  0  0  0  0  0  0  0  0
    3.2462   -1.4436    0.0000 C   0  0  2  0  0  0  0  0  0  0  0  0
    2.5317   -1.8562    0.0000 O   0  0  0  0  0  0  0  0  0  0  0  0
    2.5317   -2.6812    0.0000 C   0  0  2  0  0  0  0  0  0  0  0  0
    3.2462   -3.0935    0.0000 C   0  0  2  0  0  0  0  0  0  0  0  0
    3.9607   -2.6812    0.0000 C   0  0  2  0  0  0  0  0  0  0  0  0
    3.9607   -1.8562    0.0000 C   0  0  0  0  0  0  0  0  0  0  0  0
    2.5317   -4.3312    0.0000 C   0  0  2  0  0  0  0  0  0  0  0  0
    1.8172   -3.9187    0.0000 O   0  0  0  0  0  0  0  0  0  0  0  0
    1.1027   -4.3312    0.0000 C   0  0  2  0  0  0  0  0  0  0  0  0
    1.1029   -5.1562    0.0000 C   0  0  0  0  0  0  0  0  0  0  0  0
    1.8173   -5.5687    0.0000 C   0  0  0  0  0  0  0  0  0  0  0  0
    2.5317   -5.1562    0.0000 C   0  0  0  0  0  0  0  0  0  0  0  0
    4.6752   -3.0938    0.0000 O   0  0  0  0  0  0  0  0  0  0  0  0
    1.8172   -3.0937    0.0000 C   0  0  0  0  0  0  0  0  0  0  0  0
    0.3883   -3.9187    0.0000 C   0  0  0  0  0  0  0  0  0  0  0  0
    0.3884   -5.5687    0.0000 O   0  0  0  0  0  0  0  0  0  0  0  0
   -3.9607    3.4438    0.0000 C   0  0  0  0  0  0  0  0  0  0  0  0
   -4.6752    3.0314    0.0000 C   0  0  0  0  0  0  0  0  0  0  0  0
   -4.6752    2.2063    0.0000 C   0  0  0  0  0  0  0  0  0  0  0  0
   -3.2463    3.0314    0.0000 C   0  0  0  0  0  0  0  0  0  0  0  0
   -3.2463    2.2063    0.0000 C   0  0  0  0  0  0  0  0  0  0  0  0
   -2.5319    3.4438    0.0000 C   0  0  0  0  0  0  0  0  0  0  0  0
   -2.5319    4.2688    0.0000 O   0  0  0  0  0  0  0  0  0  0  0  0
   -2.5319    1.7938    0.0000 C   0  0  0  0  0  0  0  0  0  0  0  0
   -2.5319    0.9689    0.0000 O   0  0  0  0  0  0  0  0  0  0  0  0
   -3.9607    1.7938    0.0000 C   0  0  0  0  0  0  0  0  0  0  0  0
   -3.9607    0.9689    0.0000 O   0  0  0  0  0  0  0  0  0  0  0  0
   -1.8174    3.0314    0.0000 C   0  0  0  0  0  0  0  0  0  0  0  0
   -1.8174    2.2063    0.0000 C   0  0  0  0  0  0  0  0  0  0  0  0
   -1.1029    3.4438    0.0000 C   0  0  0  0  0  0  0  0  0  0  0  0
   -1.1029    1.7938    0.0000 C   0  0  0  0  0  0  0  0  0  0  0  0
   -1.1029    0.9689    0.0000 O   0  0  0  0  0  0  0  0  0  0  0  0
   -0.3260    3.0939    0.0000 C   0  0  0  0  0  0  0  0  0  0  0  0
   -0.3260    2.2687    0.0000 C   0  0  0  0  0  0  0  0  0  0  0  0
    1.1029    2.2687    0.0000 C   0  0  0  0  0  0  0  0  0  0  0  0
    0.3884    1.8563    0.0000 C   0  0  2  0  0  0  0  0  0  0  0  0
    0.3884    3.5063    0.0000 C   0  0  2  0  0  0  0  0  0  0  0  0
    1.1029    3.0939    0.0000 C   0  0  2  0  0  0  0  0  0  0  0  0
    1.8996    2.8803    0.0000 O   0  0  0  0  0  0  0  0  0  0  0  0
    1.5154    3.8081    0.0000 C   0  0  0  0  0  0  0  0  0  0  0  0
    2.3404    3.8081    0.0000 C   0  0  0  0  0  0  0  0  0  0  0  0
   -0.3260    4.7438    0.0000 O   0  0  0  0  0  0  0  0  0  0  0  0
    0.3884    4.3312    0.0000 C   0  0  0  0  0  0  0  0  0  0  0  0
    1.1029    4.7438    0.0000 O   0  0  0  0  0  0  0  0  0  0  0  0
    1.1029    5.5687    0.0000 C   0  0  0  0  0  0  0  0  0  0  0  0
    1.1029    0.6187    0.0000 C   0  0  2  0  0  0  0  0  0  0  0  0
    1.1029   -0.2062    0.0000 O   0  0  0  0  0  0  0  0  0  0  0  0
    1.8173   -0.6187    0.0000 C   0  0  2  0  0  0  0  0  0  0  0  0
    2.5319   -0.2062    0.0000 C   0  0  2  0  0  0  0  0  0  0  0  0
    2.5319    0.6187    0.0000 C   0  0  2  0  0  0  0  0  0  0  0  0
    1.8173    1.0313    0.0000 C   0  0  0  0  0  0  0  0  0  0  0  0
    3.2462    1.0313    0.0000 N   0  0  0  0  0  0  0  0  0  0  0  0
    1.8173   -1.4436    0.0000 C   0  0  0  0  0  0  0  0  0  0  0  0
    0.3884    1.0313    0.0000 O   0  0  0  0  0  0  0  0  0  0  0  0
    3.2461    1.8563    0.0000 C   0  0  0  0  0  0  0  0  0  0  0  0
    3.9607    0.6187    0.0000 C   0  0  0  0  0  0  0  0  0  0  0  0
    3.2462   -3.9187    0.0000 O   0  0  0  0  0  0  0  0  0  0  0  0
    4.1729   -0.9086    0.0000 H   0  0  0  0  0  0  0  0  0  0  0  0
    1.6051   -2.1462    0.0000 H   0  0  0  0  0  0  0  0  0  0  0  0
    2.3196   -3.6286    0.0000 H   0  0  0  0  0  0  0  0  0  0  0  0
    3.9605   -3.7512    0.0000 H   0  0  0  0  0  0  0  0  0  0  0  0
    4.8874   -1.3212    0.0000 H   0  0  0  0  0  0  0  0  0  0  0  0
    4.8873   -2.3912    0.0000 H   0  0  0  0  0  0  0  0  0  0  0  0
    3.4583   -4.8662    0.0000 H   0  0  0  0  0  0  0  0  0  0  0  0
    1.1027   -3.2612    0.0000 H   0  0  0  0  0  0  0  0  0  0  0  0
    1.8173   -6.6387    0.0000 H   0  0  0  0  0  0  0  0  0  0  0  0
    2.7440   -6.1037    0.0000 H   0  0  0  0  0  0  0  0  0  0  0  0
    3.4584   -5.6912    0.0000 H   0  0  0  0  0  0  0  0  0  0  0  0
    2.5317   -6.2262    0.0000 H   0  0  0  0  0  0  0  0  0  0  0  0
    4.6751   -4.0638    0.0000 H   0  0  0  0  0  0  0  0  0  0  0  0
    0.8906   -2.5587    0.0000 H   0  0  0  0  0  0  0  0  0  0  0  0
    1.8172   -4.1637    0.0000 H   0  0  0  0  0  0  0  0  0  0  0  0
    0.8905   -3.6287    0.0000 H   0  0  0  0  0  0  0  0  0  0  0  0
    0.3883   -2.8487    0.0000 H   0  0  0  0  0  0  0  0  0  0  0  0
   -0.5384   -4.4537    0.0000 H   0  0  0  0  0  0  0  0  0  0  0  0
   -0.5383   -3.3837    0.0000 H   0  0  0  0  0  0  0  0  0  0  0  0
   -3.9607    4.4758    0.0000 H   0  0  0  0  0  0  0  0  0  0  0  0
   -5.5689    3.5475    0.0000 H   0  0  0  0  0  0  0  0  0  0  0  0
   -5.5689    1.6903    0.0000 H   0  0  0  0  0  0  0  0  0  0  0  0
   -4.7722    0.5004    0.0000 H   0  0  0  0  0  0  0  0  0  0  0  0
   -1.1546    4.4745    0.0000 H   0  0  0  0  0  0  0  0  0  0  0  0
   -1.9144    0.5004    0.0000 H   0  0  0  0  0  0  0  0  0  0  0  0
    2.0295    1.7336    0.0000 H   0  0  0  0  0  0  0  0  0  0  0  0
    2.0296    2.8037    0.0000 H   0  0  0  0  0  0  0  0  0  0  0  0
   -0.5382    1.3213    0.0000 H   0  0  0  0  0  0  0  0  0  0  0  0
   -0.5382    4.0413    0.0000 H   0  0  0  0  0  0  0  0  0  0  0  0
    2.1505    1.9433    0.0000 H   0  0  0  0  0  0  0  0  0  0  0  0
    0.9805    4.7348    0.0000 H   0  0  0  0  0  0  0  0  0  0  0  0
    2.0504    4.7347    0.0000 H   0  0  0  0  0  0  0  0  0  0  0  0
    2.8754    2.8815    0.0000 H   0  0  0  0  0  0  0  0  0  0  0  0
    2.8754    4.7347    0.0000 H   0  0  0  0  0  0  0  0  0  0  0  0
    3.4104    3.8081    0.0000 H   0  0  0  0  0  0  0  0  0  0  0  0
    2.0295    6.1037    0.0000 H   0  0  0  0  0  0  0  0  0  0  0  0
    0.1763    6.1037    0.0000 H   0  0  0  0  0  0  0  0  0  0  0  0
    1.1029    6.6387    0.0000 H   0  0  0  0  0  0  0  0  0  0  0  0
    1.1029    1.6887    0.0000 H   0  0  0  0  0  0  0  0  0  0  0  0
    0.8906   -1.1537    0.0000 H   0  0  0  0  0  0  0  0  0  0  0  0
    2.5318   -1.2762    0.0000 H   0  0  0  0  0  0  0  0  0  0  0  0
    3.4586    0.0838    0.0000 H   0  0  0  0  0  0  0  0  0  0  0  0
    1.8172    2.1013    0.0000 H   0  0  0  0  0  0  0  0  0  0  0  0
    2.7439    1.5663    0.0000 H   0  0  0  0  0  0  0  0  0  0  0  0
    0.8907   -1.9786    0.0000 H   0  0  0  0  0  0  0  0  0  0  0  0
    2.7439   -1.9786    0.0000 H   0  0  0  0  0  0  0  0  0  0  0  0
    1.8173   -2.5136    0.0000 H   0  0  0  0  0  0  0  0  0  0  0  0
    4.1727    2.3914    0.0000 H   0  0  0  0  0  0  0  0  0  0  0  0
    2.3194    2.3912    0.0000 H   0  0  0  0  0  0  0  0  0  0  0  0
    3.2460    2.9263    0.0000 H   0  0  0  0  0  0  0  0  0  0  0  0
    3.9606   -0.4513    0.0000 H   0  0  0  0  0  0  0  0  0  0  0  0
    4.8874    1.1536    0.0000 H   0  0  0  0  0  0  0  0  0  0  0  0
    4.8873    0.0836    0.0000 H   0  0  0  0  0  0  0  0  0  0  0  0
  2  1  1  0  0  0  0
  2 59  1  6  0  0  0
  3  2  1  0  0  0  0
  3  4  1  0  0  0  0
  4  5  1  0  0  0  0
  4 15  1  0  0  0  0
  4 60  1  1  0  0  0
  5  6  1  0  0  0  0
  5 58  1  0  0  0  0
  5 61  1  1  0  0  0
  6  7  1  0  0  0  0
  6 14  1  0  0  0  0
  6 62  1  1  0  0  0
  7  2  1  0  0  0  0
  7 63  1  0  0  0  0
  7 64  1  0  0  0  0
  8 58  1  0  0  0  0
  8 65  1  6  0  0  0
  9  8  1  0  0  0  0
  9 10  1  0  0  0  0
 10 11  1  0  0  0  0
 10 16  1  0  0  0  0
 10 66  1  1  0  0  0
 11 12  1  0  0  0  0
 11 17  2  0  0  0  0
 12 13  1  0  0  0  0
 12 67  1  0  0  0  0
 12 68  1  0  0  0  0
 13  8  1  0  0  0  0
 13 69  1  0  0  0  0
 13 70  1  0  0  0  0
 14 71  1  0  0  0  0
 15 72  1  0  0  0  0
 15 73  1  0  0  0  0
 15 74  1  0  0  0  0
 16 75  1  0  0  0  0
 16 76  1  0  0  0  0
 16 77  1  0  0  0  0
 18 19  2  0  0  0  0
 18 21  1  0  0  0  0
 18 78  1  0  0  0  0
 19 20  1  0  0  0  0
 19 79  1  0  0  0  0
 20 27  2  0  0  0  0
 20 80  1  0  0  0  0
 21 22  2  0  0  0  0
 22 25  1  0  0  0  0
 23 21  1  0  0  0  0
 23 29  1  0  0  0  0
 23 24  2  0  0  0  0
 25 30  1  0  0  0  0
 25 26  2  0  0  0  0
 27 22  1  0  0  0  0
 27 28  1  0  0  0  0
 28 81  1  0  0  0  0
 30 29  2  0  0  0  0
 30 32  1  0  0  0  0
 31 29  1  0  0  0  0
 31 34  2  0  0  0  0
 31 82  1  0  0  0  0
 32 35  2  0  0  0  0
 32 33  1  0  0  0  0
 33 83  1  0  0  0  0
 34 35  1  0  0  0  0
 35 37  1  0  0  0  0
 36 39  1  0  0  0  0
 36 84  1  0  0  0  0
 36 85  1  0  0  0  0
 37 36  1  0  0  0  0
 37 55  1  0  0  0  0
 37 86  1  1  0  0  0
 38 34  1  0  0  0  0
 38 39  1  0  0  0  0
 38 44  1  0  0  0  0
 38 87  1  6  0  0  0
 39 41  1  0  0  0  0
 39 40  1  6  0  0  0
 40 88  1  0  0  0  0
 41 42  1  0  0  0  0
 41 89  1  0  0  0  0
 41 90  1  0  0  0  0
 42 91  1  0  0  0  0
 42 92  1  0  0  0  0
 42 93  1  0  0  0  0
 44 43  2  0  0  0  0
 44 45  1  0  0  0  0
 45 46  1  0  0  0  0
 46 94  1  0  0  0  0
 46 95  1  0  0  0  0
 46 96  1  0  0  0  0
 47 55  1  0  0  0  0
 47 97  1  6  0  0  0
 48 47  1  0  0  0  0
 48 49  1  0  0  0  0
 49 50  1  0  0  0  0
 49 54  1  0  0  0  0
 49 98  1  1  0  0  0
 50 51  1  0  0  0  0
 50  1  1  0  0  0  0
 50 99  1  1  0  0  0
 51 52  1  0  0  0  0
 51 53  1  0  0  0  0
 51100  1  1  0  0  0
 52 47  1  0  0  0  0
 52101  1  0  0  0  0
 52102  1  0  0  0  0
 53 56  1  0  0  0  0
 53 57  1  0  0  0  0
 54103  1  0  0  0  0
 54104  1  0  0  0  0
 54105  1  0  0  0  0
 56106  1  0  0  0  0
 56107  1  0  0  0  0
 56108  1  0  0  0  0
 57109  1  0  0  0  0
 57110  1  0  0  0  0
 57111  1  0  0  0  0
M  END
>  <DRUGBANK_ID>
DB11617

>  <COMMON_NAME>
Aclarubicin

>  <CAS_NUMBER>
57576-44-0

>  <UNII>
74KXF8I502

>  <SYNONYMS>
Aclacinomycin A; Aclarubicin; aclarubicina

$$$$
