
 OpenBabel10282417072D

 22 23  0  0  0  0  0  0  0  0999 V2000
    2.0367   -0.4741    0.0000 C   0  0  0  0  0  0  0  0  0  0  0  0
    2.0367   -1.2991    0.0000 N   0  0  0  0  0  0  0  0  0  0  0  0
    2.7041   -1.7840    0.0000 C   0  0  0  0  0  0  0  0  0  0  0  0
    2.4492   -2.5687    0.0000 C   0  0  0  0  0  0  0  0  0  0  0  0
    1.6242   -2.5687    0.0000 N   0  0  0  0  0  0  0  0  0  0  0  0
    1.3693   -1.7840    0.0000 C   0  0  0  0  0  0  0  0  0  0  0  0
    2.7512   -0.0616    0.0000 C   0  0  0  0  0  0  0  0  0  0  0  0
    2.7512    0.7634    0.0000 C   0  0  0  0  0  0  0  0  0  0  0  0
    3.4656    1.1759    0.0000 C   0  0  0  0  0  0  0  0  0  0  0  0
    4.1801    0.7634    0.0000 C   0  0  0  0  0  0  0  0  0  0  0  0
    4.1801   -0.0616    0.0000 C   0  0  0  0  0  0  0  0  0  0  0  0
    3.4656   -0.4741    0.0000 C   0  0  0  0  0  0  0  0  0  0  0  0
    1.1101    0.0609    0.0000 H   0  0  0  0  0  0  0  0  0  0  0  0
    2.0367    0.5959    0.0000 H   0  0  0  0  0  0  0  0  0  0  0  0
    3.6856   -1.4651    0.0000 H   0  0  0  0  0  0  0  0  0  0  0  0
    3.0558   -3.4036    0.0000 H   0  0  0  0  0  0  0  0  0  0  0  0
    0.3878   -1.4651    0.0000 H   0  0  0  0  0  0  0  0  0  0  0  0
    1.8575    1.2794    0.0000 H   0  0  0  0  0  0  0  0  0  0  0  0
    3.4656    2.2079    0.0000 H   0  0  0  0  0  0  0  0  0  0  0  0
    5.0738    1.2794    0.0000 H   0  0  0  0  0  0  0  0  0  0  0  0
    5.0738   -0.5776    0.0000 H   0  0  0  0  0  0  0  0  0  0  0  0
    3.4656   -1.5061    0.0000 H   0  0  0  0  0  0  0  0  0  0  0  0
  1  2  1  0  0  0  0
  1  7  1  0  0  0  0
  1 13  1  0  0  0  0
  1 14  1  0  0  0  0
  2  3  1  0  0  0  0
  2  6  1  0  0  0  0
  3  4  2  0  0  0  0
  3 15  1  0  0  0  0
  4  5  1  0  0  0  0
  4 16  1  0  0  0  0
  5  6  2  0  0  0  0
  6 17  1  0  0  0  0
  7  8  2  0  0  0  0
  7 12  1  0  0  0  0
  8  9  1  0  0  0  0
  8 18  1  0  0  0  0
  9 10  2  0  0  0  0
  9 19  1  0  0  0  0
 10 11  1  0  0  0  0
 10 20  1  0  0  0  0
 11 12  2  0  0  0  0
 11 21  1  0  0  0  0
 12 22  1  0  0  0  0
M  END
>  <DRUGBANK_ID>
DB04581

>  <COMMON_NAME>
1-benzylimidazole

>  <CAS_NUMBER>
4238-71-5

>  <UNII>
W4C9Z5BCV7

>  <SYNONYMS>
1-benzyl-1H-imidazole

$$$$
