
 OpenBabel10282417072D

 30 31  0  0  0  0  0  0  0  0999 V2000
    7.8592   -1.2375    0.0000 C   0  0  0  0  0  0  0  0  0  0  0  0
    3.5724   -0.4125    0.0000 C   0  0  0  0  0  0  0  0  0  0  0  0
    2.8579    0.0000    0.0000 C   0  0  0  0  0  0  0  0  0  0  0  0
    4.2868    0.0000    0.0000 C   0  0  0  0  0  0  0  0  0  0  0  0
    2.8579    0.8250    0.0000 C   0  0  0  0  0  0  0  0  0  0  0  0
    7.1447    0.8250    0.0000 C   0  0  0  0  0  0  0  0  0  0  0  0
    6.4302    1.2375    0.0000 C   0  0  0  0  0  0  0  0  0  0  0  0
    6.4302   -0.4125    0.0000 C   0  0  0  0  0  0  0  0  0  0  0  0
    7.1447   -0.0000    0.0000 C   0  0  0  0  0  0  0  0  0  0  0  0
    4.2868    0.8250    0.0000 C   0  0  0  0  0  0  0  0  0  0  0  0
    5.7158    0.8250    0.0000 C   0  0  0  0  0  0  0  0  0  0  0  0
    3.5724    1.2375    0.0000 C   0  0  0  0  0  0  0  0  0  0  0  0
    5.7158    0.0000    0.0000 C   0  0  0  0  0  0  0  0  0  0  0  0
    5.0013    1.2375    0.0000 C   0  0  0  0  0  0  0  0  0  0  0  0
    3.5724    2.0625    0.0000 O   0  0  0  0  0  0  0  0  0  0  0  0
    5.0013   -0.4125    0.0000 O   0  0  0  0  0  0  0  0  0  0  0  0
    5.0013    2.0625    0.0000 O   0  0  0  0  0  0  0  0  0  0  0  0
    7.8592   -0.4125    0.0000 O   0  0  0  0  0  0  0  0  0  0  0  0
    6.9326   -1.7725    0.0000 H   0  0  0  0  0  0  0  0  0  0  0  0
    8.7858   -1.7725    0.0000 H   0  0  0  0  0  0  0  0  0  0  0  0
    7.8592   -2.3075    0.0000 H   0  0  0  0  0  0  0  0  0  0  0  0
    3.5724   -1.4445    0.0000 H   0  0  0  0  0  0  0  0  0  0  0  0
    1.9642   -0.5160    0.0000 H   0  0  0  0  0  0  0  0  0  0  0  0
    5.1805   -0.5160    0.0000 H   0  0  0  0  0  0  0  0  0  0  0  0
    1.9642    1.3410    0.0000 H   0  0  0  0  0  0  0  0  0  0  0  0
    8.0384    1.3410    0.0000 H   0  0  0  0  0  0  0  0  0  0  0  0
    6.4302    2.2695    0.0000 H   0  0  0  0  0  0  0  0  0  0  0  0
    6.4302   -1.4445    0.0000 H   0  0  0  0  0  0  0  0  0  0  0  0
    4.3839    2.5310    0.0000 H   0  0  0  0  0  0  0  0  0  0  0  0
    4.1898    0.0560    0.0000 H   0  0  0  0  0  0  0  0  0  0  0  0
  1 19  1  0  0  0  0
  1 20  1  0  0  0  0
  1 21  1  0  0  0  0
  2 22  1  0  0  0  0
  3  2  2  0  0  0  0
  3 23  1  0  0  0  0
  4  2  1  0  0  0  0
  4 24  1  0  0  0  0
  5  3  1  0  0  0  0
  5 25  1  0  0  0  0
  6 26  1  0  0  0  0
  7  6  2  0  0  0  0
  7 27  1  0  0  0  0
  8 28  1  0  0  0  0
  9  6  1  0  0  0  0
  9  8  2  0  0  0  0
 10  4  2  0  0  0  0
 11  7  1  0  0  0  0
 12  5  2  0  0  0  0
 12 10  1  0  0  0  0
 13  8  1  0  0  0  0
 13 11  2  0  0  0  0
 14 10  1  0  0  0  0
 14 11  1  0  0  0  0
 15 12  1  0  0  0  0
 15 29  1  0  0  0  0
 16 13  1  0  0  0  0
 16 30  1  0  0  0  0
 17 14  2  0  0  0  0
 18  1  1  0  0  0  0
 18  9  1  0  0  0  0
M  END
>  <DRUGBANK_ID>
DB11221

>  <COMMON_NAME>
Dioxybenzone

>  <CAS_NUMBER>
131-53-3

>  <UNII>
B762XZ551X

>  <SYNONYMS>
2,2'-Dihydroxy-4-methoxybenzophenone; Dioxybenzone

$$$$
