
 OpenBabel10282417072D

 49 51  0  0  1  0  0  0  0  0999 V2000
   -1.3219    2.4609    0.0000 O   0  0  0  0  0  0  0  0  0  0  0  0
   -2.7505    0.8107    0.0000 O   0  0  0  0  0  0  0  0  0  0  0  0
   -1.7538   -1.2019    0.0000 O   0  0  0  0  0  0  0  0  0  0  0  0
   -0.6071   -0.4268    0.0000 O   0  0  0  0  0  0  0  0  0  0  0  0
    2.3049    2.0680    0.0000 O   0  0  0  0  0  0  0  0  0  0  0  0
    0.8351   -0.4553    0.0000 O   0  0  0  0  0  0  0  0  0  0  0  0
   -3.4650   -0.4268    0.0000 O   0  0  0  0  0  0  0  0  0  0  0  0
   -0.6071    1.2231    0.0000 O   0  0  0  0  0  0  0  0  0  0  0  0
   -1.3216    1.6356    0.0000 C   0  0  1  0  0  0  0  0  0  0  0  0
   -0.6071    2.0481    0.0000 C   0  0  1  0  0  0  0  0  0  0  0  0
   -1.3216    0.8107    0.0000 C   0  0  0  0  0  0  0  0  0  0  0  0
    0.1071    1.6356    0.0000 C   0  0  0  0  0  0  0  0  0  0  0  0
   -2.0361    0.3981    0.0000 C   0  0  1  0  0  0  0  0  0  0  0  0
   -2.0361   -0.4268    0.0000 C   0  0  1  0  0  0  0  0  0  0  0  0
    0.1071    0.8107    0.0000 C   0  0  0  0  0  0  0  0  0  0  0  0
    0.8447    2.0767    0.0000 C   0  0  0  0  0  0  0  0  0  0  0  0
    0.8447    0.3695    0.0000 C   0  0  0  0  0  0  0  0  0  0  0  0
    1.5921    1.6528    0.0000 C   0  0  0  0  0  0  0  0  0  0  0  0
   -2.7505   -0.8392    0.0000 C   0  0  0  0  0  0  0  0  0  0  0  0
   -0.6071    0.3981    0.0000 C   0  0  0  0  0  0  0  0  0  0  0  0
    1.5921    0.7935    0.0000 C   0  0  0  0  0  0  0  0  0  0  0  0
   -1.3216   -0.8392    0.0000 C   0  0  2  0  0  0  0  0  0  0  0  0
   -2.7505   -1.6642    0.0000 C   0  0  0  0  0  0  0  0  0  0  0  0
   -1.3216   -1.6642    0.0000 C   0  0  0  0  0  0  0  0  0  0  0  0
   -2.0361   -2.0767    0.0000 C   0  0  0  0  0  0  0  0  0  0  0  0
   -1.3216   -0.0142    0.0000 C   0  0  0  0  0  0  0  0  0  0  0  0
    3.0210    1.6583    0.0000 C   0  0  0  0  0  0  0  0  0  0  0  0
   -3.4653   -2.0769    0.0000 H   0  0  0  0  0  0  0  0  0  0  0  0
   -2.0361   -2.9020    0.0000 H   0  0  0  0  0  0  0  0  0  0  0  0
   -2.7504    1.7807    0.0000 H   0  0  0  0  0  0  0  0  0  0  0  0
   -2.3771   -1.9451    0.0000 H   0  0  0  0  0  0  0  0  0  0  0  0
    0.0182   -0.9143    0.0000 H   0  0  0  0  0  0  0  0  0  0  0  0
   -0.7868    2.5623    0.0000 H   0  0  0  0  0  0  0  0  0  0  0  0
   -1.6771    2.0482    0.0000 H   0  0  0  0  0  0  0  0  0  0  0  0
   -0.3949    0.2757    0.0000 H   0  0  0  0  0  0  0  0  0  0  0  0
   -1.3215   -0.2593    0.0000 H   0  0  0  0  0  0  0  0  0  0  0  0
   -2.0361    1.4681    0.0000 H   0  0  0  0  0  0  0  0  0  0  0  0
   -0.9824   -0.2409    0.0000 H   0  0  0  0  0  0  0  0  0  0  0  0
    0.8328    3.1086    0.0000 H   0  0  0  0  0  0  0  0  0  0  0  0
    2.4839    0.2741    0.0000 H   0  0  0  0  0  0  0  0  0  0  0  0
   -0.7865    0.0874    0.0000 H   0  0  0  0  0  0  0  0  0  0  0  0
   -0.3950   -2.1992    0.0000 H   0  0  0  0  0  0  0  0  0  0  0  0
   -1.3216   -2.7342    0.0000 H   0  0  0  0  0  0  0  0  0  0  0  0
   -0.3950    0.5208    0.0000 H   0  0  0  0  0  0  0  0  0  0  0  0
   -2.2482    0.5208    0.0000 H   0  0  0  0  0  0  0  0  0  0  0  0
   -1.3216    1.0558    0.0000 H   0  0  0  0  0  0  0  0  0  0  0  0
    3.0252    0.5883    0.0000 H   0  0  0  0  0  0  0  0  0  0  0  0
    3.9455    2.1969    0.0000 H   0  0  0  0  0  0  0  0  0  0  0  0
    3.9497    1.1269    0.0000 H   0  0  0  0  0  0  0  0  0  0  0  0
  2 30  1  0  0  0  0
  3 31  1  0  0  0  0
  4 20  1  0  0  0  0
  4 22  1  0  0  0  0
  5 18  1  0  0  0  0
  5 27  1  0  0  0  0
  6 17  1  0  0  0  0
  6 32  1  0  0  0  0
  7 19  2  0  0  0  0
  8 20  2  0  0  0  0
  9  1  1  0  0  0  0
  9 10  1  0  0  0  0
  9 11  1  0  0  0  0
  9 33  1  6  0  0  0
 10  1  1  0  0  0  0
 10 12  1  0  0  0  0
 10 34  1  1  0  0  0
 11 13  1  0  0  0  0
 11 35  1  0  0  0  0
 11 36  1  0  0  0  0
 12 15  2  0  0  0  0
 12 16  1  0  0  0  0
 13  2  1  0  0  0  0
 13 14  1  0  0  0  0
 13 37  1  6  0  0  0
 14  3  1  0  0  0  0
 14 19  1  0  0  0  0
 14 38  1  1  0  0  0
 15 17  1  0  0  0  0
 15 20  1  0  0  0  0
 16 18  2  0  0  0  0
 16 39  1  0  0  0  0
 17 21  2  0  0  0  0
 18 21  1  0  0  0  0
 19 23  1  0  0  0  0
 21 40  1  0  0  0  0
 22 24  1  0  0  0  0
 22 26  1  0  0  0  0
 22 41  1  1  0  0  0
 23 25  2  0  0  0  0
 23 28  1  0  0  0  0
 24 25  1  0  0  0  0
 24 42  1  0  0  0  0
 24 43  1  0  0  0  0
 25 29  1  0  0  0  0
 26 44  1  0  0  0  0
 26 45  1  0  0  0  0
 26 46  1  0  0  0  0
 27 47  1  0  0  0  0
 27 48  1  0  0  0  0
 27 49  1  0  0  0  0
M  END
>  <DRUGBANK_ID>
DB07905

>  <COMMON_NAME>
Hypothemycin

>  <CAS_NUMBER>
76958-67-3

>  <SYNONYMS>
Aigialomycin A

$$$$
