
 OpenBabel10282417072D

 22 21  0  0  0  0  0  0  0  0999 V2000
   -0.7145    0.4125    0.0000 C   0  0  0  0  0  0  0  0  0  0  0  0
    0.0000    0.8251    0.0000 C   0  0  0  0  0  0  0  0  0  0  0  0
    0.7146    0.4125    0.0000 C   0  0  2  0  0  0  0  0  0  0  0  0
    0.7146   -0.4124    0.0000 N   0  0  0  0  0  0  0  0  0  0  0  0
    0.0000   -0.8250    0.0000 C   0  0  0  0  0  0  0  0  0  0  0  0
   -0.7145   -0.4124    0.0000 H   0  0  0  0  0  0  0  0  0  0  0  0
    1.4290    0.8250    0.0000 C   0  0  0  0  0  0  0  0  0  0  0  0
    1.4290    1.6500    0.0000 O   0  0  0  0  0  0  0  0  0  0  0  0
    2.1435    0.4124    0.0000 O   0  0  0  0  0  0  0  0  0  0  0  0
   -1.4289    0.8251    0.0000 S   0  0  0  0  0  0  0  0  0  0  0  0
   -2.1435    0.4126    0.0000 C   0  0  0  0  0  0  0  0  0  0  0  0
   -0.0001   -1.6500    0.0000 O   0  0  0  0  0  0  0  0  0  0  0  0
   -0.7145   -0.6575    0.0000 H   0  0  0  0  0  0  0  0  0  0  0  0
    0.2122   -0.1225    0.0000 H   0  0  0  0  0  0  0  0  0  0  0  0
   -0.0000    1.8951    0.0000 H   0  0  0  0  0  0  0  0  0  0  0  0
    0.9266    1.3601    0.0000 H   0  0  0  0  0  0  0  0  0  0  0  0
   -0.2121   -0.1225    0.0000 H   0  0  0  0  0  0  0  0  0  0  0  0
    1.5672   -0.9046    0.0000 H   0  0  0  0  0  0  0  0  0  0  0  0
    2.1434   -0.5246    0.0000 H   0  0  0  0  0  0  0  0  0  0  0  0
   -3.0701    0.9477    0.0000 H   0  0  0  0  0  0  0  0  0  0  0  0
   -2.1436   -0.6574    0.0000 H   0  0  0  0  0  0  0  0  0  0  0  0
   -3.0702   -0.1223    0.0000 H   0  0  0  0  0  0  0  0  0  0  0  0
  1 10  1  0  0  0  0
  1 13  1  0  0  0  0
  1 14  1  0  0  0  0
  2  1  1  0  0  0  0
  2 15  1  0  0  0  0
  2 16  1  0  0  0  0
  3  2  1  0  0  0  0
  3  7  1  0  0  0  0
  3  4  1  0  0  0  0
  3 17  1  6  0  0  0
  4  5  1  0  0  0  0
  4 18  1  0  0  0  0
  5 12  2  0  0  0  0
  5  6  1  0  0  0  0
  7  8  2  0  0  0  0
  7  9  1  0  0  0  0
  9 19  1  0  0  0  0
 10 11  1  0  0  0  0
 11 20  1  0  0  0  0
 11 21  1  0  0  0  0
 11 22  1  0  0  0  0
M  END
>  <DRUGBANK_ID>
DB04464

>  <SECONDARY_ACCESSION_NUMBERS>
EXPT01455

>  <COMMON_NAME>
N-Formylmethionine

>  <CAS_NUMBER>
4289-98-9

>  <UNII>
PS9357B4XH

>  <SYNONYMS>
(2S)-2-(formylamino)-4-(methylthio)butanoic acid; Formyl-methionine; L-N-Formylmethionine; N-formyl-L-methionine

$$$$
