
 OpenBabel10282417072D

 86 88  0  0  0  0  0  0  0  0999 V2000
   -2.4250    3.4476    0.0000 C   0  0  0  0  0  0  0  0  0  0  0  0
   -3.1395    3.0351    0.0000 C   0  0  0  0  0  0  0  0  0  0  0  0
   -3.1395    2.2101    0.0000 C   0  0  0  0  0  0  0  0  0  0  0  0
   -2.4250    1.7976    0.0000 C   0  0  0  0  0  0  0  0  0  0  0  0
   -1.7105    2.2101    0.0000 C   0  0  0  0  0  0  0  0  0  0  0  0
   -1.7105    3.0351    0.0000 C   0  0  0  0  0  0  0  0  0  0  0  0
   -0.9259    3.2901    0.0000 O   0  0  0  0  0  0  0  0  0  0  0  0
   -0.9259    1.9552    0.0000 C   0  0  0  0  0  0  0  0  0  0  0  0
   -0.4410    2.6226    0.0000 C   0  0  0  0  0  0  0  0  0  0  0  0
   -3.8540    1.7976    0.0000 C   0  0  0  0  0  0  0  0  0  0  0  0
   -4.5685    2.2101    0.0000 O   0  0  0  0  0  0  0  0  0  0  0  0
   -3.8540    0.9726    0.0000 O   0  0  0  0  0  0  0  0  0  0  0  0
   -5.2829    1.7976    0.0000 C   0  0  0  0  0  0  0  0  0  0  0  0
   -5.9975    2.2101    0.0000 C   0  0  0  0  0  0  0  0  0  0  0  0
   -5.2829    0.9726    0.0000 C   0  0  0  0  0  0  0  0  0  0  0  0
    0.3839    2.6226    0.0000 C   0  0  0  0  0  0  0  0  0  0  0  0
    0.7964    3.3371    0.0000 C   0  0  0  0  0  0  0  0  0  0  0  0
    1.6214    3.3371    0.0000 C   0  0  0  0  0  0  0  0  0  0  0  0
    2.0339    4.0516    0.0000 C   0  0  0  0  0  0  0  0  0  0  0  0
   -0.6710    1.1706    0.0000 C   0  0  0  0  0  0  0  0  0  0  0  0
    0.1359    0.9990    0.0000 C   0  0  0  0  0  0  0  0  0  0  0  0
   -1.2230    0.5575    0.0000 O   0  0  0  0  0  0  0  0  0  0  0  0
    0.6879    1.6121    0.0000 C   0  0  0  0  0  0  0  0  0  0  0  0
    0.3908    0.2144    0.0000 C   0  0  0  0  0  0  0  0  0  0  0  0
    1.1978    0.0429    0.0000 C   0  0  0  0  0  0  0  0  0  0  0  0
    1.7498    0.6560    0.0000 C   0  0  0  0  0  0  0  0  0  0  0  0
    1.4949    1.4406    0.0000 C   0  0  0  0  0  0  0  0  0  0  0  0
    2.5568    0.4845    0.0000 C   0  0  0  0  0  0  0  0  0  0  0  0
    2.8117   -0.3001    0.0000 C   0  0  0  0  0  0  0  0  0  0  0  0
    3.6187   -0.4716    0.0000 C   0  0  0  0  0  0  0  0  0  0  0  0
    3.8737   -1.2562    0.0000 N   0  0  0  0  0  0  0  0  0  0  0  0
    4.6806   -1.4277    0.0000 C   0  0  0  0  0  0  0  0  0  0  0  0
    4.9356   -2.2124    0.0000 C   0  0  0  0  0  0  0  0  0  0  0  0
    5.7425   -2.3839    0.0000 C   0  0  0  0  0  0  0  0  0  0  0  0
    5.9975   -3.1685    0.0000 C   0  0  0  0  0  0  0  0  0  0  0  0
    3.3216   -1.8693    0.0000 C   0  0  0  0  0  0  0  0  0  0  0  0
    3.5766   -2.6539    0.0000 C   0  0  0  0  0  0  0  0  0  0  0  0
    3.0245   -3.2670    0.0000 C   0  0  0  0  0  0  0  0  0  0  0  0
    3.2795   -4.0516    0.0000 C   0  0  0  0  0  0  0  0  0  0  0  0
   -2.4250    4.4796    0.0000 H   0  0  0  0  0  0  0  0  0  0  0  0
   -4.0332    3.5511    0.0000 H   0  0  0  0  0  0  0  0  0  0  0  0
   -2.4250    0.7656    0.0000 H   0  0  0  0  0  0  0  0  0  0  0  0
   -6.2095    1.2626    0.0000 H   0  0  0  0  0  0  0  0  0  0  0  0
   -5.9976    3.2801    0.0000 H   0  0  0  0  0  0  0  0  0  0  0  0
   -6.9241    1.6750    0.0000 H   0  0  0  0  0  0  0  0  0  0  0  0
   -6.9242    2.7450    0.0000 H   0  0  0  0  0  0  0  0  0  0  0  0
   -6.2095    0.4376    0.0000 H   0  0  0  0  0  0  0  0  0  0  0  0
   -4.3563    0.4376    0.0000 H   0  0  0  0  0  0  0  0  0  0  0  0
   -5.2829   -0.0974    0.0000 H   0  0  0  0  0  0  0  0  0  0  0  0
    0.9189    1.6960    0.0000 H   0  0  0  0  0  0  0  0  0  0  0  0
    1.4539    2.6226    0.0000 H   0  0  0  0  0  0  0  0  0  0  0  0
    0.2614    4.2637    0.0000 H   0  0  0  0  0  0  0  0  0  0  0  0
    1.3314    4.2637    0.0000 H   0  0  0  0  0  0  0  0  0  0  0  0
    2.1564    2.4105    0.0000 H   0  0  0  0  0  0  0  0  0  0  0  0
    2.6914    3.3371    0.0000 H   0  0  0  0  0  0  0  0  0  0  0  0
    3.1039    4.0516    0.0000 H   0  0  0  0  0  0  0  0  0  0  0  0
    1.4989    4.9782    0.0000 H   0  0  0  0  0  0  0  0  0  0  0  0
    2.5689    4.9783    0.0000 H   0  0  0  0  0  0  0  0  0  0  0  0
    0.3690    2.5936    0.0000 H   0  0  0  0  0  0  0  0  0  0  0  0
   -0.2997   -0.5525    0.0000 H   0  0  0  0  0  0  0  0  0  0  0  0
    1.5167   -0.9386    0.0000 H   0  0  0  0  0  0  0  0  0  0  0  0
    2.1854    2.2075    0.0000 H   0  0  0  0  0  0  0  0  0  0  0  0
    3.2728    1.2797    0.0000 H   0  0  0  0  0  0  0  0  0  0  0  0
    3.6034    0.2620    0.0000 H   0  0  0  0  0  0  0  0  0  0  0  0
    2.0957   -1.0953    0.0000 H   0  0  0  0  0  0  0  0  0  0  0  0
    3.1424   -1.3177    0.0000 H   0  0  0  0  0  0  0  0  0  0  0  0
    4.3346    0.3236    0.0000 H   0  0  0  0  0  0  0  0  0  0  0  0
    4.6653   -0.6940    0.0000 H   0  0  0  0  0  0  0  0  0  0  0  0
    5.3965   -0.6325    0.0000 H   0  0  0  0  0  0  0  0  0  0  0  0
    5.7272   -1.6501    0.0000 H   0  0  0  0  0  0  0  0  0  0  0  0
    4.2197   -3.0076    0.0000 H   0  0  0  0  0  0  0  0  0  0  0  0
    5.2663   -3.2300    0.0000 H   0  0  0  0  0  0  0  0  0  0  0  0
    6.4584   -1.5887    0.0000 H   0  0  0  0  0  0  0  0  0  0  0  0
    6.7891   -2.6063    0.0000 H   0  0  0  0  0  0  0  0  0  0  0  0
    5.2816   -3.9637    0.0000 H   0  0  0  0  0  0  0  0  0  0  0  0
    7.0441   -3.3909    0.0000 H   0  0  0  0  0  0  0  0  0  0  0  0
    6.3282   -4.1861    0.0000 H   0  0  0  0  0  0  0  0  0  0  0  0
    2.2750   -1.6468    0.0000 H   0  0  0  0  0  0  0  0  0  0  0  0
    2.6057   -2.6645    0.0000 H   0  0  0  0  0  0  0  0  0  0  0  0
    4.6232   -2.8764    0.0000 H   0  0  0  0  0  0  0  0  0  0  0  0
    3.9072   -3.6715    0.0000 H   0  0  0  0  0  0  0  0  0  0  0  0
    1.9779   -3.0445    0.0000 H   0  0  0  0  0  0  0  0  0  0  0  0
    2.3086   -4.0622    0.0000 H   0  0  0  0  0  0  0  0  0  0  0  0
    2.5636   -4.8468    0.0000 H   0  0  0  0  0  0  0  0  0  0  0  0
    4.3261   -4.2740    0.0000 H   0  0  0  0  0  0  0  0  0  0  0  0
    3.6102   -5.0692    0.0000 H   0  0  0  0  0  0  0  0  0  0  0  0
  1  2  2  0  0  0  0
  1  6  1  0  0  0  0
  1 40  1  0  0  0  0
  2  3  1  0  0  0  0
  2 41  1  0  0  0  0
  3  4  2  0  0  0  0
  3 10  1  0  0  0  0
  4  5  1  0  0  0  0
  4 42  1  0  0  0  0
  5  8  1  0  0  0  0
  6  5  2  0  0  0  0
  7  6  1  0  0  0  0
  7  9  1  0  0  0  0
  8  9  2  0  0  0  0
  8 20  1  0  0  0  0
  9 16  1  0  0  0  0
 10 11  1  0  0  0  0
 10 12  2  0  0  0  0
 11 13  1  0  0  0  0
 13 14  1  0  0  0  0
 13 15  1  0  0  0  0
 13 43  1  0  0  0  0
 14 44  1  0  0  0  0
 14 45  1  0  0  0  0
 14 46  1  0  0  0  0
 15 47  1  0  0  0  0
 15 48  1  0  0  0  0
 15 49  1  0  0  0  0
 16 17  1  0  0  0  0
 16 50  1  0  0  0  0
 16 51  1  0  0  0  0
 17 18  1  0  0  0  0
 17 52  1  0  0  0  0
 17 53  1  0  0  0  0
 18 19  1  0  0  0  0
 18 54  1  0  0  0  0
 18 55  1  0  0  0  0
 19 56  1  0  0  0  0
 19 57  1  0  0  0  0
 19 58  1  0  0  0  0
 20 21  1  0  0  0  0
 20 22  2  0  0  0  0
 21 24  1  0  0  0  0
 23 21  2  0  0  0  0
 23 27  1  0  0  0  0
 23 59  1  0  0  0  0
 24 25  2  0  0  0  0
 24 60  1  0  0  0  0
 25 26  1  0  0  0  0
 25 61  1  0  0  0  0
 26 27  2  0  0  0  0
 26 28  1  0  0  0  0
 27 62  1  0  0  0  0
 28 29  1  0  0  0  0
 28 63  1  0  0  0  0
 28 64  1  0  0  0  0
 29 30  1  0  0  0  0
 29 65  1  0  0  0  0
 29 66  1  0  0  0  0
 30 31  1  0  0  0  0
 30 67  1  0  0  0  0
 30 68  1  0  0  0  0
 31 32  1  0  0  0  0
 31 36  1  0  0  0  0
 32 33  1  0  0  0  0
 32 69  1  0  0  0  0
 32 70  1  0  0  0  0
 33 34  1  0  0  0  0
 33 71  1  0  0  0  0
 33 72  1  0  0  0  0
 34 35  1  0  0  0  0
 34 73  1  0  0  0  0
 34 74  1  0  0  0  0
 35 75  1  0  0  0  0
 35 76  1  0  0  0  0
 35 77  1  0  0  0  0
 36 37  1  0  0  0  0
 36 78  1  0  0  0  0
 36 79  1  0  0  0  0
 37 38  1  0  0  0  0
 37 80  1  0  0  0  0
 37 81  1  0  0  0  0
 38 39  1  0  0  0  0
 38 82  1  0  0  0  0
 38 83  1  0  0  0  0
 39 84  1  0  0  0  0
 39 85  1  0  0  0  0
 39 86  1  0  0  0  0
M  END
>  <DRUGBANK_ID>
DB16012

>  <COMMON_NAME>
Celivarone

>  <CAS_NUMBER>
401925-43-7

>  <UNII>
K45001587E

>  <SYNONYMS>
Celivarone; Isopropyl 2-butyl-3-(4-(3-(dibutylamino)propyl)benzoyl)-1-benzofuran-5-carboxylate

$$$$
