
 OpenBabel10282417072D

 50 50  0  0  0  0  0  0  0  0999 V2000
   -3.9296   -2.0625    0.0000 I   0  0  0  0  0  0  0  0  0  0  0  0
   -1.7862   -0.8250    0.0000 S   0  0  0  0  0  0  0  0  0  0  0  0
    0.3572    1.2375    0.0000 O   0  0  0  0  0  0  0  0  0  0  0  0
   -0.3572    1.6500    0.0000 O   0  0  0  0  0  0  0  0  0  0  0  0
    3.9296    0.0000    0.0000 O   0  0  0  0  0  0  0  0  0  0  0  0
    3.2152    1.2375    0.0000 O   0  0  0  0  0  0  0  0  0  0  0  0
   -2.5006    3.7125    0.0000 O   0  0  0  0  0  0  0  0  0  0  0  0
   -3.2152    2.4750    0.0000 O   0  0  0  0  0  0  0  0  0  0  0  0
   -0.3572    0.0000    0.0000 N   0  0  0  0  0  0  0  0  0  0  0  0
   -1.7862    1.6500    0.0000 N   0  0  0  0  0  0  0  0  0  0  0  0
    2.5006   -0.8250    0.0000 N   0  0  0  0  0  0  0  0  0  0  0  0
   -1.0717    0.4125    0.0000 C   0  0  1  0  0  0  0  0  0  0  0  0
    1.7862    0.4125    0.0000 C   0  0  0  0  0  0  0  0  0  0  0  0
    1.0717    0.0000    0.0000 C   0  0  0  0  0  0  0  0  0  0  0  0
   -1.7862    0.0000    0.0000 C   0  0  0  0  0  0  0  0  0  0  0  0
    2.5006    0.0000    0.0000 C   0  0  1  0  0  0  0  0  0  0  0  0
    0.3572    0.4125    0.0000 C   0  0  0  0  0  0  0  0  0  0  0  0
   -1.0717    1.2375    0.0000 C   0  0  0  0  0  0  0  0  0  0  0  0
   -2.5006   -1.2375    0.0000 C   0  0  0  0  0  0  0  0  0  0  0  0
    3.2152    0.4125    0.0000 C   0  0  0  0  0  0  0  0  0  0  0  0
   -2.5006   -2.0625    0.0000 C   0  0  0  0  0  0  0  0  0  0  0  0
   -1.7862    2.4750    0.0000 C   0  0  0  0  0  0  0  0  0  0  0  0
   -3.2152   -2.4750    0.0000 C   0  0  0  0  0  0  0  0  0  0  0  0
   -1.7862   -2.4750    0.0000 C   0  0  0  0  0  0  0  0  0  0  0  0
   -3.2152   -3.3000    0.0000 C   0  0  0  0  0  0  0  0  0  0  0  0
   -1.7862   -3.3000    0.0000 C   0  0  0  0  0  0  0  0  0  0  0  0
   -2.5006    2.8875    0.0000 C   0  0  0  0  0  0  0  0  0  0  0  0
   -2.5006   -3.7125    0.0000 C   0  0  0  0  0  0  0  0  0  0  0  0
   -0.3572   -0.5115    0.0000 H   0  0  0  0  0  0  0  0  0  0  0  0
   -2.2292    1.3942    0.0000 H   0  0  0  0  0  0  0  0  0  0  0  0
    2.9437   -1.0807    0.0000 H   0  0  0  0  0  0  0  0  0  0  0  0
    2.0577   -1.0807    0.0000 H   0  0  0  0  0  0  0  0  0  0  0  0
    3.9296   -0.9370    0.0000 H   0  0  0  0  0  0  0  0  0  0  0  0
   -1.6891    4.1810    0.0000 H   0  0  0  0  0  0  0  0  0  0  0  0
   -1.0717   -0.6575    0.0000 H   0  0  0  0  0  0  0  0  0  0  0  0
    1.7862    1.4825    0.0000 H   0  0  0  0  0  0  0  0  0  0  0  0
    2.7129    0.9475    0.0000 H   0  0  0  0  0  0  0  0  0  0  0  0
    1.0717   -1.0700    0.0000 H   0  0  0  0  0  0  0  0  0  0  0  0
    0.1451   -0.5350    0.0000 H   0  0  0  0  0  0  0  0  0  0  0  0
   -2.7128    0.5350    0.0000 H   0  0  0  0  0  0  0  0  0  0  0  0
   -1.7862    1.0700    0.0000 H   0  0  0  0  0  0  0  0  0  0  0  0
    1.5739   -0.5350    0.0000 H   0  0  0  0  0  0  0  0  0  0  0  0
   -3.4273   -0.7025    0.0000 H   0  0  0  0  0  0  0  0  0  0  0  0
   -3.4272   -1.7725    0.0000 H   0  0  0  0  0  0  0  0  0  0  0  0
   -0.8595    3.0100    0.0000 H   0  0  0  0  0  0  0  0  0  0  0  0
   -1.7862    3.5450    0.0000 H   0  0  0  0  0  0  0  0  0  0  0  0
   -0.8925   -1.9590    0.0000 H   0  0  0  0  0  0  0  0  0  0  0  0
   -4.1089   -3.8160    0.0000 H   0  0  0  0  0  0  0  0  0  0  0  0
   -0.8925   -3.8160    0.0000 H   0  0  0  0  0  0  0  0  0  0  0  0
   -2.5005   -4.7445    0.0000 H   0  0  0  0  0  0  0  0  0  0  0  0
  1 23  1  0  0  0  0
  2 15  1  0  0  0  0
  2 19  1  0  0  0  0
  3 17  2  0  0  0  0
  4 18  2  0  0  0  0
  5 20  1  0  0  0  0
  5 33  1  0  0  0  0
  6 20  2  0  0  0  0
  7 27  1  0  0  0  0
  7 34  1  0  0  0  0
  8 27  2  0  0  0  0
  9 17  1  0  0  0  0
  9 29  1  0  0  0  0
 10 18  1  0  0  0  0
 10 22  1  0  0  0  0
 10 30  1  0  0  0  0
 11 31  1  0  0  0  0
 11 32  1  0  0  0  0
 12  9  1  0  0  0  0
 12 15  1  0  0  0  0
 12 18  1  0  0  0  0
 12 35  1  6  0  0  0
 13 14  1  0  0  0  0
 13 16  1  0  0  0  0
 13 36  1  0  0  0  0
 13 37  1  0  0  0  0
 14 17  1  0  0  0  0
 14 38  1  0  0  0  0
 14 39  1  0  0  0  0
 15 40  1  0  0  0  0
 15 41  1  0  0  0  0
 16 11  1  0  0  0  0
 16 20  1  0  0  0  0
 16 42  1  6  0  0  0
 19 21  1  0  0  0  0
 19 43  1  0  0  0  0
 19 44  1  0  0  0  0
 21 23  1  0  0  0  0
 21 24  2  0  0  0  0
 22 27  1  0  0  0  0
 22 45  1  0  0  0  0
 22 46  1  0  0  0  0
 23 25  2  0  0  0  0
 24 26  1  0  0  0  0
 24 47  1  0  0  0  0
 25 28  1  0  0  0  0
 25 48  1  0  0  0  0
 26 28  2  0  0  0  0
 26 49  1  0  0  0  0
 28 50  1  0  0  0  0
M  END
>  <DRUGBANK_ID>
DB03597

>  <SECONDARY_ACCESSION_NUMBERS>
EXPT01826

>  <COMMON_NAME>
gamma-Glutamyl[S-(2-iodobenzyl)cysteinyl]glycine

$$$$
