
 OpenBabel10282417072D

 72 78  0  0  0  0  0  0  0  0999 V2000
   -0.0758    2.0697    0.0000 N   0  0  0  0  0  0  0  0  0  0  0  0
   -0.9727   -1.2654    0.0000 N   0  0  0  0  0  0  0  0  0  0  0  0
    0.5937    1.5938    0.0000 C   0  0  0  0  0  0  0  0  0  0  0  0
   -0.7327    1.5643    0.0000 C   0  0  0  0  0  0  0  0  0  0  0  0
   -0.9517   -2.4781    0.0000 C   0  0  1  0  0  0  0  0  0  0  0  0
   -0.4421   -0.6464    0.0000 C   0  0  0  0  0  0  0  0  0  0  0  0
   -0.4673    0.7854    0.0000 C   0  0  0  0  0  0  0  0  0  0  0  0
    0.3621    0.8063    0.0000 C   0  0  0  0  0  0  0  0  0  0  0  0
    0.3915   -0.6211    0.0000 C   0  0  0  0  0  0  0  0  0  0  0  0
   -0.8632    0.0610    0.0000 C   0  0  0  0  0  0  0  0  0  0  0  0
   -1.7307   -0.9496    0.0000 C   0  0  0  0  0  0  0  0  0  0  0  0
    0.7916    0.1032    0.0000 C   0  0  0  0  0  0  0  0  0  0  0  0
   -0.9517   -3.3119    0.0000 C   0  0  1  0  0  0  0  0  0  0  0  0
    0.9727   -1.2275    0.0000 N   0  0  0  0  0  0  0  0  0  0  0  0
   -1.6676   -0.1368    0.0000 C   0  0  0  0  0  0  0  0  0  0  0  0
   -1.6844   -2.0613    0.0000 O   0  0  0  0  0  0  0  0  0  0  0  0
   -1.6844   -3.7289    0.0000 C   0  0  2  0  0  0  0  0  0  0  0  0
    1.7138   -0.8612    0.0000 C   0  0  0  0  0  0  0  0  0  0  0  0
    1.6043   -0.0483    0.0000 C   0  0  0  0  0  0  0  0  0  0  0  0
   -2.4045   -3.3119    0.0000 C   0  0  1  0  0  0  0  0  0  0  0  0
   -2.4045   -2.4781    0.0000 C   0  0  1  0  0  0  0  0  0  0  0  0
   -0.1010    2.8908    0.0000 N   0  0  0  0  0  0  0  0  0  0  0  0
   -2.4677   -1.3033    0.0000 C   0  0  0  0  0  0  0  0  0  0  0  0
    2.4718   -1.1770    0.0000 C   0  0  0  0  0  0  0  0  0  0  0  0
   -2.3371    0.3306    0.0000 C   0  0  0  0  0  0  0  0  0  0  0  0
   -1.5285    1.8043    0.0000 O   0  0  0  0  0  0  0  0  0  0  0  0
    1.3769    1.8675    0.0000 O   0  0  0  0  0  0  0  0  0  0  0  0
    2.2571    0.4526    0.0000 C   0  0  0  0  0  0  0  0  0  0  0  0
    0.6064    3.3203    0.0000 C   0  0  0  0  0  0  0  0  0  0  0  0
   -0.2315   -3.7289    0.0000 O   0  0  0  0  0  0  0  0  0  0  0  0
   -1.6844   -4.5710    0.0000 O   0  0  0  0  0  0  0  0  0  0  0  0
   -3.1456   -0.8443    0.0000 C   0  0  0  0  0  0  0  0  0  0  0  0
    3.1287   -0.6716    0.0000 C   0  0  0  0  0  0  0  0  0  0  0  0
   -3.1329   -3.7289    0.0000 O   0  0  0  0  0  0  0  0  0  0  0  0
   -3.0824   -0.0231    0.0000 C   0  0  0  0  0  0  0  0  0  0  0  0
    3.0150    0.1494    0.0000 C   0  0  0  0  0  0  0  0  0  0  0  0
   -3.1329   -2.0613    0.0000 C   0  0  0  0  0  0  0  0  0  0  0  0
    3.8909   -0.9875    0.0000 O   0  0  0  0  0  0  0  0  0  0  0  0
   -3.8909   -1.1980    0.0000 O   0  0  0  0  0  0  0  0  0  0  0  0
   -3.7646   -2.6003    0.0000 O   0  0  0  0  0  0  0  0  0  0  0  0
    1.2886    4.5710    0.0000 O   0  0  0  0  0  0  0  0  0  0  0  0
    2.0339    3.3499    0.0000 O   0  0  0  0  0  0  0  0  0  0  0  0
    0.5811    4.1415    0.0000 C   0  0  0  0  0  0  0  0  0  0  0  0
    1.3264    2.9204    0.0000 C   0  0  0  0  0  0  0  0  0  0  0  0
   -2.0217   -2.4874    0.0000 H   0  0  0  0  0  0  0  0  0  0  0  0
   -0.0247   -2.7775    0.0000 H   0  0  0  0  0  0  0  0  0  0  0  0
    0.8025   -2.1972    0.0000 H   0  0  0  0  0  0  0  0  0  0  0  0
   -0.7594   -4.2668    0.0000 H   0  0  0  0  0  0  0  0  0  0  0  0
   -3.3302   -2.7752    0.0000 H   0  0  0  0  0  0  0  0  0  0  0  0
   -3.3301   -3.0149    0.0000 H   0  0  0  0  0  0  0  0  0  0  0  0
   -0.9975    3.3773    0.0000 H   0  0  0  0  0  0  0  0  0  0  0  0
   -2.5439   -2.3325    0.0000 H   0  0  0  0  0  0  0  0  0  0  0  0
    2.6061   -2.2002    0.0000 H   0  0  0  0  0  0  0  0  0  0  0  0
   -2.2514    1.3590    0.0000 H   0  0  0  0  0  0  0  0  0  0  0  0
    2.1162    1.4749    0.0000 H   0  0  0  0  0  0  0  0  0  0  0  0
    1.5201    3.8771    0.0000 H   0  0  0  0  0  0  0  0  0  0  0  0
   -0.2327   -4.6989    0.0000 H   0  0  0  0  0  0  0  0  0  0  0  0
   -2.5244   -5.0560    0.0000 H   0  0  0  0  0  0  0  0  0  0  0  0
   -3.9712   -3.2408    0.0000 H   0  0  0  0  0  0  0  0  0  0  0  0
   -3.9328    0.5615    0.0000 H   0  0  0  0  0  0  0  0  0  0  0  0
    3.8278    0.7853    0.0000 H   0  0  0  0  0  0  0  0  0  0  0  0
   -3.2326   -0.9960    0.0000 H   0  0  0  0  0  0  0  0  0  0  0  0
   -4.1244   -1.6589    0.0000 H   0  0  0  0  0  0  0  0  0  0  0  0
    4.0130   -1.9165    0.0000 H   0  0  0  0  0  0  0  0  0  0  0  0
   -4.6621   -0.6658    0.0000 H   0  0  0  0  0  0  0  0  0  0  0  0
   -4.6788   -2.2761    0.0000 H   0  0  0  0  0  0  0  0  0  0  0  0
    2.1391    4.1046    0.0000 H   0  0  0  0  0  0  0  0  0  0  0  0
    2.8844    2.8835    0.0000 H   0  0  0  0  0  0  0  0  0  0  0  0
   -0.3593    4.6519    0.0000 H   0  0  0  0  0  0  0  0  0  0  0  0
   -0.3299    3.5802    0.0000 H   0  0  0  0  0  0  0  0  0  0  0  0
    1.3471    1.8506    0.0000 H   0  0  0  0  0  0  0  0  0  0  0  0
    0.4095    2.3688    0.0000 H   0  0  0  0  0  0  0  0  0  0  0  0
  2  6  1  0  0  0  0
  3  1  1  0  0  0  0
  4  1  1  0  0  0  0
  5  2  1  0  0  0  0
  5 45  1  6  0  0  0
  6 10  1  0  0  0  0
  6  9  2  0  0  0  0
  7  4  1  0  0  0  0
  7  8  1  0  0  0  0
  8  3  1  0  0  0  0
  9 12  1  0  0  0  0
 10  7  2  0  0  0  0
 11 15  2  0  0  0  0
 11  2  1  0  0  0  0
 12  8  2  0  0  0  0
 13  5  1  0  0  0  0
 13 30  1  0  0  0  0
 13 46  1  1  0  0  0
 14  9  1  0  0  0  0
 14 18  1  0  0  0  0
 14 47  1  0  0  0  0
 15 10  1  0  0  0  0
 16  5  1  0  0  0  0
 17 13  1  0  0  0  0
 17 31  1  0  0  0  0
 17 20  1  0  0  0  0
 17 48  1  6  0  0  0
 18 19  2  0  0  0  0
 19 12  1  0  0  0  0
 20 21  1  0  0  0  0
 20 34  1  0  0  0  0
 20 49  1  1  0  0  0
 21 16  1  0  0  0  0
 21 37  1  0  0  0  0
 21 50  1  6  0  0  0
 22  1  1  0  0  0  0
 22 51  1  0  0  0  0
 23 11  1  0  0  0  0
 23 52  1  0  0  0  0
 24 18  1  0  0  0  0
 24 33  2  0  0  0  0
 24 53  1  0  0  0  0
 25 15  1  0  0  0  0
 25 54  1  0  0  0  0
 26  4  2  0  0  0  0
 27  3  2  0  0  0  0
 28 19  1  0  0  0  0
 28 55  1  0  0  0  0
 29 22  1  0  0  0  0
 29 56  1  0  0  0  0
 30 57  1  0  0  0  0
 31 58  1  0  0  0  0
 32 35  1  0  0  0  0
 32 23  2  0  0  0  0
 33 36  1  0  0  0  0
 34 59  1  0  0  0  0
 35 25  2  0  0  0  0
 35 60  1  0  0  0  0
 36 28  2  0  0  0  0
 36 61  1  0  0  0  0
 37 62  1  0  0  0  0
 37 63  1  0  0  0  0
 38 33  1  0  0  0  0
 38 64  1  0  0  0  0
 39 32  1  0  0  0  0
 39 65  1  0  0  0  0
 40 37  1  0  0  0  0
 40 66  1  0  0  0  0
 41 43  1  0  0  0  0
 41 67  1  0  0  0  0
 42 44  1  0  0  0  0
 42 68  1  0  0  0  0
 43 29  1  0  0  0  0
 43 69  1  0  0  0  0
 43 70  1  0  0  0  0
 44 29  1  0  0  0  0
 44 71  1  0  0  0  0
 44 72  1  0  0  0  0
M  END
>  <DRUGBANK_ID>
DB04882

>  <COMMON_NAME>
Edotecarin

>  <CAS_NUMBER>
174402-32-5

>  <UNII>
1V8X590XDP

>  <SYNONYMS>
E'dotecarine; Edotecarin; Edotecarina; Edotecarinum

$$$$
