
 OpenBabel10282417072D

  9  9  0  0  0  0  0  0  0  0999 V2000
   13.0661  -12.4506    0.0000 C   0  0  0  0  0  0  0  0  0  0  0  0
   13.0661  -13.2756    0.0000 N   0  0  0  0  0  0  0  0  0  0  0  0
   13.8507  -13.5305    0.0000 C   0  0  0  0  0  0  0  0  0  0  0  0
   14.3357  -12.8631    0.0000 C   0  0  0  0  0  0  0  0  0  0  0  0
   13.8507  -12.1957    0.0000 N   0  0  0  0  0  0  0  0  0  0  0  0
   12.2312  -11.8440    0.0000 H   0  0  0  0  0  0  0  0  0  0  0  0
   14.1696  -14.5120    0.0000 H   0  0  0  0  0  0  0  0  0  0  0  0
   15.3677  -12.8631    0.0000 H   0  0  0  0  0  0  0  0  0  0  0  0
   14.1549  -11.2594    0.0000 H   0  0  0  0  0  0  0  0  0  0  0  0
  1  2  2  0  0  0  0
  1  6  1  0  0  0  0
  2  3  1  0  0  0  0
  3  4  2  0  0  0  0
  3  7  1  0  0  0  0
  4  5  1  0  0  0  0
  4  8  1  0  0  0  0
  5  1  1  0  0  0  0
  5  9  1  0  0  0  0
M  END
>  <DRUGBANK_ID>
DB03366

>  <SECONDARY_ACCESSION_NUMBERS>
EXPT01865

>  <COMMON_NAME>
Imidazole

>  <CAS_NUMBER>
288-32-4

>  <UNII>
7GBN705NH1

$$$$
