
 OpenBabel10282417072D

 14 13  0  0  0  0  0  0  0  0999 V2000
    0.8250    1.4289    0.0000 C   0  0  0  0  0  0  0  0  0  0  0  0
    1.2375    0.7145    0.0000 C   0  0  0  0  0  0  0  0  0  0  0  0
    2.0625    0.7145    0.0000 C   0  0  0  0  0  0  0  0  0  0  0  0
    0.8250    0.0000    0.0000 C   0  0  0  0  0  0  0  0  0  0  0  0
    1.2375   -0.7145    0.0000 O   0  0  0  0  0  0  0  0  0  0  0  0
    0.0000    0.0000    0.0000 O   0  0  0  0  0  0  0  0  0  0  0  0
    1.3600    2.3556    0.0000 H   0  0  0  0  0  0  0  0  0  0  0  0
   -0.2450    1.4289    0.0000 H   0  0  0  0  0  0  0  0  0  0  0  0
    0.2900    2.3555    0.0000 H   0  0  0  0  0  0  0  0  0  0  0  0
    1.7725   -0.2121    0.0000 H   0  0  0  0  0  0  0  0  0  0  0  0
    2.5975   -0.2121    0.0000 H   0  0  0  0  0  0  0  0  0  0  0  0
    2.5975    1.6411    0.0000 H   0  0  0  0  0  0  0  0  0  0  0  0
    3.1325    0.7145    0.0000 H   0  0  0  0  0  0  0  0  0  0  0  0
    0.7690   -1.5260    0.0000 H   0  0  0  0  0  0  0  0  0  0  0  0
  1  2  1  0  0  0  0
  1  7  1  0  0  0  0
  1  8  1  0  0  0  0
  1  9  1  0  0  0  0
  2  3  1  0  0  0  0
  2  4  1  0  0  0  0
  2 10  1  0  0  0  0
  3 11  1  0  0  0  0
  3 12  1  0  0  0  0
  3 13  1  0  0  0  0
  4  5  1  0  0  0  0
  4  6  2  0  0  0  0
  5 14  1  0  0  0  0
M  END
>  <DRUGBANK_ID>
DB02531

>  <SECONDARY_ACCESSION_NUMBERS>
EXPT01932; DB04305

>  <COMMON_NAME>
Isobutyric acid

>  <CAS_NUMBER>
79-31-2

>  <UNII>
8LL210O1U0

>  <SYNONYMS>
2-methyl-propionic acid; 2-Methylpropanoate; 2-Methylpropanoic acid; 2-Methylpropionsäure; 2,2-dimethylacetic acid; Dimethylacetic acid; iso-butyric acid; Isobutanoate; Isobuttersäure; Isobutyrate; Isopropylformic acid; α-isobutyric acid; α-methylpropanoic acid; α-methylpropionic acid

$$$$
