
 OpenBabel10282417072D

 33 34  0  0  0  0  0  0  0  0999 V2000
    3.4036    3.9574    0.0000 C   0  0  0  0  0  0  0  0  0  0  0  0
    4.5208    3.0665    0.0000 C   0  0  0  0  0  0  0  0  0  0  0  0
    2.2027    0.0699    0.0000 C   0  0  0  0  0  0  0  0  0  0  0  0
    0.7017    3.2532    0.0000 C   0  0  0  0  0  0  0  0  0  0  0  0
    3.1906    1.0578    0.0000 C   0  0  0  0  0  0  0  0  0  0  0  0
    0.4717    1.8011    0.0000 C   0  0  0  0  0  0  0  0  0  0  0  0
    3.5485    1.8011    0.0000 C   0  0  0  0  0  0  0  0  0  0  0  0
    0.9566    1.1337    0.0000 C   0  0  0  0  0  0  0  0  0  0  0  0
    2.3863    2.7280    0.0000 C   0  0  0  0  0  0  0  0  0  0  0  0
    3.7050    3.1894    0.0000 C   0  0  0  0  0  0  0  0  0  0  0  0
    2.3863    0.8742    0.0000 C   0  0  0  0  0  0  0  0  0  0  0  0
    0.9566    2.4686    0.0000 C   0  0  0  0  0  0  0  0  0  0  0  0
    3.1906    2.5444    0.0000 C   0  0  0  0  0  0  0  0  0  0  0  0
    1.7413    1.3886    0.0000 C   0  0  0  0  0  0  0  0  0  0  0  0
    1.7413    2.2136    0.0000 C   0  0  0  0  0  0  0  0  0  0  0  0
    4.0708    4.7939    0.0000 H   0  0  0  0  0  0  0  0  0  0  0  0
    2.3456    4.1169    0.0000 H   0  0  0  0  0  0  0  0  0  0  0  0
    3.0127    4.9534    0.0000 H   0  0  0  0  0  0  0  0  0  0  0  0
    4.9118    2.0705    0.0000 H   0  0  0  0  0  0  0  0  0  0  0  0
    5.1879    3.9031    0.0000 H   0  0  0  0  0  0  0  0  0  0  0  0
    5.5789    2.9071    0.0000 H   0  0  0  0  0  0  0  0  0  0  0  0
    1.1802   -0.2455    0.0000 H   0  0  0  0  0  0  0  0  0  0  0  0
    2.9870   -0.6579    0.0000 H   0  0  0  0  0  0  0  0  0  0  0  0
    1.9646   -0.9733    0.0000 H   0  0  0  0  0  0  0  0  0  0  0  0
    1.4177    4.0483    0.0000 H   0  0  0  0  0  0  0  0  0  0  0  0
   -0.3449    3.4757    0.0000 H   0  0  0  0  0  0  0  0  0  0  0  0
    0.3711    4.2708    0.0000 H   0  0  0  0  0  0  0  0  0  0  0  0
    3.8341    0.2510    0.0000 H   0  0  0  0  0  0  0  0  0  0  0  0
   -0.5603    1.8011    0.0000 H   0  0  0  0  0  0  0  0  0  0  0  0
    4.5805    1.8011    0.0000 H   0  0  0  0  0  0  0  0  0  0  0  0
    0.6377    0.1522    0.0000 H   0  0  0  0  0  0  0  0  0  0  0  0
    2.1567    3.7341    0.0000 H   0  0  0  0  0  0  0  0  0  0  0  0
    4.0959    2.1934    0.0000 H   0  0  0  0  0  0  0  0  0  0  0  0
  1 16  1  0  0  0  0
  1 17  1  0  0  0  0
  1 18  1  0  0  0  0
  2 19  1  0  0  0  0
  2 20  1  0  0  0  0
  2 21  1  0  0  0  0
  3 22  1  0  0  0  0
  3 23  1  0  0  0  0
  3 24  1  0  0  0  0
  4 25  1  0  0  0  0
  4 26  1  0  0  0  0
  4 27  1  0  0  0  0
  5 28  1  0  0  0  0
  6 29  1  0  0  0  0
  7  5  2  0  0  0  0
  7 30  1  0  0  0  0
  8  6  2  0  0  0  0
  8 31  1  0  0  0  0
  9 32  1  0  0  0  0
 10  1  1  0  0  0  0
 10  2  1  0  0  0  0
 10 33  1  0  0  0  0
 11  3  1  0  0  0  0
 11  5  1  0  0  0  0
 12  4  1  0  0  0  0
 12  6  1  0  0  0  0
 13  7  1  0  0  0  0
 13  9  2  0  0  0  0
 13 10  1  0  0  0  0
 14  8  1  0  0  0  0
 14 11  2  0  0  0  0
 15  9  1  0  0  0  0
 15 12  2  0  0  0  0
 15 14  1  0  0  0  0
M  END
>  <DRUGBANK_ID>
DB13329

>  <COMMON_NAME>
Guaiazulen

>  <CAS_NUMBER>
489-84-9

>  <UNII>
2OZ1K9JKQC

>  <SYNONYMS>
Guaiazulene

$$$$
