
 OpenBabel10282417072D

 58 63  0  0  1  0  0  0  0  0999 V2000
    3.1257    1.7480    0.0000 C   0  0  0  0  0  0  0  0  0  0  0  0
    3.5382    1.0335    0.0000 C   0  0  1  0  0  0  0  0  0  0  0  0
    4.0902    0.4204    0.0000 C   0  0  0  0  0  0  0  0  0  0  0  0
    3.6777   -0.2941    0.0000 C   0  0  0  0  0  0  0  0  0  0  0  0
    2.8708   -0.1225    0.0000 C   0  0  0  0  0  0  0  0  0  0  0  0
    2.7845    0.6979    0.0000 N   0  0  0  0  0  0  0  0  0  0  0  0
    2.0701    1.1104    0.0000 C   0  0  0  0  0  0  0  0  0  0  0  0
    1.3556    0.6979    0.0000 N   0  0  0  0  0  0  0  0  0  0  0  0
    0.6411    1.1104    0.0000 N   0  0  0  0  0  0  0  0  0  0  0  0
   -0.1435    0.8555    0.0000 C   0  0  0  0  0  0  0  0  0  0  0  0
   -0.6284    1.5229    0.0000 C   0  0  0  0  0  0  0  0  0  0  0  0
   -0.1435    2.1904    0.0000 C   0  0  0  0  0  0  0  0  0  0  0  0
    0.6411    1.9354    0.0000 C   0  0  0  0  0  0  0  0  0  0  0  0
    1.3556    2.3479    0.0000 C   0  0  0  0  0  0  0  0  0  0  0  0
    1.3556    3.1729    0.0000 N   0  0  0  0  0  0  0  0  0  0  0  0
    0.6411    3.5854    0.0000 C   0  0  0  0  0  0  0  0  0  0  0  0
   -0.1126    3.2499    0.0000 N   0  0  0  0  0  0  0  0  0  0  0  0
   -0.6646    3.8630    0.0000 N   0  0  0  0  0  0  0  0  0  0  0  0
   -0.2521    4.5775    0.0000 C   0  0  0  0  0  0  0  0  0  0  0  0
    0.5549    4.4059    0.0000 C   0  0  0  0  0  0  0  0  0  0  0  0
   -0.5877    5.3311    0.0000 C   0  0  0  0  0  0  0  0  0  0  0  0
   -1.2551    5.8160    0.0000 C   0  0  0  0  0  0  0  0  0  0  0  0
   -0.5014    6.1516    0.0000 C   0  0  0  0  0  0  0  0  0  0  0  0
    2.0701    1.9354    0.0000 N   0  0  0  0  0  0  0  0  0  0  0  0
    4.2056    1.5184    0.0000 C   0  0  0  0  0  0  0  0  0  0  0  0
    4.9593    1.1829    0.0000 O   0  0  0  0  0  0  0  0  0  0  0  0
    4.1194    2.3389    0.0000 N   0  0  0  0  0  0  0  0  0  0  0  0
    4.7868    2.8238    0.0000 C   0  0  0  0  0  0  0  0  0  0  0  0
    4.7006    3.6443    0.0000 C   0  0  0  0  0  0  0  0  0  0  0  0
    5.3680    4.1292    0.0000 N   0  0  0  0  0  0  0  0  0  0  0  0
    6.1217    3.7937    0.0000 C   0  0  0  0  0  0  0  0  0  0  0  0
    6.7892    4.2786    0.0000 F   0  0  0  0  0  0  0  0  0  0  0  0
    6.2080    2.9732    0.0000 C   0  0  0  0  0  0  0  0  0  0  0  0
    5.5405    2.4883    0.0000 C   0  0  0  0  0  0  0  0  0  0  0  0
    3.6607    2.6746    0.0000 H   0  0  0  0  0  0  0  0  0  0  0  0
    2.0557    1.7480    0.0000 H   0  0  0  0  0  0  0  0  0  0  0  0
    2.5907    2.6747    0.0000 H   0  0  0  0  0  0  0  0  0  0  0  0
    5.1543    0.5322    0.0000 H   0  0  0  0  0  0  0  0  0  0  0  0
    4.6730   -0.4770    0.0000 H   0  0  0  0  0  0  0  0  0  0  0  0
    4.1129   -1.2716    0.0000 H   0  0  0  0  0  0  0  0  0  0  0  0
    3.0043   -1.1256    0.0000 H   0  0  0  0  0  0  0  0  0  0  0  0
    2.0756   -0.8385    0.0000 H   0  0  0  0  0  0  0  0  0  0  0  0
    1.8719    0.2609    0.0000 H   0  0  0  0  0  0  0  0  0  0  0  0
   -0.4624   -0.1260    0.0000 H   0  0  0  0  0  0  0  0  0  0  0  0
   -1.6604    1.5229    0.0000 H   0  0  0  0  0  0  0  0  0  0  0  0
   -0.4624    3.1719    0.0000 H   0  0  0  0  0  0  0  0  0  0  0  0
    2.2082    3.6652    0.0000 H   0  0  0  0  0  0  0  0  0  0  0  0
   -1.6437    3.7601    0.0000 H   0  0  0  0  0  0  0  0  0  0  0  0
    1.3219    5.0964    0.0000 H   0  0  0  0  0  0  0  0  0  0  0  0
   -1.0229    6.3086    0.0000 H   0  0  0  0  0  0  0  0  0  0  0  0
   -2.3192    5.9278    0.0000 H   0  0  0  0  0  0  0  0  0  0  0  0
   -1.4225    6.8728    0.0000 H   0  0  0  0  0  0  0  0  0  0  0  0
    0.1275    7.0172    0.0000 H   0  0  0  0  0  0  0  0  0  0  0  0
    0.4975    5.7681    0.0000 H   0  0  0  0  0  0  0  0  0  0  0  0
    3.2200    2.7394    0.0000 H   0  0  0  0  0  0  0  0  0  0  0  0
    3.7578    4.0641    0.0000 H   0  0  0  0  0  0  0  0  0  0  0  0
    7.1508    2.5535    0.0000 H   0  0  0  0  0  0  0  0  0  0  0  0
    5.6484    1.4620    0.0000 H   0  0  0  0  0  0  0  0  0  0  0  0
  1 35  1  0  0  0  0
  1 36  1  0  0  0  0
  1 37  1  0  0  0  0
  2  1  1  0  0  0  0
  2  3  1  0  0  0  0
  2  6  1  0  0  0  0
  2 25  1  6  0  0  0
  3  4  1  0  0  0  0
  3 38  1  0  0  0  0
  3 39  1  0  0  0  0
  4  5  1  0  0  0  0
  4 40  1  0  0  0  0
  4 41  1  0  0  0  0
  5  6  1  0  0  0  0
  5 42  1  0  0  0  0
  5 43  1  0  0  0  0
  6  7  1  0  0  0  0
  7  8  2  0  0  0  0
  7 24  1  0  0  0  0
  8  9  1  0  0  0  0
  9 10  1  0  0  0  0
  9 13  1  0  0  0  0
 10 11  2  0  0  0  0
 10 44  1  0  0  0  0
 11 12  1  0  0  0  0
 11 45  1  0  0  0  0
 12 13  2  0  0  0  0
 12 46  1  0  0  0  0
 13 14  1  0  0  0  0
 14 15  1  0  0  0  0
 14 24  2  0  0  0  0
 15 16  1  0  0  0  0
 15 47  1  0  0  0  0
 16 17  2  0  0  0  0
 16 20  1  0  0  0  0
 17 18  1  0  0  0  0
 18 19  1  0  0  0  0
 18 48  1  0  0  0  0
 19 20  2  0  0  0  0
 19 21  1  0  0  0  0
 20 49  1  0  0  0  0
 21 22  1  0  0  0  0
 21 23  1  0  0  0  0
 21 50  1  0  0  0  0
 22 23  1  0  0  0  0
 22 51  1  0  0  0  0
 22 52  1  0  0  0  0
 23 53  1  0  0  0  0
 23 54  1  0  0  0  0
 25 26  2  0  0  0  0
 25 27  1  0  0  0  0
 27 28  1  0  0  0  0
 27 55  1  0  0  0  0
 28 29  2  0  0  0  0
 28 34  1  0  0  0  0
 29 30  1  0  0  0  0
 29 56  1  0  0  0  0
 30 31  2  0  0  0  0
 31 32  1  0  0  0  0
 31 33  1  0  0  0  0
 33 34  2  0  0  0  0
 33 57  1  0  0  0  0
 34 58  1  0  0  0  0
M  END
>  <DRUGBANK_ID>
DB15399

>  <COMMON_NAME>
BMS-754807

>  <CAS_NUMBER>
1001350-96-4

>  <UNII>
W9E3353E8J

$$$$
