
 OpenBabel10282417072D

 56 61  0  0  0  0  0  0  0  0999 V2000
   -1.6582   -4.5036    0.0000 C   0  0  0  0  0  0  0  0  0  0  0  0
   -0.9569   -4.0690    0.0000 C   0  0  1  0  0  0  0  0  0  0  0  0
   -0.5223   -4.7702    0.0000 O   0  0  0  0  0  0  0  0  0  0  0  0
   -1.3915   -3.3678    0.0000 C   0  0  0  0  0  0  0  0  0  0  0  0
   -0.6903   -2.9331    0.0000 C   0  0  1  0  0  0  0  0  0  0  0  0
   -1.1249   -2.2319    0.0000 N   0  0  0  0  0  0  0  0  0  0  0  0
   -0.2557   -3.6344    0.0000 C   0  0  0  0  0  0  0  0  0  0  0  0
    0.0109   -2.4985    0.0000 C   0  0  0  0  0  0  0  0  0  0  0  0
   -0.0148   -1.6739    0.0000 C   0  0  0  0  0  0  0  0  0  0  0  0
    0.6864   -1.2393    0.0000 C   0  0  0  0  0  0  0  0  0  0  0  0
    1.4134   -1.6293    0.0000 C   0  0  0  0  0  0  0  0  0  0  0  0
    1.4392   -2.4539    0.0000 C   0  0  0  0  0  0  0  0  0  0  0  0
    0.7379   -2.8885    0.0000 C   0  0  0  0  0  0  0  0  0  0  0  0
    2.1147   -1.1947    0.0000 C   0  0  0  0  0  0  0  0  0  0  0  0
    2.1752   -0.3719    0.0000 C   0  0  0  0  0  0  0  0  0  0  0  0
    2.9765   -0.1753    0.0000 N   0  0  0  0  0  0  0  0  0  0  0  0
    3.3664    0.5517    0.0000 C   0  0  0  0  0  0  0  0  0  0  0  0
    4.1910    0.5775    0.0000 O   0  0  0  0  0  0  0  0  0  0  0  0
    4.6256   -0.1238    0.0000 C   0  0  0  0  0  0  0  0  0  0  0  0
    5.4502   -0.0980    0.0000 C   0  0  0  0  0  0  0  0  0  0  0  0
    5.8849   -0.7992    0.0000 C   0  0  0  0  0  0  0  0  0  0  0  0
    5.4949   -1.5262    0.0000 N   0  0  0  0  0  0  0  0  0  0  0  0
    4.6703   -1.5520    0.0000 C   0  0  0  0  0  0  0  0  0  0  0  0
    4.2357   -0.8508    0.0000 C   0  0  0  0  0  0  0  0  0  0  0  0
    3.4111   -0.8765    0.0000 C   0  0  0  0  0  0  0  0  0  0  0  0
    2.8784   -1.5066    0.0000 N   0  0  0  0  0  0  0  0  0  0  0  0
    1.5452    0.1607    0.0000 C   0  0  0  0  0  0  0  0  0  0  0  0
    0.7689   -0.1186    0.0000 C   0  0  0  0  0  0  0  0  0  0  0  0
    0.1389    0.4140    0.0000 C   0  0  0  0  0  0  0  0  0  0  0  0
    0.2851    1.2259    0.0000 C   0  0  0  0  0  0  0  0  0  0  0  0
    1.0614    1.5052    0.0000 C   0  0  0  0  0  0  0  0  0  0  0  0
    1.6914    0.9726    0.0000 C   0  0  0  0  0  0  0  0  0  0  0  0
   -2.6011   -3.9978    0.0000 H   0  0  0  0  0  0  0  0  0  0  0  0
   -1.6248   -5.5731    0.0000 H   0  0  0  0  0  0  0  0  0  0  0  0
   -2.5677   -5.0672    0.0000 H   0  0  0  0  0  0  0  0  0  0  0  0
   -0.9808   -5.6250    0.0000 H   0  0  0  0  0  0  0  0  0  0  0  0
   -2.4332   -3.1233    0.0000 H   0  0  0  0  0  0  0  0  0  0  0  0
   -1.5643   -2.3118    0.0000 H   0  0  0  0  0  0  0  0  0  0  0  0
   -0.6427   -1.3331    0.0000 H   0  0  0  0  0  0  0  0  0  0  0  0
   -2.1444   -2.2638    0.0000 H   0  0  0  0  0  0  0  0  0  0  0  0
    0.7860   -3.8789    0.0000 H   0  0  0  0  0  0  0  0  0  0  0  0
   -0.0830   -4.6904    0.0000 H   0  0  0  0  0  0  0  0  0  0  0  0
   -0.9242   -1.1860    0.0000 H   0  0  0  0  0  0  0  0  0  0  0  0
    0.6542   -0.2078    0.0000 H   0  0  0  0  0  0  0  0  0  0  0  0
    2.3486   -2.9417    0.0000 H   0  0  0  0  0  0  0  0  0  0  0  0
    0.7701   -3.9200    0.0000 H   0  0  0  0  0  0  0  0  0  0  0  0
    2.8027    1.4612    0.0000 H   0  0  0  0  0  0  0  0  0  0  0  0
    3.8721    1.4946    0.0000 H   0  0  0  0  0  0  0  0  0  0  0  0
    5.9380    0.8115    0.0000 H   0  0  0  0  0  0  0  0  0  0  0  0
    6.9164   -0.7669    0.0000 H   0  0  0  0  0  0  0  0  0  0  0  0
    4.1825   -2.4614    0.0000 H   0  0  0  0  0  0  0  0  0  0  0  0
    0.5859   -1.1343    0.0000 H   0  0  0  0  0  0  0  0  0  0  0  0
   -0.8321    0.0646    0.0000 H   0  0  0  0  0  0  0  0  0  0  0  0
   -0.5030    1.8922    0.0000 H   0  0  0  0  0  0  0  0  0  0  0  0
    1.2444    2.5209    0.0000 H   0  0  0  0  0  0  0  0  0  0  0  0
    2.6624    1.3220    0.0000 H   0  0  0  0  0  0  0  0  0  0  0  0
  1 33  1  0  0  0  0
  1 34  1  0  0  0  0
  1 35  1  0  0  0  0
  2  1  1  0  0  0  0
  2  3  1  6  0  0  0
  2  4  1  0  0  0  0
  2  7  1  0  0  0  0
  3 36  1  0  0  0  0
  4 37  1  0  0  0  0
  4 38  1  0  0  0  0
  5  4  1  0  0  0  0
  5  6  1  1  0  0  0
  5  7  1  0  0  0  0
  5  8  1  0  0  0  0
  6 39  1  0  0  0  0
  6 40  1  0  0  0  0
  7 41  1  0  0  0  0
  7 42  1  0  0  0  0
  8  9  2  0  0  0  0
  8 13  1  0  0  0  0
  9 10  1  0  0  0  0
  9 43  1  0  0  0  0
 10 11  2  0  0  0  0
 10 44  1  0  0  0  0
 11 12  1  0  0  0  0
 11 14  1  0  0  0  0
 12 13  2  0  0  0  0
 12 45  1  0  0  0  0
 13 46  1  0  0  0  0
 14 15  2  0  0  0  0
 14 26  1  0  0  0  0
 15 16  1  0  0  0  0
 15 27  1  0  0  0  0
 16 17  1  0  0  0  0
 16 25  1  0  0  0  0
 17 18  1  0  0  0  0
 17 47  1  0  0  0  0
 17 48  1  0  0  0  0
 18 19  1  0  0  0  0
 19 20  2  0  0  0  0
 19 24  1  0  0  0  0
 20 21  1  0  0  0  0
 20 49  1  0  0  0  0
 21 22  2  0  0  0  0
 21 50  1  0  0  0  0
 22 23  1  0  0  0  0
 23 24  2  0  0  0  0
 23 51  1  0  0  0  0
 24 25  1  0  0  0  0
 25 26  2  0  0  0  0
 27 28  2  0  0  0  0
 27 32  1  0  0  0  0
 28 29  1  0  0  0  0
 28 52  1  0  0  0  0
 29 30  2  0  0  0  0
 29 53  1  0  0  0  0
 30 31  1  0  0  0  0
 30 54  1  0  0  0  0
 31 32  2  0  0  0  0
 31 55  1  0  0  0  0
 32 56  1  0  0  0  0
M  END
>  <DRUGBANK_ID>
DB15054

>  <COMMON_NAME>
TAS-117

>  <CAS_NUMBER>
1402602-94-1

>  <UNII>
QI52W1ZIIB

$$$$
