
 OpenBabel10282417072D

 25 24  0  0  0  0  0  0  0  0999 V2000
    1.0717    1.0312    0.0000 C   0  0  0  0  0  0  0  0  0  0  0  0
    1.0717   -1.4437    0.0000 C   0  0  0  0  0  0  0  0  0  0  0  0
    1.7861   -1.8562    0.0000 O   0  0  0  0  0  0  0  0  0  0  0  0
    1.0717    1.8562    0.0000 O   0  0  0  0  0  0  0  0  0  0  0  0
    0.3572   -0.2062    0.0000 N   0  0  0  0  0  0  0  0  0  0  0  0
    1.0717   -0.6187    0.0000 C   0  0  0  0  0  0  0  0  0  0  0  0
   -0.3572   -0.6187    0.0000 C   0  0  0  0  0  0  0  0  0  0  0  0
   -1.0716   -0.2062    0.0000 C   0  0  0  0  0  0  0  0  0  0  0  0
   -1.7861   -0.6187    0.0000 O   0  0  0  0  0  0  0  0  0  0  0  0
    0.3572    0.6187    0.0000 C   0  0  0  0  0  0  0  0  0  0  0  0
    1.9983    0.4962    0.0000 H   0  0  0  0  0  0  0  0  0  0  0  0
    1.9983    1.5662    0.0000 H   0  0  0  0  0  0  0  0  0  0  0  0
    0.1450   -1.9787    0.0000 H   0  0  0  0  0  0  0  0  0  0  0  0
    1.0717   -2.5137    0.0000 H   0  0  0  0  0  0  0  0  0  0  0  0
    1.7861   -2.8262    0.0000 H   0  0  0  0  0  0  0  0  0  0  0  0
    1.9117    2.3412    0.0000 H   0  0  0  0  0  0  0  0  0  0  0  0
    1.9983   -0.0837    0.0000 H   0  0  0  0  0  0  0  0  0  0  0  0
    1.0717    0.4513    0.0000 H   0  0  0  0  0  0  0  0  0  0  0  0
   -0.3572   -1.6887    0.0000 H   0  0  0  0  0  0  0  0  0  0  0  0
   -1.2839   -1.1537    0.0000 H   0  0  0  0  0  0  0  0  0  0  0  0
   -1.0716    0.8638    0.0000 H   0  0  0  0  0  0  0  0  0  0  0  0
   -1.9982    0.3288    0.0000 H   0  0  0  0  0  0  0  0  0  0  0  0
   -2.6261   -0.1337    0.0000 H   0  0  0  0  0  0  0  0  0  0  0  0
   -0.5694    1.1537    0.0000 H   0  0  0  0  0  0  0  0  0  0  0  0
   -0.5694    0.0837    0.0000 H   0  0  0  0  0  0  0  0  0  0  0  0
  1 11  1  0  0  0  0
  1 12  1  0  0  0  0
  2 13  1  0  0  0  0
  2 14  1  0  0  0  0
  3  2  1  0  0  0  0
  3 15  1  0  0  0  0
  4  1  1  0  0  0  0
  4 16  1  0  0  0  0
  5  6  1  0  0  0  0
  5  7  1  0  0  0  0
  5 10  1  0  0  0  0
  6  2  1  0  0  0  0
  6 17  1  0  0  0  0
  6 18  1  0  0  0  0
  7  8  1  0  0  0  0
  7 19  1  0  0  0  0
  7 20  1  0  0  0  0
  8  9  1  0  0  0  0
  8 21  1  0  0  0  0
  8 22  1  0  0  0  0
  9 23  1  0  0  0  0
 10  1  1  0  0  0  0
 10 24  1  0  0  0  0
 10 25  1  0  0  0  0
M  END
>  <DRUGBANK_ID>
DB13747

>  <COMMON_NAME>
Trolamine

>  <CAS_NUMBER>
102-71-6

>  <UNII>
9O3K93S3TK

>  <SYNONYMS>
2,2',2''-nitrilotris(ethanol); nitrilo-2,2',2''-triethanol; nitrilotriethanol; triethanolamine; tris(2-hydroxyethyl)amine; tris(Î²-hydroxyethyl)amine; Trolamine

$$$$
