
 OpenBabel10282417072D

 47 49  0  0  0  0  0  0  0  0999 V2000
    2.9678    0.4969    0.0000 S   0  0  0  0  0  0  0  0  0  0  0  0
   -2.7593   -1.8523    0.0000 O   0  0  0  0  0  0  0  0  0  0  0  0
    0.0834    0.6151    0.0000 N   0  0  0  0  0  0  0  0  0  0  0  0
   -2.0435   -0.6151    0.0000 C   0  0  0  0  0  0  0  0  0  0  0  0
   -2.0435    0.2119    0.0000 C   0  0  0  0  0  0  0  0  0  0  0  0
   -0.6185    0.2119    0.0000 C   0  0  2  0  0  0  0  0  0  0  0  0
   -1.3345    0.6220    0.0000 C   0  0  0  0  0  0  0  0  0  0  0  0
   -2.7593   -1.0252    0.0000 C   0  0  0  0  0  0  0  0  0  0  0  0
   -1.3345   -1.0252    0.0000 C   0  0  0  0  0  0  0  0  0  0  0  0
   -0.6185   -0.6151    0.0000 C   0  0  0  0  0  0  0  0  0  0  0  0
   -2.7593    0.6220    0.0000 C   0  0  0  0  0  0  0  0  0  0  0  0
   -3.4752   -0.6151    0.0000 C   0  0  0  0  0  0  0  0  0  0  0  0
    0.7854    0.2119    0.0000 C   0  0  0  0  0  0  0  0  0  0  0  0
   -3.4752    0.2119    0.0000 C   0  0  0  0  0  0  0  0  0  0  0  0
    0.0903    1.4492    0.0000 C   0  0  0  0  0  0  0  0  0  0  0  0
    2.1894    0.2119    0.0000 C   0  0  0  0  0  0  0  0  0  0  0  0
    1.4874    0.6151    0.0000 C   0  0  0  0  0  0  0  0  0  0  0  0
    2.2172   -0.6151    0.0000 C   0  0  0  0  0  0  0  0  0  0  0  0
    0.7923    1.8523    0.0000 C   0  0  0  0  0  0  0  0  0  0  0  0
    3.4752   -0.1564    0.0000 C   0  0  0  0  0  0  0  0  0  0  0  0
    3.0165   -0.8374    0.0000 C   0  0  0  0  0  0  0  0  0  0  0  0
    1.4874    1.4492    0.0000 C   0  0  0  0  0  0  0  0  0  0  0  0
   -3.5708   -2.3208    0.0000 H   0  0  0  0  0  0  0  0  0  0  0  0
   -0.6192    1.2819    0.0000 H   0  0  0  0  0  0  0  0  0  0  0  0
   -1.3368    1.6920    0.0000 H   0  0  0  0  0  0  0  0  0  0  0  0
   -0.4093    1.1596    0.0000 H   0  0  0  0  0  0  0  0  0  0  0  0
   -1.3368   -2.0952    0.0000 H   0  0  0  0  0  0  0  0  0  0  0  0
   -0.4093   -1.5628    0.0000 H   0  0  0  0  0  0  0  0  0  0  0  0
    0.3072   -1.1517    0.0000 H   0  0  0  0  0  0  0  0  0  0  0  0
   -0.6213   -1.6851    0.0000 H   0  0  0  0  0  0  0  0  0  0  0  0
   -2.7593    1.6540    0.0000 H   0  0  0  0  0  0  0  0  0  0  0  0
   -4.3681   -1.1326    0.0000 H   0  0  0  0  0  0  0  0  0  0  0  0
    0.7854   -0.8581    0.0000 H   0  0  0  0  0  0  0  0  0  0  0  0
    1.7114   -0.3241    0.0000 H   0  0  0  0  0  0  0  0  0  0  0  0
   -4.3681    0.7294    0.0000 H   0  0  0  0  0  0  0  0  0  0  0  0
   -0.8335    1.9891    0.0000 H   0  0  0  0  0  0  0  0  0  0  0  0
    0.0944    2.5192    0.0000 H   0  0  0  0  0  0  0  0  0  0  0  0
    1.4874    1.6851    0.0000 H   0  0  0  0  0  0  0  0  0  0  0  0
    2.4134    1.1511    0.0000 H   0  0  0  0  0  0  0  0  0  0  0  0
    1.4061   -1.2532    0.0000 H   0  0  0  0  0  0  0  0  0  0  0  0
    0.7946    2.9223    0.0000 H   0  0  0  0  0  0  0  0  0  0  0  0
    1.7200    2.3854    0.0000 H   0  0  0  0  0  0  0  0  0  0  0  0
    4.5066   -0.1215    0.0000 H   0  0  0  0  0  0  0  0  0  0  0  0
    3.3736   -1.8056    0.0000 H   0  0  0  0  0  0  0  0  0  0  0  0
    1.4853    0.3792    0.0000 H   0  0  0  0  0  0  0  0  0  0  0  0
    2.4151    1.9824    0.0000 H   0  0  0  0  0  0  0  0  0  0  0  0
    2.4130    0.9124    0.0000 H   0  0  0  0  0  0  0  0  0  0  0  0
  1 16  1  0  0  0  0
  1 20  1  0  0  0  0
  2  8  1  0  0  0  0
  2 23  1  0  0  0  0
  3 13  1  0  0  0  0
  3 15  1  0  0  0  0
  4  5  1  0  0  0  0
  4  8  2  0  0  0  0
  4  9  1  0  0  0  0
  5  7  1  0  0  0  0
  5 11  2  0  0  0  0
  6  3  1  0  0  0  0
  6  7  1  0  0  0  0
  6 10  1  0  0  0  0
  6 24  1  6  0  0  0
  7 25  1  0  0  0  0
  7 26  1  0  0  0  0
  8 12  1  0  0  0  0
  9 10  1  0  0  0  0
  9 27  1  0  0  0  0
  9 28  1  0  0  0  0
 10 29  1  0  0  0  0
 10 30  1  0  0  0  0
 11 14  1  0  0  0  0
 11 31  1  0  0  0  0
 12 14  2  0  0  0  0
 12 32  1  0  0  0  0
 13 17  1  0  0  0  0
 13 33  1  0  0  0  0
 13 34  1  0  0  0  0
 14 35  1  0  0  0  0
 15 19  1  0  0  0  0
 15 36  1  0  0  0  0
 15 37  1  0  0  0  0
 16 17  1  0  0  0  0
 16 18  2  0  0  0  0
 17 38  1  0  0  0  0
 17 39  1  0  0  0  0
 18 21  1  0  0  0  0
 18 40  1  0  0  0  0
 19 22  1  0  0  0  0
 19 41  1  0  0  0  0
 19 42  1  0  0  0  0
 20 21  2  0  0  0  0
 20 43  1  0  0  0  0
 21 44  1  0  0  0  0
 22 45  1  0  0  0  0
 22 46  1  0  0  0  0
 22 47  1  0  0  0  0
M  END
>  <DRUGBANK_ID>
DB05271

>  <COMMON_NAME>
Rotigotine

>  <CAS_NUMBER>
99755-59-6

>  <UNII>
87T4T8BO2E

>  <SYNONYMS>
(6S)-6-(propyl(2-(2-thienyl)ethyl)amino)-5,6,7,8-tetrahydro-1-naphthalenol; Rotigotina; Rotigotine

$$$$
