
 OpenBabel10282417072D

 16 16  0  0  0  0  0  0  0  0999 V2000
    2.0076   -1.1360    0.0000 F   0  0  0  0  0  0  0  0  0  0  0  0
    1.7057   -0.0090    0.0000 F   0  0  0  0  0  0  0  0  0  0  0  0
    0.8807   -1.4380    0.0000 F   0  0  0  0  0  0  0  0  0  0  0  0
   -0.1358   -0.7235    0.0000 N   0  0  0  0  0  0  0  0  0  0  0  0
    0.5787    0.5139    0.0000 N   0  0  0  0  0  0  0  0  0  0  0  0
   -1.5647   -0.7235    0.0000 N   0  0  0  0  0  0  0  0  0  0  0  0
    0.5787   -0.3110    0.0000 C   0  0  0  0  0  0  0  0  0  0  0  0
   -0.8502    0.5139    0.0000 C   0  0  0  0  0  0  0  0  0  0  0  0
    1.2932   -0.7235    0.0000 C   0  0  0  0  0  0  0  0  0  0  0  0
   -0.8502   -0.3110    0.0000 C   0  0  0  0  0  0  0  0  0  0  0  0
   -0.1358    0.9265    0.0000 C   0  0  0  0  0  0  0  0  0  0  0  0
   -1.5647    0.9265    0.0000 C   0  0  0  0  0  0  0  0  0  0  0  0
   -2.4173   -0.2312    0.0000 H   0  0  0  0  0  0  0  0  0  0  0  0
   -0.1358    1.9585    0.0000 H   0  0  0  0  0  0  0  0  0  0  0  0
   -1.5646    1.9585    0.0000 H   0  0  0  0  0  0  0  0  0  0  0  0
   -2.4585    0.4106    0.0000 H   0  0  0  0  0  0  0  0  0  0  0  0
  1  9  1  0  0  0  0
  2  9  1  0  0  0  0
  3  9  1  0  0  0  0
  4  7  2  0  0  0  0
  4 10  1  0  0  0  0
  5  7  1  0  0  0  0
  5 11  2  0  0  0  0
  6 10  2  0  0  0  0
  6 13  1  0  0  0  0
  7  9  1  0  0  0  0
  8 10  1  0  0  0  0
  8 11  1  0  0  0  0
  8 12  2  0  0  0  0
 11 14  1  0  0  0  0
 12 15  1  0  0  0  0
 12 16  1  0  0  0  0
M  END
>  <DRUGBANK_ID>
DB02885

>  <SECONDARY_ACCESSION_NUMBERS>
EXPT01848

>  <COMMON_NAME>
4-Imino-5-methidyl-2-trifluoromethylpyrimidine

>  <CAS_NUMBER>
921227-53-4

$$$$
