
 OpenBabel10282417072D

 46 47  0  0  1  0  0  0  0  0999 V2000
   -0.7145    0.4125    0.0000 O   0  0  0  0  0  0  0  0  0  0  0  0
    0.0000    0.0000    0.0000 C   0  0  0  0  0  0  0  0  0  0  0  0
    0.7145    0.4125    0.0000 C   0  0  3  0  0  0  0  0  0  0  0  0
    0.0000   -0.8250    0.0000 O   0  0  0  0  0  0  0  0  0  0  0  0
    0.7145    1.2375    0.0000 O   0  0  0  0  0  0  0  0  0  0  0  0
    1.4290    0.0000    0.0000 C   0  0  0  0  0  0  0  0  0  0  0  0
    1.4290   -0.8250    0.0000 C   0  0  0  0  0  0  0  0  0  0  0  0
    2.1434    0.4125    0.0000 C   0  0  0  0  0  0  0  0  0  0  0  0
    2.8579    0.0001    0.0000 C   0  0  0  0  0  0  0  0  0  0  0  0
    2.8579   -0.8250    0.0000 C   0  0  0  0  0  0  0  0  0  0  0  0
    2.1434   -1.2375    0.0000 C   0  0  0  0  0  0  0  0  0  0  0  0
   -2.0738   -1.3395    0.0000 C   0  0  3  0  0  0  0  0  0  0  0  0
   -1.4289   -0.8250    0.0000 C   0  0  0  0  0  0  0  0  0  0  0  0
   -2.8783    0.3307    0.0000 C   0  0  3  0  0  0  0  0  0  0  0  0
   -2.0740    0.5143    0.0000 C   0  0  0  0  0  0  0  0  0  0  0  0
   -1.4289    0.0000    0.0000 C   0  0  3  0  0  0  0  0  0  0  0  0
   -1.9509   -0.1194    0.0000 N   0  3  0  0  0  0  0  0  0  0  0  0
   -1.2473    1.5548    0.0000 Br  0  5  0  0  0  0  0  0  0  0  0  0
   -3.2908   -0.3838    0.0000 C   0  0  0  0  0  0  0  0  0  0  0  0
   -2.8707   -1.1260    0.0000 C   0  0  0  0  0  0  0  0  0  0  0  0
   -1.7374    0.6774    0.0000 C   0  0  0  0  0  0  0  0  0  0  0  0
   -1.1540   -0.3330    0.0000 C   0  0  0  0  0  0  0  0  0  0  0  0
    0.7145   -0.6575    0.0000 H   0  0  0  0  0  0  0  0  0  0  0  0
    1.5545    1.7225    0.0000 H   0  0  0  0  0  0  0  0  0  0  0  0
    0.5353   -1.3410    0.0000 H   0  0  0  0  0  0  0  0  0  0  0  0
    2.1433    1.4445    0.0000 H   0  0  0  0  0  0  0  0  0  0  0  0
    3.7516    0.5162    0.0000 H   0  0  0  0  0  0  0  0  0  0  0  0
    3.7516   -1.3410    0.0000 H   0  0  0  0  0  0  0  0  0  0  0  0
    2.1434   -2.2695    0.0000 H   0  0  0  0  0  0  0  0  0  0  0  0
   -1.5619   -0.3999    0.0000 H   0  0  0  0  0  0  0  0  0  0  0  0
   -0.4648   -1.2892    0.0000 H   0  0  0  0  0  0  0  0  0  0  0  0
   -0.5229   -0.2557    0.0000 H   0  0  0  0  0  0  0  0  0  0  0  0
   -1.8152    0.2093    0.0000 H   0  0  0  0  0  0  0  0  0  0  0  0
   -1.8360    1.5575    0.0000 H   0  0  0  0  0  0  0  0  0  0  0  0
   -1.0641    0.8678    0.0000 H   0  0  0  0  0  0  0  0  0  0  0  0
   -0.5022   -0.5350    0.0000 H   0  0  0  0  0  0  0  0  0  0  0  0
   -4.3608   -0.3792    0.0000 H   0  0  0  0  0  0  0  0  0  0  0  0
   -3.8317   -1.3070    0.0000 H   0  0  0  0  0  0  0  0  0  0  0  0
   -3.5257   -1.9721    0.0000 H   0  0  0  0  0  0  0  0  0  0  0  0
   -3.9379   -1.0492    0.0000 H   0  0  0  0  0  0  0  0  0  0  0  0
   -0.7039    0.9543    0.0000 H   0  0  0  0  0  0  0  0  0  0  0  0
   -2.4940    1.4340    0.0000 H   0  0  0  0  0  0  0  0  0  0  0  0
   -1.4605    1.7109    0.0000 H   0  0  0  0  0  0  0  0  0  0  0  0
   -0.8771   -1.3666    0.0000 H   0  0  0  0  0  0  0  0  0  0  0  0
   -0.3973    0.4235    0.0000 H   0  0  0  0  0  0  0  0  0  0  0  0
   -0.1205   -0.6100    0.0000 H   0  0  0  0  0  0  0  0  0  0  0  0
  2  1  1  0  0  0  0
  2  4  2  0  0  0  0
  3  2  1  0  0  0  0
  3  6  1  0  0  0  0
  3  5  1  0  0  0  0
  3 23  1  0  0  0  0
  5 24  1  0  0  0  0
  6  8  1  0  0  0  0
  7  6  2  0  0  0  0
  7 11  1  0  0  0  0
  7 25  1  0  0  0  0
  8  9  2  0  0  0  0
  8 26  1  0  0  0  0
  9 10  1  0  0  0  0
  9 27  1  0  0  0  0
 10 11  2  0  0  0  0
 10 28  1  0  0  0  0
 11 29  1  0  0  0  0
 12 17  1  0  0  0  0
 12 20  1  0  0  0  0
 12 30  1  0  0  0  0
 13 12  1  0  0  0  0
 13 31  1  0  0  0  0
 13 32  1  0  0  0  0
 14 17  1  0  0  0  0
 14 19  1  0  0  0  0
 14 33  1  0  0  0  0
 15 14  1  0  0  0  0
 15 16  1  0  0  0  0
 15 34  1  0  0  0  0
 15 35  1  0  0  0  0
 16  1  1  0  0  0  0
 16 13  1  0  0  0  0
 16 36  1  0  0  0  0
 17 21  1  0  0  0  0
 17 22  1  0  0  0  0
 19 37  1  0  0  0  0
 19 38  1  0  0  0  0
 20 19  1  0  0  0  0
 20 39  1  0  0  0  0
 20 40  1  0  0  0  0
 21 41  1  0  0  0  0
 21 42  1  0  0  0  0
 21 43  1  0  0  0  0
 22 44  1  0  0  0  0
 22 45  1  0  0  0  0
 22 46  1  0  0  0  0
M  CHG  2  17   1  18  -1
M  END
>  <DRUGBANK_ID>
DB00725

>  <SECONDARY_ACCESSION_NUMBERS>
APRD01017

>  <COMMON_NAME>
Homatropine methylbromide

>  <CAS_NUMBER>
80-49-9

>  <UNII>
68JRS2HC1C

>  <SYNONYMS>
3-alpha-Hydroxy-8-methyl-1-alpha-H,5-alpha-H-tropanium bromide mandelate; 8-Methylhomatropinium bromide; Homatropine methylbromide; Homatropini methylbromidum; MÃ©thylbromure d'homatropine; Methylhomatropine; Methylhomatropine bromide; Methylhomatropinum bromatum; Metilbromuro de homatropina; Omatropina metilbromuro; Tropinium methobromide mandelate

$$$$
