
 OpenBabel10282417072D

135143  0  0  1  0  0  0  0  0999 V2000
    7.7973   -1.4576    0.0000 H   0  0  0  0  0  0  0  0  0  0  0  0
    7.9311   -2.2716    0.0000 C   0  0  1  0  0  0  0  0  0  0  0  0
    8.6640   -1.8929    0.0000 C   0  0  0  0  0  0  0  0  0  0  0  0
    9.2507   -2.4728    0.0000 C   0  0  1  0  0  0  0  0  0  0  0  0
    9.7040   -3.1621    0.0000 H   0  0  0  0  0  0  0  0  0  0  0  0
   10.0743   -2.4249    0.0000 C   0  0  2  0  0  0  0  0  0  0  0  0
    9.6210   -1.7356    0.0000 H   0  0  0  0  0  0  0  0  0  0  0  0
   10.4446   -1.6877    0.0000 C   0  0  0  0  0  0  0  0  0  0  0  0
   11.2682   -1.6397    0.0000 C   0  0  0  0  0  0  0  0  0  0  0  0
   11.7215   -2.3290    0.0000 C   0  0  0  0  0  0  0  0  0  0  0  0
   12.5451   -2.2811    0.0000 C   0  0  0  0  0  0  0  0  0  0  0  0
   12.9984   -2.9704    0.0000 C   0  0  2  0  0  0  0  0  0  0  0  0
   12.6282   -3.7076    0.0000 C   0  0  0  0  0  0  0  0  0  0  0  0
   11.8046   -3.7555    0.0000 C   0  0  0  0  0  0  0  0  0  0  0  0
   11.3512   -3.0662    0.0000 C   0  0  1  0  0  0  0  0  0  0  0  0
   10.9810   -3.8035    0.0000 C   0  0  0  0  0  0  0  0  0  0  0  0
   10.5276   -3.1142    0.0000 C   0  0  1  0  0  0  0  0  0  0  0  0
   10.8979   -2.3769    0.0000 H   0  0  0  0  0  0  0  0  0  0  0  0
   10.1573   -3.8514    0.0000 C   0  0  0  0  0  0  0  0  0  0  0  0
    9.3337   -3.8994    0.0000 C   0  0  0  0  0  0  0  0  0  0  0  0
    8.8804   -3.2101    0.0000 C   0  0  1  0  0  0  0  0  0  0  0  0
    8.4351   -3.9046    0.0000 C   0  0  0  0  0  0  0  0  0  0  0  0
    8.0648   -3.0857    0.0000 C   0  0  1  0  0  0  0  0  0  0  0  0
    7.3276   -2.7154    0.0000 H   0  0  0  0  0  0  0  0  0  0  0  0
    7.3319   -3.4645    0.0000 C   0  0  2  0  0  0  0  0  0  0  0  0
    7.2076   -4.2801    0.0000 C   0  0  0  0  0  0  0  0  0  0  0  0
    6.7452   -2.8845    0.0000 C   0  0  2  0  0  0  0  0  0  0  0  0
    6.4540   -3.6564    0.0000 C   0  0  0  0  0  0  0  0  0  0  0  0
    5.6399   -3.7902    0.0000 C   0  0  0  0  0  0  0  0  0  0  0  0
    5.1170   -3.1521    0.0000 C   0  0  1  0  0  0  0  0  0  0  0  0
    4.3030   -3.2858    0.0000 C   0  0  0  0  0  0  0  0  0  0  0  0
    5.4082   -2.3802    0.0000 C   0  0  0  0  0  0  0  0  0  0  0  0
    6.2223   -2.2464    0.0000 N   0  0  0  0  0  0  0  0  0  0  0  0
    7.1155   -2.1473    0.0000 O   0  0  0  0  0  0  0  0  0  0  0  0
   13.8221   -2.9224    0.0000 O   0  0  0  0  0  0  0  0  0  0  0  0
   14.1923   -2.1852    0.0000 C   0  0  2  0  0  0  0  0  0  0  0  0
   14.6457   -2.8745    0.0000 H   0  0  0  0  0  0  0  0  0  0  0  0
   13.7390   -1.4959    0.0000 O   0  0  0  0  0  0  0  0  0  0  0  0
   14.1093   -0.7587    0.0000 C   0  0  2  0  0  0  0  0  0  0  0  0
   13.6560   -0.0694    0.0000 C   0  0  0  0  0  0  0  0  0  0  0  0
   14.0263    0.6679    0.0000 O   0  0  0  0  0  0  0  0  0  0  0  0
   14.9329   -0.7107    0.0000 C   0  0  2  0  0  0  0  0  0  0  0  0
   15.3032    0.0265    0.0000 O   0  0  0  0  0  0  0  0  0  0  0  0
   15.3862   -1.4000    0.0000 C   0  0  2  0  0  0  0  0  0  0  0  0
   16.2098   -1.3521    0.0000 O   0  0  0  0  0  0  0  0  0  0  0  0
   16.5801   -0.6148    0.0000 C   0  0  2  0  0  0  0  0  0  0  0  0
   17.0334   -1.3041    0.0000 H   0  0  0  0  0  0  0  0  0  0  0  0
   16.1268    0.0745    0.0000 O   0  0  0  0  0  0  0  0  0  0  0  0
   16.4971    0.8117    0.0000 C   0  0  2  0  0  0  0  0  0  0  0  0
   16.0438    1.5010    0.0000 C   0  0  0  0  0  0  0  0  0  0  0  0
   15.2202    1.4530    0.0000 O   0  0  0  0  0  0  0  0  0  0  0  0
   17.3207    0.8596    0.0000 C   0  0  1  0  0  0  0  0  0  0  0  0
   17.6910    1.5969    0.0000 O   0  0  0  0  0  0  0  0  0  0  0  0
   17.7740    0.1703    0.0000 C   0  0  2  0  0  0  0  0  0  0  0  0
   18.5976    0.2183    0.0000 O   0  0  0  0  0  0  0  0  0  0  0  0
   17.4037   -0.5669    0.0000 C   0  0  1  0  0  0  0  0  0  0  0  0
   17.8570   -1.2562    0.0000 O   0  0  0  0  0  0  0  0  0  0  0  0
   15.0159   -2.1372    0.0000 C   0  0  1  0  0  0  0  0  0  0  0  0
   15.4693   -2.8265    0.0000 O   0  0  0  0  0  0  0  0  0  0  0  0
   15.0990   -3.5638    0.0000 C   0  0  2  0  0  0  0  0  0  0  0  0
   15.9226   -3.5158    0.0000 H   0  0  0  0  0  0  0  0  0  0  0  0
   14.2754   -3.6117    0.0000 O   0  0  0  0  0  0  0  0  0  0  0  0
   13.9051   -4.3489    0.0000 C   0  0  1  0  0  0  0  0  0  0  0  0
   13.0815   -4.3969    0.0000 C   0  0  0  0  0  0  0  0  0  0  0  0
   14.3584   -5.0382    0.0000 C   0  0  2  0  0  0  0  0  0  0  0  0
   13.9881   -5.7755    0.0000 O   0  0  0  0  0  0  0  0  0  0  0  0
   15.1820   -4.9903    0.0000 C   0  0  1  0  0  0  0  0  0  0  0  0
   15.6353   -5.6796    0.0000 O   0  0  0  0  0  0  0  0  0  0  0  0
   15.5523   -4.2531    0.0000 C   0  0  1  0  0  0  0  0  0  0  0  0
   16.3759   -4.2051    0.0000 O   0  0  0  0  0  0  0  0  0  0  0  0
    8.8253   -0.8351    0.0000 H   0  0  0  0  0  0  0  0  0  0  0  0
    9.6797   -1.5564    0.0000 H   0  0  0  0  0  0  0  0  0  0  0  0
    9.8566   -0.7937    0.0000 H   0  0  0  0  0  0  0  0  0  0  0  0
   10.9248   -0.7315    0.0000 H   0  0  0  0  0  0  0  0  0  0  0  0
   11.7314   -0.7175    0.0000 H   0  0  0  0  0  0  0  0  0  0  0  0
   13.0254   -1.3249    0.0000 H   0  0  0  0  0  0  0  0  0  0  0  0
   13.6133   -2.2190    0.0000 H   0  0  0  0  0  0  0  0  0  0  0  0
   13.4786   -2.0142    0.0000 H   0  0  0  0  0  0  0  0  0  0  0  0
   13.2162   -4.6016    0.0000 H   0  0  0  0  0  0  0  0  0  0  0  0
   12.1479   -4.6638    0.0000 H   0  0  0  0  0  0  0  0  0  0  0  0
   11.3244   -4.7117    0.0000 H   0  0  0  0  0  0  0  0  0  0  0  0
   10.7364   -3.8177    0.0000 H   0  0  0  0  0  0  0  0  0  0  0  0
    9.9128   -3.8658    0.0000 H   0  0  0  0  0  0  0  0  0  0  0  0
   11.5691   -4.6974    0.0000 H   0  0  0  0  0  0  0  0  0  0  0  0
   10.5009   -4.7597    0.0000 H   0  0  0  0  0  0  0  0  0  0  0  0
   10.7453   -4.7454    0.0000 H   0  0  0  0  0  0  0  0  0  0  0  0
    9.6771   -4.8076    0.0000 H   0  0  0  0  0  0  0  0  0  0  0  0
    8.8535   -4.8556    0.0000 H   0  0  0  0  0  0  0  0  0  0  0  0
    8.2655   -3.9616    0.0000 H   0  0  0  0  0  0  0  0  0  0  0  0
    7.3663   -3.8548    0.0000 H   0  0  0  0  0  0  0  0  0  0  0  0
    8.9264   -4.8551    0.0000 H   0  0  0  0  0  0  0  0  0  0  0  0
    7.8576   -4.8053    0.0000 H   0  0  0  0  0  0  0  0  0  0  0  0
    8.2012   -4.0884    0.0000 H   0  0  0  0  0  0  0  0  0  0  0  0
    6.2109   -4.6694    0.0000 H   0  0  0  0  0  0  0  0  0  0  0  0
    8.0431   -4.9486    0.0000 H   0  0  0  0  0  0  0  0  0  0  0  0
    7.0464   -5.3379    0.0000 H   0  0  0  0  0  0  0  0  0  0  0  0
    7.1322   -4.4840    0.0000 H   0  0  0  0  0  0  0  0  0  0  0  0
    6.0764   -4.6575    0.0000 H   0  0  0  0  0  0  0  0  0  0  0  0
    5.2623   -4.7913    0.0000 H   0  0  0  0  0  0  0  0  0  0  0  0
    4.5841   -3.9637    0.0000 H   0  0  0  0  0  0  0  0  0  0  0  0
    4.7393   -4.1532    0.0000 H   0  0  0  0  0  0  0  0  0  0  0  0
    3.6249   -2.4581    0.0000 H   0  0  0  0  0  0  0  0  0  0  0  0
    3.9253   -4.2869    0.0000 H   0  0  0  0  0  0  0  0  0  0  0  0
    3.2471   -3.4592    0.0000 H   0  0  0  0  0  0  0  0  0  0  0  0
    4.7300   -1.5526    0.0000 H   0  0  0  0  0  0  0  0  0  0  0  0
    5.7858   -1.3791    0.0000 H   0  0  0  0  0  0  0  0  0  0  0  0
    6.5823   -1.2920    0.0000 H   0  0  0  0  0  0  0  0  0  0  0  0
   13.0411   -0.8208    0.0000 H   0  0  0  0  0  0  0  0  0  0  0  0
   12.5878   -0.1316    0.0000 H   0  0  0  0  0  0  0  0  0  0  0  0
   13.0680    0.8246    0.0000 H   0  0  0  0  0  0  0  0  0  0  0  0
   14.9947    0.7243    0.0000 H   0  0  0  0  0  0  0  0  0  0  0  0
   14.3449    0.1833    0.0000 H   0  0  0  0  0  0  0  0  0  0  0  0
   16.2716    0.0828    0.0000 H   0  0  0  0  0  0  0  0  0  0  0  0
   15.8665   -0.4438    0.0000 H   0  0  0  0  0  0  0  0  0  0  0  0
   15.4289    0.7496    0.0000 H   0  0  0  0  0  0  0  0  0  0  0  0
   16.5240    2.4572    0.0000 H   0  0  0  0  0  0  0  0  0  0  0  0
   15.4558    2.3950    0.0000 H   0  0  0  0  0  0  0  0  0  0  0  0
   14.6871    2.2634    0.0000 H   0  0  0  0  0  0  0  0  0  0  0  0
   16.7328    1.7536    0.0000 H   0  0  0  0  0  0  0  0  0  0  0  0
   18.6594    1.6533    0.0000 H   0  0  0  0  0  0  0  0  0  0  0  0
   18.2542    1.1265    0.0000 H   0  0  0  0  0  0  0  0  0  0  0  0
   19.1307   -0.5921    0.0000 H   0  0  0  0  0  0  0  0  0  0  0  0
   18.4719   -0.5048    0.0000 H   0  0  0  0  0  0  0  0  0  0  0  0
   17.4216   -2.1230    0.0000 H   0  0  0  0  0  0  0  0  0  0  0  0
   16.0841   -2.0750    0.0000 H   0  0  0  0  0  0  0  0  0  0  0  0
   13.3171   -3.4549    0.0000 H   0  0  0  0  0  0  0  0  0  0  0  0
   12.4935   -3.5029    0.0000 H   0  0  0  0  0  0  0  0  0  0  0  0
   12.6013   -5.3531    0.0000 H   0  0  0  0  0  0  0  0  0  0  0  0
   12.0133   -4.4592    0.0000 H   0  0  0  0  0  0  0  0  0  0  0  0
   13.2902   -5.1004    0.0000 H   0  0  0  0  0  0  0  0  0  0  0  0
   13.0197   -5.8319    0.0000 H   0  0  0  0  0  0  0  0  0  0  0  0
   14.7017   -5.9465    0.0000 H   0  0  0  0  0  0  0  0  0  0  0  0
   15.1999   -6.5464    0.0000 H   0  0  0  0  0  0  0  0  0  0  0  0
   16.1403   -5.1471    0.0000 H   0  0  0  0  0  0  0  0  0  0  0  0
   16.9090   -5.0155    0.0000 H   0  0  0  0  0  0  0  0  0  0  0  0
  2  1  1  6  0  0  0
  2  3  1  0  0  0  0
  2 34  1  0  0  0  0
  3 71  1  0  0  0  0
  3 72  1  0  0  0  0
  4  3  1  0  0  0  0
  4  5  1  6  0  0  0
  4  6  1  0  0  0  0
  6  7  1  1  0  0  0
  6  8  1  0  0  0  0
  6 17  1  0  0  0  0
  8  9  1  0  0  0  0
  8 73  1  0  0  0  0
  8 74  1  0  0  0  0
  9 10  2  0  0  0  0
  9 75  1  0  0  0  0
 10 11  1  0  0  0  0
 11 76  1  0  0  0  0
 11 77  1  0  0  0  0
 12 11  1  0  0  0  0
 12 13  1  0  0  0  0
 12 35  1  0  0  0  0
 12 78  1  6  0  0  0
 13 14  1  0  0  0  0
 13 79  1  0  0  0  0
 13 80  1  0  0  0  0
 14 81  1  0  0  0  0
 14 82  1  0  0  0  0
 15 14  1  0  0  0  0
 15 10  1  0  0  0  0
 15 16  1  1  0  0  0
 16 83  1  0  0  0  0
 16 84  1  0  0  0  0
 16 85  1  0  0  0  0
 17 15  1  0  0  0  0
 17 18  1  6  0  0  0
 17 19  1  0  0  0  0
 19 20  1  0  0  0  0
 19 86  1  0  0  0  0
 19 87  1  0  0  0  0
 20 88  1  0  0  0  0
 20 89  1  0  0  0  0
 21 20  1  0  0  0  0
 21  4  1  0  0  0  0
 21 22  1  1  0  0  0
 22 90  1  0  0  0  0
 22 91  1  0  0  0  0
 22 92  1  0  0  0  0
 23 21  1  0  0  0  0
 23  2  1  0  0  0  0
 23 24  1  6  0  0  0
 23 25  1  0  0  0  0
 25 26  1  0  0  0  0
 25 27  1  0  0  0  0
 25 93  1  1  0  0  0
 26 94  1  0  0  0  0
 26 95  1  0  0  0  0
 26 96  1  0  0  0  0
 27 28  1  0  0  0  0
 27 33  1  0  0  0  0
 27 34  1  1  0  0  0
 28 29  1  0  0  0  0
 28 97  1  0  0  0  0
 28 98  1  0  0  0  0
 29 99  1  0  0  0  0
 29100  1  0  0  0  0
 30 29  1  0  0  0  0
 30 31  1  0  0  0  0
 30 32  1  0  0  0  0
 30101  1  6  0  0  0
 31102  1  0  0  0  0
 31103  1  0  0  0  0
 31104  1  0  0  0  0
 32 33  1  0  0  0  0
 32105  1  0  0  0  0
 32106  1  0  0  0  0
 33107  1  0  0  0  0
 36 35  1  0  0  0  0
 36 37  1  1  0  0  0
 36 38  1  0  0  0  0
 39 38  1  0  0  0  0
 39 40  1  0  0  0  0
 39108  1  1  0  0  0
 40 41  1  0  0  0  0
 40109  1  0  0  0  0
 40110  1  0  0  0  0
 41111  1  0  0  0  0
 42 39  1  0  0  0  0
 42 43  1  0  0  0  0
 42 44  1  0  0  0  0
 42112  1  1  0  0  0
 43113  1  0  0  0  0
 44 45  1  0  0  0  0
 44 58  1  0  0  0  0
 44114  1  1  0  0  0
 46 45  1  0  0  0  0
 46 47  1  1  0  0  0
 46 48  1  0  0  0  0
 49 48  1  0  0  0  0
 49 50  1  0  0  0  0
 49115  1  1  0  0  0
 50 51  1  0  0  0  0
 50116  1  0  0  0  0
 50117  1  0  0  0  0
 51118  1  0  0  0  0
 52 49  1  0  0  0  0
 52 53  1  0  0  0  0
 52 54  1  0  0  0  0
 52119  1  6  0  0  0
 53120  1  0  0  0  0
 54 55  1  0  0  0  0
 54 56  1  0  0  0  0
 54121  1  1  0  0  0
 55122  1  0  0  0  0
 56 46  1  0  0  0  0
 56 57  1  0  0  0  0
 56123  1  6  0  0  0
 57124  1  0  0  0  0
 58 36  1  0  0  0  0
 58 59  1  0  0  0  0
 58125  1  6  0  0  0
 60 59  1  0  0  0  0
 60 61  1  6  0  0  0
 60 62  1  0  0  0  0
 63 62  1  0  0  0  0
 63 64  1  0  0  0  0
 63126  1  1  0  0  0
 64127  1  0  0  0  0
 64128  1  0  0  0  0
 64129  1  0  0  0  0
 65 63  1  0  0  0  0
 65 66  1  0  0  0  0
 65 67  1  0  0  0  0
 65130  1  6  0  0  0
 66131  1  0  0  0  0
 67 68  1  0  0  0  0
 67 69  1  0  0  0  0
 67132  1  1  0  0  0
 68133  1  0  0  0  0
 69 60  1  0  0  0  0
 69 70  1  0  0  0  0
 69134  1  1  0  0  0
 70135  1  0  0  0  0
M  END
>  <DRUGBANK_ID>
DB17103

>  <COMMON_NAME>
Solasonine

>  <CAS_NUMBER>
19121-58-5

>  <UNII>
TR60638HXL

>  <SYNONYMS>
alpha-Solasonine; Purapurine; Solasonin; Tomatine solaradixine

$$$$
