
 OpenBabel10282417072D

 21 23  0  0  0  0  0  0  0  0999 V2000
   -1.5468   -1.0597    0.0000 C   0  0  0  0  0  0  0  0  0  0  0  0
   -1.0619   -0.3923    0.0000 C   0  0  0  0  0  0  0  0  0  0  0  0
   -1.0619   -1.7271    0.0000 C   0  0  0  0  0  0  0  0  0  0  0  0
   -0.2773   -0.6472    0.0000 C   0  0  0  0  0  0  0  0  0  0  0  0
   -0.2773   -1.4722    0.0000 C   0  0  0  0  0  0  0  0  0  0  0  0
    0.5073   -0.3923    0.0000 C   0  0  0  0  0  0  0  0  0  0  0  0
    0.7622    0.3923    0.0000 C   0  0  0  0  0  0  0  0  0  0  0  0
    0.5073   -1.7271    0.0000 N   0  0  0  0  0  0  0  0  0  0  0  0
    0.9922   -1.0597    0.0000 N   0  0  0  0  0  0  0  0  0  0  0  0
    1.5468    0.6472    0.0000 N   0  0  0  0  0  0  0  0  0  0  0  0
    0.2773    1.0597    0.0000 N   0  0  0  0  0  0  0  0  0  0  0  0
    1.5468    1.4722    0.0000 N   0  0  0  0  0  0  0  0  0  0  0  0
    0.7622    1.7271    0.0000 N   0  0  0  0  0  0  0  0  0  0  0  0
   -2.6168   -1.0597    0.0000 H   0  0  0  0  0  0  0  0  0  0  0  0
   -2.0326   -2.0131    0.0000 H   0  0  0  0  0  0  0  0  0  0  0  0
   -1.3926    0.6253    0.0000 H   0  0  0  0  0  0  0  0  0  0  0  0
   -0.3053    0.3643    0.0000 H   0  0  0  0  0  0  0  0  0  0  0  0
   -1.3926   -2.7447    0.0000 H   0  0  0  0  0  0  0  0  0  0  0  0
   -0.3053   -2.4837    0.0000 H   0  0  0  0  0  0  0  0  0  0  0  0
    0.8115   -2.6634    0.0000 H   0  0  0  0  0  0  0  0  0  0  0  0
    2.3433    2.0509    0.0000 H   0  0  0  0  0  0  0  0  0  0  0  0
  1 14  1  0  0  0  0
  1 15  1  0  0  0  0
  2  1  1  0  0  0  0
  2 16  1  0  0  0  0
  2 17  1  0  0  0  0
  3  1  1  0  0  0  0
  3 18  1  0  0  0  0
  3 19  1  0  0  0  0
  4  2  1  0  0  0  0
  5  3  1  0  0  0  0
  5  4  2  0  0  0  0
  6  4  1  0  0  0  0
  7  6  1  0  0  0  0
  8  5  1  0  0  0  0
  8 20  1  0  0  0  0
  9  6  2  0  0  0  0
  9  8  1  0  0  0  0
 10  7  2  0  0  0  0
 11  7  1  0  0  0  0
 12 10  1  0  0  0  0
 12 21  1  0  0  0  0
 13 11  2  0  0  0  0
 13 12  1  0  0  0  0
M  END
>  <DRUGBANK_ID>
DB05939

>  <COMMON_NAME>
MK-0354

>  <CAS_NUMBER>
851776-28-8

>  <UNII>
4U62D8JYIQ

$$$$
