
 OpenBabel10282417072D

 36 38  0  0  0  0  0  0  0  0999 V2000
    4.7812    4.4104    0.0000 O   0  0  0  0  0  0  0  0  0  0  0  0
    4.7812    3.5854    0.0000 C   0  0  0  0  0  0  0  0  0  0  0  0
    4.0668    3.1729    0.0000 C   0  0  0  0  0  0  0  0  0  0  0  0
    4.0668    2.3479    0.0000 C   0  0  0  0  0  0  0  0  0  0  0  0
    3.3523    1.9354    0.0000 C   0  0  0  0  0  0  0  0  0  0  0  0
    3.3523    1.1104    0.0000 C   0  0  0  0  0  0  0  0  0  0  0  0
    2.6378    0.6979    0.0000 C   0  0  0  0  0  0  0  0  0  0  0  0
    1.9233    1.1104    0.0000 C   0  0  0  0  0  0  0  0  0  0  0  0
    1.1387    0.8555    0.0000 O   0  0  0  0  0  0  0  0  0  0  0  0
    0.6538    1.5229    0.0000 C   0  0  0  0  0  0  0  0  0  0  0  0
    1.1387    2.1904    0.0000 O   0  0  0  0  0  0  0  0  0  0  0  0
    1.9233    1.9354    0.0000 C   0  0  0  0  0  0  0  0  0  0  0  0
    2.6378    2.3479    0.0000 C   0  0  0  0  0  0  0  0  0  0  0  0
    5.4957    3.1729    0.0000 N   0  0  0  0  0  0  0  0  0  0  0  0
    6.2102    3.5854    0.0000 C   0  0  0  0  0  0  0  0  0  0  0  0
    6.9246    3.1729    0.0000 C   0  0  0  0  0  0  0  0  0  0  0  0
    6.9246    2.3479    0.0000 C   0  0  0  0  0  0  0  0  0  0  0  0
    6.2102    1.9354    0.0000 C   0  0  0  0  0  0  0  0  0  0  0  0
    5.4957    2.3479    0.0000 C   0  0  0  0  0  0  0  0  0  0  0  0
    3.1731    3.6889    0.0000 H   0  0  0  0  0  0  0  0  0  0  0  0
    4.9605    1.8319    0.0000 H   0  0  0  0  0  0  0  0  0  0  0  0
    4.2460    0.5944    0.0000 H   0  0  0  0  0  0  0  0  0  0  0  0
    2.6378   -0.3341    0.0000 H   0  0  0  0  0  0  0  0  0  0  0  0
   -0.4162    1.5229    0.0000 H   0  0  0  0  0  0  0  0  0  0  0  0
    0.1680    2.4763    0.0000 H   0  0  0  0  0  0  0  0  0  0  0  0
    2.6378    3.3799    0.0000 H   0  0  0  0  0  0  0  0  0  0  0  0
    6.2102    4.6554    0.0000 H   0  0  0  0  0  0  0  0  0  0  0  0
    7.1369    4.1204    0.0000 H   0  0  0  0  0  0  0  0  0  0  0  0
    7.8513    3.7079    0.0000 H   0  0  0  0  0  0  0  0  0  0  0  0
    7.8512    2.6379    0.0000 H   0  0  0  0  0  0  0  0  0  0  0  0
    7.8513    1.8129    0.0000 H   0  0  0  0  0  0  0  0  0  0  0  0
    6.9246    1.2779    0.0000 H   0  0  0  0  0  0  0  0  0  0  0  0
    6.2102    0.8654    0.0000 H   0  0  0  0  0  0  0  0  0  0  0  0
    5.2836    1.4004    0.0000 H   0  0  0  0  0  0  0  0  0  0  0  0
    4.5691    1.8129    0.0000 H   0  0  0  0  0  0  0  0  0  0  0  0
    4.5691    2.8829    0.0000 H   0  0  0  0  0  0  0  0  0  0  0  0
  1  2  2  0  0  0  0
  2  3  1  0  0  0  0
  2 14  1  0  0  0  0
  3  4  2  0  0  0  0
  3 20  1  0  0  0  0
  4  5  1  0  0  0  0
  4 21  1  0  0  0  0
  5  6  2  0  0  0  0
  5 13  1  0  0  0  0
  6  7  1  0  0  0  0
  6 22  1  0  0  0  0
  7  8  2  0  0  0  0
  7 23  1  0  0  0  0
  8  9  1  0  0  0  0
  8 12  1  0  0  0  0
  9 10  1  0  0  0  0
 10 11  1  0  0  0  0
 10 24  1  0  0  0  0
 10 25  1  0  0  0  0
 11 12  1  0  0  0  0
 12 13  2  0  0  0  0
 13 26  1  0  0  0  0
 14 15  1  0  0  0  0
 14 19  1  0  0  0  0
 15 16  1  0  0  0  0
 15 27  1  0  0  0  0
 15 28  1  0  0  0  0
 16 17  1  0  0  0  0
 16 29  1  0  0  0  0
 16 30  1  0  0  0  0
 17 18  1  0  0  0  0
 17 31  1  0  0  0  0
 17 32  1  0  0  0  0
 18 19  1  0  0  0  0
 18 33  1  0  0  0  0
 18 34  1  0  0  0  0
 19 35  1  0  0  0  0
 19 36  1  0  0  0  0
M  END
>  <DRUGBANK_ID>
DB16942

>  <COMMON_NAME>
Ilepcimide

>  <CAS_NUMBER>
82857-82-7

>  <UNII>
5ML58O200F

>  <SYNONYMS>
1-((e)-3,4-(methylenedioxy)cinnamoyl)piperidine; Antiepilepsirine; Piperidine, 1-(3-(1,3-benzodioxol-5-yl)-1-oxo-2-propenyl)-, (e)-

$$$$
