NN4
 OpenBabel10282417072D

 58 61  0  0  0  0  0  0  0  0999 V2000
    3.1349    1.1953    0.0000 C   0  0  0  0  0  0  0  0  0  0  0  0
    3.1349    0.4479    0.0000 C   0  0  1  0  0  0  0  0  0  0  0  0
    3.8705    0.0742    0.0000 C   0  0  0  0  0  0  0  0  0  0  0  0
    3.5844    0.4908    0.0000 C   0  0  0  0  0  0  0  0  0  0  0  0
    2.8489    1.6119    0.0000 C   0  0  0  0  0  0  0  0  0  0  0  0
    2.8489    0.8645    0.0000 C   0  0  1  0  0  0  0  0  0  0  0  0
    1.0109   -0.2632    0.0000 C   0  0  0  0  0  0  0  0  0  0  0  0
   -0.1555   -0.2359    0.0000 C   0  0  0  0  0  0  0  0  0  0  0  0
   -0.9745   -1.1701    0.0000 C   0  0  0  0  0  0  0  0  0  0  0  0
   -1.1693   -0.3685    0.0000 C   0  0  0  0  0  0  0  0  0  0  0  0
   -2.5578   -0.7058    0.0000 C   0  0  0  0  0  0  0  0  0  0  0  0
   -1.5714   -1.7397    0.0000 C   0  0  0  0  0  0  0  0  0  0  0  0
   -3.5443    0.3280    0.0000 C   0  0  0  0  0  0  0  0  0  0  0  0
    0.8161    0.5384    0.0000 O   0  0  0  0  0  0  0  0  0  0  0  0
    1.8026   -0.4954    0.0000 N   0  0  0  0  0  0  0  0  0  0  0  0
    2.3995    0.0742    0.0000 C   0  0  1  0  0  0  0  0  0  0  0  0
    3.5844    1.9856    0.0000 C   0  0  1  0  0  0  0  0  0  0  0  0
    4.3200    1.6119    0.0000 C   0  0  0  0  0  0  0  0  0  0  0  0
    4.3200    0.8645    0.0000 C   0  0  2  0  0  0  0  0  0  0  0  0
    5.1175    0.6535    0.0000 C   0  0  0  0  0  0  0  0  0  0  0  0
    5.6990    1.2387    0.0000 O   0  0  0  0  0  0  0  0  0  0  0  0
    5.3336   -0.1427    0.0000 N   0  0  0  0  0  0  0  0  0  0  0  0
    0.4140   -0.8328    0.0000 C   0  0  0  0  0  0  0  0  0  0  0  0
    0.9836   -1.4296    0.0000 C   0  0  0  0  0  0  0  0  0  0  0  0
   -0.1828   -1.4023    0.0000 O   0  0  0  0  0  0  0  0  0  0  0  0
   -2.3630   -1.5075    0.0000 C   0  0  0  0  0  0  0  0  0  0  0  0
   -3.3495   -0.4737    0.0000 O   0  0  0  0  0  0  0  0  0  0  0  0
   -1.9610   -0.1363    0.0000 C   0  0  0  0  0  0  0  0  0  0  0  0
    3.3346   -0.1009    0.0000 H   0  0  0  0  0  0  0  0  0  0  0  0
    2.2843    1.0137    0.0000 H   0  0  0  0  0  0  0  0  0  0  0  0
    1.9392    0.4335    0.0000 H   0  0  0  0  0  0  0  0  0  0  0  0
    3.5843    2.5695    0.0000 H   0  0  0  0  0  0  0  0  0  0  0  0
    2.1005    1.4689    0.0000 H   0  0  0  0  0  0  0  0  0  0  0  0
    2.2871    0.5426    0.0000 H   0  0  0  0  0  0  0  0  0  0  0  0
    4.1783   -0.9506    0.0000 H   0  0  0  0  0  0  0  0  0  0  0  0
    4.9337   -0.0461    0.0000 H   0  0  0  0  0  0  0  0  0  0  0  0
    3.5844   -0.5792    0.0000 H   0  0  0  0  0  0  0  0  0  0  0  0
    4.4964   -0.0688    0.0000 H   0  0  0  0  0  0  0  0  0  0  0  0
    1.9369    2.1715    0.0000 H   0  0  0  0  0  0  0  0  0  0  0  0
    1.9152    1.0893    0.0000 H   0  0  0  0  0  0  0  0  0  0  0  0
    0.1456    0.7909    0.0000 H   0  0  0  0  0  0  0  0  0  0  0  0
   -1.1953   -0.4885    0.0000 H   0  0  0  0  0  0  0  0  0  0  0  0
   -0.8941    0.5383    0.0000 H   0  0  0  0  0  0  0  0  0  0  0  0
   -0.4227    0.3439    0.0000 H   0  0  0  0  0  0  0  0  0  0  0  0
   -1.3278   -2.7425    0.0000 H   0  0  0  0  0  0  0  0  0  0  0  0
   -2.7702    1.0667    0.0000 H   0  0  0  0  0  0  0  0  0  0  0  0
   -4.5711    0.6291    0.0000 H   0  0  0  0  0  0  0  0  0  0  0  0
   -3.7969    1.3677    0.0000 H   0  0  0  0  0  0  0  0  0  0  0  0
    2.0350   -1.4521    0.0000 H   0  0  0  0  0  0  0  0  0  0  0  0
    5.2320    2.1715    0.0000 H   0  0  0  0  0  0  0  0  0  0  0  0
    5.2537    1.0894    0.0000 H   0  0  0  0  0  0  0  0  0  0  0  0
    4.6397   -0.8411    0.0000 H   0  0  0  0  0  0  0  0  0  0  0  0
    6.2854   -0.3944    0.0000 H   0  0  0  0  0  0  0  0  0  0  0  0
    0.6826   -2.4564    0.0000 H   0  0  0  0  0  0  0  0  0  0  0  0
    2.0233   -1.1768    0.0000 H   0  0  0  0  0  0  0  0  0  0  0  0
    1.7224   -2.2036    0.0000 H   0  0  0  0  0  0  0  0  0  0  0  0
   -3.1097   -2.2199    0.0000 H   0  0  0  0  0  0  0  0  0  0  0  0
   -2.2047    0.8665    0.0000 H   0  0  0  0  0  0  0  0  0  0  0  0
  1 17  1  0  0  0  0
  1  2  1  0  0  0  0
  1 33  1  0  0  0  0
  1 34  1  0  0  0  0
  2 16  1  0  0  0  0
  2  3  1  0  0  0  0
  2 29  1  6  0  0  0
  3 19  1  0  0  0  0
  3 35  1  0  0  0  0
  3 36  1  0  0  0  0
  4  6  1  0  0  0  0
  4 19  1  0  0  0  0
  4 37  1  0  0  0  0
  4 38  1  0  0  0  0
  5 17  1  0  0  0  0
  5  6  1  0  0  0  0
  5 39  1  0  0  0  0
  5 40  1  0  0  0  0
  6 16  1  0  0  0  0
  6 30  1  1  0  0  0
  7 23  1  0  0  0  0
  7 15  1  0  0  0  0
  7 14  2  0  0  0  0
  8 23  1  0  0  0  0
  8 41  1  0  0  0  0
  8 42  1  0  0  0  0
  8 43  1  0  0  0  0
  9 12  2  0  0  0  0
  9 10  1  0  0  0  0
  9 25  1  0  0  0  0
 10 28  2  0  0  0  0
 10 44  1  0  0  0  0
 11 27  1  0  0  0  0
 11 26  2  0  0  0  0
 11 28  1  0  0  0  0
 12 26  1  0  0  0  0
 12 45  1  0  0  0  0
 13 27  1  0  0  0  0
 13 46  1  0  0  0  0
 13 47  1  0  0  0  0
 13 48  1  0  0  0  0
 15 49  1  0  0  0  0
 16 15  1  0  0  0  0
 16 31  1  1  0  0  0
 17 18  1  0  0  0  0
 17 32  1  6  0  0  0
 18 19  1  0  0  0  0
 18 50  1  0  0  0  0
 18 51  1  0  0  0  0
 19 20  1  1  0  0  0
 20 21  2  0  0  0  0
 20 22  1  0  0  0  0
 22 52  1  0  0  0  0
 22 53  1  0  0  0  0
 23 25  1  0  0  0  0
 23 24  1  0  0  0  0
 24 54  1  0  0  0  0
 24 55  1  0  0  0  0
 24 56  1  0  0  0  0
 26 57  1  0  0  0  0
 28 58  1  0  0  0  0
M  END
>  <DRUGBANK_ID>
DB08280

>  <COMMON_NAME>
(1S,3R,4S,5S,7S)-4-{[2-(4-METHOXYPHENOXY)-2-METHYLPROPANOYL]AMINO}ADAMANTANE-1-CARBOXAMIDE

$$$$
