
 OpenBabel10282417072D

 46 49  0  0  0  0  0  0  0  0999 V2000
    1.7692    1.5833    0.0000 N   0  0  0  0  0  0  0  0  0  0  0  0
    2.4039    2.1026    0.0000 C   0  0  0  0  0  0  0  0  0  0  0  0
    1.1282    2.1026    0.0000 C   0  0  1  0  0  0  0  0  0  0  0  0
    3.0449    1.5833    0.0000 C   0  0  0  0  0  0  0  0  0  0  0  0
    0.3846    2.1026    0.0000 C   0  0  1  0  0  0  0  0  0  0  0  0
    0.7565    2.9936    0.0000 C   0  0  0  0  0  0  0  0  0  0  0  0
    3.7885    1.5833    0.0000 C   0  0  0  0  0  0  0  0  0  0  0  0
    3.4167    0.6924    0.0000 C   0  0  0  0  0  0  0  0  0  0  0  0
   -0.2500    1.5833    0.0000 C   0  0  0  0  0  0  0  0  0  0  0  0
   -0.4871    0.6219    0.0000 C   0  0  0  0  0  0  0  0  0  0  0  0
   -0.8333    2.2179    0.0000 S   0  0  0  0  0  0  0  0  0  0  0  0
   -1.2307    0.6219    0.0000 C   0  0  0  0  0  0  0  0  0  0  0  0
   -1.4423    1.5833    0.0000 C   0  0  0  0  0  0  0  0  0  0  0  0
   -1.8718    0.1025    0.0000 C   0  0  0  0  0  0  0  0  0  0  0  0
   -1.8718   -0.9230    0.0000 N   0  0  0  0  0  0  0  0  0  0  0  0
   -2.5064    0.6219    0.0000 O   0  0  0  0  0  0  0  0  0  0  0  0
   -2.5064   -1.4423    0.0000 C   0  0  0  0  0  0  0  0  0  0  0  0
   -2.5064   -2.4744    0.0000 C   0  0  0  0  0  0  0  0  0  0  0  0
   -3.1475   -0.9230    0.0000 C   0  0  0  0  0  0  0  0  0  0  0  0
   -3.1475   -2.9936    0.0000 C   0  0  0  0  0  0  0  0  0  0  0  0
   -3.7885   -1.4423    0.0000 C   0  0  0  0  0  0  0  0  0  0  0  0
   -3.7885   -2.4744    0.0000 O   0  0  0  0  0  0  0  0  0  0  0  0
    1.7717    0.5633    0.0000 H   0  0  0  0  0  0  0  0  0  0  0  0
    2.4013    3.1726    0.0000 H   0  0  0  0  0  0  0  0  0  0  0  0
    3.3692    2.5643    0.0000 H   0  0  0  0  0  0  0  0  0  0  0  0
    0.7709    1.0940    0.0000 H   0  0  0  0  0  0  0  0  0  0  0  0
    3.9354    0.9900    0.0000 H   0  0  0  0  0  0  0  0  0  0  0  0
    0.7444    1.0949    0.0000 H   0  0  0  0  0  0  0  0  0  0  0  0
    0.7566    4.0636    0.0000 H   0  0  0  0  0  0  0  0  0  0  0  0
   -0.2926    3.2038    0.0000 H   0  0  0  0  0  0  0  0  0  0  0  0
    4.6790    2.1766    0.0000 H   0  0  0  0  0  0  0  0  0  0  0  0
    4.6143    0.9029    0.0000 H   0  0  0  0  0  0  0  0  0  0  0  0
    3.4167   -0.3776    0.0000 H   0  0  0  0  0  0  0  0  0  0  0  0
    4.4659    0.4823    0.0000 H   0  0  0  0  0  0  0  0  0  0  0  0
    0.1493   -0.1905    0.0000 H   0  0  0  0  0  0  0  0  0  0  0  0
   -2.4358    1.8626    0.0000 H   0  0  0  0  0  0  0  0  0  0  0  0
   -0.9821   -1.3446    0.0000 H   0  0  0  0  0  0  0  0  0  0  0  0
   -3.4722   -1.9029    0.0000 H   0  0  0  0  0  0  0  0  0  0  0  0
   -1.5406   -2.9350    0.0000 H   0  0  0  0  0  0  0  0  0  0  0  0
   -2.3806   -3.5370    0.0000 H   0  0  0  0  0  0  0  0  0  0  0  0
   -3.1475    0.1470    0.0000 H   0  0  0  0  0  0  0  0  0  0  0  0
   -4.1133   -0.4625    0.0000 H   0  0  0  0  0  0  0  0  0  0  0  0
   -3.1475   -4.0636    0.0000 H   0  0  0  0  0  0  0  0  0  0  0  0
   -4.1133   -3.4542    0.0000 H   0  0  0  0  0  0  0  0  0  0  0  0
   -4.7543   -0.9818    0.0000 H   0  0  0  0  0  0  0  0  0  0  0  0
   -4.6934   -2.0133    0.0000 H   0  0  0  0  0  0  0  0  0  0  0  0
  1  2  1  0  0  0  0
  1 23  1  0  0  0  0
  2  4  1  0  0  0  0
  2 24  1  0  0  0  0
  2 25  1  0  0  0  0
  3  1  1  0  0  0  0
  3  5  1  0  0  0  0
  3  6  1  0  0  0  0
  3 26  1  6  0  0  0
  4  7  1  0  0  0  0
  4  8  1  0  0  0  0
  4 27  1  0  0  0  0
  5  6  1  0  0  0  0
  5  9  1  0  0  0  0
  5 28  1  1  0  0  0
  6 29  1  0  0  0  0
  6 30  1  0  0  0  0
  7  8  1  0  0  0  0
  7 31  1  0  0  0  0
  7 32  1  0  0  0  0
  8 33  1  0  0  0  0
  8 34  1  0  0  0  0
  9 10  2  0  0  0  0
  9 11  1  0  0  0  0
 10 12  1  0  0  0  0
 10 35  1  0  0  0  0
 11 13  1  0  0  0  0
 12 13  2  0  0  0  0
 12 14  1  0  0  0  0
 13 36  1  0  0  0  0
 14 15  1  0  0  0  0
 14 16  2  0  0  0  0
 15 17  1  0  0  0  0
 15 37  1  0  0  0  0
 17 18  1  0  0  0  0
 17 19  1  0  0  0  0
 17 38  1  0  0  0  0
 18 20  1  0  0  0  0
 18 39  1  0  0  0  0
 18 40  1  0  0  0  0
 19 21  1  0  0  0  0
 19 41  1  0  0  0  0
 19 42  1  0  0  0  0
 20 22  1  0  0  0  0
 20 43  1  0  0  0  0
 20 44  1  0  0  0  0
 21 22  1  0  0  0  0
 21 45  1  0  0  0  0
 21 46  1  0  0  0  0
M  END
>  <DRUGBANK_ID>
DB16939

>  <COMMON_NAME>
TAK-418 free base

>  <CAS_NUMBER>
1818252-52-6

>  <UNII>
N9N6RK0CBN

>  <SYNONYMS>
5-((1R,2R)-2-((Cyclopropylmethyl)amino)cyclopropyl)-N-(tetrahydro-2H-pyran-4-yl)thiophene-3-carboxamide

$$$$
