
 OpenBabel10282417072D

 48 52  0  0  1  0  0  0  0  0999 V2000
    1.7523    3.0364    0.0000 C   0  0  0  0  0  0  0  0  0  0  0  0
    2.3043    2.4233    0.0000 O   0  0  0  0  0  0  0  0  0  0  0  0
    3.1113    2.5948    0.0000 C   0  0  0  0  0  0  0  0  0  0  0  0
    3.6633    1.9817    0.0000 C   0  0  0  0  0  0  0  0  0  0  0  0
    4.4703    2.1533    0.0000 C   0  0  0  0  0  0  0  0  0  0  0  0
    4.7252    2.9379    0.0000 C   0  0  0  0  0  0  0  0  0  0  0  0
    4.1732    3.5510    0.0000 C   0  0  0  0  0  0  0  0  0  0  0  0
    4.4281    4.3356    0.0000 Cl  0  0  0  0  0  0  0  0  0  0  0  0
    3.3662    3.3795    0.0000 C   0  0  0  0  0  0  0  0  0  0  0  0
    3.4084    1.1971    0.0000 C   0  0  2  0  0  0  0  0  0  0  0  0
    3.9604    0.5840    0.0000 N   0  0  0  0  0  0  0  0  0  0  0  0
    3.7054   -0.2006    0.0000 C   0  0  0  0  0  0  0  0  0  0  0  0
    2.8985   -0.3721    0.0000 C   0  0  0  0  0  0  0  0  0  0  0  0
    3.0700   -1.1791    0.0000 C   0  0  0  0  0  0  0  0  0  0  0  0
    2.2854   -0.9242    0.0000 C   0  0  0  0  0  0  0  0  0  0  0  0
    2.3464    0.2410    0.0000 C   0  0  0  0  0  0  0  0  0  0  0  0
    2.6014    1.0256    0.0000 C   0  0  0  0  0  0  0  0  0  0  0  0
    1.9339    1.5105    0.0000 N   0  0  0  0  0  0  0  0  0  0  0  0
    1.2665    1.0256    0.0000 C   0  0  0  0  0  0  0  0  0  0  0  0
    1.5214    0.2410    0.0000 C   0  0  0  0  0  0  0  0  0  0  0  0
    0.9694   -0.3721    0.0000 C   0  0  0  0  0  0  0  0  0  0  0  0
    1.2243   -1.1567    0.0000 F   0  0  0  0  0  0  0  0  0  0  0  0
    0.1624   -0.2006    0.0000 C   0  0  0  0  0  0  0  0  0  0  0  0
   -0.0925    0.5840    0.0000 C   0  0  0  0  0  0  0  0  0  0  0  0
    0.4595    1.1971    0.0000 C   0  0  0  0  0  0  0  0  0  0  0  0
    4.7674    0.7556    0.0000 C   0  0  0  0  0  0  0  0  0  0  0  0
    5.3194    0.1425    0.0000 C   0  0  0  0  0  0  0  0  0  0  0  0
    5.0223    1.5402    0.0000 O   0  0  0  0  0  0  0  0  0  0  0  0
    2.0830    4.0540    0.0000 H   0  0  0  0  0  0  0  0  0  0  0  0
    0.7057    2.8140    0.0000 H   0  0  0  0  0  0  0  0  0  0  0  0
    1.0364    3.8316    0.0000 H   0  0  0  0  0  0  0  0  0  0  0  0
    5.1609    1.3864    0.0000 H   0  0  0  0  0  0  0  0  0  0  0  0
    5.7346    3.1525    0.0000 H   0  0  0  0  0  0  0  0  0  0  0  0
    2.6756    4.1464    0.0000 H   0  0  0  0  0  0  0  0  0  0  0  0
    4.4550    1.4196    0.0000 H   0  0  0  0  0  0  0  0  0  0  0  0
    4.4213   -0.9958    0.0000 H   0  0  0  0  0  0  0  0  0  0  0  0
    3.3747   -1.2182    0.0000 H   0  0  0  0  0  0  0  0  0  0  0  0
    3.7860   -1.9743    0.0000 H   0  0  0  0  0  0  0  0  0  0  0  0
    2.4873   -2.0765    0.0000 H   0  0  0  0  0  0  0  0  0  0  0  0
    1.2388   -1.1467    0.0000 H   0  0  0  0  0  0  0  0  0  0  0  0
    1.7996    0.0292    0.0000 H   0  0  0  0  0  0  0  0  0  0  0  0
    1.9339    2.4950    0.0000 H   0  0  0  0  0  0  0  0  0  0  0  0
   -0.5281   -0.9675    0.0000 H   0  0  0  0  0  0  0  0  0  0  0  0
   -1.1019    0.7986    0.0000 H   0  0  0  0  0  0  0  0  0  0  0  0
    0.1406    2.1786    0.0000 H   0  0  0  0  0  0  0  0  0  0  0  0
    4.9887   -0.8751    0.0000 H   0  0  0  0  0  0  0  0  0  0  0  0
    6.3660    0.3649    0.0000 H   0  0  0  0  0  0  0  0  0  0  0  0
    6.0353   -0.6527    0.0000 H   0  0  0  0  0  0  0  0  0  0  0  0
  1  2  1  0  0  0  0
  1 29  1  0  0  0  0
  1 30  1  0  0  0  0
  1 31  1  0  0  0  0
  2  3  1  0  0  0  0
  3  4  2  0  0  0  0
  3  9  1  0  0  0  0
  4  5  1  0  0  0  0
  5  6  2  0  0  0  0
  5 32  1  0  0  0  0
  6  7  1  0  0  0  0
  6 33  1  0  0  0  0
  7  8  1  0  0  0  0
  7  9  2  0  0  0  0
  9 34  1  0  0  0  0
 10  4  1  0  0  0  0
 10 11  1  0  0  0  0
 10 17  1  0  0  0  0
 10 35  1  1  0  0  0
 11 12  1  0  0  0  0
 11 26  1  0  0  0  0
 12 13  1  0  0  0  0
 12 36  1  0  0  0  0
 12 37  1  0  0  0  0
 13 14  1  0  0  0  0
 13 15  1  0  0  0  0
 13 16  1  0  0  0  0
 14 15  1  0  0  0  0
 14 38  1  0  0  0  0
 14 39  1  0  0  0  0
 15 40  1  0  0  0  0
 15 41  1  0  0  0  0
 16 17  2  0  0  0  0
 16 20  1  0  0  0  0
 17 18  1  0  0  0  0
 18 19  1  0  0  0  0
 18 42  1  0  0  0  0
 19 20  2  0  0  0  0
 19 25  1  0  0  0  0
 20 21  1  0  0  0  0
 21 22  1  0  0  0  0
 21 23  2  0  0  0  0
 23 24  1  0  0  0  0
 23 43  1  0  0  0  0
 24 25  2  0  0  0  0
 24 44  1  0  0  0  0
 25 45  1  0  0  0  0
 26 27  1  0  0  0  0
 26 28  2  0  0  0  0
 27 46  1  0  0  0  0
 27 47  1  0  0  0  0
 27 48  1  0  0  0  0
M  END
>  <DRUGBANK_ID>
DB14802

>  <COMMON_NAME>
ONO-2952

>  <CAS_NUMBER>
895169-20-7

>  <UNII>
ZH8CPX4YNB

$$$$
