SM2
 OpenBabel10282417072D

 36 37  0  0  0  0  0  0  0  0999 V2000
   -2.9889    1.5395    0.0000 C   0  0  0  0  0  0  0  0  0  0  0  0
   -3.1605    2.3465    0.0000 C   0  0  0  0  0  0  0  0  0  0  0  0
   -2.4460    2.7590    0.0000 C   0  0  0  0  0  0  0  0  0  0  0  0
   -1.8329    2.2069    0.0000 S   0  0  0  0  0  0  0  0  0  0  0  0
   -2.1685    1.4533    0.0000 C   0  0  0  0  0  0  0  0  0  0  0  0
   -1.7560    0.7388    0.0000 C   0  0  0  0  0  0  0  0  0  0  0  0
   -0.9310    0.7388    0.0000 C   0  0  0  0  0  0  0  0  0  0  0  0
   -0.5185    1.4533    0.0000 O   0  0  0  0  0  0  0  0  0  0  0  0
   -0.5185    0.0243    0.0000 N   0  0  0  0  0  0  0  0  0  0  0  0
    0.3065    0.0243    0.0000 C   0  0  2  0  0  0  0  0  0  0  0  0
    0.7190    0.7388    0.0000 B   0  0  0  0  0  0  0  0  0  0  0  0
    0.3065    1.4533    0.0000 O   0  0  0  0  0  0  0  0  0  0  0  0
    1.5440    0.7388    0.0000 O   0  0  0  0  0  0  0  0  0  0  0  0
    0.7190   -0.6902    0.0000 C   0  0  0  0  0  0  0  0  0  0  0  0
    1.5440   -0.6902    0.0000 C   0  0  0  0  0  0  0  0  0  0  0  0
    0.3065   -1.4046    0.0000 C   0  0  0  0  0  0  0  0  0  0  0  0
    0.7190   -2.1191    0.0000 C   0  0  0  0  0  0  0  0  0  0  0  0
    1.5440   -2.1191    0.0000 C   0  0  0  0  0  0  0  0  0  0  0  0
    1.9565   -1.4046    0.0000 C   0  0  0  0  0  0  0  0  0  0  0  0
    2.7815   -1.4046    0.0000 C   0  0  0  0  0  0  0  0  0  0  0  0
    3.1940   -0.6902    0.0000 O   0  0  0  0  0  0  0  0  0  0  0  0
    3.1940   -2.1191    0.0000 O   0  0  0  0  0  0  0  0  0  0  0  0
    0.0146    0.5300    0.0000 H   0  0  0  0  0  0  0  0  0  0  0  0
   -3.6794    0.7725    0.0000 H   0  0  0  0  0  0  0  0  0  0  0  0
   -4.1033    2.7662    0.0000 H   0  0  0  0  0  0  0  0  0  0  0  0
   -2.3381    3.7853    0.0000 H   0  0  0  0  0  0  0  0  0  0  0  0
   -2.2910   -0.1878    0.0000 H   0  0  0  0  0  0  0  0  0  0  0  0
   -1.2210   -0.1878    0.0000 H   0  0  0  0  0  0  0  0  0  0  0  0
   -1.0108   -0.8283    0.0000 H   0  0  0  0  0  0  0  0  0  0  0  0
    0.7915    2.2933    0.0000 H   0  0  0  0  0  0  0  0  0  0  0  0
    2.0290   -0.1012    0.0000 H   0  0  0  0  0  0  0  0  0  0  0  0
    2.0600    0.2035    0.0000 H   0  0  0  0  0  0  0  0  0  0  0  0
   -0.7255   -1.4046    0.0000 H   0  0  0  0  0  0  0  0  0  0  0  0
    0.2030   -3.0128    0.0000 H   0  0  0  0  0  0  0  0  0  0  0  0
    2.0600   -3.0128    0.0000 H   0  0  0  0  0  0  0  0  0  0  0  0
    2.7255   -2.9306    0.0000 H   0  0  0  0  0  0  0  0  0  0  0  0
  1  2  1  0  0  0  0
  1  5  2  0  0  0  0
  1 24  1  0  0  0  0
  2  3  2  0  0  0  0
  2 25  1  0  0  0  0
  3  4  1  0  0  0  0
  3 26  1  0  0  0  0
  4  5  1  0  0  0  0
  5  6  1  0  0  0  0
  6  7  1  0  0  0  0
  6 27  1  0  0  0  0
  6 28  1  0  0  0  0
  7  8  2  0  0  0  0
  7  9  1  0  0  0  0
  9 10  1  0  0  0  0
  9 29  1  0  0  0  0
 10 11  1  0  0  0  0
 10 14  1  0  0  0  0
 10 23  1  1  0  0  0
 11 12  1  0  0  0  0
 11 13  1  0  0  0  0
 12 30  1  0  0  0  0
 13 31  1  0  0  0  0
 14 15  2  0  0  0  0
 14 16  1  0  0  0  0
 15 19  1  0  0  0  0
 15 32  1  0  0  0  0
 16 17  2  0  0  0  0
 16 33  1  0  0  0  0
 17 18  1  0  0  0  0
 17 34  1  0  0  0  0
 18 19  2  0  0  0  0
 18 35  1  0  0  0  0
 19 20  1  0  0  0  0
 20 21  2  0  0  0  0
 20 22  1  0  0  0  0
 22 36  1  0  0  0  0
M  END
>  <DRUGBANK_ID>
DB08551

>  <COMMON_NAME>
3-{(R)-(Dihydroxyboryl)[(2-thienylacetyl)amino]methyl}benzoic acid

>  <CAS_NUMBER>
497258-67-0

$$$$
