
 OpenBabel10282417072D

 39 38  0  0  0  0  0  0  0  0999 V2000
    3.2141   -0.4233    0.0000 C   0  0  0  0  0  0  0  0  0  0  0  0
    3.2141    0.4016    0.0000 O   0  0  0  0  0  0  0  0  0  0  0  0
    2.4996   -0.8358    0.0000 C   0  0  1  0  0  0  0  0  0  0  0  0
    2.4996   -1.6609    0.0000 N   0  0  0  0  0  0  0  0  0  0  0  0
   -1.0726   -0.4233    0.0000 N   0  0  0  0  0  0  0  0  0  0  0  0
   -0.3582   -0.8358    0.0000 C   0  0  0  0  0  0  0  0  0  0  0  0
    1.7851   -0.4233    0.0000 C   0  0  0  0  0  0  0  0  0  0  0  0
    0.3561   -0.4233    0.0000 C   0  0  0  0  0  0  0  0  0  0  0  0
    1.0707   -0.8358    0.0000 C   0  0  0  0  0  0  0  0  0  0  0  0
    3.9286   -0.8358    0.0000 O   0  0  0  0  0  0  0  0  0  0  0  0
   -1.0706    0.4231    0.0000 C   0  0  2  0  0  0  0  0  0  0  0  0
   -0.3551    0.8339    0.0000 C   0  0  0  0  0  0  0  0  0  0  0  0
   -0.3530    1.6589    0.0000 O   0  0  0  0  0  0  0  0  0  0  0  0
    0.3584    0.4196    0.0000 O   0  0  0  0  0  0  0  0  0  0  0  0
   -1.7850    0.8357    0.0000 C   0  0  0  0  0  0  0  0  0  0  0  0
   -2.4995    0.4231    0.0000 C   0  0  0  0  0  0  0  0  0  0  0  0
   -3.2141    0.8357    0.0000 C   0  0  0  0  0  0  0  0  0  0  0  0
   -3.9286    0.4231    0.0000 O   0  0  0  0  0  0  0  0  0  0  0  0
   -3.2140    1.6609    0.0000 O   0  0  0  0  0  0  0  0  0  0  0  0
    3.4262   -1.3708    0.0000 H   0  0  0  0  0  0  0  0  0  0  0  0
    1.6163   -2.1709    0.0000 H   0  0  0  0  0  0  0  0  0  0  0  0
    3.3829   -2.1709    0.0000 H   0  0  0  0  0  0  0  0  0  0  0  0
   -1.9566   -0.9322    0.0000 H   0  0  0  0  0  0  0  0  0  0  0  0
   -0.3582   -1.9058    0.0000 H   0  0  0  0  0  0  0  0  0  0  0  0
    0.5685   -1.3707    0.0000 H   0  0  0  0  0  0  0  0  0  0  0  0
    1.7851    0.6467    0.0000 H   0  0  0  0  0  0  0  0  0  0  0  0
    0.8584    0.1117    0.0000 H   0  0  0  0  0  0  0  0  0  0  0  0
    0.3560    0.6467    0.0000 H   0  0  0  0  0  0  0  0  0  0  0  0
    1.2827    0.1118    0.0000 H   0  0  0  0  0  0  0  0  0  0  0  0
    1.0708   -1.9058    0.0000 H   0  0  0  0  0  0  0  0  0  0  0  0
    0.1441   -1.3709    0.0000 H   0  0  0  0  0  0  0  0  0  0  0  0
    3.9286   -1.7728    0.0000 H   0  0  0  0  0  0  0  0  0  0  0  0
   -0.1452   -0.1141    0.0000 H   0  0  0  0  0  0  0  0  0  0  0  0
    0.3561   -0.5174    0.0000 H   0  0  0  0  0  0  0  0  0  0  0  0
   -1.7850    1.9057    0.0000 H   0  0  0  0  0  0  0  0  0  0  0  0
   -2.7117    1.3707    0.0000 H   0  0  0  0  0  0  0  0  0  0  0  0
   -2.4995   -0.6469    0.0000 H   0  0  0  0  0  0  0  0  0  0  0  0
   -3.4261   -0.1119    0.0000 H   0  0  0  0  0  0  0  0  0  0  0  0
   -4.7401    0.8915    0.0000 H   0  0  0  0  0  0  0  0  0  0  0  0
  1  2  2  0  0  0  0
  1  3  1  0  0  0  0
  3  4  1  0  0  0  0
  3  7  1  0  0  0  0
  3 20  1  6  0  0  0
  4 21  1  0  0  0  0
  4 22  1  0  0  0  0
  5  6  1  0  0  0  0
  5 23  1  0  0  0  0
  6  8  1  0  0  0  0
  6 24  1  0  0  0  0
  6 25  1  0  0  0  0
  7  9  1  0  0  0  0
  7 26  1  0  0  0  0
  7 27  1  0  0  0  0
  8  9  1  0  0  0  0
  8 28  1  0  0  0  0
  8 29  1  0  0  0  0
  9 30  1  0  0  0  0
  9 31  1  0  0  0  0
 10  1  1  0  0  0  0
 10 32  1  0  0  0  0
 11  5  1  0  0  0  0
 11 12  1  0  0  0  0
 11 33  1  6  0  0  0
 13 12  2  0  0  0  0
 14 12  1  0  0  0  0
 14 34  1  0  0  0  0
 15 11  1  0  0  0  0
 15 35  1  0  0  0  0
 15 36  1  0  0  0  0
 16 15  1  0  0  0  0
 16 17  1  0  0  0  0
 16 37  1  0  0  0  0
 16 38  1  0  0  0  0
 18 17  1  0  0  0  0
 18 39  1  0  0  0  0
 19 17  2  0  0  0  0
M  END
>  <DRUGBANK_ID>
DB04207

>  <SECONDARY_ACCESSION_NUMBERS>
EXPT02906

>  <COMMON_NAME>
L-Saccharopine

>  <CAS_NUMBER>
997-68-2

>  <UNII>
WBQ73O8W32

>  <SYNONYMS>
epsilon-N-(L-Glutar-2-yl)-L-lysine; N-[(S)-5-Amino-5-carboxypentyl]-L-glutamic acid; N6-(L-1,3-Dicarboxypropyl)-L-lysine; Saccharopine

$$$$
