1A2
 OpenBabel10282417072D

 52 55  0  0  0  0  0  0  0  0999 V2000
   -0.8874    1.5342    0.0000 C   0  0  0  0  0  0  0  0  0  0  0  0
   -1.5739   -0.8437    0.0000 C   0  0  0  0  0  0  0  0  0  0  0  0
   -0.7730   -0.6456    0.0000 N   0  0  0  0  0  0  0  0  0  0  0  0
   -3.2900    0.9397    0.0000 C   0  0  0  0  0  0  0  0  0  0  0  0
   -2.9467   -0.4474    0.0000 C   0  0  0  0  0  0  0  0  0  0  0  0
   -2.4891    1.1379    0.0000 C   0  0  0  0  0  0  0  0  0  0  0  0
   -3.5188    0.1471    0.0000 C   0  0  0  0  0  0  0  0  0  0  0  0
   -2.1459   -0.2492    0.0000 C   0  0  0  0  0  0  0  0  0  0  0  0
   -0.5442    0.1471    0.0000 C   0  0  3  0  0  0  0  0  0  0  0  0
   -1.1162    0.7416    0.0000 N   0  0  0  0  0  0  0  0  0  0  0  0
   -1.9171    0.5434    0.0000 C   0  0  0  0  0  0  0  0  0  0  0  0
   -3.1756   -1.2400    0.0000 F   0  0  0  0  0  0  0  0  0  0  0  0
   -2.2603    1.9305    0.0000 F   0  0  0  0  0  0  0  0  0  0  0  0
   -0.3154    0.9397    0.0000 C   0  0  0  0  0  0  0  0  0  0  0  0
    0.4855    1.1379    0.0000 C   0  0  0  0  0  0  0  0  0  0  0  0
    1.0575    0.5434    0.0000 N   0  0  0  0  0  0  0  0  0  0  0  0
    0.8287   -0.2492    0.0000 C   0  0  0  0  0  0  0  0  0  0  0  0
    0.0278   -0.4474    0.0000 C   0  0  0  0  0  0  0  0  0  0  0  0
    1.8584    0.7416    0.0000 C   0  0  0  0  0  0  0  0  0  0  0  0
    2.0872    1.5342    0.0000 O   0  0  0  0  0  0  0  0  0  0  0  0
   -1.8027   -1.6363    0.0000 N   0  0  0  0  0  0  0  0  0  0  0  0
    2.4304    0.1471    0.0000 C   0  0  0  0  0  0  0  0  0  0  0  0
    3.2312    0.3452    0.0000 C   0  0  0  0  0  0  0  0  0  0  0  0
    3.8033   -0.2492    0.0000 N   0  0  0  0  0  0  0  0  0  0  0  0
    3.5745   -1.0419    0.0000 C   0  0  0  0  0  0  0  0  0  0  0  0
    2.7736   -1.2400    0.0000 C   0  0  0  0  0  0  0  0  0  0  0  0
    2.2016   -0.6456    0.0000 C   0  0  0  0  0  0  0  0  0  0  0  0
    4.1465   -1.6363    0.0000 C   0  0  0  0  0  0  0  0  0  0  0  0
    4.7185   -2.2308    0.0000 N   0  0  0  0  0  0  0  0  0  0  0  0
   -1.4594    2.1287    0.0000 C   0  0  0  0  0  0  0  0  0  0  0  0
    0.1513    1.7912    0.0000 H   0  0  0  0  0  0  0  0  0  0  0  0
   -0.5906    2.5622    0.0000 H   0  0  0  0  0  0  0  0  0  0  0  0
   -4.0056    1.6833    0.0000 H   0  0  0  0  0  0  0  0  0  0  0  0
   -4.5206   -0.1008    0.0000 H   0  0  0  0  0  0  0  0  0  0  0  0
   -1.0573    1.7107    0.0000 H   0  0  0  0  0  0  0  0  0  0  0  0
   -0.0187    1.9677    0.0000 H   0  0  0  0  0  0  0  0  0  0  0  0
    0.7823    2.1659    0.0000 H   0  0  0  0  0  0  0  0  0  0  0  0
    1.5242    1.3949    0.0000 H   0  0  0  0  0  0  0  0  0  0  0  0
    1.5706   -1.0202    0.0000 H   0  0  0  0  0  0  0  0  0  0  0  0
    0.5320   -1.2772    0.0000 H   0  0  0  0  0  0  0  0  0  0  0  0
   -0.2690   -1.4754    0.0000 H   0  0  0  0  0  0  0  0  0  0  0  0
    0.7697   -1.2184    0.0000 H   0  0  0  0  0  0  0  0  0  0  0  0
   -2.7584   -1.8728    0.0000 H   0  0  0  0  0  0  0  0  0  0  0  0
   -1.1201   -2.3457    0.0000 H   0  0  0  0  0  0  0  0  0  0  0  0
    3.5174    1.3367    0.0000 H   0  0  0  0  0  0  0  0  0  0  0  0
    2.4768   -2.2680    0.0000 H   0  0  0  0  0  0  0  0  0  0  0  0
    1.7349   -1.4970    0.0000 H   0  0  0  0  0  0  0  0  0  0  0  0
    1.1629   -0.9026    0.0000 H   0  0  0  0  0  0  0  0  0  0  0  0
    1.9049   -1.6736    0.0000 H   0  0  0  0  0  0  0  0  0  0  0  0
   -1.1626    3.1567    0.0000 H   0  0  0  0  0  0  0  0  0  0  0  0
   -2.4981    1.8717    0.0000 H   0  0  0  0  0  0  0  0  0  0  0  0
   -2.2013    2.8998    0.0000 H   0  0  0  0  0  0  0  0  0  0  0  0
  1 10  1  0  0  0  0
  1 30  1  0  0  0  0
  1 31  1  0  0  0  0
  1 32  1  0  0  0  0
  2  3  2  0  0  0  0
  2  8  1  0  0  0  0
  2 21  1  0  0  0  0
  3  9  1  0  0  0  0
  4  6  1  0  0  0  0
  4  7  2  0  0  0  0
  4 33  1  0  0  0  0
  5  7  1  0  0  0  0
  5  8  2  0  0  0  0
  5 12  1  0  0  0  0
  6 11  2  0  0  0  0
  6 13  1  0  0  0  0
  7 34  1  0  0  0  0
  8 11  1  0  0  0  0
  9 10  1  0  0  0  0
  9 14  1  0  0  0  0
  9 18  1  0  0  0  0
 10 11  1  0  0  0  0
 14 15  1  0  0  0  0
 14 35  1  0  0  0  0
 14 36  1  0  0  0  0
 15 16  1  0  0  0  0
 15 37  1  0  0  0  0
 15 38  1  0  0  0  0
 16 17  1  0  0  0  0
 16 19  1  0  0  0  0
 17 18  1  0  0  0  0
 17 39  1  0  0  0  0
 17 40  1  0  0  0  0
 18 41  1  0  0  0  0
 18 42  1  0  0  0  0
 19 20  2  0  0  0  0
 19 22  1  0  0  0  0
 21 43  1  0  0  0  0
 21 44  1  0  0  0  0
 22 23  2  0  0  0  0
 22 27  1  0  0  0  0
 23 24  1  0  0  0  0
 23 45  1  0  0  0  0
 24 25  2  0  0  0  0
 25 26  1  0  0  0  0
 25 28  1  0  0  0  0
 26 27  1  0  0  0  0
 26 46  1  0  0  0  0
 26 47  1  0  0  0  0
 27 48  1  0  0  0  0
 27 49  1  0  0  0  0
 28 29  3  0  0  0  0
 30 50  1  0  0  0  0
 30 51  1  0  0  0  0
 30 52  1  0  0  0  0
M  END
>  <DRUGBANK_ID>
DB06879

>  <COMMON_NAME>
5-(4'-AMINO-1'-ETHYL-5',8'-DIFLUORO-1'H-SPIRO[PIPERIDINE-4,2'-QUINAZOLINE]-1-YLCARBONYL)PICOLINONITRILE

$$$$
