AGF
 OpenBabel10282417072D

 57 58  0  0  0  0  0  0  0  0999 V2000
   -2.5427    0.5955    0.0000 C   0  0  0  0  0  0  0  0  0  0  0  0
   -2.4480    1.4151    0.0000 O   0  0  0  0  0  0  0  0  0  0  0  0
   -3.2997    0.2677    0.0000 O   0  0  0  0  0  0  0  0  0  0  0  0
   -3.9622    0.7594    0.0000 C   0  0  0  0  0  0  0  0  0  0  0  0
   -4.7193    0.4316    0.0000 C   0  0  0  0  0  0  0  0  0  0  0  0
   -4.8139   -0.3879    0.0000 C   0  0  0  0  0  0  0  0  0  0  0  0
   -5.3817    0.9234    0.0000 C   0  0  0  0  0  0  0  0  0  0  0  0
   -5.5710   -0.7158    0.0000 C   0  0  0  0  0  0  0  0  0  0  0  0
   -6.1388    0.5955    0.0000 C   0  0  0  0  0  0  0  0  0  0  0  0
   -6.2334   -0.2240    0.0000 C   0  0  0  0  0  0  0  0  0  0  0  0
   -0.4607   -0.0601    0.0000 C   0  0  0  0  0  0  0  0  0  0  0  0
   -0.5554   -0.8797    0.0000 O   0  0  0  0  0  0  0  0  0  0  0  0
   -1.1232    0.4316    0.0000 C   0  0  2  0  0  0  0  0  0  0  0  0
   -1.0285    1.2512    0.0000 C   0  0  0  0  0  0  0  0  0  0  0  0
   -1.8802    0.1038    0.0000 N   0  0  0  0  0  0  0  0  0  0  0  0
    0.9588   -0.2240    0.0000 C   0  0  0  0  0  0  0  0  0  0  0  0
    0.2964    0.2677    0.0000 N   0  0  0  0  0  0  0  0  0  0  0  0
    1.7159    0.1038    0.0000 P   0  0  1  0  0  0  0  0  0  0  0  0
    2.0437   -0.6533    0.0000 O   0  0  0  0  0  0  0  0  0  0  0  0
    1.3880    0.8609    0.0000 O   0  0  0  0  0  0  0  0  0  0  0  0
    2.4729    0.4316    0.0000 O   0  0  0  0  0  0  0  0  0  0  0  0
    3.1354   -0.0601    0.0000 C   0  0  2  0  0  0  0  0  0  0  0  0
    3.0407   -0.8797    0.0000 C   0  0  0  0  0  0  0  0  0  0  0  0
    3.7032   -1.3714    0.0000 O   0  0  0  0  0  0  0  0  0  0  0  0
    2.2837   -1.2075    0.0000 O   0  0  0  0  0  0  0  0  0  0  0  0
    3.8924    0.2677    0.0000 C   0  0  0  0  0  0  0  0  0  0  0  0
    4.5549   -0.2240    0.0000 C   0  0  0  0  0  0  0  0  0  0  0  0
    5.3120    0.1038    0.0000 C   0  0  0  0  0  0  0  0  0  0  0  0
    4.4602   -1.0436    0.0000 C   0  0  0  0  0  0  0  0  0  0  0  0
    5.9744   -0.3879    0.0000 C   0  0  0  0  0  0  0  0  0  0  0  0
    5.1227   -1.5353    0.0000 C   0  0  0  0  0  0  0  0  0  0  0  0
    5.8798   -1.2075    0.0000 C   0  0  0  0  0  0  0  0  0  0  0  0
   -0.5873    0.6637    0.0000 H   0  0  0  0  0  0  0  0  0  0  0  0
    2.5995   -0.2921    0.0000 H   0  0  0  0  0  0  0  0  0  0  0  0
   -3.8395    1.8223    0.0000 H   0  0  0  0  0  0  0  0  0  0  0  0
   -4.8214    1.3972    0.0000 H   0  0  0  0  0  0  0  0  0  0  0  0
   -3.9852   -1.0030    0.0000 H   0  0  0  0  0  0  0  0  0  0  0  0
   -5.2633    1.9486    0.0000 H   0  0  0  0  0  0  0  0  0  0  0  0
   -5.6894   -1.7410    0.0000 H   0  0  0  0  0  0  0  0  0  0  0  0
   -6.9675    1.2106    0.0000 H   0  0  0  0  0  0  0  0  0  0  0  0
   -7.1804   -0.6340    0.0000 H   0  0  0  0  0  0  0  0  0  0  0  0
   -0.0466    1.6763    0.0000 H   0  0  0  0  0  0  0  0  0  0  0  0
   -1.8876    1.8890    0.0000 H   0  0  0  0  0  0  0  0  0  0  0  0
   -0.9057    2.3141    0.0000 H   0  0  0  0  0  0  0  0  0  0  0  0
   -1.9931   -0.8742    0.0000 H   0  0  0  0  0  0  0  0  0  0  0  0
    0.8360   -1.2869    0.0000 H   0  0  0  0  0  0  0  0  0  0  0  0
    1.8179   -0.8618    0.0000 H   0  0  0  0  0  0  0  0  0  0  0  0
    0.4093    1.2457    0.0000 H   0  0  0  0  0  0  0  0  0  0  0  0
    1.9661    1.6398    0.0000 H   0  0  0  0  0  0  0  0  0  0  0  0
    1.5313   -0.6490    0.0000 H   0  0  0  0  0  0  0  0  0  0  0  0
    4.0151    1.3306    0.0000 H   0  0  0  0  0  0  0  0  0  0  0  0
    4.8743    0.6929    0.0000 H   0  0  0  0  0  0  0  0  0  0  0  0
    5.4304    1.1290    0.0000 H   0  0  0  0  0  0  0  0  0  0  0  0
    3.5132   -1.4537    0.0000 H   0  0  0  0  0  0  0  0  0  0  0  0
    6.9214    0.0222    0.0000 H   0  0  0  0  0  0  0  0  0  0  0  0
    5.0043   -2.5605    0.0000 H   0  0  0  0  0  0  0  0  0  0  0  0
    6.7085   -1.8226    0.0000 H   0  0  0  0  0  0  0  0  0  0  0  0
  1  2  2  0  0  0  0
  1  3  1  0  0  0  0
  1 15  1  0  0  0  0
  3  4  1  0  0  0  0
  4  5  1  0  0  0  0
  4 35  1  0  0  0  0
  4 36  1  0  0  0  0
  5  6  2  0  0  0  0
  5  7  1  0  0  0  0
  6  8  1  0  0  0  0
  6 37  1  0  0  0  0
  7  9  2  0  0  0  0
  7 38  1  0  0  0  0
  8 10  2  0  0  0  0
  8 39  1  0  0  0  0
  9 10  1  0  0  0  0
  9 40  1  0  0  0  0
 10 41  1  0  0  0  0
 11 12  2  0  0  0  0
 11 13  1  0  0  0  0
 11 17  1  0  0  0  0
 13 14  1  0  0  0  0
 13 15  1  0  0  0  0
 13 33  1  6  0  0  0
 14 42  1  0  0  0  0
 14 43  1  0  0  0  0
 14 44  1  0  0  0  0
 15 45  1  0  0  0  0
 16 17  1  0  0  0  0
 16 18  1  0  0  0  0
 16 46  1  0  0  0  0
 16 47  1  0  0  0  0
 17 48  1  0  0  0  0
 18 19  2  6  0  0  0
 18 20  1  0  0  0  0
 18 21  1  0  0  0  0
 20 49  1  0  0  0  0
 22 21  1  0  0  0  0
 22 23  1  0  0  0  0
 22 26  1  0  0  0  0
 22 34  1  6  0  0  0
 23 24  2  0  0  0  0
 23 25  1  0  0  0  0
 25 50  1  0  0  0  0
 26 27  1  0  0  0  0
 26 51  1  0  0  0  0
 26 52  1  0  0  0  0
 27 28  2  0  0  0  0
 27 29  1  0  0  0  0
 28 30  1  0  0  0  0
 28 53  1  0  0  0  0
 29 31  2  0  0  0  0
 29 54  1  0  0  0  0
 30 32  2  0  0  0  0
 30 55  1  0  0  0  0
 31 32  1  0  0  0  0
 31 56  1  0  0  0  0
 32 57  1  0  0  0  0
M  END
>  <DRUGBANK_ID>
DB07351

>  <COMMON_NAME>
O-(((1R)-((N-(PHENYL-METHOXY-CARBONYL)-ALANYL)-AMINO)METHYL)HYDROXYPHOSPHINYL)3-L-PHENYLLACTATE

$$$$
