
 OpenBabel10282417072D

 54 56  0  0  0  0  0  0  0  0999 V2000
    2.8787    1.4643    0.0000 C   0  0  0  0  0  0  0  0  0  0  0  0
    3.4090    0.8323    0.0000 N   0  3  0  0  0  0  0  0  0  0  0  0
    4.1234    0.4198    0.0000 C   0  0  0  0  0  0  0  0  0  0  0  0
    4.1234   -0.4052    0.0000 C   0  0  0  0  0  0  0  0  0  0  0  0
    3.4090   -0.8177    0.0000 C   0  0  0  0  0  0  0  0  0  0  0  0
    2.6945   -0.4052    0.0000 C   0  0  0  0  0  0  0  0  0  0  0  0
    2.6945    0.4198    0.0000 C   0  0  0  0  0  0  0  0  0  0  0  0
    3.9393    1.4643    0.0000 C   0  0  0  0  0  0  0  0  0  0  0  0
    3.6571    2.2395    0.0000 C   0  0  0  0  0  0  0  0  0  0  0  0
    4.1874    2.8715    0.0000 C   0  0  0  0  0  0  0  0  0  0  0  0
    4.7177    3.5035    0.0000 C   0  0  0  0  0  0  0  0  0  0  0  0
    4.4355    4.2787    0.0000 C   0  0  0  0  0  0  0  0  0  0  0  0
    4.9658    4.9107    0.0000 C   0  0  0  0  0  0  0  0  0  0  0  0
    5.7783    4.7675    0.0000 C   0  0  0  0  0  0  0  0  0  0  0  0
    6.0605    3.9922    0.0000 C   0  0  0  0  0  0  0  0  0  0  0  0
    5.5302    3.3602    0.0000 C   0  0  0  0  0  0  0  0  0  0  0  0
    4.8194    2.3412    0.0000 C   0  0  0  0  0  0  0  0  0  0  0  0
    5.5946    2.6234    0.0000 C   0  0  0  0  0  0  0  0  0  0  0  0
    6.2266    2.0931    0.0000 C   0  0  0  0  0  0  0  0  0  0  0  0
    6.0834    1.2806    0.0000 C   0  0  0  0  0  0  0  0  0  0  0  0
    5.3081    0.9984    0.0000 C   0  0  0  0  0  0  0  0  0  0  0  0
    4.6761    1.5287    0.0000 C   0  0  0  0  0  0  0  0  0  0  0  0
    3.5554    3.4018    0.0000 C   0  0  0  0  0  0  0  0  0  0  0  0
    3.6987    4.2143    0.0000 O   0  0  0  0  0  0  0  0  0  0  0  0
    2.7802    3.1196    0.0000 N   0  0  0  0  0  0  0  0  0  0  0  0
    3.2447    2.4698    0.0000 H   0  0  0  0  0  0  0  0  0  0  0  0
    1.8250    1.2785    0.0000 H   0  0  0  0  0  0  0  0  0  0  0  0
    2.1909    2.2840    0.0000 H   0  0  0  0  0  0  0  0  0  0  0  0
    5.0501    0.9548    0.0000 H   0  0  0  0  0  0  0  0  0  0  0  0
    5.0500   -0.1152    0.0000 H   0  0  0  0  0  0  0  0  0  0  0  0
    5.0501   -0.9402    0.0000 H   0  0  0  0  0  0  0  0  0  0  0  0
    4.1234   -1.4752    0.0000 H   0  0  0  0  0  0  0  0  0  0  0  0
    3.4090   -1.8877    0.0000 H   0  0  0  0  0  0  0  0  0  0  0  0
    2.4824   -1.3527    0.0000 H   0  0  0  0  0  0  0  0  0  0  0  0
    1.7679   -0.9402    0.0000 H   0  0  0  0  0  0  0  0  0  0  0  0
    1.7679    0.1298    0.0000 H   0  0  0  0  0  0  0  0  0  0  0  0
    1.7679    0.9548    0.0000 H   0  0  0  0  0  0  0  0  0  0  0  0
    2.6945    1.4898    0.0000 H   0  0  0  0  0  0  0  0  0  0  0  0
    4.9931    1.2785    0.0000 H   0  0  0  0  0  0  0  0  0  0  0  0
    4.6270    2.2840    0.0000 H   0  0  0  0  0  0  0  0  0  0  0  0
    2.6033    2.4253    0.0000 H   0  0  0  0  0  0  0  0  0  0  0  0
    3.2911    3.2450    0.0000 H   0  0  0  0  0  0  0  0  0  0  0  0
    3.4192    4.4579    0.0000 H   0  0  0  0  0  0  0  0  0  0  0  0
    4.6128    5.8804    0.0000 H   0  0  0  0  0  0  0  0  0  0  0  0
    6.4416    5.5581    0.0000 H   0  0  0  0  0  0  0  0  0  0  0  0
    7.0768    3.8130    0.0000 H   0  0  0  0  0  0  0  0  0  0  0  0
    5.8831    2.3904    0.0000 H   0  0  0  0  0  0  0  0  0  0  0  0
    5.7738    3.6397    0.0000 H   0  0  0  0  0  0  0  0  0  0  0  0
    7.1963    2.4461    0.0000 H   0  0  0  0  0  0  0  0  0  0  0  0
    6.8740    0.6173    0.0000 H   0  0  0  0  0  0  0  0  0  0  0  0
    5.1289   -0.0179    0.0000 H   0  0  0  0  0  0  0  0  0  0  0  0
    3.7063    1.1758    0.0000 H   0  0  0  0  0  0  0  0  0  0  0  0
    2.0260    3.7524    0.0000 H   0  0  0  0  0  0  0  0  0  0  0  0
    2.6093    2.1500    0.0000 H   0  0  0  0  0  0  0  0  0  0  0  0
  1  2  1  0  0  0  0
  1 26  1  0  0  0  0
  1 27  1  0  0  0  0
  1 28  1  0  0  0  0
  2  3  1  0  0  0  0
  2  7  1  0  0  0  0
  2  8  1  0  0  0  0
  3  4  1  0  0  0  0
  3 29  1  0  0  0  0
  3 30  1  0  0  0  0
  4  5  1  0  0  0  0
  4 31  1  0  0  0  0
  4 32  1  0  0  0  0
  5  6  1  0  0  0  0
  5 33  1  0  0  0  0
  5 34  1  0  0  0  0
  6  7  1  0  0  0  0
  6 35  1  0  0  0  0
  6 36  1  0  0  0  0
  7 37  1  0  0  0  0
  7 38  1  0  0  0  0
  8  9  1  0  0  0  0
  8 39  1  0  0  0  0
  8 40  1  0  0  0  0
  9 10  1  0  0  0  0
  9 41  1  0  0  0  0
  9 42  1  0  0  0  0
 10 11  1  0  0  0  0
 10 17  1  0  0  0  0
 10 23  1  0  0  0  0
 11 12  2  0  0  0  0
 11 16  1  0  0  0  0
 12 13  1  0  0  0  0
 12 43  1  0  0  0  0
 13 14  2  0  0  0  0
 13 44  1  0  0  0  0
 14 15  1  0  0  0  0
 14 45  1  0  0  0  0
 15 16  2  0  0  0  0
 15 46  1  0  0  0  0
 16 47  1  0  0  0  0
 17 18  2  0  0  0  0
 17 22  1  0  0  0  0
 18 19  1  0  0  0  0
 18 48  1  0  0  0  0
 19 20  2  0  0  0  0
 19 49  1  0  0  0  0
 20 21  1  0  0  0  0
 20 50  1  0  0  0  0
 21 22  2  0  0  0  0
 21 51  1  0  0  0  0
 22 52  1  0  0  0  0
 23 24  2  0  0  0  0
 23 25  1  0  0  0  0
 25 53  1  0  0  0  0
 25 54  1  0  0  0  0
M  CHG  1   2   1
M  END
>  <DRUGBANK_ID>
DB13759

>  <COMMON_NAME>
Fenpiverinium

>  <CAS_NUMBER>
258329-46-3

>  <UNII>
KP2L8LC73B

$$$$
