
 OpenBabel10282417072D

 19 18  0  0  0  0  0  0  0  0999 V2000
    0.0042    0.6138    0.0000 C   0  0  0  0  0  0  0  0  0  0  0  0
    0.7181    0.2046    0.0000 C   0  0  0  0  0  0  0  0  0  0  0  0
    1.4321    0.6179    0.0000 O   0  0  0  0  0  0  0  0  0  0  0  0
   -0.7139    0.2046    0.0000 N   0  3  0  0  0  0  0  0  0  0  0  0
   -1.4275    0.6220    0.0000 C   0  0  0  0  0  0  0  0  0  0  0  0
   -0.7186   -0.6220    0.0000 C   0  0  0  0  0  0  0  0  0  0  0  0
   -1.4321   -0.2045    0.0000 C   0  0  0  0  0  0  0  0  0  0  0  0
    0.0056    1.6838    0.0000 H   0  0  0  0  0  0  0  0  0  0  0  0
    0.9303    1.1497    0.0000 H   0  0  0  0  0  0  0  0  0  0  0  0
    0.7203   -0.8274    0.0000 H   0  0  0  0  0  0  0  0  0  0  0  0
   -1.4214    1.6920    0.0000 H   0  0  0  0  0  0  0  0  0  0  0  0
   -2.3572    0.0923    0.0000 H   0  0  0  0  0  0  0  0  0  0  0  0
   -2.3511    1.1622    0.0000 H   0  0  0  0  0  0  0  0  0  0  0  0
   -1.6483   -1.1517    0.0000 H   0  0  0  0  0  0  0  0  0  0  0  0
    0.2050   -1.1623    0.0000 H   0  0  0  0  0  0  0  0  0  0  0  0
   -0.7247   -1.6920    0.0000 H   0  0  0  0  0  0  0  0  0  0  0  0
   -2.3556    0.3359    0.0000 H   0  0  0  0  0  0  0  0  0  0  0  0
   -1.4383   -1.2745    0.0000 H   0  0  0  0  0  0  0  0  0  0  0  0
   -2.3618   -0.7341    0.0000 H   0  0  0  0  0  0  0  0  0  0  0  0
  1  4  1  0  0  0  0
  1  2  1  0  0  0  0
  1  8  1  0  0  0  0
  1  9  1  0  0  0  0
  2  3  2  0  0  0  0
  2 10  1  0  0  0  0
  4  5  1  0  0  0  0
  4  6  1  0  0  0  0
  4  7  1  0  0  0  0
  5 11  1  0  0  0  0
  5 12  1  0  0  0  0
  5 13  1  0  0  0  0
  6 14  1  0  0  0  0
  6 15  1  0  0  0  0
  6 16  1  0  0  0  0
  7 17  1  0  0  0  0
  7 18  1  0  0  0  0
  7 19  1  0  0  0  0
M  CHG  1   4   1
M  END
>  <DRUGBANK_ID>
DB04401

>  <SECONDARY_ACCESSION_NUMBERS>
EXPT00767

>  <COMMON_NAME>
Betaine aldehyde

>  <CAS_NUMBER>
7418-61-3

>  <UNII>
DEI7V5X7RB

>  <SYNONYMS>
Glycine betaine aldehyde

$$$$
