3GV
 OpenBabel10282417072D

 27 28  0  0  0  0  0  0  0  0999 V2000
    1.1034    1.1401    0.0000 O   0  0  0  0  0  0  0  0  0  0  0  0
    0.3188    0.8852    0.0000 C   0  0  0  0  0  0  0  0  0  0  0  0
   -0.3487    1.3701    0.0000 C   0  0  0  0  0  0  0  0  0  0  0  0
    0.0638    0.1006    0.0000 N   0  0  0  0  0  0  0  0  0  0  0  0
   -0.7612    0.1006    0.0000 C   0  0  0  0  0  0  0  0  0  0  0  0
   -1.0161    0.8852    0.0000 C   0  0  1  0  0  0  0  0  0  0  0  0
   -1.8007    1.1401    0.0000 C   0  0  0  0  0  0  0  0  0  0  0  0
   -1.9722    1.9471    0.0000 O   0  0  0  0  0  0  0  0  0  0  0  0
   -2.4138    0.5881    0.0000 O   0  0  0  0  0  0  0  0  0  0  0  0
    0.5488   -0.5669    0.0000 C   0  0  0  0  0  0  0  0  0  0  0  0
    1.3692   -0.4806    0.0000 C   0  0  0  0  0  0  0  0  0  0  0  0
    1.7048    0.2730    0.0000 O   0  0  0  0  0  0  0  0  0  0  0  0
    1.8542   -1.1481    0.0000 C   0  0  0  0  0  0  0  0  0  0  0  0
    1.5186   -1.9018    0.0000 C   0  0  0  0  0  0  0  0  0  0  0  0
    0.6981   -1.9880    0.0000 C   0  0  0  0  0  0  0  0  0  0  0  0
    0.2132   -1.3206    0.0000 C   0  0  0  0  0  0  0  0  0  0  0  0
   -1.1074    1.4619    0.0000 H   0  0  0  0  0  0  0  0  0  0  0  0
   -0.3487    2.4401    0.0000 H   0  0  0  0  0  0  0  0  0  0  0  0
   -1.3021    1.8559    0.0000 H   0  0  0  0  0  0  0  0  0  0  0  0
   -1.3901   -0.7650    0.0000 H   0  0  0  0  0  0  0  0  0  0  0  0
   -1.8180    0.2680    0.0000 H   0  0  0  0  0  0  0  0  0  0  0  0
   -1.2758    2.5740    0.0000 H   0  0  0  0  0  0  0  0  0  0  0  0
    2.6367    0.3709    0.0000 H   0  0  0  0  0  0  0  0  0  0  0  0
    2.8805   -1.0402    0.0000 H   0  0  0  0  0  0  0  0  0  0  0  0
    2.1252   -2.7367    0.0000 H   0  0  0  0  0  0  0  0  0  0  0  0
    0.2783   -2.9308    0.0000 H   0  0  0  0  0  0  0  0  0  0  0  0
   -0.8131   -1.4285    0.0000 H   0  0  0  0  0  0  0  0  0  0  0  0
  2  1  2  0  0  0  0
  2  4  1  0  0  0  0
  3  2  1  0  0  0  0
  3 18  1  0  0  0  0
  3 19  1  0  0  0  0
  4 10  1  0  0  0  0
  5  4  1  0  0  0  0
  5 20  1  0  0  0  0
  5 21  1  0  0  0  0
  6  3  1  0  0  0  0
  6  5  1  0  0  0  0
  6 17  1  6  0  0  0
  6  7  1  0  0  0  0
  7  8  1  0  0  0  0
  8 22  1  0  0  0  0
  9  7  2  0  0  0  0
 10 11  2  0  0  0  0
 10 16  1  0  0  0  0
 11 13  1  0  0  0  0
 12 11  1  0  0  0  0
 12 23  1  0  0  0  0
 13 14  2  0  0  0  0
 13 24  1  0  0  0  0
 14 25  1  0  0  0  0
 15 14  1  0  0  0  0
 15 26  1  0  0  0  0
 16 15  2  0  0  0  0
 16 27  1  0  0  0  0
M  END
>  <DRUGBANK_ID>
DB07057

>  <COMMON_NAME>
(3S)-1-(2-hydroxyphenyl)-5-oxopyrrolidine-3-carboxylic acid

$$$$
