
 OpenBabel10282417072D

 72 76  0  0  1  0  0  0  0  0999 V2000
    1.3895   -1.8497    0.0000 C   0  0  0  0  0  0  0  0  0  0  0  0
    1.7494   -2.5921    0.0000 C   0  0  1  0  0  0  0  0  0  0  0  0
    2.2812   -1.9614    0.0000 C   0  0  0  0  0  0  0  0  0  0  0  0
    3.0934   -2.1066    0.0000 C   0  0  1  0  0  0  0  0  0  0  0  0
    3.3737   -2.8825    0.0000 C   0  0  0  0  0  0  0  0  0  0  0  0
    4.1858   -3.0277    0.0000 C   0  0  0  0  0  0  0  0  0  0  0  0
    4.7176   -2.3970    0.0000 C   0  0  0  0  0  0  0  0  0  0  0  0
    5.5297   -2.5422    0.0000 C   0  0  0  0  0  0  0  0  0  0  0  0
    5.8100   -3.3182    0.0000 C   0  0  0  0  0  0  0  0  0  0  0  0
    6.6221   -3.4634    0.0000 O   0  0  0  0  0  0  0  0  0  0  0  0
    5.2782   -3.9489    0.0000 C   0  0  0  0  0  0  0  0  0  0  0  0
    4.4661   -3.8037    0.0000 C   0  0  0  0  0  0  0  0  0  0  0  0
    3.9343   -4.4344    0.0000 C   0  0  0  0  0  0  0  0  0  0  0  0
    3.1221   -4.2891    0.0000 C   0  0  0  0  0  0  0  0  0  0  0  0
    2.8418   -3.5132    0.0000 C   0  0  1  0  0  0  0  0  0  0  0  0
    2.0297   -3.3680    0.0000 C   0  0  2  0  0  0  0  0  0  0  0  0
    1.3784   -3.8744    0.0000 C   0  0  0  0  0  0  0  0  0  0  0  0
    0.6955   -3.4114    0.0000 C   0  0  0  0  0  0  0  0  0  0  0  0
    0.9249   -2.6189    0.0000 C   0  0  2  0  0  0  0  0  0  0  0  0
    0.1640   -2.3000    0.0000 C   0  0  0  0  0  0  0  0  0  0  0  0
   -0.4926   -2.7995    0.0000 C   0  0  0  0  0  0  0  0  0  0  0  0
   -1.2535   -2.4806    0.0000 C   0  0  0  0  0  0  0  0  0  0  0  0
   -1.9101   -2.9801    0.0000 O   0  0  0  0  0  0  0  0  0  0  0  0
    0.8035   -1.8029    0.0000 O   0  0  0  0  0  0  0  0  0  0  0  0
    3.6252   -1.4759    0.0000 C   0  0  0  0  0  0  0  0  0  0  0  0
    3.3449   -0.7000    0.0000 C   0  0  0  0  0  0  0  0  0  0  0  0
    3.8767   -0.0692    0.0000 C   0  0  0  0  0  0  0  0  0  0  0  0
    4.6888   -0.2145    0.0000 C   0  0  0  0  0  0  0  0  0  0  0  0
    4.9691   -0.9904    0.0000 C   0  0  0  0  0  0  0  0  0  0  0  0
    4.4373   -1.6211    0.0000 C   0  0  0  0  0  0  0  0  0  0  0  0
    5.2206    0.4162    0.0000 N   0  0  0  0  0  0  0  0  0  0  0  0
    6.0328    0.2710    0.0000 C   0  0  0  0  0  0  0  0  0  0  0  0
    4.9403    1.1922    0.0000 C   0  0  0  0  0  0  0  0  0  0  0  0
    1.9900   -0.9641    0.0000 H   0  0  0  0  0  0  0  0  0  0  0  0
    0.3223   -1.7725    0.0000 H   0  0  0  0  0  0  0  0  0  0  0  0
    0.9227   -0.8869    0.0000 H   0  0  0  0  0  0  0  0  0  0  0  0
    1.9176   -0.9551    0.0000 H   0  0  0  0  0  0  0  0  0  0  0  0
    2.9709   -1.1434    0.0000 H   0  0  0  0  0  0  0  0  0  0  0  0
    2.7298   -1.1003    0.0000 H   0  0  0  0  0  0  0  0  0  0  0  0
    4.3540   -1.3907    0.0000 H   0  0  0  0  0  0  0  0  0  0  0  0
    5.4073   -1.5790    0.0000 H   0  0  0  0  0  0  0  0  0  0  0  0
    6.2195   -1.7242    0.0000 H   0  0  0  0  0  0  0  0  0  0  0  0
    6.5830   -2.7306    0.0000 H   0  0  0  0  0  0  0  0  0  0  0  0
    5.6288   -4.9195    0.0000 H   0  0  0  0  0  0  0  0  0  0  0  0
    4.2978   -5.4408    0.0000 H   0  0  0  0  0  0  0  0  0  0  0  0
    3.2445   -5.2524    0.0000 H   0  0  0  0  0  0  0  0  0  0  0  0
    2.4323   -5.1071    0.0000 H   0  0  0  0  0  0  0  0  0  0  0  0
    2.0688   -4.1007    0.0000 H   0  0  0  0  0  0  0  0  0  0  0  0
    3.8951   -3.7016    0.0000 H   0  0  0  0  0  0  0  0  0  0  0  0
    2.2861   -4.4068    0.0000 H   0  0  0  0  0  0  0  0  0  0  0  0
    1.4132   -4.9438    0.0000 H   0  0  0  0  0  0  0  0  0  0  0  0
    0.4413   -4.3909    0.0000 H   0  0  0  0  0  0  0  0  0  0  0  0
   -0.3109   -3.7749    0.0000 H   0  0  0  0  0  0  0  0  0  0  0  0
   -0.0852   -2.6797    0.0000 H   0  0  0  0  0  0  0  0  0  0  0  0
    0.0288   -1.2386    0.0000 H   0  0  0  0  0  0  0  0  0  0  0  0
   -0.8228   -1.8864    0.0000 H   0  0  0  0  0  0  0  0  0  0  0  0
   -0.3574   -3.8609    0.0000 H   0  0  0  0  0  0  0  0  0  0  0  0
   -1.3442   -3.4473    0.0000 H   0  0  0  0  0  0  0  0  0  0  0  0
   -1.3887   -1.4192    0.0000 H   0  0  0  0  0  0  0  0  0  0  0  0
   -2.2403   -2.0670    0.0000 H   0  0  0  0  0  0  0  0  0  0  0  0
   -2.8047   -2.6052    0.0000 H   0  0  0  0  0  0  0  0  0  0  0  0
    1.5630   -1.1996    0.0000 H   0  0  0  0  0  0  0  0  0  0  0  0
    2.3290   -0.5184    0.0000 H   0  0  0  0  0  0  0  0  0  0  0  0
    3.5261    0.9014    0.0000 H   0  0  0  0  0  0  0  0  0  0  0  0
    5.9850   -1.1720    0.0000 H   0  0  0  0  0  0  0  0  0  0  0  0
    4.7879   -2.5917    0.0000 H   0  0  0  0  0  0  0  0  0  0  0  0
    6.3964   -0.7353    0.0000 H   0  0  0  0  0  0  0  0  0  0  0  0
    6.7225    1.0890    0.0000 H   0  0  0  0  0  0  0  0  0  0  0  0
    7.0861    0.0827    0.0000 H   0  0  0  0  0  0  0  0  0  0  0  0
    5.6301    2.0102    0.0000 H   0  0  0  0  0  0  0  0  0  0  0  0
    3.8870    1.3806    0.0000 H   0  0  0  0  0  0  0  0  0  0  0  0
    4.5768    2.1986    0.0000 H   0  0  0  0  0  0  0  0  0  0  0  0
  1 34  1  0  0  0  0
  1 35  1  0  0  0  0
  1 36  1  0  0  0  0
  2  1  1  1  0  0  0
  2  3  1  0  0  0  0
  2 16  1  0  0  0  0
  2 19  1  0  0  0  0
  3  4  1  0  0  0  0
  3 37  1  0  0  0  0
  3 38  1  0  0  0  0
  4  5  1  0  0  0  0
  4 25  1  0  0  0  0
  4 39  1  1  0  0  0
  5  6  2  0  0  0  0
  5 15  1  0  0  0  0
  6  7  1  0  0  0  0
  6 12  1  0  0  0  0
  7  8  1  0  0  0  0
  7 40  1  0  0  0  0
  7 41  1  0  0  0  0
  8  9  1  0  0  0  0
  8 42  1  0  0  0  0
  8 43  1  0  0  0  0
  9 10  2  0  0  0  0
  9 11  1  0  0  0  0
 11 12  2  0  0  0  0
 11 44  1  0  0  0  0
 12 13  1  0  0  0  0
 13 14  1  0  0  0  0
 13 45  1  0  0  0  0
 13 46  1  0  0  0  0
 14 47  1  0  0  0  0
 14 48  1  0  0  0  0
 15 14  1  0  0  0  0
 15 16  1  0  0  0  0
 15 49  1  6  0  0  0
 16 17  1  0  0  0  0
 16 50  1  1  0  0  0
 17 18  1  0  0  0  0
 17 51  1  0  0  0  0
 17 52  1  0  0  0  0
 18 19  1  0  0  0  0
 18 53  1  0  0  0  0
 18 54  1  0  0  0  0
 19 20  1  0  0  0  0
 19 24  1  1  0  0  0
 20 21  1  0  0  0  0
 20 55  1  0  0  0  0
 20 56  1  0  0  0  0
 21 22  1  0  0  0  0
 21 57  1  0  0  0  0
 21 58  1  0  0  0  0
 22 23  1  0  0  0  0
 22 59  1  0  0  0  0
 22 60  1  0  0  0  0
 23 61  1  0  0  0  0
 24 62  1  0  0  0  0
 25 26  2  0  0  0  0
 25 30  1  0  0  0  0
 26 27  1  0  0  0  0
 26 63  1  0  0  0  0
 27 28  2  0  0  0  0
 27 64  1  0  0  0  0
 28 29  1  0  0  0  0
 28 31  1  0  0  0  0
 29 30  2  0  0  0  0
 29 65  1  0  0  0  0
 30 66  1  0  0  0  0
 31 32  1  0  0  0  0
 31 33  1  0  0  0  0
 32 67  1  0  0  0  0
 32 68  1  0  0  0  0
 32 69  1  0  0  0  0
 33 70  1  0  0  0  0
 33 71  1  0  0  0  0
 33 72  1  0  0  0  0
M  END
>  <DRUGBANK_ID>
DB12637

>  <COMMON_NAME>
Onapristone

>  <CAS_NUMBER>
96346-61-1

>  <UNII>
H6H7G23O3N

>  <SYNONYMS>
Onapristone

$$$$
