RRS
 OpenBabel10282417072D

 69 71  0  0  0  0  0  0  0  0999 V2000
   -1.4926   -1.9318    0.0000 C   0  0  0  0  0  0  0  0  0  0  0  0
   -1.4926   -1.1068    0.0000 O   0  0  0  0  0  0  0  0  0  0  0  0
   -2.2071   -2.3443    0.0000 N   0  0  0  0  0  0  0  0  0  0  0  0
   -2.2071   -3.1693    0.0000 O   0  0  0  0  0  0  0  0  0  0  0  0
   -0.7781   -2.3443    0.0000 C   0  0  0  0  0  0  0  0  0  0  0  0
   -0.0637   -1.9318    0.0000 C   0  0  2  0  0  0  0  0  0  0  0  0
   -0.0637   -1.1068    0.0000 C   0  0  0  0  0  0  0  0  0  0  0  0
    0.6508   -0.6943    0.0000 O   0  0  0  0  0  0  0  0  0  0  0  0
   -0.7781   -0.6943    0.0000 N   0  0  0  0  0  0  0  0  0  0  0  0
   -0.7781    0.1307    0.0000 C   0  0  2  0  0  0  0  0  0  0  0  0
   -1.5546   -0.1482    0.0000 C   0  0  0  0  0  0  0  0  0  0  0  0
   -1.7854   -0.9403    0.0000 O   0  0  0  0  0  0  0  0  0  0  0  0
   -2.0597    0.5041    0.0000 N   0  0  0  0  0  0  0  0  0  0  0  0
   -1.5955    1.1861    0.0000 C   0  0  0  0  0  0  0  0  0  0  0  0
   -1.6783    2.0850    0.0000 C   0  0  0  0  0  0  0  0  0  0  0  0
   -1.0261    2.5902    0.0000 C   0  0  0  0  0  0  0  0  0  0  0  0
   -0.2625    2.2779    0.0000 C   0  0  0  0  0  0  0  0  0  0  0  0
    0.3898    2.7830    0.0000 C   0  0  0  0  0  0  0  0  0  0  0  0
    1.1534    2.4707    0.0000 C   0  0  0  0  0  0  0  0  0  0  0  0
    1.2647    1.6533    0.0000 N   0  0  0  0  0  0  0  0  0  0  0  0
    0.6508   -2.3443    0.0000 C   0  0  0  0  0  0  0  0  0  0  0  0
    1.3653   -1.9318    0.0000 C   0  0  0  0  0  0  0  0  0  0  0  0
    1.3653   -1.1068    0.0000 C   0  0  0  0  0  0  0  0  0  0  0  0
    2.0797   -2.3443    0.0000 C   0  0  0  0  0  0  0  0  0  0  0  0
    0.0715   -0.1745    0.0000 C   0  0  0  0  0  0  0  0  0  0  0  0
    0.7238    0.3307    0.0000 C   0  0  0  0  0  0  0  0  0  0  0  0
    0.6125    1.1481    0.0000 C   0  0  0  0  0  0  0  0  0  0  0  0
    1.5821    0.3567    0.0000 C   0  0  0  0  0  0  0  0  0  0  0  0
    1.8945    1.1203    0.0000 C   0  0  0  0  0  0  0  0  0  0  0  0
    2.0873   -0.2956    0.0000 C   0  0  0  0  0  0  0  0  0  0  0  0
    2.7119    1.2316    0.0000 C   0  0  0  0  0  0  0  0  0  0  0  0
    2.9047   -0.1843    0.0000 C   0  0  0  0  0  0  0  0  0  0  0  0
    3.2171    0.5793    0.0000 C   0  0  0  0  0  0  0  0  0  0  0  0
   -0.5694   -1.6399    0.0000 H   0  0  0  0  0  0  0  0  0  0  0  0
   -1.1141   -0.3469    0.0000 H   0  0  0  0  0  0  0  0  0  0  0  0
   -3.0597   -1.8520    0.0000 H   0  0  0  0  0  0  0  0  0  0  0  0
   -3.0471   -3.6543    0.0000 H   0  0  0  0  0  0  0  0  0  0  0  0
   -0.7781   -3.4143    0.0000 H   0  0  0  0  0  0  0  0  0  0  0  0
    0.1486   -2.8793    0.0000 H   0  0  0  0  0  0  0  0  0  0  0  0
   -1.6307   -1.1865    0.0000 H   0  0  0  0  0  0  0  0  0  0  0  0
   -3.0437    0.4739    0.0000 H   0  0  0  0  0  0  0  0  0  0  0  0
   -0.5595    0.9184    0.0000 H   0  0  0  0  0  0  0  0  0  0  0  0
   -0.7805    1.8794    0.0000 H   0  0  0  0  0  0  0  0  0  0  0  0
   -2.6596    2.5115    0.0000 H   0  0  0  0  0  0  0  0  0  0  0  0
   -1.8112    3.1467    0.0000 H   0  0  0  0  0  0  0  0  0  0  0  0
   -1.1706    3.6504    0.0000 H   0  0  0  0  0  0  0  0  0  0  0  0
   -0.1801    3.2454    0.0000 H   0  0  0  0  0  0  0  0  0  0  0  0
   -0.1181    1.2177    0.0000 H   0  0  0  0  0  0  0  0  0  0  0  0
    0.7278    1.8728    0.0000 H   0  0  0  0  0  0  0  0  0  0  0  0
    0.2454    3.8432    0.0000 H   0  0  0  0  0  0  0  0  0  0  0  0
    1.2358    3.4381    0.0000 H   0  0  0  0  0  0  0  0  0  0  0  0
    1.9994    3.1258    0.0000 H   0  0  0  0  0  0  0  0  0  0  0  0
    2.1438    2.0656    0.0000 H   0  0  0  0  0  0  0  0  0  0  0  0
    0.6508   -3.4143    0.0000 H   0  0  0  0  0  0  0  0  0  0  0  0
    1.5774   -2.8793    0.0000 H   0  0  0  0  0  0  0  0  0  0  0  0
    2.2920   -1.3968    0.0000 H   0  0  0  0  0  0  0  0  0  0  0  0
    2.2919   -0.5718    0.0000 H   0  0  0  0  0  0  0  0  0  0  0  0
    0.4387   -0.5718    0.0000 H   0  0  0  0  0  0  0  0  0  0  0  0
    1.3653   -0.0368    0.0000 H   0  0  0  0  0  0  0  0  0  0  0  0
    2.0797   -3.4143    0.0000 H   0  0  0  0  0  0  0  0  0  0  0  0
    3.0064   -1.8093    0.0000 H   0  0  0  0  0  0  0  0  0  0  0  0
    3.0063   -2.8793    0.0000 H   0  0  0  0  0  0  0  0  0  0  0  0
    0.2389   -1.2313    0.0000 H   0  0  0  0  0  0  0  0  0  0  0  0
    1.0662   -0.5688    0.0000 H   0  0  0  0  0  0  0  0  0  0  0  0
   -0.3427    1.5387    0.0000 H   0  0  0  0  0  0  0  0  0  0  0  0
    1.6966   -1.2508    0.0000 H   0  0  0  0  0  0  0  0  0  0  0  0
    3.1026    2.1868    0.0000 H   0  0  0  0  0  0  0  0  0  0  0  0
    3.5365   -1.0003    0.0000 H   0  0  0  0  0  0  0  0  0  0  0  0
    4.2397    0.7185    0.0000 H   0  0  0  0  0  0  0  0  0  0  0  0
  1  2  2  0  0  0  0
  1  3  1  0  0  0  0
  1  5  1  0  0  0  0
  3  4  1  0  0  0  0
  3 36  1  0  0  0  0
  4 37  1  0  0  0  0
  5  6  1  0  0  0  0
  5 38  1  0  0  0  0
  5 39  1  0  0  0  0
  6  7  1  0  0  0  0
  6 21  1  0  0  0  0
  6 34  1  1  0  0  0
  7  8  2  0  0  0  0
  7  9  1  0  0  0  0
  9 40  1  0  0  0  0
 10  9  1  0  0  0  0
 10 11  1  0  0  0  0
 10 25  1  0  0  0  0
 10 35  1  1  0  0  0
 11 12  2  0  0  0  0
 11 13  1  0  0  0  0
 13 14  1  0  0  0  0
 13 41  1  0  0  0  0
 14 15  1  0  0  0  0
 14 42  1  0  0  0  0
 14 43  1  0  0  0  0
 15 16  1  0  0  0  0
 15 44  1  0  0  0  0
 15 45  1  0  0  0  0
 16 17  1  0  0  0  0
 16 46  1  0  0  0  0
 16 47  1  0  0  0  0
 17 18  1  0  0  0  0
 17 48  1  0  0  0  0
 17 49  1  0  0  0  0
 18 19  1  0  0  0  0
 18 50  1  0  0  0  0
 18 51  1  0  0  0  0
 19 20  1  0  0  0  0
 19 52  1  0  0  0  0
 19 53  1  0  0  0  0
 20 27  1  0  0  0  0
 20 29  1  0  0  0  0
 21 22  1  0  0  0  0
 21 54  1  0  0  0  0
 21 55  1  0  0  0  0
 22 23  1  0  0  0  0
 22 24  1  0  0  0  0
 22 56  1  0  0  0  0
 23 57  1  0  0  0  0
 23 58  1  0  0  0  0
 23 59  1  0  0  0  0
 24 60  1  0  0  0  0
 24 61  1  0  0  0  0
 24 62  1  0  0  0  0
 25 26  1  0  0  0  0
 25 63  1  0  0  0  0
 25 64  1  0  0  0  0
 26 27  2  0  0  0  0
 26 28  1  0  0  0  0
 27 65  1  0  0  0  0
 28 29  2  0  0  0  0
 28 30  1  0  0  0  0
 29 31  1  0  0  0  0
 30 32  2  0  0  0  0
 30 66  1  0  0  0  0
 31 33  2  0  0  0  0
 31 67  1  0  0  0  0
 32 33  1  0  0  0  0
 32 68  1  0  0  0  0
 33 69  1  0  0  0  0
M  END
>  <DRUGBANK_ID>
DB08489

>  <COMMON_NAME>
N4-HYDROXY-2-ISOBUTYL-N1-(9-OXO-1,8-DIAZA-TRICYCLO[10.6.1.013,18]NONADECA-12(19),13,15,17-TETRAEN-10-YL)-SUCCINAMIDE

$$$$
