A19
 OpenBabel10282417072D

 30 31  0  0  0  0  0  0  0  0999 V2000
    1.0487    3.4282    0.0000 Cl  0  0  0  0  0  0  0  0  0  0  0  0
    1.0487    2.6033    0.0000 C   0  0  0  0  0  0  0  0  0  0  0  0
    1.7632    2.1907    0.0000 C   0  0  0  0  0  0  0  0  0  0  0  0
    1.7632    1.3657    0.0000 C   0  0  0  0  0  0  0  0  0  0  0  0
    1.0487    0.9532    0.0000 C   0  0  0  0  0  0  0  0  0  0  0  0
    0.3342    1.3658    0.0000 C   0  0  0  0  0  0  0  0  0  0  0  0
    0.3342    2.1907    0.0000 C   0  0  0  0  0  0  0  0  0  0  0  0
    1.0487    0.1282    0.0000 S   0  0  0  0  0  0  0  0  0  0  0  0
    0.2237    0.1283    0.0000 O   0  0  0  0  0  0  0  0  0  0  0  0
    1.8737    0.1282    0.0000 O   0  0  0  0  0  0  0  0  0  0  0  0
    1.0487   -0.6968    0.0000 N   0  0  0  0  0  0  0  0  0  0  0  0
    0.3342   -1.1092    0.0000 C   0  0  0  0  0  0  0  0  0  0  0  0
    0.3342   -1.9343    0.0000 C   0  0  0  0  0  0  0  0  0  0  0  0
   -0.3803   -2.3467    0.0000 C   0  0  0  0  0  0  0  0  0  0  0  0
   -1.0947   -1.9342    0.0000 C   0  0  0  0  0  0  0  0  0  0  0  0
   -1.0947   -1.1092    0.0000 C   0  0  0  0  0  0  0  0  0  0  0  0
   -0.3803   -0.6967    0.0000 C   0  0  0  0  0  0  0  0  0  0  0  0
   -1.8092   -2.3467    0.0000 Br  0  0  0  0  0  0  0  0  0  0  0  0
   -0.3803    0.1283    0.0000 C   0  0  0  0  0  0  0  0  0  0  0  0
   -1.0947    0.5408    0.0000 O   0  0  0  0  0  0  0  0  0  0  0  0
    0.3342    0.5408    0.0000 O   0  0  0  0  0  0  0  0  0  0  0  0
    2.6570    2.7067    0.0000 H   0  0  0  0  0  0  0  0  0  0  0  0
    2.6569    0.8497    0.0000 H   0  0  0  0  0  0  0  0  0  0  0  0
   -0.5596    0.8498    0.0000 H   0  0  0  0  0  0  0  0  0  0  0  0
   -0.5596    2.7067    0.0000 H   0  0  0  0  0  0  0  0  0  0  0  0
    1.9013   -1.1891    0.0000 H   0  0  0  0  0  0  0  0  0  0  0  0
    1.2279   -2.4504    0.0000 H   0  0  0  0  0  0  0  0  0  0  0  0
   -0.3804   -3.3787    0.0000 H   0  0  0  0  0  0  0  0  0  0  0  0
   -1.9884   -0.5932    0.0000 H   0  0  0  0  0  0  0  0  0  0  0  0
   -1.0947    1.4778    0.0000 H   0  0  0  0  0  0  0  0  0  0  0  0
  1  2  1  0  0  0  0
  2  3  1  0  0  0  0
  2  7  2  0  0  0  0
  3  4  2  0  0  0  0
  3 22  1  0  0  0  0
  4  5  1  0  0  0  0
  4 23  1  0  0  0  0
  5  6  2  0  0  0  0
  5  8  1  0  0  0  0
  6  7  1  0  0  0  0
  6 24  1  0  0  0  0
  7 25  1  0  0  0  0
  8  9  2  0  0  0  0
  8 10  2  0  0  0  0
  8 11  1  0  0  0  0
 11 12  1  0  0  0  0
 11 26  1  0  0  0  0
 12 13  1  0  0  0  0
 12 17  2  0  0  0  0
 13 14  2  0  0  0  0
 13 27  1  0  0  0  0
 14 15  1  0  0  0  0
 14 28  1  0  0  0  0
 15 16  2  0  0  0  0
 15 18  1  0  0  0  0
 16 17  1  0  0  0  0
 16 29  1  0  0  0  0
 17 19  1  0  0  0  0
 19 20  1  0  0  0  0
 19 21  2  0  0  0  0
 20 30  1  0  0  0  0
M  END
>  <DRUGBANK_ID>
DB07309

>  <COMMON_NAME>
5-BROMO-2-{[(4-CHLOROPHENYL)SULFONYL]AMINO}BENZOIC ACID

>  <UNII>
WU438K8EAL

$$$$
