
 OpenBabel10282417072D

 95 94  0  0  0  0  0  0  0  0999 V2000
    3.1104    4.5809    0.0000 C   0  0  0  0  0  0  0  0  0  0  0  0
    3.3944    3.8021    0.0000 C   0  0  0  0  0  0  0  0  0  0  0  0
    2.8630    3.1792    0.0000 N   0  0  0  0  0  0  0  0  0  0  0  0
    3.1471    2.4003    0.0000 C   0  0  0  0  0  0  0  0  0  0  0  0
    2.6157    1.7682    0.0000 C   0  0  0  0  0  0  0  0  0  0  0  0
    2.8997    0.9986    0.0000 C   0  0  0  0  0  0  0  0  0  0  0  0
    2.3683    0.3664    0.0000 C   0  0  1  0  0  0  0  0  0  0  0  0
    3.0829   -0.0458    0.0000 C   0  0  0  0  0  0  0  0  0  0  0  0
    3.0829   -0.8703    0.0000 N   0  0  0  0  0  0  0  0  0  0  0  0
    3.7975   -1.2826    0.0000 C   0  0  0  0  0  0  0  0  0  0  0  0
    3.7975   -2.1071    0.0000 C   0  0  0  0  0  0  0  0  0  0  0  0
    3.0829   -2.5195    0.0000 N   0  0  0  0  0  0  0  0  0  0  0  0
    3.0829   -3.3440    0.0000 C   0  0  1  0  0  0  0  0  0  0  0  0
    3.3669   -4.1228    0.0000 C   0  0  0  0  0  0  0  0  0  0  0  0
    4.1732   -4.2602    0.0000 O   0  0  0  0  0  0  0  0  0  0  0  0
    2.3683   -3.7563    0.0000 C   0  0  0  0  0  0  0  0  0  0  0  0
    1.6537   -3.3440    0.0000 N   0  0  0  0  0  0  0  0  0  0  0  0
    0.9391   -3.7563    0.0000 C   0  0  0  0  0  0  0  0  0  0  0  0
    0.2244   -3.3440    0.0000 C   0  0  0  0  0  0  0  0  0  0  0  0
    0.2244   -2.5195    0.0000 N   0  0  0  0  0  0  0  0  0  0  0  0
   -0.4901   -2.1071    0.0000 C   0  0  2  0  0  0  0  0  0  0  0  0
   -1.2964   -1.9697    0.0000 C   0  0  0  0  0  0  0  0  0  0  0  0
   -1.8277   -2.5928    0.0000 C   0  0  0  0  0  0  0  0  0  0  0  0
   -2.6432   -2.4553    0.0000 C   0  0  0  0  0  0  0  0  0  0  0  0
   -3.1745   -3.0875    0.0000 N   0  0  0  0  0  0  0  0  0  0  0  0
   -3.9808   -2.9409    0.0000 C   0  0  0  0  0  0  0  0  0  0  0  0
   -4.5122   -3.5731    0.0000 C   0  0  0  0  0  0  0  0  0  0  0  0
   -4.2648   -2.1714    0.0000 O   0  0  0  0  0  0  0  0  0  0  0  0
   -2.8906   -3.8571    0.0000 O   0  5  0  0  0  0  0  0  0  0  0  0
   -0.4901   -1.2826    0.0000 C   0  0  0  0  0  0  0  0  0  0  0  0
    0.2244   -0.8703    0.0000 N   0  0  0  0  0  0  0  0  0  0  0  0
    0.2244   -0.0458    0.0000 C   0  0  3  0  0  0  0  0  0  0  0  0
   -0.0595    0.7238    0.0000 C   0  0  0  0  0  0  0  0  0  0  0  0
   -0.8657    0.8703    0.0000 C   0  0  0  0  0  0  0  0  0  0  0  0
   -1.1498    1.6399    0.0000 C   0  0  0  0  0  0  0  0  0  0  0  0
   -1.9652    1.7865    0.0000 N   0  0  0  0  0  0  0  0  0  0  0  0
   -2.2400    2.5653    0.0000 C   0  0  0  0  0  0  0  0  0  0  0  0
   -3.0555    2.7027    0.0000 C   0  0  0  0  0  0  0  0  0  0  0  0
   -1.7086    3.1883    0.0000 O   0  0  0  0  0  0  0  0  0  0  0  0
   -2.4875    1.1543    0.0000 O   0  5  0  0  0  0  0  0  0  0  0  0
    0.9391    0.3664    0.0000 C   0  0  0  0  0  0  0  0  0  0  0  0
    1.6537   -0.0458    0.0000 N   0  0  0  0  0  0  0  0  0  0  0  0
    0.9391    1.1910    0.0000 O   0  0  0  0  0  0  0  0  0  0  0  0
   -1.2047   -0.8703    0.0000 O   0  0  0  0  0  0  0  0  0  0  0  0
   -0.4901   -3.7563    0.0000 O   0  0  0  0  0  0  0  0  0  0  0  0
    2.3683   -4.5809    0.0000 O   0  0  0  0  0  0  0  0  0  0  0  0
    4.5122   -2.5195    0.0000 O   0  0  0  0  0  0  0  0  0  0  0  0
    3.7975    0.3664    0.0000 O   0  0  0  0  0  0  0  0  0  0  0  0
    2.0568    3.3166    0.0000 O   0  5  0  0  0  0  0  0  0  0  0  0
    4.2007    3.6647    0.0000 O   0  0  0  0  0  0  0  0  0  0  0  0
    2.3683   -2.1071    0.0000 Ga  0  1  0  0  0  0  0  0  0  0  0  0
    3.7977    5.4010    0.0000 H   0  0  0  0  0  0  0  0  0  0  0  0
    2.0565    4.7661    0.0000 H   0  0  0  0  0  0  0  0  0  0  0  0
    2.7438    5.5861    0.0000 H   0  0  0  0  0  0  0  0  0  0  0  0
    4.2008    2.2144    0.0000 H   0  0  0  0  0  0  0  0  0  0  0  0
    3.5125    1.3946    0.0000 H   0  0  0  0  0  0  0  0  0  0  0  0
    1.5616    1.9521    0.0000 H   0  0  0  0  0  0  0  0  0  0  0  0
    1.9305    0.9464    0.0000 H   0  0  0  0  0  0  0  0  0  0  0  0
    3.9538    0.8147    0.0000 H   0  0  0  0  0  0  0  0  0  0  0  0
    3.2661   -0.0067    0.0000 H   0  0  0  0  0  0  0  0  0  0  0  0
    3.4221    0.5520    0.0000 H   0  0  0  0  0  0  0  0  0  0  0  0
    4.7241   -0.7475    0.0000 H   0  0  0  0  0  0  0  0  0  0  0  0
    4.7242   -1.8175    0.0000 H   0  0  0  0  0  0  0  0  0  0  0  0
    4.1366   -3.1579    0.0000 H   0  0  0  0  0  0  0  0  0  0  0  0
    2.6817   -4.9446    0.0000 H   0  0  0  0  0  0  0  0  0  0  0  0
    3.7373   -5.1266    0.0000 H   0  0  0  0  0  0  0  0  0  0  0  0
    4.5102   -5.1698    0.0000 H   0  0  0  0  0  0  0  0  0  0  0  0
    0.9391   -4.8263    0.0000 H   0  0  0  0  0  0  0  0  0  0  0  0
    0.0126   -4.2915    0.0000 H   0  0  0  0  0  0  0  0  0  0  0  0
   -0.8531   -3.1136    0.0000 H   0  0  0  0  0  0  0  0  0  0  0  0
   -1.6613   -0.9638    0.0000 H   0  0  0  0  0  0  0  0  0  0  0  0
   -2.3493   -1.7792    0.0000 H   0  0  0  0  0  0  0  0  0  0  0  0
   -1.4619   -3.5983    0.0000 H   0  0  0  0  0  0  0  0  0  0  0  0
   -2.5125   -3.4150    0.0000 H   0  0  0  0  0  0  0  0  0  0  0  0
   -3.0125   -1.4511    0.0000 H   0  0  0  0  0  0  0  0  0  0  0  0
   -3.6972   -2.2709    0.0000 H   0  0  0  0  0  0  0  0  0  0  0  0
   -5.5658   -3.3864    0.0000 H   0  0  0  0  0  0  0  0  0  0  0  0
   -4.1471   -4.5789    0.0000 H   0  0  0  0  0  0  0  0  0  0  0  0
   -5.2007   -4.3922    0.0000 H   0  0  0  0  0  0  0  0  0  0  0  0
   -0.8289   -0.2339    0.0000 H   0  0  0  0  0  0  0  0  0  0  0  0
    0.6286    1.5432    0.0000 H   0  0  0  0  0  0  0  0  0  0  0  0
   -0.4226    1.7303    0.0000 H   0  0  0  0  0  0  0  0  0  0  0  0
   -1.5538    0.0509    0.0000 H   0  0  0  0  0  0  0  0  0  0  0  0
   -1.9198    1.0539    0.0000 H   0  0  0  0  0  0  0  0  0  0  0  0
   -0.4625    2.4600    0.0000 H   0  0  0  0  0  0  0  0  0  0  0  0
   -1.5144    2.6459    0.0000 H   0  0  0  0  0  0  0  0  0  0  0  0
   -3.4291    3.7054    0.0000 H   0  0  0  0  0  0  0  0  0  0  0  0
   -3.7370    1.8778    0.0000 H   0  0  0  0  0  0  0  0  0  0  0  0
   -4.1106    2.8805    0.0000 H   0  0  0  0  0  0  0  0  0  0  0  0
    1.7506    1.6595    0.0000 H   0  0  0  0  0  0  0  0  0  0  0  0
   -1.2050    0.0667    0.0000 H   0  0  0  0  0  0  0  0  0  0  0  0
   -1.3015   -3.2876    0.0000 H   0  0  0  0  0  0  0  0  0  0  0  0
    1.5568   -5.0494    0.0000 H   0  0  0  0  0  0  0  0  0  0  0  0
    4.5124   -3.4565    0.0000 H   0  0  0  0  0  0  0  0  0  0  0  0
    4.6088   -0.1024    0.0000 H   0  0  0  0  0  0  0  0  0  0  0  0
  1  2  1  0  0  0  0
  1 52  1  0  0  0  0
  1 53  1  0  0  0  0
  1 54  1  0  0  0  0
  2  3  1  0  0  0  0
  2 50  2  0  0  0  0
  3  4  1  0  0  0  0
  3 49  1  0  0  0  0
  4  5  1  0  0  0  0
  4 55  1  0  0  0  0
  4 56  1  0  0  0  0
  5  6  1  0  0  0  0
  5 57  1  0  0  0  0
  5 58  1  0  0  0  0
  6 59  1  0  0  0  0
  6 60  1  0  0  0  0
  7  6  1  0  0  0  0
  7  8  1  0  0  0  0
  7 42  1  0  0  0  0
  7 61  1  6  0  0  0
  8  9  2  0  0  0  0
  8 48  1  0  0  0  0
  9 10  1  0  0  0  0
 10 11  1  0  0  0  0
 10 62  1  0  0  0  0
 10 63  1  0  0  0  0
 11 12  2  0  0  0  0
 11 47  1  0  0  0  0
 12 13  1  0  0  0  0
 13 14  1  0  0  0  0
 13 16  1  0  0  0  0
 13 64  1  6  0  0  0
 14 15  1  0  0  0  0
 14 65  1  0  0  0  0
 14 66  1  0  0  0  0
 15 67  1  0  0  0  0
 16 17  2  0  0  0  0
 16 46  1  0  0  0  0
 17 18  1  0  0  0  0
 18 19  1  0  0  0  0
 18 68  1  0  0  0  0
 18 69  1  0  0  0  0
 19 20  2  0  0  0  0
 19 45  1  0  0  0  0
 20 21  1  0  0  0  0
 21 22  1  0  0  0  0
 21 30  1  0  0  0  0
 21 70  1  1  0  0  0
 22 23  1  0  0  0  0
 22 71  1  0  0  0  0
 22 72  1  0  0  0  0
 23 24  1  0  0  0  0
 23 73  1  0  0  0  0
 23 74  1  0  0  0  0
 24 25  1  0  0  0  0
 24 75  1  0  0  0  0
 24 76  1  0  0  0  0
 25 26  1  0  0  0  0
 25 29  1  0  0  0  0
 26 27  1  0  0  0  0
 26 28  2  0  0  0  0
 27 77  1  0  0  0  0
 27 78  1  0  0  0  0
 27 79  1  0  0  0  0
 30 31  2  0  0  0  0
 30 44  1  0  0  0  0
 31 32  1  0  0  0  0
 32 33  1  0  0  0  0
 32 41  1  0  0  0  0
 32 80  1  0  0  0  0
 33 34  1  0  0  0  0
 33 81  1  0  0  0  0
 33 82  1  0  0  0  0
 34 35  1  0  0  0  0
 34 83  1  0  0  0  0
 34 84  1  0  0  0  0
 35 36  1  0  0  0  0
 35 85  1  0  0  0  0
 35 86  1  0  0  0  0
 36 37  1  0  0  0  0
 36 40  1  0  0  0  0
 37 38  1  0  0  0  0
 37 39  2  0  0  0  0
 38 87  1  0  0  0  0
 38 88  1  0  0  0  0
 38 89  1  0  0  0  0
 41 42  2  0  0  0  0
 41 43  1  0  0  0  0
 43 90  1  0  0  0  0
 44 91  1  0  0  0  0
 45 92  1  0  0  0  0
 46 93  1  0  0  0  0
 47 94  1  0  0  0  0
 48 95  1  0  0  0  0
M  CHG  4  29  -1  40  -1  49  -1  51   3
M  END
>  <DRUGBANK_ID>
DB03436

>  <SECONDARY_ACCESSION_NUMBERS>
EXPT01562

>  <COMMON_NAME>
Gallichrome

$$$$
