
 OpenBabel10282417072D

  3  2  0  0  0  0  0  0  0  0999 V2000
    0.0000    0.2063    0.0000 Zr  0  0  0  0  0  0  0  0  0  0  0  0
   -0.7144   -0.2063    0.0000 O   0  0  0  0  0  0  0  0  0  0  0  0
    0.7144   -0.2063    0.0000 O   0  0  0  0  0  0  0  0  0  0  0  0
  1  2  2  0  0  0  0
  1  3  2  0  0  0  0
M  END
>  <DRUGBANK_ID>
DB16552

>  <COMMON_NAME>
Zirconium dioxide

>  <CAS_NUMBER>
1314-23-4

>  <UNII>
S38N85C5G0

>  <SYNONYMS>
Zirconia; Zirconium oxide; ZrO2

$$$$
