
 OpenBabel10282417072D

265268  0  0  1  0  0  0  0  0999 V2000
   -5.4581    2.0930    0.0000 Lu  0  1  0  0  0  0  0  0  0  0  0  0
   24.1141   -1.6441    0.0000 C   0  0  0  0  0  0  0  0  0  0  0  0
   23.3820   -1.2637    0.0000 C   0  0  0  0  0  0  0  0  0  0  0  0
   23.3454   -0.4395    0.0000 C   0  0  0  0  0  0  0  0  0  0  0  0
   22.6134   -0.0591    0.0000 C   0  0  0  0  0  0  0  0  0  0  0  0
   22.5768    0.7651    0.0000 C   0  0  2  0  0  0  0  0  0  0  0  0
   21.8447    1.1455    0.0000 N   0  0  0  0  0  0  0  0  0  0  0  0
   21.1492    0.7017    0.0000 C   0  0  0  0  0  0  0  0  0  0  0  0
   21.1858   -0.1225    0.0000 O   0  0  0  0  0  0  0  0  0  0  0  0
   20.4172    1.0821    0.0000 C   0  0  2  0  0  0  0  0  0  0  0  0
   20.3806    1.9063    0.0000 C   0  0  0  0  0  0  0  0  0  0  0  0
   21.0760    2.3501    0.0000 C   0  0  0  0  0  0  0  0  0  0  0  0
   21.8438    2.0483    0.0000 C   0  0  0  0  0  0  0  0  0  0  0  0
   22.3681    2.6853    0.0000 N   0  0  0  0  0  0  0  0  0  0  0  0
   21.9243    3.3807    0.0000 C   0  0  0  0  0  0  0  0  0  0  0  0
   21.1258    3.1736    0.0000 C   0  0  0  0  0  0  0  0  0  0  0  0
   20.5471    3.7616    0.0000 C   0  0  0  0  0  0  0  0  0  0  0  0
   20.7670    4.5567    0.0000 C   0  0  0  0  0  0  0  0  0  0  0  0
   21.5655    4.7639    0.0000 C   0  0  0  0  0  0  0  0  0  0  0  0
   22.1442    4.1759    0.0000 C   0  0  0  0  0  0  0  0  0  0  0  0
   19.7217    0.6383    0.0000 N   0  0  0  0  0  0  0  0  0  0  0  0
   18.9896    1.0187    0.0000 C   0  0  0  0  0  0  0  0  0  0  0  0
   18.9530    1.8429    0.0000 O   0  0  0  0  0  0  0  0  0  0  0  0
   18.2942    0.5749    0.0000 C   0  0  0  0  0  0  0  0  0  0  0  0
   17.5621    0.9553    0.0000 N   0  0  0  0  0  0  0  0  0  0  0  0
   16.8666    0.5115    0.0000 C   0  0  0  0  0  0  0  0  0  0  0  0
   16.9032   -0.3127    0.0000 O   0  0  0  0  0  0  0  0  0  0  0  0
   16.1346    0.8919    0.0000 C   0  0  2  0  0  0  0  0  0  0  0  0
   16.0980    1.7161    0.0000 C   0  0  0  0  0  0  0  0  0  0  0  0
   16.7934    2.1599    0.0000 C   0  0  0  0  0  0  0  0  0  0  0  0
   16.7568    2.9841    0.0000 C   0  0  0  0  0  0  0  0  0  0  0  0
   17.4523    3.4279    0.0000 C   0  0  0  0  0  0  0  0  0  0  0  0
   18.1843    3.0475    0.0000 C   0  0  0  0  0  0  0  0  0  0  0  0
   18.8798    3.4913    0.0000 O   0  0  0  0  0  0  0  0  0  0  0  0
   18.2210    2.2233    0.0000 C   0  0  0  0  0  0  0  0  0  0  0  0
   17.5255    1.7795    0.0000 C   0  0  0  0  0  0  0  0  0  0  0  0
   15.4391    0.4481    0.0000 N   0  0  0  0  0  0  0  0  0  0  0  0
   14.7070    0.8285    0.0000 C   0  0  0  0  0  0  0  0  0  0  0  0
   14.6704    1.6527    0.0000 O   0  0  0  0  0  0  0  0  0  0  0  0
   14.0116    0.3847    0.0000 C   0  0  2  0  0  0  0  0  0  0  0  0
   14.0482   -0.4395    0.0000 C   0  0  0  0  0  0  0  0  0  0  0  0
   13.2795    0.7651    0.0000 N   0  0  0  0  0  0  0  0  0  0  0  0
   12.5840    0.3213    0.0000 C   0  0  0  0  0  0  0  0  0  0  0  0
   12.6206   -0.5029    0.0000 O   0  0  0  0  0  0  0  0  0  0  0  0
   11.8519    0.7017    0.0000 C   0  0  1  0  0  0  0  0  0  0  0  0
   11.8153    1.5259    0.0000 C   0  0  0  0  0  0  0  0  0  0  0  0
   11.0833    1.9063    0.0000 C   0  0  0  0  0  0  0  0  0  0  0  0
   11.0467    2.7305    0.0000 C   0  0  0  0  0  0  0  0  0  0  0  0
   10.3146    3.1109    0.0000 O   0  0  0  0  0  0  0  0  0  0  0  0
   11.7421    3.1743    0.0000 O   0  0  0  0  0  0  0  0  0  0  0  0
   11.1565    0.2579    0.0000 N   0  0  0  0  0  0  0  0  0  0  0  0
   10.4244    0.6383    0.0000 C   0  0  0  0  0  0  0  0  0  0  0  0
   10.3878    1.4625    0.0000 O   0  0  0  0  0  0  0  0  0  0  0  0
    9.7289    0.1945    0.0000 C   0  0  1  0  0  0  0  0  0  0  0  0
    9.7656   -0.6297    0.0000 C   0  0  0  0  0  0  0  0  0  0  0  0
    9.0701   -1.0735    0.0000 C   0  0  0  0  0  0  0  0  0  0  0  0
    9.1067   -1.8977    0.0000 C   0  0  0  0  0  0  0  0  0  0  0  0
    9.8388   -2.2781    0.0000 O   0  0  0  0  0  0  0  0  0  0  0  0
    8.4112   -2.3415    0.0000 O   0  0  0  0  0  0  0  0  0  0  0  0
    8.9969    0.5749    0.0000 N   0  0  0  0  0  0  0  0  0  0  0  0
    8.3014    0.1311    0.0000 C   0  0  0  0  0  0  0  0  0  0  0  0
    8.3380   -0.6931    0.0000 O   0  0  0  0  0  0  0  0  0  0  0  0
    7.5693    0.5115    0.0000 C   0  0  1  0  0  0  0  0  0  0  0  0
    7.5327    1.3357    0.0000 C   0  0  0  0  0  0  0  0  0  0  0  0
    8.2282    1.7795    0.0000 C   0  0  0  0  0  0  0  0  0  0  0  0
    8.1916    2.6037    0.0000 C   0  0  0  0  0  0  0  0  0  0  0  0
    7.4595    2.9841    0.0000 O   0  0  0  0  0  0  0  0  0  0  0  0
    8.8871    3.0475    0.0000 O   0  0  0  0  0  0  0  0  0  0  0  0
    6.8739    0.0677    0.0000 N   0  0  0  0  0  0  0  0  0  0  0  0
    6.1418    0.4481    0.0000 C   0  0  0  0  0  0  0  0  0  0  0  0
    6.1052    1.2723    0.0000 O   0  0  0  0  0  0  0  0  0  0  0  0
    5.4463    0.0043    0.0000 C   0  0  1  0  0  0  0  0  0  0  0  0
    5.4829   -0.8199    0.0000 C   0  0  0  0  0  0  0  0  0  0  0  0
    6.2150   -1.2003    0.0000 C   0  0  0  0  0  0  0  0  0  0  0  0
    6.2516   -2.0245    0.0000 C   0  0  0  0  0  0  0  0  0  0  0  0
    5.5562   -2.4683    0.0000 O   0  0  0  0  0  0  0  0  0  0  0  0
    6.9837   -2.4049    0.0000 O   0  0  0  0  0  0  0  0  0  0  0  0
    4.7143    0.3847    0.0000 N   0  0  0  0  0  0  0  0  0  0  0  0
    4.0188   -0.0591    0.0000 C   0  0  0  0  0  0  0  0  0  0  0  0
    4.0554   -0.8833    0.0000 O   0  0  0  0  0  0  0  0  0  0  0  0
    3.2867    0.3213    0.0000 C   0  0  1  0  0  0  0  0  0  0  0  0
    3.2501    1.1455    0.0000 C   0  0  0  0  0  0  0  0  0  0  0  0
    3.9456    1.5893    0.0000 C   0  0  0  0  0  0  0  0  0  0  0  0
    3.9090    2.4135    0.0000 C   0  0  0  0  0  0  0  0  0  0  0  0
    3.1769    2.7939    0.0000 O   0  0  0  0  0  0  0  0  0  0  0  0
    4.6045    2.8573    0.0000 O   0  0  0  0  0  0  0  0  0  0  0  0
    2.5913   -0.1225    0.0000 N   0  0  0  0  0  0  0  0  0  0  0  0
    1.8592    0.2579    0.0000 C   0  0  0  0  0  0  0  0  0  0  0  0
    1.8226    1.0821    0.0000 O   0  0  0  0  0  0  0  0  0  0  0  0
    1.1637   -0.1859    0.0000 C   0  0  1  0  0  0  0  0  0  0  0  0
    1.2003   -1.0101    0.0000 C   0  0  0  0  0  0  0  0  0  0  0  0
    1.9324   -1.3905    0.0000 C   0  0  0  0  0  0  0  0  0  0  0  0
    1.9690   -2.2147    0.0000 C   0  0  0  0  0  0  0  0  0  0  0  0
    1.2736   -2.6585    0.0000 O   0  0  0  0  0  0  0  0  0  0  0  0
    2.7011   -2.5951    0.0000 O   0  0  0  0  0  0  0  0  0  0  0  0
    0.4317    0.1945    0.0000 N   0  0  0  0  0  0  0  0  0  0  0  0
   -0.2638   -0.2493    0.0000 C   0  0  0  0  0  0  0  0  0  0  0  0
   -0.2272   -1.0735    0.0000 O   0  0  0  0  0  0  0  0  0  0  0  0
   -0.9959    0.1311    0.0000 C   0  0  0  0  0  0  0  0  0  0  0  0
   -1.6913   -0.3127    0.0000 N   0  0  0  0  0  0  0  0  0  0  0  0
   -1.9400    0.4739    0.0000 C   0  0  0  0  0  0  0  0  0  0  0  0
   -2.7456    0.6519    0.0000 C   0  0  0  0  0  0  0  0  0  0  0  0
   -3.3025    0.0432    0.0000 N   0  0  0  0  0  0  0  0  0  0  0  0
   -3.7463    0.7387    0.0000 C   0  0  0  0  0  0  0  0  0  0  0  0
   -4.5705    0.7021    0.0000 C   0  0  0  0  0  0  0  0  0  0  0  0
   -5.0143    1.3976    0.0000 O   0  5  0  0  0  0  0  0  0  0  0  0
   -4.9509   -0.0300    0.0000 O   0  0  0  0  0  0  0  0  0  0  0  0
   -4.0891   -0.2054    0.0000 C   0  0  0  0  0  0  0  0  0  0  0  0
   -4.2671   -1.0110    0.0000 C   0  0  0  0  0  0  0  0  0  0  0  0
   -3.6584   -1.5679    0.0000 N   0  0  0  0  0  0  0  0  0  0  0  0
   -4.3539   -2.0117    0.0000 C   0  0  0  0  0  0  0  0  0  0  0  0
   -5.0859   -1.6313    0.0000 C   0  0  0  0  0  0  0  0  0  0  0  0
   -5.1225   -0.8071    0.0000 O   0  5  0  0  0  0  0  0  0  0  0  0
   -5.7814   -2.0751    0.0000 O   0  0  0  0  0  0  0  0  0  0  0  0
   -3.4097   -2.3546    0.0000 C   0  0  0  0  0  0  0  0  0  0  0  0
   -2.6042   -2.5325    0.0000 C   0  0  0  0  0  0  0  0  0  0  0  0
   -2.0472   -1.9238    0.0000 N   0  0  0  0  0  0  0  0  0  0  0  0
   -1.6035   -2.6193    0.0000 C   0  0  0  0  0  0  0  0  0  0  0  0
   -1.9838   -3.3514    0.0000 C   0  0  0  0  0  0  0  0  0  0  0  0
   -1.5401   -4.0468    0.0000 O   0  5  0  0  0  0  0  0  0  0  0  0
   -2.8080   -3.3880    0.0000 O   0  0  0  0  0  0  0  0  0  0  0  0
   -1.2606   -1.6752    0.0000 C   0  0  0  0  0  0  0  0  0  0  0  0
   -1.0827   -0.8696    0.0000 C   0  0  0  0  0  0  0  0  0  0  0  0
   23.2722    1.2089    0.0000 C   0  0  0  0  0  0  0  0  0  0  0  0
   23.2356    2.0331    0.0000 O   0  0  0  0  0  0  0  0  0  0  0  0
   24.0043    0.8285    0.0000 N   0  0  0  0  0  0  0  0  0  0  0  0
   24.6998    1.2723    0.0000 C   0  0  1  0  0  0  0  0  0  0  0  0
   24.6632    2.0965    0.0000 C   0  0  0  0  0  0  0  0  0  0  0  0
   25.3586    2.5403    0.0000 C   0  0  0  0  0  0  0  0  0  0  0  0
   25.3220    3.3645    0.0000 O   0  0  0  0  0  0  0  0  0  0  0  0
   26.0907    2.1599    0.0000 O   0  0  0  0  0  0  0  0  0  0  0  0
   25.4318    0.8919    0.0000 C   0  0  0  0  0  0  0  0  0  0  0  0
   25.4684    0.0677    0.0000 O   0  0  0  0  0  0  0  0  0  0  0  0
   26.1273    1.3357    0.0000 N   0  0  0  0  0  0  0  0  0  0  0  0
   26.8594    0.9553    0.0000 C   0  0  1  0  0  0  0  0  0  0  0  0
   27.5548    1.3991    0.0000 C   0  0  0  0  0  0  0  0  0  0  0  0
   27.5182    2.2233    0.0000 C   0  0  0  0  0  0  0  0  0  0  0  0
   26.7862    2.6037    0.0000 C   0  0  0  0  0  0  0  0  0  0  0  0
   26.7496    3.4279    0.0000 C   0  0  0  0  0  0  0  0  0  0  0  0
   27.4450    3.8717    0.0000 C   0  0  0  0  0  0  0  0  0  0  0  0
   28.1771    3.4913    0.0000 C   0  0  0  0  0  0  0  0  0  0  0  0
   28.2137    2.6671    0.0000 C   0  0  0  0  0  0  0  0  0  0  0  0
   26.8960    0.1311    0.0000 C   0  0  0  0  0  0  0  0  0  0  0  0
   27.6280   -0.2493    0.0000 N   0  0  0  0  0  0  0  0  0  0  0  0
   26.2005   -0.3127    0.0000 O   0  0  0  0  0  0  0  0  0  0  0  0
   24.1616   -2.7130    0.0000 H   0  0  0  0  0  0  0  0  0  0  0  0
   25.0161   -1.0685    0.0000 H   0  0  0  0  0  0  0  0  0  0  0  0
   25.0636   -2.1374    0.0000 H   0  0  0  0  0  0  0  0  0  0  0  0
   22.4800   -1.8393    0.0000 H   0  0  0  0  0  0  0  0  0  0  0  0
   22.4325   -0.7703    0.0000 H   0  0  0  0  0  0  0  0  0  0  0  0
   24.2474    0.1361    0.0000 H   0  0  0  0  0  0  0  0  0  0  0  0
   23.2980    0.6294    0.0000 H   0  0  0  0  0  0  0  0  0  0  0  0
   21.7114   -0.6347    0.0000 H   0  0  0  0  0  0  0  0  0  0  0  0
   21.6639    0.4343    0.0000 H   0  0  0  0  0  0  0  0  0  0  0  0
   21.6748    0.1895    0.0000 H   0  0  0  0  0  0  0  0  0  0  0  0
   21.8010    2.1290    0.0000 H   0  0  0  0  0  0  0  0  0  0  0  0
   20.4646    0.0132    0.0000 H   0  0  0  0  0  0  0  0  0  0  0  0
   19.4311    2.3996    0.0000 H   0  0  0  0  0  0  0  0  0  0  0  0
   20.3331    2.9752    0.0000 H   0  0  0  0  0  0  0  0  0  0  0  0
   22.1029    1.0494    0.0000 H   0  0  0  0  0  0  0  0  0  0  0  0
   23.3508    2.6260    0.0000 H   0  0  0  0  0  0  0  0  0  0  0  0
   19.5482    3.5025    0.0000 H   0  0  0  0  0  0  0  0  0  0  0  0
   20.0431    5.2922    0.0000 H   0  0  0  0  0  0  0  0  0  0  0  0
   21.8405    5.7586    0.0000 H   0  0  0  0  0  0  0  0  0  0  0  0
   23.1431    4.4350    0.0000 H   0  0  0  0  0  0  0  0  0  0  0  0
   19.7654   -0.3452    0.0000 H   0  0  0  0  0  0  0  0  0  0  0  0
   18.3417   -0.4940    0.0000 H   0  0  0  0  0  0  0  0  0  0  0  0
   17.3922   -0.0007    0.0000 H   0  0  0  0  0  0  0  0  0  0  0  0
   17.5184    1.9388    0.0000 H   0  0  0  0  0  0  0  0  0  0  0  0
   16.1820   -0.1770    0.0000 H   0  0  0  0  0  0  0  0  0  0  0  0
   15.1485    2.2094    0.0000 H   0  0  0  0  0  0  0  0  0  0  0  0
   16.0505    2.7850    0.0000 H   0  0  0  0  0  0  0  0  0  0  0  0
   15.8411    3.4599    0.0000 H   0  0  0  0  0  0  0  0  0  0  0  0
   17.4065    4.4589    0.0000 H   0  0  0  0  0  0  0  0  0  0  0  0
   19.7112    3.0593    0.0000 H   0  0  0  0  0  0  0  0  0  0  0  0
   19.1368    1.7475    0.0000 H   0  0  0  0  0  0  0  0  0  0  0  0
   17.5713    0.7485    0.0000 H   0  0  0  0  0  0  0  0  0  0  0  0
   15.4828   -0.5354    0.0000 H   0  0  0  0  0  0  0  0  0  0  0  0
   14.9611   -0.1086    0.0000 H   0  0  0  0  0  0  0  0  0  0  0  0
   13.1462   -1.0151    0.0000 H   0  0  0  0  0  0  0  0  0  0  0  0
   14.9977   -0.9329    0.0000 H   0  0  0  0  0  0  0  0  0  0  0  0
   14.0957   -1.5084    0.0000 H   0  0  0  0  0  0  0  0  0  0  0  0
   13.2358    1.7486    0.0000 H   0  0  0  0  0  0  0  0  0  0  0  0
   11.8994   -0.3672    0.0000 H   0  0  0  0  0  0  0  0  0  0  0  0
   12.7173    2.1015    0.0000 H   0  0  0  0  0  0  0  0  0  0  0  0
   11.7679    2.5948    0.0000 H   0  0  0  0  0  0  0  0  0  0  0  0
   10.1813    1.3307    0.0000 H   0  0  0  0  0  0  0  0  0  0  0  0
   10.1338    2.3997    0.0000 H   0  0  0  0  0  0  0  0  0  0  0  0
   10.2730    4.0470    0.0000 H   0  0  0  0  0  0  0  0  0  0  0  0
   11.2002   -0.7256    0.0000 H   0  0  0  0  0  0  0  0  0  0  0  0
    9.6815    1.2634    0.0000 H   0  0  0  0  0  0  0  0  0  0  0  0
   10.7151   -1.1230    0.0000 H   0  0  0  0  0  0  0  0  0  0  0  0
    9.8131   -1.6986    0.0000 H   0  0  0  0  0  0  0  0  0  0  0  0
    8.1206   -0.5801    0.0000 H   0  0  0  0  0  0  0  0  0  0  0  0
    8.1681   -1.6491    0.0000 H   0  0  0  0  0  0  0  0  0  0  0  0
    9.8804   -3.2142    0.0000 H   0  0  0  0  0  0  0  0  0  0  0  0
    8.9532    1.5584    0.0000 H   0  0  0  0  0  0  0  0  0  0  0  0
    7.6168   -0.5574    0.0000 H   0  0  0  0  0  0  0  0  0  0  0  0
    6.5832    1.8291    0.0000 H   0  0  0  0  0  0  0  0  0  0  0  0
    7.4852    2.4046    0.0000 H   0  0  0  0  0  0  0  0  0  0  0  0
    9.1777    1.2861    0.0000 H   0  0  0  0  0  0  0  0  0  0  0  0
    9.1302    2.3551    0.0000 H   0  0  0  0  0  0  0  0  0  0  0  0
    7.4179    3.9202    0.0000 H   0  0  0  0  0  0  0  0  0  0  0  0
    6.9176   -0.9158    0.0000 H   0  0  0  0  0  0  0  0  0  0  0  0
    5.3989    1.0732    0.0000 H   0  0  0  0  0  0  0  0  0  0  0  0
    4.5809   -1.3955    0.0000 H   0  0  0  0  0  0  0  0  0  0  0  0
    5.5304   -1.8888    0.0000 H   0  0  0  0  0  0  0  0  0  0  0  0
    7.1170   -0.6247    0.0000 H   0  0  0  0  0  0  0  0  0  0  0  0
    7.1645   -1.6937    0.0000 H   0  0  0  0  0  0  0  0  0  0  0  0
    4.7247   -2.0363    0.0000 H   0  0  0  0  0  0  0  0  0  0  0  0
    4.6706    1.3682    0.0000 H   0  0  0  0  0  0  0  0  0  0  0  0
    3.3342   -0.7476    0.0000 H   0  0  0  0  0  0  0  0  0  0  0  0
    2.3006    1.6389    0.0000 H   0  0  0  0  0  0  0  0  0  0  0  0
    3.2026    2.2144    0.0000 H   0  0  0  0  0  0  0  0  0  0  0  0
    4.8951    1.0959    0.0000 H   0  0  0  0  0  0  0  0  0  0  0  0
    4.8476    2.1649    0.0000 H   0  0  0  0  0  0  0  0  0  0  0  0
    3.1353    3.7300    0.0000 H   0  0  0  0  0  0  0  0  0  0  0  0
    2.6350   -1.1060    0.0000 H   0  0  0  0  0  0  0  0  0  0  0  0
    1.1163    0.8830    0.0000 H   0  0  0  0  0  0  0  0  0  0  0  0
    0.2983   -1.5857    0.0000 H   0  0  0  0  0  0  0  0  0  0  0  0
    1.2478   -2.0790    0.0000 H   0  0  0  0  0  0  0  0  0  0  0  0
    2.8344   -0.8149    0.0000 H   0  0  0  0  0  0  0  0  0  0  0  0
    2.8819   -1.8839    0.0000 H   0  0  0  0  0  0  0  0  0  0  0  0
    0.4421   -2.2265    0.0000 H   0  0  0  0  0  0  0  0  0  0  0  0
    0.3880    1.1780    0.0000 H   0  0  0  0  0  0  0  0  0  0  0  0
   -1.0434    1.2000    0.0000 H   0  0  0  0  0  0  0  0  0  0  0  0
   -1.9454    0.6244    0.0000 H   0  0  0  0  0  0  0  0  0  0  0  0
   -1.2177    1.2633    0.0000 H   0  0  0  0  0  0  0  0  0  0  0  0
   -2.2625    1.4941    0.0000 H   0  0  0  0  0  0  0  0  0  0  0  0
   -3.0681    1.6721    0.0000 H   0  0  0  0  0  0  0  0  0  0  0  0
   -3.7904    0.8827    0.0000 H   0  0  0  0  0  0  0  0  0  0  0  0
   -3.2529    1.6882    0.0000 H   0  0  0  0  0  0  0  0  0  0  0  0
   -4.3219    1.6407    0.0000 H   0  0  0  0  0  0  0  0  0  0  0  0
   -4.8785    0.5169    0.0000 H   0  0  0  0  0  0  0  0  0  0  0  0
   -5.1094   -0.5279    0.0000 H   0  0  0  0  0  0  0  0  0  0  0  0
   -5.2873   -1.3335    0.0000 H   0  0  0  0  0  0  0  0  0  0  0  0
   -4.4979   -2.0558    0.0000 H   0  0  0  0  0  0  0  0  0  0  0  0
   -4.3065   -3.0806    0.0000 H   0  0  0  0  0  0  0  0  0  0  0  0
   -5.2559   -2.5873    0.0000 H   0  0  0  0  0  0  0  0  0  0  0  0
   -4.1320   -3.1440    0.0000 H   0  0  0  0  0  0  0  0  0  0  0  0
   -3.0871   -3.3748    0.0000 H   0  0  0  0  0  0  0  0  0  0  0  0
   -2.2817   -3.5527    0.0000 H   0  0  0  0  0  0  0  0  0  0  0  0
   -1.5594   -2.7633    0.0000 H   0  0  0  0  0  0  0  0  0  0  0  0
   -0.5346   -2.5718    0.0000 H   0  0  0  0  0  0  0  0  0  0  0  0
   -1.0279   -3.5213    0.0000 H   0  0  0  0  0  0  0  0  0  0  0  0
   -0.4712   -2.3975    0.0000 H   0  0  0  0  0  0  0  0  0  0  0  0
   -0.2404   -1.3526    0.0000 H   0  0  0  0  0  0  0  0  0  0  0  0
   -0.0625   -0.5471    0.0000 H   0  0  0  0  0  0  0  0  0  0  0  0
   -0.8519    0.1752    0.0000 H   0  0  0  0  0  0  0  0  0  0  0  0
   24.0480   -0.1550    0.0000 H   0  0  0  0  0  0  0  0  0  0  0  0
   23.7503    1.7657    0.0000 H   0  0  0  0  0  0  0  0  0  0  0  0
   23.7137    2.5898    0.0000 H   0  0  0  0  0  0  0  0  0  0  0  0
   24.6157    3.1654    0.0000 H   0  0  0  0  0  0  0  0  0  0  0  0
   26.1119    3.8685    0.0000 H   0  0  0  0  0  0  0  0  0  0  0  0
   26.0836    2.3192    0.0000 H   0  0  0  0  0  0  0  0  0  0  0  0
   26.8119    2.0242    0.0000 H   0  0  0  0  0  0  0  0  0  0  0  0
   28.5043    0.9058    0.0000 H   0  0  0  0  0  0  0  0  0  0  0  0
   28.4568    1.9747    0.0000 H   0  0  0  0  0  0  0  0  0  0  0  0
   25.9162    2.0486    0.0000 H   0  0  0  0  0  0  0  0  0  0  0  0
   25.8338    3.9037    0.0000 H   0  0  0  0  0  0  0  0  0  0  0  0
   27.3992    4.9027    0.0000 H   0  0  0  0  0  0  0  0  0  0  0  0
   29.0471    4.0464    0.0000 H   0  0  0  0  0  0  0  0  0  0  0  0
   29.1294    2.1913    0.0000 H   0  0  0  0  0  0  0  0  0  0  0  0
   27.6716   -1.2328    0.0000 H   0  0  0  0  0  0  0  0  0  0  0  0
   28.4579    0.2803    0.0000 H   0  0  0  0  0  0  0  0  0  0  0  0
  2  3  1  0  0  0  0
  2146  1  0  0  0  0
  2147  1  0  0  0  0
  2148  1  0  0  0  0
  3  4  1  0  0  0  0
  3149  1  0  0  0  0
  3150  1  0  0  0  0
  4  5  1  0  0  0  0
  4151  1  0  0  0  0
  4152  1  0  0  0  0
  5153  1  0  0  0  0
  5154  1  0  0  0  0
  6  5  1  0  0  0  0
  6  7  1  0  0  0  0
  6124  1  0  0  0  0
  6155  1  1  0  0  0
  7  8  1  0  0  0  0
  7156  1  0  0  0  0
  8  9  2  0  0  0  0
 10  8  1  0  0  0  0
 10 11  1  0  0  0  0
 10 21  1  0  0  0  0
 10157  1  6  0  0  0
 11 12  1  0  0  0  0
 11158  1  0  0  0  0
 11159  1  0  0  0  0
 12 13  2  0  0  0  0
 12 16  1  0  0  0  0
 13 14  1  0  0  0  0
 13160  1  0  0  0  0
 14 15  1  0  0  0  0
 14161  1  0  0  0  0
 15 16  2  0  0  0  0
 15 20  1  0  0  0  0
 16 17  1  0  0  0  0
 17 18  2  0  0  0  0
 17162  1  0  0  0  0
 18 19  1  0  0  0  0
 18163  1  0  0  0  0
 19 20  2  0  0  0  0
 19164  1  0  0  0  0
 20165  1  0  0  0  0
 21 22  1  0  0  0  0
 21166  1  0  0  0  0
 22 23  2  0  0  0  0
 22 24  1  0  0  0  0
 24 25  1  0  0  0  0
 24167  1  0  0  0  0
 24168  1  0  0  0  0
 25 26  1  0  0  0  0
 25169  1  0  0  0  0
 26 27  2  0  0  0  0
 28 26  1  0  0  0  0
 28 29  1  0  0  0  0
 28 37  1  0  0  0  0
 28170  1  6  0  0  0
 29 30  1  0  0  0  0
 29171  1  0  0  0  0
 29172  1  0  0  0  0
 30 31  2  0  0  0  0
 30 36  1  0  0  0  0
 31 32  1  0  0  0  0
 31173  1  0  0  0  0
 32 33  2  0  0  0  0
 32174  1  0  0  0  0
 33 34  1  0  0  0  0
 33 35  1  0  0  0  0
 34175  1  0  0  0  0
 35 36  2  0  0  0  0
 35176  1  0  0  0  0
 36177  1  0  0  0  0
 37 38  1  0  0  0  0
 37178  1  0  0  0  0
 38 39  2  0  0  0  0
 40 38  1  0  0  0  0
 40 41  1  0  0  0  0
 40 42  1  0  0  0  0
 40179  1  1  0  0  0
 41180  1  0  0  0  0
 41181  1  0  0  0  0
 41182  1  0  0  0  0
 42 43  1  0  0  0  0
 42183  1  0  0  0  0
 43 44  2  0  0  0  0
 45 43  1  0  0  0  0
 45 46  1  0  0  0  0
 45 51  1  0  0  0  0
 45184  1  1  0  0  0
 46 47  1  0  0  0  0
 46185  1  0  0  0  0
 46186  1  0  0  0  0
 47 48  1  0  0  0  0
 47187  1  0  0  0  0
 47188  1  0  0  0  0
 48 49  1  0  0  0  0
 48 50  2  0  0  0  0
 49189  1  0  0  0  0
 51 52  1  0  0  0  0
 51190  1  0  0  0  0
 52 53  2  0  0  0  0
 54 52  1  0  0  0  0
 54 55  1  0  0  0  0
 54 60  1  0  0  0  0
 54191  1  6  0  0  0
 55 56  1  0  0  0  0
 55192  1  0  0  0  0
 55193  1  0  0  0  0
 56 57  1  0  0  0  0
 56194  1  0  0  0  0
 56195  1  0  0  0  0
 57 58  1  0  0  0  0
 57 59  2  0  0  0  0
 58196  1  0  0  0  0
 60 61  1  0  0  0  0
 60197  1  0  0  0  0
 61 62  2  0  0  0  0
 63 61  1  0  0  0  0
 63 64  1  0  0  0  0
 63 69  1  0  0  0  0
 63198  1  1  0  0  0
 64 65  1  0  0  0  0
 64199  1  0  0  0  0
 64200  1  0  0  0  0
 65 66  1  0  0  0  0
 65201  1  0  0  0  0
 65202  1  0  0  0  0
 66 67  1  0  0  0  0
 66 68  2  0  0  0  0
 67203  1  0  0  0  0
 69 70  1  0  0  0  0
 69204  1  0  0  0  0
 70 71  2  0  0  0  0
 72 70  1  0  0  0  0
 72 73  1  0  0  0  0
 72 78  1  0  0  0  0
 72205  1  6  0  0  0
 73 74  1  0  0  0  0
 73206  1  0  0  0  0
 73207  1  0  0  0  0
 74 75  1  0  0  0  0
 74208  1  0  0  0  0
 74209  1  0  0  0  0
 75 76  1  0  0  0  0
 75 77  2  0  0  0  0
 76210  1  0  0  0  0
 78 79  1  0  0  0  0
 78211  1  0  0  0  0
 79 80  2  0  0  0  0
 81 79  1  0  0  0  0
 81 82  1  0  0  0  0
 81 87  1  0  0  0  0
 81212  1  1  0  0  0
 82 83  1  0  0  0  0
 82213  1  0  0  0  0
 82214  1  0  0  0  0
 83 84  1  0  0  0  0
 83215  1  0  0  0  0
 83216  1  0  0  0  0
 84 85  1  0  0  0  0
 84 86  2  0  0  0  0
 85217  1  0  0  0  0
 87 88  1  0  0  0  0
 87218  1  0  0  0  0
 88 89  2  0  0  0  0
 90 88  1  0  0  0  0
 90 91  1  0  0  0  0
 90 96  1  0  0  0  0
 90219  1  6  0  0  0
 91 92  1  0  0  0  0
 91220  1  0  0  0  0
 91221  1  0  0  0  0
 92 93  1  0  0  0  0
 92222  1  0  0  0  0
 92223  1  0  0  0  0
 93 94  1  0  0  0  0
 93 95  2  0  0  0  0
 94224  1  0  0  0  0
 96 97  1  0  0  0  0
 96225  1  0  0  0  0
 97 98  2  0  0  0  0
 97 99  1  0  0  0  0
 99100  1  0  0  0  0
 99226  1  0  0  0  0
 99227  1  0  0  0  0
100101  1  0  0  0  0
100123  1  0  0  0  0
101102  1  0  0  0  0
101228  1  0  0  0  0
101229  1  0  0  0  0
102103  1  0  0  0  0
102230  1  0  0  0  0
102231  1  0  0  0  0
103104  1  0  0  0  0
103108  1  0  0  0  0
104105  1  0  0  0  0
104232  1  0  0  0  0
104233  1  0  0  0  0
105106  1  0  0  0  0
105107  2  0  0  0  0
108109  1  0  0  0  0
108234  1  0  0  0  0
108235  1  0  0  0  0
109110  1  0  0  0  0
109236  1  0  0  0  0
109237  1  0  0  0  0
110111  1  0  0  0  0
110115  1  0  0  0  0
111112  1  0  0  0  0
111238  1  0  0  0  0
111239  1  0  0  0  0
112113  1  0  0  0  0
112114  2  0  0  0  0
115116  1  0  0  0  0
115240  1  0  0  0  0
115241  1  0  0  0  0
116117  1  0  0  0  0
116242  1  0  0  0  0
116243  1  0  0  0  0
117118  1  0  0  0  0
117122  1  0  0  0  0
118119  1  0  0  0  0
118244  1  0  0  0  0
118245  1  0  0  0  0
119120  1  0  0  0  0
119121  2  0  0  0  0
122123  1  0  0  0  0
122246  1  0  0  0  0
122247  1  0  0  0  0
123248  1  0  0  0  0
123249  1  0  0  0  0
124125  2  0  0  0  0
124126  1  0  0  0  0
126250  1  0  0  0  0
127126  1  0  0  0  0
127128  1  0  0  0  0
127132  1  0  0  0  0
127251  1  6  0  0  0
128129  1  0  0  0  0
128252  1  0  0  0  0
128253  1  0  0  0  0
129130  1  0  0  0  0
129131  2  0  0  0  0
130254  1  0  0  0  0
132133  2  0  0  0  0
132134  1  0  0  0  0
134255  1  0  0  0  0
135134  1  0  0  0  0
135136  1  0  0  0  0
135143  1  0  0  0  0
135256  1  6  0  0  0
136137  1  0  0  0  0
136257  1  0  0  0  0
136258  1  0  0  0  0
137138  2  0  0  0  0
137142  1  0  0  0  0
138139  1  0  0  0  0
138259  1  0  0  0  0
139140  2  0  0  0  0
139260  1  0  0  0  0
140141  1  0  0  0  0
140261  1  0  0  0  0
141142  2  0  0  0  0
141262  1  0  0  0  0
142263  1  0  0  0  0
143144  1  0  0  0  0
143145  2  0  0  0  0
144264  1  0  0  0  0
144265  1  0  0  0  0
M  ISO  1   1 177
M  CHG  4   1   3 106  -1 113  -1 120  -1
M  END
>  <DRUGBANK_ID>
DB17503

>  <COMMON_NAME>
PP-F11N lutetium Lu-177

>  <CAS_NUMBER>
1771736-69-6

>  <UNII>
639NVQ0SXF

>  <SYNONYMS>
Lutetium lu 177 pp-f11n

$$$$
