1146
 OpenBabel10282417072D

 44 46  0  0  0  0  0  0  0  0999 V2000
    2.3645    0.2063    0.0000 O   0  0  0  0  0  0  0  0  0  0  0  0
    2.3645   -2.2688    0.0000 N   0  0  0  0  0  0  0  0  0  0  0  0
    2.3645   -0.6188    0.0000 C   0  0  0  0  0  0  0  0  0  0  0  0
    1.6500   -1.0313    0.0000 C   0  0  0  0  0  0  0  0  0  0  0  0
    3.0791   -1.0313    0.0000 C   0  0  0  0  0  0  0  0  0  0  0  0
    1.6500   -1.8563    0.0000 C   0  0  0  0  0  0  0  0  0  0  0  0
    3.0791   -1.8563    0.0000 C   0  0  0  0  0  0  0  0  0  0  0  0
    3.0791    0.6188    0.0000 C   0  0  0  0  0  0  0  0  0  0  0  0
    2.3645   -3.0938    0.0000 C   0  0  0  0  0  0  0  0  0  0  0  0
    3.0791    1.4438    0.0000 C   0  0  0  0  0  0  0  0  0  0  0  0
    3.7935    0.2063    0.0000 C   0  0  0  0  0  0  0  0  0  0  0  0
    2.3645    1.8563    0.0000 C   0  0  0  0  0  0  0  0  0  0  0  0
    3.7935   -0.6188    0.0000 C   0  0  0  0  0  0  0  0  0  0  0  0
    3.7935    1.8563    0.0000 C   0  0  0  0  0  0  0  0  0  0  0  0
    4.5080    0.6188    0.0000 C   0  0  0  0  0  0  0  0  0  0  0  0
    2.3645    2.6813    0.0000 C   0  0  0  0  0  0  0  0  0  0  0  0
    4.5080   -1.0313    0.0000 C   0  0  0  0  0  0  0  0  0  0  0  0
    3.7935    2.6813    0.0000 C   0  0  0  0  0  0  0  0  0  0  0  0
    5.2224    0.2063    0.0000 C   0  0  0  0  0  0  0  0  0  0  0  0
    3.0791    3.0938    0.0000 C   0  0  0  0  0  0  0  0  0  0  0  0
    5.2224   -0.6188    0.0000 C   0  0  0  0  0  0  0  0  0  0  0  0
    2.3645   -1.6888    0.0000 H   0  0  0  0  0  0  0  0  0  0  0  0
    0.7234   -0.4963    0.0000 H   0  0  0  0  0  0  0  0  0  0  0  0
    0.7234   -1.5663    0.0000 H   0  0  0  0  0  0  0  0  0  0  0  0
    4.0057   -0.4963    0.0000 H   0  0  0  0  0  0  0  0  0  0  0  0
    4.0058   -1.5663    0.0000 H   0  0  0  0  0  0  0  0  0  0  0  0
    0.7234   -2.3913    0.0000 H   0  0  0  0  0  0  0  0  0  0  0  0
    0.7234   -1.3213    0.0000 H   0  0  0  0  0  0  0  0  0  0  0  0
    4.0057   -2.3913    0.0000 H   0  0  0  0  0  0  0  0  0  0  0  0
    4.0058   -1.3213    0.0000 H   0  0  0  0  0  0  0  0  0  0  0  0
    4.0058    1.1538    0.0000 H   0  0  0  0  0  0  0  0  0  0  0  0
    1.4379   -3.6288    0.0000 H   0  0  0  0  0  0  0  0  0  0  0  0
    3.2911   -3.6288    0.0000 H   0  0  0  0  0  0  0  0  0  0  0  0
    2.3645   -4.1638    0.0000 H   0  0  0  0  0  0  0  0  0  0  0  0
    1.4708    1.3403    0.0000 H   0  0  0  0  0  0  0  0  0  0  0  0
    2.8998   -1.1348    0.0000 H   0  0  0  0  0  0  0  0  0  0  0  0
    4.6872    1.3403    0.0000 H   0  0  0  0  0  0  0  0  0  0  0  0
    4.5080    1.6508    0.0000 H   0  0  0  0  0  0  0  0  0  0  0  0
    1.4708    3.1973    0.0000 H   0  0  0  0  0  0  0  0  0  0  0  0
    4.5080   -2.0633    0.0000 H   0  0  0  0  0  0  0  0  0  0  0  0
    4.6872    3.1973    0.0000 H   0  0  0  0  0  0  0  0  0  0  0  0
    6.1161    0.7223    0.0000 H   0  0  0  0  0  0  0  0  0  0  0  0
    3.0792    4.1258    0.0000 H   0  0  0  0  0  0  0  0  0  0  0  0
    6.1161   -1.1348    0.0000 H   0  0  0  0  0  0  0  0  0  0  0  0
  1  3  1  0  0  0  0
  1  8  1  0  0  0  0
  2  6  1  0  0  0  0
  2  7  1  0  0  0  0
  2  9  1  0  0  0  0
  3  4  1  0  0  0  0
  3  5  1  0  0  0  0
  3 22  1  0  0  0  0
  4  6  1  0  0  0  0
  4 23  1  0  0  0  0
  4 24  1  0  0  0  0
  5  7  1  0  0  0  0
  5 25  1  0  0  0  0
  5 26  1  0  0  0  0
  6 27  1  0  0  0  0
  6 28  1  0  0  0  0
  7 29  1  0  0  0  0
  7 30  1  0  0  0  0
  8 10  1  0  0  0  0
  8 11  1  0  0  0  0
  8 31  1  0  0  0  0
  9 32  1  0  0  0  0
  9 33  1  0  0  0  0
  9 34  1  0  0  0  0
 10 12  2  0  0  0  0
 10 14  1  0  0  0  0
 11 13  2  0  0  0  0
 11 15  1  0  0  0  0
 12 16  1  0  0  0  0
 12 35  1  0  0  0  0
 13 17  1  0  0  0  0
 13 36  1  0  0  0  0
 14 18  2  0  0  0  0
 14 37  1  0  0  0  0
 15 19  2  0  0  0  0
 15 38  1  0  0  0  0
 16 20  2  0  0  0  0
 16 39  1  0  0  0  0
 17 21  2  0  0  0  0
 17 40  1  0  0  0  0
 18 20  1  0  0  0  0
 18 41  1  0  0  0  0
 19 21  1  0  0  0  0
 19 42  1  0  0  0  0
 20 43  1  0  0  0  0
 21 44  1  0  0  0  0
M  END
>  <DRUGBANK_ID>
DB01146

>  <SECONDARY_ACCESSION_NUMBERS>
APRD00719

>  <COMMON_NAME>
Diphenylpyraline

>  <CAS_NUMBER>
147-20-6

>  <UNII>
33361OE3AV

>  <SYNONYMS>
1-methyl-4-hydroxypiperidine benzhydryl ether; 1-methyl-4-piperidyl benzhydryl ether; 4-(benzhydryloxy)-1-methylpiperidine; 4-(benzhydryloxy)-N-methylpiperidine; Difenilpiralina; Diphenylpyralamine; Diphenylpyraline; Diphenylpyralinum

$$$$
