372
 OpenBabel10282417072D

 56 59  0  0  0  0  0  0  0  0999 V2000
    5.2216   -2.6666    0.0000 S   0  0  0  0  0  0  0  0  0  0  0  0
    8.1336   -0.9969    0.0000 S   0  0  0  0  0  0  0  0  0  0  0  0
    3.7929    1.4578    0.0000 N   0  0  0  0  0  0  0  0  0  0  0  0
    2.3641    2.2827    0.0000 N   0  0  0  0  0  0  0  0  0  0  0  0
    5.2216   -1.0169    0.0000 N   0  0  0  0  0  0  0  0  0  0  0  0
    3.0786    1.0454    0.0000 C   0  0  0  0  0  0  0  0  0  0  0  0
    3.7929    2.2827    0.0000 C   0  0  0  0  0  0  0  0  0  0  0  0
    4.5073    1.0454    0.0000 C   0  0  0  0  0  0  0  0  0  0  0  0
    2.3641    1.4578    0.0000 C   0  0  0  0  0  0  0  0  0  0  0  0
    3.0786    2.6951    0.0000 C   0  0  0  0  0  0  0  0  0  0  0  0
    4.5073    0.2205    0.0000 C   0  0  0  0  0  0  0  0  0  0  0  0
    5.2216   -0.1920    0.0000 C   0  0  0  0  0  0  0  0  0  0  0  0
    1.6498    2.6951    0.0000 C   0  0  0  0  0  0  0  0  0  0  0  0
    5.9361   -1.4293    0.0000 C   0  0  0  0  0  0  0  0  0  0  0  0
    4.5073   -1.4293    0.0000 C   0  0  0  0  0  0  0  0  0  0  0  0
    5.9361   -2.2542    0.0000 C   0  0  0  0  0  0  0  0  0  0  0  0
    4.5073   -2.2542    0.0000 C   0  0  0  0  0  0  0  0  0  0  0  0
    6.6734   -0.9883    0.0000 C   0  0  0  0  0  0  0  0  0  0  0  0
    3.7699   -0.9883    0.0000 C   0  0  0  0  0  0  0  0  0  0  0  0
    6.6734   -2.6951    0.0000 C   0  0  0  0  0  0  0  0  0  0  0  0
    7.4209   -1.4121    0.0000 C   0  0  0  0  0  0  0  0  0  0  0  0
    3.7699   -2.6951    0.0000 C   0  0  0  0  0  0  0  0  0  0  0  0
    7.4209   -2.2713    0.0000 C   0  0  0  0  0  0  0  0  0  0  0  0
    3.0225   -1.4121    0.0000 C   0  0  0  0  0  0  0  0  0  0  0  0
    3.0225   -2.2713    0.0000 C   0  0  0  0  0  0  0  0  0  0  0  0
    8.8496   -1.4066    0.0000 C   0  0  0  0  0  0  0  0  0  0  0  0
    9.5623   -0.9914    0.0000 C   0  0  0  0  0  0  0  0  0  0  0  0
    3.0787   -0.0246    0.0000 H   0  0  0  0  0  0  0  0  0  0  0  0
    2.1520    0.5103    0.0000 H   0  0  0  0  0  0  0  0  0  0  0  0
    4.7195    2.8177    0.0000 H   0  0  0  0  0  0  0  0  0  0  0  0
    3.7929    3.3527    0.0000 H   0  0  0  0  0  0  0  0  0  0  0  0
    5.4339    1.5804    0.0000 H   0  0  0  0  0  0  0  0  0  0  0  0
    5.4340    0.5104    0.0000 H   0  0  0  0  0  0  0  0  0  0  0  0
    1.4375    0.9227    0.0000 H   0  0  0  0  0  0  0  0  0  0  0  0
    2.3642    0.3878    0.0000 H   0  0  0  0  0  0  0  0  0  0  0  0
    3.0787    3.7651    0.0000 H   0  0  0  0  0  0  0  0  0  0  0  0
    4.0053    3.2301    0.0000 H   0  0  0  0  0  0  0  0  0  0  0  0
    3.5806   -0.3145    0.0000 H   0  0  0  0  0  0  0  0  0  0  0  0
    4.5072   -0.8495    0.0000 H   0  0  0  0  0  0  0  0  0  0  0  0
    6.1483    0.3430    0.0000 H   0  0  0  0  0  0  0  0  0  0  0  0
    5.2217    0.8780    0.0000 H   0  0  0  0  0  0  0  0  0  0  0  0
    1.6498    3.7651    0.0000 H   0  0  0  0  0  0  0  0  0  0  0  0
    0.7232    2.1601    0.0000 H   0  0  0  0  0  0  0  0  0  0  0  0
    0.7232    3.2301    0.0000 H   0  0  0  0  0  0  0  0  0  0  0  0
    6.6614    0.0436    0.0000 H   0  0  0  0  0  0  0  0  0  0  0  0
    3.7818    0.0436    0.0000 H   0  0  0  0  0  0  0  0  0  0  0  0
    6.6614   -3.7270    0.0000 H   0  0  0  0  0  0  0  0  0  0  0  0
    3.7818   -3.7270    0.0000 H   0  0  0  0  0  0  0  0  0  0  0  0
    8.3126   -2.7908    0.0000 H   0  0  0  0  0  0  0  0  0  0  0  0
    2.1308   -0.8926    0.0000 H   0  0  0  0  0  0  0  0  0  0  0  0
    2.1308   -2.7908    0.0000 H   0  0  0  0  0  0  0  0  0  0  0  0
    8.8538   -2.4766    0.0000 H   0  0  0  0  0  0  0  0  0  0  0  0
    9.7783   -1.9380    0.0000 H   0  0  0  0  0  0  0  0  0  0  0  0
   10.4910   -1.5228    0.0000 H   0  0  0  0  0  0  0  0  0  0  0  0
    9.5581    0.0786    0.0000 H   0  0  0  0  0  0  0  0  0  0  0  0
   10.4868   -0.4528    0.0000 H   0  0  0  0  0  0  0  0  0  0  0  0
  1 16  1  0  0  0  0
  1 17  1  0  0  0  0
  2 21  1  0  0  0  0
  2 26  1  0  0  0  0
  3  6  1  0  0  0  0
  3  7  1  0  0  0  0
  3  8  1  0  0  0  0
  4  9  1  0  0  0  0
  4 10  1  0  0  0  0
  4 13  1  0  0  0  0
  5 12  1  0  0  0  0
  5 14  1  0  0  0  0
  5 15  1  0  0  0  0
  6  9  1  0  0  0  0
  6 28  1  0  0  0  0
  6 29  1  0  0  0  0
  7 10  1  0  0  0  0
  7 30  1  0  0  0  0
  7 31  1  0  0  0  0
  8 11  1  0  0  0  0
  8 32  1  0  0  0  0
  8 33  1  0  0  0  0
  9 34  1  0  0  0  0
  9 35  1  0  0  0  0
 10 36  1  0  0  0  0
 10 37  1  0  0  0  0
 11 12  1  0  0  0  0
 11 38  1  0  0  0  0
 11 39  1  0  0  0  0
 12 40  1  0  0  0  0
 12 41  1  0  0  0  0
 13 42  1  0  0  0  0
 13 43  1  0  0  0  0
 13 44  1  0  0  0  0
 14 16  2  0  0  0  0
 14 18  1  0  0  0  0
 15 17  1  0  0  0  0
 15 19  2  0  0  0  0
 16 20  1  0  0  0  0
 17 22  2  0  0  0  0
 18 21  2  0  0  0  0
 18 45  1  0  0  0  0
 19 24  1  0  0  0  0
 19 46  1  0  0  0  0
 20 23  2  0  0  0  0
 20 47  1  0  0  0  0
 21 23  1  0  0  0  0
 22 25  1  0  0  0  0
 22 48  1  0  0  0  0
 23 49  1  0  0  0  0
 24 25  2  0  0  0  0
 24 50  1  0  0  0  0
 25 51  1  0  0  0  0
 26 27  1  0  0  0  0
 26 52  1  0  0  0  0
 26 53  1  0  0  0  0
 27 54  1  0  0  0  0
 27 55  1  0  0  0  0
 27 56  1  0  0  0  0
M  END
>  <DRUGBANK_ID>
DB00372

>  <SECONDARY_ACCESSION_NUMBERS>
APRD00323

>  <COMMON_NAME>
Thiethylperazine

>  <CAS_NUMBER>
1420-55-9

>  <UNII>
8ETK1WAF6R

>  <SYNONYMS>
2-(ethylthio)-10-[3-(4-methylpiperazin-1-yl)propyl]-10H-phenothiazine; Norzine; Thiethylperazin; Thiéthylpérazine; Thiethylperazine; Thiethylperazinum; Tietilperazina

$$$$
