
 OpenBabel10282417072D

 48 49  0  0  1  0  0  0  0  0999 V2000
   -1.8768   -4.8270    0.0000 C   0  0  0  0  0  0  0  0  0  0  0  0
   -2.2893   -4.1125    0.0000 C   0  0  0  0  0  0  0  0  0  0  0  0
   -1.7372   -3.4994    0.0000 C   0  0  1  0  0  0  0  0  0  0  0  0
   -0.9836   -3.8350    0.0000 N   0  0  0  0  0  0  0  0  0  0  0  0
   -1.0698   -4.6555    0.0000 C   0  0  0  0  0  0  0  0  0  0  0  0
   -0.2691   -3.4225    0.0000 C   0  0  0  0  0  0  0  0  0  0  0  0
   -0.2691   -2.5975    0.0000 O   0  0  0  0  0  0  0  0  0  0  0  0
    0.4454   -3.8350    0.0000 C   0  0  0  0  0  0  0  0  0  0  0  0
    1.1598   -3.4225    0.0000 C   0  0  0  0  0  0  0  0  0  0  0  0
    1.8743   -3.8350    0.0000 C   0  0  0  0  0  0  0  0  0  0  0  0
    2.5888   -3.4225    0.0000 C   0  0  0  0  0  0  0  0  0  0  0  0
    3.3033   -3.8350    0.0000 C   0  0  0  0  0  0  0  0  0  0  0  0
    3.3033   -4.6600    0.0000 O   0  0  0  0  0  0  0  0  0  0  0  0
    4.0177   -3.4225    0.0000 N   0  0  0  0  0  0  0  0  0  0  0  0
    4.1040   -2.6020    0.0000 C   0  0  0  0  0  0  0  0  0  0  0  0
    4.9109   -2.4305    0.0000 C   0  0  0  0  0  0  0  0  0  0  0  0
    5.3234   -3.1450    0.0000 C   0  0  0  0  0  0  0  0  0  0  0  0
    4.7714   -3.7581    0.0000 C   0  0  2  0  0  0  0  0  0  0  0  0
    4.9429   -4.5650    0.0000 C   0  0  0  0  0  0  0  0  0  0  0  0
    5.7276   -4.8200    0.0000 O   0  0  0  0  0  0  0  0  0  0  0  0
    4.3298   -5.1171    0.0000 O   0  0  0  0  0  0  0  0  0  0  0  0
   -1.9088   -2.6925    0.0000 C   0  0  0  0  0  0  0  0  0  0  0  0
   -2.6934   -2.4375    0.0000 O   0  0  0  0  0  0  0  0  0  0  0  0
   -1.2957   -2.1404    0.0000 O   0  0  0  0  0  0  0  0  0  0  0  0
   -2.3120   -5.8045    0.0000 H   0  0  0  0  0  0  0  0  0  0  0  0
   -1.2035   -5.6586    0.0000 H   0  0  0  0  0  0  0  0  0  0  0  0
   -3.3534   -4.0006    0.0000 H   0  0  0  0  0  0  0  0  0  0  0  0
   -2.6727   -3.1136    0.0000 H   0  0  0  0  0  0  0  0  0  0  0  0
   -2.7707   -3.2225    0.0000 H   0  0  0  0  0  0  0  0  0  0  0  0
   -0.2746   -5.3715    0.0000 H   0  0  0  0  0  0  0  0  0  0  0  0
   -1.3468   -5.6890    0.0000 H   0  0  0  0  0  0  0  0  0  0  0  0
    0.4454   -4.9050    0.0000 H   0  0  0  0  0  0  0  0  0  0  0  0
    1.3721   -4.3700    0.0000 H   0  0  0  0  0  0  0  0  0  0  0  0
    1.1598   -2.3525    0.0000 H   0  0  0  0  0  0  0  0  0  0  0  0
    2.0864   -2.8875    0.0000 H   0  0  0  0  0  0  0  0  0  0  0  0
    1.8743   -4.9050    0.0000 H   0  0  0  0  0  0  0  0  0  0  0  0
    2.8009   -4.3700    0.0000 H   0  0  0  0  0  0  0  0  0  0  0  0
    2.5888   -2.3525    0.0000 H   0  0  0  0  0  0  0  0  0  0  0  0
    3.5154   -2.8875    0.0000 H   0  0  0  0  0  0  0  0  0  0  0  0
    3.3089   -1.8860    0.0000 H   0  0  0  0  0  0  0  0  0  0  0  0
    4.3810   -1.5685    0.0000 H   0  0  0  0  0  0  0  0  0  0  0  0
    5.3461   -1.4530    0.0000 H   0  0  0  0  0  0  0  0  0  0  0  0
    5.9794   -2.3745    0.0000 H   0  0  0  0  0  0  0  0  0  0  0  0
    6.3875   -3.2568    0.0000 H   0  0  0  0  0  0  0  0  0  0  0  0
    5.7069   -4.1439    0.0000 H   0  0  0  0  0  0  0  0  0  0  0  0
    5.8049   -4.0350    0.0000 H   0  0  0  0  0  0  0  0  0  0  0  0
    3.4386   -4.8276    0.0000 H   0  0  0  0  0  0  0  0  0  0  0  0
   -0.4045   -2.4299    0.0000 H   0  0  0  0  0  0  0  0  0  0  0  0
  1  2  1  0  0  0  0
  1  5  1  0  0  0  0
  1 25  1  0  0  0  0
  1 26  1  0  0  0  0
  2  3  1  0  0  0  0
  2 27  1  0  0  0  0
  2 28  1  0  0  0  0
  3  4  1  0  0  0  0
  3 22  1  0  0  0  0
  3 29  1  1  0  0  0
  4  5  1  0  0  0  0
  4  6  1  0  0  0  0
  5 30  1  0  0  0  0
  5 31  1  0  0  0  0
  6  7  2  0  0  0  0
  6  8  1  0  0  0  0
  8  9  1  0  0  0  0
  8 32  1  0  0  0  0
  8 33  1  0  0  0  0
  9 10  1  0  0  0  0
  9 34  1  0  0  0  0
  9 35  1  0  0  0  0
 10 11  1  0  0  0  0
 10 36  1  0  0  0  0
 10 37  1  0  0  0  0
 11 12  1  0  0  0  0
 11 38  1  0  0  0  0
 11 39  1  0  0  0  0
 12 13  2  0  0  0  0
 12 14  1  0  0  0  0
 14 15  1  0  0  0  0
 14 18  1  0  0  0  0
 15 16  1  0  0  0  0
 15 40  1  0  0  0  0
 15 41  1  0  0  0  0
 16 17  1  0  0  0  0
 16 42  1  0  0  0  0
 16 43  1  0  0  0  0
 17 18  1  0  0  0  0
 17 44  1  0  0  0  0
 17 45  1  0  0  0  0
 18 19  1  0  0  0  0
 18 46  1  1  0  0  0
 19 20  2  0  0  0  0
 19 21  1  0  0  0  0
 21 47  1  0  0  0  0
 22 23  2  0  0  0  0
 22 24  1  0  0  0  0
 24 48  1  0  0  0  0
M  END
>  <DRUGBANK_ID>
DB13087

>  <COMMON_NAME>
Miridesap

>  <CAS_NUMBER>
224624-80-0

>  <UNII>
WO97N24A47

>  <SYNONYMS>
1,1'-hexanedioyldi-D-proline; CPHPC; Miridesap

$$$$
