21U
 OpenBabel10282417072D

 50 51  0  0  0  0  0  0  0  0999 V2000
    3.0375   -0.3382    0.0000 C   0  0  0  0  0  0  0  0  0  0  0  0
    2.3230   -1.5757    0.0000 N   0  0  0  0  0  0  0  0  0  0  0  0
    2.3230   -0.7507    0.0000 C   0  0  1  0  0  0  0  0  0  0  0  0
    1.6085   -0.3382    0.0000 C   0  0  0  0  0  0  0  0  0  0  0  0
    1.6085    0.4868    0.0000 O   0  0  0  0  0  0  0  0  0  0  0  0
    0.8941   -0.7507    0.0000 N   0  0  0  0  0  0  0  0  0  0  0  0
    0.8078   -1.5712    0.0000 C   0  0  0  0  0  0  0  0  0  0  0  0
    0.0009   -1.7427    0.0000 C   0  0  0  0  0  0  0  0  0  0  0  0
   -0.4116   -1.0283    0.0000 C   0  0  0  0  0  0  0  0  0  0  0  0
    0.1404   -0.4152    0.0000 C   0  0  1  0  0  0  0  0  0  0  0  0
   -0.0311    0.3918    0.0000 C   0  0  0  0  0  0  0  0  0  0  0  0
   -0.8158    0.6467    0.0000 N   0  0  0  0  0  0  0  0  0  0  0  0
   -0.9873    1.4537    0.0000 C   0  0  0  0  0  0  0  0  0  0  0  0
   -1.7719    1.7086    0.0000 C   0  0  0  0  0  0  0  0  0  0  0  0
   -2.3850    1.1566    0.0000 C   0  0  0  0  0  0  0  0  0  0  0  0
   -3.1696    1.4115    0.0000 C   0  0  0  0  0  0  0  0  0  0  0  0
   -3.3412    2.2185    0.0000 C   0  0  0  0  0  0  0  0  0  0  0  0
   -2.7281    2.7706    0.0000 C   0  0  0  0  0  0  0  0  0  0  0  0
   -1.9434    2.5156    0.0000 C   0  0  0  0  0  0  0  0  0  0  0  0
    0.5820    0.9438    0.0000 O   0  0  0  0  0  0  0  0  0  0  0  0
    3.7519   -0.7507    0.0000 C   0  0  0  0  0  0  0  0  0  0  0  0
    4.4664   -0.3382    0.0000 C   0  0  0  0  0  0  0  0  0  0  0  0
    3.7519   -1.5757    0.0000 C   0  0  0  0  0  0  0  0  0  0  0  0
   -3.7827    0.8595    0.0000 Cl  0  0  0  0  0  0  0  0  0  0  0  0
    2.8287   -1.0427    0.0000 H   0  0  0  0  0  0  0  0  0  0  0  0
    0.5942   -0.0477    0.0000 H   0  0  0  0  0  0  0  0  0  0  0  0
    3.0375    0.7318    0.0000 H   0  0  0  0  0  0  0  0  0  0  0  0
    3.9642    0.1968    0.0000 H   0  0  0  0  0  0  0  0  0  0  0  0
    1.4397   -2.0857    0.0000 H   0  0  0  0  0  0  0  0  0  0  0  0
    3.2063   -2.0857    0.0000 H   0  0  0  0  0  0  0  0  0  0  0  0
    1.6029   -2.2872    0.0000 H   0  0  0  0  0  0  0  0  0  0  0  0
    0.5308   -2.6047    0.0000 H   0  0  0  0  0  0  0  0  0  0  0  0
   -0.4343   -2.7202    0.0000 H   0  0  0  0  0  0  0  0  0  0  0  0
   -1.0676   -1.7987    0.0000 H   0  0  0  0  0  0  0  0  0  0  0  0
   -1.4757   -0.9165    0.0000 H   0  0  0  0  0  0  0  0  0  0  0  0
   -0.7951   -0.0294    0.0000 H   0  0  0  0  0  0  0  0  0  0  0  0
   -1.5474   -0.0121    0.0000 H   0  0  0  0  0  0  0  0  0  0  0  0
   -0.1921    2.1697    0.0000 H   0  0  0  0  0  0  0  0  0  0  0  0
   -1.2098    2.5003    0.0000 H   0  0  0  0  0  0  0  0  0  0  0  0
   -2.1704    0.1472    0.0000 H   0  0  0  0  0  0  0  0  0  0  0  0
   -4.3227    2.5373    0.0000 H   0  0  0  0  0  0  0  0  0  0  0  0
   -2.9427    3.7800    0.0000 H   0  0  0  0  0  0  0  0  0  0  0  0
   -1.1764    3.2061    0.0000 H   0  0  0  0  0  0  0  0  0  0  0  0
    4.6785   -1.2857    0.0000 H   0  0  0  0  0  0  0  0  0  0  0  0
    5.3930   -0.8732    0.0000 H   0  0  0  0  0  0  0  0  0  0  0  0
    4.4664    0.7318    0.0000 H   0  0  0  0  0  0  0  0  0  0  0  0
    5.3931    0.1968    0.0000 H   0  0  0  0  0  0  0  0  0  0  0  0
    2.8253   -2.1107    0.0000 H   0  0  0  0  0  0  0  0  0  0  0  0
    4.6785   -2.1107    0.0000 H   0  0  0  0  0  0  0  0  0  0  0  0
    3.7519   -2.6457    0.0000 H   0  0  0  0  0  0  0  0  0  0  0  0
  1  3  1  0  0  0  0
  1 21  1  0  0  0  0
  1 27  1  0  0  0  0
  1 28  1  0  0  0  0
  2 29  1  0  0  0  0
  2 30  1  0  0  0  0
  3  2  1  0  0  0  0
  3  4  1  0  0  0  0
  3 25  1  6  0  0  0
  4  5  2  0  0  0  0
  4  6  1  0  0  0  0
  6  7  1  0  0  0  0
  6 10  1  0  0  0  0
  7  8  1  0  0  0  0
  7 31  1  0  0  0  0
  7 32  1  0  0  0  0
  8  9  1  0  0  0  0
  8 33  1  0  0  0  0
  8 34  1  0  0  0  0
  9 10  1  0  0  0  0
  9 35  1  0  0  0  0
  9 36  1  0  0  0  0
 10 11  1  0  0  0  0
 10 26  1  6  0  0  0
 11 12  1  0  0  0  0
 11 20  2  0  0  0  0
 12 13  1  0  0  0  0
 12 37  1  0  0  0  0
 13 14  1  0  0  0  0
 13 38  1  0  0  0  0
 13 39  1  0  0  0  0
 14 15  2  0  0  0  0
 14 19  1  0  0  0  0
 15 16  1  0  0  0  0
 15 40  1  0  0  0  0
 16 17  2  0  0  0  0
 16 24  1  0  0  0  0
 17 18  1  0  0  0  0
 17 41  1  0  0  0  0
 18 19  2  0  0  0  0
 18 42  1  0  0  0  0
 19 43  1  0  0  0  0
 21 22  1  0  0  0  0
 21 23  1  0  0  0  0
 21 44  1  0  0  0  0
 22 45  1  0  0  0  0
 22 46  1  0  0  0  0
 22 47  1  0  0  0  0
 23 48  1  0  0  0  0
 23 49  1  0  0  0  0
 23 50  1  0  0  0  0
M  END
>  <DRUGBANK_ID>
DB06911

>  <COMMON_NAME>
D-leucyl-N-(3-chlorobenzyl)-L-prolinamide

$$$$
