
 OpenBabel10282417072D

 34 35  0  0  0  0  0  0  0  0999 V2000
    0.9501   -0.4110    0.0000 O   0  0  0  0  0  0  0  0  0  0  0  0
    1.5763   -1.5402    0.0000 O   0  0  0  0  0  0  0  0  0  0  0  0
   -0.7115    0.1555    0.0000 C   0  0  1  0  0  0  0  0  0  0  0  0
   -0.8606    1.0886    0.0000 C   0  0  0  0  0  0  0  0  0  0  0  0
   -0.9629   -0.2833    0.0000 C   0  0  2  0  0  0  0  0  0  0  0  0
    0.2470   -0.4110    0.0000 C   0  0  1  0  0  0  0  0  0  0  0  0
    0.0042   -0.8115    0.0000 C   0  0  0  0  0  0  0  0  0  0  0  0
   -1.8406   -0.2833    0.0000 C   0  0  0  0  0  0  0  0  0  0  0  0
   -2.1302   -0.7476    0.0000 C   0  0  0  0  0  0  0  0  0  0  0  0
   -0.2556    0.5346    0.0000 C   0  0  0  0  0  0  0  0  0  0  0  0
   -1.6019    1.4506    0.0000 C   0  0  0  0  0  0  0  0  0  0  0  0
   -0.1704    1.5402    0.0000 C   0  0  0  0  0  0  0  0  0  0  0  0
    1.5763   -0.8372    0.0000 C   0  0  0  0  0  0  0  0  0  0  0  0
    2.1302   -0.3983    0.0000 C   0  0  0  0  0  0  0  0  0  0  0  0
   -0.0230    0.2280    0.0000 H   0  0  0  0  0  0  0  0  0  0  0  0
    0.5292    0.6211    0.0000 H   0  0  0  0  0  0  0  0  0  0  0  0
    0.2823   -1.8447    0.0000 H   0  0  0  0  0  0  0  0  0  0  0  0
    1.0636   -0.9619    0.0000 H   0  0  0  0  0  0  0  0  0  0  0  0
   -2.5233    0.5406    0.0000 H   0  0  0  0  0  0  0  0  0  0  0  0
   -2.9082   -0.3550    0.0000 H   0  0  0  0  0  0  0  0  0  0  0  0
   -2.9514   -1.4335    0.0000 H   0  0  0  0  0  0  0  0  0  0  0  0
   -2.9372   -0.0450    0.0000 H   0  0  0  0  0  0  0  0  0  0  0  0
    0.7482    0.1642    0.0000 H   0  0  0  0  0  0  0  0  0  0  0  0
   -0.4367    1.5892    0.0000 H   0  0  0  0  0  0  0  0  0  0  0  0
    0.5671    1.2187    0.0000 H   0  0  0  0  0  0  0  0  0  0  0  0
   -1.6760    2.5180    0.0000 H   0  0  0  0  0  0  0  0  0  0  0  0
   -2.4893    0.8527    0.0000 H   0  0  0  0  0  0  0  0  0  0  0  0
   -2.5634    1.9201    0.0000 H   0  0  0  0  0  0  0  0  0  0  0  0
    0.7846    1.0577    0.0000 H   0  0  0  0  0  0  0  0  0  0  0  0
   -0.2301    2.6085    0.0000 H   0  0  0  0  0  0  0  0  0  0  0  0
    0.7250    2.1260    0.0000 H   0  0  0  0  0  0  0  0  0  0  0  0
    3.1250   -0.7923    0.0000 H   0  0  0  0  0  0  0  0  0  0  0  0
    1.9740    0.6602    0.0000 H   0  0  0  0  0  0  0  0  0  0  0  0
    2.9688    0.2662    0.0000 H   0  0  0  0  0  0  0  0  0  0  0  0
  1 13  1  0  0  0  0
  2 13  2  0  0  0  0
  3  4  1  0  0  0  0
  3  6  1  0  0  0  0
  3  8  1  0  0  0  0
  3 10  1  6  0  0  0
  4 11  1  0  0  0  0
  4 12  1  0  0  0  0
  5  4  1  0  0  0  0
  5  7  1  0  0  0  0
  5  9  1  0  0  0  0
  5 15  1  1  0  0  0
  6  1  1  0  0  0  0
  6  7  1  0  0  0  0
  6 16  1  1  0  0  0
  7 17  1  0  0  0  0
  7 18  1  0  0  0  0
  8  9  1  0  0  0  0
  8 19  1  0  0  0  0
  8 20  1  0  0  0  0
  9 21  1  0  0  0  0
  9 22  1  0  0  0  0
 10 23  1  0  0  0  0
 10 24  1  0  0  0  0
 10 25  1  0  0  0  0
 11 26  1  0  0  0  0
 11 27  1  0  0  0  0
 11 28  1  0  0  0  0
 12 29  1  0  0  0  0
 12 30  1  0  0  0  0
 12 31  1  0  0  0  0
 13 14  1  0  0  0  0
 14 32  1  0  0  0  0
 14 33  1  0  0  0  0
 14 34  1  0  0  0  0
M  END
>  <DRUGBANK_ID>
DB14665

>  <SECONDARY_ACCESSION_NUMBERS>
DBSALT002203

>  <COMMON_NAME>
Bornyl acetate

>  <CAS_NUMBER>
76-49-3

>  <UNII>
213431586X

>  <SYNONYMS>
Bornyl acetate

$$$$
