
 OpenBabel10282417072D

108111  0  0  0  0  0  0  0  0999 V2000
   -1.7848    0.2099    0.0000 C   0  0  0  0  0  0  0  0  0  0  0  0
   -1.0648   -0.2099    0.0000 C   0  0  1  0  0  0  0  0  0  0  0  0
   -0.3600    0.2099    0.0000 C   0  0  1  0  0  0  0  0  0  0  0  0
    0.3600   -0.2099    0.0000 C   0  0  2  0  0  0  0  0  0  0  0  0
    1.0648    0.2099    0.0000 C   0  0  2  0  0  0  0  0  0  0  0  0
    1.7848   -0.2099    0.0000 C   0  0  0  0  0  0  0  0  0  0  0  0
    1.7848   -1.0348    0.0000 O   0  0  0  0  0  0  0  0  0  0  0  0
    1.0648    1.0348    0.0000 O   0  0  0  0  0  0  0  0  0  0  0  0
    1.7848    1.4398    0.0000 C   0  0  0  0  0  0  0  0  0  0  0  0
    1.7848    2.2648    0.0000 C   0  0  0  0  0  0  0  0  0  0  0  0
    1.7848    3.9146    0.0000 C   0  0  0  0  0  0  0  0  0  0  0  0
    1.0648    3.5096    0.0000 C   0  0  0  0  0  0  0  0  0  0  0  0
    1.0648    2.6847    0.0000 C   0  0  0  0  0  0  0  0  0  0  0  0
    2.5047    2.6847    0.0000 C   0  0  0  0  0  0  0  0  0  0  0  0
    2.5047    3.5096    0.0000 C   0  0  0  0  0  0  0  0  0  0  0  0
   -0.3600    1.0348    0.0000 O   0  0  0  0  0  0  0  0  0  0  0  0
   -1.7848   -1.4398    0.0000 C   0  0  0  0  0  0  0  0  0  0  0  0
   -1.7848   -2.2648    0.0000 C   0  0  0  0  0  0  0  0  0  0  0  0
   -2.5047   -2.6847    0.0000 C   0  0  0  0  0  0  0  0  0  0  0  0
   -2.5047   -3.5096    0.0000 C   0  0  0  0  0  0  0  0  0  0  0  0
   -1.7848   -3.9146    0.0000 C   0  0  0  0  0  0  0  0  0  0  0  0
   -1.0648   -3.5096    0.0000 C   0  0  0  0  0  0  0  0  0  0  0  0
   -1.0648   -2.6847    0.0000 C   0  0  0  0  0  0  0  0  0  0  0  0
   -1.0648   -1.0348    0.0000 O   0  0  0  0  0  0  0  0  0  0  0  0
   -1.7848    1.0348    0.0000 O   0  0  0  0  0  0  0  0  0  0  0  0
   -2.5047   -0.2099    0.0000 N   0  0  0  0  0  0  0  0  0  0  0  0
    0.3600   -1.0348    0.0000 O   0  0  0  0  0  0  0  0  0  0  0  0
   -3.2097    0.2099    0.0000 C   0  0  1  0  0  0  0  0  0  0  0  0
   -3.2097    1.0348    0.0000 C   0  0  0  0  0  0  0  0  0  0  0  0
   -2.5047    1.4398    0.0000 C   0  0  0  0  0  0  0  0  0  0  0  0
   -3.9296    1.4398    0.0000 C   0  0  0  0  0  0  0  0  0  0  0  0
   -3.9296   -0.2099    0.0000 C   0  0  0  0  0  0  0  0  0  0  0  0
   -3.9296   -1.0348    0.0000 O   0  0  0  0  0  0  0  0  0  0  0  0
   -4.6495    0.2099    0.0000 N   0  0  0  0  0  0  0  0  0  0  0  0
    2.5047    0.2099    0.0000 N   0  0  0  0  0  0  0  0  0  0  0  0
    3.2097   -0.2099    0.0000 C   0  0  1  0  0  0  0  0  0  0  0  0
    3.2097   -1.0348    0.0000 C   0  0  0  0  0  0  0  0  0  0  0  0
    2.5047   -1.4398    0.0000 C   0  0  0  0  0  0  0  0  0  0  0  0
    3.9296   -1.4398    0.0000 C   0  0  0  0  0  0  0  0  0  0  0  0
    3.9296    0.2099    0.0000 C   0  0  0  0  0  0  0  0  0  0  0  0
    3.9296    1.0348    0.0000 O   0  0  0  0  0  0  0  0  0  0  0  0
    4.6495   -0.2099    0.0000 N   0  0  0  0  0  0  0  0  0  0  0  0
   -5.3544   -0.2099    0.0000 C   0  0  0  0  0  0  0  0  0  0  0  0
   -6.0743    0.2099    0.0000 C   0  0  0  0  0  0  0  0  0  0  0  0
   -6.7793    1.4398    0.0000 C   0  0  0  0  0  0  0  0  0  0  0  0
   -7.4993    1.0348    0.0000 C   0  0  0  0  0  0  0  0  0  0  0  0
   -7.4993    0.2099    0.0000 C   0  0  0  0  0  0  0  0  0  0  0  0
   -6.0743    1.0348    0.0000 C   0  0  0  0  0  0  0  0  0  0  0  0
   -6.7793   -0.2099    0.0000 N   0  0  0  0  0  0  0  0  0  0  0  0
    5.3544    0.2099    0.0000 C   0  0  0  0  0  0  0  0  0  0  0  0
    6.0743   -0.2099    0.0000 C   0  0  0  0  0  0  0  0  0  0  0  0
    6.0743   -1.0348    0.0000 C   0  0  0  0  0  0  0  0  0  0  0  0
    6.7793   -1.4398    0.0000 C   0  0  0  0  0  0  0  0  0  0  0  0
    7.4993   -1.0348    0.0000 C   0  0  0  0  0  0  0  0  0  0  0  0
    7.4993   -0.2099    0.0000 C   0  0  0  0  0  0  0  0  0  0  0  0
    6.7793    0.2099    0.0000 N   0  0  0  0  0  0  0  0  0  0  0  0
   -1.9926   -0.7429    0.0000 H   0  0  0  0  0  0  0  0  0  0  0  0
   -1.2903    0.7386    0.0000 H   0  0  0  0  0  0  0  0  0  0  0  0
   -0.5678   -0.7429    0.0000 H   0  0  0  0  0  0  0  0  0  0  0  0
    0.1345    0.7386    0.0000 H   0  0  0  0  0  0  0  0  0  0  0  0
    2.7084    0.8996    0.0000 H   0  0  0  0  0  0  0  0  0  0  0  0
    2.7129    1.9722    0.0000 H   0  0  0  0  0  0  0  0  0  0  0  0
    1.7848    4.9466    0.0000 H   0  0  0  0  0  0  0  0  0  0  0  0
    0.1740    4.0306    0.0000 H   0  0  0  0  0  0  0  0  0  0  0  0
    0.1699    2.1707    0.0000 H   0  0  0  0  0  0  0  0  0  0  0  0
    3.3996    2.1707    0.0000 H   0  0  0  0  0  0  0  0  0  0  0  0
    3.3955    4.0306    0.0000 H   0  0  0  0  0  0  0  0  0  0  0  0
    0.4800    1.5198    0.0000 H   0  0  0  0  0  0  0  0  0  0  0  0
   -2.7084   -0.8996    0.0000 H   0  0  0  0  0  0  0  0  0  0  0  0
   -2.7129   -1.9722    0.0000 H   0  0  0  0  0  0  0  0  0  0  0  0
   -3.3996   -2.1707    0.0000 H   0  0  0  0  0  0  0  0  0  0  0  0
   -3.3955   -4.0306    0.0000 H   0  0  0  0  0  0  0  0  0  0  0  0
   -1.7848   -4.9466    0.0000 H   0  0  0  0  0  0  0  0  0  0  0  0
   -0.1740   -4.0306    0.0000 H   0  0  0  0  0  0  0  0  0  0  0  0
   -0.1699   -2.1707    0.0000 H   0  0  0  0  0  0  0  0  0  0  0  0
   -2.5092   -1.1944    0.0000 H   0  0  0  0  0  0  0  0  0  0  0  0
   -0.4800   -1.5198    0.0000 H   0  0  0  0  0  0  0  0  0  0  0  0
   -2.2795    0.7386    0.0000 H   0  0  0  0  0  0  0  0  0  0  0  0
   -3.2145    2.1048    0.0000 H   0  0  0  0  0  0  0  0  0  0  0  0
   -1.5792    0.9028    0.0000 H   0  0  0  0  0  0  0  0  0  0  0  0
   -2.5024    2.5098    0.0000 H   0  0  0  0  0  0  0  0  0  0  0  0
   -1.5769    1.9728    0.0000 H   0  0  0  0  0  0  0  0  0  0  0  0
   -3.9415    2.5097    0.0000 H   0  0  0  0  0  0  0  0  0  0  0  0
   -4.8502    0.8945    0.0000 H   0  0  0  0  0  0  0  0  0  0  0  0
   -4.8622    1.9644    0.0000 H   0  0  0  0  0  0  0  0  0  0  0  0
   -4.6540    1.1944    0.0000 H   0  0  0  0  0  0  0  0  0  0  0  0
    2.5092    1.1944    0.0000 H   0  0  0  0  0  0  0  0  0  0  0  0
    2.2795   -0.7386    0.0000 H   0  0  0  0  0  0  0  0  0  0  0  0
    3.2145   -2.1048    0.0000 H   0  0  0  0  0  0  0  0  0  0  0  0
    1.5792   -0.9028    0.0000 H   0  0  0  0  0  0  0  0  0  0  0  0
    2.5024   -2.5098    0.0000 H   0  0  0  0  0  0  0  0  0  0  0  0
    1.5769   -1.9728    0.0000 H   0  0  0  0  0  0  0  0  0  0  0  0
    3.9415   -2.5097    0.0000 H   0  0  0  0  0  0  0  0  0  0  0  0
    4.8502   -0.8945    0.0000 H   0  0  0  0  0  0  0  0  0  0  0  0
    4.8622   -1.9644    0.0000 H   0  0  0  0  0  0  0  0  0  0  0  0
    4.6540   -1.1944    0.0000 H   0  0  0  0  0  0  0  0  0  0  0  0
   -5.3495   -1.2799    0.0000 H   0  0  0  0  0  0  0  0  0  0  0  0
   -6.2810   -0.7450    0.0000 H   0  0  0  0  0  0  0  0  0  0  0  0
   -6.7746    2.4718    0.0000 H   0  0  0  0  0  0  0  0  0  0  0  0
   -8.3901    1.5558    0.0000 H   0  0  0  0  0  0  0  0  0  0  0  0
   -8.3941   -0.3042    0.0000 H   0  0  0  0  0  0  0  0  0  0  0  0
   -5.1811    1.5518    0.0000 H   0  0  0  0  0  0  0  0  0  0  0  0
    5.3495    1.2799    0.0000 H   0  0  0  0  0  0  0  0  0  0  0  0
    6.2810    0.7450    0.0000 H   0  0  0  0  0  0  0  0  0  0  0  0
    5.1811   -1.5518    0.0000 H   0  0  0  0  0  0  0  0  0  0  0  0
    6.7746   -2.4718    0.0000 H   0  0  0  0  0  0  0  0  0  0  0  0
    8.3901   -1.5558    0.0000 H   0  0  0  0  0  0  0  0  0  0  0  0
    8.3941    0.3042    0.0000 H   0  0  0  0  0  0  0  0  0  0  0  0
  1 26  1  0  0  0  0
  1  2  1  0  0  0  0
  1 25  2  0  0  0  0
  2  3  1  0  0  0  0
  2 24  1  0  0  0  0
  2 57  1  6  0  0  0
  3  4  1  0  0  0  0
  3 16  1  0  0  0  0
  3 58  1  1  0  0  0
  4  5  1  0  0  0  0
  4 27  1  0  0  0  0
  4 59  1  1  0  0  0
  5  6  1  0  0  0  0
  5  8  1  0  0  0  0
  5 60  1  6  0  0  0
  6 35  1  0  0  0  0
  6  7  2  0  0  0  0
  8  9  1  0  0  0  0
  9 10  1  0  0  0  0
  9 61  1  0  0  0  0
  9 62  1  0  0  0  0
 10 13  2  0  0  0  0
 10 14  1  0  0  0  0
 11 12  2  0  0  0  0
 11 15  1  0  0  0  0
 11 63  1  0  0  0  0
 12 13  1  0  0  0  0
 12 64  1  0  0  0  0
 13 65  1  0  0  0  0
 14 15  2  0  0  0  0
 14 66  1  0  0  0  0
 15 67  1  0  0  0  0
 16 68  1  0  0  0  0
 17 24  1  0  0  0  0
 17 18  1  0  0  0  0
 17 69  1  0  0  0  0
 17 70  1  0  0  0  0
 18 19  2  0  0  0  0
 18 23  1  0  0  0  0
 19 20  1  0  0  0  0
 19 71  1  0  0  0  0
 20 21  2  0  0  0  0
 20 72  1  0  0  0  0
 21 22  1  0  0  0  0
 21 73  1  0  0  0  0
 22 23  2  0  0  0  0
 22 74  1  0  0  0  0
 23 75  1  0  0  0  0
 26 28  1  0  0  0  0
 26 76  1  0  0  0  0
 27 77  1  0  0  0  0
 28 32  1  0  0  0  0
 28 29  1  0  0  0  0
 28 78  1  1  0  0  0
 29 30  1  0  0  0  0
 29 31  1  0  0  0  0
 29 79  1  0  0  0  0
 30 80  1  0  0  0  0
 30 81  1  0  0  0  0
 30 82  1  0  0  0  0
 31 83  1  0  0  0  0
 31 84  1  0  0  0  0
 31 85  1  0  0  0  0
 32 34  1  0  0  0  0
 32 33  2  0  0  0  0
 34 43  1  0  0  0  0
 34 86  1  0  0  0  0
 35 36  1  0  0  0  0
 35 87  1  0  0  0  0
 36 40  1  0  0  0  0
 36 37  1  0  0  0  0
 36 88  1  1  0  0  0
 37 38  1  0  0  0  0
 37 39  1  0  0  0  0
 37 89  1  0  0  0  0
 38 90  1  0  0  0  0
 38 91  1  0  0  0  0
 38 92  1  0  0  0  0
 39 93  1  0  0  0  0
 39 94  1  0  0  0  0
 39 95  1  0  0  0  0
 40 42  1  0  0  0  0
 40 41  2  0  0  0  0
 42 50  1  0  0  0  0
 42 96  1  0  0  0  0
 43 44  1  0  0  0  0
 43 97  1  0  0  0  0
 43 98  1  0  0  0  0
 44 49  2  0  0  0  0
 44 48  1  0  0  0  0
 45 46  1  0  0  0  0
 45 48  2  0  0  0  0
 45 99  1  0  0  0  0
 46 47  2  0  0  0  0
 46100  1  0  0  0  0
 47 49  1  0  0  0  0
 47101  1  0  0  0  0
 48102  1  0  0  0  0
 50 51  1  0  0  0  0
 50103  1  0  0  0  0
 50104  1  0  0  0  0
 51 56  1  0  0  0  0
 51 52  2  0  0  0  0
 52 53  1  0  0  0  0
 52105  1  0  0  0  0
 53 54  2  0  0  0  0
 53106  1  0  0  0  0
 54 55  1  0  0  0  0
 54107  1  0  0  0  0
 55 56  2  0  0  0  0
 55108  1  0  0  0  0
M  END
>  <DRUGBANK_ID>
DB03803

>  <SECONDARY_ACCESSION_NUMBERS>
EXPT02235

>  <COMMON_NAME>
N,N-[2,5-O-dibenzyl-glucaryl]-DI-[valinyl-aminomethanyl-pyridine]

>  <SYNONYMS>
Inhibitor MSA367

$$$$
