ML2
 OpenBabel10282417072D

 33 34  0  0  0  0  0  0  0  0999 V2000
   -0.6764   -0.6727    0.0000 C   0  0  0  0  0  0  0  0  0  0  0  0
   -1.8959   -0.1297    0.0000 C   0  0  0  0  0  0  0  0  0  0  0  0
   -2.7029    0.0418    0.0000 C   0  0  0  0  0  0  0  0  0  0  0  0
   -2.9578    0.8264    0.0000 C   0  0  0  0  0  0  0  0  0  0  0  0
   -3.4677    2.3957    0.0000 C   0  0  0  0  0  0  0  0  0  0  0  0
   -0.5902    0.1478    0.0000 C   0  0  0  0  0  0  0  0  0  0  0  0
    0.1243    0.5603    0.0000 C   0  0  0  0  0  0  0  0  0  0  0  0
    1.5532    0.5603    0.0000 N   0  0  0  0  0  0  0  0  0  0  0  0
    2.2677    0.1478    0.0000 C   0  0  0  0  0  0  0  0  0  0  0  0
    2.9822    0.5603    0.0000 C   0  0  0  0  0  0  0  0  0  0  0  0
   -0.0633   -1.2247    0.0000 I   0  0  0  0  0  0  0  0  0  0  0  0
   -1.4834   -0.8442    0.0000 N   0  0  0  0  0  0  0  0  0  0  0  0
   -2.4058    1.4395    0.0000 C   0  0  0  0  0  0  0  0  0  0  0  0
   -2.6607    2.2241    0.0000 O   0  0  0  0  0  0  0  0  0  0  0  0
   -1.5988    1.2680    0.0000 C   0  0  0  0  0  0  0  0  0  0  0  0
   -1.3439    0.4834    0.0000 C   0  0  0  0  0  0  0  0  0  0  0  0
    0.8387    0.1478    0.0000 C   0  0  0  0  0  0  0  0  0  0  0  0
    2.2677   -0.6772    0.0000 O   0  0  0  0  0  0  0  0  0  0  0  0
   -3.3934   -0.7251    0.0000 H   0  0  0  0  0  0  0  0  0  0  0  0
   -3.9672    1.0410    0.0000 H   0  0  0  0  0  0  0  0  0  0  0  0
   -3.7983    3.4134    0.0000 H   0  0  0  0  0  0  0  0  0  0  0  0
   -4.1837    1.6006    0.0000 H   0  0  0  0  0  0  0  0  0  0  0  0
   -4.5143    2.6182    0.0000 H   0  0  0  0  0  0  0  0  0  0  0  0
    0.1243    1.6303    0.0000 H   0  0  0  0  0  0  0  0  0  0  0  0
   -0.8023    1.0953    0.0000 H   0  0  0  0  0  0  0  0  0  0  0  0
    1.5532    1.5448    0.0000 H   0  0  0  0  0  0  0  0  0  0  0  0
    3.9088    0.0253    0.0000 H   0  0  0  0  0  0  0  0  0  0  0  0
    2.9822    1.6303    0.0000 H   0  0  0  0  0  0  0  0  0  0  0  0
    3.9089    1.0953    0.0000 H   0  0  0  0  0  0  0  0  0  0  0  0
   -1.8839   -1.7436    0.0000 H   0  0  0  0  0  0  0  0  0  0  0  0
   -0.9083    2.0349    0.0000 H   0  0  0  0  0  0  0  0  0  0  0  0
    0.8387   -0.9222    0.0000 H   0  0  0  0  0  0  0  0  0  0  0  0
    1.7653   -0.3872    0.0000 H   0  0  0  0  0  0  0  0  0  0  0  0
  1 12  1  0  0  0  0
  2  3  2  0  0  0  0
  3 19  1  0  0  0  0
  4  3  1  0  0  0  0
  4 20  1  0  0  0  0
  5 21  1  0  0  0  0
  5 22  1  0  0  0  0
  5 23  1  0  0  0  0
  6  1  2  0  0  0  0
  6 16  1  0  0  0  0
  7 17  1  0  0  0  0
  7  6  1  0  0  0  0
  7 24  1  0  0  0  0
  7 25  1  0  0  0  0
  8 17  1  0  0  0  0
  8 26  1  0  0  0  0
  9  8  1  0  0  0  0
  9 18  2  0  0  0  0
 10  9  1  0  0  0  0
 10 27  1  0  0  0  0
 10 28  1  0  0  0  0
 10 29  1  0  0  0  0
 11  1  1  0  0  0  0
 12  2  1  0  0  0  0
 12 30  1  0  0  0  0
 13  4  2  0  0  0  0
 14 13  1  0  0  0  0
 14  5  1  0  0  0  0
 15 16  2  0  0  0  0
 15 13  1  0  0  0  0
 15 31  1  0  0  0  0
 16  2  1  0  0  0  0
 17 32  1  0  0  0  0
 17 33  1  0  0  0  0
M  END
>  <DRUGBANK_ID>
DB08190

>  <COMMON_NAME>
N-[2-(2-iodo-5-methoxy-1H-indol-3-yl)ethyl]acetamide

>  <UNII>
2Q5TZ5754A

$$$$
