
 OpenBabel10282417072D

 76 83  0  0  0  0  0  0  0  0999 V2000
   -0.6084   -0.2990    0.0000 C   0  0  0  0  0  0  0  0  0  0  0  0
    4.3329    0.7303    0.0000 C   0  0  0  0  0  0  0  0  0  0  0  0
    0.7738    0.5244    0.0000 C   0  0  0  0  0  0  0  0  0  0  0  0
   -3.3351    1.1045    0.0000 C   0  0  0  0  0  0  0  0  0  0  0  0
    3.3597   -0.9082    0.0000 C   0  0  0  0  0  0  0  0  0  0  0  0
    0.8150   -3.4030    0.0000 C   0  0  0  0  0  0  0  0  0  0  0  0
   -0.6683    0.5007    0.0000 C   0  0  0  0  0  0  0  0  0  0  0  0
    3.5105    0.9016    0.0000 C   0  0  0  0  0  0  0  0  0  0  0  0
   -3.5016   -0.7311    0.0000 C   0  0  0  0  0  0  0  0  0  0  0  0
   -0.9561   -3.3188    0.0000 C   0  0  0  0  0  0  0  0  0  0  0  0
   -4.3199   -0.5130    0.0000 C   0  0  0  0  0  0  0  0  0  0  0  0
   -0.8530   -4.1582    0.0000 C   0  0  0  0  0  0  0  0  0  0  0  0
   -1.3886    1.6795    0.0000 C   0  0  0  0  0  0  0  0  0  0  0  0
    1.5952    1.4847    0.0000 C   0  0  0  0  0  0  0  0  0  0  0  0
   -1.5835   -1.3044    0.0000 C   0  0  0  0  0  0  0  0  0  0  0  0
    0.3523    1.2389    0.0000 C   0  0  0  0  0  0  0  0  0  0  0  0
   -2.7087    0.5388    0.0000 C   0  0  0  0  0  0  0  0  0  0  0  0
    2.7205   -0.3584    0.0000 C   0  0  0  0  0  0  0  0  0  0  0  0
    0.3805   -2.6782    0.0000 C   0  0  0  0  0  0  0  0  0  0  0  0
   -0.4710    1.2926    0.0000 C   0  0  0  0  0  0  0  0  0  0  0  0
    2.7743    0.4648    0.0000 C   0  0  0  0  0  0  0  0  0  0  0  0
   -2.7625   -0.2845    0.0000 C   0  0  0  0  0  0  0  0  0  0  0  0
   -0.4427   -2.6244    0.0000 C   0  0  0  0  0  0  0  0  0  0  0  0
    0.6578    2.0052    0.0000 C   0  0  0  0  0  0  0  0  0  0  0  0
   -1.9092    0.7421    0.0000 C   0  0  0  0  0  0  0  0  0  0  0  0
   -0.6743    2.0922    0.0000 C   0  0  0  0  0  0  0  0  0  0  0  0
    2.0079    0.7703    0.0000 C   0  0  0  0  0  0  0  0  0  0  0  0
   -1.9961   -0.5900    0.0000 C   0  0  0  0  0  0  0  0  0  0  0  0
   -0.6460   -1.8249    0.0000 C   0  0  0  0  0  0  0  0  0  0  0  0
   -4.9025   -1.0972    0.0000 C   0  0  0  0  0  0  0  0  0  0  0  0
   -1.5118   -4.6547    0.0000 C   0  0  0  0  0  0  0  0  0  0  0  0
    1.9209   -0.5617    0.0000 C   0  0  0  0  0  0  0  0  0  0  0  0
    0.6860   -1.9119    0.0000 C   0  0  0  0  0  0  0  0  0  0  0  0
    1.4004   -1.4992    0.0000 C   0  0  0  0  0  0  0  0  0  0  0  0
    0.0234    2.5326    0.0000 N   0  0  0  0  0  0  0  0  0  0  0  0
   -1.4688    0.0444    0.0000 N   0  0  0  0  0  0  0  0  0  0  0  0
    1.4805    0.1359    0.0000 N   0  0  0  0  0  0  0  0  0  0  0  0
    0.0516   -1.3845    0.0000 N   0  0  0  0  0  0  0  0  0  0  0  0
   -4.6879   -1.8938    0.0000 O   0  0  0  0  0  0  0  0  0  0  0  0
   -5.6996   -0.8847    0.0000 O   0  0  0  0  0  0  0  0  0  0  0  0
   -1.4111   -5.4736    0.0000 O   0  0  0  0  0  0  0  0  0  0  0  0
   -2.2712   -4.3325    0.0000 O   0  0  0  0  0  0  0  0  0  0  0  0
    2.0036   -2.0903    0.0000 O   0  0  0  0  0  0  0  0  0  0  0  0
    0.0217    0.3321    0.0000 Zn  0  0  3  0  0  0  0  0  0  0  0  0
   -1.4611   -0.8803    0.0000 H   0  0  0  0  0  0  0  0  0  0  0  0
    0.3214   -0.7468    0.0000 H   0  0  0  0  0  0  0  0  0  0  0  0
    4.6558   -0.2499    0.0000 H   0  0  0  0  0  0  0  0  0  0  0  0
    5.0203    1.5000    0.0000 H   0  0  0  0  0  0  0  0  0  0  0  0
    0.2475   -0.4072    0.0000 H   0  0  0  0  0  0  0  0  0  0  0  0
    1.8438    0.5344    0.0000 H   0  0  0  0  0  0  0  0  0  0  0  0
    1.3175   -0.3972    0.0000 H   0  0  0  0  0  0  0  0  0  0  0  0
   -3.1111    2.1508    0.0000 H   0  0  0  0  0  0  0  0  0  0  0  0
   -4.3532    0.7754    0.0000 H   0  0  0  0  0  0  0  0  0  0  0  0
   -4.1292    1.8216    0.0000 H   0  0  0  0  0  0  0  0  0  0  0  0
    3.1610   -1.9596    0.0000 H   0  0  0  0  0  0  0  0  0  0  0  0
    4.3696   -0.5546    0.0000 H   0  0  0  0  0  0  0  0  0  0  0  0
    4.1709   -1.6059    0.0000 H   0  0  0  0  0  0  0  0  0  0  0  0
    0.2953   -4.3383    0.0000 H   0  0  0  0  0  0  0  0  0  0  0  0
    1.8849   -3.3854    0.0000 H   0  0  0  0  0  0  0  0  0  0  0  0
    1.3652   -4.3207    0.0000 H   0  0  0  0  0  0  0  0  0  0  0  0
   -1.6966    0.5880    0.0000 H   0  0  0  0  0  0  0  0  0  0  0  0
    3.3409    1.9196    0.0000 H   0  0  0  0  0  0  0  0  0  0  0  0
   -3.3507   -1.7904    0.0000 H   0  0  0  0  0  0  0  0  0  0  0  0
   -2.5348   -1.1896    0.0000 H   0  0  0  0  0  0  0  0  0  0  0  0
   -1.9909   -3.0466    0.0000 H   0  0  0  0  0  0  0  0  0  0  0  0
   -1.3114   -2.3095    0.0000 H   0  0  0  0  0  0  0  0  0  0  0  0
   -4.5982    0.5202    0.0000 H   0  0  0  0  0  0  0  0  0  0  0  0
   -5.3538   -0.2375    0.0000 H   0  0  0  0  0  0  0  0  0  0  0  0
    0.1320   -4.5762    0.0000 H   0  0  0  0  0  0  0  0  0  0  0  0
   -0.7225   -5.2202    0.0000 H   0  0  0  0  0  0  0  0  0  0  0  0
   -2.1245    2.4030    0.0000 H   0  0  0  0  0  0  0  0  0  0  0  0
    2.3187    2.2206    0.0000 H   0  0  0  0  0  0  0  0  0  0  0  0
   -2.3070   -2.0403    0.0000 H   0  0  0  0  0  0  0  0  0  0  0  0
   -5.3496   -2.5573    0.0000 H   0  0  0  0  0  0  0  0  0  0  0  0
   -2.1593   -6.0376    0.0000 H   0  0  0  0  0  0  0  0  0  0  0  0
    1.7703   -2.9978    0.0000 H   0  0  0  0  0  0  0  0  0  0  0  0
  1 45  1  0  0  0  0
  1 46  1  0  0  0  0
  2 47  1  0  0  0  0
  2 48  1  0  0  0  0
  3 49  1  0  0  0  0
  3 50  1  0  0  0  0
  3 51  1  0  0  0  0
  4 52  1  0  0  0  0
  4 53  1  0  0  0  0
  4 54  1  0  0  0  0
  5 55  1  0  0  0  0
  5 56  1  0  0  0  0
  5 57  1  0  0  0  0
  6 58  1  0  0  0  0
  6 59  1  0  0  0  0
  6 60  1  0  0  0  0
  7  1  2  0  0  0  0
  7 61  1  0  0  0  0
  8  2  2  0  0  0  0
  8 62  1  0  0  0  0
  9 63  1  0  0  0  0
  9 64  1  0  0  0  0
 10 65  1  0  0  0  0
 10 66  1  0  0  0  0
 11  9  1  0  0  0  0
 11 67  1  0  0  0  0
 11 68  1  0  0  0  0
 12 10  1  0  0  0  0
 12 69  1  0  0  0  0
 12 70  1  0  0  0  0
 13 71  1  0  0  0  0
 14 72  1  0  0  0  0
 15 73  1  0  0  0  0
 16  3  1  0  0  0  0
 17  4  1  0  0  0  0
 18  5  1  0  0  0  0
 19  6  1  0  0  0  0
 20  7  1  0  0  0  0
 20 16  1  0  0  0  0
 21  8  1  0  0  0  0
 21 18  2  0  0  0  0
 22  9  1  0  0  0  0
 22 17  2  0  0  0  0
 23 10  1  0  0  0  0
 23 19  1  0  0  0  0
 24 14  1  0  0  0  0
 24 16  2  0  0  0  0
 25 13  2  0  0  0  0
 25 17  1  0  0  0  0
 26 13  1  0  0  0  0
 26 20  2  0  0  0  0
 27 14  2  0  0  0  0
 27 21  1  0  0  0  0
 28 15  2  0  0  0  0
 28 22  1  0  0  0  0
 29 15  1  0  0  0  0
 29 23  2  0  0  0  0
 30 11  1  0  0  0  0
 31 12  1  0  0  0  0
 32 18  1  0  0  0  0
 33 19  2  0  0  0  0
 34 32  2  0  0  0  0
 34 33  1  0  0  0  0
 35 24  1  0  0  0  0
 35 26  1  0  0  0  0
 36 25  1  0  0  0  0
 36 28  1  0  0  0  0
 37 27  1  0  0  0  0
 37 32  1  0  0  0  0
 38 29  1  0  0  0  0
 38 33  1  0  0  0  0
 39 30  1  0  0  0  0
 39 74  1  0  0  0  0
 40 30  2  0  0  0  0
 41 31  1  0  0  0  0
 41 75  1  0  0  0  0
 42 31  2  0  0  0  0
 43 34  1  0  0  0  0
 43 76  1  0  0  0  0
 44 35  1  0  0  0  0
 44 36  1  0  0  0  0
 44 37  1  0  0  0  0
 44 38  1  0  0  0  0
M  END
>  <DRUGBANK_ID>
DB02920

>  <SECONDARY_ACCESSION_NUMBERS>
EXPT03285

>  <COMMON_NAME>
Zn(Ii)-(20-Oxo-Protoporphyrin Ix)

$$$$
