5CP
 OpenBabel10282417072D

 47 50  0  0  0  0  0  0  0  0999 V2000
   -0.0295    0.2019    0.0000 C   0  0  0  0  0  0  0  0  0  0  0  0
    0.7910    0.2882    0.0000 C   0  0  0  0  0  0  0  0  0  0  0  0
    1.2760   -0.3793    0.0000 C   0  0  0  0  0  0  0  0  0  0  0  0
    0.9404   -1.1329    0.0000 N   0  0  0  0  0  0  0  0  0  0  0  0
   -0.3650   -0.5517    0.0000 N   0  0  0  0  0  0  0  0  0  0  0  0
    1.8414    3.7420    0.0000 C   0  0  0  0  0  0  0  0  0  0  0  0
    2.2539    3.0276    0.0000 C   0  0  0  0  0  0  0  0  0  0  0  0
    1.4289    3.0276    0.0000 C   0  0  0  0  0  0  0  0  0  0  0  0
    0.7144    2.6151    0.0000 C   0  0  0  0  0  0  0  0  0  0  0  0
    0.6282    1.7946    0.0000 C   0  0  0  0  0  0  0  0  0  0  0  0
   -0.0393    2.9506    0.0000 N   0  0  0  0  0  0  0  0  0  0  0  0
   -0.5913    2.3375    0.0000 N   0  0  0  0  0  0  0  0  0  0  0  0
   -0.1788    1.6230    0.0000 C   0  0  0  0  0  0  0  0  0  0  0  0
   -0.5144    0.8694    0.0000 N   0  0  0  0  0  0  0  0  0  0  0  0
    2.0964   -0.2930    0.0000 N   0  0  0  0  0  0  0  0  0  0  0  0
    2.5814   -0.9605    0.0000 C   0  0  0  0  0  0  0  0  0  0  0  0
    0.1199   -1.2192    0.0000 C   0  0  0  0  0  0  0  0  0  0  0  0
   -0.2156   -1.9729    0.0000 N   0  0  0  0  0  0  0  0  0  0  0  0
   -1.0361   -2.0591    0.0000 C   0  0  0  0  0  0  0  0  0  0  0  0
   -1.3717   -2.8128    0.0000 C   0  0  0  0  0  0  0  0  0  0  0  0
   -2.1922   -2.8990    0.0000 C   0  0  0  0  0  0  0  0  0  0  0  0
   -1.5210   -1.3917    0.0000 C   0  0  0  0  0  0  0  0  0  0  0  0
   -2.3415   -1.4779    0.0000 C   0  0  0  0  0  0  0  0  0  0  0  0
   -2.6771   -2.2316    0.0000 C   0  0  0  0  0  0  0  0  0  0  0  0
   -3.4976   -2.3178    0.0000 C   0  0  0  0  0  0  0  0  0  0  0  0
   -3.8331   -3.0715    0.0000 C   0  0  0  0  0  0  0  0  0  0  0  0
   -4.1687   -3.8252    0.0000 N   0  0  0  0  0  0  0  0  0  0  0  0
    1.2107    1.2310    0.0000 H   0  0  0  0  0  0  0  0  0  0  0  0
    1.8414    4.8120    0.0000 H   0  0  0  0  0  0  0  0  0  0  0  0
    0.8079    4.0190    0.0000 H   0  0  0  0  0  0  0  0  0  0  0  0
    3.1806    2.4926    0.0000 H   0  0  0  0  0  0  0  0  0  0  0  0
    1.9770    1.9941    0.0000 H   0  0  0  0  0  0  0  0  0  0  0  0
    1.7058    1.9941    0.0000 H   0  0  0  0  0  0  0  0  0  0  0  0
    1.3952    1.1041    0.0000 H   0  0  0  0  0  0  0  0  0  0  0  0
   -0.2440    3.9136    0.0000 H   0  0  0  0  0  0  0  0  0  0  0  0
   -1.4935    0.7666    0.0000 H   0  0  0  0  0  0  0  0  0  0  0  0
    2.4968    0.6064    0.0000 H   0  0  0  0  0  0  0  0  0  0  0  0
    2.1462   -1.9380    0.0000 H   0  0  0  0  0  0  0  0  0  0  0  0
    3.6455   -0.8486    0.0000 H   0  0  0  0  0  0  0  0  0  0  0  0
    3.2104   -1.8261    0.0000 H   0  0  0  0  0  0  0  0  0  0  0  0
    0.3631   -2.7694    0.0000 H   0  0  0  0  0  0  0  0  0  0  0  0
   -0.7651   -3.6477    0.0000 H   0  0  0  0  0  0  0  0  0  0  0  0
   -2.6120   -3.8418    0.0000 H   0  0  0  0  0  0  0  0  0  0  0  0
   -1.1012   -0.4489    0.0000 H   0  0  0  0  0  0  0  0  0  0  0  0
   -2.9481   -0.6430    0.0000 H   0  0  0  0  0  0  0  0  0  0  0  0
   -4.1265   -1.4522    0.0000 H   0  0  0  0  0  0  0  0  0  0  0  0
   -4.5617   -2.4297    0.0000 H   0  0  0  0  0  0  0  0  0  0  0  0
  1  2  2  0  0  0  0
  1  5  1  0  0  0  0
  1 14  1  0  0  0  0
  2  3  1  0  0  0  0
  2 28  1  0  0  0  0
  3  4  2  0  0  0  0
  3 15  1  0  0  0  0
  4 17  1  0  0  0  0
  5 17  2  0  0  0  0
  6  7  1  0  0  0  0
  6  8  1  0  0  0  0
  6 29  1  0  0  0  0
  6 30  1  0  0  0  0
  7  8  1  0  0  0  0
  7 31  1  0  0  0  0
  7 32  1  0  0  0  0
  8  9  1  0  0  0  0
  8 33  1  0  0  0  0
  9 10  2  0  0  0  0
  9 11  1  0  0  0  0
 10 13  1  0  0  0  0
 10 34  1  0  0  0  0
 11 12  1  0  0  0  0
 11 35  1  0  0  0  0
 12 13  2  0  0  0  0
 13 14  1  0  0  0  0
 14 36  1  0  0  0  0
 15 16  1  0  0  0  0
 15 37  1  0  0  0  0
 16 38  1  0  0  0  0
 16 39  1  0  0  0  0
 16 40  1  0  0  0  0
 17 18  1  0  0  0  0
 18 19  1  0  0  0  0
 18 41  1  0  0  0  0
 19 20  2  0  0  0  0
 19 22  1  0  0  0  0
 20 21  1  0  0  0  0
 20 42  1  0  0  0  0
 21 24  2  0  0  0  0
 21 43  1  0  0  0  0
 22 23  2  0  0  0  0
 22 44  1  0  0  0  0
 23 24  1  0  0  0  0
 23 45  1  0  0  0  0
 24 25  1  0  0  0  0
 25 26  1  0  0  0  0
 25 46  1  0  0  0  0
 25 47  1  0  0  0  0
 26 27  3  0  0  0  0
M  END
>  <DRUGBANK_ID>
DB07168

>  <COMMON_NAME>
[4-({4-[(5-cyclopropyl-1H-pyrazol-3-yl)amino]-6-(methylamino)pyrimidin-2-yl}amino)phenyl]acetonitrile

$$$$
