
 OpenBabel10282417072D

 64 68  0  0  1  0  0  0  0  0999 V2000
    7.8592    4.5375    0.0000 C   0  0  0  0  0  0  0  0  0  0  0  0
    7.8592    3.7125    0.0000 C   0  0  0  0  0  0  0  0  0  0  0  0
    7.1447    3.3000    0.0000 N   0  0  0  0  0  0  0  0  0  0  0  0
    6.4302    3.7125    0.0000 C   0  0  0  0  0  0  0  0  0  0  0  0
    7.1447    2.4750    0.0000 C   0  0  0  0  0  0  0  0  0  0  0  0
    7.8592    2.0625    0.0000 O   0  0  0  0  0  0  0  0  0  0  0  0
    6.4302    2.0625    0.0000 C   0  0  0  0  0  0  0  0  0  0  0  0
    6.4302    1.2375    0.0000 C   0  0  0  0  0  0  0  0  0  0  0  0
    5.7158    0.8250    0.0000 C   0  0  0  0  0  0  0  0  0  0  0  0
    5.0013    1.2375    0.0000 C   0  0  0  0  0  0  0  0  0  0  0  0
    5.0013    2.0625    0.0000 C   0  0  0  0  0  0  0  0  0  0  0  0
    5.7158    2.4750    0.0000 C   0  0  0  0  0  0  0  0  0  0  0  0
    5.7158    3.3000    0.0000 F   0  0  0  0  0  0  0  0  0  0  0  0
    4.2868    0.8250    0.0000 C   0  0  0  0  0  0  0  0  0  0  0  0
    3.5724    1.2375    0.0000 N   0  0  0  0  0  0  0  0  0  0  0  0
    2.8579    0.8250    0.0000 C   0  0  0  0  0  0  0  0  0  0  0  0
    2.8579    0.0000    0.0000 C   0  0  0  0  0  0  0  0  0  0  0  0
    3.5724   -0.4125    0.0000 C   0  0  0  0  0  0  0  0  0  0  0  0
    4.2868   -0.0000    0.0000 C   0  0  0  0  0  0  0  0  0  0  0  0
    2.1434   -0.4125    0.0000 C   0  0  2  0  0  0  0  0  0  0  0  0
    1.4289   -0.0000    0.0000 C   0  0  0  0  0  0  0  0  0  0  0  0
    0.7145   -0.4125    0.0000 C   0  0  0  0  0  0  0  0  0  0  0  0
   -0.0000    0.0000    0.0000 C   0  0  0  0  0  0  0  0  0  0  0  0
    0.0000    0.8250    0.0000 C   0  0  0  0  0  0  0  0  0  0  0  0
    0.7145    1.2375    0.0000 C   0  0  0  0  0  0  0  0  0  0  0  0
    1.4289    0.8250    0.0000 C   0  0  0  0  0  0  0  0  0  0  0  0
    2.1434    1.2375    0.0000 O   0  0  0  0  0  0  0  0  0  0  0  0
    2.1434   -1.2375    0.0000 C   0  0  0  0  0  0  0  0  0  0  0  0
    1.3184   -1.2375    0.0000 C   0  0  0  0  0  0  0  0  0  0  0  0
    2.9684   -1.2375    0.0000 C   0  0  0  0  0  0  0  0  0  0  0  0
    2.1434   -2.0625    0.0000 C   0  0  0  0  0  0  0  0  0  0  0  0
    2.8579   -2.4750    0.0000 O   0  0  0  0  0  0  0  0  0  0  0  0
    1.4289   -2.4750    0.0000 N   0  0  0  0  0  0  0  0  0  0  0  0
    0.7145   -2.0625    0.0000 C   0  0  0  0  0  0  0  0  0  0  0  0
   -0.0392   -2.3981    0.0000 N   0  0  0  0  0  0  0  0  0  0  0  0
   -0.5912   -1.7850    0.0000 N   0  0  0  0  0  0  0  0  0  0  0  0
   -0.1787   -1.0705    0.0000 C   0  0  0  0  0  0  0  0  0  0  0  0
    0.6282   -1.2420    0.0000 S   0  0  0  0  0  0  0  0  0  0  0  0
    8.7858    5.0725    0.0000 H   0  0  0  0  0  0  0  0  0  0  0  0
    6.9326    5.0725    0.0000 H   0  0  0  0  0  0  0  0  0  0  0  0
    7.8592    5.6075    0.0000 H   0  0  0  0  0  0  0  0  0  0  0  0
    8.7858    3.1775    0.0000 H   0  0  0  0  0  0  0  0  0  0  0  0
    7.8592    2.6425    0.0000 H   0  0  0  0  0  0  0  0  0  0  0  0
    6.4302    4.7825    0.0000 H   0  0  0  0  0  0  0  0  0  0  0  0
    5.5036    3.1775    0.0000 H   0  0  0  0  0  0  0  0  0  0  0  0
    5.5035    4.2475    0.0000 H   0  0  0  0  0  0  0  0  0  0  0  0
    7.3239    0.7215    0.0000 H   0  0  0  0  0  0  0  0  0  0  0  0
    5.7158   -0.2070    0.0000 H   0  0  0  0  0  0  0  0  0  0  0  0
    4.1076    2.5785    0.0000 H   0  0  0  0  0  0  0  0  0  0  0  0
    3.5724   -1.4445    0.0000 H   0  0  0  0  0  0  0  0  0  0  0  0
    5.1805   -0.5160    0.0000 H   0  0  0  0  0  0  0  0  0  0  0  0
    3.0700   -0.9475    0.0000 H   0  0  0  0  0  0  0  0  0  0  0  0
    0.7145   -1.4445    0.0000 H   0  0  0  0  0  0  0  0  0  0  0  0
   -0.8937   -0.5160    0.0000 H   0  0  0  0  0  0  0  0  0  0  0  0
   -0.8937    1.3410    0.0000 H   0  0  0  0  0  0  0  0  0  0  0  0
    0.7145    2.2695    0.0000 H   0  0  0  0  0  0  0  0  0  0  0  0
    0.7834   -0.3109    0.0000 H   0  0  0  0  0  0  0  0  0  0  0  0
    0.7834   -2.1641    0.0000 H   0  0  0  0  0  0  0  0  0  0  0  0
    0.2484   -1.2375    0.0000 H   0  0  0  0  0  0  0  0  0  0  0  0
    3.5034   -2.1641    0.0000 H   0  0  0  0  0  0  0  0  0  0  0  0
    3.5034   -0.3109    0.0000 H   0  0  0  0  0  0  0  0  0  0  0  0
    4.0384   -1.2375    0.0000 H   0  0  0  0  0  0  0  0  0  0  0  0
    1.4289   -3.4595    0.0000 H   0  0  0  0  0  0  0  0  0  0  0  0
   -0.5985   -0.1277    0.0000 H   0  0  0  0  0  0  0  0  0  0  0  0
  1  2  1  0  0  0  0
  1 39  1  0  0  0  0
  1 40  1  0  0  0  0
  1 41  1  0  0  0  0
  2  3  1  0  0  0  0
  2 42  1  0  0  0  0
  2 43  1  0  0  0  0
  3  4  1  0  0  0  0
  3  5  1  0  0  0  0
  4 44  1  0  0  0  0
  4 45  1  0  0  0  0
  4 46  1  0  0  0  0
  5  6  2  0  0  0  0
  5  7  1  0  0  0  0
  7  8  2  0  0  0  0
  7 12  1  0  0  0  0
  8  9  1  0  0  0  0
  8 47  1  0  0  0  0
  9 10  2  0  0  0  0
  9 48  1  0  0  0  0
 10 11  1  0  0  0  0
 10 14  1  0  0  0  0
 11 12  2  0  0  0  0
 11 49  1  0  0  0  0
 12 13  1  0  0  0  0
 14 15  2  0  0  0  0
 14 19  1  0  0  0  0
 15 16  1  0  0  0  0
 16 17  2  0  0  0  0
 16 27  1  0  0  0  0
 17 18  1  0  0  0  0
 18 19  2  0  0  0  0
 18 50  1  0  0  0  0
 19 51  1  0  0  0  0
 20 17  1  0  0  0  0
 20 21  1  0  0  0  0
 20 28  1  0  0  0  0
 20 52  1  6  0  0  0
 21 22  2  0  0  0  0
 21 26  1  0  0  0  0
 22 23  1  0  0  0  0
 22 53  1  0  0  0  0
 23 24  2  0  0  0  0
 23 54  1  0  0  0  0
 24 25  1  0  0  0  0
 24 55  1  0  0  0  0
 25 26  2  0  0  0  0
 25 56  1  0  0  0  0
 26 27  1  0  0  0  0
 28 29  1  0  0  0  0
 28 30  1  0  0  0  0
 28 31  1  0  0  0  0
 29 57  1  0  0  0  0
 29 58  1  0  0  0  0
 29 59  1  0  0  0  0
 30 60  1  0  0  0  0
 30 61  1  0  0  0  0
 30 62  1  0  0  0  0
 31 32  2  0  0  0  0
 31 33  1  0  0  0  0
 33 34  1  0  0  0  0
 33 63  1  0  0  0  0
 34 35  2  0  0  0  0
 34 38  1  0  0  0  0
 35 36  1  0  0  0  0
 36 37  2  0  0  0  0
 37 38  1  0  0  0  0
 37 64  1  0  0  0  0
M  END
>  <DRUGBANK_ID>
DB15023

>  <COMMON_NAME>
BMS-791826

>  <CAS_NUMBER>
1008116-73-1

>  <UNII>
60BN6CDL0K

$$$$
