
 OpenBabel10282417072D

 61 64  0  0  0  0  0  0  0  0999 V2000
   -1.4039    1.0107    0.0000 N   0  0  0  0  0  0  0  0  0  0  0  0
   -0.7043    1.4254    0.0000 C   0  0  0  0  0  0  0  0  0  0  0  0
   -1.4039    2.6702    0.0000 S   0  0  0  0  0  0  0  0  0  0  0  0
   -0.7043    2.2504    0.0000 C   0  0  0  0  0  0  0  0  0  0  0  0
   -2.1178    1.4254    0.0000 C   0  0  0  0  0  0  0  0  0  0  0  0
   -2.1178    2.2504    0.0000 C   0  0  0  0  0  0  0  0  0  0  0  0
   -0.0048    1.0107    0.0000 C   0  0  0  0  0  0  0  0  0  0  0  0
    0.7187    1.4254    0.0000 C   0  0  0  0  0  0  0  0  0  0  0  0
   -0.0048   -1.4352    0.0000 N   0  0  0  0  0  0  0  0  0  0  0  0
    1.4135   -2.2505    0.0000 N   0  0  0  0  0  0  0  0  0  0  0  0
    1.4135    1.0107    0.0000 C   0  0  0  0  0  0  0  0  0  0  0  0
   -0.0048    2.6702    0.0000 C   0  0  0  0  0  0  0  0  0  0  0  0
    0.7187    2.2504    0.0000 C   0  0  0  0  0  0  0  0  0  0  0  0
    1.4135    0.1857    0.0000 O   0  0  0  0  0  0  0  0  0  0  0  0
   -1.4039    0.1857    0.0000 C   0  0  0  0  0  0  0  0  0  0  0  0
    1.4135   -1.4352    0.0000 C   0  0  0  0  0  0  0  0  0  0  0  0
   -0.0048   -2.2505    0.0000 C   0  0  0  0  0  0  0  0  0  0  0  0
    0.7187   -1.0203    0.0000 C   0  0  0  0  0  0  0  0  0  0  0  0
    0.7187   -2.6702    0.0000 C   0  0  0  0  0  0  0  0  0  0  0  0
   -0.7043   -0.2099    0.0000 C   0  0  0  0  0  0  0  0  0  0  0  0
   -0.7043   -1.0203    0.0000 C   0  0  0  0  0  0  0  0  0  0  0  0
   -2.8414    1.0107    0.0000 C   0  0  0  0  0  0  0  0  0  0  0  0
    2.1371   -2.6702    0.0000 C   0  0  0  0  0  0  0  0  0  0  0  0
   -2.8414    2.6702    0.0000 C   0  0  0  0  0  0  0  0  0  0  0  0
    3.5554   -2.6702    0.0000 O   0  0  0  0  0  0  0  0  0  0  0  0
    2.1371    1.4254    0.0000 C   0  0  0  0  0  0  0  0  0  0  0  0
    2.8463   -2.2505    0.0000 C   0  0  0  0  0  0  0  0  0  0  0  0
    2.8463    1.0107    0.0000 C   0  0  0  0  0  0  0  0  0  0  0  0
   -3.5554    1.4254    0.0000 C   0  0  0  0  0  0  0  0  0  0  0  0
   -3.5554    2.2504    0.0000 C   0  0  0  0  0  0  0  0  0  0  0  0
   -0.0124   -0.0213    0.0000 H   0  0  0  0  0  0  0  0  0  0  0  0
   -0.0124    3.7022    0.0000 H   0  0  0  0  0  0  0  0  0  0  0  0
    1.6130    2.7654    0.0000 H   0  0  0  0  0  0  0  0  0  0  0  0
   -2.3281   -0.3534    0.0000 H   0  0  0  0  0  0  0  0  0  0  0  0
   -1.3967   -0.8843    0.0000 H   0  0  0  0  0  0  0  0  0  0  0  0
    2.3441   -0.9070    0.0000 H   0  0  0  0  0  0  0  0  0  0  0  0
    2.3382   -1.9736    0.0000 H   0  0  0  0  0  0  0  0  0  0  0  0
   -0.9320   -2.7845    0.0000 H   0  0  0  0  0  0  0  0  0  0  0  0
   -0.0065   -3.3205    0.0000 H   0  0  0  0  0  0  0  0  0  0  0  0
    0.7281    0.0497    0.0000 H   0  0  0  0  0  0  0  0  0  0  0  0
   -0.2048   -0.4799    0.0000 H   0  0  0  0  0  0  0  0  0  0  0  0
    0.7282   -3.7402    0.0000 H   0  0  0  0  0  0  0  0  0  0  0  0
   -0.2061   -3.2084    0.0000 H   0  0  0  0  0  0  0  0  0  0  0  0
    0.2199    0.3292    0.0000 H   0  0  0  0  0  0  0  0  0  0  0  0
    0.2235   -0.7428    0.0000 H   0  0  0  0  0  0  0  0  0  0  0  0
   -1.6341   -1.5498    0.0000 H   0  0  0  0  0  0  0  0  0  0  0  0
   -1.6294   -0.4826    0.0000 H   0  0  0  0  0  0  0  0  0  0  0  0
   -2.8444   -0.0213    0.0000 H   0  0  0  0  0  0  0  0  0  0  0  0
    2.1418   -3.7402    0.0000 H   0  0  0  0  0  0  0  0  0  0  0  0
    3.0678   -3.1982    0.0000 H   0  0  0  0  0  0  0  0  0  0  0  0
   -2.8444    3.7022    0.0000 H   0  0  0  0  0  0  0  0  0  0  0  0
    3.5449   -3.6401    0.0000 H   0  0  0  0  0  0  0  0  0  0  0  0
    2.1418    2.4954    0.0000 H   0  0  0  0  0  0  0  0  0  0  0  0
    3.0664    1.9558    0.0000 H   0  0  0  0  0  0  0  0  0  0  0  0
    2.8463   -1.1805    0.0000 H   0  0  0  0  0  0  0  0  0  0  0  0
    1.9168   -1.7205    0.0000 H   0  0  0  0  0  0  0  0  0  0  0  0
    2.8404   -0.0593    0.0000 H   0  0  0  0  0  0  0  0  0  0  0  0
    3.7759    1.5406    0.0000 H   0  0  0  0  0  0  0  0  0  0  0  0
    3.7700    0.4706    0.0000 H   0  0  0  0  0  0  0  0  0  0  0  0
   -4.4498    0.9106    0.0000 H   0  0  0  0  0  0  0  0  0  0  0  0
   -4.4512    2.7629    0.0000 H   0  0  0  0  0  0  0  0  0  0  0  0
  2  1  1  0  0  0  0
  3  6  1  0  0  0  0
  4  2  1  0  0  0  0
  4  3  1  0  0  0  0
  5  1  1  0  0  0  0
  6  5  2  0  0  0  0
  7  2  2  0  0  0  0
  7 31  1  0  0  0  0
  8  7  1  0  0  0  0
  9 21  1  0  0  0  0
 10 19  1  0  0  0  0
 11  8  1  0  0  0  0
 12  4  2  0  0  0  0
 12 13  1  0  0  0  0
 12 32  1  0  0  0  0
 13  8  2  0  0  0  0
 13 33  1  0  0  0  0
 14 11  2  0  0  0  0
 15  1  1  0  0  0  0
 15 34  1  0  0  0  0
 15 35  1  0  0  0  0
 16 18  1  0  0  0  0
 16 10  1  0  0  0  0
 16 36  1  0  0  0  0
 16 37  1  0  0  0  0
 17  9  1  0  0  0  0
 17 38  1  0  0  0  0
 17 39  1  0  0  0  0
 18  9  1  0  0  0  0
 18 40  1  0  0  0  0
 18 41  1  0  0  0  0
 19 17  1  0  0  0  0
 19 42  1  0  0  0  0
 19 43  1  0  0  0  0
 20 15  1  0  0  0  0
 20 44  1  0  0  0  0
 20 45  1  0  0  0  0
 21 20  1  0  0  0  0
 21 46  1  0  0  0  0
 21 47  1  0  0  0  0
 22  5  1  0  0  0  0
 22 48  1  0  0  0  0
 23 10  1  0  0  0  0
 23 49  1  0  0  0  0
 23 50  1  0  0  0  0
 24  6  1  0  0  0  0
 24 51  1  0  0  0  0
 25 27  1  0  0  0  0
 25 52  1  0  0  0  0
 26 11  1  0  0  0  0
 26 53  1  0  0  0  0
 26 54  1  0  0  0  0
 27 23  1  0  0  0  0
 27 55  1  0  0  0  0
 27 56  1  0  0  0  0
 28 26  1  0  0  0  0
 28 57  1  0  0  0  0
 28 58  1  0  0  0  0
 28 59  1  0  0  0  0
 29 22  2  0  0  0  0
 29 30  1  0  0  0  0
 29 60  1  0  0  0  0
 30 24  2  0  0  0  0
 30 61  1  0  0  0  0
M  END
>  <DRUGBANK_ID>
DB01038

>  <SECONDARY_ACCESSION_NUMBERS>
APRD00848

>  <COMMON_NAME>
Carphenazine

>  <CAS_NUMBER>
2622-30-2

>  <UNII>
CLY16Y8Z7E

>  <SYNONYMS>
Carfenazina; CarfÃ©nazine; Carfenazine; Carfenazinum; Carphenazine

$$$$
