
 OpenBabel10282417072D

 99 97  0  0  0  0  0  0  0  0999 V2000
   11.1603    1.5700    0.0000 O   0  5  0  0  0  0  0  0  0  0  0  0
   10.4458    0.3325    0.0000 O   0  0  0  0  0  0  0  0  0  0  0  0
    0.7850    4.7099    0.0000 O   0  5  0  0  0  0  0  0  0  0  0  0
    9.0168    1.1575    0.0000 N   0  3  0  0  0  0  0  0  0  0  0  0
    1.4995    5.1225    0.0000 N   0  3  0  0  0  0  0  0  0  0  0  0
    8.3023    0.7450    0.0000 C   0  0  0  0  0  0  0  0  0  0  0  0
    7.5879    1.1575    0.0000 C   0  0  0  0  0  0  0  0  0  0  0  0
    6.8734    0.7450    0.0000 C   0  0  0  0  0  0  0  0  0  0  0  0
    9.7313    1.5700    0.0000 C   0  0  0  0  0  0  0  0  0  0  0  0
    6.1588    1.1575    0.0000 C   0  0  0  0  0  0  0  0  0  0  0  0
    8.6043    1.8720    0.0000 C   0  0  0  0  0  0  0  0  0  0  0  0
    9.4293    0.4430    0.0000 C   0  0  0  0  0  0  0  0  0  0  0  0
    5.4444    0.7450    0.0000 C   0  0  0  0  0  0  0  0  0  0  0  0
    4.7299    1.1575    0.0000 C   0  0  0  0  0  0  0  0  0  0  0  0
    4.0154    0.7450    0.0000 C   0  0  0  0  0  0  0  0  0  0  0  0
    3.3009    1.1575    0.0000 C   0  0  0  0  0  0  0  0  0  0  0  0
    4.3574    5.1225    0.0000 C   0  0  0  0  0  0  0  0  0  0  0  0
    3.6430    5.5350    0.0000 C   0  0  0  0  0  0  0  0  0  0  0  0
    5.0719    5.5350    0.0000 C   0  0  0  0  0  0  0  0  0  0  0  0
   10.4458    1.1575    0.0000 C   0  0  0  0  0  0  0  0  0  0  0  0
    2.9285    5.1225    0.0000 C   0  0  0  0  0  0  0  0  0  0  0  0
    5.7864    5.1225    0.0000 C   0  0  0  0  0  0  0  0  0  0  0  0
    2.2139    5.5350    0.0000 C   0  0  0  0  0  0  0  0  0  0  0  0
    6.5009    5.5350    0.0000 C   0  0  0  0  0  0  0  0  0  0  0  0
    2.5864    0.7450    0.0000 C   0  0  0  0  0  0  0  0  0  0  0  0
    7.2154    5.1225    0.0000 C   0  0  0  0  0  0  0  0  0  0  0  0
    7.9298    5.5350    0.0000 C   0  0  0  0  0  0  0  0  0  0  0  0
    1.8720    1.1575    0.0000 C   0  0  0  0  0  0  0  0  0  0  0  0
    8.6444    5.1225    0.0000 C   0  0  0  0  0  0  0  0  0  0  0  0
    1.9120    4.4080    0.0000 C   0  0  0  0  0  0  0  0  0  0  0  0
    1.0870    5.8369    0.0000 C   0  0  0  0  0  0  0  0  0  0  0  0
    1.1575    0.7450    0.0000 C   0  0  0  0  0  0  0  0  0  0  0  0
    9.3588    5.5350    0.0000 C   0  0  0  0  0  0  0  0  0  0  0  0
    0.4430    1.1575    0.0000 C   0  0  0  0  0  0  0  0  0  0  0  0
   10.0733    5.1225    0.0000 C   0  0  0  0  0  0  0  0  0  0  0  0
    8.3023   -0.3250    0.0000 H   0  0  0  0  0  0  0  0  0  0  0  0
    7.3756    0.2100    0.0000 H   0  0  0  0  0  0  0  0  0  0  0  0
    7.5879    2.2275    0.0000 H   0  0  0  0  0  0  0  0  0  0  0  0
    6.6613    1.6925    0.0000 H   0  0  0  0  0  0  0  0  0  0  0  0
    6.8734   -0.3250    0.0000 H   0  0  0  0  0  0  0  0  0  0  0  0
    5.9468    0.2099    0.0000 H   0  0  0  0  0  0  0  0  0  0  0  0
    9.7313    2.6400    0.0000 H   0  0  0  0  0  0  0  0  0  0  0  0
   10.6579    2.1050    0.0000 H   0  0  0  0  0  0  0  0  0  0  0  0
    6.1587    2.2275    0.0000 H   0  0  0  0  0  0  0  0  0  0  0  0
    5.2321    1.6925    0.0000 H   0  0  0  0  0  0  0  0  0  0  0  0
    9.1393    2.7986    0.0000 H   0  0  0  0  0  0  0  0  0  0  0  0
    7.5343    1.8720    0.0000 H   0  0  0  0  0  0  0  0  0  0  0  0
    8.0693    2.7987    0.0000 H   0  0  0  0  0  0  0  0  0  0  0  0
    8.8943   -0.4836    0.0000 H   0  0  0  0  0  0  0  0  0  0  0  0
   10.4993    0.4430    0.0000 H   0  0  0  0  0  0  0  0  0  0  0  0
    9.9643   -0.4837    0.0000 H   0  0  0  0  0  0  0  0  0  0  0  0
    5.4444   -0.3250    0.0000 H   0  0  0  0  0  0  0  0  0  0  0  0
    4.5178    0.2100    0.0000 H   0  0  0  0  0  0  0  0  0  0  0  0
    4.7299    2.2275    0.0000 H   0  0  0  0  0  0  0  0  0  0  0  0
    3.8033    1.6925    0.0000 H   0  0  0  0  0  0  0  0  0  0  0  0
    4.0154   -0.3250    0.0000 H   0  0  0  0  0  0  0  0  0  0  0  0
    3.0888    0.2100    0.0000 H   0  0  0  0  0  0  0  0  0  0  0  0
    3.3009    2.2275    0.0000 H   0  0  0  0  0  0  0  0  0  0  0  0
    2.3743    1.6925    0.0000 H   0  0  0  0  0  0  0  0  0  0  0  0
    4.3574    4.0525    0.0000 H   0  0  0  0  0  0  0  0  0  0  0  0
    5.2840    4.5875    0.0000 H   0  0  0  0  0  0  0  0  0  0  0  0
    3.6430    6.6050    0.0000 H   0  0  0  0  0  0  0  0  0  0  0  0
    2.7164    6.0700    0.0000 H   0  0  0  0  0  0  0  0  0  0  0  0
    5.0719    6.6050    0.0000 H   0  0  0  0  0  0  0  0  0  0  0  0
    5.9985    6.0700    0.0000 H   0  0  0  0  0  0  0  0  0  0  0  0
    2.9285    4.0525    0.0000 H   0  0  0  0  0  0  0  0  0  0  0  0
    2.0019    4.5874    0.0000 H   0  0  0  0  0  0  0  0  0  0  0  0
    5.7864    4.0525    0.0000 H   0  0  0  0  0  0  0  0  0  0  0  0
    6.7130    4.5875    0.0000 H   0  0  0  0  0  0  0  0  0  0  0  0
    2.2138    6.6050    0.0000 H   0  0  0  0  0  0  0  0  0  0  0  0
    3.1405    6.0701    0.0000 H   0  0  0  0  0  0  0  0  0  0  0  0
    6.5009    6.6050    0.0000 H   0  0  0  0  0  0  0  0  0  0  0  0
    7.4275    6.0700    0.0000 H   0  0  0  0  0  0  0  0  0  0  0  0
    2.5864   -0.3250    0.0000 H   0  0  0  0  0  0  0  0  0  0  0  0
    1.6597    0.2100    0.0000 H   0  0  0  0  0  0  0  0  0  0  0  0
    7.2154    4.0525    0.0000 H   0  0  0  0  0  0  0  0  0  0  0  0
    8.1421    4.5875    0.0000 H   0  0  0  0  0  0  0  0  0  0  0  0
    7.9297    6.6050    0.0000 H   0  0  0  0  0  0  0  0  0  0  0  0
    8.8564    6.0701    0.0000 H   0  0  0  0  0  0  0  0  0  0  0  0
    1.8720    2.2275    0.0000 H   0  0  0  0  0  0  0  0  0  0  0  0
    0.9454    1.6925    0.0000 H   0  0  0  0  0  0  0  0  0  0  0  0
    8.6445    4.0525    0.0000 H   0  0  0  0  0  0  0  0  0  0  0  0
    9.5711    4.5875    0.0000 H   0  0  0  0  0  0  0  0  0  0  0  0
    1.3770    3.4814    0.0000 H   0  0  0  0  0  0  0  0  0  0  0  0
    2.9820    4.4080    0.0000 H   0  0  0  0  0  0  0  0  0  0  0  0
    2.4470    3.4813    0.0000 H   0  0  0  0  0  0  0  0  0  0  0  0
    1.6220    6.7636    0.0000 H   0  0  0  0  0  0  0  0  0  0  0  0
    0.0170    5.8369    0.0000 H   0  0  0  0  0  0  0  0  0  0  0  0
    0.5520    6.7635    0.0000 H   0  0  0  0  0  0  0  0  0  0  0  0
    1.1575   -0.3250    0.0000 H   0  0  0  0  0  0  0  0  0  0  0  0
    0.2309    0.2100    0.0000 H   0  0  0  0  0  0  0  0  0  0  0  0
    9.3588    6.6050    0.0000 H   0  0  0  0  0  0  0  0  0  0  0  0
   10.2854    6.0700    0.0000 H   0  0  0  0  0  0  0  0  0  0  0  0
    0.4430    2.2275    0.0000 H   0  0  0  0  0  0  0  0  0  0  0  0
   -0.4836    0.6225    0.0000 H   0  0  0  0  0  0  0  0  0  0  0  0
   -0.4837    1.6925    0.0000 H   0  0  0  0  0  0  0  0  0  0  0  0
   10.0733    4.0525    0.0000 H   0  0  0  0  0  0  0  0  0  0  0  0
   10.9999    5.6575    0.0000 H   0  0  0  0  0  0  0  0  0  0  0  0
   11.0000    4.5875    0.0000 H   0  0  0  0  0  0  0  0  0  0  0  0
  1 20  1  0  0  0  0
  2 20  2  0  0  0  0
  3  5  1  0  0  0  0
  4  6  1  0  0  0  0
  4  9  1  0  0  0  0
  4 11  1  0  0  0  0
  4 12  1  0  0  0  0
  5 23  1  0  0  0  0
  5 30  1  0  0  0  0
  5 31  1  0  0  0  0
  6  7  1  0  0  0  0
  6 36  1  0  0  0  0
  6 37  1  0  0  0  0
  7  8  1  0  0  0  0
  7 38  1  0  0  0  0
  7 39  1  0  0  0  0
  8 10  1  0  0  0  0
  8 40  1  0  0  0  0
  8 41  1  0  0  0  0
  9 20  1  0  0  0  0
  9 42  1  0  0  0  0
  9 43  1  0  0  0  0
 10 13  1  0  0  0  0
 10 44  1  0  0  0  0
 10 45  1  0  0  0  0
 11 46  1  0  0  0  0
 11 47  1  0  0  0  0
 11 48  1  0  0  0  0
 12 49  1  0  0  0  0
 12 50  1  0  0  0  0
 12 51  1  0  0  0  0
 13 14  1  0  0  0  0
 13 52  1  0  0  0  0
 13 53  1  0  0  0  0
 14 15  1  0  0  0  0
 14 54  1  0  0  0  0
 14 55  1  0  0  0  0
 15 16  1  0  0  0  0
 15 56  1  0  0  0  0
 15 57  1  0  0  0  0
 16 25  1  0  0  0  0
 16 58  1  0  0  0  0
 16 59  1  0  0  0  0
 17 18  1  0  0  0  0
 17 19  1  0  0  0  0
 17 60  1  0  0  0  0
 17 61  1  0  0  0  0
 18 21  1  0  0  0  0
 18 62  1  0  0  0  0
 18 63  1  0  0  0  0
 19 22  1  0  0  0  0
 19 64  1  0  0  0  0
 19 65  1  0  0  0  0
 21 23  1  0  0  0  0
 21 66  1  0  0  0  0
 21 67  1  0  0  0  0
 22 24  1  0  0  0  0
 22 68  1  0  0  0  0
 22 69  1  0  0  0  0
 23 70  1  0  0  0  0
 23 71  1  0  0  0  0
 24 26  1  0  0  0  0
 24 72  1  0  0  0  0
 24 73  1  0  0  0  0
 25 28  1  0  0  0  0
 25 74  1  0  0  0  0
 25 75  1  0  0  0  0
 26 27  1  0  0  0  0
 26 76  1  0  0  0  0
 26 77  1  0  0  0  0
 27 29  1  0  0  0  0
 27 78  1  0  0  0  0
 27 79  1  0  0  0  0
 28 32  1  0  0  0  0
 28 80  1  0  0  0  0
 28 81  1  0  0  0  0
 29 33  1  0  0  0  0
 29 82  1  0  0  0  0
 29 83  1  0  0  0  0
 30 84  1  0  0  0  0
 30 85  1  0  0  0  0
 30 86  1  0  0  0  0
 31 87  1  0  0  0  0
 31 88  1  0  0  0  0
 31 89  1  0  0  0  0
 32 34  1  0  0  0  0
 32 90  1  0  0  0  0
 32 91  1  0  0  0  0
 33 35  1  0  0  0  0
 33 92  1  0  0  0  0
 33 93  1  0  0  0  0
 34 94  1  0  0  0  0
 34 95  1  0  0  0  0
 34 96  1  0  0  0  0
 35 97  1  0  0  0  0
 35 98  1  0  0  0  0
 35 99  1  0  0  0  0
M  CHG  4   1  -1   3  -1   4   1   5   1
M  END
>  <DRUGBANK_ID>
DB05398

>  <COMMON_NAME>
C31G

$$$$
