
 OpenBabel10282417072D

 37 40  0  0  1  0  0  0  0  0999 V2000
    2.3566    1.1144    0.0000 C   0  0  0  0  0  0  0  0  0  0  0  0
    1.6421    0.7019    0.0000 C   0  0  0  0  0  0  0  0  0  0  0  0
    1.7115   -0.0212    0.0000 C   0  0  0  0  0  0  0  0  0  0  0  0
    2.3566   -0.5356    0.0000 C   0  0  0  0  0  0  0  0  0  0  0  0
    3.0710   -0.1231    0.0000 C   0  0  0  0  0  0  0  0  0  0  0  0
    3.0710    0.7019    0.0000 C   0  0  0  0  0  0  0  0  0  0  0  0
    3.7855   -0.5356    0.0000 C   0  0  1  0  0  0  0  0  0  0  0  0
    4.5701   -0.2806    0.0000 C   0  0  0  0  0  0  0  0  0  0  0  0
    5.0550   -0.9481    0.0000 C   0  0  0  0  0  0  0  0  0  0  0  0
    4.5701   -1.6155    0.0000 C   0  0  0  0  0  0  0  0  0  0  0  0
    3.7855   -1.3606    0.0000 C   0  0  1  0  0  0  0  0  0  0  0  0
    3.0710   -1.7731    0.0000 C   0  0  0  0  0  0  0  0  0  0  0  0
    2.3566   -1.3606    0.0000 N   0  0  0  0  0  0  0  0  0  0  0  0
    1.7115   -1.8749    0.0000 C   0  0  0  0  0  0  0  0  0  0  0  0
    0.9072   -1.6914    0.0000 C   0  0  0  0  0  0  0  0  0  0  0  0
    0.5493   -0.9481    0.0000 N   0  0  0  0  0  0  0  0  0  0  0  0
    0.9072   -0.2048    0.0000 C   0  0  0  0  0  0  0  0  0  0  0  0
    2.3566    2.1464    0.0000 H   0  0  0  0  0  0  0  0  0  0  0  0
    0.7247    1.1746    0.0000 H   0  0  0  0  0  0  0  0  0  0  0  0
    3.9647    1.2179    0.0000 H   0  0  0  0  0  0  0  0  0  0  0  0
    3.8973    0.5285    0.0000 H   0  0  0  0  0  0  0  0  0  0  0  0
    4.9007    0.7370    0.0000 H   0  0  0  0  0  0  0  0  0  0  0  0
    5.6269   -0.1132    0.0000 H   0  0  0  0  0  0  0  0  0  0  0  0
    6.1250   -0.9481    0.0000 H   0  0  0  0  0  0  0  0  0  0  0  0
    5.5408   -1.9015    0.0000 H   0  0  0  0  0  0  0  0  0  0  0  0
    4.9008   -2.6331    0.0000 H   0  0  0  0  0  0  0  0  0  0  0  0
    3.8135   -2.3721    0.0000 H   0  0  0  0  0  0  0  0  0  0  0  0
    4.6511   -0.7317    0.0000 H   0  0  0  0  0  0  0  0  0  0  0  0
    3.0710   -2.8431    0.0000 H   0  0  0  0  0  0  0  0  0  0  0  0
    2.1443   -2.3081    0.0000 H   0  0  0  0  0  0  0  0  0  0  0  0
    1.9496   -2.9181    0.0000 H   0  0  0  0  0  0  0  0  0  0  0  0
    0.9549   -2.6315    0.0000 H   0  0  0  0  0  0  0  0  0  0  0  0
    0.2401   -2.5280    0.0000 H   0  0  0  0  0  0  0  0  0  0  0  0
   -0.1561   -1.5716    0.0000 H   0  0  0  0  0  0  0  0  0  0  0  0
   -0.4707   -0.9481    0.0000 H   0  0  0  0  0  0  0  0  0  0  0  0
    0.2400    0.6317    0.0000 H   0  0  0  0  0  0  0  0  0  0  0  0
    1.2606    0.8052    0.0000 H   0  0  0  0  0  0  0  0  0  0  0  0
  1  2  2  0  0  0  0
  1  6  1  0  0  0  0
  1 18  1  0  0  0  0
  2  3  1  0  0  0  0
  2 19  1  0  0  0  0
  3  4  2  0  0  0  0
  3 17  1  0  0  0  0
  4  5  1  0  0  0  0
  4 13  1  0  0  0  0
  5  6  2  0  0  0  0
  5  7  1  0  0  0  0
  6 20  1  0  0  0  0
  7  8  1  0  0  0  0
  7 11  1  0  0  0  0
  7 21  1  6  0  0  0
  8  9  1  0  0  0  0
  8 22  1  0  0  0  0
  8 23  1  0  0  0  0
  9 10  1  0  0  0  0
  9 24  1  0  0  0  0
  9 25  1  0  0  0  0
 10 26  1  0  0  0  0
 10 27  1  0  0  0  0
 11 10  1  0  0  0  0
 11 12  1  0  0  0  0
 11 28  1  6  0  0  0
 12 13  1  0  0  0  0
 12 29  1  0  0  0  0
 12 30  1  0  0  0  0
 13 14  1  0  0  0  0
 14 15  1  0  0  0  0
 14 31  1  0  0  0  0
 14 32  1  0  0  0  0
 15 16  1  0  0  0  0
 15 33  1  0  0  0  0
 15 34  1  0  0  0  0
 16 17  1  0  0  0  0
 16 35  1  0  0  0  0
 17 36  1  0  0  0  0
 17 37  1  0  0  0  0
M  END
>  <DRUGBANK_ID>
DB12071

>  <COMMON_NAME>
Vabicaserin

>  <CAS_NUMBER>
887258-95-9

>  <UNII>
WD9550HPNL

>  <SYNONYMS>
Vabicaserin

$$$$
