
 OpenBabel10282417072D

 43 46  0  0  0  0  0  0  0  0999 V2000
   -0.6346    0.3876    0.0000 N   0  0  0  0  0  0  0  0  0  0  0  0
   -1.4192    0.1327    0.0000 C   0  0  0  0  0  0  0  0  0  0  0  0
   -0.1497   -0.2797    0.0000 C   0  0  0  0  0  0  0  0  0  0  0  0
   -0.3796    1.1722    0.0000 C   0  0  0  0  0  0  0  0  0  0  0  0
   -1.4192   -0.6922    0.0000 C   0  0  0  0  0  0  0  0  0  0  0  0
   -2.1337    0.5452    0.0000 C   0  0  0  0  0  0  0  0  0  0  0  0
   -0.6346   -0.9471    0.0000 N   0  0  0  0  0  0  0  0  0  0  0  0
    0.6752   -0.2797    0.0000 C   0  0  0  0  0  0  0  0  0  0  0  0
    0.4272    1.3438    0.0000 C   0  0  0  0  0  0  0  0  0  0  0  0
   -2.1337   -1.1047    0.0000 C   0  0  0  0  0  0  0  0  0  0  0  0
   -2.8481    0.1327    0.0000 C   0  0  0  0  0  0  0  0  0  0  0  0
    1.0877   -0.9942    0.0000 N   0  0  0  0  0  0  0  0  0  0  0  0
    0.6822    2.1284    0.0000 C   0  0  0  0  0  0  0  0  0  0  0  0
    0.9792    0.7306    0.0000 C   0  0  0  0  0  0  0  0  0  0  0  0
   -2.8481   -0.6922    0.0000 C   0  0  0  0  0  0  0  0  0  0  0  0
    1.9082   -1.0804    0.0000 C   0  0  0  0  0  0  0  0  0  0  0  0
    0.7522   -1.7479    0.0000 C   0  0  0  0  0  0  0  0  0  0  0  0
    1.4892    2.2999    0.0000 C   0  0  0  0  0  0  0  0  0  0  0  0
    1.7862    0.9022    0.0000 C   0  0  0  0  0  0  0  0  0  0  0  0
    2.0797   -1.8874    0.0000 C   0  0  0  0  0  0  0  0  0  0  0  0
    1.3652   -2.2999    0.0000 C   0  0  0  0  0  0  0  0  0  0  0  0
    2.0412    1.6868    0.0000 C   0  0  0  0  0  0  0  0  0  0  0  0
    2.8481    1.8583    0.0000 Cl  0  0  0  0  0  0  0  0  0  0  0  0
   -1.0956    1.9673    0.0000 H   0  0  0  0  0  0  0  0  0  0  0  0
   -0.0490    2.1899    0.0000 H   0  0  0  0  0  0  0  0  0  0  0  0
   -2.1337    1.5772    0.0000 H   0  0  0  0  0  0  0  0  0  0  0  0
    1.2102    0.6469    0.0000 H   0  0  0  0  0  0  0  0  0  0  0  0
    1.7452   -0.2797    0.0000 H   0  0  0  0  0  0  0  0  0  0  0  0
   -2.1337   -2.1367    0.0000 H   0  0  0  0  0  0  0  0  0  0  0  0
   -3.7418    0.6487    0.0000 H   0  0  0  0  0  0  0  0  0  0  0  0
   -0.0083    2.8954    0.0000 H   0  0  0  0  0  0  0  0  0  0  0  0
    0.6603   -0.2509    0.0000 H   0  0  0  0  0  0  0  0  0  0  0  0
   -3.7418   -1.2082    0.0000 H   0  0  0  0  0  0  0  0  0  0  0  0
    2.6242   -0.2852    0.0000 H   0  0  0  0  0  0  0  0  0  0  0  0
    2.9417   -1.3574    0.0000 H   0  0  0  0  0  0  0  0  0  0  0  0
   -0.2944   -1.9704    0.0000 H   0  0  0  0  0  0  0  0  0  0  0  0
    0.4752   -2.7814    0.0000 H   0  0  0  0  0  0  0  0  0  0  0  0
    1.8081    3.2814    0.0000 H   0  0  0  0  0  0  0  0  0  0  0  0
    2.4767    0.1353    0.0000 H   0  0  0  0  0  0  0  0  0  0  0  0
    3.0572   -2.3226    0.0000 H   0  0  0  0  0  0  0  0  0  0  0  0
    2.1357   -2.9559    0.0000 H   0  0  0  0  0  0  0  0  0  0  0  0
    1.2533   -3.3640    0.0000 H   0  0  0  0  0  0  0  0  0  0  0  0
    2.2626   -2.8827    0.0000 H   0  0  0  0  0  0  0  0  0  0  0  0
  1  2  1  0  0  0  0
  1  3  1  0  0  0  0
  1  4  1  0  0  0  0
  2  5  1  0  0  0  0
  2  6  2  0  0  0  0
  3  7  2  0  0  0  0
  3  8  1  0  0  0  0
  4  9  1  0  0  0  0
  4 24  1  0  0  0  0
  4 25  1  0  0  0  0
  5 10  2  0  0  0  0
  5  7  1  0  0  0  0
  6 11  1  0  0  0  0
  6 26  1  0  0  0  0
  8 12  1  0  0  0  0
  8 27  1  0  0  0  0
  8 28  1  0  0  0  0
  9 13  2  0  0  0  0
  9 14  1  0  0  0  0
 10 15  1  0  0  0  0
 10 29  1  0  0  0  0
 11 15  2  0  0  0  0
 11 30  1  0  0  0  0
 12 16  1  0  0  0  0
 12 17  1  0  0  0  0
 13 18  1  0  0  0  0
 13 31  1  0  0  0  0
 14 19  2  0  0  0  0
 14 32  1  0  0  0  0
 15 33  1  0  0  0  0
 16 20  1  0  0  0  0
 16 34  1  0  0  0  0
 16 35  1  0  0  0  0
 17 21  1  0  0  0  0
 17 36  1  0  0  0  0
 17 37  1  0  0  0  0
 18 22  2  0  0  0  0
 18 38  1  0  0  0  0
 19 22  1  0  0  0  0
 19 39  1  0  0  0  0
 20 21  1  0  0  0  0
 20 40  1  0  0  0  0
 20 41  1  0  0  0  0
 21 42  1  0  0  0  0
 21 43  1  0  0  0  0
 22 23  1  0  0  0  0
M  END
>  <DRUGBANK_ID>
DB15932

>  <COMMON_NAME>
Clemizole

>  <CAS_NUMBER>
442-52-4

>  <UNII>
T97CB3796L

>  <SYNONYMS>
Clemizol; Clemizole; Clemizolo; Clemizolum

$$$$
