630
 OpenBabel10282417072D

 27 26  0  0  0  0  0  0  0  0999 V2000
    4.2365   -0.4851    0.0000 P   0  0  0  0  0  0  0  0  0  0  0  0
    2.8075   -1.3101    0.0000 P   0  0  0  0  0  0  0  0  0  0  0  0
    3.9345   -1.6121    0.0000 O   0  0  0  0  0  0  0  0  0  0  0  0
    4.9509   -0.0726    0.0000 O   0  0  0  0  0  0  0  0  0  0  0  0
    4.6490   -1.1996    0.0000 O   0  0  0  0  0  0  0  0  0  0  0  0
    2.0930   -1.7226    0.0000 O   0  0  0  0  0  0  0  0  0  0  0  0
    2.3950   -0.5957    0.0000 O   0  0  0  0  0  0  0  0  0  0  0  0
    4.2365    0.3399    0.0000 O   0  0  0  0  0  0  0  0  0  0  0  0
    2.8075   -2.1351    0.0000 O   0  0  0  0  0  0  0  0  0  0  0  0
    2.3950    1.8794    0.0000 N   0  0  0  0  0  0  0  0  0  0  0  0
    3.5220   -0.8976    0.0000 C   0  0  0  0  0  0  0  0  0  0  0  0
    3.1095   -0.1832    0.0000 C   0  0  0  0  0  0  0  0  0  0  0  0
    3.1095    0.6419    0.0000 C   0  0  0  0  0  0  0  0  0  0  0  0
    2.3950    1.0544    0.0000 C   0  0  0  0  0  0  0  0  0  0  0  0
    3.4495   -2.4521    0.0000 H   0  0  0  0  0  0  0  0  0  0  0  0
    5.7910   -0.5576    0.0000 H   0  0  0  0  0  0  0  0  0  0  0  0
    4.1640   -2.0396    0.0000 H   0  0  0  0  0  0  0  0  0  0  0  0
    1.2530   -1.2376    0.0000 H   0  0  0  0  0  0  0  0  0  0  0  0
    2.8800    0.2444    0.0000 H   0  0  0  0  0  0  0  0  0  0  0  0
    3.2783    2.3894    0.0000 H   0  0  0  0  0  0  0  0  0  0  0  0
    1.5117    2.3894    0.0000 H   0  0  0  0  0  0  0  0  0  0  0  0
    2.0760   -0.4602    0.0000 H   0  0  0  0  0  0  0  0  0  0  0  0
    2.2606    0.4682    0.0000 H   0  0  0  0  0  0  0  0  0  0  0  0
    4.0361    1.1769    0.0000 H   0  0  0  0  0  0  0  0  0  0  0  0
    3.1095    1.7119    0.0000 H   0  0  0  0  0  0  0  0  0  0  0  0
    1.4684    0.5194    0.0000 H   0  0  0  0  0  0  0  0  0  0  0  0
    2.3950   -0.0156    0.0000 H   0  0  0  0  0  0  0  0  0  0  0  0
  1  4  1  0  0  0  0
  1  5  1  0  0  0  0
  1  8  2  0  0  0  0
  1 11  1  0  0  0  0
  2  6  1  0  0  0  0
  2  7  1  0  0  0  0
  2  9  2  0  0  0  0
  2 11  1  0  0  0  0
  3 11  1  0  0  0  0
  3 15  1  0  0  0  0
  4 16  1  0  0  0  0
  5 17  1  0  0  0  0
  6 18  1  0  0  0  0
  7 19  1  0  0  0  0
 10 14  1  0  0  0  0
 10 20  1  0  0  0  0
 10 21  1  0  0  0  0
 11 12  1  0  0  0  0
 12 13  1  0  0  0  0
 12 22  1  0  0  0  0
 12 23  1  0  0  0  0
 13 14  1  0  0  0  0
 13 24  1  0  0  0  0
 13 25  1  0  0  0  0
 14 26  1  0  0  0  0
 14 27  1  0  0  0  0
M  END
>  <DRUGBANK_ID>
DB00630

>  <SECONDARY_ACCESSION_NUMBERS>
APRD00561

>  <COMMON_NAME>
Alendronic acid

>  <CAS_NUMBER>
66376-36-1

>  <UNII>
X1J18R4W8P

>  <SYNONYMS>
(4-amino-1-hydroxybutane-1,1-diyl)bis(phosphonic acid); (4-amino-1-hydroxybutylidene)bisphosphonic acid; 4-amino-1-hydroxybutane-1,1-diphosphonic acid; ABDP; Acide Alendronique; Acido Alendronico; Acidum Alendronicum; Alendronate; Alendronic acid

$$$$
