RIN
 OpenBabel10282417072D

 39 39  0  0  0  0  0  0  0  0999 V2000
    2.5575    0.3947    0.0000 N   0  0  0  0  0  0  0  0  0  0  0  0
    1.8116    0.0421    0.0000 C   0  0  1  0  0  0  0  0  0  0  0  0
    1.6585   -0.7685    0.0000 C   0  0  0  0  0  0  0  0  0  0  0  0
    0.8402   -0.8734    0.0000 C   0  0  0  0  0  0  0  0  0  0  0  0
    0.2224   -1.5317    0.0000 C   0  0  0  0  0  0  0  0  0  0  0  0
   -0.5883   -1.3785    0.0000 C   0  0  0  0  0  0  0  0  0  0  0  0
   -0.8610   -0.5999    0.0000 C   0  0  0  0  0  0  0  0  0  0  0  0
   -1.6717   -0.4468    0.0000 C   0  0  0  0  0  0  0  0  0  0  0  0
   -1.9444    0.3318    0.0000 C   0  0  0  0  0  0  0  0  0  0  0  0
   -1.4065    0.9573    0.0000 C   0  0  0  0  0  0  0  0  0  0  0  0
   -0.5958    0.8042    0.0000 C   0  0  0  0  0  0  0  0  0  0  0  0
   -0.0579    1.4297    0.0000 C   0  0  0  0  0  0  0  0  0  0  0  0
    0.7528    1.2765    0.0000 N   0  0  0  0  0  0  0  0  0  0  0  0
    1.0880    0.4383    0.0000 C   0  0  0  0  0  0  0  0  0  0  0  0
    0.4705   -0.1089    0.0000 O   0  0  0  0  0  0  0  0  0  0  0  0
    2.2737   -0.3149    0.0000 H   0  0  0  0  0  0  0  0  0  0  0  0
    3.3961   -0.1860    0.0000 H   0  0  0  0  0  0  0  0  0  0  0  0
    2.6411    1.4113    0.0000 H   0  0  0  0  0  0  0  0  0  0  0  0
    2.3924   -1.5472    0.0000 H   0  0  0  0  0  0  0  0  0  0  0  0
    1.2979   -1.7759    0.0000 H   0  0  0  0  0  0  0  0  0  0  0  0
    0.3534    0.0795    0.0000 H   0  0  0  0  0  0  0  0  0  0  0  0
   -0.2192   -0.7234    0.0000 H   0  0  0  0  0  0  0  0  0  0  0  0
    0.5541   -2.5490    0.0000 H   0  0  0  0  0  0  0  0  0  0  0  0
   -0.4841   -2.3353    0.0000 H   0  0  0  0  0  0  0  0  0  0  0  0
   -1.2860   -2.1897    0.0000 H   0  0  0  0  0  0  0  0  0  0  0  0
   -1.6397   -1.1799    0.0000 H   0  0  0  0  0  0  0  0  0  0  0  0
   -0.1633    0.2114    0.0000 H   0  0  0  0  0  0  0  0  0  0  0  0
   -1.2147    0.4099    0.0000 H   0  0  0  0  0  0  0  0  0  0  0  0
   -2.3694   -1.2581    0.0000 H   0  0  0  0  0  0  0  0  0  0  0  0
   -2.7231   -0.2482    0.0000 H   0  0  0  0  0  0  0  0  0  0  0  0
   -2.9958    0.5304    0.0000 H   0  0  0  0  0  0  0  0  0  0  0  0
   -2.2981    1.3416    0.0000 H   0  0  0  0  0  0  0  0  0  0  0  0
   -1.7603    1.9671    0.0000 H   0  0  0  0  0  0  0  0  0  0  0  0
   -0.7088    1.7686    0.0000 H   0  0  0  0  0  0  0  0  0  0  0  0
   -0.2420   -0.2056    0.0000 H   0  0  0  0  0  0  0  0  0  0  0  0
    0.4556    0.6056    0.0000 H   0  0  0  0  0  0  0  0  0  0  0  0
   -0.4116    2.4396    0.0000 H   0  0  0  0  0  0  0  0  0  0  0  0
    0.6398    2.2409    0.0000 H   0  0  0  0  0  0  0  0  0  0  0  0
    1.3784    2.0367    0.0000 H   0  0  0  0  0  0  0  0  0  0  0  0
  1 17  1  0  0  0  0
  1 18  1  0  0  0  0
  2  1  1  0  0  0  0
  2  3  1  0  0  0  0
  2 14  1  0  0  0  0
  2 16  1  6  0  0  0
  3  4  1  0  0  0  0
  3 19  1  0  0  0  0
  3 20  1  0  0  0  0
  4  5  1  0  0  0  0
  4 21  1  0  0  0  0
  4 22  1  0  0  0  0
  5  6  1  0  0  0  0
  5 23  1  0  0  0  0
  5 24  1  0  0  0  0
  6  7  1  0  0  0  0
  6 25  1  0  0  0  0
  6 26  1  0  0  0  0
  7  8  1  0  0  0  0
  7 27  1  0  0  0  0
  7 28  1  0  0  0  0
  8  9  1  0  0  0  0
  8 29  1  0  0  0  0
  8 30  1  0  0  0  0
  9 10  1  0  0  0  0
  9 31  1  0  0  0  0
  9 32  1  0  0  0  0
 10 11  1  0  0  0  0
 10 33  1  0  0  0  0
 10 34  1  0  0  0  0
 11 12  1  0  0  0  0
 11 35  1  0  0  0  0
 11 36  1  0  0  0  0
 12 13  1  0  0  0  0
 12 37  1  0  0  0  0
 12 38  1  0  0  0  0
 13 14  1  0  0  0  0
 13 39  1  0  0  0  0
 14 15  2  0  0  0  0
M  END
>  <DRUGBANK_ID>
DB08476

>  <COMMON_NAME>
3-AMINO-AZACYCLOTRIDECAN-2-ONE

$$$$
