OX5
 OpenBabel10282417072D

 34 34  0  0  0  0  0  0  0  0999 V2000
   -4.9624    3.8841    0.0000 O   0  0  0  0  0  0  0  0  0  0  0  0
   -4.2479    3.4716    0.0000 C   0  0  0  0  0  0  0  0  0  0  0  0
   -3.5334    3.8841    0.0000 C   0  0  0  0  0  0  0  0  0  0  0  0
   -2.8189    3.4716    0.0000 C   0  0  0  0  0  0  0  0  0  0  0  0
   -2.8189    2.6466    0.0000 C   0  0  0  0  0  0  0  0  0  0  0  0
   -3.5334    2.2341    0.0000 C   0  0  0  0  0  0  0  0  0  0  0  0
   -4.2479    2.6466    0.0000 C   0  0  0  0  0  0  0  0  0  0  0  0
   -2.1045    2.2341    0.0000 C   0  0  0  0  0  0  0  0  0  0  0  0
   -2.1045    1.4091    0.0000 N   0  0  0  0  0  0  0  0  0  0  0  0
   -1.3900    0.9966    0.0000 O   0  0  0  0  0  0  0  0  0  0  0  0
   -0.6755    1.4091    0.0000 C   0  0  0  0  0  0  0  0  0  0  0  0
    0.0389    0.9966    0.0000 C   0  0  0  0  0  0  0  0  0  0  0  0
    1.4679    1.8216    0.0000 C   0  0  0  0  0  0  0  0  0  0  0  0
    1.1659    0.6946    0.0000 C   0  0  0  0  0  0  0  0  0  0  0  0
    0.7534    1.4091    0.0000 C   0  0  0  0  0  0  0  0  0  0  0  0
    0.3409    2.1236    0.0000 C   0  0  0  0  0  0  0  0  0  0  0  0
   -0.6755    2.2341    0.0000 O   0  0  0  0  0  0  0  0  0  0  0  0
   -4.9624    4.8211    0.0000 H   0  0  0  0  0  0  0  0  0  0  0  0
   -3.5334    4.9161    0.0000 H   0  0  0  0  0  0  0  0  0  0  0  0
   -1.9252    3.9876    0.0000 H   0  0  0  0  0  0  0  0  0  0  0  0
   -3.5334    1.2021    0.0000 H   0  0  0  0  0  0  0  0  0  0  0  0
   -5.1416    2.1306    0.0000 H   0  0  0  0  0  0  0  0  0  0  0  0
   -1.2108    2.7501    0.0000 H   0  0  0  0  0  0  0  0  0  0  0  0
    0.0389   -0.0734    0.0000 H   0  0  0  0  0  0  0  0  0  0  0  0
    0.9655    0.4616    0.0000 H   0  0  0  0  0  0  0  0  0  0  0  0
    2.3945    1.2866    0.0000 H   0  0  0  0  0  0  0  0  0  0  0  0
    1.4679    2.8916    0.0000 H   0  0  0  0  0  0  0  0  0  0  0  0
    2.3946    2.3566    0.0000 H   0  0  0  0  0  0  0  0  0  0  0  0
    0.6309   -0.2320    0.0000 H   0  0  0  0  0  0  0  0  0  0  0  0
    2.2359    0.6946    0.0000 H   0  0  0  0  0  0  0  0  0  0  0  0
    1.7009   -0.2321    0.0000 H   0  0  0  0  0  0  0  0  0  0  0  0
    0.8759    3.0502    0.0000 H   0  0  0  0  0  0  0  0  0  0  0  0
   -0.7291    2.1236    0.0000 H   0  0  0  0  0  0  0  0  0  0  0  0
   -0.1941    3.0503    0.0000 H   0  0  0  0  0  0  0  0  0  0  0  0
  1  2  1  0  0  0  0
  1 18  1  0  0  0  0
  2  3  2  0  0  0  0
  2  7  1  0  0  0  0
  3  4  1  0  0  0  0
  3 19  1  0  0  0  0
  4  5  2  0  0  0  0
  4 20  1  0  0  0  0
  5  8  1  0  0  0  0
  5  6  1  0  0  0  0
  6  7  2  0  0  0  0
  6 21  1  0  0  0  0
  7 22  1  0  0  0  0
  8  9  2  0  0  0  0
  8 23  1  0  0  0  0
  9 10  1  0  0  0  0
 10 11  1  0  0  0  0
 11 17  2  0  0  0  0
 11 12  1  0  0  0  0
 12 15  1  0  0  0  0
 12 24  1  0  0  0  0
 12 25  1  0  0  0  0
 13 15  1  0  0  0  0
 13 26  1  0  0  0  0
 13 27  1  0  0  0  0
 13 28  1  0  0  0  0
 14 15  1  0  0  0  0
 14 29  1  0  0  0  0
 14 30  1  0  0  0  0
 14 31  1  0  0  0  0
 15 16  1  0  0  0  0
 16 32  1  0  0  0  0
 16 33  1  0  0  0  0
 16 34  1  0  0  0  0
M  END
>  <DRUGBANK_ID>
DB08335

>  <COMMON_NAME>
4-HYDROXYBENZALDEHYDE O-(3,3-DIMETHYLBUTANOYL)OXIME

$$$$
