
 OpenBabel10282417072D

 82 87  0  0  0  0  0  0  0  0999 V2000
   -2.4671    1.7469    0.0000 C   0  0  0  0  0  0  0  0  0  0  0  0
   -2.4671    0.9219    0.0000 C   0  0  0  0  0  0  0  0  0  0  0  0
   -3.1809    0.5055    0.0000 C   0  0  0  0  0  0  0  0  0  0  0  0
   -3.1809    2.1555    0.0000 C   0  0  0  0  0  0  0  0  0  0  0  0
   -1.0395    0.9219    0.0000 C   0  0  0  0  0  0  0  0  0  0  0  0
   -1.0395    1.7469    0.0000 C   0  0  0  0  0  0  0  0  0  0  0  0
   -3.8946    0.9219    0.0000 C   0  0  0  0  0  0  0  0  0  0  0  0
   -1.7482    2.1555    0.0000 C   0  0  0  0  0  0  0  0  0  0  0  0
   -1.7482    0.5055    0.0000 C   0  0  0  0  0  0  0  0  0  0  0  0
   -3.8946    1.7469    0.0000 C   0  0  0  0  0  0  0  0  0  0  0  0
    0.3879    1.7469    0.0000 C   0  0  2  0  0  0  0  0  0  0  0  0
   -0.3258    0.5055    0.0000 C   0  0  2  0  0  0  0  0  0  0  0  0
   -0.3258    2.1555    0.0000 C   0  0  0  0  0  0  0  0  0  0  0  0
    0.0905   -1.0254    0.0000 C   0  0  2  0  0  0  0  0  0  0  0  0
   -0.3129   -1.7417    0.0000 O   0  0  0  0  0  0  0  0  0  0  0  0
    0.3879    0.9219    0.0000 C   0  0  0  0  0  0  0  0  0  0  0  0
    0.9206   -1.0202    0.0000 C   0  0  0  0  0  0  0  0  0  0  0  0
    1.6240    2.4606    0.0000 N   0  0  0  0  0  0  0  0  0  0  0  0
    0.7991    2.4606    0.0000 C   0  0  0  0  0  0  0  0  0  0  0  0
    0.9361   -2.4477    0.0000 C   0  0  1  0  0  0  0  0  0  0  0  0
    1.3396   -1.7314    0.0000 C   0  0  1  0  0  0  0  0  0  0  0  0
    0.1060   -2.4581    0.0000 C   0  0  2  0  0  0  0  0  0  0  0  0
    2.8602    1.7520    0.0000 C   0  0  0  0  0  0  0  0  0  0  0  0
    2.4490    2.4658    0.0000 N   0  0  0  0  0  0  0  0  0  0  0  0
   -0.3258   -0.3194    0.0000 O   0  0  0  0  0  0  0  0  0  0  0  0
   -3.1809    2.9805    0.0000 O   0  0  0  0  0  0  0  0  0  0  0  0
   -3.1809   -0.3194    0.0000 O   0  0  0  0  0  0  0  0  0  0  0  0
   -4.6110    0.5055    0.0000 C   0  0  0  0  0  0  0  0  0  0  0  0
    2.4464    1.0382    0.0000 O   0  0  0  0  0  0  0  0  0  0  0  0
    3.6826    1.7495    0.0000 C   0  0  0  0  0  0  0  0  0  0  0  0
   -1.7482    2.9805    0.0000 O   0  0  0  0  0  0  0  0  0  0  0  0
   -1.7482   -0.3194    0.0000 O   0  0  0  0  0  0  0  0  0  0  0  0
    1.2103    1.7469    0.0000 O   0  0  0  0  0  0  0  0  0  0  0  0
    2.1646   -1.7262    0.0000 N   0  0  0  0  0  0  0  0  0  0  0  0
    1.3499   -3.1641    0.0000 O   0  0  0  0  0  0  0  0  0  0  0  0
   -4.6110    2.1555    0.0000 C   0  0  0  0  0  0  0  0  0  0  0  0
   -4.6110   -0.3194    0.0000 O   0  0  0  0  0  0  0  0  0  0  0  0
    0.3853    3.1745    0.0000 C   0  0  0  0  0  0  0  0  0  0  0  0
   -0.3000   -3.1745    0.0000 C   0  0  0  0  0  0  0  0  0  0  0  0
   -5.3248    1.7469    0.0000 C   0  0  0  0  0  0  0  0  0  0  0  0
   -5.3248    0.9219    0.0000 C   0  0  0  0  0  0  0  0  0  0  0  0
    4.0887    1.0331    0.0000 C   0  0  0  0  0  0  0  0  0  0  0  0
    4.0887    2.4606    0.0000 C   0  0  0  0  0  0  0  0  0  0  0  0
   -5.3248   -0.7306    0.0000 C   0  0  0  0  0  0  0  0  0  0  0  0
    4.9111    2.4633    0.0000 C   0  0  0  0  0  0  0  0  0  0  0  0
    4.9136    1.0331    0.0000 C   0  0  0  0  0  0  0  0  0  0  0  0
    5.3248    1.7469    0.0000 C   0  0  0  0  0  0  0  0  0  0  0  0
    0.3879    0.0943    0.0000 H   0  0  0  0  0  0  0  0  0  0  0  0
   -0.3258    3.2255    0.0000 H   0  0  0  0  0  0  0  0  0  0  0  0
   -1.2515    2.6922    0.0000 H   0  0  0  0  0  0  0  0  0  0  0  0
   -0.9794   -1.0360    0.0000 H   0  0  0  0  0  0  0  0  0  0  0  0
    1.3158    0.3890    0.0000 H   0  0  0  0  0  0  0  0  0  0  0  0
    1.3139    1.4580    0.0000 H   0  0  0  0  0  0  0  0  0  0  0  0
    1.4486   -0.0895    0.0000 H   0  0  0  0  0  0  0  0  0  0  0  0
    1.9906   -1.0115    0.0000 H   0  0  0  0  0  0  0  0  0  0  0  0
    2.0061   -2.4419    0.0000 H   0  0  0  0  0  0  0  0  0  0  0  0
    1.8824   -2.6535    0.0000 H   0  0  0  0  0  0  0  0  0  0  0  0
   -0.9640   -2.4653    0.0000 H   0  0  0  0  0  0  0  0  0  0  0  0
    2.9390    3.3197    0.0000 H   0  0  0  0  0  0  0  0  0  0  0  0
   -0.9367    3.4490    0.0000 H   0  0  0  0  0  0  0  0  0  0  0  0
   -2.5597   -0.7879    0.0000 H   0  0  0  0  0  0  0  0  0  0  0  0
    1.6953    0.9069    0.0000 H   0  0  0  0  0  0  0  0  0  0  0  0
    2.6802   -2.6063    0.0000 H   0  0  0  0  0  0  0  0  0  0  0  0
    2.6690   -0.8397    0.0000 H   0  0  0  0  0  0  0  0  0  0  0  0
    0.8651   -4.0042    0.0000 H   0  0  0  0  0  0  0  0  0  0  0  0
   -4.6118    3.1875    0.0000 H   0  0  0  0  0  0  0  0  0  0  0  0
    0.9187    4.1021    0.0000 H   0  0  0  0  0  0  0  0  0  0  0  0
   -0.6847    3.1727    0.0000 H   0  0  0  0  0  0  0  0  0  0  0  0
   -0.1513    4.1002    0.0000 H   0  0  0  0  0  0  0  0  0  0  0  0
   -1.3700   -3.1831    0.0000 H   0  0  0  0  0  0  0  0  0  0  0  0
    0.2424   -4.0968    0.0000 H   0  0  0  0  0  0  0  0  0  0  0  0
   -0.8276   -4.1054    0.0000 H   0  0  0  0  0  0  0  0  0  0  0  0
   -6.2176    2.2646    0.0000 H   0  0  0  0  0  0  0  0  0  0  0  0
   -6.2197    0.4079    0.0000 H   0  0  0  0  0  0  0  0  0  0  0  0
    3.5692    0.1414    0.0000 H   0  0  0  0  0  0  0  0  0  0  0  0
    3.5691    3.3523    0.0000 H   0  0  0  0  0  0  0  0  0  0  0  0
   -6.2509   -0.1947    0.0000 H   0  0  0  0  0  0  0  0  0  0  0  0
   -5.3258   -1.8006    0.0000 H   0  0  0  0  0  0  0  0  0  0  0  0
   -6.2520   -1.2647    0.0000 H   0  0  0  0  0  0  0  0  0  0  0  0
    5.4256    3.3579    0.0000 H   0  0  0  0  0  0  0  0  0  0  0  0
    5.4300    0.1396    0.0000 H   0  0  0  0  0  0  0  0  0  0  0  0
    6.3568    1.7474    0.0000 H   0  0  0  0  0  0  0  0  0  0  0  0
  2  1  2  0  0  0  0
  3  2  1  0  0  0  0
  4  1  1  0  0  0  0
  5  9  2  0  0  0  0
  6  8  2  0  0  0  0
  6  5  1  0  0  0  0
  7  3  1  0  0  0  0
  8  1  1  0  0  0  0
  9  2  1  0  0  0  0
 10  4  1  0  0  0  0
 10  7  2  0  0  0  0
 11 13  1  0  0  0  0
 11 19  1  1  0  0  0
 11 33  1  0  0  0  0
 11 16  1  0  0  0  0
 12  5  1  0  0  0  0
 12 48  1  1  0  0  0
 13  6  1  0  0  0  0
 13 49  1  0  0  0  0
 13 50  1  0  0  0  0
 14 25  1  0  0  0  0
 14 51  1  6  0  0  0
 15 14  1  0  0  0  0
 16 12  1  0  0  0  0
 16 52  1  0  0  0  0
 16 53  1  0  0  0  0
 17 14  1  0  0  0  0
 17 54  1  0  0  0  0
 17 55  1  0  0  0  0
 19 18  2  3  0  0  0
 20 21  1  0  0  0  0
 20 35  1  0  0  0  0
 20 56  1  1  0  0  0
 21 17  1  0  0  0  0
 21 34  1  0  0  0  0
 21 57  1  1  0  0  0
 22 15  1  0  0  0  0
 22 39  1  0  0  0  0
 22 20  1  0  0  0  0
 22 58  1  1  0  0  0
 23 24  1  0  0  0  0
 24 18  1  0  0  0  0
 24 59  1  0  0  0  0
 25 12  1  0  0  0  0
 26  4  2  0  0  0  0
 27  3  2  0  0  0  0
 28  7  1  0  0  0  0
 29 23  2  0  0  0  0
 30 23  1  0  0  0  0
 31  8  1  0  0  0  0
 31 60  1  0  0  0  0
 32  9  1  0  0  0  0
 32 61  1  0  0  0  0
 33 62  1  0  0  0  0
 34 63  1  0  0  0  0
 34 64  1  0  0  0  0
 35 65  1  0  0  0  0
 36 10  1  0  0  0  0
 36 66  1  0  0  0  0
 37 28  1  0  0  0  0
 38 19  1  0  0  0  0
 38 67  1  0  0  0  0
 38 68  1  0  0  0  0
 38 69  1  0  0  0  0
 39 70  1  0  0  0  0
 39 71  1  0  0  0  0
 39 72  1  0  0  0  0
 40 36  2  0  0  0  0
 40 41  1  0  0  0  0
 40 73  1  0  0  0  0
 41 28  2  0  0  0  0
 41 74  1  0  0  0  0
 42 30  2  0  0  0  0
 42 75  1  0  0  0  0
 43 30  1  0  0  0  0
 43 76  1  0  0  0  0
 44 37  1  0  0  0  0
 44 77  1  0  0  0  0
 44 78  1  0  0  0  0
 44 79  1  0  0  0  0
 45 43  2  0  0  0  0
 45 80  1  0  0  0  0
 46 42  1  0  0  0  0
 46 81  1  0  0  0  0
 47 45  1  0  0  0  0
 47 46  2  0  0  0  0
 47 82  1  0  0  0  0
M  END
>  <DRUGBANK_ID>
DB11618

>  <COMMON_NAME>
Zorubicin

>  <CAS_NUMBER>
54083-22-6

>  <UNII>
V25F9362OP

>  <SYNONYMS>
Benzoic acid hydrazide, 3-hydrazone with daunorubicin; Zorubicin

$$$$
