CKI
 OpenBabel10282417072D

 30 31  0  0  0  0  0  0  0  0999 V2000
   -1.0311   -0.7025    0.0000 C   0  0  0  0  0  0  0  0  0  0  0  0
   -1.7456   -1.1150    0.0000 N   0  0  0  0  0  0  0  0  0  0  0  0
   -2.4600   -0.7025    0.0000 C   0  0  0  0  0  0  0  0  0  0  0  0
   -2.4600    0.1225    0.0000 C   0  0  0  0  0  0  0  0  0  0  0  0
   -1.7456    1.3600    0.0000 C   0  0  0  0  0  0  0  0  0  0  0  0
   -2.4600    1.7725    0.0000 Cl  0  0  0  0  0  0  0  0  0  0  0  0
   -1.0311    1.7725    0.0000 C   0  0  0  0  0  0  0  0  0  0  0  0
   -0.3166    1.3600    0.0000 C   0  0  0  0  0  0  0  0  0  0  0  0
   -0.3166    0.5350    0.0000 C   0  0  0  0  0  0  0  0  0  0  0  0
   -1.0311    0.1225    0.0000 C   0  0  0  0  0  0  0  0  0  0  0  0
   -1.7456    0.5350    0.0000 C   0  0  0  0  0  0  0  0  0  0  0  0
    0.3978    0.1225    0.0000 S   0  0  0  0  0  0  0  0  0  0  0  0
   -0.0147   -0.5920    0.0000 O   0  0  0  0  0  0  0  0  0  0  0  0
    0.8103    0.8370    0.0000 O   0  0  0  0  0  0  0  0  0  0  0  0
    1.1123   -0.2900    0.0000 N   0  0  0  0  0  0  0  0  0  0  0  0
    1.8268    0.1225    0.0000 C   0  0  0  0  0  0  0  0  0  0  0  0
    2.5413   -0.2900    0.0000 C   0  0  0  0  0  0  0  0  0  0  0  0
    3.2557    0.1225    0.0000 N   0  0  0  0  0  0  0  0  0  0  0  0
   -0.1374   -1.2185    0.0000 H   0  0  0  0  0  0  0  0  0  0  0  0
   -3.3537   -1.2185    0.0000 H   0  0  0  0  0  0  0  0  0  0  0  0
   -3.3537    0.6385    0.0000 H   0  0  0  0  0  0  0  0  0  0  0  0
   -1.0311    2.8045    0.0000 H   0  0  0  0  0  0  0  0  0  0  0  0
    0.5771    1.8760    0.0000 H   0  0  0  0  0  0  0  0  0  0  0  0
    1.1123   -1.3100    0.0000 H   0  0  0  0  0  0  0  0  0  0  0  0
    1.8268    1.1925    0.0000 H   0  0  0  0  0  0  0  0  0  0  0  0
    2.7534    0.6575    0.0000 H   0  0  0  0  0  0  0  0  0  0  0  0
    2.5413   -1.3600    0.0000 H   0  0  0  0  0  0  0  0  0  0  0  0
    3.4680   -0.8250    0.0000 H   0  0  0  0  0  0  0  0  0  0  0  0
    4.1391   -0.3875    0.0000 H   0  0  0  0  0  0  0  0  0  0  0  0
    3.2557    1.1425    0.0000 H   0  0  0  0  0  0  0  0  0  0  0  0
  1  2  2  0  0  0  0
  1 10  1  0  0  0  0
  1 19  1  0  0  0  0
  2  3  1  0  0  0  0
  3  4  2  0  0  0  0
  3 20  1  0  0  0  0
  4 11  1  0  0  0  0
  4 21  1  0  0  0  0
  5  6  1  0  0  0  0
  5  7  2  0  0  0  0
  5 11  1  0  0  0  0
  7  8  1  0  0  0  0
  7 22  1  0  0  0  0
  8  9  2  0  0  0  0
  8 23  1  0  0  0  0
  9 10  1  0  0  0  0
  9 12  1  0  0  0  0
 10 11  2  0  0  0  0
 12 13  2  0  0  0  0
 12 14  2  0  0  0  0
 12 15  1  0  0  0  0
 15 16  1  0  0  0  0
 15 24  1  0  0  0  0
 16 17  1  0  0  0  0
 16 25  1  0  0  0  0
 16 26  1  0  0  0  0
 17 18  1  0  0  0  0
 17 27  1  0  0  0  0
 17 28  1  0  0  0  0
 18 29  1  0  0  0  0
 18 30  1  0  0  0  0
M  END
>  <DRUGBANK_ID>
DB03693

>  <SECONDARY_ACCESSION_NUMBERS>
EXPT00931

>  <COMMON_NAME>
N-(2-Aminoethyl)-5-Chloroisoquinoline-8-Sulfonamide

>  <UNII>
3IE84W82O5

$$$$
