
 OpenBabel10282417072D

 47 48  0  0  1  0  0  0  0  0999 V2000
    3.5724   -1.2375    0.0000 O   0  0  0  0  0  0  0  0  0  0  0  0
    2.8579   -1.6500    0.0000 C   0  0  0  0  0  0  0  0  0  0  0  0
    2.8579   -2.4750    0.0000 C   0  0  1  0  0  0  0  0  0  0  0  0
    2.1434   -2.8875    0.0000 C   0  0  0  0  0  0  0  0  0  0  0  0
    2.1434   -3.7125    0.0000 C   0  0  1  0  0  0  0  0  0  0  0  0
    1.4289   -4.1250    0.0000 S   0  0  0  0  0  0  0  0  0  0  0  0
    0.7145   -3.7125    0.0000 C   0  0  0  0  0  0  0  0  0  0  0  0
    0.0000   -4.1250    0.0000 C   0  0  0  0  0  0  0  0  0  0  0  0
   -0.7145   -3.7125    0.0000 C   0  0  0  0  0  0  0  0  0  0  0  0
   -1.4289   -4.1250    0.0000 C   0  0  0  0  0  0  0  0  0  0  0  0
   -2.1434   -3.7125    0.0000 C   0  0  0  0  0  0  0  0  0  0  0  0
   -2.1434   -2.8875    0.0000 C   0  0  0  0  0  0  0  0  0  0  0  0
   -1.4289   -2.4750    0.0000 C   0  0  0  0  0  0  0  0  0  0  0  0
   -0.7145   -2.8875    0.0000 C   0  0  0  0  0  0  0  0  0  0  0  0
    0.7145   -2.8875    0.0000 N   0  0  0  0  0  0  0  0  0  0  0  0
    1.4289   -2.4750    0.0000 O   0  0  0  0  0  0  0  0  0  0  0  0
    1.4289   -1.6500    0.0000 S   0  0  0  0  0  0  0  0  0  0  0  0
    0.6039   -1.6500    0.0000 O   0  0  0  0  0  0  0  0  0  0  0  0
    1.4289   -0.8250    0.0000 O   0  0  0  0  0  0  0  0  0  0  0  0
    2.2539   -1.6500    0.0000 O   0  0  0  0  0  0  0  0  0  0  0  0
    2.8579   -4.1250    0.0000 C   0  0  2  0  0  0  0  0  0  0  0  0
    2.8579   -4.9500    0.0000 O   0  0  0  0  0  0  0  0  0  0  0  0
    3.5724   -3.7125    0.0000 C   0  0  1  0  0  0  0  0  0  0  0  0
    4.2868   -4.1250    0.0000 O   0  0  0  0  0  0  0  0  0  0  0  0
    3.5724   -2.8875    0.0000 C   0  0  2  0  0  0  0  0  0  0  0  0
    4.2868   -2.4750    0.0000 O   0  0  0  0  0  0  0  0  0  0  0  0
    4.4124   -1.7225    0.0000 H   0  0  0  0  0  0  0  0  0  0  0  0
    1.9313   -1.1150    0.0000 H   0  0  0  0  0  0  0  0  0  0  0  0
    1.9313   -2.1850    0.0000 H   0  0  0  0  0  0  0  0  0  0  0  0
    1.9313   -1.9400    0.0000 H   0  0  0  0  0  0  0  0  0  0  0  0
    1.2168   -2.3525    0.0000 H   0  0  0  0  0  0  0  0  0  0  0  0
    1.2168   -3.4225    0.0000 H   0  0  0  0  0  0  0  0  0  0  0  0
    1.2168   -3.1775    0.0000 H   0  0  0  0  0  0  0  0  0  0  0  0
    0.0000   -5.1950    0.0000 H   0  0  0  0  0  0  0  0  0  0  0  0
   -0.9266   -4.6600    0.0000 H   0  0  0  0  0  0  0  0  0  0  0  0
   -1.4289   -5.1570    0.0000 H   0  0  0  0  0  0  0  0  0  0  0  0
   -3.0371   -4.2285    0.0000 H   0  0  0  0  0  0  0  0  0  0  0  0
   -3.0371   -2.3715    0.0000 H   0  0  0  0  0  0  0  0  0  0  0  0
   -1.4289   -1.4430    0.0000 H   0  0  0  0  0  0  0  0  0  0  0  0
    0.1792   -2.3715    0.0000 H   0  0  0  0  0  0  0  0  0  0  0  0
    0.1189   -0.8100    0.0000 H   0  0  0  0  0  0  0  0  0  0  0  0
    1.9313   -4.6600    0.0000 H   0  0  0  0  0  0  0  0  0  0  0  0
    2.0179   -5.4350    0.0000 H   0  0  0  0  0  0  0  0  0  0  0  0
    3.5724   -4.7825    0.0000 H   0  0  0  0  0  0  0  0  0  0  0  0
    4.2868   -5.0950    0.0000 H   0  0  0  0  0  0  0  0  0  0  0  0
    4.4991   -3.4225    0.0000 H   0  0  0  0  0  0  0  0  0  0  0  0
    5.1269   -2.9600    0.0000 H   0  0  0  0  0  0  0  0  0  0  0  0
  1  2  1  0  0  0  0
  1 27  1  0  0  0  0
  2 28  1  0  0  0  0
  2 29  1  0  0  0  0
  3  2  1  0  0  0  0
  3  4  1  0  0  0  0
  3 25  1  0  0  0  0
  3 30  1  1  0  0  0
  4  5  1  0  0  0  0
  4 31  1  0  0  0  0
  4 32  1  0  0  0  0
  5  6  1  0  0  0  0
  5 21  1  0  0  0  0
  5 33  1  1  0  0  0
  6  7  1  0  0  0  0
  7  8  1  0  0  0  0
  7 15  2  0  0  0  0
  8  9  1  0  0  0  0
  8 34  1  0  0  0  0
  8 35  1  0  0  0  0
  9 10  2  0  0  0  0
  9 14  1  0  0  0  0
 10 11  1  0  0  0  0
 10 36  1  0  0  0  0
 11 12  2  0  0  0  0
 11 37  1  0  0  0  0
 12 13  1  0  0  0  0
 12 38  1  0  0  0  0
 13 14  2  0  0  0  0
 13 39  1  0  0  0  0
 14 40  1  0  0  0  0
 15 16  1  0  0  0  0
 16 17  1  0  0  0  0
 17 18  1  0  0  0  0
 17 19  2  0  0  0  0
 17 20  2  0  0  0  0
 18 41  1  0  0  0  0
 21 22  1  0  0  0  0
 21 23  1  0  0  0  0
 21 42  1  6  0  0  0
 22 43  1  0  0  0  0
 23 24  1  0  0  0  0
 23 25  1  0  0  0  0
 23 44  1  1  0  0  0
 24 45  1  0  0  0  0
 25 26  1  0  0  0  0
 25 46  1  6  0  0  0
 26 47  1  0  0  0  0
M  END
>  <DRUGBANK_ID>
DB04659

>  <COMMON_NAME>
(1S,2S,3R,4S,5S)-2,3,4-TRIHYDROXY-5-(HYDROXYMETHYL)CYCLOHEXYL (1E)-2-PHENYL-N-(SULFOOXY)ETHANIMIDOTHIOATE

$$$$
