
 OpenBabel10282417072D

 38 39  0  0  1  0  0  0  0  0999 V2000
    8.5761   -6.2292    0.0000 N   0  0  0  0  0  0  0  0  0  0  0  0
    7.8616   -6.6417    0.0000 C   0  0  1  0  0  0  0  0  0  0  0  0
    8.5761   -5.4042    0.0000 C   0  0  0  0  0  0  0  0  0  0  0  0
    9.2906   -4.9917    0.0000 N   0  0  0  0  0  0  0  0  0  0  0  0
    7.7754   -7.4622    0.0000 C   0  0  0  0  0  0  0  0  0  0  0  0
    7.1080   -6.3061    0.0000 O   0  0  0  0  0  0  0  0  0  0  0  0
    4.4300   -7.4142    0.0000 P   0  0  3  0  0  0  0  0  0  0  0  0
    3.2740   -6.5743    0.0000 P   0  0  0  0  0  0  0  0  0  0  0  0
    3.6096   -7.3279    0.0000 O   0  0  0  0  0  0  0  0  0  0  0  0
    9.2906   -6.6417    0.0000 C   0  0  0  0  0  0  0  0  0  0  0  0
    6.5560   -6.9192    0.0000 C   0  0  1  0  0  0  0  0  0  0  0  0
    6.9685   -7.6337    0.0000 C   0  0  1  0  0  0  0  0  0  0  0  0
   10.0051   -6.2292    0.0000 C   0  0  0  0  0  0  0  0  0  0  0  0
   10.0051   -5.4042    0.0000 C   0  0  0  0  0  0  0  0  0  0  0  0
    5.7355   -6.8330    0.0000 C   0  0  0  0  0  0  0  0  0  0  0  0
    7.8616   -4.9917    0.0000 O   0  0  0  0  0  0  0  0  0  0  0  0
    5.2505   -7.5004    0.0000 O   0  0  0  0  0  0  0  0  0  0  0  0
    4.3438   -8.2347    0.0000 O   0  0  0  0  0  0  0  0  0  0  0  0
    2.5203   -6.9098    0.0000 O   0  0  0  0  0  0  0  0  0  0  0  0
   10.7196   -4.9917    0.0000 O   0  0  0  0  0  0  0  0  0  0  0  0
    4.5163   -6.5937    0.0000 O   0  0  0  0  0  0  0  0  0  0  0  0
    4.0276   -6.2387    0.0000 O   0  0  0  0  0  0  0  0  0  0  0  0
    2.9385   -5.8206    0.0000 O   0  0  0  0  0  0  0  0  0  0  0  0
    6.6329   -8.3873    0.0000 O   0  0  0  0  0  0  0  0  0  0  0  0
    8.7590   -7.2245    0.0000 H   0  0  0  0  0  0  0  0  0  0  0  0
    9.2906   -4.0072    0.0000 H   0  0  0  0  0  0  0  0  0  0  0  0
    8.5706   -8.1782    0.0000 H   0  0  0  0  0  0  0  0  0  0  0  0
    7.4985   -8.4957    0.0000 H   0  0  0  0  0  0  0  0  0  0  0  0
    9.2906   -7.6737    0.0000 H   0  0  0  0  0  0  0  0  0  0  0  0
    6.1725   -5.9203    0.0000 H   0  0  0  0  0  0  0  0  0  0  0  0
    7.6418   -8.4653    0.0000 H   0  0  0  0  0  0  0  0  0  0  0  0
   10.8988   -6.7452    0.0000 H   0  0  0  0  0  0  0  0  0  0  0  0
    5.3003   -5.8555    0.0000 H   0  0  0  0  0  0  0  0  0  0  0  0
    4.6714   -6.7211    0.0000 H   0  0  0  0  0  0  0  0  0  0  0  0
    5.4025   -6.1992    0.0000 H   0  0  0  0  0  0  0  0  0  0  0  0
    4.8124   -6.8088    0.0000 H   0  0  0  0  0  0  0  0  0  0  0  0
    3.5087   -5.0359    0.0000 H   0  0  0  0  0  0  0  0  0  0  0  0
    5.6682   -8.4886    0.0000 H   0  0  0  0  0  0  0  0  0  0  0  0
  2  1  1  0  0  0  0
  2 25  1  6  0  0  0
  3  1  1  0  0  0  0
  4  3  1  0  0  0  0
  4 26  1  0  0  0  0
  5  2  1  0  0  0  0
  5 27  1  0  0  0  0
  5 28  1  0  0  0  0
  6  2  1  0  0  0  0
  9  7  1  0  0  0  0
  9  8  1  0  0  0  0
 10  1  1  0  0  0  0
 10 29  1  0  0  0  0
 11  6  1  0  0  0  0
 11 15  1  0  0  0  0
 11 30  1  6  0  0  0
 12  5  1  0  0  0  0
 12 11  1  0  0  0  0
 12 24  1  0  0  0  0
 12 31  1  1  0  0  0
 13 10  2  0  0  0  0
 13 32  1  0  0  0  0
 14  4  1  0  0  0  0
 14 13  1  0  0  0  0
 15 33  1  0  0  0  0
 15 34  1  0  0  0  0
 16  3  2  0  0  0  0
 17  7  1  0  0  0  0
 17 15  1  0  0  0  0
 18  7  2  0  0  0  0
 19  8  2  0  0  0  0
 20 14  2  0  0  0  0
 21  7  1  0  0  0  0
 21 35  1  0  0  0  0
 22  8  1  0  0  0  0
 22 36  1  0  0  0  0
 23  8  1  0  0  0  0
 23 37  1  0  0  0  0
 24 38  1  0  0  0  0
M  END
>  <DRUGBANK_ID>
DB03413

>  <SECONDARY_ACCESSION_NUMBERS>
EXPT01297

>  <COMMON_NAME>
Deoxyuridine-5'-Diphosphate

>  <UNII>
B2SK7999YL

$$$$
