
 OpenBabel10282417072D

243249  0  0  1  0  0  0  0  0999 V2000
    6.4752  -11.3348    0.0000 C   0  0  0  0  0  0  0  0  0  0  0  0
    5.6524  -11.3958    0.0000 C   0  0  0  0  0  0  0  0  0  0  0  0
    5.1882  -10.7138    0.0000 C   0  0  2  0  0  0  0  0  0  0  0  0
    5.5467   -9.9708    0.0000 C   0  0  0  0  0  0  0  0  0  0  0  0
    4.3655  -10.7749    0.0000 C   0  0  2  0  0  0  0  0  0  0  0  0
    4.0070  -11.5179    0.0000 N   0  0  0  0  0  0  0  0  0  0  0  0
    4.4712  -12.1999    0.0000 C   0  0  0  0  0  0  0  0  0  0  0  0
    5.2940  -12.1389    0.0000 O   0  0  0  0  0  0  0  0  0  0  0  0
    4.1127  -12.9430    0.0000 C   0  0  2  0  0  0  0  0  0  0  0  0
    3.2900  -13.0040    0.0000 N   0  0  0  0  0  0  0  0  0  0  0  0
    4.5770  -13.6249    0.0000 C   0  0  0  0  0  0  0  0  0  0  0  0
    4.2185  -14.3680    0.0000 C   0  0  0  0  0  0  0  0  0  0  0  0
    4.6827  -15.0500    0.0000 C   0  0  0  0  0  0  0  0  0  0  0  0
    4.3243  -15.7930    0.0000 C   0  0  0  0  0  0  0  0  0  0  0  0
    3.5015  -15.8541    0.0000 C   0  0  0  0  0  0  0  0  0  0  0  0
    3.1430  -16.5971    0.0000 O   0  0  0  0  0  0  0  0  0  0  0  0
    3.0373  -15.1721    0.0000 C   0  0  0  0  0  0  0  0  0  0  0  0
    3.3958  -14.4291    0.0000 C   0  0  0  0  0  0  0  0  0  0  0  0
    3.9012  -10.0929    0.0000 C   0  0  0  0  0  0  0  0  0  0  0  0
    3.0785  -10.1540    0.0000 O   0  0  0  0  0  0  0  0  0  0  0  0
    4.2597   -9.3499    0.0000 N   0  0  0  0  0  0  0  0  0  0  0  0
    3.7954   -8.6679    0.0000 C   0  0  0  0  0  0  0  0  0  0  0  0
    3.3105   -9.3353    0.0000 C   0  0  0  0  0  0  0  0  0  0  0  0
    2.5259   -9.0804    0.0000 S   0  0  0  0  0  0  0  0  0  0  0  0
    2.5259   -8.2554    0.0000 S   0  0  0  0  0  0  0  0  0  0  0  0
    1.9515   -7.5589    0.0000 C   0  0  0  0  0  0  0  0  0  0  0  0
    2.2065   -6.7743    0.0000 C   0  0  0  0  0  0  0  0  0  0  0  0
    1.6544   -6.1612    0.0000 N   0  0  0  0  0  0  0  0  0  0  0  0
    1.9094   -5.3766    0.0000 C   0  0  0  0  0  0  0  0  0  0  0  0
    2.7163   -5.2050    0.0000 O   0  0  0  0  0  0  0  0  0  0  0  0
    1.3573   -4.7635    0.0000 C   0  0  2  0  0  0  0  0  0  0  0  0
    0.5504   -4.9350    0.0000 C   0  0  0  0  0  0  0  0  0  0  0  0
   -0.0017   -4.3219    0.0000 C   0  0  0  0  0  0  0  0  0  0  0  0
   -0.8086   -4.4934    0.0000 C   0  0  0  0  0  0  0  0  0  0  0  0
   -1.3607   -3.8803    0.0000 N   0  0  0  0  0  0  0  0  0  0  0  0
   -2.1676   -4.0519    0.0000 C   0  0  0  0  0  0  0  0  0  0  0  0
   -2.7197   -3.4388    0.0000 N   0  0  0  0  0  0  0  0  0  0  0  0
   -2.4226   -4.8365    0.0000 N   0  0  0  0  0  0  0  0  0  0  0  0
    1.6123   -3.9788    0.0000 N   0  0  0  0  0  0  0  0  0  0  0  0
    1.0602   -3.3658    0.0000 C   0  0  0  0  0  0  0  0  0  0  0  0
    0.2533   -3.5373    0.0000 O   0  0  0  0  0  0  0  0  0  0  0  0
    1.3152   -2.5811    0.0000 C   0  0  0  0  0  0  0  0  0  0  0  0
    0.5082   -2.7527    0.0000 C   0  0  0  0  0  0  0  0  0  0  0  0
   -0.0438   -2.1396    0.0000 C   0  0  0  0  0  0  0  0  0  0  0  0
    0.1277   -1.3326    0.0000 C   0  0  0  0  0  0  0  0  0  0  0  0
   -0.5868   -0.9201    0.0000 N   0  0  0  0  0  0  0  0  0  0  0  0
   -1.1999   -1.4721    0.0000 C   0  0  0  0  0  0  0  0  0  0  0  0
   -0.8643   -2.2258    0.0000 N   0  0  0  0  0  0  0  0  0  0  0  0
    0.7632   -1.9680    0.0000 N   0  0  0  0  0  0  0  0  0  0  0  0
    1.0181   -1.1834    0.0000 C   0  0  0  0  0  0  0  0  0  0  0  0
    1.8251   -1.0119    0.0000 O   0  0  0  0  0  0  0  0  0  0  0  0
    0.4661   -0.5703    0.0000 C   0  0  2  0  0  0  0  0  0  0  0  0
   -0.3409   -0.7418    0.0000 C   0  0  0  0  0  0  0  0  0  0  0  0
    0.7210    0.2143    0.0000 N   0  0  0  0  0  0  0  0  0  0  0  0
    0.1690    0.8274    0.0000 C   0  0  0  0  0  0  0  0  0  0  0  0
   -0.6380    0.6559    0.0000 O   0  0  0  0  0  0  0  0  0  0  0  0
    0.4239    1.6120    0.0000 C   0  0  0  0  0  0  0  0  0  0  0  0
    1.2309    1.7835    0.0000 N   0  0  0  0  0  0  0  0  0  0  0  0
    1.4858    2.5682    0.0000 C   0  0  0  0  0  0  0  0  0  0  0  0
    1.7829    1.1705    0.0000 C   0  0  0  0  0  0  0  0  0  0  0  0
    1.5280    0.3858    0.0000 O   0  0  0  0  0  0  0  0  0  0  0  0
    2.5899    1.3420    0.0000 C   0  0  2  0  0  0  0  0  0  0  0  0
    2.8448    2.1266    0.0000 C   0  0  0  0  0  0  0  0  0  0  0  0
    3.6518    2.2981    0.0000 C   0  0  0  0  0  0  0  0  0  0  0  0
    4.2649    1.7461    0.0000 C   0  0  0  0  0  0  0  0  0  0  0  0
    4.9794    2.1586    0.0000 N   0  0  0  0  0  0  0  0  0  0  0  0
    4.8078    2.9656    0.0000 C   0  0  0  0  0  0  0  0  0  0  0  0
    3.9873    3.0518    0.0000 C   0  0  0  0  0  0  0  0  0  0  0  0
    3.6518    3.8055    0.0000 C   0  0  0  0  0  0  0  0  0  0  0  0
    4.1367    4.4729    0.0000 C   0  0  0  0  0  0  0  0  0  0  0  0
    4.9572    4.3867    0.0000 C   0  0  0  0  0  0  0  0  0  0  0  0
    5.2928    3.6330    0.0000 C   0  0  0  0  0  0  0  0  0  0  0  0
    3.1419    0.7289    0.0000 N   0  0  0  0  0  0  0  0  0  0  0  0
    2.8870   -0.0557    0.0000 C   0  0  0  0  0  0  0  0  0  0  0  0
    2.0800   -0.2273    0.0000 O   0  0  0  0  0  0  0  0  0  0  0  0
    3.4390   -0.6688    0.0000 C   0  0  2  0  0  0  0  0  0  0  0  0
    4.2460   -0.4973    0.0000 C   0  0  0  0  0  0  0  0  0  0  0  0
    4.5009    0.2873    0.0000 C   0  0  0  0  0  0  0  0  0  0  0  0
    3.9489    0.9004    0.0000 O   0  0  0  0  0  0  0  0  0  0  0  0
    5.3079    0.4588    0.0000 O   0  0  0  0  0  0  0  0  0  0  0  0
    3.1841   -1.4535    0.0000 N   0  0  0  0  0  0  0  0  0  0  0  0
    3.7361   -2.0665    0.0000 C   0  0  0  0  0  0  0  0  0  0  0  0
    4.5431   -1.8950    0.0000 O   0  0  0  0  0  0  0  0  0  0  0  0
    3.4812   -2.8512    0.0000 C   0  0  0  0  0  0  0  0  0  0  0  0
    4.2881   -2.6796    0.0000 C   0  0  0  0  0  0  0  0  0  0  0  0
    4.7131   -3.4884    0.0000 C   0  0  0  0  0  0  0  0  0  0  0  0
    5.6471   -3.1212    0.0000 C   0  0  0  0  0  0  0  0  0  0  0  0
    6.3949   -3.8614    0.0000 N   0  0  0  0  0  0  0  0  0  0  0  0
    5.9021   -2.3366    0.0000 O   0  0  0  0  0  0  0  0  0  0  0  0
    4.0332   -3.4643    0.0000 N   0  0  0  0  0  0  0  0  0  0  0  0
    3.7783   -4.2489    0.0000 C   0  0  0  0  0  0  0  0  0  0  0  0
    2.9713   -4.4204    0.0000 O   0  0  0  0  0  0  0  0  0  0  0  0
    4.3303   -4.8620    0.0000 C   0  0  2  0  0  0  0  0  0  0  0  0
    5.1373   -4.6905    0.0000 C   0  0  0  0  0  0  0  0  0  0  0  0
    5.3922   -3.9058    0.0000 C   0  0  0  0  0  0  0  0  0  0  0  0
    4.9073   -3.2384    0.0000 C   0  0  0  0  0  0  0  0  0  0  0  0
    5.3922   -2.5710    0.0000 N   0  0  0  0  0  0  0  0  0  0  0  0
    5.1373   -1.7863    0.0000 C   0  0  0  0  0  0  0  0  0  0  0  0
    6.1768   -2.8259    0.0000 C   0  0  0  0  0  0  0  0  0  0  0  0
    6.1768   -3.6509    0.0000 C   0  0  0  0  0  0  0  0  0  0  0  0
    6.8913   -4.0634    0.0000 C   0  0  0  0  0  0  0  0  0  0  0  0
    7.6058   -3.6509    0.0000 C   0  0  0  0  0  0  0  0  0  0  0  0
    7.6058   -2.8259    0.0000 C   0  0  0  0  0  0  0  0  0  0  0  0
    6.8913   -2.4134    0.0000 C   0  0  0  0  0  0  0  0  0  0  0  0
    4.0753   -5.6466    0.0000 N   0  0  0  0  0  0  0  0  0  0  0  0
    4.6274   -6.2597    0.0000 C   0  0  0  0  0  0  0  0  0  0  0  0
    5.4344   -6.0882    0.0000 O   0  0  0  0  0  0  0  0  0  0  0  0
    4.3724   -7.0443    0.0000 C   0  0  0  0  0  0  0  0  0  0  0  0
    4.9245   -7.6574    0.0000 N   0  0  0  0  0  0  0  0  0  0  0  0
    4.6695   -8.4420    0.0000 C   0  0  0  0  0  0  0  0  0  0  0  0
    5.2347   -9.0430    0.0000 O   0  0  0  0  0  0  0  0  0  0  0  0
    5.1794   -6.8728    0.0000 C   0  0  0  0  0  0  0  0  0  0  0  0
    5.7314   -7.4859    0.0000 C   0  0  0  0  0  0  0  0  0  0  0  0
    5.8469   -6.3879    0.0000 C   0  0  0  0  0  0  0  0  0  0  0  0
    1.3995   -6.9458    0.0000 C   0  0  0  0  0  0  0  0  0  0  0  0
    1.1446   -7.7304    0.0000 O   0  0  0  0  0  0  0  0  0  0  0  0
    0.8475   -6.3327    0.0000 N   0  0  0  0  0  0  0  0  0  0  0  0
    1.1024   -5.5481    0.0000 C   0  0  0  0  0  0  0  0  0  0  0  0
    0.0405   -6.5042    0.0000 C   0  0  1  0  0  0  0  0  0  0  0  0
   -0.5115   -5.8911    0.0000 C   0  0  1  0  0  0  0  0  0  0  0  0
   -0.2566   -5.1065    0.0000 C   0  0  0  0  0  0  0  0  0  0  0  0
   -1.3185   -6.0627    0.0000 C   0  0  0  0  0  0  0  0  0  0  0  0
   -1.8705   -5.4496    0.0000 C   0  0  0  0  0  0  0  0  0  0  0  0
   -0.2144   -7.2889    0.0000 C   0  0  0  0  0  0  0  0  0  0  0  0
   -1.0214   -7.4604    0.0000 N   0  0  0  0  0  0  0  0  0  0  0  0
    0.3376   -7.9020    0.0000 O   0  0  0  0  0  0  0  0  0  0  0  0
    7.0772  -12.2194    0.0000 H   0  0  0  0  0  0  0  0  0  0  0  0
    6.9402  -10.3711    0.0000 H   0  0  0  0  0  0  0  0  0  0  0  0
    7.5423  -11.2557    0.0000 H   0  0  0  0  0  0  0  0  0  0  0  0
    5.1874  -12.3595    0.0000 H   0  0  0  0  0  0  0  0  0  0  0  0
    4.5853  -11.4749    0.0000 H   0  0  0  0  0  0  0  0  0  0  0  0
    6.2553  -10.6347    0.0000 H   0  0  0  0  0  0  0  0  0  0  0  0
    6.6138   -9.8916    0.0000 H   0  0  0  0  0  0  0  0  0  0  0  0
    4.9446   -9.0863    0.0000 H   0  0  0  0  0  0  0  0  0  0  0  0
    6.0117   -9.0071    0.0000 H   0  0  0  0  0  0  0  0  0  0  0  0
    4.9676  -11.6594    0.0000 H   0  0  0  0  0  0  0  0  0  0  0  0
    3.0252  -11.5907    0.0000 H   0  0  0  0  0  0  0  0  0  0  0  0
    3.5106  -12.0585    0.0000 H   0  0  0  0  0  0  0  0  0  0  0  0
    2.7161  -12.1608    0.0000 H   0  0  0  0  0  0  0  0  0  0  0  0
    2.8467  -13.9226    0.0000 H   0  0  0  0  0  0  0  0  0  0  0  0
    5.6441  -13.5456    0.0000 H   0  0  0  0  0  0  0  0  0  0  0  0
    5.1792  -14.5094    0.0000 H   0  0  0  0  0  0  0  0  0  0  0  0
    5.7119  -14.9736    0.0000 H   0  0  0  0  0  0  0  0  0  0  0  0
    4.9051  -16.6461    0.0000 H   0  0  0  0  0  0  0  0  0  0  0  0
    2.2086  -16.6664    0.0000 H   0  0  0  0  0  0  0  0  0  0  0  0
    2.0081  -15.2484    0.0000 H   0  0  0  0  0  0  0  0  0  0  0  0
    2.8151  -13.5760    0.0000 H   0  0  0  0  0  0  0  0  0  0  0  0
    5.2415   -9.2770    0.0000 H   0  0  0  0  0  0  0  0  0  0  0  0
    4.3975   -9.5524    0.0000 H   0  0  0  0  0  0  0  0  0  0  0  0
    3.6412  -10.3529    0.0000 H   0  0  0  0  0  0  0  0  0  0  0  0
    2.5539  -10.0919    0.0000 H   0  0  0  0  0  0  0  0  0  0  0  0
    0.9003   -7.7586    0.0000 H   0  0  0  0  0  0  0  0  0  0  0  0
    1.2443   -6.7560    0.0000 H   0  0  0  0  0  0  0  0  0  0  0  0
    1.1889   -6.4437    0.0000 H   0  0  0  0  0  0  0  0  0  0  0  0
    0.6914   -6.3659    0.0000 H   0  0  0  0  0  0  0  0  0  0  0  0
    1.0267   -5.7811    0.0000 H   0  0  0  0  0  0  0  0  0  0  0  0
    0.2198   -5.9526    0.0000 H   0  0  0  0  0  0  0  0  0  0  0  0
   -0.4962   -5.1575    0.0000 H   0  0  0  0  0  0  0  0  0  0  0  0
    0.3289   -3.3043    0.0000 H   0  0  0  0  0  0  0  0  0  0  0  0
   -0.7177   -3.5267    0.0000 H   0  0  0  0  0  0  0  0  0  0  0  0
   -1.1392   -5.5110    0.0000 H   0  0  0  0  0  0  0  0  0  0  0  0
   -1.8552   -4.7159    0.0000 H   0  0  0  0  0  0  0  0  0  0  0  0
   -1.0565   -2.9440    0.0000 H   0  0  0  0  0  0  0  0  0  0  0  0
   -2.4155   -2.5025    0.0000 H   0  0  0  0  0  0  0  0  0  0  0  0
   -3.6827   -3.6435    0.0000 H   0  0  0  0  0  0  0  0  0  0  0  0
   -3.3856   -5.0411    0.0000 H   0  0  0  0  0  0  0  0  0  0  0  0
    2.5753   -3.7741    0.0000 H   0  0  0  0  0  0  0  0  0  0  0  0
    0.2976   -2.2505    0.0000 H   0  0  0  0  0  0  0  0  0  0  0  0
    0.1776   -3.7703    0.0000 H   0  0  0  0  0  0  0  0  0  0  0  0
   -0.5384   -2.9752    0.0000 H   0  0  0  0  0  0  0  0  0  0  0  0
    1.0705   -0.9128    0.0000 H   0  0  0  0  0  0  0  0  0  0  0  0
   -2.2093   -1.2575    0.0000 H   0  0  0  0  0  0  0  0  0  0  0  0
   -1.3566   -3.0784    0.0000 H   0  0  0  0  0  0  0  0  0  0  0  0
   -0.1998   -2.1727    0.0000 H   0  0  0  0  0  0  0  0  0  0  0  0
    0.1354   -1.5879    0.0000 H   0  0  0  0  0  0  0  0  0  0  0  0
   -1.0568    0.0534    0.0000 H   0  0  0  0  0  0  0  0  0  0  0  0
   -0.6716   -1.7594    0.0000 H   0  0  0  0  0  0  0  0  0  0  0  0
   -1.3875   -0.9642    0.0000 H   0  0  0  0  0  0  0  0  0  0  0  0
    1.6840    0.4190    0.0000 H   0  0  0  0  0  0  0  0  0  0  0  0
   -0.2921    2.4072    0.0000 H   0  0  0  0  0  0  0  0  0  0  0  0
    0.7546    2.6296    0.0000 H   0  0  0  0  0  0  0  0  0  0  0  0
    2.5324    2.7907    0.0000 H   0  0  0  0  0  0  0  0  0  0  0  0
    0.7698    3.3633    0.0000 H   0  0  0  0  0  0  0  0  0  0  0  0
    1.8164    3.5859    0.0000 H   0  0  0  0  0  0  0  0  0  0  0  0
    1.8739    2.1372    0.0000 H   0  0  0  0  0  0  0  0  0  0  0  0
    2.1288    2.9218    0.0000 H   0  0  0  0  0  0  0  0  0  0  0  0
    3.1755    3.1442    0.0000 H   0  0  0  0  0  0  0  0  0  0  0  0
    4.1570    0.7198    0.0000 H   0  0  0  0  0  0  0  0  0  0  0  0
    5.8788    1.7582    0.0000 H   0  0  0  0  0  0  0  0  0  0  0  0
    2.6255    3.9134    0.0000 H   0  0  0  0  0  0  0  0  0  0  0  0
    3.7169    5.4157    0.0000 H   0  0  0  0  0  0  0  0  0  0  0  0
    5.5638    5.2216    0.0000 H   0  0  0  0  0  0  0  0  0  0  0  0
    6.3191    3.5251    0.0000 H   0  0  0  0  0  0  0  0  0  0  0  0
    4.1049    0.9336    0.0000 H   0  0  0  0  0  0  0  0  0  0  0  0
    3.7697    0.3488    0.0000 H   0  0  0  0  0  0  0  0  0  0  0  0
    4.9620   -1.2925    0.0000 H   0  0  0  0  0  0  0  0  0  0  0  0
    5.2926   -0.2748    0.0000 H   0  0  0  0  0  0  0  0  0  0  0  0
    4.2385    1.7915    0.0000 H   0  0  0  0  0  0  0  0  0  0  0  0
    2.2211   -1.6582    0.0000 H   0  0  0  0  0  0  0  0  0  0  0  0
    4.4988   -3.1818    0.0000 H   0  0  0  0  0  0  0  0  0  0  0  0
    4.7426   -1.7109    0.0000 H   0  0  0  0  0  0  0  0  0  0  0  0
    5.3578   -2.6555    0.0000 H   0  0  0  0  0  0  0  0  0  0  0  0
    4.3400   -4.4912    0.0000 H   0  0  0  0  0  0  0  0  0  0  0  0
    5.4766   -4.2380    0.0000 H   0  0  0  0  0  0  0  0  0  0  0  0
    6.1450   -4.8136    0.0000 H   0  0  0  0  0  0  0  0  0  0  0  0
    7.3445   -3.6017    0.0000 H   0  0  0  0  0  0  0  0  0  0  0  0
    4.9962   -3.2596    0.0000 H   0  0  0  0  0  0  0  0  0  0  0  0
    4.6610   -3.8444    0.0000 H   0  0  0  0  0  0  0  0  0  0  0  0
    5.8533   -5.4857    0.0000 H   0  0  0  0  0  0  0  0  0  0  0  0
    6.1839   -4.4680    0.0000 H   0  0  0  0  0  0  0  0  0  0  0  0
    3.8753   -3.2384    0.0000 H   0  0  0  0  0  0  0  0  0  0  0  0
    5.8533   -0.9912    0.0000 H   0  0  0  0  0  0  0  0  0  0  0  0
    4.0907   -1.5638    0.0000 H   0  0  0  0  0  0  0  0  0  0  0  0
    4.8067   -0.7686    0.0000 H   0  0  0  0  0  0  0  0  0  0  0  0
    6.8913   -5.0954    0.0000 H   0  0  0  0  0  0  0  0  0  0  0  0
    8.4995   -4.1669    0.0000 H   0  0  0  0  0  0  0  0  0  0  0  0
    8.4995   -2.3099    0.0000 H   0  0  0  0  0  0  0  0  0  0  0  0
    6.8913   -1.3814    0.0000 H   0  0  0  0  0  0  0  0  0  0  0  0
    3.1123   -5.8513    0.0000 H   0  0  0  0  0  0  0  0  0  0  0  0
    5.3900   -7.3749    0.0000 H   0  0  0  0  0  0  0  0  0  0  0  0
    5.8875   -7.4527    0.0000 H   0  0  0  0  0  0  0  0  0  0  0  0
    6.2435   -6.9847    0.0000 H   0  0  0  0  0  0  0  0  0  0  0  0
    5.4007   -8.5035    0.0000 H   0  0  0  0  0  0  0  0  0  0  0  0
    6.7780   -7.2635    0.0000 H   0  0  0  0  0  0  0  0  0  0  0  0
    6.4473   -8.2811    0.0000 H   0  0  0  0  0  0  0  0  0  0  0  0
    6.8244   -6.8232    0.0000 H   0  0  0  0  0  0  0  0  0  0  0  0
    5.7351   -5.3238    0.0000 H   0  0  0  0  0  0  0  0  0  0  0  0
    6.7126   -5.7590    0.0000 H   0  0  0  0  0  0  0  0  0  0  0  0
    2.1490   -5.3256    0.0000 H   0  0  0  0  0  0  0  0  0  0  0  0
    0.3864   -4.7530    0.0000 H   0  0  0  0  0  0  0  0  0  0  0  0
    1.4330   -4.5305    0.0000 H   0  0  0  0  0  0  0  0  0  0  0  0
    0.3712   -5.4866    0.0000 H   0  0  0  0  0  0  0  0  0  0  0  0
    0.5351   -5.6686    0.0000 H   0  0  0  0  0  0  0  0  0  0  0  0
    0.7900   -4.8840    0.0000 H   0  0  0  0  0  0  0  0  0  0  0  0
   -0.9726   -4.3114    0.0000 H   0  0  0  0  0  0  0  0  0  0  0  0
    0.0740   -4.0889    0.0000 H   0  0  0  0  0  0  0  0  0  0  0  0
   -1.6491   -7.0803    0.0000 H   0  0  0  0  0  0  0  0  0  0  0  0
   -2.3651   -6.2852    0.0000 H   0  0  0  0  0  0  0  0  0  0  0  0
   -1.5398   -4.4320    0.0000 H   0  0  0  0  0  0  0  0  0  0  0  0
   -2.9171   -5.6720    0.0000 H   0  0  0  0  0  0  0  0  0  0  0  0
   -2.5864   -4.6544    0.0000 H   0  0  0  0  0  0  0  0  0  0  0  0
   -1.6801   -6.7287    0.0000 H   0  0  0  0  0  0  0  0  0  0  0  0
   -1.3257   -8.3967    0.0000 H   0  0  0  0  0  0  0  0  0  0  0  0
  1  2  1  0  0  0  0
  1127  1  0  0  0  0
  1128  1  0  0  0  0
  1129  1  0  0  0  0
  2130  1  0  0  0  0
  2131  1  0  0  0  0
  3  2  1  0  0  0  0
  3  4  1  0  0  0  0
  3  5  1  0  0  0  0
  3132  1  6  0  0  0
  4133  1  0  0  0  0
  4134  1  0  0  0  0
  4135  1  0  0  0  0
  5  6  1  0  0  0  0
  5 19  1  0  0  0  0
  5136  1  1  0  0  0
  6  7  1  0  0  0  0
  6137  1  0  0  0  0
  7  8  2  0  0  0  0
  9  7  1  0  0  0  0
  9 10  1  0  0  0  0
  9 11  1  0  0  0  0
  9138  1  6  0  0  0
 10139  1  0  0  0  0
 10140  1  0  0  0  0
 11 12  1  0  0  0  0
 11141  1  0  0  0  0
 11142  1  0  0  0  0
 12 13  2  0  0  0  0
 12 18  1  0  0  0  0
 13 14  1  0  0  0  0
 13143  1  0  0  0  0
 14 15  2  0  0  0  0
 14144  1  0  0  0  0
 15 16  1  0  0  0  0
 15 17  1  0  0  0  0
 16145  1  0  0  0  0
 17 18  2  0  0  0  0
 17146  1  0  0  0  0
 18147  1  0  0  0  0
 19 20  2  0  0  0  0
 19 21  1  0  0  0  0
 21148  1  0  0  0  0
 22 21  1  0  0  0  0
 22 23  1  0  0  0  0
 22110  1  0  0  0  0
 22149  1  0  0  0  0
 23 24  1  0  0  0  0
 23150  1  0  0  0  0
 23151  1  0  0  0  0
 24 25  1  0  0  0  0
 25 26  1  0  0  0  0
 26152  1  0  0  0  0
 26153  1  0  0  0  0
 27 26  1  0  0  0  0
 27 28  1  0  0  0  0
 27115  1  0  0  0  0
 27154  1  0  0  0  0
 28 29  1  0  0  0  0
 28155  1  0  0  0  0
 29 30  2  0  0  0  0
 31 29  1  0  0  0  0
 31 32  1  0  0  0  0
 31 39  1  0  0  0  0
 31156  1  1  0  0  0
 32 33  1  0  0  0  0
 32157  1  0  0  0  0
 32158  1  0  0  0  0
 33 34  1  0  0  0  0
 33159  1  0  0  0  0
 33160  1  0  0  0  0
 34 35  1  0  0  0  0
 34161  1  0  0  0  0
 34162  1  0  0  0  0
 35 36  1  0  0  0  0
 35163  1  0  0  0  0
 36 37  1  0  0  0  0
 36 38  2  0  0  0  0
 37164  1  0  0  0  0
 37165  1  0  0  0  0
 38166  1  0  0  0  0
 39 40  1  0  0  0  0
 39167  1  0  0  0  0
 40 41  2  0  0  0  0
 42 40  1  0  0  0  0
 42 43  1  0  0  0  0
 42 49  1  0  0  0  0
 42168  1  0  0  0  0
 43 44  1  0  0  0  0
 43169  1  0  0  0  0
 43170  1  0  0  0  0
 44 45  2  0  0  0  0
 44 48  1  0  0  0  0
 45 46  1  0  0  0  0
 45171  1  0  0  0  0
 46 47  2  0  0  0  0
 47 48  1  0  0  0  0
 47172  1  0  0  0  0
 48173  1  0  0  0  0
 49 50  1  0  0  0  0
 49174  1  0  0  0  0
 50 51  2  0  0  0  0
 52 50  1  0  0  0  0
 52 53  1  0  0  0  0
 52 54  1  0  0  0  0
 52175  1  1  0  0  0
 53176  1  0  0  0  0
 53177  1  0  0  0  0
 53178  1  0  0  0  0
 54 55  1  0  0  0  0
 54179  1  0  0  0  0
 55 56  2  0  0  0  0
 55 57  1  0  0  0  0
 57 58  1  0  0  0  0
 57180  1  0  0  0  0
 57181  1  0  0  0  0
 58 59  1  0  0  0  0
 58 60  1  0  0  0  0
 59182  1  0  0  0  0
 59183  1  0  0  0  0
 59184  1  0  0  0  0
 60 61  2  0  0  0  0
 62 60  1  0  0  0  0
 62 63  1  0  0  0  0
 62 73  1  0  0  0  0
 62185  1  1  0  0  0
 63 64  1  0  0  0  0
 63186  1  0  0  0  0
 63187  1  0  0  0  0
 64 65  2  0  0  0  0
 64 68  1  0  0  0  0
 65 66  1  0  0  0  0
 65188  1  0  0  0  0
 66 67  1  0  0  0  0
 66189  1  0  0  0  0
 67 68  2  0  0  0  0
 67 72  1  0  0  0  0
 68 69  1  0  0  0  0
 69 70  2  0  0  0  0
 69190  1  0  0  0  0
 70 71  1  0  0  0  0
 70191  1  0  0  0  0
 71 72  2  0  0  0  0
 71192  1  0  0  0  0
 72193  1  0  0  0  0
 73 74  1  0  0  0  0
 73194  1  0  0  0  0
 74 75  2  0  0  0  0
 76 74  1  0  0  0  0
 76 77  1  0  0  0  0
 76 81  1  0  0  0  0
 76195  1  1  0  0  0
 77 78  1  0  0  0  0
 77196  1  0  0  0  0
 77197  1  0  0  0  0
 78 79  1  0  0  0  0
 78 80  2  0  0  0  0
 79198  1  0  0  0  0
 81 82  1  0  0  0  0
 81199  1  0  0  0  0
 82 83  2  0  0  0  0
 84 82  1  0  0  0  0
 84 85  1  0  0  0  0
 84 90  1  0  0  0  0
 84200  1  0  0  0  0
 85 86  1  0  0  0  0
 85201  1  0  0  0  0
 85202  1  0  0  0  0
 86 87  1  0  0  0  0
 86203  1  0  0  0  0
 86204  1  0  0  0  0
 87 88  1  0  0  0  0
 87 89  2  0  0  0  0
 88205  1  0  0  0  0
 88206  1  0  0  0  0
 90 91  1  0  0  0  0
 90207  1  0  0  0  0
 91 92  2  0  0  0  0
 93 91  1  0  0  0  0
 93 94  1  0  0  0  0
 93105  1  0  0  0  0
 93208  1  1  0  0  0
 94 95  1  0  0  0  0
 94209  1  0  0  0  0
 94210  1  0  0  0  0
 95 96  2  0  0  0  0
 95100  1  0  0  0  0
 96 97  1  0  0  0  0
 96211  1  0  0  0  0
 97 98  1  0  0  0  0
 97 99  1  0  0  0  0
 98212  1  0  0  0  0
 98213  1  0  0  0  0
 98214  1  0  0  0  0
 99100  2  0  0  0  0
 99104  1  0  0  0  0
100101  1  0  0  0  0
101102  2  0  0  0  0
101215  1  0  0  0  0
102103  1  0  0  0  0
102216  1  0  0  0  0
103104  2  0  0  0  0
103217  1  0  0  0  0
104218  1  0  0  0  0
105106  1  0  0  0  0
105219  1  0  0  0  0
106107  2  0  0  0  0
108106  1  0  0  0  0
108109  1  0  0  0  0
108112  1  0  0  0  0
108220  1  0  0  0  0
109110  1  0  0  0  0
109221  1  0  0  0  0
110111  2  0  0  0  0
112113  1  0  0  0  0
112114  1  0  0  0  0
112222  1  0  0  0  0
113223  1  0  0  0  0
113224  1  0  0  0  0
113225  1  0  0  0  0
114226  1  0  0  0  0
114227  1  0  0  0  0
114228  1  0  0  0  0
115116  2  0  0  0  0
115117  1  0  0  0  0
117118  1  0  0  0  0
118229  1  0  0  0  0
118230  1  0  0  0  0
118231  1  0  0  0  0
119117  1  0  0  0  0
119120  1  0  0  0  0
119124  1  0  0  0  0
119232  1  1  0  0  0
120121  1  0  0  0  0
120122  1  0  0  0  0
120233  1  1  0  0  0
121234  1  0  0  0  0
121235  1  0  0  0  0
121236  1  0  0  0  0
122123  1  0  0  0  0
122237  1  0  0  0  0
122238  1  0  0  0  0
123239  1  0  0  0  0
123240  1  0  0  0  0
123241  1  0  0  0  0
124125  1  0  0  0  0
124126  2  0  0  0  0
125242  1  0  0  0  0
125243  1  0  0  0  0
M  END
>  <DRUGBANK_ID>
DB14803

>  <COMMON_NAME>
AMY-101

>  <CAS_NUMBER>
1427001-89-5

>  <UNII>
4Z4DFR9BX7

>  <SYNONYMS>
AMY 101; Compstatin 40; Cp40; S3,S13-Cyclo(D-tyrolsyl-L-isoleucyl-L-cysteinyl-L-valyl-1-methyl-L-tryptophyl-L-glutaminyl-L-aspartyl-L-tryptophyl-N-methyl-L-glycyl-L-alanyl-L-histidyl-L-arginyl-L-cysteinyl-N-methyl-L-isoleucinamide)

$$$$
