
 OpenBabel10282417072D

 35 34  0  0  0  0  0  0  0  0999 V2000
   -4.2717   -0.2055    0.0000 O   0  0  0  0  0  0  0  0  0  0  0  0
   -3.5563    0.2055    0.0000 C   0  0  0  0  0  0  0  0  0  0  0  0
   -2.8492   -0.2055    0.0000 O   0  0  0  0  0  0  0  0  0  0  0  0
   -2.1338    0.2055    0.0000 C   0  0  0  0  0  0  0  0  0  0  0  0
   -1.4266   -0.2055    0.0000 C   0  0  0  0  0  0  0  0  0  0  0  0
   -0.7112    0.2055    0.0000 C   0  0  0  0  0  0  0  0  0  0  0  0
    0.0041   -0.2055    0.0000 C   0  0  0  0  0  0  0  0  0  0  0  0
    0.7112    0.2055    0.0000 C   0  0  0  0  0  0  0  0  0  0  0  0
    1.4266   -0.2055    0.0000 C   0  0  0  0  0  0  0  0  0  0  0  0
    2.1338    0.2055    0.0000 C   0  0  0  0  0  0  0  0  0  0  0  0
    2.8492   -0.2055    0.0000 C   0  0  0  0  0  0  0  0  0  0  0  0
    3.5646    0.2055    0.0000 C   0  0  0  0  0  0  0  0  0  0  0  0
    4.2717   -0.2055    0.0000 C   0  0  0  0  0  0  0  0  0  0  0  0
   -3.5537    1.2375    0.0000 H   0  0  0  0  0  0  0  0  0  0  0  0
   -2.1311    1.2755    0.0000 H   0  0  0  0  0  0  0  0  0  0  0  0
   -1.2057    0.7380    0.0000 H   0  0  0  0  0  0  0  0  0  0  0  0
   -1.4293   -1.2755    0.0000 H   0  0  0  0  0  0  0  0  0  0  0  0
   -0.5012   -0.7426    0.0000 H   0  0  0  0  0  0  0  0  0  0  0  0
   -0.7112    1.2755    0.0000 H   0  0  0  0  0  0  0  0  0  0  0  0
    0.2149    0.7414    0.0000 H   0  0  0  0  0  0  0  0  0  0  0  0
    0.0068   -1.2755    0.0000 H   0  0  0  0  0  0  0  0  0  0  0  0
    0.9322   -0.7380    0.0000 H   0  0  0  0  0  0  0  0  0  0  0  0
    0.7085    1.2755    0.0000 H   0  0  0  0  0  0  0  0  0  0  0  0
    1.6366    0.7427    0.0000 H   0  0  0  0  0  0  0  0  0  0  0  0
    1.4293   -1.2755    0.0000 H   0  0  0  0  0  0  0  0  0  0  0  0
    2.3547   -0.7380    0.0000 H   0  0  0  0  0  0  0  0  0  0  0  0
    2.1311    1.2755    0.0000 H   0  0  0  0  0  0  0  0  0  0  0  0
    3.0592    0.7426    0.0000 H   0  0  0  0  0  0  0  0  0  0  0  0
    2.8492   -1.2755    0.0000 H   0  0  0  0  0  0  0  0  0  0  0  0
    3.7753   -0.7415    0.0000 H   0  0  0  0  0  0  0  0  0  0  0  0
    3.5673    1.2755    0.0000 H   0  0  0  0  0  0  0  0  0  0  0  0
    4.4927    0.7380    0.0000 H   0  0  0  0  0  0  0  0  0  0  0  0
    4.2686   -1.2755    0.0000 H   0  0  0  0  0  0  0  0  0  0  0  0
    5.1999    0.3268    0.0000 H   0  0  0  0  0  0  0  0  0  0  0  0
    5.1968   -0.7432    0.0000 H   0  0  0  0  0  0  0  0  0  0  0  0
  1  2  2  0  0  0  0
  2  3  1  0  0  0  0
  2 14  1  0  0  0  0
  3  4  1  0  0  0  0
  4  5  1  0  0  0  0
  4 15  1  0  0  0  0
  4 16  1  0  0  0  0
  5  6  1  0  0  0  0
  5 17  1  0  0  0  0
  5 18  1  0  0  0  0
  6  7  1  0  0  0  0
  6 19  1  0  0  0  0
  6 20  1  0  0  0  0
  7  8  1  0  0  0  0
  7 21  1  0  0  0  0
  7 22  1  0  0  0  0
  8  9  1  0  0  0  0
  8 23  1  0  0  0  0
  8 24  1  0  0  0  0
  9 10  1  0  0  0  0
  9 25  1  0  0  0  0
  9 26  1  0  0  0  0
 10 11  1  0  0  0  0
 10 27  1  0  0  0  0
 10 28  1  0  0  0  0
 11 12  1  0  0  0  0
 11 29  1  0  0  0  0
 11 30  1  0  0  0  0
 12 13  1  0  0  0  0
 12 31  1  0  0  0  0
 12 32  1  0  0  0  0
 13 33  1  0  0  0  0
 13 34  1  0  0  0  0
 13 35  1  0  0  0  0
M  END
>  <DRUGBANK_ID>
DB07650

>  <COMMON_NAME>
Decyl formate

>  <CAS_NUMBER>
5451-52-5

>  <UNII>
I3X2P7V6YF

>  <SYNONYMS>
n-Decyl methanoate

$$$$
