[NO NAME]
 OpenBabel10282417072D

 65 68  0  0  1  0  0  0  0  0999 V2000
   -0.7145    0.4125    0.0000 C   0  0  1  0  0  0  0  0  0  0  0  0
   -0.7145   -0.4125    0.0000 C   0  0  0  0  0  0  0  0  0  0  0  0
    0.7145   -0.4125    0.0000 C   0  0  0  0  0  0  0  0  0  0  0  0
    0.0000   -0.8250    0.0000 C   0  0  0  0  0  0  0  0  0  0  0  0
    0.0000    0.8250    0.0000 C   0  0  2  0  0  0  0  0  0  0  0  0
    0.7145    0.4125    0.0000 C   0  0  2  0  0  0  0  0  0  0  0  0
    2.6985    1.2374    0.0000 C   0  0  2  0  0  0  0  0  0  0  0  0
    2.2134    0.5699    0.0000 C   0  0  0  0  0  0  0  0  0  0  0  0
    3.5235    1.2374    0.0000 C   0  0  0  0  0  0  0  0  0  0  0  0
    0.0000    1.6500    0.0000 C   0  0  1  0  0  0  0  0  0  0  0  0
   -0.7145    2.0625    0.0000 O   0  0  0  0  0  0  0  0  0  0  0  0
   -1.4290    0.8250    0.0000 C   0  0  0  0  0  0  0  0  0  0  0  0
   -1.4290   -0.8250    0.0000 C   0  0  0  0  0  0  0  0  0  0  0  0
   -2.1434    0.4125    0.0000 C   0  0  0  0  0  0  0  0  0  0  0  0
   -2.1434   -0.4125    0.0000 C   0  0  0  0  0  0  0  0  0  0  0  0
   -2.8579   -0.8250    0.0000 O   0  0  0  0  0  0  0  0  0  0  0  0
    0.0000    0.0000    0.0000 Cl  0  0  0  0  0  0  0  0  0  0  0  0
    0.7145    1.2374    0.0000 H   0  0  0  0  0  0  0  0  0  0  0  0
    1.4289    1.6500    0.0000 C   0  0  1  0  0  0  0  0  0  0  0  0
    1.4289    2.4749    0.0000 C   0  0  0  0  0  0  0  0  0  0  0  0
    1.4289    0.8250    0.0000 C   0  0  2  0  0  0  0  0  0  0  0  0
   -0.7145    1.2374    0.0000 C   0  0  0  0  0  0  0  0  0  0  0  0
    0.7145    2.0625    0.0000 C   0  0  0  0  0  0  0  0  0  0  0  0
    1.4289    0.0000    0.0000 H   0  0  0  0  0  0  0  0  0  0  0  0
    3.6424    1.9049    0.0000 C   0  0  0  0  0  0  0  0  0  0  0  0
    2.9280    2.3174    0.0000 C   0  0  0  0  0  0  0  0  0  0  0  0
    2.9280    3.1424    0.0000 O   0  0  0  0  0  0  0  0  0  0  0  0
    4.3569    2.3174    0.0000 O   0  0  0  0  0  0  0  0  0  0  0  0
    0.0001    3.3000    0.0000 C   0  0  0  0  0  0  0  0  0  0  0  0
    2.2134    1.9049    0.0000 C   0  0  1  0  0  0  0  0  0  0  0  0
    2.2134    2.8875    0.0000 O   0  0  0  0  0  0  0  0  0  0  0  0
    1.4289    3.3000    0.0000 C   0  0  0  0  0  0  0  0  0  0  0  0
    1.4289    4.1250    0.0000 O   0  0  0  0  0  0  0  0  0  0  0  0
    0.7145    2.8875    0.0000 C   0  0  0  0  0  0  0  0  0  0  0  0
    1.6411   -0.9475    0.0000 H   0  0  0  0  0  0  0  0  0  0  0  0
    1.6411    0.1225    0.0000 H   0  0  0  0  0  0  0  0  0  0  0  0
    0.0000   -1.8950    0.0000 H   0  0  0  0  0  0  0  0  0  0  0  0
    0.9266   -1.3600    0.0000 H   0  0  0  0  0  0  0  0  0  0  0  0
    3.1842    2.1908    0.0000 H   0  0  0  0  0  0  0  0  0  0  0  0
    2.5439   -0.4478    0.0000 H   0  0  0  0  0  0  0  0  0  0  0  0
    1.4566   -0.1865    0.0000 H   0  0  0  0  0  0  0  0  0  0  0  0
    4.0585    0.3108    0.0000 H   0  0  0  0  0  0  0  0  0  0  0  0
    4.0585    2.1640    0.0000 H   0  0  0  0  0  0  0  0  0  0  0  0
    4.5935    1.2374    0.0000 H   0  0  0  0  0  0  0  0  0  0  0  0
   -0.9266    1.1150    0.0000 H   0  0  0  0  0  0  0  0  0  0  0  0
   -0.7145    3.0325    0.0000 H   0  0  0  0  0  0  0  0  0  0  0  0
   -1.4290    1.8570    0.0000 H   0  0  0  0  0  0  0  0  0  0  0  0
   -1.4290   -1.8570    0.0000 H   0  0  0  0  0  0  0  0  0  0  0  0
   -3.0371    0.9285    0.0000 H   0  0  0  0  0  0  0  0  0  0  0  0
    2.3555    3.0099    0.0000 H   0  0  0  0  0  0  0  0  0  0  0  0
    0.5023    3.0099    0.0000 H   0  0  0  0  0  0  0  0  0  0  0  0
    1.4289    3.5449    0.0000 H   0  0  0  0  0  0  0  0  0  0  0  0
    0.2121    1.7724    0.0000 H   0  0  0  0  0  0  0  0  0  0  0  0
   -1.6411    1.7724    0.0000 H   0  0  0  0  0  0  0  0  0  0  0  0
   -0.7145    2.3074    0.0000 H   0  0  0  0  0  0  0  0  0  0  0  0
    0.7145    3.1325    0.0000 H   0  0  0  0  0  0  0  0  0  0  0  0
    1.6412    2.5975    0.0000 H   0  0  0  0  0  0  0  0  0  0  0  0
    3.6424    0.8349    0.0000 H   0  0  0  0  0  0  0  0  0  0  0  0
    4.5690    1.3699    0.0000 H   0  0  0  0  0  0  0  0  0  0  0  0
    5.1969    1.8324    0.0000 H   0  0  0  0  0  0  0  0  0  0  0  0
    0.0001    4.3700    0.0000 H   0  0  0  0  0  0  0  0  0  0  0  0
   -0.9266    2.7650    0.0000 H   0  0  0  0  0  0  0  0  0  0  0  0
   -0.9265    3.8350    0.0000 H   0  0  0  0  0  0  0  0  0  0  0  0
    0.7145    1.8175    0.0000 H   0  0  0  0  0  0  0  0  0  0  0  0
   -0.2122    2.3525    0.0000 H   0  0  0  0  0  0  0  0  0  0  0  0
  1 12  1  0  0  0  0
  1 22  1  1  0  0  0
  1  2  1  0  0  0  0
  2 13  2  0  0  0  0
  3  4  1  0  0  0  0
  3 35  1  0  0  0  0
  3 36  1  0  0  0  0
  4  2  1  0  0  0  0
  4 37  1  0  0  0  0
  4 38  1  0  0  0  0
  5  1  1  0  0  0  0
  5 10  1  0  0  0  0
  5 17  1  6  0  0  0
  6  5  1  0  0  0  0
  6  3  1  0  0  0  0
  6 18  1  1  0  0  0
  7  8  1  0  0  0  0
  7  9  1  0  0  0  0
  7 39  1  6  0  0  0
  8 40  1  0  0  0  0
  8 41  1  0  0  0  0
  9 42  1  0  0  0  0
  9 43  1  0  0  0  0
  9 44  1  0  0  0  0
 10 23  1  0  0  0  0
 10 11  1  0  0  0  0
 10 45  1  6  0  0  0
 11 46  1  0  0  0  0
 12 14  2  0  0  0  0
 12 47  1  0  0  0  0
 13 15  1  0  0  0  0
 13 48  1  0  0  0  0
 14 15  1  0  0  0  0
 14 49  1  0  0  0  0
 15 16  2  0  0  0  0
 19 30  1  0  0  0  0
 19 23  1  0  0  0  0
 19 20  1  1  0  0  0
 20 50  1  0  0  0  0
 20 51  1  0  0  0  0
 20 52  1  0  0  0  0
 21  6  1  0  0  0  0
 21  8  1  0  0  0  0
 21 19  1  0  0  0  0
 21 24  1  6  0  0  0
 22 53  1  0  0  0  0
 22 54  1  0  0  0  0
 22 55  1  0  0  0  0
 23 56  1  0  0  0  0
 23 57  1  0  0  0  0
 25 28  1  0  0  0  0
 25 58  1  0  0  0  0
 25 59  1  0  0  0  0
 26 25  1  0  0  0  0
 26 27  2  0  0  0  0
 28 60  1  0  0  0  0
 29 61  1  0  0  0  0
 29 62  1  0  0  0  0
 29 63  1  0  0  0  0
 30  7  1  0  0  0  0
 30 26  1  1  0  0  0
 30 31  1  0  0  0  0
 31 32  1  0  0  0  0
 32 34  1  0  0  0  0
 32 33  2  0  0  0  0
 34 29  1  0  0  0  0
 34 64  1  0  0  0  0
 34 65  1  0  0  0  0
M  END
>  <DRUGBANK_ID>
DB14221

>  <COMMON_NAME>
Beclomethasone 17-monopropionate

>  <CAS_NUMBER>
5534-18-9

>  <UNII>
5BGA9FD55H

>  <SYNONYMS>
17-BMP; Beclomethasone 17-propionate; Beclomethasone-17-monopropionate

$$$$
