132
 OpenBabel10282417072D

 43 46  0  0  0  0  0  0  0  0999 V2000
    3.0137   -0.2135    0.0000 C   0  0  0  0  0  0  0  0  0  0  0  0
    3.0137   -1.0385    0.0000 C   0  0  0  0  0  0  0  0  0  0  0  0
    2.2992   -1.4510    0.0000 C   0  0  0  0  0  0  0  0  0  0  0  0
    1.5848   -1.0385    0.0000 C   0  0  0  0  0  0  0  0  0  0  0  0
    1.5848   -0.2135    0.0000 C   0  0  0  0  0  0  0  0  0  0  0  0
    2.2992    0.1990    0.0000 C   0  0  0  0  0  0  0  0  0  0  0  0
    3.7282    0.1990    0.0000 C   0  0  0  0  0  0  0  0  0  0  0  0
    4.4426   -0.2135    0.0000 N   0  0  0  0  0  0  0  0  0  0  0  0
    3.7282    1.0240    0.0000 N   0  3  0  0  0  0  0  0  0  0  0  0
    0.8001   -1.2934    0.0000 N   0  0  0  0  0  0  0  0  0  0  0  0
    0.8001    0.0415    0.0000 C   0  0  0  0  0  0  0  0  0  0  0  0
    0.3152   -0.6260    0.0000 C   0  0  0  0  0  0  0  0  0  0  0  0
   -0.5098   -0.6260    0.0000 C   0  0  0  0  0  0  0  0  0  0  0  0
   -0.9223   -1.3404    0.0000 C   0  0  0  0  0  0  0  0  0  0  0  0
   -1.7473   -1.3404    0.0000 C   0  0  0  0  0  0  0  0  0  0  0  0
   -2.1598   -0.6260    0.0000 C   0  0  0  0  0  0  0  0  0  0  0  0
   -1.7473    0.0885    0.0000 C   0  0  0  0  0  0  0  0  0  0  0  0
   -0.9223    0.0885    0.0000 C   0  0  0  0  0  0  0  0  0  0  0  0
   -0.5098    0.8030    0.0000 O   0  0  0  0  0  0  0  0  0  0  0  0
   -2.1598    0.8030    0.0000 C   0  0  0  0  0  0  0  0  0  0  0  0
   -2.9848    0.8030    0.0000 C   0  0  0  0  0  0  0  0  0  0  0  0
   -3.3973    1.5175    0.0000 C   0  0  0  0  0  0  0  0  0  0  0  0
   -2.9848    2.2319    0.0000 C   0  0  0  0  0  0  0  0  0  0  0  0
   -2.1598    2.2319    0.0000 C   0  0  0  0  0  0  0  0  0  0  0  0
   -1.7473    1.5175    0.0000 C   0  0  0  0  0  0  0  0  0  0  0  0
    3.7282   -1.4510    0.0000 Cl  0  0  0  0  0  0  0  0  0  0  0  0
    2.2992   -2.4830    0.0000 H   0  0  0  0  0  0  0  0  0  0  0  0
    2.2992    1.2310    0.0000 H   0  0  0  0  0  0  0  0  0  0  0  0
    4.4426   -1.1980    0.0000 H   0  0  0  0  0  0  0  0  0  0  0  0
    5.2952    0.2787    0.0000 H   0  0  0  0  0  0  0  0  0  0  0  0
    4.5808    1.5163    0.0000 H   0  0  0  0  0  0  0  0  0  0  0  0
    2.8756    1.5162    0.0000 H   0  0  0  0  0  0  0  0  0  0  0  0
    0.4958   -2.2297    0.0000 H   0  0  0  0  0  0  0  0  0  0  0  0
    0.4812    1.0230    0.0000 H   0  0  0  0  0  0  0  0  0  0  0  0
   -0.4063   -2.2341    0.0000 H   0  0  0  0  0  0  0  0  0  0  0  0
   -2.2633   -2.2341    0.0000 H   0  0  0  0  0  0  0  0  0  0  0  0
   -3.1918   -0.6260    0.0000 H   0  0  0  0  0  0  0  0  0  0  0  0
    0.4272    0.8030    0.0000 H   0  0  0  0  0  0  0  0  0  0  0  0
   -3.5008   -0.0907    0.0000 H   0  0  0  0  0  0  0  0  0  0  0  0
   -4.4293    1.5175    0.0000 H   0  0  0  0  0  0  0  0  0  0  0  0
   -3.5008    3.1256    0.0000 H   0  0  0  0  0  0  0  0  0  0  0  0
   -1.6438    3.1256    0.0000 H   0  0  0  0  0  0  0  0  0  0  0  0
   -0.7153    1.5175    0.0000 H   0  0  0  0  0  0  0  0  0  0  0  0
  1  2  1  0  0  0  0
  1  6  2  0  0  0  0
  1  7  1  0  0  0  0
  2  3  2  0  0  0  0
  2 26  1  0  0  0  0
  3  4  1  0  0  0  0
  3 27  1  0  0  0  0
  4  5  2  0  0  0  0
  4 10  1  0  0  0  0
  5  6  1  0  0  0  0
  5 11  1  0  0  0  0
  6 28  1  0  0  0  0
  7  8  1  0  0  0  0
  7  9  2  0  0  0  0
  8 29  1  0  0  0  0
  8 30  1  0  0  0  0
  9 31  1  0  0  0  0
  9 32  1  0  0  0  0
 10 12  1  0  0  0  0
 10 33  1  0  0  0  0
 11 12  2  0  0  0  0
 11 34  1  0  0  0  0
 12 13  1  0  0  0  0
 13 14  2  0  0  0  0
 13 18  1  0  0  0  0
 14 15  1  0  0  0  0
 14 35  1  0  0  0  0
 15 16  2  0  0  0  0
 15 36  1  0  0  0  0
 16 17  1  0  0  0  0
 16 37  1  0  0  0  0
 17 18  2  0  0  0  0
 17 20  1  0  0  0  0
 18 19  1  0  0  0  0
 19 38  1  0  0  0  0
 20 21  2  0  0  0  0
 20 25  1  0  0  0  0
 21 22  1  0  0  0  0
 21 39  1  0  0  0  0
 22 23  2  0  0  0  0
 22 40  1  0  0  0  0
 23 24  1  0  0  0  0
 23 41  1  0  0  0  0
 24 25  2  0  0  0  0
 24 42  1  0  0  0  0
 25 43  1  0  0  0  0
M  CHG  1   9   1
M  END
>  <DRUGBANK_ID>
DB03865

>  <SECONDARY_ACCESSION_NUMBERS>
EXPT00023

>  <COMMON_NAME>
6-Chloro-2-(2-Hydroxy-Biphenyl-3-Yl)-1h-Indole-5-Carboxamidine

$$$$
