P28
 OpenBabel10282417072D

 44 45  0  0  0  0  0  0  0  0999 V2000
    2.8634   -2.3852    0.0000 C   0  0  0  0  0  0  0  0  0  0  0  0
    2.1489   -2.7977    0.0000 C   0  0  0  0  0  0  0  0  0  0  0  0
    1.4344   -2.3852    0.0000 C   0  0  0  0  0  0  0  0  0  0  0  0
    1.4344   -1.5602    0.0000 C   0  0  0  0  0  0  0  0  0  0  0  0
    2.1489   -1.1477    0.0000 C   0  0  0  0  0  0  0  0  0  0  0  0
    2.8634   -1.5602    0.0000 C   0  0  0  0  0  0  0  0  0  0  0  0
    3.5778   -2.7977    0.0000 C   0  0  0  0  0  0  0  0  0  0  0  0
    4.2923   -2.3852    0.0000 C   0  0  1  0  0  0  0  0  0  0  0  0
    4.2923   -1.5602    0.0000 C   0  0  0  0  0  0  0  0  0  0  0  0
    3.5778   -1.1477    0.0000 O   0  0  0  0  0  0  0  0  0  0  0  0
    5.0068   -1.1477    0.0000 O   0  0  0  0  0  0  0  0  0  0  0  0
    5.0068   -2.7977    0.0000 N   0  0  0  0  0  0  0  0  0  0  0  0
    5.7213   -2.3852    0.0000 C   0  0  0  0  0  0  0  0  0  0  0  0
    6.4357   -2.7977    0.0000 C   0  0  0  0  0  0  0  0  0  0  0  0
    5.7213   -1.5602    0.0000 O   0  0  0  0  0  0  0  0  0  0  0  0
    0.7200   -1.1477    0.0000 O   0  0  0  0  0  0  0  0  0  0  0  0
    0.7200   -0.3227    0.0000 C   0  0  0  0  0  0  0  0  0  0  0  0
    0.0055    0.0898    0.0000 C   0  0  0  0  0  0  0  0  0  0  0  0
    0.0055    0.9148    0.0000 C   0  0  0  0  0  0  0  0  0  0  0  0
   -0.7090    1.3273    0.0000 N   0  3  0  0  0  0  0  0  0  0  0  0
   -1.4235    0.9148    0.0000 O   0  0  0  0  0  0  0  0  0  0  0  0
   -0.7090    2.1523    0.0000 O   0  5  0  0  0  0  0  0  0  0  0  0
    0.7200    1.3273    0.0000 C   0  0  0  0  0  0  0  0  0  0  0  0
    0.7200    2.1523    0.0000 O   0  0  0  0  0  0  0  0  0  0  0  0
    1.4344    0.9148    0.0000 C   0  0  0  0  0  0  0  0  0  0  0  0
    2.1489    1.3273    0.0000 N   0  3  0  0  0  0  0  0  0  0  0  0
    2.8634    0.9148    0.0000 O   0  0  0  0  0  0  0  0  0  0  0  0
    2.1489    2.1523    0.0000 O   0  5  0  0  0  0  0  0  0  0  0  0
    1.4344    0.0898    0.0000 C   0  0  0  0  0  0  0  0  0  0  0  0
    3.7866   -2.0932    0.0000 H   0  0  0  0  0  0  0  0  0  0  0  0
    2.1489   -3.8297    0.0000 H   0  0  0  0  0  0  0  0  0  0  0  0
    0.5407   -2.9012    0.0000 H   0  0  0  0  0  0  0  0  0  0  0  0
    2.1489   -0.1157    0.0000 H   0  0  0  0  0  0  0  0  0  0  0  0
    3.7571   -1.0442    0.0000 H   0  0  0  0  0  0  0  0  0  0  0  0
    3.5778   -3.8677    0.0000 H   0  0  0  0  0  0  0  0  0  0  0  0
    4.5044   -3.3327    0.0000 H   0  0  0  0  0  0  0  0  0  0  0  0
    5.8183   -1.6162    0.0000 H   0  0  0  0  0  0  0  0  0  0  0  0
    5.0068   -3.7822    0.0000 H   0  0  0  0  0  0  0  0  0  0  0  0
    6.4357   -3.8677    0.0000 H   0  0  0  0  0  0  0  0  0  0  0  0
    7.3624   -2.2627    0.0000 H   0  0  0  0  0  0  0  0  0  0  0  0
    7.3623   -3.3327    0.0000 H   0  0  0  0  0  0  0  0  0  0  0  0
   -0.8882   -0.4262    0.0000 H   0  0  0  0  0  0  0  0  0  0  0  0
    1.5315    2.6208    0.0000 H   0  0  0  0  0  0  0  0  0  0  0  0
    2.3281   -0.4262    0.0000 H   0  0  0  0  0  0  0  0  0  0  0  0
  1  2  2  0  0  0  0
  1  6  1  0  0  0  0
  1  7  1  0  0  0  0
  2  3  1  0  0  0  0
  2 31  1  0  0  0  0
  3  4  2  0  0  0  0
  3 32  1  0  0  0  0
  4  5  1  0  0  0  0
  4 16  1  0  0  0  0
  5  6  2  0  0  0  0
  5 33  1  0  0  0  0
  6 34  1  0  0  0  0
  7  8  1  0  0  0  0
  7 35  1  0  0  0  0
  7 36  1  0  0  0  0
  8  9  1  0  0  0  0
  8 12  1  0  0  0  0
  8 30  1  6  0  0  0
  9 10  2  0  0  0  0
  9 11  1  0  0  0  0
 11 37  1  0  0  0  0
 12 13  1  0  0  0  0
 12 38  1  0  0  0  0
 13 14  1  0  0  0  0
 13 15  2  0  0  0  0
 14 39  1  0  0  0  0
 14 40  1  0  0  0  0
 14 41  1  0  0  0  0
 16 17  1  0  0  0  0
 17 18  2  0  0  0  0
 17 29  1  0  0  0  0
 18 19  1  0  0  0  0
 18 42  1  0  0  0  0
 19 20  1  0  0  0  0
 19 23  2  0  0  0  0
 20 21  2  0  0  0  0
 20 22  1  0  0  0  0
 23 24  1  0  0  0  0
 23 25  1  0  0  0  0
 24 43  1  0  0  0  0
 25 26  1  0  0  0  0
 25 29  2  0  0  0  0
 26 27  2  0  0  0  0
 26 28  1  0  0  0  0
 29 44  1  0  0  0  0
M  CHG  4  20   1  22  -1  26   1  28  -1
M  END
>  <DRUGBANK_ID>
DB03239

>  <SECONDARY_ACCESSION_NUMBERS>
EXPT02474

>  <COMMON_NAME>
3',5'-Dinitro-N-Acetyl-L-Thyronine

$$$$
