
 OpenBabel10282417072D

 95102  0  0  0  0  0  0  0  0999 V2000
    3.5695    6.2852    0.0000 N   0  0  0  0  0  0  0  0  0  0  0  0
    2.7445    6.2852    0.0000 C   0  0  0  0  0  0  0  0  0  0  0  0
    2.3320    5.5707    0.0000 C   0  0  0  0  0  0  0  0  0  0  0  0
    1.5070    5.5707    0.0000 C   0  0  0  0  0  0  0  0  0  0  0  0
    1.0945    6.2852    0.0000 C   0  0  0  0  0  0  0  0  0  0  0  0
    1.5070    6.9997    0.0000 C   0  0  0  0  0  0  0  0  0  0  0  0
    2.3320    6.9997    0.0000 C   0  0  0  0  0  0  0  0  0  0  0  0
    1.0945    7.7141    0.0000 C   0  0  0  0  0  0  0  0  0  0  0  0
    1.5070    8.4286    0.0000 C   0  0  0  0  0  0  0  0  0  0  0  0
    1.0945    9.1431    0.0000 C   0  0  0  0  0  0  0  0  0  0  0  0
    1.5070    9.8575    0.0000 C   0  0  0  0  0  0  0  0  0  0  0  0
    2.3320    9.8575    0.0000 C   0  0  0  0  0  0  0  0  0  0  0  0
    2.7445    9.1431    0.0000 C   0  0  0  0  0  0  0  0  0  0  0  0
    2.3320    8.4286    0.0000 C   0  0  0  0  0  0  0  0  0  0  0  0
    0.2695    7.7141    0.0000 N   0  3  0  0  0  0  0  0  0  0  0  0
   -0.1430    8.4286    0.0000 C   0  0  0  0  0  0  0  0  0  0  0  0
    0.2695    9.1431    0.0000 C   0  0  0  0  0  0  0  0  0  0  0  0
   -0.1430    9.8575    0.0000 C   0  0  0  0  0  0  0  0  0  0  0  0
    0.2695   10.5720    0.0000 C   0  0  0  0  0  0  0  0  0  0  0  0
   -0.1430   11.2865    0.0000 C   0  0  0  0  0  0  0  0  0  0  0  0
   -0.9680   11.2865    0.0000 C   0  0  0  0  0  0  0  0  0  0  0  0
   -1.3805   10.5720    0.0000 C   0  0  0  0  0  0  0  0  0  0  0  0
   -1.0449    9.8183    0.0000 C   0  0  0  0  0  0  0  0  0  0  0  0
   -1.6580    9.2663    0.0000 N   0  0  0  0  0  0  0  0  0  0  0  0
   -2.3725    9.6788    0.0000 N   0  0  0  0  0  0  0  0  0  0  0  0
   -2.2010   10.4858    0.0000 N   0  0  0  0  0  0  0  0  0  0  0  0
   -2.7530   11.0989    0.0000 C   0  0  0  0  0  0  0  0  0  0  0  0
   -3.5600   10.9273    0.0000 C   0  0  0  0  0  0  0  0  0  0  0  0
   -4.1120   11.5404    0.0000 N   0  0  0  0  0  0  0  0  0  0  0  0
   -4.9190   11.3689    0.0000 C   0  0  0  0  0  0  0  0  0  0  0  0
   -5.4710   11.9820    0.0000 C   0  0  0  0  0  0  0  0  0  0  0  0
   -5.2161   12.7666    0.0000 C   0  0  0  0  0  0  0  0  0  0  0  0
   -5.7681   13.3797    0.0000 C   0  0  0  0  0  0  0  0  0  0  0  0
   -6.5751   13.2082    0.0000 C   0  0  0  0  0  0  0  0  0  0  0  0
   -6.8300   12.4236    0.0000 C   0  0  0  0  0  0  0  0  0  0  0  0
   -6.2780   11.8105    0.0000 C   0  0  0  0  0  0  0  0  0  0  0  0
   -6.5329   11.0259    0.0000 N   0  0  0  0  0  0  0  0  0  0  0  0
   -5.9809   10.4128    0.0000 C   0  0  0  0  0  0  0  0  0  0  0  0
   -5.1739   10.5843    0.0000 C   0  0  0  0  0  0  0  0  0  0  0  0
   -4.6219    9.9712    0.0000 C   0  0  0  0  0  0  0  0  0  0  0  0
   -4.8768    9.1866    0.0000 C   0  0  0  0  0  0  0  0  0  0  0  0
   -5.6838    9.0150    0.0000 C   0  0  0  0  0  0  0  0  0  0  0  0
   -6.2358    9.6281    0.0000 C   0  0  0  0  0  0  0  0  0  0  0  0
   -0.1430    6.9997    0.0000 C   0  0  0  0  0  0  0  0  0  0  0  0
    0.2695    6.2852    0.0000 C   0  0  0  0  0  0  0  0  0  0  0  0
   -0.1430    5.5707    0.0000 C   0  0  0  0  0  0  0  0  0  0  0  0
   -0.9680    5.5707    0.0000 C   0  0  0  0  0  0  0  0  0  0  0  0
   -1.3805    6.2852    0.0000 C   0  0  0  0  0  0  0  0  0  0  0  0
   -2.2055    6.2852    0.0000 N   0  0  0  0  0  0  0  0  0  0  0  0
   -0.9680    6.9997    0.0000 C   0  0  0  0  0  0  0  0  0  0  0  0
    4.0617    5.4326    0.0000 H   0  0  0  0  0  0  0  0  0  0  0  0
    4.0617    7.1378    0.0000 H   0  0  0  0  0  0  0  0  0  0  0  0
    2.8480    4.6770    0.0000 H   0  0  0  0  0  0  0  0  0  0  0  0
    0.9910    4.6770    0.0000 H   0  0  0  0  0  0  0  0  0  0  0  0
    2.8480    7.8934    0.0000 H   0  0  0  0  0  0  0  0  0  0  0  0
    0.0625    9.1431    0.0000 H   0  0  0  0  0  0  0  0  0  0  0  0
    0.9910   10.7512    0.0000 H   0  0  0  0  0  0  0  0  0  0  0  0
    2.8480   10.7512    0.0000 H   0  0  0  0  0  0  0  0  0  0  0  0
    3.7765    9.1431    0.0000 H   0  0  0  0  0  0  0  0  0  0  0  0
    2.8480    7.5349    0.0000 H   0  0  0  0  0  0  0  0  0  0  0  0
   -1.2130    8.4286    0.0000 H   0  0  0  0  0  0  0  0  0  0  0  0
   -0.6780    9.3552    0.0000 H   0  0  0  0  0  0  0  0  0  0  0  0
    1.3395    9.1431    0.0000 H   0  0  0  0  0  0  0  0  0  0  0  0
    0.8045   10.0698    0.0000 H   0  0  0  0  0  0  0  0  0  0  0  0
   -1.2130    9.8575    0.0000 H   0  0  0  0  0  0  0  0  0  0  0  0
   -0.6780   10.7841    0.0000 H   0  0  0  0  0  0  0  0  0  0  0  0
    1.3395   10.5720    0.0000 H   0  0  0  0  0  0  0  0  0  0  0  0
    0.8045   11.4986    0.0000 H   0  0  0  0  0  0  0  0  0  0  0  0
    0.3920   12.2131    0.0000 H   0  0  0  0  0  0  0  0  0  0  0  0
   -0.6780   12.2131    0.0000 H   0  0  0  0  0  0  0  0  0  0  0  0
   -1.5030   12.2131    0.0000 H   0  0  0  0  0  0  0  0  0  0  0  0
   -2.0380   11.2865    0.0000 H   0  0  0  0  0  0  0  0  0  0  0  0
   -0.0355    9.6037    0.0000 H   0  0  0  0  0  0  0  0  0  0  0  0
   -2.4224   12.1165    0.0000 H   0  0  0  0  0  0  0  0  0  0  0  0
   -3.4690   11.8940    0.0000 H   0  0  0  0  0  0  0  0  0  0  0  0
   -3.8906    9.9097    0.0000 H   0  0  0  0  0  0  0  0  0  0  0  0
   -4.6066   10.7048    0.0000 H   0  0  0  0  0  0  0  0  0  0  0  0
   -3.8077   12.4767    0.0000 H   0  0  0  0  0  0  0  0  0  0  0  0
   -4.1695   12.9891    0.0000 H   0  0  0  0  0  0  0  0  0  0  0  0
   -4.8854   13.7842    0.0000 H   0  0  0  0  0  0  0  0  0  0  0  0
   -5.4374   14.3973    0.0000 H   0  0  0  0  0  0  0  0  0  0  0  0
   -6.4840   14.1749    0.0000 H   0  0  0  0  0  0  0  0  0  0  0  0
   -7.2911   14.0034    0.0000 H   0  0  0  0  0  0  0  0  0  0  0  0
   -7.6217   12.9857    0.0000 H   0  0  0  0  0  0  0  0  0  0  0  0
   -7.8766   12.2011    0.0000 H   0  0  0  0  0  0  0  0  0  0  0  0
   -7.1607   11.4060    0.0000 H   0  0  0  0  0  0  0  0  0  0  0  0
   -3.6125   10.1858    0.0000 H   0  0  0  0  0  0  0  0  0  0  0  0
   -4.1862    8.4197    0.0000 H   0  0  0  0  0  0  0  0  0  0  0  0
   -6.0027    8.0335    0.0000 H   0  0  0  0  0  0  0  0  0  0  0  0
   -7.2452    9.4135    0.0000 H   0  0  0  0  0  0  0  0  0  0  0  0
    0.3730    4.6770    0.0000 H   0  0  0  0  0  0  0  0  0  0  0  0
   -1.4840    4.6770    0.0000 H   0  0  0  0  0  0  0  0  0  0  0  0
   -2.6978    7.1378    0.0000 H   0  0  0  0  0  0  0  0  0  0  0  0
   -2.6977    5.4326    0.0000 H   0  0  0  0  0  0  0  0  0  0  0  0
   -1.4840    7.8934    0.0000 H   0  0  0  0  0  0  0  0  0  0  0  0
  1  2  1  0  0  0  0
  1 51  1  0  0  0  0
  1 52  1  0  0  0  0
  2  3  2  0  0  0  0
  2  7  1  0  0  0  0
  3  4  1  0  0  0  0
  3 53  1  0  0  0  0
  4  5  2  0  0  0  0
  4 54  1  0  0  0  0
  5  6  1  0  0  0  0
  5 45  1  0  0  0  0
  6  7  2  0  0  0  0
  6  8  1  0  0  0  0
  7 55  1  0  0  0  0
  8  9  1  0  0  0  0
  8 15  2  0  0  0  0
  9 10  2  0  0  0  0
  9 14  1  0  0  0  0
 10 11  1  0  0  0  0
 10 56  1  0  0  0  0
 11 12  2  0  0  0  0
 11 57  1  0  0  0  0
 12 13  1  0  0  0  0
 12 58  1  0  0  0  0
 13 14  2  0  0  0  0
 13 59  1  0  0  0  0
 14 60  1  0  0  0  0
 15 16  1  0  0  0  0
 15 44  1  0  0  0  0
 16 17  1  0  0  0  0
 16 61  1  0  0  0  0
 16 62  1  0  0  0  0
 17 18  1  0  0  0  0
 17 63  1  0  0  0  0
 17 64  1  0  0  0  0
 18 19  1  0  0  0  0
 18 65  1  0  0  0  0
 18 66  1  0  0  0  0
 19 20  1  0  0  0  0
 19 67  1  0  0  0  0
 19 68  1  0  0  0  0
 20 21  1  0  0  0  0
 20 69  1  0  0  0  0
 20 70  1  0  0  0  0
 21 22  1  0  0  0  0
 21 71  1  0  0  0  0
 21 72  1  0  0  0  0
 22 23  2  0  0  0  0
 22 26  1  0  0  0  0
 23 24  1  0  0  0  0
 23 73  1  0  0  0  0
 24 25  2  0  0  0  0
 25 26  1  0  0  0  0
 26 27  1  0  0  0  0
 27 28  1  0  0  0  0
 27 74  1  0  0  0  0
 27 75  1  0  0  0  0
 28 29  1  0  0  0  0
 28 76  1  0  0  0  0
 28 77  1  0  0  0  0
 29 30  1  0  0  0  0
 29 78  1  0  0  0  0
 30 31  2  0  0  0  0
 30 39  1  0  0  0  0
 31 32  1  0  0  0  0
 31 36  1  0  0  0  0
 32 33  1  0  0  0  0
 32 79  1  0  0  0  0
 32 80  1  0  0  0  0
 33 34  1  0  0  0  0
 33 81  1  0  0  0  0
 33 82  1  0  0  0  0
 34 35  1  0  0  0  0
 34 83  1  0  0  0  0
 34 84  1  0  0  0  0
 35 36  1  0  0  0  0
 35 85  1  0  0  0  0
 35 86  1  0  0  0  0
 36 37  2  0  0  0  0
 37 38  1  0  0  0  0
 38 39  2  0  0  0  0
 38 43  1  0  0  0  0
 39 40  1  0  0  0  0
 40 41  2  0  0  0  0
 40 87  1  0  0  0  0
 41 42  1  0  0  0  0
 41 88  1  0  0  0  0
 42 43  2  0  0  0  0
 42 89  1  0  0  0  0
 43 90  1  0  0  0  0
 44 45  2  0  0  0  0
 44 50  1  0  0  0  0
 45 46  1  0  0  0  0
 46 47  2  0  0  0  0
 46 91  1  0  0  0  0
 47 48  1  0  0  0  0
 47 92  1  0  0  0  0
 48 49  1  0  0  0  0
 48 50  2  0  0  0  0
 49 93  1  0  0  0  0
 49 94  1  0  0  0  0
 50 95  1  0  0  0  0
M  CHG  1  15   1
M  END
>  <DRUGBANK_ID>
DB03005

>  <SECONDARY_ACCESSION_NUMBERS>
EXPT03147

>  <COMMON_NAME>
3,8-Diamino-6-Phenyl-5-[6-[1-[2-[(1,2,3,4-Tetrahydro-9-Acridinyl)Amino]Ethyl]-1h-1,2,3-Triazol-5-Yl]Hexyl]-Phenanthridinium

$$$$
