
 OpenBabel10282417072D

 92 93  0  0  0  0  0  0  0  0999 V2000
   -2.7327   -0.9646    0.0000 C   0  0  0  0  0  0  0  0  0  0  0  0
   -2.7338   -1.7919    0.0000 C   0  0  0  0  0  0  0  0  0  0  0  0
   -2.0189   -2.2048    0.0000 C   0  0  0  0  0  0  0  0  0  0  0  0
   -1.3025   -1.7915    0.0000 C   0  0  0  0  0  0  0  0  0  0  0  0
   -1.3053   -0.9609    0.0000 C   0  0  0  0  0  0  0  0  0  0  0  0
   -2.0207   -0.5518    0.0000 C   0  0  0  0  0  0  0  0  0  0  0  0
   -2.0271   -3.0271    0.0000 C   0  0  0  0  0  0  0  0  0  0  0  0
   -2.7437   -3.4354    0.0000 N   0  0  0  0  0  0  0  0  0  0  0  0
   -1.3146   -3.4395    0.0000 N   0  0  0  0  0  0  0  0  0  0  0  0
   -0.5936   -0.5437    0.0000 C   0  0  0  0  0  0  0  0  0  0  0  0
   -0.5978    0.2812    0.0000 C   0  0  2  0  0  0  0  0  0  0  0  0
   -1.3146    0.6937    0.0000 N   0  0  0  0  0  0  0  0  0  0  0  0
   -2.0312    0.2854    0.0000 S   0  0  0  0  0  0  0  0  0  0  0  0
   -1.6229   -0.4270    0.0000 O   0  0  0  0  0  0  0  0  0  0  0  0
   -2.6186   -0.2978    0.0000 O   0  0  0  0  0  0  0  0  0  0  0  0
    0.1146    0.6979    0.0000 C   0  0  0  0  0  0  0  0  0  0  0  0
    0.1104    1.5228    0.0000 O   0  0  0  0  0  0  0  0  0  0  0  0
    0.8271    0.2854    0.0000 N   0  0  0  0  0  0  0  0  0  0  0  0
    0.8241   -0.5387    0.0000 C   0  0  0  0  0  0  0  0  0  0  0  0
    1.5325   -0.9511    0.0000 C   0  0  0  0  0  0  0  0  0  0  0  0
    2.2484   -0.5439    0.0000 N   0  0  0  0  0  0  0  0  0  0  0  0
    2.2514    0.2803    0.0000 C   0  0  0  0  0  0  0  0  0  0  0  0
    1.5385    0.6972    0.0000 C   0  0  0  0  0  0  0  0  0  0  0  0
    2.9604   -0.9563    0.0000 C   0  0  0  0  0  0  0  0  0  0  0  0
    2.9563   -1.7813    0.0000 O   0  0  0  0  0  0  0  0  0  0  0  0
    3.6729   -0.5395    0.0000 O   0  0  0  0  0  0  0  0  0  0  0  0
    4.3854   -0.9520    0.0000 C   0  0  0  0  0  0  0  0  0  0  0  0
    5.0979   -0.5353    0.0000 C   0  0  0  0  0  0  0  0  0  0  0  0
   -2.6186    0.8728    0.0000 C   0  0  0  0  0  0  0  0  0  0  0  0
   -2.4006    1.6758    0.0000 C   0  0  0  0  0  0  0  0  0  0  0  0
   -2.9874    2.2629    0.0000 C   0  0  0  0  0  0  0  0  0  0  0  0
   -3.7909    2.0480    0.0000 C   0  0  0  0  0  0  0  0  0  0  0  0
   -4.0045    1.2407    0.0000 C   0  0  0  0  0  0  0  0  0  0  0  0
   -3.4953    0.7237    0.0000 C   0  0  0  0  0  0  0  0  0  0  0  0
   -1.6895    2.0937    0.0000 C   0  0  0  0  0  0  0  0  0  0  0  0
   -1.4771    2.8936    0.0000 C   0  0  0  0  0  0  0  0  0  0  0  0
   -1.1062    1.5104    0.0000 C   0  0  0  0  0  0  0  0  0  0  0  0
   -4.3812    2.6396    0.0000 C   0  0  0  0  0  0  0  0  0  0  0  0
   -5.0979    2.2312    0.0000 C   0  0  0  0  0  0  0  0  0  0  0  0
   -4.1687    3.4395    0.0000 C   0  0  0  0  0  0  0  0  0  0  0  0
   -3.8145    0.0687    0.0000 C   0  0  0  0  0  0  0  0  0  0  0  0
   -4.5896   -0.0312    0.0000 C   0  0  0  0  0  0  0  0  0  0  0  0
   -3.7104   -0.6062    0.0000 C   0  0  0  0  0  0  0  0  0  0  0  0
    2.1354   -3.1563    0.0000 Cl  0  0  0  0  0  0  0  0  0  0  0  0
   -3.6266   -0.4488    0.0000 H   0  0  0  0  0  0  0  0  0  0  0  0
   -3.6279   -2.3072    0.0000 H   0  0  0  0  0  0  0  0  0  0  0  0
   -0.4080   -2.3061    0.0000 H   0  0  0  0  0  0  0  0  0  0  0  0
   -2.0238    0.4802    0.0000 H   0  0  0  0  0  0  0  0  0  0  0  0
   -3.5935   -2.9383    0.0000 H   0  0  0  0  0  0  0  0  0  0  0  0
   -1.3157   -4.4240    0.0000 H   0  0  0  0  0  0  0  0  0  0  0  0
   -0.4615   -2.9482    0.0000 H   0  0  0  0  0  0  0  0  0  0  0  0
    0.3362   -1.0733    0.0000 H   0  0  0  0  0  0  0  0  0  0  0  0
   -0.5869   -1.6137    0.0000 H   0  0  0  0  0  0  0  0  0  0  0  0
   -1.5227   -0.2568    0.0000 H   0  0  0  0  0  0  0  0  0  0  0  0
   -1.3124    1.7137    0.0000 H   0  0  0  0  0  0  0  0  0  0  0  0
   -0.1045   -1.0703    0.0000 H   0  0  0  0  0  0  0  0  0  0  0  0
   -0.1006   -0.0003    0.0000 H   0  0  0  0  0  0  0  0  0  0  0  0
    1.5271   -2.0211    0.0000 H   0  0  0  0  0  0  0  0  0  0  0  0
    2.4561   -1.4914    0.0000 H   0  0  0  0  0  0  0  0  0  0  0  0
    3.1805    0.8110    0.0000 H   0  0  0  0  0  0  0  0  0  0  0  0
    2.2568    1.3503    0.0000 H   0  0  0  0  0  0  0  0  0  0  0  0
    1.5409    1.7672    0.0000 H   0  0  0  0  0  0  0  0  0  0  0  0
    2.4672    1.2286    0.0000 H   0  0  0  0  0  0  0  0  0  0  0  0
    4.3878   -2.0220    0.0000 H   0  0  0  0  0  0  0  0  0  0  0  0
    5.3141   -1.4834    0.0000 H   0  0  0  0  0  0  0  0  0  0  0  0
    6.0275   -1.0651    0.0000 H   0  0  0  0  0  0  0  0  0  0  0  0
    5.0919    0.5347    0.0000 H   0  0  0  0  0  0  0  0  0  0  0  0
    6.0215    0.0049    0.0000 H   0  0  0  0  0  0  0  0  0  0  0  0
   -2.7199    3.2596    0.0000 H   0  0  0  0  0  0  0  0  0  0  0  0
   -5.0019    0.9758    0.0000 H   0  0  0  0  0  0  0  0  0  0  0  0
   -0.6563    2.3718    0.0000 H   0  0  0  0  0  0  0  0  0  0  0  0
   -0.4442    3.1729    0.0000 H   0  0  0  0  0  0  0  0  0  0  0  0
   -2.2354    3.6485    0.0000 H   0  0  0  0  0  0  0  0  0  0  0  0
   -1.2025    3.9278    0.0000 H   0  0  0  0  0  0  0  0  0  0  0  0
   -1.3831    0.4769    0.0000 H   0  0  0  0  0  0  0  0  0  0  0  0
   -0.0727    1.7873    0.0000 H   0  0  0  0  0  0  0  0  0  0  0  0
   -0.3496    0.7538    0.0000 H   0  0  0  0  0  0  0  0  0  0  0  0
   -5.2289    3.2925    0.0000 H   0  0  0  0  0  0  0  0  0  0  0  0
   -6.0215    2.7714    0.0000 H   0  0  0  0  0  0  0  0  0  0  0  0
   -5.1040    1.1612    0.0000 H   0  0  0  0  0  0  0  0  0  0  0  0
   -6.0276    1.7014    0.0000 H   0  0  0  0  0  0  0  0  0  0  0  0
   -3.1358    3.7186    0.0000 H   0  0  0  0  0  0  0  0  0  0  0  0
   -4.9269    4.1945    0.0000 H   0  0  0  0  0  0  0  0  0  0  0  0
   -3.8940    4.4736    0.0000 H   0  0  0  0  0  0  0  0  0  0  0  0
   -4.4576   -0.7865    0.0000 H   0  0  0  0  0  0  0  0  0  0  0  0
   -5.2387    0.8195    0.0000 H   0  0  0  0  0  0  0  0  0  0  0  0
   -5.0018   -1.0186    0.0000 H   0  0  0  0  0  0  0  0  0  0  0  0
   -5.6508   -0.1680    0.0000 H   0  0  0  0  0  0  0  0  0  0  0  0
   -4.5447   -1.2762    0.0000 H   0  0  0  0  0  0  0  0  0  0  0  0
   -2.7130   -0.9937    0.0000 H   0  0  0  0  0  0  0  0  0  0  0  0
   -3.5473   -1.6637    0.0000 H   0  0  0  0  0  0  0  0  0  0  0  0
    3.3634   -3.1563    0.0000 H   0  0  0  0  0  0  0  0  0  0  0  0
  1  2  2  0  0  0  0
  1 45  1  0  0  0  0
  2  3  1  0  0  0  0
  2 46  1  0  0  0  0
  3  7  1  0  0  0  0
  3  4  2  0  0  0  0
  4  5  1  0  0  0  0
  4 47  1  0  0  0  0
  5  6  2  0  0  0  0
  5 10  1  0  0  0  0
  6  1  1  0  0  0  0
  6 48  1  0  0  0  0
  7  8  2  0  0  0  0
  7  9  1  0  0  0  0
  8 49  1  0  0  0  0
  9 50  1  0  0  0  0
  9 51  1  0  0  0  0
 10 52  1  0  0  0  0
 10 53  1  0  0  0  0
 11 10  1  0  0  0  0
 11 12  1  0  0  0  0
 11 16  1  0  0  0  0
 11 54  1  1  0  0  0
 12 13  1  0  0  0  0
 12 55  1  0  0  0  0
 13 29  1  0  0  0  0
 13 14  2  0  0  0  0
 13 15  2  0  0  0  0
 16 17  2  0  0  0  0
 16 18  1  0  0  0  0
 18 23  1  0  0  0  0
 18 19  1  0  0  0  0
 19 20  1  0  0  0  0
 19 56  1  0  0  0  0
 19 57  1  0  0  0  0
 20 21  1  0  0  0  0
 20 58  1  0  0  0  0
 20 59  1  0  0  0  0
 21 22  1  0  0  0  0
 21 24  1  0  0  0  0
 22 23  1  0  0  0  0
 22 60  1  0  0  0  0
 22 61  1  0  0  0  0
 23 62  1  0  0  0  0
 23 63  1  0  0  0  0
 24 25  2  0  0  0  0
 24 26  1  0  0  0  0
 26 27  1  0  0  0  0
 27 28  1  0  0  0  0
 27 64  1  0  0  0  0
 27 65  1  0  0  0  0
 28 66  1  0  0  0  0
 28 67  1  0  0  0  0
 28 68  1  0  0  0  0
 29 30  2  0  0  0  0
 30 31  1  0  0  0  0
 30 35  1  0  0  0  0
 31 32  2  0  0  0  0
 31 69  1  0  0  0  0
 32 33  1  0  0  0  0
 32 38  1  0  0  0  0
 33 34  2  0  0  0  0
 33 70  1  0  0  0  0
 34 29  1  0  0  0  0
 34 41  1  0  0  0  0
 35 36  1  0  0  0  0
 35 37  1  0  0  0  0
 35 71  1  0  0  0  0
 36 72  1  0  0  0  0
 36 73  1  0  0  0  0
 36 74  1  0  0  0  0
 37 75  1  0  0  0  0
 37 76  1  0  0  0  0
 37 77  1  0  0  0  0
 38 39  1  0  0  0  0
 38 40  1  0  0  0  0
 38 78  1  0  0  0  0
 39 79  1  0  0  0  0
 39 80  1  0  0  0  0
 39 81  1  0  0  0  0
 40 82  1  0  0  0  0
 40 83  1  0  0  0  0
 40 84  1  0  0  0  0
 41 42  1  0  0  0  0
 41 43  1  0  0  0  0
 41 85  1  0  0  0  0
 42 86  1  0  0  0  0
 42 87  1  0  0  0  0
 42 88  1  0  0  0  0
 43 89  1  0  0  0  0
 43 90  1  0  0  0  0
 43 91  1  0  0  0  0
 44 92  1  0  0  0  0
M  END
>  <DRUGBANK_ID>
DB05476

>  <COMMON_NAME>
WX-UK1

>  <CAS_NUMBER>
255374-84-6

>  <UNII>
UJ925Q0P3B

$$$$
