
 OpenBabel10282417072D

 52 55  0  0  1  0  0  0  0  0999 V2000
   -2.1434    2.8875    0.0000 C   0  0  0  0  0  0  0  0  0  0  0  0
   -2.1434    2.0625    0.0000 C   0  0  0  0  0  0  0  0  0  0  0  0
   -1.4289    1.6500    0.0000 C   0  0  0  0  0  0  0  0  0  0  0  0
   -0.7145    2.0625    0.0000 C   0  0  0  0  0  0  0  0  0  0  0  0
   -0.7145    2.8875    0.0000 C   0  0  0  0  0  0  0  0  0  0  0  0
   -1.4289    3.3000    0.0000 C   0  0  0  0  0  0  0  0  0  0  0  0
   -0.0000    3.3000    0.0000 C   0  0  0  0  0  0  0  0  0  0  0  0
    0.7145    2.8875    0.0000 C   0  0  0  0  0  0  0  0  0  0  0  0
    0.7145    2.0625    0.0000 C   0  0  1  0  0  0  0  0  0  0  0  0
   -0.0000    1.6500    0.0000 O   0  0  0  0  0  0  0  0  0  0  0  0
    1.4289    1.6500    0.0000 C   0  0  0  0  0  0  0  0  0  0  0  0
    2.1434    2.0625    0.0000 N   0  0  0  0  0  0  0  0  0  0  0  0
    2.8579    1.6500    0.0000 C   0  0  0  0  0  0  0  0  0  0  0  0
    3.5724    2.0625    0.0000 C   0  0  0  0  0  0  0  0  0  0  0  0
    4.2868    1.6500    0.0000 C   0  0  0  0  0  0  0  0  0  0  0  0
    5.0013    2.0625    0.0000 C   0  0  0  0  0  0  0  0  0  0  0  0
    5.7158    1.6500    0.0000 N   0  0  0  0  0  0  0  0  0  0  0  0
    6.4694    1.9856    0.0000 C   0  0  0  0  0  0  0  0  0  0  0  0
    6.6410    2.7925    0.0000 O   0  0  0  0  0  0  0  0  0  0  0  0
    7.0215    1.3725    0.0000 C   0  0  0  0  0  0  0  0  0  0  0  0
    7.8465    1.3725    0.0000 C   0  0  0  0  0  0  0  0  0  0  0  0
    8.2590    0.6580    0.0000 C   0  0  0  0  0  0  0  0  0  0  0  0
    7.8465   -0.0565    0.0000 C   0  0  0  0  0  0  0  0  0  0  0  0
    7.0215   -0.0565    0.0000 C   0  0  0  0  0  0  0  0  0  0  0  0
    6.6090    0.6580    0.0000 C   0  0  0  0  0  0  0  0  0  0  0  0
    5.8020    0.8295    0.0000 S   0  0  0  0  0  0  0  0  0  0  0  0
    5.5389    0.0476    0.0000 O   0  0  0  0  0  0  0  0  0  0  0  0
    4.9969    0.6496    0.0000 O   0  0  0  0  0  0  0  0  0  0  0  0
   -3.0371    3.4035    0.0000 H   0  0  0  0  0  0  0  0  0  0  0  0
   -3.0371    1.5465    0.0000 H   0  0  0  0  0  0  0  0  0  0  0  0
   -1.4289    0.6180    0.0000 H   0  0  0  0  0  0  0  0  0  0  0  0
   -1.4289    4.3320    0.0000 H   0  0  0  0  0  0  0  0  0  0  0  0
    0.0000    4.3700    0.0000 H   0  0  0  0  0  0  0  0  0  0  0  0
    0.9266    3.8350    0.0000 H   0  0  0  0  0  0  0  0  0  0  0  0
    1.6411    3.4225    0.0000 H   0  0  0  0  0  0  0  0  0  0  0  0
    1.6411    2.3525    0.0000 H   0  0  0  0  0  0  0  0  0  0  0  0
    1.6412    2.5975    0.0000 H   0  0  0  0  0  0  0  0  0  0  0  0
    1.4289    0.5800    0.0000 H   0  0  0  0  0  0  0  0  0  0  0  0
    2.3555    1.1150    0.0000 H   0  0  0  0  0  0  0  0  0  0  0  0
    2.1434    3.0825    0.0000 H   0  0  0  0  0  0  0  0  0  0  0  0
    2.8579    0.5800    0.0000 H   0  0  0  0  0  0  0  0  0  0  0  0
    3.7845    1.1150    0.0000 H   0  0  0  0  0  0  0  0  0  0  0  0
    3.5724    3.1325    0.0000 H   0  0  0  0  0  0  0  0  0  0  0  0
    4.4991    2.5975    0.0000 H   0  0  0  0  0  0  0  0  0  0  0  0
    4.2868    0.5800    0.0000 H   0  0  0  0  0  0  0  0  0  0  0  0
    5.2134    1.1150    0.0000 H   0  0  0  0  0  0  0  0  0  0  0  0
    5.0013    3.1325    0.0000 H   0  0  0  0  0  0  0  0  0  0  0  0
    5.9279    2.5975    0.0000 H   0  0  0  0  0  0  0  0  0  0  0  0
    8.3625    2.2662    0.0000 H   0  0  0  0  0  0  0  0  0  0  0  0
    9.2910    0.6580    0.0000 H   0  0  0  0  0  0  0  0  0  0  0  0
    8.3625   -0.9502    0.0000 H   0  0  0  0  0  0  0  0  0  0  0  0
    6.5055   -0.9502    0.0000 H   0  0  0  0  0  0  0  0  0  0  0  0
  1  2  2  0  0  0  0
  1  6  1  0  0  0  0
  1 29  1  0  0  0  0
  2  3  1  0  0  0  0
  2 30  1  0  0  0  0
  3  4  2  0  0  0  0
  3 31  1  0  0  0  0
  4  5  1  0  0  0  0
  4 10  1  0  0  0  0
  5  6  2  0  0  0  0
  5  7  1  0  0  0  0
  6 32  1  0  0  0  0
  7  8  1  0  0  0  0
  7 33  1  0  0  0  0
  7 34  1  0  0  0  0
  8  9  1  0  0  0  0
  8 35  1  0  0  0  0
  8 36  1  0  0  0  0
  9 10  1  0  0  0  0
  9 11  1  0  0  0  0
  9 37  1  1  0  0  0
 11 12  1  0  0  0  0
 11 38  1  0  0  0  0
 11 39  1  0  0  0  0
 12 13  1  0  0  0  0
 12 40  1  0  0  0  0
 13 14  1  0  0  0  0
 13 41  1  0  0  0  0
 13 42  1  0  0  0  0
 14 15  1  0  0  0  0
 14 43  1  0  0  0  0
 14 44  1  0  0  0  0
 15 16  1  0  0  0  0
 15 45  1  0  0  0  0
 15 46  1  0  0  0  0
 16 17  1  0  0  0  0
 16 47  1  0  0  0  0
 16 48  1  0  0  0  0
 17 18  1  0  0  0  0
 17 26  1  0  0  0  0
 18 19  2  0  0  0  0
 18 20  1  0  0  0  0
 20 21  2  0  0  0  0
 20 25  1  0  0  0  0
 21 22  1  0  0  0  0
 21 49  1  0  0  0  0
 22 23  2  0  0  0  0
 22 50  1  0  0  0  0
 23 24  1  0  0  0  0
 23 51  1  0  0  0  0
 24 25  2  0  0  0  0
 24 52  1  0  0  0  0
 25 26  1  0  0  0  0
 26 27  2  0  0  0  0
 26 28  2  0  0  0  0
M  END
>  <DRUGBANK_ID>
DB06506

>  <COMMON_NAME>
Repinotan

>  <CAS_NUMBER>
144980-29-0

>  <UNII>
05PB82Z52L

>  <SYNONYMS>
Repinotan

$$$$
