
 OpenBabel10282417072D

 13 12  0  0  0  0  0  0  0  0999 V2000
    1.2375    2.1434    0.0000 O   0  0  0  0  0  0  0  0  0  0  0  0
    0.8250    1.4289    0.0000 C   0  0  0  0  0  0  0  0  0  0  0  0
    1.2375    0.7145    0.0000 C   0  0  0  0  0  0  0  0  0  0  0  0
    0.8250    0.0000    0.0000 C   0  0  0  0  0  0  0  0  0  0  0  0
    1.2375   -0.7145    0.0000 Br  0  0  0  0  0  0  0  0  0  0  0  0
    0.0000    0.0000    0.0000 C   0  0  0  0  0  0  0  0  0  0  0  0
    2.2075    2.1434    0.0000 H   0  0  0  0  0  0  0  0  0  0  0  0
   -0.2450    1.4289    0.0000 H   0  0  0  0  0  0  0  0  0  0  0  0
    0.2900    0.5022    0.0000 H   0  0  0  0  0  0  0  0  0  0  0  0
    2.3075    0.7145    0.0000 H   0  0  0  0  0  0  0  0  0  0  0  0
    1.7725   -0.2121    0.0000 H   0  0  0  0  0  0  0  0  0  0  0  0
   -0.5160    0.8937    0.0000 H   0  0  0  0  0  0  0  0  0  0  0  0
   -0.5160   -0.8937    0.0000 H   0  0  0  0  0  0  0  0  0  0  0  0
  1  2  1  0  0  0  0
  1  7  1  0  0  0  0
  2  3  1  0  0  0  0
  2  8  1  0  0  0  0
  2  9  1  0  0  0  0
  3  4  1  0  0  0  0
  3 10  1  0  0  0  0
  3 11  1  0  0  0  0
  4  5  1  0  0  0  0
  4  6  2  0  0  0  0
  6 12  1  0  0  0  0
  6 13  1  0  0  0  0
M  END
>  <DRUGBANK_ID>
DB04592

>  <COMMON_NAME>
3-Bromo-3-buten-1-ol

>  <CAS_NUMBER>
76334-36-6

>  <UNII>
T4HW642ALH

$$$$
