
 OpenBabel10282417072D

 33 33  0  0  0  0  0  0  0  0999 V2000
    1.7830    0.4202    0.0000 C   0  0  0  0  0  0  0  0  0  0  0  0
    1.7788   -0.4067    0.0000 C   0  0  0  0  0  0  0  0  0  0  0  0
    2.4936   -0.8259    0.0000 C   0  0  0  0  0  0  0  0  0  0  0  0
    3.2124   -0.4140    0.0000 C   0  0  0  0  0  0  0  0  0  0  0  0
    3.2166    0.4130    0.0000 C   0  0  0  0  0  0  0  0  0  0  0  0
    2.5019    0.8280    0.0000 C   0  0  0  0  0  0  0  0  0  0  0  0
    1.0681    0.8275    0.0000 C   0  0  0  0  0  0  0  0  0  0  0  0
    0.3534    0.4161    0.0000 C   0  0  0  0  0  0  0  0  0  0  0  0
   -0.3573    0.8233    0.0000 C   0  0  0  0  0  0  0  0  0  0  0  0
   -1.0721    0.4119    0.0000 C   0  0  0  0  0  0  0  0  0  0  0  0
   -1.7870    0.8191    0.0000 C   0  0  0  0  0  0  0  0  0  0  0  0
   -2.5018    0.4077    0.0000 C   0  0  0  0  0  0  0  0  0  0  0  0
   -3.2166    0.8150    0.0000 C   0  0  0  0  0  0  0  0  0  0  0  0
    0.3552   -0.4109    0.0000 C   0  0  0  0  0  0  0  0  0  0  0  0
   -0.3566   -0.8280    0.0000 O   0  0  0  0  0  0  0  0  0  0  0  0
    0.8820   -0.9174    0.0000 H   0  0  0  0  0  0  0  0  0  0  0  0
    2.4884   -1.8579    0.0000 H   0  0  0  0  0  0  0  0  0  0  0  0
    4.1040   -0.9337    0.0000 H   0  0  0  0  0  0  0  0  0  0  0  0
    4.1123    0.9256    0.0000 H   0  0  0  0  0  0  0  0  0  0  0  0
    2.5071    1.8600    0.0000 H   0  0  0  0  0  0  0  0  0  0  0  0
    1.0658    1.8595    0.0000 H   0  0  0  0  0  0  0  0  0  0  0  0
   -0.3583    1.8933    0.0000 H   0  0  0  0  0  0  0  0  0  0  0  0
   -1.2838    1.3585    0.0000 H   0  0  0  0  0  0  0  0  0  0  0  0
   -1.0697   -0.6581    0.0000 H   0  0  0  0  0  0  0  0  0  0  0  0
   -1.9966   -0.1268    0.0000 H   0  0  0  0  0  0  0  0  0  0  0  0
   -1.7894    1.8891    0.0000 H   0  0  0  0  0  0  0  0  0  0  0  0
   -2.7139    1.3537    0.0000 H   0  0  0  0  0  0  0  0  0  0  0  0
   -2.4995   -0.6623    0.0000 H   0  0  0  0  0  0  0  0  0  0  0  0
   -3.4263   -0.1309    0.0000 H   0  0  0  0  0  0  0  0  0  0  0  0
   -3.2227    1.8850    0.0000 H   0  0  0  0  0  0  0  0  0  0  0  0
   -4.1402    0.2748    0.0000 H   0  0  0  0  0  0  0  0  0  0  0  0
   -4.1463    1.3447    0.0000 H   0  0  0  0  0  0  0  0  0  0  0  0
    1.2512   -0.9230    0.0000 H   0  0  0  0  0  0  0  0  0  0  0  0
  1  2  1  0  0  0  0
  2  3  2  0  0  0  0
  2 16  1  0  0  0  0
  3  4  1  0  0  0  0
  3 17  1  0  0  0  0
  4  5  2  0  0  0  0
  4 18  1  0  0  0  0
  5  6  1  0  0  0  0
  5 19  1  0  0  0  0
  6  1  2  0  0  0  0
  6 20  1  0  0  0  0
  7  8  2  0  0  0  0
  7  1  1  0  0  0  0
  7 21  1  0  0  0  0
  8  9  1  0  0  0  0
  8 14  1  0  0  0  0
  9 10  1  0  0  0  0
  9 22  1  0  0  0  0
  9 23  1  0  0  0  0
 10 11  1  0  0  0  0
 10 24  1  0  0  0  0
 10 25  1  0  0  0  0
 11 12  1  0  0  0  0
 11 26  1  0  0  0  0
 11 27  1  0  0  0  0
 12 13  1  0  0  0  0
 12 28  1  0  0  0  0
 12 29  1  0  0  0  0
 13 30  1  0  0  0  0
 13 31  1  0  0  0  0
 13 32  1  0  0  0  0
 14 15  2  0  0  0  0
 14 33  1  0  0  0  0
M  END
>  <DRUGBANK_ID>
DB14175

>  <COMMON_NAME>
alpha-Amyl cinnamaldehyde

>  <CAS_NUMBER>
122-40-7

>  <UNII>
06T2G22P2C

>  <SYNONYMS>
2-(Phenylmethylene)heptanal; 2-Pentylcinnamaldehyde; alpha-Amyl cinnamaldehyde; alpha-Amylcinnamaldehyde; alpha-Pentyl-beta-phenylacrolein; Amyl cinnamal; Flomine; Jasminal; Jasminaldehyde; Jasmine aldehyde

$$$$
