
 OpenBabel10282417072D

 46 48  0  0  1  0  0  0  0  0999 V2000
   -0.9252   -6.0925    0.0000 C   0  0  0  0  0  0  0  0  0  0  0  0
   -0.7537   -5.2856    0.0000 C   0  0  2  0  0  0  0  0  0  0  0  0
   -1.3057   -4.6725    0.0000 C   0  0  0  0  0  0  0  0  0  0  0  0
   -0.8932   -3.9580    0.0000 C   0  0  0  0  0  0  0  0  0  0  0  0
   -0.0862   -4.1295    0.0000 C   0  0  0  0  0  0  0  0  0  0  0  0
    0.0000   -4.9500    0.0000 N   0  0  0  0  0  0  0  0  0  0  0  0
    0.7145   -5.3625    0.0000 C   0  0  0  0  0  0  0  0  0  0  0  0
    1.4289   -4.9500    0.0000 C   0  0  0  0  0  0  0  0  0  0  0  0
    2.1434   -5.3625    0.0000 C   0  0  0  0  0  0  0  0  0  0  0  0
    2.8579   -4.9500    0.0000 O   0  0  0  0  0  0  0  0  0  0  0  0
    3.5724   -5.3625    0.0000 C   0  0  0  0  0  0  0  0  0  0  0  0
    4.2868   -4.9500    0.0000 C   0  0  0  0  0  0  0  0  0  0  0  0
    5.0013   -5.3625    0.0000 C   0  0  0  0  0  0  0  0  0  0  0  0
    5.0013   -6.1875    0.0000 C   0  0  0  0  0  0  0  0  0  0  0  0
    4.2868   -6.6000    0.0000 C   0  0  0  0  0  0  0  0  0  0  0  0
    3.5724   -6.1875    0.0000 C   0  0  0  0  0  0  0  0  0  0  0  0
    5.7158   -6.6000    0.0000 C   0  0  0  0  0  0  0  0  0  0  0  0
    6.4302   -6.1875    0.0000 C   0  0  0  0  0  0  0  0  0  0  0  0
    7.1447   -6.6000    0.0000 C   0  0  0  0  0  0  0  0  0  0  0  0
    7.1447   -7.4250    0.0000 C   0  0  0  0  0  0  0  0  0  0  0  0
    7.8592   -7.8375    0.0000 O   0  0  0  0  0  0  0  0  0  0  0  0
    6.4302   -7.8375    0.0000 N   0  0  0  0  0  0  0  0  0  0  0  0
    5.7158   -7.4250    0.0000 N   0  0  0  0  0  0  0  0  0  0  0  0
   -1.9428   -6.4232    0.0000 H   0  0  0  0  0  0  0  0  0  0  0  0
   -0.1300   -6.8085    0.0000 H   0  0  0  0  0  0  0  0  0  0  0  0
   -1.1477   -7.1391    0.0000 H   0  0  0  0  0  0  0  0  0  0  0  0
   -1.7872   -5.5625    0.0000 H   0  0  0  0  0  0  0  0  0  0  0  0
   -2.3698   -4.7843    0.0000 H   0  0  0  0  0  0  0  0  0  0  0  0
   -1.8885   -3.7751    0.0000 H   0  0  0  0  0  0  0  0  0  0  0  0
   -1.3284   -2.9805    0.0000 H   0  0  0  0  0  0  0  0  0  0  0  0
   -0.2199   -3.1264    0.0000 H   0  0  0  0  0  0  0  0  0  0  0  0
    0.7090   -3.4135    0.0000 H   0  0  0  0  0  0  0  0  0  0  0  0
    0.9127   -4.5130    0.0000 H   0  0  0  0  0  0  0  0  0  0  0  0
    0.7145   -6.4325    0.0000 H   0  0  0  0  0  0  0  0  0  0  0  0
    1.6412   -5.8975    0.0000 H   0  0  0  0  0  0  0  0  0  0  0  0
    1.4289   -3.8800    0.0000 H   0  0  0  0  0  0  0  0  0  0  0  0
    2.3555   -4.4150    0.0000 H   0  0  0  0  0  0  0  0  0  0  0  0
    2.1434   -6.4325    0.0000 H   0  0  0  0  0  0  0  0  0  0  0  0
    3.0700   -5.8975    0.0000 H   0  0  0  0  0  0  0  0  0  0  0  0
    4.2868   -3.9180    0.0000 H   0  0  0  0  0  0  0  0  0  0  0  0
    5.8950   -4.8465    0.0000 H   0  0  0  0  0  0  0  0  0  0  0  0
    4.2868   -7.6320    0.0000 H   0  0  0  0  0  0  0  0  0  0  0  0
    2.6787   -6.7035    0.0000 H   0  0  0  0  0  0  0  0  0  0  0  0
    6.4302   -5.1555    0.0000 H   0  0  0  0  0  0  0  0  0  0  0  0
    8.0384   -6.0840    0.0000 H   0  0  0  0  0  0  0  0  0  0  0  0
    6.4302   -8.8220    0.0000 H   0  0  0  0  0  0  0  0  0  0  0  0
  1 24  1  0  0  0  0
  1 25  1  0  0  0  0
  1 26  1  0  0  0  0
  2  1  1  0  0  0  0
  2  3  1  0  0  0  0
  2  6  1  0  0  0  0
  2 27  1  1  0  0  0
  3  4  1  0  0  0  0
  3 28  1  0  0  0  0
  3 29  1  0  0  0  0
  4  5  1  0  0  0  0
  4 30  1  0  0  0  0
  4 31  1  0  0  0  0
  5  6  1  0  0  0  0
  5 32  1  0  0  0  0
  5 33  1  0  0  0  0
  6  7  1  0  0  0  0
  7  8  1  0  0  0  0
  7 34  1  0  0  0  0
  7 35  1  0  0  0  0
  8  9  1  0  0  0  0
  8 36  1  0  0  0  0
  8 37  1  0  0  0  0
  9 10  1  0  0  0  0
  9 38  1  0  0  0  0
  9 39  1  0  0  0  0
 10 11  1  0  0  0  0
 11 12  2  0  0  0  0
 11 16  1  0  0  0  0
 12 13  1  0  0  0  0
 12 40  1  0  0  0  0
 13 14  2  0  0  0  0
 13 41  1  0  0  0  0
 14 15  1  0  0  0  0
 14 17  1  0  0  0  0
 15 16  2  0  0  0  0
 15 42  1  0  0  0  0
 16 43  1  0  0  0  0
 17 18  1  0  0  0  0
 17 23  2  0  0  0  0
 18 19  2  0  0  0  0
 18 44  1  0  0  0  0
 19 20  1  0  0  0  0
 19 45  1  0  0  0  0
 20 21  2  0  0  0  0
 20 22  1  0  0  0  0
 22 23  1  0  0  0  0
 22 46  1  0  0  0  0
M  END
>  <DRUGBANK_ID>
DB12900

>  <COMMON_NAME>
Irdabisant

>  <CAS_NUMBER>
1005402-19-6

>  <UNII>
WH7ISP34KA

>  <SYNONYMS>
CEP-26401; Irdabisant

$$$$
