
 OpenBabel10282417072D

 36 36  0  0  0  0  0  0  0  0999 V2000
   -0.7144   -0.8250    0.0000 C   0  0  0  0  0  0  0  0  0  0  0  0
    0.0000   -0.4125    0.0000 C   0  0  0  0  0  0  0  0  0  0  0  0
    0.0000    0.4125    0.0000 C   0  0  0  0  0  0  0  0  0  0  0  0
   -0.7144    0.8250    0.0000 C   0  0  0  0  0  0  0  0  0  0  0  0
   -1.4289    0.4125    0.0000 C   0  0  0  0  0  0  0  0  0  0  0  0
   -1.4289   -0.4125    0.0000 C   0  0  0  0  0  0  0  0  0  0  0  0
   -0.7144    1.6500    0.0000 O   0  0  0  0  0  0  0  0  0  0  0  0
   -0.7144   -1.6500    0.0000 O   0  0  0  0  0  0  0  0  0  0  0  0
   -2.1433   -1.6500    0.0000 C   0  0  0  0  0  0  0  0  0  0  0  0
    0.7145   -0.8250    0.0000 C   0  0  0  0  0  0  0  0  0  0  0  0
    0.7144    0.8250    0.0000 C   0  0  0  0  0  0  0  0  0  0  0  0
    1.4289    0.4125    0.0000 C   0  0  0  0  0  0  0  0  0  0  0  0
    2.1433    0.8250    0.0000 C   0  0  0  0  0  0  0  0  0  0  0  0
    2.8578    0.4125    0.0000 C   0  0  0  0  0  0  0  0  0  0  0  0
    2.1433    1.6500    0.0000 C   0  0  0  0  0  0  0  0  0  0  0  0
   -2.1433    0.8249    0.0000 O   0  0  0  0  0  0  0  0  0  0  0  0
   -2.1433   -0.8250    0.0000 O   0  0  0  0  0  0  0  0  0  0  0  0
   -2.8578    0.4124    0.0000 C   0  0  0  0  0  0  0  0  0  0  0  0
   -3.0699   -2.1850    0.0000 H   0  0  0  0  0  0  0  0  0  0  0  0
   -1.2167   -2.1850    0.0000 H   0  0  0  0  0  0  0  0  0  0  0  0
   -2.1433   -2.7200    0.0000 H   0  0  0  0  0  0  0  0  0  0  0  0
    0.7145   -1.8950    0.0000 H   0  0  0  0  0  0  0  0  0  0  0  0
    1.6411   -0.2900    0.0000 H   0  0  0  0  0  0  0  0  0  0  0  0
    1.6412   -1.3600    0.0000 H   0  0  0  0  0  0  0  0  0  0  0  0
    0.7144    1.8950    0.0000 H   0  0  0  0  0  0  0  0  0  0  0  0
    1.6410    1.3600    0.0000 H   0  0  0  0  0  0  0  0  0  0  0  0
    1.4289   -0.6195    0.0000 H   0  0  0  0  0  0  0  0  0  0  0  0
    2.8578   -0.6575    0.0000 H   0  0  0  0  0  0  0  0  0  0  0  0
    3.7844    0.9475    0.0000 H   0  0  0  0  0  0  0  0  0  0  0  0
    3.7845   -0.1225    0.0000 H   0  0  0  0  0  0  0  0  0  0  0  0
    3.0699    2.1850    0.0000 H   0  0  0  0  0  0  0  0  0  0  0  0
    1.2167    2.1850    0.0000 H   0  0  0  0  0  0  0  0  0  0  0  0
    2.1433    2.7200    0.0000 H   0  0  0  0  0  0  0  0  0  0  0  0
   -3.7844    0.9474    0.0000 H   0  0  0  0  0  0  0  0  0  0  0  0
   -2.8578   -0.6576    0.0000 H   0  0  0  0  0  0  0  0  0  0  0  0
   -3.7845   -0.1226    0.0000 H   0  0  0  0  0  0  0  0  0  0  0  0
  1  2  1  0  0  0  0
  2  3  2  0  0  0  0
  4  3  1  0  0  0  0
  5  4  1  0  0  0  0
  6  1  1  0  0  0  0
  6  5  2  0  0  0  0
  7  4  2  0  0  0  0
  8  1  2  0  0  0  0
  9 17  1  0  0  0  0
  9 19  1  0  0  0  0
  9 20  1  0  0  0  0
  9 21  1  0  0  0  0
 10  2  1  0  0  0  0
 10 22  1  0  0  0  0
 10 23  1  0  0  0  0
 10 24  1  0  0  0  0
 11  3  1  0  0  0  0
 11 25  1  0  0  0  0
 11 26  1  0  0  0  0
 12 11  1  0  0  0  0
 12 27  1  0  0  0  0
 13 12  2  0  0  0  0
 14 13  1  0  0  0  0
 14 28  1  0  0  0  0
 14 29  1  0  0  0  0
 14 30  1  0  0  0  0
 15 13  1  0  0  0  0
 15 31  1  0  0  0  0
 15 32  1  0  0  0  0
 15 33  1  0  0  0  0
 16  5  1  0  0  0  0
 16 18  1  0  0  0  0
 17  6  1  0  0  0  0
 18 34  1  0  0  0  0
 18 35  1  0  0  0  0
 18 36  1  0  0  0  0
M  END
>  <DRUGBANK_ID>
DB08689

>  <COMMON_NAME>
Ubiquinone Q1

>  <CAS_NUMBER>
727-81-1

>  <UNII>
JR17826E4G

>  <SYNONYMS>
Coenzyme Q1; Coenzyme Q5; CoQ1; Ubiquinone 5; Ubiquinone-1

$$$$
