
 OpenBabel10282417072D

 63 65  0  0  0  0  0  0  0  0999 V2000
    2.8579    2.4750    0.0000 C   0  0  0  0  0  0  0  0  0  0  0  0
    2.8579    1.6500    0.0000 C   0  0  0  0  0  0  0  0  0  0  0  0
    2.1434    1.2375    0.0000 C   0  0  0  0  0  0  0  0  0  0  0  0
    2.1434    0.4125    0.0000 O   0  0  0  0  0  0  0  0  0  0  0  0
    1.4289    0.0000    0.0000 C   0  0  0  0  0  0  0  0  0  0  0  0
    1.4289   -0.8250    0.0000 C   0  0  0  0  0  0  0  0  0  0  0  0
    0.7145   -1.2375    0.0000 C   0  0  0  0  0  0  0  0  0  0  0  0
    0.7145   -2.0625    0.0000 N   0  0  0  0  0  0  0  0  0  0  0  0
    1.4289   -2.4750    0.0000 C   0  0  0  0  0  0  0  0  0  0  0  0
    2.1434   -2.0625    0.0000 O   0  0  0  0  0  0  0  0  0  0  0  0
    1.4289   -3.3000    0.0000 N   0  0  0  0  0  0  0  0  0  0  0  0
    2.1434   -3.7125    0.0000 N   0  0  0  0  0  0  0  0  0  0  0  0
    2.8579   -3.3000    0.0000 C   0  0  0  0  0  0  0  0  0  0  0  0
    2.8579   -2.4750    0.0000 C   0  0  0  0  0  0  0  0  0  0  0  0
    3.5724   -2.0625    0.0000 O   0  0  0  0  0  0  0  0  0  0  0  0
    2.1434   -4.5375    0.0000 C   0  0  0  0  0  0  0  0  0  0  0  0
    2.8579   -4.9500    0.0000 C   0  0  0  0  0  0  0  0  0  0  0  0
    2.8579   -5.7750    0.0000 C   0  0  0  0  0  0  0  0  0  0  0  0
    3.5724   -6.1875    0.0000 C   0  0  0  0  0  0  0  0  0  0  0  0
    3.5724   -7.0125    0.0000 C   0  0  0  0  0  0  0  0  0  0  0  0
    4.2868   -5.7750    0.0000 C   0  0  0  0  0  0  0  0  0  0  0  0
    2.1434   -6.1875    0.0000 C   0  0  0  0  0  0  0  0  0  0  0  0
    1.9719   -6.9945    0.0000 C   0  0  0  0  0  0  0  0  0  0  0  0
    2.5239   -7.6076    0.0000 C   0  0  0  0  0  0  0  0  0  0  0  0
    1.1514   -7.0807    0.0000 N   0  0  0  0  0  0  0  0  0  0  0  0
    0.8158   -6.3270    0.0000 N   0  0  0  0  0  0  0  0  0  0  0  0
    0.0089   -6.1555    0.0000 C   0  0  0  0  0  0  0  0  0  0  0  0
    1.4289   -5.7750    0.0000 C   0  0  0  0  0  0  0  0  0  0  0  0
    1.4289   -4.9500    0.0000 N   0  0  0  0  0  0  0  0  0  0  0  0
    0.0000   -0.8250    0.0000 C   0  0  0  0  0  0  0  0  0  0  0  0
    0.0000    0.0000    0.0000 C   0  0  0  0  0  0  0  0  0  0  0  0
   -0.7145    0.4125    0.0000 Cl  0  0  0  0  0  0  0  0  0  0  0  0
    0.7145    0.4125    0.0000 N   0  0  0  0  0  0  0  0  0  0  0  0
    3.7845    3.0100    0.0000 H   0  0  0  0  0  0  0  0  0  0  0  0
    1.9313    3.0100    0.0000 H   0  0  0  0  0  0  0  0  0  0  0  0
    2.8579    3.5450    0.0000 H   0  0  0  0  0  0  0  0  0  0  0  0
    3.7845    1.1150    0.0000 H   0  0  0  0  0  0  0  0  0  0  0  0
    2.8579    0.5800    0.0000 H   0  0  0  0  0  0  0  0  0  0  0  0
    1.2168    1.7725    0.0000 H   0  0  0  0  0  0  0  0  0  0  0  0
    1.2168    0.7025    0.0000 H   0  0  0  0  0  0  0  0  0  0  0  0
    2.3226   -1.3410    0.0000 H   0  0  0  0  0  0  0  0  0  0  0  0
   -0.1381   -2.5547    0.0000 H   0  0  0  0  0  0  0  0  0  0  0  0
    0.5763   -3.7923    0.0000 H   0  0  0  0  0  0  0  0  0  0  0  0
    3.7845   -3.8350    0.0000 H   0  0  0  0  0  0  0  0  0  0  0  0
    3.7845   -2.7650    0.0000 H   0  0  0  0  0  0  0  0  0  0  0  0
    1.9313   -1.9400    0.0000 H   0  0  0  0  0  0  0  0  0  0  0  0
    2.8579   -1.4050    0.0000 H   0  0  0  0  0  0  0  0  0  0  0  0
    4.4124   -2.5475    0.0000 H   0  0  0  0  0  0  0  0  0  0  0  0
    3.7516   -4.4340    0.0000 H   0  0  0  0  0  0  0  0  0  0  0  0
    4.4991   -6.7225    0.0000 H   0  0  0  0  0  0  0  0  0  0  0  0
    2.6458   -7.5475    0.0000 H   0  0  0  0  0  0  0  0  0  0  0  0
    4.4990   -7.5475    0.0000 H   0  0  0  0  0  0  0  0  0  0  0  0
    3.5724   -8.0825    0.0000 H   0  0  0  0  0  0  0  0  0  0  0  0
    5.2135   -6.3100    0.0000 H   0  0  0  0  0  0  0  0  0  0  0  0
    4.2868   -4.7050    0.0000 H   0  0  0  0  0  0  0  0  0  0  0  0
    5.2134   -5.2400    0.0000 H   0  0  0  0  0  0  0  0  0  0  0  0
    2.1932   -8.6252    0.0000 H   0  0  0  0  0  0  0  0  0  0  0  0
    3.5705   -7.3852    0.0000 H   0  0  0  0  0  0  0  0  0  0  0  0
    3.2398   -8.4028    0.0000 H   0  0  0  0  0  0  0  0  0  0  0  0
   -0.3218   -5.1379    0.0000 H   0  0  0  0  0  0  0  0  0  0  0  0
   -0.7071   -6.9507    0.0000 H   0  0  0  0  0  0  0  0  0  0  0  0
   -1.0377   -5.9330    0.0000 H   0  0  0  0  0  0  0  0  0  0  0  0
   -0.8937   -1.3410    0.0000 H   0  0  0  0  0  0  0  0  0  0  0  0
  1  2  1  0  0  0  0
  1 34  1  0  0  0  0
  1 35  1  0  0  0  0
  1 36  1  0  0  0  0
  2  3  1  0  0  0  0
  2 37  1  0  0  0  0
  2 38  1  0  0  0  0
  3  4  1  0  0  0  0
  3 39  1  0  0  0  0
  3 40  1  0  0  0  0
  4  5  1  0  0  0  0
  5  6  2  0  0  0  0
  5 33  1  0  0  0  0
  6  7  1  0  0  0  0
  6 41  1  0  0  0  0
  7  8  1  0  0  0  0
  7 30  2  0  0  0  0
  8  9  1  0  0  0  0
  8 42  1  0  0  0  0
  9 10  2  0  0  0  0
  9 11  1  0  0  0  0
 11 12  1  0  0  0  0
 11 43  1  0  0  0  0
 12 13  1  0  0  0  0
 12 16  1  0  0  0  0
 13 14  1  0  0  0  0
 13 44  1  0  0  0  0
 13 45  1  0  0  0  0
 14 15  1  0  0  0  0
 14 46  1  0  0  0  0
 14 47  1  0  0  0  0
 15 48  1  0  0  0  0
 16 17  2  0  0  0  0
 16 29  1  0  0  0  0
 17 18  1  0  0  0  0
 17 49  1  0  0  0  0
 18 19  1  0  0  0  0
 18 22  2  0  0  0  0
 19 20  1  0  0  0  0
 19 21  1  0  0  0  0
 19 50  1  0  0  0  0
 20 51  1  0  0  0  0
 20 52  1  0  0  0  0
 20 53  1  0  0  0  0
 21 54  1  0  0  0  0
 21 55  1  0  0  0  0
 21 56  1  0  0  0  0
 22 23  1  0  0  0  0
 22 28  1  0  0  0  0
 23 24  1  0  0  0  0
 23 25  2  0  0  0  0
 24 57  1  0  0  0  0
 24 58  1  0  0  0  0
 24 59  1  0  0  0  0
 25 26  1  0  0  0  0
 26 27  1  0  0  0  0
 26 28  1  0  0  0  0
 27 60  1  0  0  0  0
 27 61  1  0  0  0  0
 27 62  1  0  0  0  0
 28 29  2  0  0  0  0
 30 31  1  0  0  0  0
 30 63  1  0  0  0  0
 31 32  1  0  0  0  0
 31 33  2  0  0  0  0
M  END
>  <DRUGBANK_ID>
DB18296

>  <COMMON_NAME>
AB-22

>  <CAS_NUMBER>
1463913-43-0

>  <UNII>
R228S06SOH

>  <SYNONYMS>
Hydrazinecarboxamide, n-(2-chloro-6-propoxy-4-pyridinyl)-2-(1,3-dimethyl-4-(1-methylethyl)-1h-pyrazolo(3,4-b)pyridin-6-yl)-2-(2-hydroxyethyl)-; N-(2-chloro-6-propoxypyridin-4-yl)-2-(2-hydroxyethyl)-2-(4-isopropyl-1,3-dimethyl-1h-pyrazolo(3,4-b)pyridin-6-yl)hydrazinecarboxamide; N-(2-chloro-6-propoxypyridin-4-yl)-2-(2-hydroxyethyl)-2-(4-isopropyl-1,3-dimethyl-1H-pyrazolo[3,4-b]pyridin-6-yl)hydrazinecarboxamide

$$$$
