ZYU
 OpenBabel10282417072D

 26 28  0  0  0  0  0  0  0  0999 V2000
   -0.6089    0.8389    0.0000 C   0  0  0  0  0  0  0  0  0  0  0  0
   -0.6089    1.6639    0.0000 C   0  0  0  0  0  0  0  0  0  0  0  0
    0.1056    2.0764    0.0000 O   0  0  0  0  0  0  0  0  0  0  0  0
    0.8200    1.6639    0.0000 C   0  0  0  0  0  0  0  0  0  0  0  0
    0.8200    0.8389    0.0000 C   0  0  0  0  0  0  0  0  0  0  0  0
    0.1056   -0.3986    0.0000 C   0  0  0  0  0  0  0  0  0  0  0  0
    0.8200   -0.8111    0.0000 N   0  0  0  0  0  0  0  0  0  0  0  0
    0.8200   -1.6361    0.0000 C   0  0  0  0  0  0  0  0  0  0  0  0
    0.1056   -2.0486    0.0000 N   0  0  0  0  0  0  0  0  0  0  0  0
   -0.6089   -1.6361    0.0000 C   0  0  0  0  0  0  0  0  0  0  0  0
   -0.6089   -0.8111    0.0000 C   0  0  0  0  0  0  0  0  0  0  0  0
   -1.3935   -0.5561    0.0000 N   0  0  0  0  0  0  0  0  0  0  0  0
   -1.8785   -1.2236    0.0000 C   0  0  0  0  0  0  0  0  0  0  0  0
   -1.3935   -1.8910    0.0000 N   0  0  0  0  0  0  0  0  0  0  0  0
    0.1056    0.4264    0.0000 N   0  0  0  0  0  0  0  0  0  0  0  0
   -1.5355    0.3039    0.0000 H   0  0  0  0  0  0  0  0  0  0  0  0
   -0.6089   -0.2311    0.0000 H   0  0  0  0  0  0  0  0  0  0  0  0
   -1.5355    2.1989    0.0000 H   0  0  0  0  0  0  0  0  0  0  0  0
   -0.6089    2.7339    0.0000 H   0  0  0  0  0  0  0  0  0  0  0  0
    1.7467    2.1989    0.0000 H   0  0  0  0  0  0  0  0  0  0  0  0
    1.7466    1.1289    0.0000 H   0  0  0  0  0  0  0  0  0  0  0  0
    1.7467    0.3039    0.0000 H   0  0  0  0  0  0  0  0  0  0  0  0
    0.8200   -0.2311    0.0000 H   0  0  0  0  0  0  0  0  0  0  0  0
    1.7137   -2.1521    0.0000 H   0  0  0  0  0  0  0  0  0  0  0  0
   -2.9105   -1.2236    0.0000 H   0  0  0  0  0  0  0  0  0  0  0  0
   -1.6977   -2.8273    0.0000 H   0  0  0  0  0  0  0  0  0  0  0  0
  1  2  1  0  0  0  0
  1 15  1  0  0  0  0
  1 16  1  0  0  0  0
  1 17  1  0  0  0  0
  2  3  1  0  0  0  0
  2 18  1  0  0  0  0
  2 19  1  0  0  0  0
  3  4  1  0  0  0  0
  4  5  1  0  0  0  0
  4 20  1  0  0  0  0
  4 21  1  0  0  0  0
  5 15  1  0  0  0  0
  5 22  1  0  0  0  0
  5 23  1  0  0  0  0
  6  7  1  0  0  0  0
  6 11  2  0  0  0  0
  6 15  1  0  0  0  0
  7  8  2  0  0  0  0
  8  9  1  0  0  0  0
  8 24  1  0  0  0  0
  9 10  2  0  0  0  0
 10 11  1  0  0  0  0
 10 14  1  0  0  0  0
 11 12  1  0  0  0  0
 12 13  2  0  0  0  0
 13 14  1  0  0  0  0
 13 25  1  0  0  0  0
 14 26  1  0  0  0  0
M  END
>  <DRUGBANK_ID>
DB08780

>  <COMMON_NAME>
6-MORPHOLIN-4-YL-9H-PURINE

>  <UNII>
89VN5RQ48X

$$$$
