
 OpenBabel10282417072D

 44 46  0  0  1  0  0  0  0  0999 V2000
   -0.7145   -1.2375    0.0000 C   0  0  0  0  0  0  0  0  0  0  0  0
    0.0000   -1.6500    0.0000 C   0  0  0  0  0  0  0  0  0  0  0  0
    0.7145   -1.2375    0.0000 O   0  0  0  0  0  0  0  0  0  0  0  0
    0.0000   -2.4750    0.0000 N   0  0  0  0  0  0  0  0  0  0  0  0
    0.7145   -2.8875    0.0000 C   0  0  0  0  0  0  0  0  0  0  0  0
    0.7145   -3.7125    0.0000 C   0  0  1  0  0  0  0  0  0  0  0  0
    1.3819   -4.1974    0.0000 C   0  0  0  0  0  0  0  0  0  0  0  0
    1.1270   -4.9820    0.0000 N   0  0  0  0  0  0  0  0  0  0  0  0
    0.3020   -4.9820    0.0000 C   0  0  0  0  0  0  0  0  0  0  0  0
   -0.1830   -5.6495    0.0000 O   0  0  0  0  0  0  0  0  0  0  0  0
    0.0470   -4.1974    0.0000 O   0  0  0  0  0  0  0  0  0  0  0  0
    1.6119   -5.6495    0.0000 C   0  0  0  0  0  0  0  0  0  0  0  0
    2.4324   -5.5632    0.0000 C   0  0  0  0  0  0  0  0  0  0  0  0
    2.9173   -6.2307    0.0000 C   0  0  0  0  0  0  0  0  0  0  0  0
    2.5817   -6.9844    0.0000 C   0  0  0  0  0  0  0  0  0  0  0  0
    1.7613   -7.0706    0.0000 C   0  0  0  0  0  0  0  0  0  0  0  0
    1.2763   -6.4032    0.0000 C   0  0  0  0  0  0  0  0  0  0  0  0
    1.4257   -7.8243    0.0000 F   0  0  0  0  0  0  0  0  0  0  0  0
    3.0667   -7.6518    0.0000 N   0  0  0  0  0  0  0  0  0  0  0  0
    3.8871   -7.5656    0.0000 C   0  0  0  0  0  0  0  0  0  0  0  0
    4.3721   -8.2330    0.0000 C   0  0  0  0  0  0  0  0  0  0  0  0
    4.0365   -8.9867    0.0000 S   0  0  0  0  0  0  0  0  0  0  0  0
    3.2160   -9.0729    0.0000 C   0  0  0  0  0  0  0  0  0  0  0  0
    2.7311   -8.4055    0.0000 C   0  0  0  0  0  0  0  0  0  0  0  0
   -0.7145   -0.1675    0.0000 H   0  0  0  0  0  0  0  0  0  0  0  0
   -1.6411   -1.7725    0.0000 H   0  0  0  0  0  0  0  0  0  0  0  0
   -1.6412   -0.7025    0.0000 H   0  0  0  0  0  0  0  0  0  0  0  0
   -0.8526   -2.9673    0.0000 H   0  0  0  0  0  0  0  0  0  0  0  0
    1.6411   -2.3525    0.0000 H   0  0  0  0  0  0  0  0  0  0  0  0
    1.6411   -3.4225    0.0000 H   0  0  0  0  0  0  0  0  0  0  0  0
    1.6679   -3.2267    0.0000 H   0  0  0  0  0  0  0  0  0  0  0  0
    2.3995   -3.8667    0.0000 H   0  0  0  0  0  0  0  0  0  0  0  0
    2.1385   -4.9540    0.0000 H   0  0  0  0  0  0  0  0  0  0  0  0
    2.8521   -4.6204    0.0000 H   0  0  0  0  0  0  0  0  0  0  0  0
    3.9437   -6.1229    0.0000 H   0  0  0  0  0  0  0  0  0  0  0  0
    0.2500   -6.5111    0.0000 H   0  0  0  0  0  0  0  0  0  0  0  0
    4.3223   -6.5881    0.0000 H   0  0  0  0  0  0  0  0  0  0  0  0
    4.9512   -7.4537    0.0000 H   0  0  0  0  0  0  0  0  0  0  0  0
    5.4362   -8.1211    0.0000 H   0  0  0  0  0  0  0  0  0  0  0  0
    5.0010   -9.0986    0.0000 H   0  0  0  0  0  0  0  0  0  0  0  0
    2.7808  -10.0504    0.0000 H   0  0  0  0  0  0  0  0  0  0  0  0
    2.1519   -9.1847    0.0000 H   0  0  0  0  0  0  0  0  0  0  0  0
    1.6670   -8.5173    0.0000 H   0  0  0  0  0  0  0  0  0  0  0  0
    2.1022   -7.5398    0.0000 H   0  0  0  0  0  0  0  0  0  0  0  0
  1  2  1  0  0  0  0
  1 25  1  0  0  0  0
  1 26  1  0  0  0  0
  1 27  1  0  0  0  0
  2  3  2  0  0  0  0
  2  4  1  0  0  0  0
  4  5  1  0  0  0  0
  4 28  1  0  0  0  0
  5 29  1  0  0  0  0
  5 30  1  0  0  0  0
  6  5  1  0  0  0  0
  6  7  1  0  0  0  0
  6 11  1  0  0  0  0
  6 31  1  6  0  0  0
  7  8  1  0  0  0  0
  7 32  1  0  0  0  0
  7 33  1  0  0  0  0
  8  9  1  0  0  0  0
  8 12  1  0  0  0  0
  9 10  2  0  0  0  0
  9 11  1  0  0  0  0
 12 13  2  0  0  0  0
 12 17  1  0  0  0  0
 13 14  1  0  0  0  0
 13 34  1  0  0  0  0
 14 15  2  0  0  0  0
 14 35  1  0  0  0  0
 15 16  1  0  0  0  0
 15 19  1  0  0  0  0
 16 17  2  0  0  0  0
 16 18  1  0  0  0  0
 17 36  1  0  0  0  0
 19 20  1  0  0  0  0
 19 24  1  0  0  0  0
 20 21  1  0  0  0  0
 20 37  1  0  0  0  0
 20 38  1  0  0  0  0
 21 22  1  0  0  0  0
 21 39  1  0  0  0  0
 21 40  1  0  0  0  0
 22 23  1  0  0  0  0
 23 24  1  0  0  0  0
 23 41  1  0  0  0  0
 23 42  1  0  0  0  0
 24 43  1  0  0  0  0
 24 44  1  0  0  0  0
M  END
>  <DRUGBANK_ID>
DB11905

>  <COMMON_NAME>
Sutezolid

>  <CAS_NUMBER>
168828-58-8

>  <UNII>
3A71182L8P

>  <SYNONYMS>
ACETAMIDE, N-((3-(3-FLUORO-4-(4-THIOMORPHOLINYL)PHENYL)-2-OXO-5-OXAZOLIDINYL)METHYL)-, (S)-; N-{[(5S)-3-(3-fluoro-4-thiomorpholin-4-ylphenyl)-2-oxo-1,3-oxazolidin-5-yl]methyl}acetamide; Sutezolid

$$$$
