AN1
 OpenBabel10282417072D

 36 38  0  0  0  0  0  0  0  0999 V2000
   -1.2578   -2.8653    0.0000 O   0  0  0  0  0  0  0  0  0  0  0  0
   -0.5434   -2.4528    0.0000 C   0  0  0  0  0  0  0  0  0  0  0  0
    0.1711   -2.8653    0.0000 O   0  0  0  0  0  0  0  0  0  0  0  0
   -0.5434   -1.6278    0.0000 C   0  0  0  0  0  0  0  0  0  0  0  0
    0.1711   -1.2153    0.0000 C   0  0  0  0  0  0  0  0  0  0  0  0
    0.1711   -0.3903    0.0000 C   0  0  0  0  0  0  0  0  0  0  0  0
    0.8856    0.0222    0.0000 C   0  0  0  0  0  0  0  0  0  0  0  0
    1.6000   -0.3903    0.0000 C   0  0  0  0  0  0  0  0  0  0  0  0
    2.3145    0.0222    0.0000 C   0  0  0  0  0  0  0  0  0  0  0  0
    2.3145    0.8472    0.0000 C   0  0  0  0  0  0  0  0  0  0  0  0
    1.6000    1.2597    0.0000 C   0  0  0  0  0  0  0  0  0  0  0  0
    0.8856    0.8472    0.0000 C   0  0  0  0  0  0  0  0  0  0  0  0
    0.1711    1.2597    0.0000 C   0  0  0  0  0  0  0  0  0  0  0  0
   -0.5434    0.8472    0.0000 C   0  0  0  0  0  0  0  0  0  0  0  0
   -0.5434    0.0222    0.0000 C   0  0  0  0  0  0  0  0  0  0  0  0
   -1.2578   -0.3903    0.0000 C   0  0  0  0  0  0  0  0  0  0  0  0
   -1.9723    0.0222    0.0000 C   0  0  0  0  0  0  0  0  0  0  0  0
   -1.9723    0.8472    0.0000 C   0  0  0  0  0  0  0  0  0  0  0  0
   -1.2578    1.2597    0.0000 C   0  0  0  0  0  0  0  0  0  0  0  0
    0.1711    2.0847    0.0000 C   0  0  0  0  0  0  0  0  0  0  0  0
   -2.0693   -2.3968    0.0000 H   0  0  0  0  0  0  0  0  0  0  0  0
   -1.4700   -1.0928    0.0000 H   0  0  0  0  0  0  0  0  0  0  0  0
   -0.5434   -0.5578    0.0000 H   0  0  0  0  0  0  0  0  0  0  0  0
    1.0977   -1.7503    0.0000 H   0  0  0  0  0  0  0  0  0  0  0  0
    1.0977   -0.6803    0.0000 H   0  0  0  0  0  0  0  0  0  0  0  0
    1.6000   -1.4223    0.0000 H   0  0  0  0  0  0  0  0  0  0  0  0
    3.2082   -0.4938    0.0000 H   0  0  0  0  0  0  0  0  0  0  0  0
    3.2082    1.3632    0.0000 H   0  0  0  0  0  0  0  0  0  0  0  0
    1.6000    2.2917    0.0000 H   0  0  0  0  0  0  0  0  0  0  0  0
   -1.2578   -1.4223    0.0000 H   0  0  0  0  0  0  0  0  0  0  0  0
   -2.8660   -0.4938    0.0000 H   0  0  0  0  0  0  0  0  0  0  0  0
   -2.8660    1.3632    0.0000 H   0  0  0  0  0  0  0  0  0  0  0  0
   -1.2578    2.2917    0.0000 H   0  0  0  0  0  0  0  0  0  0  0  0
    1.0977    2.6197    0.0000 H   0  0  0  0  0  0  0  0  0  0  0  0
   -0.7555    2.6197    0.0000 H   0  0  0  0  0  0  0  0  0  0  0  0
    0.1711    3.1547    0.0000 H   0  0  0  0  0  0  0  0  0  0  0  0
  1  2  1  0  0  0  0
  1 21  1  0  0  0  0
  2  3  2  0  0  0  0
  2  4  1  0  0  0  0
  4  5  1  0  0  0  0
  4 22  1  0  0  0  0
  4 23  1  0  0  0  0
  5  6  1  0  0  0  0
  5 24  1  0  0  0  0
  5 25  1  0  0  0  0
  6  7  2  0  0  0  0
  6 15  1  0  0  0  0
  7  8  1  0  0  0  0
  7 12  1  0  0  0  0
  8  9  2  0  0  0  0
  8 26  1  0  0  0  0
  9 10  1  0  0  0  0
  9 27  1  0  0  0  0
 10 11  2  0  0  0  0
 10 28  1  0  0  0  0
 11 12  1  0  0  0  0
 11 29  1  0  0  0  0
 12 13  2  0  0  0  0
 13 14  1  0  0  0  0
 13 20  1  0  0  0  0
 14 15  2  0  0  0  0
 14 19  1  0  0  0  0
 15 16  1  0  0  0  0
 16 17  2  0  0  0  0
 16 30  1  0  0  0  0
 17 18  1  0  0  0  0
 17 31  1  0  0  0  0
 18 19  2  0  0  0  0
 18 32  1  0  0  0  0
 19 33  1  0  0  0  0
 20 34  1  0  0  0  0
 20 35  1  0  0  0  0
 20 36  1  0  0  0  0
M  END
>  <DRUGBANK_ID>
DB07371

>  <COMMON_NAME>
3-(10-methyl-9-anthryl)propanoic acid

>  <SYNONYMS>
3-(10-methyl-9-anthryl)propionic acid; 3-(10-METHYL-ANTHRACEN-9-YL)-PROPIONIC ACID

$$$$
