
 OpenBabel10282417072D

 48 46  0  0  0  0  0  0  0  0999 V2000
   -4.9107    0.6875    0.0000 O   0  0  0  0  0  0  0  0  0  0  0  0
   -4.2036    0.2750    0.0000 C   0  0  0  0  0  0  0  0  0  0  0  0
   -3.4866    0.6875    0.0000 C   0  0  2  0  0  0  0  0  0  0  0  0
   -2.7794    0.2750    0.0000 C   0  0  2  0  0  0  0  0  0  0  0  0
   -2.0625    0.6875    0.0000 C   0  0  1  0  0  0  0  0  0  0  0  0
   -1.3651    0.2750    0.0000 C   0  0  2  0  0  0  0  0  0  0  0  0
   -0.6482    0.6875    0.0000 C   0  0  0  0  0  0  0  0  0  0  0  0
    0.0687    0.2750    0.0000 O   0  0  0  0  0  0  0  0  0  0  0  0
   -3.4866    1.5125    0.0000 O   0  0  0  0  0  0  0  0  0  0  0  0
   -2.7794   -0.5401    0.0000 O   0  0  0  0  0  0  0  0  0  0  0  0
   -2.0625    1.5125    0.0000 O   0  0  0  0  0  0  0  0  0  0  0  0
   -1.3651   -0.5401    0.0000 O   0  0  0  0  0  0  0  0  0  0  0  0
   -0.6482    1.5125    0.0000 O   0  0  0  0  0  0  0  0  0  0  0  0
    0.7759    0.6875    0.0000 Al  0  0  0  0  0  0  0  0  0  0  0  0
    1.4830    0.2750    0.0000 O   0  0  0  0  0  0  0  0  0  0  0  0
    0.7759    1.5125    0.0000 O   0  0  0  0  0  0  0  0  0  0  0  0
    3.6731   -0.0883    0.0000 C   0  0  0  0  0  0  0  0  0  0  0  0
    4.4981   -0.0883    0.0000 C   0  0  0  0  0  0  0  0  0  0  0  0
    3.2607    0.6187    0.0000 N   0  0  0  0  0  0  0  0  0  0  0  0
    3.2607   -0.8053    0.0000 C   0  0  0  0  0  0  0  0  0  0  0  0
    4.0856   -0.8053    0.0000 C   0  0  0  0  0  0  0  0  0  0  0  0
    4.9107   -0.8053    0.0000 O   0  0  0  0  0  0  0  0  0  0  0  0
    2.4454   -0.8053    0.0000 O   0  0  0  0  0  0  0  0  0  0  0  0
    3.6731   -1.5125    0.0000 O   0  0  0  0  0  0  0  0  0  0  0  0
   -4.9063    1.6575    0.0000 H   0  0  0  0  0  0  0  0  0  0  0  0
   -4.2068   -0.7950    0.0000 H   0  0  0  0  0  0  0  0  0  0  0  0
   -3.2782   -0.2621    0.0000 H   0  0  0  0  0  0  0  0  0  0  0  0
   -4.4128    1.2232    0.0000 H   0  0  0  0  0  0  0  0  0  0  0  0
   -3.7072   -0.2579    0.0000 H   0  0  0  0  0  0  0  0  0  0  0  0
   -2.9888    1.2232    0.0000 H   0  0  0  0  0  0  0  0  0  0  0  0
   -2.2946   -0.2551    0.0000 H   0  0  0  0  0  0  0  0  0  0  0  0
   -2.6466    1.9975    0.0000 H   0  0  0  0  0  0  0  0  0  0  0  0
   -3.6194   -1.0251    0.0000 H   0  0  0  0  0  0  0  0  0  0  0  0
   -1.2225    1.9975    0.0000 H   0  0  0  0  0  0  0  0  0  0  0  0
   -2.2051   -1.0251    0.0000 H   0  0  0  0  0  0  0  0  0  0  0  0
    1.4786   -0.6950    0.0000 H   0  0  0  0  0  0  0  0  0  0  0  0
    1.6159    1.9975    0.0000 H   0  0  0  0  0  0  0  0  0  0  0  0
    5.0338    0.8380    0.0000 H   0  0  0  0  0  0  0  0  0  0  0  0
    5.5681   -0.0894    0.0000 H   0  0  0  0  0  0  0  0  0  0  0  0
    3.7668    1.5043    0.0000 H   0  0  0  0  0  0  0  0  0  0  0  0
    2.2407    0.6142    0.0000 H   0  0  0  0  0  0  0  0  0  0  0  0
    3.7965   -1.7315    0.0000 H   0  0  0  0  0  0  0  0  0  0  0  0
    2.7261   -1.7322    0.0000 H   0  0  0  0  0  0  0  0  0  0  0  0
    5.1556   -0.8085    0.0000 H   0  0  0  0  0  0  0  0  0  0  0  0
    4.6172   -1.7339    0.0000 H   0  0  0  0  0  0  0  0  0  0  0  0
    4.4245   -1.6447    0.0000 H   0  0  0  0  0  0  0  0  0  0  0  0
    1.9604    0.0347    0.0000 H   0  0  0  0  0  0  0  0  0  0  0  0
    2.7031   -1.5082    0.0000 H   0  0  0  0  0  0  0  0  0  0  0  0
  1  2  1  0  0  0  0
  1 25  1  0  0  0  0
  2  3  1  0  0  0  0
  2 26  1  0  0  0  0
  2 27  1  0  0  0  0
  3  4  1  0  0  0  0
  3  9  1  0  0  0  0
  3 28  1  6  0  0  0
  4  5  1  0  0  0  0
  4 10  1  0  0  0  0
  4 29  1  1  0  0  0
  5  6  1  0  0  0  0
  5 11  1  0  0  0  0
  5 30  1  1  0  0  0
  6  7  1  0  0  0  0
  6 12  1  0  0  0  0
  6 31  1  1  0  0  0
  7  8  1  0  0  0  0
  7 13  2  0  0  0  0
  8 14  1  0  0  0  0
  9 32  1  0  0  0  0
 10 33  1  0  0  0  0
 11 34  1  0  0  0  0
 12 35  1  0  0  0  0
 14 15  1  0  0  0  0
 14 16  1  0  0  0  0
 15 36  1  0  0  0  0
 16 37  1  0  0  0  0
 17 18  1  0  0  0  0
 17 19  1  0  0  0  0
 17 20  1  0  0  0  0
 17 21  1  0  0  0  0
 18 22  1  0  0  0  0
 18 38  1  0  0  0  0
 18 39  1  0  0  0  0
 19 40  1  0  0  0  0
 19 41  1  0  0  0  0
 20 23  1  0  0  0  0
 20 42  1  0  0  0  0
 20 43  1  0  0  0  0
 21 24  1  0  0  0  0
 21 44  1  0  0  0  0
 21 45  1  0  0  0  0
 22 46  1  0  0  0  0
 23 47  1  0  0  0  0
 24 48  1  0  0  0  0
M  END
>  <DRUGBANK_ID>
DB13650

>  <COMMON_NAME>
Aloglutamol

>  <CAS_NUMBER>
13755-41-4

>  <UNII>
I670EI8M2N

>  <SYNONYMS>
Trometamolgluconate aluminum

$$$$
