
 OpenBabel10282417072D

 37 40  0  0  0  0  0  0  0  0999 V2000
   -0.4124    2.6427    0.0000 S   0  0  0  0  0  0  0  0  0  0  0  0
    0.3446   -0.7996    0.0000 S   0  0  0  0  0  0  0  0  0  0  0  0
    2.5654    1.0771    0.0000 O   0  0  0  0  0  0  0  0  0  0  0  0
    1.1878    1.4573    0.0000 O   0  0  0  0  0  0  0  0  0  0  0  0
    2.3882   -2.8678    0.0000 O   0  0  0  0  0  0  0  0  0  0  0  0
    0.9821   -3.1230    0.0000 O   0  0  0  0  0  0  0  0  0  0  0  0
   -0.8250    1.3731    0.0000 N   0  0  0  0  0  0  0  0  0  0  0  0
    0.5047    1.3742    0.0000 N   0  0  0  0  0  0  0  0  0  0  0  0
    2.1317   -1.2928    0.0000 N   0  0  0  0  0  0  0  0  0  0  0  0
   -1.4925    1.8580    0.0000 C   0  0  0  0  0  0  0  0  0  0  0  0
   -2.3126    1.8601    0.0000 C   0  0  0  0  0  0  0  0  0  0  0  0
   -2.5654    2.6404    0.0000 C   0  0  0  0  0  0  0  0  0  0  0  0
   -1.9023    3.1230    0.0000 C   0  0  0  0  0  0  0  0  0  0  0  0
   -1.2375    2.6427    0.0000 C   0  0  0  0  0  0  0  0  0  0  0  0
   -0.1574    1.8580    0.0000 C   0  0  0  0  0  0  0  0  0  0  0  0
   -0.5694    0.5937    0.0000 C   0  0  0  0  0  0  0  0  0  0  0  0
    0.2506    0.5943    0.0000 C   0  0  0  0  0  0  0  0  0  0  0  0
    0.7356   -0.0730    0.0000 C   0  0  1  0  0  0  0  0  0  0  0  0
    1.5473    0.0742    0.0000 C   0  0  0  0  0  0  0  0  0  0  0  0
    0.6688   -1.5582    0.0000 C   0  0  0  0  0  0  0  0  0  0  0  0
    2.1687   -0.4685    0.0000 C   0  0  0  0  0  0  0  0  0  0  0  0
    1.4642   -1.7777    0.0000 C   0  0  0  0  0  0  0  0  0  0  0  0
    1.7668    0.8696    0.0000 C   0  0  0  0  0  0  0  0  0  0  0  0
    1.6114   -2.5895    0.0000 C   0  0  0  0  0  0  0  0  0  0  0  0
    0.9813    0.5395    0.0000 H   0  0  0  0  0  0  0  0  0  0  0  0
    3.2229    0.4095    0.0000 H   0  0  0  0  0  0  0  0  0  0  0  0
    2.5556   -3.7897    0.0000 H   0  0  0  0  0  0  0  0  0  0  0  0
   -2.9430    0.9955    0.0000 H   0  0  0  0  0  0  0  0  0  0  0  0
   -3.3692    2.0288    0.0000 H   0  0  0  0  0  0  0  0  0  0  0  0
   -3.5830    2.9711    0.0000 H   0  0  0  0  0  0  0  0  0  0  0  0
   -2.7332    3.6972    0.0000 H   0  0  0  0  0  0  0  0  0  0  0  0
   -1.9042    4.1930    0.0000 H   0  0  0  0  0  0  0  0  0  0  0  0
   -0.9500    3.6109    0.0000 H   0  0  0  0  0  0  0  0  0  0  0  0
   -1.1745   -0.2423    0.0000 H   0  0  0  0  0  0  0  0  0  0  0  0
   -0.0352   -2.3640    0.0000 H   0  0  0  0  0  0  0  0  0  0  0  0
    0.9765   -2.5830    0.0000 H   0  0  0  0  0  0  0  0  0  0  0  0
    3.1176   -0.0628    0.0000 H   0  0  0  0  0  0  0  0  0  0  0  0
  1 14  1  0  0  0  0
  1 15  1  0  0  0  0
  2 18  1  0  0  0  0
  2 20  1  0  0  0  0
  3 23  1  0  0  0  0
  3 26  1  0  0  0  0
  4 23  2  0  0  0  0
  5 24  1  0  0  0  0
  5 27  1  0  0  0  0
  6 24  2  0  0  0  0
  7 10  1  0  0  0  0
  7 15  1  0  0  0  0
  7 16  1  0  0  0  0
  8 15  2  0  0  0  0
  8 17  1  0  0  0  0
  9 21  1  0  0  0  0
  9 22  2  0  0  0  0
 10 11  1  0  0  0  0
 10 14  2  0  0  0  0
 11 12  1  0  0  0  0
 11 28  1  0  0  0  0
 11 29  1  0  0  0  0
 12 13  1  0  0  0  0
 12 30  1  0  0  0  0
 12 31  1  0  0  0  0
 13 14  1  0  0  0  0
 13 32  1  0  0  0  0
 13 33  1  0  0  0  0
 16 17  2  0  0  0  0
 16 34  1  0  0  0  0
 17 18  1  0  0  0  0
 18 19  1  0  0  0  0
 18 25  1  6  0  0  0
 19 21  2  0  0  0  0
 19 23  1  0  0  0  0
 20 22  1  0  0  0  0
 20 35  1  0  0  0  0
 20 36  1  0  0  0  0
 21 37  1  0  0  0  0
 22 24  1  0  0  0  0
M  END
>  <DRUGBANK_ID>
DB03970

>  <SECONDARY_ACCESSION_NUMBERS>
EXPT03247

>  <COMMON_NAME>
(7R)-7-(6,7-Dihydro-5H-cyclopenta[d]imidazo[2,1-b][1,3]thiazol-2-yl)-2,7-dihydro-1,4-thiazepine-3,6-dicarboxylic acid

$$$$
