
 OpenBabel10282417072D

 51 53  0  0  0  0  0  0  0  0999 V2000
   -0.2945   -0.6085    0.0000 C   0  0  0  0  0  0  0  0  0  0  0  0
   -1.0191   -0.2173    0.0000 C   0  0  3  0  0  0  0  0  0  0  0  0
    2.4391   -0.6085    0.0000 N   0  3  0  0  0  0  0  0  0  0  0  0
    0.4250   -0.2173    0.0000 O   0  0  0  0  0  0  0  0  0  0  0  0
   -0.2945   -1.4200    0.0000 O   0  0  0  0  0  0  0  0  0  0  0  0
    1.1108   -0.6230    0.0000 C   0  0  3  0  0  0  0  0  0  0  0  0
   -1.7291   -0.6085    0.0000 C   0  0  0  0  0  0  0  0  0  0  0  0
    1.7774   -0.1303    0.0000 C   0  0  0  0  0  0  0  0  0  0  0  0
    2.1541   -1.3909    0.0000 C   0  0  0  0  0  0  0  0  0  0  0  0
   -1.4392    0.4975    0.0000 C   0  0  0  0  0  0  0  0  0  0  0  0
    1.3572   -1.3909    0.0000 C   0  0  0  0  0  0  0  0  0  0  0  0
   -0.6133    0.4975    0.0000 O   0  0  0  0  0  0  0  0  0  0  0  0
    3.1490   -0.1979    0.0000 C   0  0  0  0  0  0  0  0  0  0  0  0
    3.1490   -1.0239    0.0000 C   0  0  0  0  0  0  0  0  0  0  0  0
   -2.4391   -0.1883    0.0000 C   0  0  0  0  0  0  0  0  0  0  0  0
   -1.7291   -1.4200    0.0000 C   0  0  0  0  0  0  0  0  0  0  0  0
   -2.2314    0.7389    0.0000 C   0  0  0  0  0  0  0  0  0  0  0  0
   -0.9708    1.1834    0.0000 C   0  0  0  0  0  0  0  0  0  0  0  0
   -3.1490   -0.6085    0.0000 C   0  0  0  0  0  0  0  0  0  0  0  0
   -2.4391   -1.8401    0.0000 C   0  0  0  0  0  0  0  0  0  0  0  0
   -1.4682    1.8401    0.0000 C   0  0  0  0  0  0  0  0  0  0  0  0
   -2.2506    1.5648    0.0000 C   0  0  0  0  0  0  0  0  0  0  0  0
   -3.1490   -1.4200    0.0000 C   0  0  0  0  0  0  0  0  0  0  0  0
    1.0561    0.4456    0.0000 H   0  0  0  0  0  0  0  0  0  0  0  0
    1.7717    0.9397    0.0000 H   0  0  0  0  0  0  0  0  0  0  0  0
    0.8208    0.3490    0.0000 H   0  0  0  0  0  0  0  0  0  0  0  0
    2.7677   -2.2675    0.0000 H   0  0  0  0  0  0  0  0  0  0  0  0
    3.2150   -1.2514    0.0000 H   0  0  0  0  0  0  0  0  0  0  0  0
   -1.7939    1.5070    0.0000 H   0  0  0  0  0  0  0  0  0  0  0  0
    0.7267   -2.2554    0.0000 H   0  0  0  0  0  0  0  0  0  0  0  0
    0.3008   -1.2206    0.0000 H   0  0  0  0  0  0  0  0  0  0  0  0
    0.3567    0.5045    0.0000 H   0  0  0  0  0  0  0  0  0  0  0  0
    4.0761   -0.7322    0.0000 H   0  0  0  0  0  0  0  0  0  0  0  0
    3.1482    0.8721    0.0000 H   0  0  0  0  0  0  0  0  0  0  0  0
    4.0752    0.3378    0.0000 H   0  0  0  0  0  0  0  0  0  0  0  0
    3.1428   -2.0939    0.0000 H   0  0  0  0  0  0  0  0  0  0  0  0
    4.0788   -0.4943    0.0000 H   0  0  0  0  0  0  0  0  0  0  0  0
    4.0725   -1.5643    0.0000 H   0  0  0  0  0  0  0  0  0  0  0  0
   -2.4391    0.8437    0.0000 H   0  0  0  0  0  0  0  0  0  0  0  0
   -0.8326   -1.9312    0.0000 H   0  0  0  0  0  0  0  0  0  0  0  0
   -3.0838    0.0921    0.0000 H   0  0  0  0  0  0  0  0  0  0  0  0
   -3.1952    1.2036    0.0000 H   0  0  0  0  0  0  0  0  0  0  0  0
    0.0989    1.2097    0.0000 H   0  0  0  0  0  0  0  0  0  0  0  0
   -0.5063    2.1473    0.0000 H   0  0  0  0  0  0  0  0  0  0  0  0
   -4.0455   -0.0974    0.0000 H   0  0  0  0  0  0  0  0  0  0  0  0
   -2.4391   -2.8721    0.0000 H   0  0  0  0  0  0  0  0  0  0  0  0
   -1.1601    2.8648    0.0000 H   0  0  0  0  0  0  0  0  0  0  0  0
   -2.2421    2.5790    0.0000 H   0  0  0  0  0  0  0  0  0  0  0  0
   -3.1309    2.1730    0.0000 H   0  0  0  0  0  0  0  0  0  0  0  0
   -2.1086    2.6253    0.0000 H   0  0  0  0  0  0  0  0  0  0  0  0
   -4.0455   -1.9312    0.0000 H   0  0  0  0  0  0  0  0  0  0  0  0
  2  1  1  0  0  0  0
  3  8  1  0  0  0  0
  3  9  1  0  0  0  0
  4  1  1  0  0  0  0
  5  1  2  0  0  0  0
  6  4  1  0  0  0  0
  6 24  1  0  0  0  0
  7  2  1  0  0  0  0
  8  6  1  0  0  0  0
  8 25  1  0  0  0  0
  8 26  1  0  0  0  0
  9 11  1  0  0  0  0
  9 27  1  0  0  0  0
  9 28  1  0  0  0  0
 10  2  1  0  0  0  0
 10 29  1  0  0  0  0
 11  6  1  0  0  0  0
 11 30  1  0  0  0  0
 11 31  1  0  0  0  0
 12  2  1  0  0  0  0
 12 32  1  0  0  0  0
 13  3  1  0  0  0  0
 13 33  1  0  0  0  0
 13 34  1  0  0  0  0
 13 35  1  0  0  0  0
 14  3  1  0  0  0  0
 14 36  1  0  0  0  0
 14 37  1  0  0  0  0
 14 38  1  0  0  0  0
 15  7  1  0  0  0  0
 15 39  1  0  0  0  0
 16  7  2  0  0  0  0
 16 40  1  0  0  0  0
 17 10  1  0  0  0  0
 17 41  1  0  0  0  0
 17 42  1  0  0  0  0
 18 10  1  0  0  0  0
 18 43  1  0  0  0  0
 18 44  1  0  0  0  0
 19 15  2  0  0  0  0
 19 45  1  0  0  0  0
 20 16  1  0  0  0  0
 20 23  2  0  0  0  0
 20 46  1  0  0  0  0
 21 18  1  0  0  0  0
 21 47  1  0  0  0  0
 21 48  1  0  0  0  0
 22 17  1  0  0  0  0
 22 21  1  0  0  0  0
 22 49  1  0  0  0  0
 22 50  1  0  0  0  0
 23 19  1  0  0  0  0
 23 51  1  0  0  0  0
M  CHG  1   3   1
M  END
>  <DRUGBANK_ID>
DB00986

>  <SECONDARY_ACCESSION_NUMBERS>
APRD01000; DB06583

>  <COMMON_NAME>
Glycopyrronium

>  <CAS_NUMBER>
740028-90-4

>  <UNII>
A14FB57V1D

>  <SYNONYMS>
Glicopirronio; Glycopyrrolate; Glycopyrrolate cation; Glycopyrrolate ion; Glycopyrronium; Glycopyrronium cation; Glycopyrronium ion

$$$$
