
 OpenBabel10282417072D

 21 21  0  0  0  0  0  0  0  0999 V2000
    0.0115   -0.0627    0.0000 N   0  0  0  0  0  0  0  0  0  0  0  0
    0.6789   -0.5476    0.0000 C   0  0  0  0  0  0  0  0  0  0  0  0
   -0.6558   -0.5476    0.0000 C   0  0  0  0  0  0  0  0  0  0  0  0
    0.0115    0.7622    0.0000 C   0  0  0  0  0  0  0  0  0  0  0  0
    0.4240   -1.3323    0.0000 C   0  0  3  0  0  0  0  0  0  0  0  0
   -0.4009   -1.3323    0.0000 C   0  0  0  0  0  0  0  0  0  0  0  0
   -1.4405   -0.2927    0.0000 O   0  0  0  0  0  0  0  0  0  0  0  0
    0.7260    1.1747    0.0000 C   0  0  0  0  0  0  0  0  0  0  0  0
    0.9089   -1.9997    0.0000 O   0  0  0  0  0  0  0  0  0  0  0  0
    0.7260    1.9997    0.0000 O   0  0  0  0  0  0  0  0  0  0  0  0
    1.4405    0.7622    0.0000 N   0  0  0  0  0  0  0  0  0  0  0  0
    1.6965   -0.2169    0.0000 H   0  0  0  0  0  0  0  0  0  0  0  0
    1.4355   -1.3042    0.0000 H   0  0  0  0  0  0  0  0  0  0  0  0
   -0.9151    1.2972    0.0000 H   0  0  0  0  0  0  0  0  0  0  0  0
    0.0115    1.8322    0.0000 H   0  0  0  0  0  0  0  0  0  0  0  0
    1.4808   -1.1649    0.0000 H   0  0  0  0  0  0  0  0  0  0  0  0
   -1.0299   -2.1979    0.0000 H   0  0  0  0  0  0  0  0  0  0  0  0
    0.0849   -2.2857    0.0000 H   0  0  0  0  0  0  0  0  0  0  0  0
    0.5144   -2.8858    0.0000 H   0  0  0  0  0  0  0  0  0  0  0  0
    1.4405   -0.2223    0.0000 H   0  0  0  0  0  0  0  0  0  0  0  0
    2.2931    1.2545    0.0000 H   0  0  0  0  0  0  0  0  0  0  0  0
  1  2  1  0  0  0  0
  1  3  1  0  0  0  0
  1  4  1  0  0  0  0
  2  5  1  0  0  0  0
  2 12  1  0  0  0  0
  2 13  1  0  0  0  0
  3  6  1  0  0  0  0
  3  7  2  0  0  0  0
  4  8  1  0  0  0  0
  4 14  1  0  0  0  0
  4 15  1  0  0  0  0
  5  9  1  0  0  0  0
  5  6  1  0  0  0  0
  5 16  1  0  0  0  0
  6 17  1  0  0  0  0
  6 18  1  0  0  0  0
  8 10  2  0  0  0  0
  8 11  1  0  0  0  0
  9 19  1  0  0  0  0
 11 20  1  0  0  0  0
 11 21  1  0  0  0  0
M  END
>  <DRUGBANK_ID>
DB13601

>  <COMMON_NAME>
Oxiracetam

>  <CAS_NUMBER>
62613-82-5

>  <UNII>
P7U817352G

>  <SYNONYMS>
Oxiracetam; Oxiracetamum

$$$$
