
 OpenBabel10282417072D

117118  0  0  1  0  0  0  0  0999 V2000
    6.1809   -3.0196    0.0000 C   0  0  0  0  0  0  0  0  0  0  0  0
    6.0250   -3.8298    0.0000 C   0  0  0  0  0  0  0  0  0  0  0  0
    6.6486   -4.3698    0.0000 C   0  0  2  0  0  0  0  0  0  0  0  0
    7.4282   -4.0998    0.0000 C   0  0  0  0  0  0  0  0  0  0  0  0
    6.4927   -5.1800    0.0000 C   0  0  1  0  0  0  0  0  0  0  0  0
    5.7131   -5.4500    0.0000 C   0  0  1  0  0  0  0  0  0  0  0  0
    5.0895   -4.9099    0.0000 C   0  0  0  0  0  0  0  0  0  0  0  0
    4.3099   -5.1800    0.0000 C   0  0  0  0  0  0  0  0  0  0  0  0
    3.6863   -4.6399    0.0000 O   0  0  0  0  0  0  0  0  0  0  0  0
    4.1540   -5.9901    0.0000 N   0  0  0  0  0  0  0  0  0  0  0  0
    4.7178   -6.5924    0.0000 C   0  0  0  0  0  0  0  0  0  0  0  0
    4.3192   -7.3147    0.0000 C   0  0  0  0  0  0  0  0  0  0  0  0
    3.5090   -7.1588    0.0000 C   0  0  0  0  0  0  0  0  0  0  0  0
    3.4070   -6.3402    0.0000 C   0  0  1  0  0  0  0  0  0  0  0  0
    2.6847   -5.9415    0.0000 C   0  0  1  0  0  0  0  0  0  0  0  0
    1.9783   -6.3678    0.0000 C   0  0  1  0  0  0  0  0  0  0  0  0
    1.9942   -7.1926    0.0000 C   0  0  0  0  0  0  0  0  0  0  0  0
    1.2560   -5.9691    0.0000 C   0  0  0  0  0  0  0  0  0  0  0  0
    1.2401   -5.1443    0.0000 O   0  0  0  0  0  0  0  0  0  0  0  0
    0.5496   -6.3954    0.0000 N   0  0  0  0  0  0  0  0  0  0  0  0
   -0.1727   -5.9967    0.0000 C   0  0  0  0  0  0  0  0  0  0  0  0
   -0.8790   -6.4230    0.0000 C   0  0  0  0  0  0  0  0  0  0  0  0
   -1.6014   -6.0243    0.0000 C   0  0  0  0  0  0  0  0  0  0  0  0
   -2.3077   -6.4506    0.0000 C   0  0  0  0  0  0  0  0  0  0  0  0
   -3.0300   -6.0519    0.0000 C   0  0  0  0  0  0  0  0  0  0  0  0
   -3.0460   -5.2271    0.0000 C   0  0  0  0  0  0  0  0  0  0  0  0
   -2.3396   -4.8009    0.0000 C   0  0  0  0  0  0  0  0  0  0  0  0
   -1.6173   -5.1995    0.0000 C   0  0  0  0  0  0  0  0  0  0  0  0
    2.6687   -5.1167    0.0000 O   0  0  0  0  0  0  0  0  0  0  0  0
    1.9464   -4.7181    0.0000 C   0  0  0  0  0  0  0  0  0  0  0  0
    5.5572   -6.2602    0.0000 O   0  0  0  0  0  0  0  0  0  0  0  0
    6.1809   -6.8003    0.0000 C   0  0  0  0  0  0  0  0  0  0  0  0
    7.1163   -5.7201    0.0000 N   0  0  0  0  0  0  0  0  0  0  0  0
    6.9604   -6.5302    0.0000 C   0  0  0  0  0  0  0  0  0  0  0  0
    7.8959   -5.4500    0.0000 C   0  0  0  0  0  0  0  0  0  0  0  0
    8.0518   -4.6399    0.0000 O   0  0  0  0  0  0  0  0  0  0  0  0
    8.5195   -5.9901    0.0000 C   0  0  2  0  0  0  0  0  0  0  0  0
    8.3636   -6.8003    0.0000 C   0  0  0  0  0  0  0  0  0  0  0  0
    8.9873   -7.3403    0.0000 C   0  0  0  0  0  0  0  0  0  0  0  0
    7.5841   -7.0703    0.0000 C   0  0  0  0  0  0  0  0  0  0  0  0
    9.2991   -5.7201    0.0000 N   0  0  0  0  0  0  0  0  0  0  0  0
    9.9227   -6.2602    0.0000 C   0  0  0  0  0  0  0  0  0  0  0  0
    9.7668   -7.0703    0.0000 O   0  0  0  0  0  0  0  0  0  0  0  0
   10.7023   -5.9901    0.0000 C   0  0  2  0  0  0  0  0  0  0  0  0
   11.3259   -6.5302    0.0000 C   0  0  0  0  0  0  0  0  0  0  0  0
   12.1055   -6.2602    0.0000 C   0  0  0  0  0  0  0  0  0  0  0  0
   11.1700   -7.3403    0.0000 C   0  0  0  0  0  0  0  0  0  0  0  0
   10.8582   -5.1800    0.0000 N   0  0  0  0  0  0  0  0  0  0  0  0
   10.2345   -4.6399    0.0000 C   0  0  0  0  0  0  0  0  0  0  0  0
   11.6377   -4.9099    0.0000 C   0  0  0  0  0  0  0  0  0  0  0  0
    7.1919   -2.6693    0.0000 H   0  0  0  0  0  0  0  0  0  0  0  0
    5.3720   -2.3191    0.0000 H   0  0  0  0  0  0  0  0  0  0  0  0
    6.3831   -1.9689    0.0000 H   0  0  0  0  0  0  0  0  0  0  0  0
    5.0140   -4.1801    0.0000 H   0  0  0  0  0  0  0  0  0  0  0  0
    5.8228   -4.8805    0.0000 H   0  0  0  0  0  0  0  0  0  0  0  0
    6.8508   -3.3191    0.0000 H   0  0  0  0  0  0  0  0  0  0  0  0
    8.2370   -4.8003    0.0000 H   0  0  0  0  0  0  0  0  0  0  0  0
    7.6305   -3.0491    0.0000 H   0  0  0  0  0  0  0  0  0  0  0  0
    8.4393   -3.7496    0.0000 H   0  0  0  0  0  0  0  0  0  0  0  0
    7.5038   -4.8298    0.0000 H   0  0  0  0  0  0  0  0  0  0  0  0
    6.5219   -6.1505    0.0000 H   0  0  0  0  0  0  0  0  0  0  0  0
    5.2917   -3.8592    0.0000 H   0  0  0  0  0  0  0  0  0  0  0  0
    4.2806   -4.2094    0.0000 H   0  0  0  0  0  0  0  0  0  0  0  0
    5.7796   -6.4600    0.0000 H   0  0  0  0  0  0  0  0  0  0  0  0
    5.3178   -7.4783    0.0000 H   0  0  0  0  0  0  0  0  0  0  0  0
    4.7732   -8.2836    0.0000 H   0  0  0  0  0  0  0  0  0  0  0  0
    3.6620   -8.1591    0.0000 H   0  0  0  0  0  0  0  0  0  0  0  0
    2.7278   -7.8900    0.0000 H   0  0  0  0  0  0  0  0  0  0  0  0
    2.5029   -6.7947    0.0000 H   0  0  0  0  0  0  0  0  0  0  0  0
    2.5210   -6.9401    0.0000 H   0  0  0  0  0  0  0  0  0  0  0  0
    1.7479   -5.4246    0.0000 H   0  0  0  0  0  0  0  0  0  0  0  0
    2.9151   -6.8848    0.0000 H   0  0  0  0  0  0  0  0  0  0  0  0
    1.0780   -7.7454    0.0000 H   0  0  0  0  0  0  0  0  0  0  0  0
    2.9310   -7.7096    0.0000 H   0  0  0  0  0  0  0  0  0  0  0  0
    2.0148   -8.2624    0.0000 H   0  0  0  0  0  0  0  0  0  0  0  0
    0.5686   -7.3797    0.0000 H   0  0  0  0  0  0  0  0  0  0  0  0
   -0.1934   -4.9269    0.0000 H   0  0  0  0  0  0  0  0  0  0  0  0
   -1.1095   -5.4798    0.0000 H   0  0  0  0  0  0  0  0  0  0  0  0
   -0.8583   -7.4928    0.0000 H   0  0  0  0  0  0  0  0  0  0  0  0
   -1.7951   -6.9758    0.0000 H   0  0  0  0  0  0  0  0  0  0  0  0
   -2.2877   -7.4824    0.0000 H   0  0  0  0  0  0  0  0  0  0  0  0
   -3.9136   -6.5851    0.0000 H   0  0  0  0  0  0  0  0  0  0  0  0
   -3.9495   -4.7285    0.0000 H   0  0  0  0  0  0  0  0  0  0  0  0
   -2.3595   -3.7691    0.0000 H   0  0  0  0  0  0  0  0  0  0  0  0
   -0.7337   -4.6663    0.0000 H   0  0  0  0  0  0  0  0  0  0  0  0
    1.9257   -3.6483    0.0000 H   0  0  0  0  0  0  0  0  0  0  0  0
    1.0303   -5.2709    0.0000 H   0  0  0  0  0  0  0  0  0  0  0  0
    1.0096   -4.2011    0.0000 H   0  0  0  0  0  0  0  0  0  0  0  0
    5.9787   -7.8510    0.0000 H   0  0  0  0  0  0  0  0  0  0  0  0
    7.1919   -6.4500    0.0000 H   0  0  0  0  0  0  0  0  0  0  0  0
    6.9898   -7.5007    0.0000 H   0  0  0  0  0  0  0  0  0  0  0  0
    5.9493   -6.8804    0.0000 H   0  0  0  0  0  0  0  0  0  0  0  0
    7.7692   -7.2307    0.0000 H   0  0  0  0  0  0  0  0  0  0  0  0
    6.7582   -7.5809    0.0000 H   0  0  0  0  0  0  0  0  0  0  0  0
    8.7218   -4.9394    0.0000 H   0  0  0  0  0  0  0  0  0  0  0  0
    8.1614   -7.8510    0.0000 H   0  0  0  0  0  0  0  0  0  0  0  0
    8.7852   -8.3910    0.0000 H   0  0  0  0  0  0  0  0  0  0  0  0
    9.9983   -6.9899    0.0000 H   0  0  0  0  0  0  0  0  0  0  0  0
    9.7962   -8.0407    0.0000 H   0  0  0  0  0  0  0  0  0  0  0  0
    6.7753   -6.3698    0.0000 H   0  0  0  0  0  0  0  0  0  0  0  0
    7.3819   -8.1210    0.0000 H   0  0  0  0  0  0  0  0  0  0  0  0
    6.5730   -7.4205    0.0000 H   0  0  0  0  0  0  0  0  0  0  0  0
    9.4852   -4.7534    0.0000 H   0  0  0  0  0  0  0  0  0  0  0  0
    9.8934   -5.2896    0.0000 H   0  0  0  0  0  0  0  0  0  0  0  0
   12.1347   -7.2307    0.0000 H   0  0  0  0  0  0  0  0  0  0  0  0
   12.9143   -6.9607    0.0000 H   0  0  0  0  0  0  0  0  0  0  0  0
   12.3078   -5.2095    0.0000 H   0  0  0  0  0  0  0  0  0  0  0  0
   13.1166   -5.9100    0.0000 H   0  0  0  0  0  0  0  0  0  0  0  0
   10.1589   -7.6905    0.0000 H   0  0  0  0  0  0  0  0  0  0  0  0
   11.9788   -8.0408    0.0000 H   0  0  0  0  0  0  0  0  0  0  0  0
   10.9678   -8.3910    0.0000 H   0  0  0  0  0  0  0  0  0  0  0  0
   10.4367   -3.5892    0.0000 H   0  0  0  0  0  0  0  0  0  0  0  0
    9.2235   -4.9902    0.0000 H   0  0  0  0  0  0  0  0  0  0  0  0
    9.4256   -3.9395    0.0000 H   0  0  0  0  0  0  0  0  0  0  0  0
   12.4466   -5.6103    0.0000 H   0  0  0  0  0  0  0  0  0  0  0  0
   11.8398   -3.8592    0.0000 H   0  0  0  0  0  0  0  0  0  0  0  0
   12.6487   -4.5596    0.0000 H   0  0  0  0  0  0  0  0  0  0  0  0
  1  2  1  0  0  0  0
  1 51  1  0  0  0  0
  1 52  1  0  0  0  0
  1 53  1  0  0  0  0
  2  3  1  0  0  0  0
  2 54  1  0  0  0  0
  2 55  1  0  0  0  0
  3  4  1  0  0  0  0
  3  5  1  0  0  0  0
  3 56  1  1  0  0  0
  4 57  1  0  0  0  0
  4 58  1  0  0  0  0
  4 59  1  0  0  0  0
  5  6  1  0  0  0  0
  5 33  1  0  0  0  0
  5 60  1  1  0  0  0
  6  7  1  0  0  0  0
  6 31  1  0  0  0  0
  6 61  1  1  0  0  0
  7  8  1  0  0  0  0
  7 62  1  0  0  0  0
  7 63  1  0  0  0  0
  8  9  2  0  0  0  0
  8 10  1  0  0  0  0
 10 11  1  0  0  0  0
 10 14  1  0  0  0  0
 11 12  1  0  0  0  0
 11 64  1  0  0  0  0
 11 65  1  0  0  0  0
 12 13  1  0  0  0  0
 12 66  1  0  0  0  0
 12 67  1  0  0  0  0
 13 14  1  0  0  0  0
 13 68  1  0  0  0  0
 13 69  1  0  0  0  0
 14 15  1  0  0  0  0
 14 70  1  6  0  0  0
 15 16  1  0  0  0  0
 15 29  1  0  0  0  0
 15 71  1  6  0  0  0
 16 17  1  0  0  0  0
 16 18  1  0  0  0  0
 16 72  1  6  0  0  0
 17 73  1  0  0  0  0
 17 74  1  0  0  0  0
 17 75  1  0  0  0  0
 18 19  2  0  0  0  0
 18 20  1  0  0  0  0
 20 21  1  0  0  0  0
 20 76  1  0  0  0  0
 21 22  1  0  0  0  0
 21 77  1  0  0  0  0
 21 78  1  0  0  0  0
 22 23  1  0  0  0  0
 22 79  1  0  0  0  0
 22 80  1  0  0  0  0
 23 24  2  0  0  0  0
 23 28  1  0  0  0  0
 24 25  1  0  0  0  0
 24 81  1  0  0  0  0
 25 26  2  0  0  0  0
 25 82  1  0  0  0  0
 26 27  1  0  0  0  0
 26 83  1  0  0  0  0
 27 28  2  0  0  0  0
 27 84  1  0  0  0  0
 28 85  1  0  0  0  0
 29 30  1  0  0  0  0
 30 86  1  0  0  0  0
 30 87  1  0  0  0  0
 30 88  1  0  0  0  0
 31 32  1  0  0  0  0
 32 89  1  0  0  0  0
 32 90  1  0  0  0  0
 32 91  1  0  0  0  0
 33 34  1  0  0  0  0
 33 35  1  0  0  0  0
 34 92  1  0  0  0  0
 34 93  1  0  0  0  0
 34 94  1  0  0  0  0
 35 36  2  0  0  0  0
 35 37  1  0  0  0  0
 37 38  1  0  0  0  0
 37 41  1  0  0  0  0
 37 95  1  6  0  0  0
 38 39  1  0  0  0  0
 38 40  1  0  0  0  0
 38 96  1  0  0  0  0
 39 97  1  0  0  0  0
 39 98  1  0  0  0  0
 39 99  1  0  0  0  0
 40100  1  0  0  0  0
 40101  1  0  0  0  0
 40102  1  0  0  0  0
 41 42  1  0  0  0  0
 41103  1  0  0  0  0
 42 43  2  0  0  0  0
 42 44  1  0  0  0  0
 44 45  1  0  0  0  0
 44 48  1  0  0  0  0
 44104  1  6  0  0  0
 45 46  1  0  0  0  0
 45 47  1  0  0  0  0
 45105  1  0  0  0  0
 46106  1  0  0  0  0
 46107  1  0  0  0  0
 46108  1  0  0  0  0
 47109  1  0  0  0  0
 47110  1  0  0  0  0
 47111  1  0  0  0  0
 48 49  1  0  0  0  0
 48 50  1  0  0  0  0
 49112  1  0  0  0  0
 49113  1  0  0  0  0
 49114  1  0  0  0  0
 50115  1  0  0  0  0
 50116  1  0  0  0  0
 50117  1  0  0  0  0
M  END
>  <DRUGBANK_ID>
DB12677

>  <COMMON_NAME>
Soblidotin

>  <CAS_NUMBER>
149606-27-9

>  <UNII>
DQC51A0WQH

>  <SYNONYMS>
Soblidotin

$$$$
