
 OpenBabel10282417072D

 40 42  0  0  1  0  0  0  0  0999 V2000
   -0.8125   -3.4433    0.0000 C   0  0  0  0  0  0  0  0  0  0  0  0
   -0.2822   -4.0752    0.0000 C   0  0  1  0  0  0  0  0  0  0  0  0
    0.4323   -4.4877    0.0000 C   0  0  0  0  0  0  0  0  0  0  0  0
    0.4323   -5.3127    0.0000 C   0  0  0  0  0  0  0  0  0  0  0  0
   -0.2822   -5.7252    0.0000 S   0  0  0  0  0  0  0  0  0  0  0  0
   -0.9966   -5.3127    0.0000 C   0  0  0  0  0  0  0  0  0  0  0  0
   -1.7111   -5.7252    0.0000 N   0  0  0  0  0  0  0  0  0  0  0  0
   -0.9966   -4.4877    0.0000 N   0  0  0  0  0  0  0  0  0  0  0  0
    0.2481   -3.4433    0.0000 C   0  0  0  0  0  0  0  0  0  0  0  0
   -0.0340   -2.6680    0.0000 C   0  0  0  0  0  0  0  0  0  0  0  0
    0.4963   -2.0360    0.0000 C   0  0  0  0  0  0  0  0  0  0  0  0
    0.2141   -1.2608    0.0000 N   0  0  0  0  0  0  0  0  0  0  0  0
   -0.5984   -1.1175    0.0000 C   0  0  0  0  0  0  0  0  0  0  0  0
   -1.1287   -1.7495    0.0000 O   0  0  0  0  0  0  0  0  0  0  0  0
   -0.8805   -0.3423    0.0000 C   0  0  0  0  0  0  0  0  0  0  0  0
   -1.6930   -0.1990    0.0000 N   0  0  0  0  0  0  0  0  0  0  0  0
   -1.9752    0.5762    0.0000 C   0  0  0  0  0  0  0  0  0  0  0  0
   -1.4449    1.2082    0.0000 C   0  0  0  0  0  0  0  0  0  0  0  0
   -0.6324    1.0650    0.0000 C   0  0  0  0  0  0  0  0  0  0  0  0
   -0.3502    0.2897    0.0000 C   0  0  0  0  0  0  0  0  0  0  0  0
   -1.7270    1.9835    0.0000 C   0  0  0  0  0  0  0  0  0  0  0  0
   -2.0092    2.7587    0.0000 N   0  0  0  0  0  0  0  0  0  0  0  0
    1.3087   -2.1793    0.0000 C   0  0  0  0  0  0  0  0  0  0  0  0
    1.5909   -2.9545    0.0000 C   0  0  0  0  0  0  0  0  0  0  0  0
    1.0606   -3.5865    0.0000 C   0  0  0  0  0  0  0  0  0  0  0  0
    1.3428   -4.3618    0.0000 F   0  0  0  0  0  0  0  0  0  0  0  0
   -0.4466   -2.4378    0.0000 H   0  0  0  0  0  0  0  0  0  0  0  0
   -1.8662   -3.6292    0.0000 H   0  0  0  0  0  0  0  0  0  0  0  0
   -1.5003   -2.6237    0.0000 H   0  0  0  0  0  0  0  0  0  0  0  0
    1.3260   -3.9717    0.0000 H   0  0  0  0  0  0  0  0  0  0  0  0
    1.3260   -5.8287    0.0000 H   0  0  0  0  0  0  0  0  0  0  0  0
   -2.5637   -5.2329    0.0000 H   0  0  0  0  0  0  0  0  0  0  0  0
   -1.7111   -6.7097    0.0000 H   0  0  0  0  0  0  0  0  0  0  0  0
   -1.0503   -2.4888    0.0000 H   0  0  0  0  0  0  0  0  0  0  0  0
    0.8469   -0.5066    0.0000 H   0  0  0  0  0  0  0  0  0  0  0  0
   -2.9915    0.7554    0.0000 H   0  0  0  0  0  0  0  0  0  0  0  0
    0.0309    1.8556    0.0000 H   0  0  0  0  0  0  0  0  0  0  0  0
    0.6661    0.1105    0.0000 H   0  0  0  0  0  0  0  0  0  0  0  0
    1.9721   -1.3887    0.0000 H   0  0  0  0  0  0  0  0  0  0  0  0
    2.6072   -3.1337    0.0000 H   0  0  0  0  0  0  0  0  0  0  0  0
  1 27  1  0  0  0  0
  1 28  1  0  0  0  0
  1 29  1  0  0  0  0
  2  1  1  1  0  0  0
  2  3  1  0  0  0  0
  2  8  1  0  0  0  0
  2  9  1  0  0  0  0
  3  4  2  0  0  0  0
  3 30  1  0  0  0  0
  4  5  1  0  0  0  0
  4 31  1  0  0  0  0
  5  6  1  0  0  0  0
  6  7  1  0  0  0  0
  6  8  2  0  0  0  0
  7 32  1  0  0  0  0
  7 33  1  0  0  0  0
  9 10  2  0  0  0  0
  9 25  1  0  0  0  0
 10 11  1  0  0  0  0
 10 34  1  0  0  0  0
 11 12  1  0  0  0  0
 11 23  2  0  0  0  0
 12 13  1  0  0  0  0
 12 35  1  0  0  0  0
 13 14  2  0  0  0  0
 13 15  1  0  0  0  0
 15 16  2  0  0  0  0
 15 20  1  0  0  0  0
 16 17  1  0  0  0  0
 17 18  2  0  0  0  0
 17 36  1  0  0  0  0
 18 19  1  0  0  0  0
 18 21  1  0  0  0  0
 19 20  2  0  0  0  0
 19 37  1  0  0  0  0
 20 38  1  0  0  0  0
 21 22  3  0  0  0  0
 23 24  1  0  0  0  0
 23 39  1  0  0  0  0
 24 25  2  0  0  0  0
 24 40  1  0  0  0  0
 25 26  1  0  0  0  0
M  END
>  <DRUGBANK_ID>
DB15307

>  <COMMON_NAME>
Atabecestat

>  <CAS_NUMBER>
1200493-78-2

>  <UNII>
2834W8D6GK

>  <SYNONYMS>
Atabecestat; JNJ-54861911

$$$$
