
 OpenBabel10282417072D

 71 73  0  0  0  0  0  0  0  0999 V2000
   -1.7834   -0.8289    0.0000 C   0  0  0  0  0  0  0  0  0  0  0  0
   -2.4984   -1.2374    0.0000 C   0  0  0  0  0  0  0  0  0  0  0  0
   -2.4984   -2.0624    0.0000 C   0  0  0  0  0  0  0  0  0  0  0  0
   -1.7834   -2.4788    0.0000 C   0  0  0  0  0  0  0  0  0  0  0  0
   -1.0685   -2.0624    0.0000 C   0  0  0  0  0  0  0  0  0  0  0  0
   -1.0685   -1.2374    0.0000 C   0  0  0  0  0  0  0  0  0  0  0  0
   -0.3535   -0.8289    0.0000 C   0  0  0  0  0  0  0  0  0  0  0  0
   -0.3535   -0.0039    0.0000 C   0  0  0  0  0  0  0  0  0  0  0  0
    0.3535   -1.2374    0.0000 C   0  0  0  0  0  0  0  0  0  0  0  0
    1.0684   -0.8289    0.0000 C   0  0  0  0  0  0  0  0  0  0  0  0
    0.3535   -2.0624    0.0000 C   0  0  0  0  0  0  0  0  0  0  0  0
    1.0684   -2.4788    0.0000 C   0  0  0  0  0  0  0  0  0  0  0  0
    1.7834   -2.0624    0.0000 C   0  0  0  0  0  0  0  0  0  0  0  0
    1.7834   -1.2374    0.0000 C   0  0  0  0  0  0  0  0  0  0  0  0
   -0.3535    1.6459    0.0000 C   0  0  0  0  0  0  0  0  0  0  0  0
   -1.0685    1.2374    0.0000 C   0  0  0  0  0  0  0  0  0  0  0  0
   -1.0685    0.4124    0.0000 C   0  0  0  0  0  0  0  0  0  0  0  0
    0.3535    0.4124    0.0000 C   0  0  0  0  0  0  0  0  0  0  0  0
    0.3535    1.2374    0.0000 C   0  0  0  0  0  0  0  0  0  0  0  0
   -0.3535    2.4709    0.0000 N   0  3  0  0  0  0  0  0  0  0  0  0
    0.3535    2.8873    0.0000 C   0  0  0  0  0  0  0  0  0  0  0  0
    0.3535    3.7123    0.0000 C   0  0  0  0  0  0  0  0  0  0  0  0
   -1.0685    2.8873    0.0000 C   0  0  0  0  0  0  0  0  0  0  0  0
   -1.7834    2.4709    0.0000 C   0  0  0  0  0  0  0  0  0  0  0  0
   -3.2134   -0.8289    0.0000 O   0  0  0  0  0  0  0  0  0  0  0  0
   -3.2134   -2.4788    0.0000 S   0  0  0  0  0  0  0  0  0  0  0  0
   -3.6298   -3.1858    0.0000 O   0  0  0  0  0  0  0  0  0  0  0  0
   -2.8049   -3.1858    0.0000 O   0  0  0  0  0  0  0  0  0  0  0  0
   -3.9284   -2.0624    0.0000 O   0  0  0  0  0  0  0  0  0  0  0  0
   -0.3535   -2.4788    0.0000 S   0  0  0  0  0  0  0  0  0  0  0  0
   -0.3535   -3.3037    0.0000 O   0  0  0  0  0  0  0  0  0  0  0  0
   -0.1492   -1.7402    0.0000 O   0  0  0  0  0  0  0  0  0  0  0  0
    0.3535   -2.6516    0.0000 O   0  0  0  0  0  0  0  0  0  0  0  0
    2.4984   -2.4788    0.0000 N   0  0  0  0  0  0  0  0  0  0  0  0
    3.2134   -2.0624    0.0000 C   0  0  0  0  0  0  0  0  0  0  0  0
    2.4984   -3.3037    0.0000 C   0  0  0  0  0  0  0  0  0  0  0  0
    3.9284   -2.4788    0.0000 C   0  0  0  0  0  0  0  0  0  0  0  0
    1.7834   -3.7123    0.0000 C   0  0  0  0  0  0  0  0  0  0  0  0
   -1.7834    0.2031    0.0000 H   0  0  0  0  0  0  0  0  0  0  0  0
   -1.7834   -3.5108    0.0000 H   0  0  0  0  0  0  0  0  0  0  0  0
    1.0684    0.2031    0.0000 H   0  0  0  0  0  0  0  0  0  0  0  0
   -0.5412   -2.5767    0.0000 H   0  0  0  0  0  0  0  0  0  0  0  0
    1.0684   -3.5108    0.0000 H   0  0  0  0  0  0  0  0  0  0  0  0
    2.6760   -0.7194    0.0000 H   0  0  0  0  0  0  0  0  0  0  0  0
   -1.9611    1.7554    0.0000 H   0  0  0  0  0  0  0  0  0  0  0  0
   -1.9632   -0.1020    0.0000 H   0  0  0  0  0  0  0  0  0  0  0  0
    1.2494   -0.0998    0.0000 H   0  0  0  0  0  0  0  0  0  0  0  0
    1.2473    1.7533    0.0000 H   0  0  0  0  0  0  0  0  0  0  0  0
    1.2825    2.3563    0.0000 H   0  0  0  0  0  0  0  0  0  0  0  0
    1.2790    3.4243    0.0000 H   0  0  0  0  0  0  0  0  0  0  0  0
    1.2801    4.2473    0.0000 H   0  0  0  0  0  0  0  0  0  0  0  0
   -0.5731    4.2473    0.0000 H   0  0  0  0  0  0  0  0  0  0  0  0
    0.3535    4.7823    0.0000 H   0  0  0  0  0  0  0  0  0  0  0  0
   -1.0685    3.9573    0.0000 H   0  0  0  0  0  0  0  0  0  0  0  0
   -1.9962    3.4205    0.0000 H   0  0  0  0  0  0  0  0  0  0  0  0
   -2.7121    3.0024    0.0000 H   0  0  0  0  0  0  0  0  0  0  0  0
   -1.7793    1.4009    0.0000 H   0  0  0  0  0  0  0  0  0  0  0  0
   -2.7080    1.9324    0.0000 H   0  0  0  0  0  0  0  0  0  0  0  0
   -3.2176    0.1081    0.0000 H   0  0  0  0  0  0  0  0  0  0  0  0
   -3.9248   -1.0924    0.0000 H   0  0  0  0  0  0  0  0  0  0  0  0
   -1.1935   -3.7887    0.0000 H   0  0  0  0  0  0  0  0  0  0  0  0
    3.2134   -0.9924    0.0000 H   0  0  0  0  0  0  0  0  0  0  0  0
    4.1411   -1.5291    0.0000 H   0  0  0  0  0  0  0  0  0  0  0  0
    3.4239   -3.8407    0.0000 H   0  0  0  0  0  0  0  0  0  0  0  0
    2.4949   -4.3737    0.0000 H   0  0  0  0  0  0  0  0  0  0  0  0
    3.9244   -3.5488    0.0000 H   0  0  0  0  0  0  0  0  0  0  0  0
    4.8571   -1.9473    0.0000 H   0  0  0  0  0  0  0  0  0  0  0  0
    4.8530   -3.0173    0.0000 H   0  0  0  0  0  0  0  0  0  0  0  0
    0.8591   -3.1732    0.0000 H   0  0  0  0  0  0  0  0  0  0  0  0
    1.7787   -4.7823    0.0000 H   0  0  0  0  0  0  0  0  0  0  0  0
    0.8544   -4.2432    0.0000 H   0  0  0  0  0  0  0  0  0  0  0  0
  1  2  2  0  0  0  0
  1  6  1  0  0  0  0
  1 39  1  0  0  0  0
  2  3  1  0  0  0  0
  2 25  1  0  0  0  0
  3  4  2  0  0  0  0
  3 26  1  0  0  0  0
  4  5  1  0  0  0  0
  4 40  1  0  0  0  0
  5  6  2  0  0  0  0
  5 30  1  0  0  0  0
  6  7  1  0  0  0  0
  7  8  2  0  0  0  0
  7  9  1  0  0  0  0
  8 17  1  0  0  0  0
  8 18  1  0  0  0  0
  9 10  2  0  0  0  0
  9 11  1  0  0  0  0
 10 14  1  0  0  0  0
 10 41  1  0  0  0  0
 11 12  2  0  0  0  0
 11 42  1  0  0  0  0
 12 13  1  0  0  0  0
 12 43  1  0  0  0  0
 13 14  2  0  0  0  0
 13 34  1  0  0  0  0
 14 44  1  0  0  0  0
 15 16  1  0  0  0  0
 15 19  1  0  0  0  0
 15 20  2  0  0  0  0
 16 17  2  0  0  0  0
 16 45  1  0  0  0  0
 17 46  1  0  0  0  0
 18 19  2  0  0  0  0
 18 47  1  0  0  0  0
 19 48  1  0  0  0  0
 20 21  1  0  0  0  0
 20 23  1  0  0  0  0
 21 22  1  0  0  0  0
 21 49  1  0  0  0  0
 21 50  1  0  0  0  0
 22 51  1  0  0  0  0
 22 52  1  0  0  0  0
 22 53  1  0  0  0  0
 23 24  1  0  0  0  0
 23 54  1  0  0  0  0
 23 55  1  0  0  0  0
 24 56  1  0  0  0  0
 24 57  1  0  0  0  0
 24 58  1  0  0  0  0
 25 59  1  0  0  0  0
 26 27  2  0  0  0  0
 26 28  2  0  0  0  0
 26 29  1  0  0  0  0
 29 60  1  0  0  0  0
 30 31  1  0  0  0  0
 30 32  2  0  0  0  0
 30 33  2  0  0  0  0
 31 61  1  0  0  0  0
 34 35  1  0  0  0  0
 34 36  1  0  0  0  0
 35 37  1  0  0  0  0
 35 62  1  0  0  0  0
 35 63  1  0  0  0  0
 36 38  1  0  0  0  0
 36 64  1  0  0  0  0
 36 65  1  0  0  0  0
 37 66  1  0  0  0  0
 37 67  1  0  0  0  0
 37 68  1  0  0  0  0
 38 69  1  0  0  0  0
 38 70  1  0  0  0  0
 38 71  1  0  0  0  0
M  CHG  1  20   1
M  END
>  <DRUGBANK_ID>
DB13967

>  <COMMON_NAME>
Patent Blue

>  <CAS_NUMBER>
25305-77-5

>  <UNII>
D4RJJ6R97N

>  <SYNONYMS>
patent blue violet

$$$$
