
 OpenBabel10282417072D

 86 93  0  0  0  0  0  0  0  0999 V2000
    1.8454   -2.2579    0.0000 C   0  0  0  0  0  0  0  0  0  0  0  0
    1.8424   -3.0829    0.0000 C   0  0  0  0  0  0  0  0  0  0  0  0
    2.5599   -3.4971    0.0000 C   0  0  0  0  0  0  0  0  0  0  0  0
    3.2726   -3.0863    0.0000 C   0  0  0  0  0  0  0  0  0  0  0  0
    4.1025   -3.2477    0.0000 N   0  0  0  0  0  0  0  0  0  0  0  0
    4.5389   -2.4887    0.0000 C   0  0  0  0  0  0  0  0  0  0  0  0
    3.9828   -1.8589    0.0000 C   0  0  0  0  0  0  0  0  0  0  0  0
    2.5600   -1.8488    0.0000 C   0  0  0  0  0  0  0  0  0  0  0  0
    3.2728   -2.2648    0.0000 C   0  0  0  0  0  0  0  0  0  0  0  0
    3.9916   -1.0334    0.0000 C   0  0  0  0  0  0  0  0  0  0  0  0
    2.5600   -1.0258    0.0000 C   0  0  2  0  0  0  0  0  0  0  0  0
    3.2749   -0.6144    0.0000 C   0  0  2  0  0  0  0  0  0  0  0  0
    3.2759    0.2055    0.0000 N   0  0  0  0  0  0  0  0  0  0  0  0
    2.5639    0.6205    0.0000 C   0  0  0  0  0  0  0  0  0  0  0  0
    1.8492    0.2091    0.0000 C   0  0  1  0  0  0  0  0  0  0  0  0
    1.8463   -0.6169    0.0000 C   0  0  0  0  0  0  0  0  0  0  0  0
    1.1340    0.6244    0.0000 C   0  0  0  0  0  0  0  0  0  0  0  0
    0.4168    0.2126    0.0000 N   0  0  0  0  0  0  0  0  0  0  0  0
    3.9934    0.6171    0.0000 C   0  0  0  0  0  0  0  0  0  0  0  0
    3.9895   -0.2034    0.0000 H   0  0  0  0  0  0  0  0  0  0  0  0
    1.1361    1.4515    0.0000 O   0  0  0  0  0  0  0  0  0  0  0  0
    1.8422   -1.4287    0.0000 H   0  0  0  0  0  0  0  0  0  0  0  0
   -0.4045    0.2159    0.0000 C   0  0  1  0  0  0  0  0  0  0  0  0
   -0.8999    0.8822    0.0000 C   0  0  0  0  0  0  0  0  0  0  0  0
   -0.8873   -0.4557    0.0000 O   0  0  0  0  0  0  0  0  0  0  0  0
   -1.6762   -0.2077    0.0000 C   0  0  2  0  0  0  0  0  0  0  0  0
   -1.6797    0.6148    0.0000 N   0  0  0  0  0  0  0  0  0  0  0  0
   -2.3901    1.0209    0.0000 C   0  0  2  0  0  0  0  0  0  0  0  0
   -3.1014    0.6087    0.0000 C   0  0  0  0  0  0  0  0  0  0  0  0
   -2.3831   -0.6245    0.0000 C   0  0  1  0  0  0  0  0  0  0  0  0
   -3.0996   -0.2156    0.0000 N   0  0  0  0  0  0  0  0  0  0  0  0
   -3.7096   -0.7705    0.0000 C   0  0  0  0  0  0  0  0  0  0  0  0
   -3.3703   -1.5225    0.0000 C   0  0  0  0  0  0  0  0  0  0  0  0
   -2.5506   -1.4322    0.0000 C   0  0  0  0  0  0  0  0  0  0  0  0
   -1.6714   -1.0388    0.0000 O   0  0  0  0  0  0  0  0  0  0  0  0
   -2.3941    0.1989    0.0000 H   0  0  0  0  0  0  0  0  0  0  0  0
   -0.6548    1.6721    0.0000 O   0  0  0  0  0  0  0  0  0  0  0  0
   -3.8186    1.0210    0.0000 O   0  0  0  0  0  0  0  0  0  0  0  0
   -2.3924    1.8479    0.0000 C   0  0  0  0  0  0  0  0  0  0  0  0
   -3.1099    2.2596    0.0000 C   0  0  0  0  0  0  0  0  0  0  0  0
    0.0129   -0.4997    0.0000 C   0  0  0  0  0  0  0  0  0  0  0  0
   -0.3963   -1.2159    0.0000 C   0  0  0  0  0  0  0  0  0  0  0  0
    0.8380   -0.4959    0.0000 C   0  0  0  0  0  0  0  0  0  0  0  0
   -3.1099    3.0846    0.0000 C   0  0  0  0  0  0  0  0  0  0  0  0
   -3.8244    3.4971    0.0000 C   0  0  0  0  0  0  0  0  0  0  0  0
   -3.8244    1.8470    0.0000 C   0  0  0  0  0  0  0  0  0  0  0  0
   -4.5389    3.0846    0.0000 C   0  0  0  0  0  0  0  0  0  0  0  0
   -4.5389    2.2596    0.0000 C   0  0  0  0  0  0  0  0  0  0  0  0
    0.9535   -1.7386    0.0000 H   0  0  0  0  0  0  0  0  0  0  0  0
    0.9477   -3.5973    0.0000 H   0  0  0  0  0  0  0  0  0  0  0  0
    2.5596   -4.5291    0.0000 H   0  0  0  0  0  0  0  0  0  0  0  0
    4.5115   -4.1432    0.0000 H   0  0  0  0  0  0  0  0  0  0  0  0
    5.5657   -2.3849    0.0000 H   0  0  0  0  0  0  0  0  0  0  0  0
    4.9225   -0.5059    0.0000 H   0  0  0  0  0  0  0  0  0  0  0  0
    3.9988    0.0366    0.0000 H   0  0  0  0  0  0  0  0  0  0  0  0
    2.5668    1.6905    0.0000 H   0  0  0  0  0  0  0  0  0  0  0  0
    1.6383    1.1574    0.0000 H   0  0  0  0  0  0  0  0  0  0  0  0
    1.8512    1.2791    0.0000 H   0  0  0  0  0  0  0  0  0  0  0  0
    0.9196   -1.1518    0.0000 H   0  0  0  0  0  0  0  0  0  0  0  0
    0.9206   -0.0802    0.0000 H   0  0  0  0  0  0  0  0  0  0  0  0
    0.6686   -0.7392    0.0000 H   0  0  0  0  0  0  0  0  0  0  0  0
    4.9186    0.0795    0.0000 H   0  0  0  0  0  0  0  0  0  0  0  0
    3.9964    1.6871    0.0000 H   0  0  0  0  0  0  0  0  0  0  0  0
    4.9215    1.1495    0.0000 H   0  0  0  0  0  0  0  0  0  0  0  0
   -1.4653    1.5592    0.0000 H   0  0  0  0  0  0  0  0  0  0  0  0
   -4.7573   -0.5533    0.0000 H   0  0  0  0  0  0  0  0  0  0  0  0
   -4.3788   -1.6054    0.0000 H   0  0  0  0  0  0  0  0  0  0  0  0
   -3.9007   -2.4518    0.0000 H   0  0  0  0  0  0  0  0  0  0  0  0
   -2.7831   -2.4170    0.0000 H   0  0  0  0  0  0  0  0  0  0  0  0
   -1.8307   -2.2238    0.0000 H   0  0  0  0  0  0  0  0  0  0  0  0
   -1.5184   -1.1501    0.0000 H   0  0  0  0  0  0  0  0  0  0  0  0
   -2.5086   -1.5286    0.0000 H   0  0  0  0  0  0  0  0  0  0  0  0
   -1.4672    2.3854    0.0000 H   0  0  0  0  0  0  0  0  0  0  0  0
   -2.3953    2.9179    0.0000 H   0  0  0  0  0  0  0  0  0  0  0  0
    0.5521   -1.4239    0.0000 H   0  0  0  0  0  0  0  0  0  0  0  0
   -1.4663   -1.2207    0.0000 H   0  0  0  0  0  0  0  0  0  0  0  0
    0.1429   -2.1401    0.0000 H   0  0  0  0  0  0  0  0  0  0  0  0
   -0.9271   -2.1450    0.0000 H   0  0  0  0  0  0  0  0  0  0  0  0
    1.3773   -1.4201    0.0000 H   0  0  0  0  0  0  0  0  0  0  0  0
    1.3687    0.4332    0.0000 H   0  0  0  0  0  0  0  0  0  0  0  0
    1.9080   -0.4910    0.0000 H   0  0  0  0  0  0  0  0  0  0  0  0
   -2.2162    3.6006    0.0000 H   0  0  0  0  0  0  0  0  0  0  0  0
   -3.8244    4.5291    0.0000 H   0  0  0  0  0  0  0  0  0  0  0  0
   -3.8244    0.8150    0.0000 H   0  0  0  0  0  0  0  0  0  0  0  0
   -5.4326    3.6006    0.0000 H   0  0  0  0  0  0  0  0  0  0  0  0
   -5.4327    1.7436    0.0000 H   0  0  0  0  0  0  0  0  0  0  0  0
  1  2  2  0  0  0  0
  1 49  1  0  0  0  0
  2  3  1  0  0  0  0
  2 50  1  0  0  0  0
  3  4  2  0  0  0  0
  3 51  1  0  0  0  0
  4  5  1  0  0  0  0
  5  6  1  0  0  0  0
  5 52  1  0  0  0  0
  6  7  2  0  0  0  0
  6 53  1  0  0  0  0
  7 10  1  0  0  0  0
  7  9  1  0  0  0  0
  8  1  1  0  0  0  0
  8  9  2  0  0  0  0
  8 11  1  0  0  0  0
  9  4  1  0  0  0  0
 10 12  1  0  0  0  0
 10 54  1  0  0  0  0
 10 55  1  0  0  0  0
 11 12  1  0  0  0  0
 11 16  1  0  0  0  0
 11 22  1  6  0  0  0
 12 13  1  0  0  0  0
 12 20  1  1  0  0  0
 13 14  1  0  0  0  0
 13 19  1  0  0  0  0
 14 15  1  0  0  0  0
 14 56  1  0  0  0  0
 14 57  1  0  0  0  0
 15 16  1  0  0  0  0
 15 17  1  0  0  0  0
 15 58  1  6  0  0  0
 16 59  1  0  0  0  0
 16 60  1  0  0  0  0
 17 18  1  0  0  0  0
 17 21  2  0  0  0  0
 18 61  1  0  0  0  0
 19 62  1  0  0  0  0
 19 63  1  0  0  0  0
 19 64  1  0  0  0  0
 23 18  1  6  0  0  0
 23 24  1  0  0  0  0
 23 41  1  0  0  0  0
 24 27  1  0  0  0  0
 24 37  2  0  0  0  0
 25 23  1  0  0  0  0
 26 25  1  0  0  0  0
 26 27  1  0  0  0  0
 26 30  1  0  0  0  0
 26 35  1  6  0  0  0
 27 28  1  0  0  0  0
 28 29  1  0  0  0  0
 28 39  1  0  0  0  0
 28 65  1  1  0  0  0
 29 31  1  0  0  0  0
 29 38  2  0  0  0  0
 30 31  1  0  0  0  0
 30 36  1  1  0  0  0
 31 32  1  0  0  0  0
 32 33  1  0  0  0  0
 32 66  1  0  0  0  0
 32 67  1  0  0  0  0
 33 34  1  0  0  0  0
 33 68  1  0  0  0  0
 33 69  1  0  0  0  0
 34 30  1  0  0  0  0
 34 70  1  0  0  0  0
 34 71  1  0  0  0  0
 35 72  1  0  0  0  0
 39 40  1  0  0  0  0
 39 73  1  0  0  0  0
 39 74  1  0  0  0  0
 40 44  1  0  0  0  0
 41 42  1  0  0  0  0
 41 43  1  0  0  0  0
 41 75  1  0  0  0  0
 42 76  1  0  0  0  0
 42 77  1  0  0  0  0
 42 78  1  0  0  0  0
 43 79  1  0  0  0  0
 43 80  1  0  0  0  0
 43 81  1  0  0  0  0
 44 82  1  0  0  0  0
 45 44  2  0  0  0  0
 45 83  1  0  0  0  0
 46 40  2  0  0  0  0
 46 84  1  0  0  0  0
 47 45  1  0  0  0  0
 47 85  1  0  0  0  0
 48 46  1  0  0  0  0
 48 47  2  0  0  0  0
 48 86  1  0  0  0  0
M  END
>  <DRUGBANK_ID>
DB13345

>  <COMMON_NAME>
Dihydroergocristine

>  <CAS_NUMBER>
17479-19-5

>  <UNII>
05D48LUM4Z

>  <SYNONYMS>
9,10-dihydroergocristine; DHEC

$$$$
