
 OpenBabel10282417072D

 62 64  0  0  0  0  0  0  0  0999 V2000
   -1.7861    0.2061    0.0000 C   0  0  0  0  0  0  0  0  0  0  0  0
   -1.7861    1.0312    0.0000 C   0  0  3  0  0  0  0  0  0  0  0  0
   -2.5005    1.4438    0.0000 C   0  0  0  0  0  0  0  0  0  0  0  0
   -3.2151    1.0312    0.0000 C   0  0  0  0  0  0  0  0  0  0  0  0
   -3.9296    0.6188    0.0000 C   0  0  0  0  0  0  0  0  0  0  0  0
   -4.6441    0.2061    0.0000 C   0  0  0  0  0  0  0  0  0  0  0  0
   -2.5005   -0.2061    0.0000 O   0  0  0  0  0  0  0  0  0  0  0  0
   -1.0716   -0.2061    0.0000 O   0  0  0  0  0  0  0  0  0  0  0  0
   -5.3584    0.6188    0.0000 N   0  0  0  0  0  0  0  0  0  0  0  0
   -6.0729    0.2061    0.0000 C   0  0  0  0  0  0  0  0  0  0  0  0
   -6.7874    0.6188    0.0000 C   0  0  0  0  0  0  0  0  0  0  0  0
   -6.7874    1.4438    0.0000 O   0  0  0  0  0  0  0  0  0  0  0  0
   -6.0729    1.8562    0.0000 C   0  0  0  0  0  0  0  0  0  0  0  0
   -5.3584    1.4438    0.0000 C   0  0  0  0  0  0  0  0  0  0  0  0
   -1.0716    1.4438    0.0000 N   0  0  0  0  0  0  0  0  0  0  0  0
   -0.3571    1.0312    0.0000 S   0  0  0  0  0  0  0  0  0  0  0  0
   -0.7697    0.3167    0.0000 O   0  0  0  0  0  0  0  0  0  0  0  0
    0.0552    1.7456    0.0000 O   0  0  0  0  0  0  0  0  0  0  0  0
    0.3571    0.6188    0.0000 C   0  0  0  0  0  0  0  0  0  0  0  0
    1.0716    1.0312    0.0000 C   0  0  0  0  0  0  0  0  0  0  0  0
    1.7861    0.6188    0.0000 C   0  0  0  0  0  0  0  0  0  0  0  0
    1.7861   -0.2061    0.0000 C   0  0  0  0  0  0  0  0  0  0  0  0
    1.0716   -0.6188    0.0000 C   0  0  0  0  0  0  0  0  0  0  0  0
    0.3571   -0.2061    0.0000 C   0  0  0  0  0  0  0  0  0  0  0  0
    2.5005   -0.6188    0.0000 N   0  0  0  0  0  0  0  0  0  0  0  0
    3.2151   -0.2061    0.0000 C   0  0  0  0  0  0  0  0  0  0  0  0
    3.9296   -0.6188    0.0000 C   0  0  0  0  0  0  0  0  0  0  0  0
    4.6441   -0.2061    0.0000 C   0  0  0  0  0  0  0  0  0  0  0  0
    5.3584   -0.6188    0.0000 C   0  0  0  0  0  0  0  0  0  0  0  0
    5.3584   -1.4438    0.0000 C   0  0  0  0  0  0  0  0  0  0  0  0
    4.6441   -1.8562    0.0000 C   0  0  0  0  0  0  0  0  0  0  0  0
    3.9296   -1.4438    0.0000 C   0  0  0  0  0  0  0  0  0  0  0  0
    3.2151    0.6188    0.0000 O   0  0  0  0  0  0  0  0  0  0  0  0
    6.0729   -1.8562    0.0000 O   0  0  0  0  0  0  0  0  0  0  0  0
    6.7874   -1.4438    0.0000 C   0  0  0  0  0  0  0  0  0  0  0  0
   -2.7128    0.4963    0.0000 H   0  0  0  0  0  0  0  0  0  0  0  0
   -2.5004    2.5138    0.0000 H   0  0  0  0  0  0  0  0  0  0  0  0
   -3.4271    1.9788    0.0000 H   0  0  0  0  0  0  0  0  0  0  0  0
   -4.6442   -0.8639    0.0000 H   0  0  0  0  0  0  0  0  0  0  0  0
   -5.5708   -0.3287    0.0000 H   0  0  0  0  0  0  0  0  0  0  0  0
   -1.0713   -1.1431    0.0000 H   0  0  0  0  0  0  0  0  0  0  0  0
   -6.0729   -0.8639    0.0000 H   0  0  0  0  0  0  0  0  0  0  0  0
   -6.9996   -0.3288    0.0000 H   0  0  0  0  0  0  0  0  0  0  0  0
   -7.7141    0.0839    0.0000 H   0  0  0  0  0  0  0  0  0  0  0  0
   -7.7140    1.1538    0.0000 H   0  0  0  0  0  0  0  0  0  0  0  0
   -6.0729    2.9262    0.0000 H   0  0  0  0  0  0  0  0  0  0  0  0
   -5.1463    2.3913    0.0000 H   0  0  0  0  0  0  0  0  0  0  0  0
   -4.4318    1.9789    0.0000 H   0  0  0  0  0  0  0  0  0  0  0  0
   -4.4317    0.9088    0.0000 H   0  0  0  0  0  0  0  0  0  0  0  0
   -1.0716    2.4638    0.0000 H   0  0  0  0  0  0  0  0  0  0  0  0
    1.0716    2.0632    0.0000 H   0  0  0  0  0  0  0  0  0  0  0  0
    2.6798    1.1349    0.0000 H   0  0  0  0  0  0  0  0  0  0  0  0
    1.0716   -1.6508    0.0000 H   0  0  0  0  0  0  0  0  0  0  0  0
   -0.5367   -0.7220    0.0000 H   0  0  0  0  0  0  0  0  0  0  0  0
    2.5004   -1.6033    0.0000 H   0  0  0  0  0  0  0  0  0  0  0  0
    4.6442    0.8259    0.0000 H   0  0  0  0  0  0  0  0  0  0  0  0
    6.2522   -0.1029    0.0000 H   0  0  0  0  0  0  0  0  0  0  0  0
    4.6442   -2.8882    0.0000 H   0  0  0  0  0  0  0  0  0  0  0  0
    3.0359   -1.9599    0.0000 H   0  0  0  0  0  0  0  0  0  0  0  0
    7.7140   -1.9789    0.0000 H   0  0  0  0  0  0  0  0  0  0  0  0
    6.7875   -0.3738    0.0000 H   0  0  0  0  0  0  0  0  0  0  0  0
    7.7141   -0.9089    0.0000 H   0  0  0  0  0  0  0  0  0  0  0  0
  1  2  1  0  0  0  0
  1  7  2  0  0  0  0
  1  8  1  0  0  0  0
  2  3  1  0  0  0  0
  2 15  1  0  0  0  0
  2 36  1  0  0  0  0
  3  4  1  0  0  0  0
  3 37  1  0  0  0  0
  3 38  1  0  0  0  0
  4  5  3  0  0  0  0
  5  6  1  0  0  0  0
  6  9  1  0  0  0  0
  6 39  1  0  0  0  0
  6 40  1  0  0  0  0
  8 41  1  0  0  0  0
  9 10  1  0  0  0  0
  9 14  1  0  0  0  0
 10 11  1  0  0  0  0
 10 42  1  0  0  0  0
 10 43  1  0  0  0  0
 11 12  1  0  0  0  0
 11 44  1  0  0  0  0
 11 45  1  0  0  0  0
 12 13  1  0  0  0  0
 13 14  1  0  0  0  0
 13 46  1  0  0  0  0
 13 47  1  0  0  0  0
 14 48  1  0  0  0  0
 14 49  1  0  0  0  0
 15 16  1  0  0  0  0
 15 50  1  0  0  0  0
 16 17  2  0  0  0  0
 16 18  2  0  0  0  0
 16 19  1  0  0  0  0
 19 20  1  0  0  0  0
 19 24  2  0  0  0  0
 20 21  2  0  0  0  0
 20 51  1  0  0  0  0
 21 22  1  0  0  0  0
 21 52  1  0  0  0  0
 22 23  2  0  0  0  0
 22 25  1  0  0  0  0
 23 24  1  0  0  0  0
 23 53  1  0  0  0  0
 24 54  1  0  0  0  0
 25 26  1  0  0  0  0
 25 55  1  0  0  0  0
 26 27  1  0  0  0  0
 26 33  2  0  0  0  0
 27 28  1  0  0  0  0
 27 32  2  0  0  0  0
 28 29  2  0  0  0  0
 28 56  1  0  0  0  0
 29 30  1  0  0  0  0
 29 57  1  0  0  0  0
 30 31  2  0  0  0  0
 30 34  1  0  0  0  0
 31 32  1  0  0  0  0
 31 58  1  0  0  0  0
 32 59  1  0  0  0  0
 34 35  1  0  0  0  0
 35 60  1  0  0  0  0
 35 61  1  0  0  0  0
 35 62  1  0  0  0  0
M  END
>  <DRUGBANK_ID>
DB05495

>  <COMMON_NAME>
PG-530742

>  <CAS_NUMBER>
291533-11-4

>  <UNII>
F94T42GL80

$$$$
