HNA
 OpenBabel10282417072D

 28 30  0  0  0  0  0  0  0  0999 V2000
    1.5106   -0.8017    0.0000 C   0  0  0  0  0  0  0  0  0  0  0  0
    0.7961   -0.3892    0.0000 C   0  0  0  0  0  0  0  0  0  0  0  0
    0.7961    0.4358    0.0000 C   0  0  0  0  0  0  0  0  0  0  0  0
    1.5106    0.8483    0.0000 C   0  0  0  0  0  0  0  0  0  0  0  0
    2.2250    0.4358    0.0000 C   0  0  0  0  0  0  0  0  0  0  0  0
    2.2250   -0.3892    0.0000 C   0  0  0  0  0  0  0  0  0  0  0  0
    0.0816    0.8483    0.0000 C   0  0  0  0  0  0  0  0  0  0  0  0
   -0.6329    0.4358    0.0000 C   0  0  0  0  0  0  0  0  0  0  0  0
   -0.6329   -0.3892    0.0000 C   0  0  0  0  0  0  0  0  0  0  0  0
    0.0816   -0.8017    0.0000 C   0  0  0  0  0  0  0  0  0  0  0  0
   -1.3473   -0.8017    0.0000 C   0  0  0  0  0  0  0  0  0  0  0  0
   -2.0618   -0.3892    0.0000 C   0  0  0  0  0  0  0  0  0  0  0  0
   -2.0618    0.4358    0.0000 C   0  0  0  0  0  0  0  0  0  0  0  0
   -1.3473    0.8483    0.0000 C   0  0  0  0  0  0  0  0  0  0  0  0
    0.0816   -1.6267    0.0000 O   0  0  0  0  0  0  0  0  0  0  0  0
    0.0816    1.6733    0.0000 O   0  0  0  0  0  0  0  0  0  0  0  0
    1.5106   -1.6267    0.0000 O   0  0  0  0  0  0  0  0  0  0  0  0
   -1.3473   -1.6267    0.0000 O   0  0  0  0  0  0  0  0  0  0  0  0
    1.5106    1.6733    0.0000 N   0  3  0  0  0  0  0  0  0  0  0  0
    0.7961    2.0858    0.0000 O   0  5  0  0  0  0  0  0  0  0  0  0
    2.2250    2.0858    0.0000 O   0  0  0  0  0  0  0  0  0  0  0  0
    3.1187    0.9518    0.0000 H   0  0  0  0  0  0  0  0  0  0  0  0
    3.1187   -0.9052    0.0000 H   0  0  0  0  0  0  0  0  0  0  0  0
   -2.9555   -0.9052    0.0000 H   0  0  0  0  0  0  0  0  0  0  0  0
   -2.9555    0.9518    0.0000 H   0  0  0  0  0  0  0  0  0  0  0  0
   -1.3473    1.8803    0.0000 H   0  0  0  0  0  0  0  0  0  0  0  0
    0.6991   -2.0952    0.0000 H   0  0  0  0  0  0  0  0  0  0  0  0
   -2.1588   -2.0952    0.0000 H   0  0  0  0  0  0  0  0  0  0  0  0
  1  2  2  0  0  0  0
  1  6  1  0  0  0  0
  1 17  1  0  0  0  0
  2  3  1  0  0  0  0
  2 10  1  0  0  0  0
  3  4  2  0  0  0  0
  3  7  1  0  0  0  0
  4  5  1  0  0  0  0
  4 19  1  0  0  0  0
  5  6  2  0  0  0  0
  5 22  1  0  0  0  0
  6 23  1  0  0  0  0
  7  8  1  0  0  0  0
  7 16  2  0  0  0  0
  8  9  2  0  0  0  0
  8 14  1  0  0  0  0
  9 10  1  0  0  0  0
  9 11  1  0  0  0  0
 10 15  2  0  0  0  0
 11 12  2  0  0  0  0
 11 18  1  0  0  0  0
 12 13  1  0  0  0  0
 12 24  1  0  0  0  0
 13 14  2  0  0  0  0
 13 25  1  0  0  0  0
 14 26  1  0  0  0  0
 17 27  1  0  0  0  0
 18 28  1  0  0  0  0
 19 20  1  0  0  0  0
 19 21  2  0  0  0  0
M  CHG  2  19   1  20  -1
M  END
>  <DRUGBANK_ID>
DB03035

>  <SECONDARY_ACCESSION_NUMBERS>
EXPT01762

>  <COMMON_NAME>
1,8-Di-Hydroxy-4-Nitro-Anthraquinone

$$$$
