
 OpenBabel10282417072D

 79 82  0  0  0  0  0  0  0  0999 V2000
   -5.2792   -0.8313    0.0000 C   0  0  0  0  0  0  0  0  0  0  0  0
   -5.6949   -0.1108    0.0000 C   0  0  0  0  0  0  0  0  0  0  0  0
   -6.5125   -0.1108    0.0000 C   0  0  0  0  0  0  0  0  0  0  0  0
   -6.9281   -0.8313    0.0000 C   0  0  0  0  0  0  0  0  0  0  0  0
   -6.5125   -1.5380    0.0000 C   0  0  0  0  0  0  0  0  0  0  0  0
   -5.6949   -1.5380    0.0000 C   0  0  0  0  0  0  0  0  0  0  0  0
   -4.4478   -0.8313    0.0000 C   0  0  0  0  0  0  0  0  0  0  0  0
   -2.7990   -0.8313    0.0000 C   0  0  0  0  0  0  0  0  0  0  0  0
   -3.2146   -0.1108    0.0000 C   0  0  0  0  0  0  0  0  0  0  0  0
   -4.0321   -0.1108    0.0000 C   0  0  0  0  0  0  0  0  0  0  0  0
   -4.0321   -1.5380    0.0000 C   0  0  0  0  0  0  0  0  0  0  0  0
   -3.2146   -1.5380    0.0000 C   0  0  0  0  0  0  0  0  0  0  0  0
   -1.9675   -0.8313    0.0000 C   0  0  0  0  0  0  0  0  0  0  0  0
   -1.7736    1.3579    0.0000 C   0  0  0  0  0  0  0  0  0  0  0  0
   -2.0230    0.5681    0.0000 C   0  0  0  0  0  0  0  0  0  0  0  0
   -0.7344   -0.1801    0.0000 C   0  0  0  0  0  0  0  0  0  0  0  0
   -0.2910    1.2332    0.0000 C   0  0  0  0  0  0  0  0  0  0  0  0
   -0.9976    1.6489    0.0000 C   0  0  0  0  0  0  0  0  0  0  0  0
   -1.5657   -0.1108    0.0000 N   0  0  0  0  0  0  0  0  0  0  0  0
   -0.4434   -0.9561    0.0000 O   0  0  0  0  0  0  0  0  0  0  0  0
   -0.1663    0.4156    0.0000 C   0  0  2  0  0  0  0  0  0  0  0  0
    0.6512    0.4156    0.0000 N   0  0  0  0  0  0  0  0  0  0  0  0
    1.3717    0.8313    0.0000 C   0  0  0  0  0  0  0  0  0  0  0  0
    1.3717    1.6489    0.0000 O   0  0  0  0  0  0  0  0  0  0  0  0
    2.0784    0.4156    0.0000 C   0  0  1  0  0  0  0  0  0  0  0  0
    2.0784   -0.4156    0.0000 N   0  0  0  0  0  0  0  0  0  0  0  0
    2.7990   -0.8174    0.0000 C   0  0  0  0  0  0  0  0  0  0  0  0
    3.5194   -0.4156    0.0000 C   0  0  0  0  0  0  0  0  0  0  0  0
    2.7990   -1.6489    0.0000 O   0  0  0  0  0  0  0  0  0  0  0  0
    2.7990    0.8313    0.0000 C   0  0  0  0  0  0  0  0  0  0  0  0
    3.6303    0.8313    0.0000 C   0  0  0  0  0  0  0  0  0  0  0  0
    4.8635    1.5381    0.0000 C   0  0  0  0  0  0  0  0  0  0  0  0
    4.0321    1.5381    0.0000 C   0  0  0  0  0  0  0  0  0  0  0  0
    4.0321    0.1108    0.0000 C   0  0  0  0  0  0  0  0  0  0  0  0
    4.8635    0.1108    0.0000 C   0  0  0  0  0  0  0  0  0  0  0  0
    5.2792    0.8313    0.0000 C   0  0  0  0  0  0  0  0  0  0  0  0
    5.2792   -0.5958    0.0000 P   0  0  0  0  0  0  0  0  0  0  0  0
    6.0967   -0.5958    0.0000 O   0  0  0  0  0  0  0  0  0  0  0  0
    4.4755   -0.8174    0.0000 O   0  0  0  0  0  0  0  0  0  0  0  0
    5.2792   -1.4272    0.0000 O   0  0  0  0  0  0  0  0  0  0  0  0
    6.0967    0.8313    0.0000 P   0  0  0  0  0  0  0  0  0  0  0  0
    6.0967    0.0000    0.0000 O   0  0  0  0  0  0  0  0  0  0  0  0
    6.0967    1.6489    0.0000 O   0  0  0  0  0  0  0  0  0  0  0  0
    6.9281    0.8313    0.0000 O   0  0  0  0  0  0  0  0  0  0  0  0
   -5.1788    0.7829    0.0000 H   0  0  0  0  0  0  0  0  0  0  0  0
   -7.0287    0.7828    0.0000 H   0  0  0  0  0  0  0  0  0  0  0  0
   -7.9601   -0.8356    0.0000 H   0  0  0  0  0  0  0  0  0  0  0  0
   -7.0249   -2.4338    0.0000 H   0  0  0  0  0  0  0  0  0  0  0  0
   -5.1825   -2.4338    0.0000 H   0  0  0  0  0  0  0  0  0  0  0  0
   -2.6984    0.7828    0.0000 H   0  0  0  0  0  0  0  0  0  0  0  0
   -4.5482    0.7829    0.0000 H   0  0  0  0  0  0  0  0  0  0  0  0
   -4.5445   -2.4338    0.0000 H   0  0  0  0  0  0  0  0  0  0  0  0
   -2.7022   -2.4338    0.0000 H   0  0  0  0  0  0  0  0  0  0  0  0
   -1.4256   -1.7539    0.0000 H   0  0  0  0  0  0  0  0  0  0  0  0
   -0.8976   -0.8194    0.0000 H   0  0  0  0  0  0  0  0  0  0  0  0
   -2.5500    2.0942    0.0000 H   0  0  0  0  0  0  0  0  0  0  0  0
   -1.5609    2.4066    0.0000 H   0  0  0  0  0  0  0  0  0  0  0  0
   -3.0820    0.4151    0.0000 H   0  0  0  0  0  0  0  0  0  0  0  0
   -2.4566   -0.4101    0.0000 H   0  0  0  0  0  0  0  0  0  0  0  0
    0.5950    1.8331    0.0000 H   0  0  0  0  0  0  0  0  0  0  0  0
   -0.3249    2.3027    0.0000 H   0  0  0  0  0  0  0  0  0  0  0  0
   -0.9052    2.7149    0.0000 H   0  0  0  0  0  0  0  0  0  0  0  0
   -0.0467    2.1394    0.0000 H   0  0  0  0  0  0  0  0  0  0  0  0
    0.2549   -0.5680    0.0000 H   0  0  0  0  0  0  0  0  0  0  0  0
    0.9059   -0.5354    0.0000 H   0  0  0  0  0  0  0  0  0  0  0  0
    1.1496   -0.1156    0.0000 H   0  0  0  0  0  0  0  0  0  0  0  0
    1.2295   -0.9142    0.0000 H   0  0  0  0  0  0  0  0  0  0  0  0
    4.4380   -0.9643    0.0000 H   0  0  0  0  0  0  0  0  0  0  0  0
    3.5353    0.6543    0.0000 H   0  0  0  0  0  0  0  0  0  0  0  0
    4.4539    0.1056    0.0000 H   0  0  0  0  0  0  0  0  0  0  0  0
    2.5222    1.8649    0.0000 H   0  0  0  0  0  0  0  0  0  0  0  0
    3.4504    1.6801    0.0000 H   0  0  0  0  0  0  0  0  0  0  0  0
    5.3759    2.4339    0.0000 H   0  0  0  0  0  0  0  0  0  0  0  0
    3.5131    2.4301    0.0000 H   0  0  0  0  0  0  0  0  0  0  0  0
    3.5095   -0.7791    0.0000 H   0  0  0  0  0  0  0  0  0  0  0  0
    3.7847   -0.1365    0.0000 H   0  0  0  0  0  0  0  0  0  0  0  0
    4.4392   -1.9122    0.0000 H   0  0  0  0  0  0  0  0  0  0  0  0
    6.9367    2.1339    0.0000 H   0  0  0  0  0  0  0  0  0  0  0  0
    7.4131   -0.0087    0.0000 H   0  0  0  0  0  0  0  0  0  0  0  0
  1  2  2  0  0  0  0
  1  6  1  0  0  0  0
  1  7  1  0  0  0  0
  2  3  1  0  0  0  0
  2 45  1  0  0  0  0
  3  4  2  0  0  0  0
  3 46  1  0  0  0  0
  4  5  1  0  0  0  0
  4 47  1  0  0  0  0
  5  6  2  0  0  0  0
  5 48  1  0  0  0  0
  6 49  1  0  0  0  0
  7 10  1  0  0  0  0
  7 11  2  0  0  0  0
  8  9  1  0  0  0  0
  8 12  2  0  0  0  0
  8 13  1  0  0  0  0
  9 10  2  0  0  0  0
  9 50  1  0  0  0  0
 10 51  1  0  0  0  0
 11 12  1  0  0  0  0
 11 52  1  0  0  0  0
 12 53  1  0  0  0  0
 13 19  1  0  0  0  0
 13 54  1  0  0  0  0
 13 55  1  0  0  0  0
 14 15  1  0  0  0  0
 14 18  1  0  0  0  0
 14 56  1  0  0  0  0
 14 57  1  0  0  0  0
 15 19  1  0  0  0  0
 15 58  1  0  0  0  0
 15 59  1  0  0  0  0
 16 19  1  0  0  0  0
 16 21  1  0  0  0  0
 16 20  2  0  0  0  0
 17 21  1  0  0  0  0
 17 18  1  0  0  0  0
 17 60  1  0  0  0  0
 17 61  1  0  0  0  0
 18 62  1  0  0  0  0
 18 63  1  0  0  0  0
 21 22  1  0  0  0  0
 21 64  1  1  0  0  0
 22 23  1  0  0  0  0
 22 65  1  0  0  0  0
 23 25  1  0  0  0  0
 23 24  2  0  0  0  0
 25 30  1  0  0  0  0
 25 26  1  0  0  0  0
 25 66  1  1  0  0  0
 26 27  1  0  0  0  0
 26 67  1  0  0  0  0
 27 28  1  0  0  0  0
 27 29  2  0  0  0  0
 28 68  1  0  0  0  0
 28 69  1  0  0  0  0
 28 70  1  0  0  0  0
 30 31  1  0  0  0  0
 30 71  1  0  0  0  0
 30 72  1  0  0  0  0
 31 33  1  0  0  0  0
 31 34  2  0  0  0  0
 32 36  1  0  0  0  0
 32 33  2  0  0  0  0
 32 73  1  0  0  0  0
 33 74  1  0  0  0  0
 34 35  1  0  0  0  0
 34 75  1  0  0  0  0
 35 36  2  0  0  0  0
 35 37  1  0  0  0  0
 36 41  1  0  0  0  0
 37 38  2  0  0  0  0
 37 40  1  0  0  0  0
 37 39  1  0  0  0  0
 39 76  1  0  0  0  0
 40 77  1  0  0  0  0
 41 44  1  0  0  0  0
 41 42  2  0  0  0  0
 41 43  1  0  0  0  0
 43 78  1  0  0  0  0
 44 79  1  0  0  0  0
M  END
>  <DRUGBANK_ID>
DB02336

>  <SECONDARY_ACCESSION_NUMBERS>
EXPT00328

>  <COMMON_NAME>
RU83876

$$$$
