
 OpenBabel10282417072D

 68 74  0  0  1  0  0  0  0  0999 V2000
    2.5465   -2.0248    0.0000 N   0  0  0  0  0  0  0  0  0  0  0  0
    2.2995   -2.8210    0.0000 C   0  0  0  0  0  0  0  0  0  0  0  0
    2.9713   -3.3001    0.0000 N   0  0  0  0  0  0  0  0  0  0  0  0
    3.6354   -2.8067    0.0000 C   0  0  0  0  0  0  0  0  0  0  0  0
    4.4423   -2.9705    0.0000 C   0  0  0  0  0  0  0  0  0  0  0  0
    4.9886   -2.3523    0.0000 N   0  0  0  0  0  0  0  0  0  0  0  0
    4.7231   -1.5702    0.0000 C   0  0  0  0  0  0  0  0  0  0  0  0
    3.9162   -1.4064    0.0000 N   0  0  0  0  0  0  0  0  0  0  0  0
    3.3702   -2.0248    0.0000 C   0  0  0  0  0  0  0  0  0  0  0  0
    4.7079   -3.7526    0.0000 N   0  0  0  0  0  0  0  0  0  0  0  0
    2.0532   -1.3705    0.0000 C   0  0  2  0  0  0  0  0  0  0  0  0
    2.3635   -0.6078    0.0000 O   0  0  0  0  0  0  0  0  0  0  0  0
    1.7027   -0.1164    0.0000 C   0  0  2  0  0  0  0  0  0  0  0  0
    1.9569    0.6646    0.0000 C   0  0  0  0  0  0  0  0  0  0  0  0
    1.7528    1.4640    0.0000 O   0  0  0  0  0  0  0  0  0  0  0  0
    1.1452    2.0231    0.0000 P   0  0  2  0  0  0  0  0  0  0  0  0
    0.3321    2.1682    0.0000 O   0  0  0  0  0  0  0  0  0  0  0  0
   -0.4298    1.8451    0.0000 C   0  0  2  0  0  0  0  0  0  0  0  0
   -0.8967    1.1661    0.0000 C   0  0  1  0  0  0  0  0  0  0  0  0
   -0.8967    0.3432    0.0000 C   0  0  0  0  0  0  0  0  0  0  0  0
   -0.4968   -0.3658    0.0000 O   0  0  0  0  0  0  0  0  0  0  0  0
   -0.4540   -0.9716    0.0000 P   0  0  1  0  0  0  0  0  0  0  0  0
    0.1573   -0.4352    0.0000 S   0  0  0  0  0  0  0  0  0  0  0  0
    0.3333   -1.5498    0.0000 O   0  0  0  0  0  0  0  0  0  0  0  0
    1.1579   -1.4573    0.0000 C   0  0  2  0  0  0  0  0  0  0  0  0
    1.0605   -0.6374    0.0000 C   0  0  2  0  0  0  0  0  0  0  0  0
    0.3662    0.3513    0.0000 O   0  0  0  0  0  0  0  0  0  0  0  0
   -1.0966   -1.4488    0.0000 O   0  0  0  0  0  0  0  0  0  0  0  0
   -1.7103    1.4028    0.0000 O   0  0  0  0  0  0  0  0  0  0  0  0
   -1.7103    2.2260    0.0000 C   0  0  2  0  0  0  0  0  0  0  0  0
   -0.9303    2.5015    0.0000 C   0  0  2  0  0  0  0  0  0  0  0  0
   -0.6982    3.2939    0.0000 O   0  0  0  0  0  0  0  0  0  0  0  0
   -2.3894    2.6929    0.0000 N   0  0  0  0  0  0  0  0  0  0  0  0
   -2.3894    3.5161    0.0000 C   0  0  0  0  0  0  0  0  0  0  0  0
   -3.2029    3.7526    0.0000 N   0  0  0  0  0  0  0  0  0  0  0  0
   -3.6700    3.0690    0.0000 C   0  0  0  0  0  0  0  0  0  0  0  0
   -4.4800    2.9653    0.0000 C   0  0  0  0  0  0  0  0  0  0  0  0
   -4.8019    2.2006    0.0000 N   0  0  0  0  0  0  0  0  0  0  0  0
   -4.2979    1.5489    0.0000 C   0  0  0  0  0  0  0  0  0  0  0  0
   -3.4810    1.6573    0.0000 N   0  0  0  0  0  0  0  0  0  0  0  0
   -3.1647    2.4173    0.0000 C   0  0  0  0  0  0  0  0  0  0  0  0
   -4.9886    3.6170    0.0000 N   0  0  0  0  0  0  0  0  0  0  0  0
    1.8713    2.4132    0.0000 S   0  0  0  0  0  0  0  0  0  0  0  0
    1.0133    2.8392    0.0000 O   0  0  0  0  0  0  0  0  0  0  0  0
    1.3216   -3.1508    0.0000 H   0  0  0  0  0  0  0  0  0  0  0  0
    5.4051   -0.7956    0.0000 H   0  0  0  0  0  0  0  0  0  0  0  0
    4.0589   -4.4929    0.0000 H   0  0  0  0  0  0  0  0  0  0  0  0
    5.6735   -3.9445    0.0000 H   0  0  0  0  0  0  0  0  0  0  0  0
    3.1142   -1.2320    0.0000 H   0  0  0  0  0  0  0  0  0  0  0  0
    2.7222    0.2083    0.0000 H   0  0  0  0  0  0  0  0  0  0  0  0
    3.0263    0.6300    0.0000 H   0  0  0  0  0  0  0  0  0  0  0  0
    2.6269    1.4989    0.0000 H   0  0  0  0  0  0  0  0  0  0  0  0
    0.2470    1.0163    0.0000 H   0  0  0  0  0  0  0  0  0  0  0  0
    0.1251    0.8487    0.0000 H   0  0  0  0  0  0  0  0  0  0  0  0
   -1.9316    0.0715    0.0000 H   0  0  0  0  0  0  0  0  0  0  0  0
   -1.3136   -0.6422    0.0000 H   0  0  0  0  0  0  0  0  0  0  0  0
    1.4452   -0.8720    0.0000 H   0  0  0  0  0  0  0  0  0  0  0  0
    0.3195   -0.7925    0.0000 H   0  0  0  0  0  0  0  0  0  0  0  0
    0.0611   -1.0196    0.0000 H   0  0  0  0  0  0  0  0  0  0  0  0
    0.7749    1.2310    0.0000 H   0  0  0  0  0  0  0  0  0  0  0  0
   -2.6573    1.7279    0.0000 H   0  0  0  0  0  0  0  0  0  0  0  0
   -1.7073    3.2372    0.0000 H   0  0  0  0  0  0  0  0  0  0  0  0
    0.2443    3.5232    0.0000 H   0  0  0  0  0  0  0  0  0  0  0  0
   -1.5641    4.1357    0.0000 H   0  0  0  0  0  0  0  0  0  0  0  0
   -4.6905    0.5945    0.0000 H   0  0  0  0  0  0  0  0  0  0  0  0
   -4.6193    4.5296    0.0000 H   0  0  0  0  0  0  0  0  0  0  0  0
   -5.9636    3.4805    0.0000 H   0  0  0  0  0  0  0  0  0  0  0  0
    3.0277    1.6975    0.0000 H   0  0  0  0  0  0  0  0  0  0  0  0
  2  1  1  0  0  0  0
  2 45  1  0  0  0  0
  3  2  2  0  0  0  0
  3  4  1  0  0  0  0
  4  9  2  0  0  0  0
  5  4  1  0  0  0  0
  6  5  2  0  0  0  0
  6  7  1  0  0  0  0
  7  8  2  0  0  0  0
  7 46  1  0  0  0  0
  8  9  1  0  0  0  0
  9  1  1  0  0  0  0
 10  5  1  0  0  0  0
 10 47  1  0  0  0  0
 10 48  1  0  0  0  0
 11  1  1  0  0  0  0
 11 49  1  6  0  0  0
 12 11  1  0  0  0  0
 13 12  1  0  0  0  0
 13 14  1  0  0  0  0
 13 50  1  6  0  0  0
 14 51  1  0  0  0  0
 14 52  1  0  0  0  0
 15 14  1  0  0  0  0
 16 15  1  0  0  0  0
 16 43  1  0  0  0  0
 16 44  2  1  0  0  0
 17 16  1  0  0  0  0
 18 17  1  0  0  0  0
 18 19  1  0  0  0  0
 18 31  1  0  0  0  0
 18 53  1  1  0  0  0
 19 20  1  0  0  0  0
 19 29  1  0  0  0  0
 19 54  1  6  0  0  0
 20 55  1  0  0  0  0
 20 56  1  0  0  0  0
 21 20  1  0  0  0  0
 22 21  1  0  0  0  0
 22 23  1  0  0  0  0
 22 28  2  6  0  0  0
 23 57  1  0  0  0  0
 24 22  1  0  0  0  0
 25 24  1  0  0  0  0
 25 11  1  0  0  0  0
 25 58  1  1  0  0  0
 26 25  1  0  0  0  0
 26 13  1  0  0  0  0
 26 27  1  0  0  0  0
 26 59  1  1  0  0  0
 27 60  1  0  0  0  0
 29 30  1  0  0  0  0
 30 33  1  0  0  0  0
 30 61  1  6  0  0  0
 31 30  1  0  0  0  0
 31 32  1  0  0  0  0
 31 62  1  1  0  0  0
 32 63  1  0  0  0  0
 34 33  1  0  0  0  0
 34 64  1  0  0  0  0
 35 34  2  0  0  0  0
 35 36  1  0  0  0  0
 36 41  2  0  0  0  0
 37 36  1  0  0  0  0
 38 37  2  0  0  0  0
 38 39  1  0  0  0  0
 39 40  2  0  0  0  0
 39 65  1  0  0  0  0
 40 41  1  0  0  0  0
 41 33  1  0  0  0  0
 42 37  1  0  0  0  0
 42 66  1  0  0  0  0
 42 67  1  0  0  0  0
 43 68  1  0  0  0  0
M  END
>  <DRUGBANK_ID>
DB14722

>  <COMMON_NAME>
ADU-S100

>  <CAS_NUMBER>
1638241-89-0

>  <UNII>
NV32768L81

>  <SYNONYMS>
ADU-S100 free acid

$$$$
