LJ1
 OpenBabel10282417072D

 33 34  0  0  0  0  0  0  0  0999 V2000
   -1.2474    2.0037    0.0000 C   0  0  0  0  0  0  0  0  0  0  0  0
   -1.2474    1.1787    0.0000 C   0  0  0  0  0  0  0  0  0  0  0  0
   -0.5329    0.7662    0.0000 C   0  0  0  0  0  0  0  0  0  0  0  0
   -1.9618    0.7662    0.0000 C   0  0  0  0  0  0  0  0  0  0  0  0
   -2.6763    1.1787    0.0000 O   0  0  0  0  0  0  0  0  0  0  0  0
   -1.9618   -0.0588    0.0000 C   0  0  0  0  0  0  0  0  0  0  0  0
   -2.6763   -0.4713    0.0000 C   0  0  0  0  0  0  0  0  0  0  0  0
   -1.2474   -0.4713    0.0000 C   0  0  0  0  0  0  0  0  0  0  0  0
   -0.5329   -0.0588    0.0000 C   0  0  0  0  0  0  0  0  0  0  0  0
    0.1816   -0.4713    0.0000 C   0  0  0  0  0  0  0  0  0  0  0  0
    0.8961   -0.0588    0.0000 C   0  0  0  0  0  0  0  0  0  0  0  0
    1.6105   -0.4713    0.0000 C   0  0  0  0  0  0  0  0  0  0  0  0
    2.3250   -0.0588    0.0000 C   0  0  0  0  0  0  0  0  0  0  0  0
    3.0395   -0.4713    0.0000 C   0  0  0  0  0  0  0  0  0  0  0  0
    3.0395   -1.2963    0.0000 C   0  0  0  0  0  0  0  0  0  0  0  0
    2.3250   -1.7088    0.0000 C   0  0  0  0  0  0  0  0  0  0  0  0
    1.6105   -1.2963    0.0000 C   0  0  0  0  0  0  0  0  0  0  0  0
   -0.3208    2.5387    0.0000 H   0  0  0  0  0  0  0  0  0  0  0  0
   -2.1740    2.5387    0.0000 H   0  0  0  0  0  0  0  0  0  0  0  0
   -1.2474    3.0737    0.0000 H   0  0  0  0  0  0  0  0  0  0  0  0
    0.3608    1.2822    0.0000 H   0  0  0  0  0  0  0  0  0  0  0  0
   -2.6763    2.1157    0.0000 H   0  0  0  0  0  0  0  0  0  0  0  0
   -3.6029    0.0637    0.0000 H   0  0  0  0  0  0  0  0  0  0  0  0
   -2.6763   -1.5413    0.0000 H   0  0  0  0  0  0  0  0  0  0  0  0
   -3.6030   -1.0063    0.0000 H   0  0  0  0  0  0  0  0  0  0  0  0
   -1.2474   -1.5033    0.0000 H   0  0  0  0  0  0  0  0  0  0  0  0
    0.1816   -1.5033    0.0000 H   0  0  0  0  0  0  0  0  0  0  0  0
    0.8961    0.9732    0.0000 H   0  0  0  0  0  0  0  0  0  0  0  0
    2.3250    0.9732    0.0000 H   0  0  0  0  0  0  0  0  0  0  0  0
    3.9332    0.0447    0.0000 H   0  0  0  0  0  0  0  0  0  0  0  0
    3.9332   -1.8123    0.0000 H   0  0  0  0  0  0  0  0  0  0  0  0
    2.3250   -2.7408    0.0000 H   0  0  0  0  0  0  0  0  0  0  0  0
    0.7168   -1.8123    0.0000 H   0  0  0  0  0  0  0  0  0  0  0  0
  1  2  1  0  0  0  0
  1 18  1  0  0  0  0
  1 19  1  0  0  0  0
  1 20  1  0  0  0  0
  2  3  2  0  0  0  0
  2  4  1  0  0  0  0
  3  9  1  0  0  0  0
  3 21  1  0  0  0  0
  4  5  1  0  0  0  0
  4  6  2  0  0  0  0
  5 22  1  0  0  0  0
  6  7  1  0  0  0  0
  6  8  1  0  0  0  0
  7 23  1  0  0  0  0
  7 24  1  0  0  0  0
  7 25  1  0  0  0  0
  8  9  2  0  0  0  0
  8 26  1  0  0  0  0
  9 10  1  0  0  0  0
 10 11  2  0  0  0  0
 10 27  1  0  0  0  0
 11 12  1  0  0  0  0
 11 28  1  0  0  0  0
 12 13  2  0  0  0  0
 12 17  1  0  0  0  0
 13 14  1  0  0  0  0
 13 29  1  0  0  0  0
 14 15  2  0  0  0  0
 14 30  1  0  0  0  0
 15 16  1  0  0  0  0
 15 31  1  0  0  0  0
 16 17  2  0  0  0  0
 16 32  1  0  0  0  0
 17 33  1  0  0  0  0
M  END
>  <DRUGBANK_ID>
DB08100

>  <COMMON_NAME>
2,6-dimethyl-4-[(E)-2-phenylethenyl]phenol

>  <UNII>
1JVW0GEF1L

$$$$
