
 OpenBabel10282417072D

 48 49  0  0  0  0  0  0  0  0999 V2000
   -0.7024    0.0000    0.0000 C   0  0  0  0  0  0  0  0  0  0  0  0
   -0.7024   -0.8115    0.0000 C   0  0  0  0  0  0  0  0  0  0  0  0
   -0.7024    0.8115    0.0000 C   0  0  0  0  0  0  0  0  0  0  0  0
    0.1212    0.0000    0.0000 C   0  0  0  0  0  0  0  0  0  0  0  0
   -1.5291    0.0000    0.0000 O   0  0  0  0  0  0  0  0  0  0  0  0
   -1.4326   -1.2197    0.0000 C   0  0  0  0  0  0  0  0  0  0  0  0
    0.0025   -1.2248    0.0000 C   0  0  0  0  0  0  0  0  0  0  0  0
    0.0025    1.2346    0.0000 C   0  0  0  0  0  0  0  0  0  0  0  0
   -1.4227    1.2346    0.0000 C   0  0  0  0  0  0  0  0  0  0  0  0
    0.5170   -0.7175    0.0000 O   0  0  0  0  0  0  0  0  0  0  0  0
    0.5170    0.7051    0.0000 O   0  0  0  0  0  0  0  0  0  0  0  0
   -1.9399   -0.7026    0.0000 C   0  0  0  0  0  0  0  0  0  0  0  0
   -1.4326   -2.0462    0.0000 C   0  0  0  0  0  0  0  0  0  0  0  0
    0.0122   -2.0462    0.0000 C   0  0  0  0  0  0  0  0  0  0  0  0
    0.0122    2.0438    0.0000 C   0  0  0  0  0  0  0  0  0  0  0  0
   -1.4326    2.0438    0.0000 C   0  0  0  0  0  0  0  0  0  0  0  0
    1.3262   -0.7026    0.0000 C   0  0  0  0  0  0  0  0  0  0  0  0
   -2.7589   -0.7026    0.0000 C   0  0  0  0  0  0  0  0  0  0  0  0
   -0.7024   -2.4619    0.0000 C   0  0  0  0  0  0  0  0  0  0  0  0
   -0.7024    2.4619    0.0000 C   0  0  0  0  0  0  0  0  0  0  0  0
    1.7344   -1.4400    0.0000 C   0  0  0  0  0  0  0  0  0  0  0  0
   -3.5853   -0.7026    0.0000 C   0  0  0  0  0  0  0  0  0  0  0  0
    2.7391   -1.4400    0.0000 N   0  0  0  0  0  0  0  0  0  0  0  0
    3.5185   -2.3085    0.0000 C   0  0  0  0  0  0  0  0  0  0  0  0
    3.5853   -0.6582    0.0000 C   0  0  0  0  0  0  0  0  0  0  0  0
   -2.3227   -0.6975    0.0000 H   0  0  0  0  0  0  0  0  0  0  0  0
    0.8949   -0.7065    0.0000 H   0  0  0  0  0  0  0  0  0  0  0  0
    0.8975    0.7208    0.0000 H   0  0  0  0  0  0  0  0  0  0  0  0
   -2.3152    0.7165    0.0000 H   0  0  0  0  0  0  0  0  0  0  0  0
   -1.4074   -1.6307    0.0000 H   0  0  0  0  0  0  0  0  0  0  0  0
   -2.4762   -1.6285    0.0000 H   0  0  0  0  0  0  0  0  0  0  0  0
   -2.3248   -2.5649    0.0000 H   0  0  0  0  0  0  0  0  0  0  0  0
    0.9098   -2.5554    0.0000 H   0  0  0  0  0  0  0  0  0  0  0  0
    0.9105    2.5518    0.0000 H   0  0  0  0  0  0  0  0  0  0  0  0
   -2.3286    2.5559    0.0000 H   0  0  0  0  0  0  0  0  0  0  0  0
    1.8610    0.2242    0.0000 H   0  0  0  0  0  0  0  0  0  0  0  0
    2.3962   -0.7121    0.0000 H   0  0  0  0  0  0  0  0  0  0  0  0
   -0.6976   -3.4939    0.0000 H   0  0  0  0  0  0  0  0  0  0  0  0
   -0.6976    3.4939    0.0000 H   0  0  0  0  0  0  0  0  0  0  0  0
    1.1911   -2.3618    0.0000 H   0  0  0  0  0  0  0  0  0  0  0  0
    2.2652   -2.3690    0.0000 H   0  0  0  0  0  0  0  0  0  0  0  0
   -4.5793   -0.7026    0.0000 H   0  0  0  0  0  0  0  0  0  0  0  0
    3.1862   -3.3256    0.0000 H   0  0  0  0  0  0  0  0  0  0  0  0
    4.5655   -2.0878    0.0000 H   0  0  0  0  0  0  0  0  0  0  0  0
    4.2332   -3.1048    0.0000 H   0  0  0  0  0  0  0  0  0  0  0  0
    4.6071   -0.9758    0.0000 H   0  0  0  0  0  0  0  0  0  0  0  0
    3.3494    0.3855    0.0000 H   0  0  0  0  0  0  0  0  0  0  0  0
    4.3712    0.0679    0.0000 H   0  0  0  0  0  0  0  0  0  0  0  0
  1  2  1  0  0  0  0
  1  3  1  0  0  0  0
  1  4  1  0  0  0  0
  1  5  1  0  0  0  0
  2  6  2  0  0  0  0
  2  7  1  0  0  0  0
  3  8  2  0  0  0  0
  3  9  1  0  0  0  0
  4 10  1  0  0  0  0
  4 11  2  0  0  0  0
  5 12  1  0  0  0  0
  6 13  1  0  0  0  0
  6 26  1  0  0  0  0
  7 14  2  0  0  0  0
  7 27  1  0  0  0  0
  8 15  1  0  0  0  0
  8 28  1  0  0  0  0
  9 16  2  0  0  0  0
  9 29  1  0  0  0  0
 10 17  1  0  0  0  0
 12 18  1  0  0  0  0
 12 30  1  0  0  0  0
 12 31  1  0  0  0  0
 13 19  2  0  0  0  0
 13 32  1  0  0  0  0
 14 19  1  0  0  0  0
 14 33  1  0  0  0  0
 15 20  2  0  0  0  0
 15 34  1  0  0  0  0
 16 20  1  0  0  0  0
 16 35  1  0  0  0  0
 17 21  1  0  0  0  0
 17 36  1  0  0  0  0
 17 37  1  0  0  0  0
 18 22  3  0  0  0  0
 19 38  1  0  0  0  0
 20 39  1  0  0  0  0
 21 23  1  0  0  0  0
 21 40  1  0  0  0  0
 21 41  1  0  0  0  0
 22 42  1  0  0  0  0
 23 24  1  0  0  0  0
 23 25  1  0  0  0  0
 24 43  1  0  0  0  0
 24 44  1  0  0  0  0
 24 45  1  0  0  0  0
 25 46  1  0  0  0  0
 25 47  1  0  0  0  0
 25 48  1  0  0  0  0
M  END
>  <DRUGBANK_ID>
DB15783

>  <COMMON_NAME>
Pargeverine

>  <CAS_NUMBER>
13479-13-5

>  <UNII>
UC61HM8FX0

>  <SYNONYMS>
Pargeverina; Pargeverine; Pargeverinum

$$$$
