
 OpenBabel10282417072D

 26 27  0  0  0  0  0  0  0  0999 V2000
   -1.1270   -0.6740    0.0000 C   0  0  0  0  0  0  0  0  0  0  0  0
   -0.4125   -1.0865    0.0000 C   0  0  3  0  0  0  0  0  0  0  0  0
    0.3019    0.1509    0.0000 C   0  0  3  0  0  0  0  0  0  0  0  0
    0.3019   -0.6740    0.0000 C   0  0  0  0  0  0  0  0  0  0  0  0
   -0.4125    0.5634    0.0000 C   0  0  0  0  0  0  0  0  0  0  0  0
   -1.1270    0.1509    0.0000 C   0  0  0  0  0  0  0  0  0  0  0  0
   -0.4125    1.3884    0.0000 C   0  0  0  0  0  0  0  0  0  0  0  0
    0.7144   -1.3885    0.0000 C   0  0  0  0  0  0  0  0  0  0  0  0
    1.1270   -0.6740    0.0000 C   0  0  0  0  0  0  0  0  0  0  0  0
   -0.4125   -0.2615    0.0000 C   0  0  0  0  0  0  0  0  0  0  0  0
   -2.0536   -1.2090    0.0000 H   0  0  0  0  0  0  0  0  0  0  0  0
   -2.0536   -0.1390    0.0000 H   0  0  0  0  0  0  0  0  0  0  0  0
   -0.4125   -0.0165    0.0000 H   0  0  0  0  0  0  0  0  0  0  0  0
   -0.6248   -0.3841    0.0000 H   0  0  0  0  0  0  0  0  0  0  0  0
   -2.0207    0.6669    0.0000 H   0  0  0  0  0  0  0  0  0  0  0  0
    0.5141    1.9234    0.0000 H   0  0  0  0  0  0  0  0  0  0  0  0
   -1.3391    1.9234    0.0000 H   0  0  0  0  0  0  0  0  0  0  0  0
   -0.4125    2.4584    0.0000 H   0  0  0  0  0  0  0  0  0  0  0  0
    0.1794   -2.3151    0.0000 H   0  0  0  0  0  0  0  0  0  0  0  0
    1.7844   -1.3885    0.0000 H   0  0  0  0  0  0  0  0  0  0  0  0
    1.2494   -2.3152    0.0000 H   0  0  0  0  0  0  0  0  0  0  0  0
    1.6620   -1.6006    0.0000 H   0  0  0  0  0  0  0  0  0  0  0  0
    1.6620    0.2526    0.0000 H   0  0  0  0  0  0  0  0  0  0  0  0
    2.1970   -0.6740    0.0000 H   0  0  0  0  0  0  0  0  0  0  0  0
   -1.3391    0.2735    0.0000 H   0  0  0  0  0  0  0  0  0  0  0  0
   -1.3392   -0.7965    0.0000 H   0  0  0  0  0  0  0  0  0  0  0  0
  1  2  1  0  0  0  0
  1  6  1  0  0  0  0
  1 11  1  0  0  0  0
  1 12  1  0  0  0  0
  2  4  1  0  0  0  0
  2 10  1  0  0  0  0
  2 13  1  0  0  0  0
  3 10  1  0  0  0  0
  3 14  1  0  0  0  0
  4  3  1  0  0  0  0
  4  8  1  0  0  0  0
  4  9  1  0  0  0  0
  5  3  1  0  0  0  0
  6  5  2  0  0  0  0
  6 15  1  0  0  0  0
  7  5  1  0  0  0  0
  7 16  1  0  0  0  0
  7 17  1  0  0  0  0
  7 18  1  0  0  0  0
  8 19  1  0  0  0  0
  8 20  1  0  0  0  0
  8 21  1  0  0  0  0
  9 22  1  0  0  0  0
  9 23  1  0  0  0  0
  9 24  1  0  0  0  0
 10 25  1  0  0  0  0
 10 26  1  0  0  0  0
M  END
>  <DRUGBANK_ID>
DB15573

>  <COMMON_NAME>
alpha-Pinene

>  <CAS_NUMBER>
80-56-8

>  <UNII>
JPF3YI7O34

>  <SYNONYMS>
(±)-2-pinene; (±)-α-pinene; 2-pinene; Acintene A; alpha-Pinene; pin-2(3)-ene; α-pinene

$$$$
