
 OpenBabel10282417072D

 78 81  0  0  0  0  0  0  0  0999 V2000
   -3.8478    0.3709    0.0000 C   0  0  0  0  0  0  0  0  0  0  0  0
   -4.0193    1.1779    0.0000 C   0  0  0  0  0  0  0  0  0  0  0  0
   -4.8039    1.4328    0.0000 C   0  0  0  0  0  0  0  0  0  0  0  0
   -4.9754    2.2398    0.0000 C   0  0  0  0  0  0  0  0  0  0  0  0
   -4.3623    2.7918    0.0000 C   0  0  0  0  0  0  0  0  0  0  0  0
   -3.5777    2.5369    0.0000 C   0  0  0  0  0  0  0  0  0  0  0  0
   -3.4062    1.7299    0.0000 C   0  0  0  0  0  0  0  0  0  0  0  0
   -2.6216    1.4750    0.0000 C   0  0  0  0  0  0  0  0  0  0  0  0
   -2.4500    0.6680    0.0000 N   0  0  0  0  0  0  0  0  0  0  0  0
   -1.6654    0.4131    0.0000 C   0  0  0  0  0  0  0  0  0  0  0  0
   -1.0523    0.9651    0.0000 O   0  0  0  0  0  0  0  0  0  0  0  0
   -1.4939   -0.3938    0.0000 C   0  0  1  0  0  0  0  0  0  0  0  0
   -0.7402   -0.7293    0.0000 N   0  0  0  0  0  0  0  0  0  0  0  0
   -0.8265   -1.5498    0.0000 C   0  0  0  0  0  0  0  0  0  0  0  0
   -1.6334   -1.7214    0.0000 S   0  0  0  0  0  0  0  0  0  0  0  0
   -2.0459   -1.0069    0.0000 C   0  0  0  0  0  0  0  0  0  0  0  0
   -2.8031   -1.3345    0.0000 C   0  0  0  0  0  0  0  0  0  0  0  0
   -2.7184   -0.5290    0.0000 C   0  0  0  0  0  0  0  0  0  0  0  0
   -0.0258   -0.3168    0.0000 C   0  0  0  0  0  0  0  0  0  0  0  0
   -0.5107    0.3505    0.0000 O   0  0  0  0  0  0  0  0  0  0  0  0
    0.6886   -0.7293    0.0000 C   0  0  1  0  0  0  0  0  0  0  0  0
    0.6886   -1.5543    0.0000 O   0  0  0  0  0  0  0  0  0  0  0  0
    1.4031   -0.3168    0.0000 C   0  0  2  0  0  0  0  0  0  0  0  0
    1.4031    0.5081    0.0000 C   0  0  0  0  0  0  0  0  0  0  0  0
    0.6886    0.9206    0.0000 C   0  0  0  0  0  0  0  0  0  0  0  0
   -0.0258    0.5081    0.0000 C   0  0  0  0  0  0  0  0  0  0  0  0
   -0.7402    0.9206    0.0000 C   0  0  0  0  0  0  0  0  0  0  0  0
   -0.7402    1.7456    0.0000 C   0  0  0  0  0  0  0  0  0  0  0  0
   -0.0258    2.1581    0.0000 C   0  0  0  0  0  0  0  0  0  0  0  0
    0.6886    1.7456    0.0000 C   0  0  0  0  0  0  0  0  0  0  0  0
    2.1176   -0.7293    0.0000 N   0  0  0  0  0  0  0  0  0  0  0  0
    2.8320   -0.3168    0.0000 C   0  0  0  0  0  0  0  0  0  0  0  0
    2.8320    0.5081    0.0000 O   0  0  0  0  0  0  0  0  0  0  0  0
    3.5465   -0.7293    0.0000 C   0  0  0  0  0  0  0  0  0  0  0  0
    4.2610   -0.3168    0.0000 C   0  0  0  0  0  0  0  0  0  0  0  0
    4.9754   -0.7293    0.0000 C   0  0  0  0  0  0  0  0  0  0  0  0
    4.9754   -1.5543    0.0000 C   0  0  0  0  0  0  0  0  0  0  0  0
    4.2610   -1.9668    0.0000 C   0  0  0  0  0  0  0  0  0  0  0  0
    4.2610   -2.7918    0.0000 O   0  0  0  0  0  0  0  0  0  0  0  0
    3.5465   -1.5543    0.0000 C   0  0  0  0  0  0  0  0  0  0  0  0
    2.8320   -1.9668    0.0000 C   0  0  0  0  0  0  0  0  0  0  0  0
   -4.6430   -0.3450    0.0000 H   0  0  0  0  0  0  0  0  0  0  0  0
   -2.8302    0.0402    0.0000 H   0  0  0  0  0  0  0  0  0  0  0  0
   -3.6254   -0.6757    0.0000 H   0  0  0  0  0  0  0  0  0  0  0  0
   -5.5708    0.7423    0.0000 H   0  0  0  0  0  0  0  0  0  0  0  0
   -5.9569    2.5587    0.0000 H   0  0  0  0  0  0  0  0  0  0  0  0
   -4.5769    3.8012    0.0000 H   0  0  0  0  0  0  0  0  0  0  0  0
   -2.8108    3.2274    0.0000 H   0  0  0  0  0  0  0  0  0  0  0  0
   -1.8265    2.1910    0.0000 H   0  0  0  0  0  0  0  0  0  0  0  0
   -1.6039    1.1444    0.0000 H   0  0  0  0  0  0  0  0  0  0  0  0
   -3.1816    0.0092    0.0000 H   0  0  0  0  0  0  0  0  0  0  0  0
   -0.6624    0.2796    0.0000 H   0  0  0  0  0  0  0  0  0  0  0  0
   -0.0313   -2.2658    0.0000 H   0  0  0  0  0  0  0  0  0  0  0  0
   -1.1034   -2.5834    0.0000 H   0  0  0  0  0  0  0  0  0  0  0  0
   -3.6621   -0.6965    0.0000 H   0  0  0  0  0  0  0  0  0  0  0  0
   -2.9262   -2.3974    0.0000 H   0  0  0  0  0  0  0  0  0  0  0  0
   -3.7851   -1.7594    0.0000 H   0  0  0  0  0  0  0  0  0  0  0  0
   -2.6177    0.5363    0.0000 H   0  0  0  0  0  0  0  0  0  0  0  0
   -3.6913   -0.9744    0.0000 H   0  0  0  0  0  0  0  0  0  0  0  0
   -3.5906    0.0908    0.0000 H   0  0  0  0  0  0  0  0  0  0  0  0
   -0.2381   -1.2643    0.0000 H   0  0  0  0  0  0  0  0  0  0  0  0
   -0.1514   -2.0393    0.0000 H   0  0  0  0  0  0  0  0  0  0  0  0
    1.4031   -1.3868    0.0000 H   0  0  0  0  0  0  0  0  0  0  0  0
    2.3297    1.0431    0.0000 H   0  0  0  0  0  0  0  0  0  0  0  0
    1.4031    1.5781    0.0000 H   0  0  0  0  0  0  0  0  0  0  0  0
   -0.0258   -0.5239    0.0000 H   0  0  0  0  0  0  0  0  0  0  0  0
   -1.6339    0.4046    0.0000 H   0  0  0  0  0  0  0  0  0  0  0  0
   -1.6339    2.2616    0.0000 H   0  0  0  0  0  0  0  0  0  0  0  0
   -0.0258    3.1901    0.0000 H   0  0  0  0  0  0  0  0  0  0  0  0
    1.5823    2.2616    0.0000 H   0  0  0  0  0  0  0  0  0  0  0  0
    2.1176   -1.7138    0.0000 H   0  0  0  0  0  0  0  0  0  0  0  0
    4.2610    0.7152    0.0000 H   0  0  0  0  0  0  0  0  0  0  0  0
    5.8691   -0.2133    0.0000 H   0  0  0  0  0  0  0  0  0  0  0  0
    5.8691   -2.0703    0.0000 H   0  0  0  0  0  0  0  0  0  0  0  0
    3.4495   -3.2603    0.0000 H   0  0  0  0  0  0  0  0  0  0  0  0
    1.9054   -1.4318    0.0000 H   0  0  0  0  0  0  0  0  0  0  0  0
    2.8320   -3.0368    0.0000 H   0  0  0  0  0  0  0  0  0  0  0  0
    1.9053   -2.5018    0.0000 H   0  0  0  0  0  0  0  0  0  0  0  0
  1  2  1  0  0  0  0
  1 42  1  0  0  0  0
  1 43  1  0  0  0  0
  1 44  1  0  0  0  0
  2  3  2  0  0  0  0
  2  7  1  0  0  0  0
  3  4  1  0  0  0  0
  3 45  1  0  0  0  0
  4  5  2  0  0  0  0
  4 46  1  0  0  0  0
  5  6  1  0  0  0  0
  5 47  1  0  0  0  0
  6  7  2  0  0  0  0
  6 48  1  0  0  0  0
  7  8  1  0  0  0  0
  8  9  1  0  0  0  0
  8 49  1  0  0  0  0
  8 50  1  0  0  0  0
  9 10  1  0  0  0  0
  9 51  1  0  0  0  0
 10 11  2  0  0  0  0
 12 10  1  0  0  0  0
 12 13  1  0  0  0  0
 12 16  1  0  0  0  0
 12 52  1  6  0  0  0
 13 14  1  0  0  0  0
 13 19  1  0  0  0  0
 14 15  1  0  0  0  0
 14 53  1  0  0  0  0
 14 54  1  0  0  0  0
 15 16  1  0  0  0  0
 16 17  1  0  0  0  0
 16 18  1  0  0  0  0
 17 55  1  0  0  0  0
 17 56  1  0  0  0  0
 17 57  1  0  0  0  0
 18 58  1  0  0  0  0
 18 59  1  0  0  0  0
 18 60  1  0  0  0  0
 19 20  2  0  0  0  0
 21 19  1  0  0  0  0
 21 22  1  0  0  0  0
 21 23  1  0  0  0  0
 21 61  1  1  0  0  0
 22 62  1  0  0  0  0
 23 24  1  0  0  0  0
 23 31  1  0  0  0  0
 23 63  1  1  0  0  0
 24 25  1  0  0  0  0
 24 64  1  0  0  0  0
 24 65  1  0  0  0  0
 25 26  2  0  0  0  0
 25 30  1  0  0  0  0
 26 27  1  0  0  0  0
 26 66  1  0  0  0  0
 27 28  2  0  0  0  0
 27 67  1  0  0  0  0
 28 29  1  0  0  0  0
 28 68  1  0  0  0  0
 29 30  2  0  0  0  0
 29 69  1  0  0  0  0
 30 70  1  0  0  0  0
 31 32  1  0  0  0  0
 31 71  1  0  0  0  0
 32 33  2  0  0  0  0
 32 34  1  0  0  0  0
 34 35  2  0  0  0  0
 34 40  1  0  0  0  0
 35 36  1  0  0  0  0
 35 72  1  0  0  0  0
 36 37  2  0  0  0  0
 36 73  1  0  0  0  0
 37 38  1  0  0  0  0
 37 74  1  0  0  0  0
 38 39  1  0  0  0  0
 38 40  2  0  0  0  0
 39 75  1  0  0  0  0
 40 41  1  0  0  0  0
 41 76  1  0  0  0  0
 41 77  1  0  0  0  0
 41 78  1  0  0  0  0
M  END
>  <DRUGBANK_ID>
DB02668

>  <SECONDARY_ACCESSION_NUMBERS>
EXPT01956

>  <COMMON_NAME>
JE-2147

>  <CAS_NUMBER>
186538-00-1

$$$$
