CED
 OpenBabel10282417072D

 38 39  0  0  0  0  0  0  0  0999 V2000
   -1.7186    0.3290    0.0000 S   0  0  0  0  0  0  0  0  0  0  0  0
   -2.1311    1.0435    0.0000 C   0  0  0  0  0  0  0  0  0  0  0  0
   -1.7186    1.7580    0.0000 C   0  0  0  0  0  0  0  0  0  0  0  0
   -2.1311    2.4725    0.0000 C   0  0  0  0  0  0  0  0  0  0  0  0
   -0.8936    1.7580    0.0000 C   0  0  0  0  0  0  0  0  0  0  0  0
   -0.4811    2.4725    0.0000 C   0  0  0  0  0  0  0  0  0  0  0  0
    0.3439    2.4725    0.0000 O   0  0  0  0  0  0  0  0  0  0  0  0
   -0.8936    3.1869    0.0000 O   0  0  0  0  0  0  0  0  0  0  0  0
   -0.4811    1.0435    0.0000 N   0  0  0  0  0  0  0  0  0  0  0  0
   -0.8936    0.3290    0.0000 C   0  0  1  0  0  0  0  0  0  0  0  0
   -0.4811   -0.3854    0.0000 C   0  0  1  0  0  0  0  0  0  0  0  0
   -0.8936   -1.0999    0.0000 C   0  0  0  0  0  0  0  0  0  0  0  0
   -1.7186   -1.0999    0.0000 O   0  0  0  0  0  0  0  0  0  0  0  0
    0.3439   -0.3854    0.0000 N   0  0  0  0  0  0  0  0  0  0  0  0
    0.7564   -1.0999    0.0000 C   0  0  0  0  0  0  0  0  0  0  0  0
    0.3439   -1.8144    0.0000 O   0  0  0  0  0  0  0  0  0  0  0  0
    1.5814   -1.0999    0.0000 C   0  0  0  0  0  0  0  0  0  0  0  0
    1.9939   -1.8144    0.0000 C   0  0  0  0  0  0  0  0  0  0  0  0
    2.8144   -1.9006    0.0000 C   0  0  0  0  0  0  0  0  0  0  0  0
    2.9859   -2.7076    0.0000 C   0  0  0  0  0  0  0  0  0  0  0  0
    2.2714   -3.1201    0.0000 C   0  0  0  0  0  0  0  0  0  0  0  0
    1.6583   -2.5680    0.0000 S   0  0  0  0  0  0  0  0  0  0  0  0
   -0.9950   -0.2460    0.0000 H   0  0  0  0  0  0  0  0  0  0  0  0
   -1.0298   -0.5851    0.0000 H   0  0  0  0  0  0  0  0  0  0  0  0
   -3.2011    1.0435    0.0000 H   0  0  0  0  0  0  0  0  0  0  0  0
   -2.6661    1.9701    0.0000 H   0  0  0  0  0  0  0  0  0  0  0  0
   -1.5961    3.3991    0.0000 H   0  0  0  0  0  0  0  0  0  0  0  0
   -3.2011    2.4725    0.0000 H   0  0  0  0  0  0  0  0  0  0  0  0
   -2.6661    3.3992    0.0000 H   0  0  0  0  0  0  0  0  0  0  0  0
   -0.4251    3.9984    0.0000 H   0  0  0  0  0  0  0  0  0  0  0  0
    0.5034    1.0435    0.0000 H   0  0  0  0  0  0  0  0  0  0  0  0
   -0.3776   -1.9936    0.0000 H   0  0  0  0  0  0  0  0  0  0  0  0
    0.8362    0.4672    0.0000 H   0  0  0  0  0  0  0  0  0  0  0  0
    2.1164   -0.1733    0.0000 H   0  0  0  0  0  0  0  0  0  0  0  0
    2.6514   -1.0999    0.0000 H   0  0  0  0  0  0  0  0  0  0  0  0
    3.5049   -1.1337    0.0000 H   0  0  0  0  0  0  0  0  0  0  0  0
    3.9287   -3.1274    0.0000 H   0  0  0  0  0  0  0  0  0  0  0  0
    2.1635   -4.1464    0.0000 H   0  0  0  0  0  0  0  0  0  0  0  0
  1  2  1  0  0  0  0
  1 10  1  0  0  0  0
  2  3  1  0  0  0  0
  2 25  1  0  0  0  0
  2 26  1  0  0  0  0
  3  4  1  0  0  0  0
  3  5  2  0  0  0  0
  4 27  1  0  0  0  0
  4 28  1  0  0  0  0
  4 29  1  0  0  0  0
  5  6  1  0  0  0  0
  5  9  1  0  0  0  0
  6  7  2  0  0  0  0
  6  8  1  0  0  0  0
  8 30  1  0  0  0  0
  9 10  1  0  0  0  0
  9 31  1  0  0  0  0
 10 11  1  0  0  0  0
 10 23  1  6  0  0  0
 11 12  1  0  0  0  0
 11 14  1  0  0  0  0
 11 24  1  1  0  0  0
 12 13  2  0  0  0  0
 12 32  1  0  0  0  0
 14 15  1  0  0  0  0
 14 33  1  0  0  0  0
 15 16  2  0  0  0  0
 15 17  1  0  0  0  0
 17 18  1  0  0  0  0
 17 34  1  0  0  0  0
 17 35  1  0  0  0  0
 18 19  2  0  0  0  0
 18 22  1  0  0  0  0
 19 20  1  0  0  0  0
 19 36  1  0  0  0  0
 20 21  2  0  0  0  0
 20 37  1  0  0  0  0
 21 22  1  0  0  0  0
 21 38  1  0  0  0  0
M  END
>  <DRUGBANK_ID>
DB04133

>  <SECONDARY_ACCESSION_NUMBERS>
EXPT00884

>  <COMMON_NAME>
Degraded Cephaloridine

$$$$
