
 OpenBabel10282417072D

 51 52  0  0  0  0  0  0  0  0999 V2000
   -2.4402    0.6290    0.0000 C   0  0  0  0  0  0  0  0  0  0  0  0
   -2.9251   -0.0384    0.0000 C   0  0  0  0  0  0  0  0  0  0  0  0
   -1.6152    0.6290    0.0000 N   0  0  0  0  0  0  0  0  0  0  0  0
   -2.6951    1.4136    0.0000 N   0  0  0  0  0  0  0  0  0  0  0  0
   -3.7456    0.0478    0.0000 C   0  0  0  0  0  0  0  0  0  0  0  0
   -2.5896   -0.7921    0.0000 C   0  0  0  0  0  0  0  0  0  0  0  0
   -1.3603    1.4136    0.0000 C   0  0  0  0  0  0  0  0  0  0  0  0
   -2.0277    1.8986    0.0000 O   0  0  0  0  0  0  0  0  0  0  0  0
   -4.2305   -0.6196    0.0000 C   0  0  0  0  0  0  0  0  0  0  0  0
   -3.0745   -1.4595    0.0000 C   0  0  0  0  0  0  0  0  0  0  0  0
   -0.5757    1.6686    0.0000 N   0  0  0  0  0  0  0  0  0  0  0  0
   -3.8950   -1.3733    0.0000 C   0  0  0  0  0  0  0  0  0  0  0  0
    0.0373    1.1164    0.0000 C   0  0  0  0  0  0  0  0  0  0  0  0
    0.8220    1.3715    0.0000 C   0  0  0  0  0  0  0  0  0  0  0  0
    1.4351    0.8194    0.0000 N   0  0  0  0  0  0  0  0  0  0  0  0
    2.2197    1.0744    0.0000 C   0  0  0  0  0  0  0  0  0  0  0  0
    1.2635    0.0125    0.0000 C   0  0  0  0  0  0  0  0  0  0  0  0
    2.8328    0.5224    0.0000 C   0  0  0  0  0  0  0  0  0  0  0  0
    1.8766   -0.5395    0.0000 C   0  0  0  0  0  0  0  0  0  0  0  0
    3.6174    0.7773    0.0000 C   0  0  0  0  0  0  0  0  0  0  0  0
    1.7051   -1.3465    0.0000 C   0  0  0  0  0  0  0  0  0  0  0  0
    4.2305    0.2252    0.0000 C   0  0  0  0  0  0  0  0  0  0  0  0
    2.3182   -1.8986    0.0000 C   0  0  0  0  0  0  0  0  0  0  0  0
   -4.1654    0.9906    0.0000 H   0  0  0  0  0  0  0  0  0  0  0  0
   -1.5633   -0.9000    0.0000 H   0  0  0  0  0  0  0  0  0  0  0  0
   -5.2568   -0.5117    0.0000 H   0  0  0  0  0  0  0  0  0  0  0  0
   -2.6547   -2.4023    0.0000 H   0  0  0  0  0  0  0  0  0  0  0  0
   -0.3709    2.6316    0.0000 H   0  0  0  0  0  0  0  0  0  0  0  0
   -4.5016   -2.2082    0.0000 H   0  0  0  0  0  0  0  0  0  0  0  0
   -0.1852    0.0698    0.0000 H   0  0  0  0  0  0  0  0  0  0  0  0
    0.8325    0.4005    0.0000 H   0  0  0  0  0  0  0  0  0  0  0  0
    1.0444    2.4181    0.0000 H   0  0  0  0  0  0  0  0  0  0  0  0
    1.8396    1.7021    0.0000 H   0  0  0  0  0  0  0  0  0  0  0  0
    2.4421    2.1210    0.0000 H   0  0  0  0  0  0  0  0  0  0  0  0
    3.2373    1.4051    0.0000 H   0  0  0  0  0  0  0  0  0  0  0  0
    0.2459   -0.3181    0.0000 H   0  0  0  0  0  0  0  0  0  0  0  0
    1.0410   -1.0341    0.0000 H   0  0  0  0  0  0  0  0  0  0  0  0
    2.6103   -0.5242    0.0000 H   0  0  0  0  0  0  0  0  0  0  0  0
    3.6280   -0.1936    0.0000 H   0  0  0  0  0  0  0  0  0  0  0  0
    2.8942   -0.2088    0.0000 H   0  0  0  0  0  0  0  0  0  0  0  0
    2.6718   -1.2554    0.0000 H   0  0  0  0  0  0  0  0  0  0  0  0
    3.8399    1.8239    0.0000 H   0  0  0  0  0  0  0  0  0  0  0  0
    4.6350    1.1079    0.0000 H   0  0  0  0  0  0  0  0  0  0  0  0
    0.6875   -1.6771    0.0000 H   0  0  0  0  0  0  0  0  0  0  0  0
    1.4826   -2.3931    0.0000 H   0  0  0  0  0  0  0  0  0  0  0  0
    4.0080   -0.8214    0.0000 H   0  0  0  0  0  0  0  0  0  0  0  0
    5.2481    0.5558    0.0000 H   0  0  0  0  0  0  0  0  0  0  0  0
    5.0256   -0.4908    0.0000 H   0  0  0  0  0  0  0  0  0  0  0  0
    2.0957   -2.9452    0.0000 H   0  0  0  0  0  0  0  0  0  0  0  0
    3.3358   -1.5680    0.0000 H   0  0  0  0  0  0  0  0  0  0  0  0
    3.1133   -2.6146    0.0000 H   0  0  0  0  0  0  0  0  0  0  0  0
  1  2  1  0  0  0  0
  1  3  1  0  0  0  0
  1  4  2  0  0  0  0
  2  5  2  0  0  0  0
  2  6  1  0  0  0  0
  3  7  2  0  0  0  0
  4  8  1  0  0  0  0
  5  9  1  0  0  0  0
  5 24  1  0  0  0  0
  6 10  2  0  0  0  0
  6 25  1  0  0  0  0
  7 11  1  0  0  0  0
  7  8  1  0  0  0  0
  9 12  2  0  0  0  0
  9 26  1  0  0  0  0
 10 12  1  0  0  0  0
 10 27  1  0  0  0  0
 11 13  1  0  0  0  0
 11 28  1  0  0  0  0
 12 29  1  0  0  0  0
 13 14  1  0  0  0  0
 13 30  1  0  0  0  0
 13 31  1  0  0  0  0
 14 15  1  0  0  0  0
 14 32  1  0  0  0  0
 14 33  1  0  0  0  0
 15 16  1  0  0  0  0
 15 17  1  0  0  0  0
 16 18  1  0  0  0  0
 16 34  1  0  0  0  0
 16 35  1  0  0  0  0
 17 19  1  0  0  0  0
 17 36  1  0  0  0  0
 17 37  1  0  0  0  0
 18 20  1  0  0  0  0
 18 38  1  0  0  0  0
 18 39  1  0  0  0  0
 19 21  1  0  0  0  0
 19 40  1  0  0  0  0
 19 41  1  0  0  0  0
 20 22  1  0  0  0  0
 20 42  1  0  0  0  0
 20 43  1  0  0  0  0
 21 23  1  0  0  0  0
 21 44  1  0  0  0  0
 21 45  1  0  0  0  0
 22 46  1  0  0  0  0
 22 47  1  0  0  0  0
 22 48  1  0  0  0  0
 23 49  1  0  0  0  0
 23 50  1  0  0  0  0
 23 51  1  0  0  0  0
M  END
>  <DRUGBANK_ID>
DB13681

>  <COMMON_NAME>
Butalamine

>  <CAS_NUMBER>
22131-35-7

>  <UNII>
140T9JTG43

>  <SYNONYMS>
Butalamina; Butalamine; Butalaminum

$$$$
