PUZ
 OpenBabel10282417072D

 47 49  0  0  0  0  0  0  0  0999 V2000
   -4.3829    0.8609    0.0000 C   0  0  0  0  0  0  0  0  0  0  0  0
   -3.6685    0.4484    0.0000 C   0  0  0  0  0  0  0  0  0  0  0  0
   -2.9540    0.0359    0.0000 C   0  0  0  0  0  0  0  0  0  0  0  0
   -2.2395    0.4484    0.0000 C   0  0  0  0  0  0  0  0  0  0  0  0
   -1.5250    0.0359    0.0000 C   0  0  0  0  0  0  0  0  0  0  0  0
   -0.8106    0.4484    0.0000 N   0  0  0  0  0  0  0  0  0  0  0  0
   -0.7243    1.2689    0.0000 C   0  0  0  0  0  0  0  0  0  0  0  0
   -1.2764    1.8820    0.0000 N   0  0  0  0  0  0  0  0  0  0  0  0
    0.0826    1.4404    0.0000 C   0  0  0  0  0  0  0  0  0  0  0  0
    0.3376    2.2251    0.0000 C   0  0  0  0  0  0  0  0  0  0  0  0
    1.1446    2.3966    0.0000 N   0  0  0  0  0  0  0  0  0  0  0  0
   -0.2145    2.8381    0.0000 N   0  0  0  0  0  0  0  0  0  0  0  0
   -1.0214    2.6666    0.0000 C   0  0  0  0  0  0  0  0  0  0  0  0
   -1.5735    3.2797    0.0000 F   0  0  0  0  0  0  0  0  0  0  0  0
    0.4951    0.7260    0.0000 N   0  0  0  0  0  0  0  0  0  0  0  0
   -0.0569    0.1129    0.0000 C   0  0  0  0  0  0  0  0  0  0  0  0
    0.1146   -0.6941    0.0000 C   0  0  0  0  0  0  0  0  0  0  0  0
    0.8993   -0.9490    0.0000 C   0  0  0  0  0  0  0  0  0  0  0  0
    1.5124   -0.3970    0.0000 C   0  0  0  0  0  0  0  0  0  0  0  0
    1.3408    0.4100    0.0000 O   0  0  0  0  0  0  0  0  0  0  0  0
    1.9539    0.9620    0.0000 C   0  0  0  0  0  0  0  0  0  0  0  0
    2.2970   -0.6520    0.0000 C   0  0  0  0  0  0  0  0  0  0  0  0
    2.4685   -1.4589    0.0000 C   0  0  0  0  0  0  0  0  0  0  0  0
    1.8554   -2.0110    0.0000 C   0  0  0  0  0  0  0  0  0  0  0  0
    1.0708   -1.7560    0.0000 C   0  0  0  0  0  0  0  0  0  0  0  0
    2.0269   -2.8179    0.0000 O   0  0  0  0  0  0  0  0  0  0  0  0
    2.8116   -3.0729    0.0000 C   0  0  0  0  0  0  0  0  0  0  0  0
   -5.2437    1.3579    0.0000 H   0  0  0  0  0  0  0  0  0  0  0  0
   -2.9540   -1.0341    0.0000 H   0  0  0  0  0  0  0  0  0  0  0  0
   -2.0274   -0.4991    0.0000 H   0  0  0  0  0  0  0  0  0  0  0  0
   -2.2395    1.5184    0.0000 H   0  0  0  0  0  0  0  0  0  0  0  0
   -1.3129    0.9834    0.0000 H   0  0  0  0  0  0  0  0  0  0  0  0
   -1.5250   -1.0341    0.0000 H   0  0  0  0  0  0  0  0  0  0  0  0
   -0.5983   -0.4991    0.0000 H   0  0  0  0  0  0  0  0  0  0  0  0
    1.8033    1.6649    0.0000 H   0  0  0  0  0  0  0  0  0  0  0  0
    1.4489    3.3329    0.0000 H   0  0  0  0  0  0  0  0  0  0  0  0
   -0.6806   -1.4101    0.0000 H   0  0  0  0  0  0  0  0  0  0  0  0
    0.3371   -1.7407    0.0000 H   0  0  0  0  0  0  0  0  0  0  0  0
    2.9715    0.6313    0.0000 H   0  0  0  0  0  0  0  0  0  0  0  0
    1.7315    2.0086    0.0000 H   0  0  0  0  0  0  0  0  0  0  0  0
    2.7491    1.6779    0.0000 H   0  0  0  0  0  0  0  0  0  0  0  0
    3.0640    0.0385    0.0000 H   0  0  0  0  0  0  0  0  0  0  0  0
    3.4500   -1.7778    0.0000 H   0  0  0  0  0  0  0  0  0  0  0  0
    0.3038   -2.4465    0.0000 H   0  0  0  0  0  0  0  0  0  0  0  0
    3.0340   -4.1195    0.0000 H   0  0  0  0  0  0  0  0  0  0  0  0
    3.6068   -2.3570    0.0000 H   0  0  0  0  0  0  0  0  0  0  0  0
    3.8292   -3.4036    0.0000 H   0  0  0  0  0  0  0  0  0  0  0  0
  1  2  3  0  0  0  0
  1 28  1  0  0  0  0
  2  3  1  0  0  0  0
  3  4  1  0  0  0  0
  3 29  1  0  0  0  0
  3 30  1  0  0  0  0
  4  5  1  0  0  0  0
  4 31  1  0  0  0  0
  4 32  1  0  0  0  0
  5  6  1  0  0  0  0
  5 33  1  0  0  0  0
  5 34  1  0  0  0  0
  6  7  1  0  0  0  0
  6 16  1  0  0  0  0
  7  8  2  0  0  0  0
  7  9  1  0  0  0  0
  8 13  1  0  0  0  0
  9 10  2  0  0  0  0
  9 15  1  0  0  0  0
 10 11  1  0  0  0  0
 10 12  1  0  0  0  0
 11 35  1  0  0  0  0
 11 36  1  0  0  0  0
 12 13  2  0  0  0  0
 13 14  1  0  0  0  0
 15 16  2  0  0  0  0
 16 17  1  0  0  0  0
 17 18  1  0  0  0  0
 17 37  1  0  0  0  0
 17 38  1  0  0  0  0
 18 19  2  0  0  0  0
 18 25  1  0  0  0  0
 19 20  1  0  0  0  0
 19 22  1  0  0  0  0
 20 21  1  0  0  0  0
 21 39  1  0  0  0  0
 21 40  1  0  0  0  0
 21 41  1  0  0  0  0
 22 23  2  0  0  0  0
 22 42  1  0  0  0  0
 23 24  1  0  0  0  0
 23 43  1  0  0  0  0
 24 25  2  0  0  0  0
 24 26  1  0  0  0  0
 25 44  1  0  0  0  0
 26 27  1  0  0  0  0
 27 45  1  0  0  0  0
 27 46  1  0  0  0  0
 27 47  1  0  0  0  0
M  END
>  <DRUGBANK_ID>
DB03137

>  <SECONDARY_ACCESSION_NUMBERS>
EXPT02704

>  <COMMON_NAME>
8-(2,5-Dimethoxy-Benzyl)-2-Fluoro-9-Pent-9h-Purin-6-Ylamine

$$$$
