
 OpenBabel10282417072D

  4  3  0  0  0  0  0  0  0  0999 V2000
   -0.7101   -0.2242    0.0000 O   0  0  0  0  0  0  0  0  0  0  0  0
    0.7101   -0.1644    0.0000 O   0  0  0  0  0  0  0  0  0  0  0  0
   -0.0164    0.2242    0.0000 N   0  0  0  0  0  0  0  0  0  0  0  0
   -1.5441    0.2030    0.0000 H   0  0  0  0  0  0  0  0  0  0  0  0
  1  3  1  0  0  0  0
  1  4  1  0  0  0  0
  2  3  2  0  0  0  0
M  END
>  <DRUGBANK_ID>
DB09112

>  <COMMON_NAME>
Nitrous acid

>  <CAS_NUMBER>
7782-77-6

>  <UNII>
T2I5UM75DN

>  <SYNONYMS>
dioxonitric acid; hydroxidooxidonitrogen; nitrosyl hydroxide

$$$$
