
 OpenBabel10282417072D

 23 23  0  0  0  0  0  0  0  0999 V2000
   -2.3232    2.3469    0.0000 C   0  0  0  0  0  0  0  0  0  0  0  0
   -2.9363    1.7948    0.0000 C   0  0  0  0  0  0  0  0  0  0  0  0
   -2.8501    0.9744    0.0000 C   0  0  0  0  0  0  0  0  0  0  0  0
   -2.1356    0.5619    0.0000 C   0  0  0  0  0  0  0  0  0  0  0  0
   -1.4211    0.9744    0.0000 C   0  0  0  0  0  0  0  0  0  0  0  0
   -0.7066    0.5619    0.0000 O   0  0  0  0  0  0  0  0  0  0  0  0
    0.0078    0.9744    0.0000 P   0  0  0  0  0  0  0  0  0  0  0  0
    0.7223    1.3869    0.0000 O   0  0  0  0  0  0  0  0  0  0  0  0
    0.4203    0.2599    0.0000 O   0  0  0  0  0  0  0  0  0  0  0  0
   -0.4047    1.6888    0.0000 O   0  0  0  0  0  0  0  0  0  0  0  0
   -3.6037    0.6388    0.0000 S   0  0  0  0  0  0  0  0  0  0  0  0
   -4.1558    1.2519    0.0000 C   0  0  0  0  0  0  0  0  0  0  0  0
   -3.7433    1.9664    0.0000 N   0  0  0  0  0  0  0  0  0  0  0  0
   -1.3056    2.0163    0.0000 H   0  0  0  0  0  0  0  0  0  0  0  0
   -2.5457    3.3935    0.0000 H   0  0  0  0  0  0  0  0  0  0  0  0
   -1.5281    3.0629    0.0000 H   0  0  0  0  0  0  0  0  0  0  0  0
   -2.1356   -0.5081    0.0000 H   0  0  0  0  0  0  0  0  0  0  0  0
   -1.2090    0.0269    0.0000 H   0  0  0  0  0  0  0  0  0  0  0  0
   -1.4211    2.0444    0.0000 H   0  0  0  0  0  0  0  0  0  0  0  0
   -0.4945    1.5094    0.0000 H   0  0  0  0  0  0  0  0  0  0  0  0
    1.5623    0.9019    0.0000 H   0  0  0  0  0  0  0  0  0  0  0  0
   -0.0647   -0.5801    0.0000 H   0  0  0  0  0  0  0  0  0  0  0  0
   -5.1821    1.1440    0.0000 H   0  0  0  0  0  0  0  0  0  0  0  0
  1  2  1  0  0  0  0
  1 14  1  0  0  0  0
  1 15  1  0  0  0  0
  1 16  1  0  0  0  0
  2  3  2  0  0  0  0
  2 13  1  0  0  0  0
  3  4  1  0  0  0  0
  3 11  1  0  0  0  0
  4  5  1  0  0  0  0
  4 17  1  0  0  0  0
  4 18  1  0  0  0  0
  5  6  1  0  0  0  0
  5 19  1  0  0  0  0
  5 20  1  0  0  0  0
  6  7  1  0  0  0  0
  7  8  1  0  0  0  0
  7  9  1  0  0  0  0
  7 10  2  0  0  0  0
  8 21  1  0  0  0  0
  9 22  1  0  0  0  0
 11 12  1  0  0  0  0
 12 13  2  0  0  0  0
 12 23  1  0  0  0  0
M  END
>  <DRUGBANK_ID>
DB03145

>  <SECONDARY_ACCESSION_NUMBERS>
EXPT03154

>  <COMMON_NAME>
4-Methyl-5-Hydroxyethylthiazole Phosphate

$$$$
