
 OpenBabel10282417072D

 35 36  0  0  0  0  0  0  0  0999 V2000
   -0.9703    0.5203    0.0000 N   0  0  0  0  0  0  0  0  0  0  0  0
   -0.2557    0.9328    0.0000 C   0  0  0  0  0  0  0  0  0  0  0  0
   -1.6848    0.9328    0.0000 C   0  0  0  0  0  0  0  0  0  0  0  0
   -0.2557    1.7578    0.0000 N   0  0  0  0  0  0  0  0  0  0  0  0
   -0.9703    2.1703    0.0000 C   0  0  0  0  0  0  0  0  0  0  0  0
   -1.6848    1.7578    0.0000 C   0  0  0  0  0  0  0  0  0  0  0  0
   -0.9703   -0.3046    0.0000 C   0  0  2  0  0  0  0  0  0  0  0  0
   -1.6377   -0.7895    0.0000 O   0  0  0  0  0  0  0  0  0  0  0  0
   -0.3028   -0.7895    0.0000 C   0  0  1  0  0  0  0  0  0  0  0  0
   -1.3828   -1.5741    0.0000 C   0  0  1  0  0  0  0  0  0  0  0  0
   -0.5578   -1.5741    0.0000 C   0  0  1  0  0  0  0  0  0  0  0  0
    0.4388   -0.4271    0.0000 O   0  0  0  0  0  0  0  0  0  0  0  0
    0.4586    0.5203    0.0000 O   0  0  0  0  0  0  0  0  0  0  0  0
   -0.0728   -2.2416    0.0000 O   0  0  0  0  0  0  0  0  0  0  0  0
   -0.9703    2.9953    0.0000 N   0  0  0  0  0  0  0  0  0  0  0  0
   -1.8677   -2.2416    0.0000 C   0  0  0  0  0  0  0  0  0  0  0  0
   -1.5322   -2.9953    0.0000 O   0  0  0  0  0  0  0  0  0  0  0  0
    1.1533   -0.8396    0.0000 P   0  0  0  0  0  0  0  0  0  0  0  0
    1.8677   -0.4271    0.0000 O   0  0  0  0  0  0  0  0  0  0  0  0
    1.1533   -1.6646    0.0000 O   0  0  0  0  0  0  0  0  0  0  0  0
    1.3667   -0.0427    0.0000 O   0  0  0  0  0  0  0  0  0  0  0  0
   -2.5785    0.4168    0.0000 H   0  0  0  0  0  0  0  0  0  0  0  0
   -2.5785    2.2738    0.0000 H   0  0  0  0  0  0  0  0  0  0  0  0
   -1.9237    0.1812    0.0000 H   0  0  0  0  0  0  0  0  0  0  0  0
   -0.2100    0.2765    0.0000 H   0  0  0  0  0  0  0  0  0  0  0  0
   -2.4396   -1.4067    0.0000 H   0  0  0  0  0  0  0  0  0  0  0  0
    0.4990   -1.4067    0.0000 H   0  0  0  0  0  0  0  0  0  0  0  0
   -0.4673   -3.1278    0.0000 H   0  0  0  0  0  0  0  0  0  0  0  0
   -0.1177    3.4875    0.0000 H   0  0  0  0  0  0  0  0  0  0  0  0
   -1.8229    3.4875    0.0000 H   0  0  0  0  0  0  0  0  0  0  0  0
   -2.9318   -2.1297    0.0000 H   0  0  0  0  0  0  0  0  0  0  0  0
   -2.4967   -3.1072    0.0000 H   0  0  0  0  0  0  0  0  0  0  0  0
   -2.1024   -3.7800    0.0000 H   0  0  0  0  0  0  0  0  0  0  0  0
    2.7078   -0.9121    0.0000 H   0  0  0  0  0  0  0  0  0  0  0  0
    2.3036    0.2085    0.0000 H   0  0  0  0  0  0  0  0  0  0  0  0
  1  2  1  0  0  0  0
  1  3  1  0  0  0  0
  2 13  2  0  0  0  0
  2  4  1  0  0  0  0
  3  6  2  0  0  0  0
  3 22  1  0  0  0  0
  4  5  2  0  0  0  0
  5 15  1  0  0  0  0
  6  5  1  0  0  0  0
  6 23  1  0  0  0  0
  7  1  1  0  0  0  0
  7  8  1  0  0  0  0
  7  9  1  0  0  0  0
  7 24  1  6  0  0  0
  8 10  1  0  0  0  0
  9 11  1  0  0  0  0
  9 12  1  0  0  0  0
  9 25  1  1  0  0  0
 10 16  1  0  0  0  0
 10 11  1  0  0  0  0
 10 26  1  6  0  0  0
 11 14  1  0  0  0  0
 11 27  1  1  0  0  0
 12 18  1  0  0  0  0
 14 28  1  0  0  0  0
 15 29  1  0  0  0  0
 15 30  1  0  0  0  0
 16 17  1  0  0  0  0
 16 31  1  0  0  0  0
 16 32  1  0  0  0  0
 17 33  1  0  0  0  0
 18 19  1  0  0  0  0
 18 20  2  0  0  0  0
 18 21  1  0  0  0  0
 19 34  1  0  0  0  0
 21 35  1  0  0  0  0
M  END
>  <DRUGBANK_ID>
DB03765

>  <SECONDARY_ACCESSION_NUMBERS>
EXPT00808

>  <COMMON_NAME>
2'-cytidylic acid

>  <CAS_NUMBER>
85-94-9

>  <UNII>
KBN4598ZJQ

>  <SYNONYMS>
2'-CMP; 2'-cytidinephosphoric acid; Cytidine 2'-phosphate; Cytidine-2'-monophosphate; Cytidine, 2'-phosphate

$$$$
