
 OpenBabel10282417072D

 45 46  0  0  0  0  0  0  0  0999 V2000
   -1.4561   -0.8250    0.0000 O   0  0  0  0  0  0  0  0  0  0  0  0
   -0.0272   -2.4750    0.0000 O   0  0  0  0  0  0  0  0  0  0  0  0
   -2.1707   -2.0625    0.0000 O   0  0  0  0  0  0  0  0  0  0  0  0
   -2.1707   -3.7125    0.0000 O   0  0  0  0  0  0  0  0  0  0  0  0
   -1.4561    0.0000    0.0000 O   0  0  0  0  0  0  0  0  0  0  0  0
    1.4152    2.5036    0.0000 O   0  0  0  0  0  0  0  0  0  0  0  0
    2.8851   -0.0198    0.0000 O   0  0  0  0  0  0  0  0  0  0  0  0
   -2.1707    3.7125    0.0000 O   0  0  0  0  0  0  0  0  0  0  0  0
   -2.8851    2.4750    0.0000 O   0  0  0  0  0  0  0  0  0  0  0  0
   -0.0272    0.0000    0.0000 N   0  0  0  0  0  0  0  0  0  0  0  0
    1.4248   -0.0286    0.0000 N   0  0  0  0  0  0  0  0  0  0  0  0
   -0.0272    1.6500    0.0000 N   0  0  0  0  0  0  0  0  0  0  0  0
    2.1722    1.2546    0.0000 N   0  0  0  0  0  0  0  0  0  0  0  0
   -0.7416   -1.2375    0.0000 C   0  0  2  0  0  0  0  0  0  0  0  0
   -0.7416   -2.0625    0.0000 C   0  0  1  0  0  0  0  0  0  0  0  0
   -0.0272   -0.8250    0.0000 C   0  0  0  0  0  0  0  0  0  0  0  0
   -1.4561   -2.4750    0.0000 C   0  0  1  0  0  0  0  0  0  0  0  0
    0.6872    0.4125    0.0000 C   0  0  0  0  0  0  0  0  0  0  0  0
   -0.7416    0.4125    0.0000 C   0  0  0  0  0  0  0  0  0  0  0  0
   -0.7416    1.2375    0.0000 C   0  0  0  0  0  0  0  0  0  0  0  0
    0.6872    1.2375    0.0000 C   0  0  0  0  0  0  0  0  0  0  0  0
   -1.4561   -3.3000    0.0000 C   0  0  0  0  0  0  0  0  0  0  0  0
   -1.4561    1.6500    0.0000 C   0  0  0  0  0  0  0  0  0  0  0  0
    1.4248    1.6786    0.0000 C   0  0  0  0  0  0  0  0  0  0  0  0
   -1.4561    2.4750    0.0000 C   0  0  0  0  0  0  0  0  0  0  0  0
    2.1722    0.3953    0.0000 C   0  0  0  0  0  0  0  0  0  0  0  0
   -2.1707    2.8875    0.0000 C   0  0  0  0  0  0  0  0  0  0  0  0
    1.4188   -0.5400    0.0000 H   0  0  0  0  0  0  0  0  0  0  0  0
    2.6143    1.5121    0.0000 H   0  0  0  0  0  0  0  0  0  0  0  0
   -1.4561    0.1450    0.0000 H   0  0  0  0  0  0  0  0  0  0  0  0
   -0.0272   -3.4450    0.0000 H   0  0  0  0  0  0  0  0  0  0  0  0
   -2.1708   -1.0925    0.0000 H   0  0  0  0  0  0  0  0  0  0  0  0
   -3.0107   -3.2274    0.0000 H   0  0  0  0  0  0  0  0  0  0  0  0
   -1.3592    4.1810    0.0000 H   0  0  0  0  0  0  0  0  0  0  0  0
   -1.6682   -1.7725    0.0000 H   0  0  0  0  0  0  0  0  0  0  0  0
    0.1851   -1.5275    0.0000 H   0  0  0  0  0  0  0  0  0  0  0  0
    0.8995   -1.3600    0.0000 H   0  0  0  0  0  0  0  0  0  0  0  0
   -0.0272   -1.8950    0.0000 H   0  0  0  0  0  0  0  0  0  0  0  0
   -1.4561   -1.4050    0.0000 H   0  0  0  0  0  0  0  0  0  0  0  0
   -0.5295   -3.8350    0.0000 H   0  0  0  0  0  0  0  0  0  0  0  0
   -0.5294   -2.7650    0.0000 H   0  0  0  0  0  0  0  0  0  0  0  0
   -2.3827    1.1150    0.0000 H   0  0  0  0  0  0  0  0  0  0  0  0
   -2.3827    2.1850    0.0000 H   0  0  0  0  0  0  0  0  0  0  0  0
   -0.5295    3.0100    0.0000 H   0  0  0  0  0  0  0  0  0  0  0  0
   -1.4562    3.5450    0.0000 H   0  0  0  0  0  0  0  0  0  0  0  0
  1 30  1  0  0  0  0
  2 31  1  0  0  0  0
  3 32  1  0  0  0  0
  4 22  1  0  0  0  0
  4 33  1  0  0  0  0
  5 19  2  0  0  0  0
  6 24  2  0  0  0  0
  7 26  2  0  0  0  0
  8 27  1  0  0  0  0
  8 34  1  0  0  0  0
  9 27  2  0  0  0  0
 10 16  1  0  0  0  0
 10 18  1  0  0  0  0
 10 19  1  0  0  0  0
 11 18  1  0  0  0  0
 11 26  1  0  0  0  0
 11 28  1  0  0  0  0
 12 20  2  0  0  0  0
 12 21  1  0  0  0  0
 13 24  1  0  0  0  0
 13 26  1  0  0  0  0
 13 29  1  0  0  0  0
 14  1  1  0  0  0  0
 14 15  1  0  0  0  0
 14 16  1  0  0  0  0
 14 35  1  6  0  0  0
 15  2  1  0  0  0  0
 15 17  1  0  0  0  0
 15 36  1  1  0  0  0
 16 37  1  0  0  0  0
 16 38  1  0  0  0  0
 17  3  1  0  0  0  0
 17 22  1  0  0  0  0
 17 39  1  6  0  0  0
 18 21  2  0  0  0  0
 19 20  1  0  0  0  0
 20 23  1  0  0  0  0
 21 24  1  0  0  0  0
 22 40  1  0  0  0  0
 22 41  1  0  0  0  0
 23 25  1  0  0  0  0
 23 42  1  0  0  0  0
 23 43  1  0  0  0  0
 25 27  1  0  0  0  0
 25 44  1  0  0  0  0
 25 45  1  0  0  0  0
M  END
>  <DRUGBANK_ID>
DB03883

>  <SECONDARY_ACCESSION_NUMBERS>
EXPT01023

>  <COMMON_NAME>
Carboxyethyllumazine

>  <CAS_NUMBER>
29161-67-9

$$$$
