QND
 OpenBabel10282417072D

 20 21  0  0  0  0  0  0  0  0999 V2000
   -0.3867   -0.7913    0.0000 N   0  0  0  0  0  0  0  0  0  0  0  0
   -1.1012   -0.3788    0.0000 C   0  0  0  0  0  0  0  0  0  0  0  0
   -1.1012    0.4462    0.0000 C   0  0  0  0  0  0  0  0  0  0  0  0
   -0.3867    0.8587    0.0000 C   0  0  0  0  0  0  0  0  0  0  0  0
    1.0422    0.8587    0.0000 C   0  0  0  0  0  0  0  0  0  0  0  0
    1.7567    0.4462    0.0000 C   0  0  0  0  0  0  0  0  0  0  0  0
    1.7567   -0.3788    0.0000 C   0  0  0  0  0  0  0  0  0  0  0  0
    1.0422   -0.7913    0.0000 C   0  0  0  0  0  0  0  0  0  0  0  0
    0.3277    0.4462    0.0000 C   0  0  0  0  0  0  0  0  0  0  0  0
    0.3277   -0.3788    0.0000 C   0  0  0  0  0  0  0  0  0  0  0  0
   -1.8157   -0.7913    0.0000 C   0  0  0  0  0  0  0  0  0  0  0  0
   -1.8157   -1.6163    0.0000 O   0  0  0  0  0  0  0  0  0  0  0  0
   -2.5301   -0.3788    0.0000 O   0  0  0  0  0  0  0  0  0  0  0  0
   -1.9949    0.9622    0.0000 H   0  0  0  0  0  0  0  0  0  0  0  0
   -0.3867    1.8907    0.0000 H   0  0  0  0  0  0  0  0  0  0  0  0
    1.0422    1.8907    0.0000 H   0  0  0  0  0  0  0  0  0  0  0  0
    2.6504    0.9622    0.0000 H   0  0  0  0  0  0  0  0  0  0  0  0
    2.6504   -0.8948    0.0000 H   0  0  0  0  0  0  0  0  0  0  0  0
    1.0422   -1.8233    0.0000 H   0  0  0  0  0  0  0  0  0  0  0  0
   -2.5301    0.5582    0.0000 H   0  0  0  0  0  0  0  0  0  0  0  0
  1  2  2  0  0  0  0
  1 10  1  0  0  0  0
  2  3  1  0  0  0  0
  2 11  1  0  0  0  0
  3  4  2  0  0  0  0
  3 14  1  0  0  0  0
  4  9  1  0  0  0  0
  4 15  1  0  0  0  0
  5  6  2  0  0  0  0
  5  9  1  0  0  0  0
  5 16  1  0  0  0  0
  6  7  1  0  0  0  0
  6 17  1  0  0  0  0
  7  8  2  0  0  0  0
  7 18  1  0  0  0  0
  8 10  1  0  0  0  0
  8 19  1  0  0  0  0
  9 10  2  0  0  0  0
 11 12  2  0  0  0  0
 11 13  1  0  0  0  0
 13 20  1  0  0  0  0
M  END
>  <DRUGBANK_ID>
DB02428

>  <SECONDARY_ACCESSION_NUMBERS>
EXPT02730; DB08452

>  <COMMON_NAME>
Quinaldic Acid

>  <CAS_NUMBER>
93-10-7

>  <UNII>
P90NWT719R

$$$$
