
 OpenBabel10282417072D

 51 54  0  0  0  0  0  0  0  0999 V2000
   -1.5847    1.0212    0.0000 C   0  0  2  0  0  0  0  0  0  0  0  0
   -1.5847    0.1963    0.0000 C   0  0  0  0  0  0  0  0  0  0  0  0
   -2.1645   -0.3875    0.0000 O   0  0  0  0  0  0  0  0  0  0  0  0
   -0.7556    0.1963    0.0000 N   0  0  0  0  0  0  0  0  0  0  0  0
   -0.0439   -0.2161    0.0000 C   0  0  0  0  0  0  0  0  0  0  0  0
    0.6719    0.1963    0.0000 C   0  0  0  0  0  0  0  0  0  0  0  0
    0.6719    1.0212    0.0000 C   0  0  0  0  0  0  0  0  0  0  0  0
   -0.0439    1.4337    0.0000 S   0  0  0  0  0  0  0  0  0  0  0  0
   -0.7556    1.0212    0.0000 C   0  0  2  0  0  0  0  0  0  0  0  0
   -0.9708    1.8204    0.0000 H   0  0  0  0  0  0  0  0  0  0  0  0
   -0.0439   -1.0412    0.0000 C   0  0  0  0  0  0  0  0  0  0  0  0
   -0.7556   -1.4536    0.0000 O   0  0  0  0  0  0  0  0  0  0  0  0
    0.6719   -1.4536    0.0000 O   0  0  0  0  0  0  0  0  0  0  0  0
   -2.9635    1.3942    0.0000 C   0  0  0  0  0  0  0  0  0  0  0  0
   -3.5474    1.9739    0.0000 C   0  0  0  0  0  0  0  0  0  0  0  0
   -3.1745    0.5950    0.0000 O   0  0  0  0  0  0  0  0  0  0  0  0
   -2.1644    1.6051    0.0000 N   0  0  0  0  0  0  0  0  0  0  0  0
   -4.3423    1.7628    0.0000 C   0  0  0  0  0  0  0  0  0  0  0  0
   -4.9846    2.2787    0.0000 C   0  0  0  0  0  0  0  0  0  0  0  0
   -5.6746    1.8312    0.0000 C   0  0  0  0  0  0  0  0  0  0  0  0
   -5.4636    1.0362    0.0000 C   0  0  0  0  0  0  0  0  0  0  0  0
   -4.6361    0.9916    0.0000 S   0  0  0  0  0  0  0  0  0  0  0  0
    1.3878   -0.2161    0.0000 C   0  0  0  0  0  0  0  0  0  0  0  0
    2.0995    0.1963    0.0000 C   0  0  0  0  0  0  0  0  0  0  0  0
    2.8153   -0.2161    0.0000 C   0  0  0  0  0  0  0  0  0  0  0  0
    2.8153   -1.0412    0.0000 C   0  0  0  0  0  0  0  0  0  0  0  0
    3.5312   -1.4536    0.0000 C   0  0  0  0  0  0  0  0  0  0  0  0
    4.2429   -1.0412    0.0000 C   0  0  0  0  0  0  0  0  0  0  0  0
    4.2429   -0.2161    0.0000 C   0  0  0  0  0  0  0  0  0  0  0  0
    3.5312    0.1963    0.0000 C   0  0  0  0  0  0  0  0  0  0  0  0
    4.9588   -1.4536    0.0000 N   0  3  0  0  0  0  0  0  0  0  0  0
    5.6746   -1.0412    0.0000 O   0  0  0  0  0  0  0  0  0  0  0  0
    4.9588   -2.2786    0.0000 O   0  5  0  0  0  0  0  0  0  0  0  0
    2.0995   -1.4536    0.0000 N   0  3  0  0  0  0  0  0  0  0  0  0
    1.3878   -1.0412    0.0000 O   0  0  0  0  0  0  0  0  0  0  0  0
    2.0995   -2.2786    0.0000 O   0  5  0  0  0  0  0  0  0  0  0  0
   -2.5740    0.6135    0.0000 H   0  0  0  0  0  0  0  0  0  0  0  0
    1.5983    1.5566    0.0000 H   0  0  0  0  0  0  0  0  0  0  0  0
    0.6713    2.0912    0.0000 H   0  0  0  0  0  0  0  0  0  0  0  0
    0.6728   -2.3906    0.0000 H   0  0  0  0  0  0  0  0  0  0  0  0
   -3.2712    3.0076    0.0000 H   0  0  0  0  0  0  0  0  0  0  0  0
   -4.3034    2.7311    0.0000 H   0  0  0  0  0  0  0  0  0  0  0  0
   -1.9061    2.5551    0.0000 H   0  0  0  0  0  0  0  0  0  0  0  0
   -4.9323    3.3094    0.0000 H   0  0  0  0  0  0  0  0  0  0  0  0
   -6.6375    2.2025    0.0000 H   0  0  0  0  0  0  0  0  0  0  0  0
   -6.1146    0.2354    0.0000 H   0  0  0  0  0  0  0  0  0  0  0  0
    1.3891   -1.2481    0.0000 H   0  0  0  0  0  0  0  0  0  0  0  0
    2.0982    1.2283    0.0000 H   0  0  0  0  0  0  0  0  0  0  0  0
    3.5325   -2.4856    0.0000 H   0  0  0  0  0  0  0  0  0  0  0  0
    5.1370    0.2992    0.0000 H   0  0  0  0  0  0  0  0  0  0  0  0
    3.5325    1.2283    0.0000 H   0  0  0  0  0  0  0  0  0  0  0  0
  1  2  1  0  0  0  0
  1  9  1  0  0  0  0
  1 17  1  0  0  0  0
  1 37  1  6  0  0  0
  2  3  2  0  0  0  0
  2  4  1  0  0  0  0
  4  5  1  0  0  0  0
  4  9  1  0  0  0  0
  5  6  2  0  0  0  0
  5 11  1  0  0  0  0
  6  7  1  0  0  0  0
  6 23  1  0  0  0  0
  7  8  1  0  0  0  0
  7 38  1  0  0  0  0
  7 39  1  0  0  0  0
  8  9  1  0  0  0  0
  9 10  1  6  0  0  0
 11 12  2  0  0  0  0
 11 13  1  0  0  0  0
 13 40  1  0  0  0  0
 14 15  1  0  0  0  0
 14 16  2  0  0  0  0
 14 17  1  0  0  0  0
 15 18  1  0  0  0  0
 15 41  1  0  0  0  0
 15 42  1  0  0  0  0
 17 43  1  0  0  0  0
 18 19  2  0  0  0  0
 18 22  1  0  0  0  0
 19 20  1  0  0  0  0
 19 44  1  0  0  0  0
 20 21  2  0  0  0  0
 20 45  1  0  0  0  0
 21 22  1  0  0  0  0
 21 46  1  0  0  0  0
 23 24  2  0  0  0  0
 23 47  1  0  0  0  0
 24 25  1  0  0  0  0
 24 48  1  0  0  0  0
 25 26  1  0  0  0  0
 25 30  2  0  0  0  0
 26 27  2  0  0  0  0
 26 34  1  0  0  0  0
 27 28  1  0  0  0  0
 27 49  1  0  0  0  0
 28 29  2  0  0  0  0
 28 31  1  0  0  0  0
 29 30  1  0  0  0  0
 29 50  1  0  0  0  0
 30 51  1  0  0  0  0
 31 32  2  0  0  0  0
 31 33  1  0  0  0  0
 34 35  2  0  0  0  0
 34 36  1  0  0  0  0
M  CHG  4  31   1  33  -1  34   1  36  -1
M  END
>  <DRUGBANK_ID>
DB11592

>  <COMMON_NAME>
Nitrocefin

>  <CAS_NUMBER>
41906-86-9

>  <UNII>
EWP54G0J8F

$$$$
