
 OpenBabel10282417072D

 48 51  0  0  0  0  0  0  0  0999 V2000
    2.1987    0.4677    0.0000 C   0  0  0  0  0  0  0  0  0  0  0  0
    1.4842    0.0552    0.0000 C   0  0  0  0  0  0  0  0  0  0  0  0
    1.4842   -0.7697    0.0000 C   0  0  0  0  0  0  0  0  0  0  0  0
    2.1987   -1.1822    0.0000 N   0  0  0  0  0  0  0  0  0  0  0  0
    2.9131   -0.7697    0.0000 C   0  0  0  0  0  0  0  0  0  0  0  0
    2.9131    0.0552    0.0000 N   0  0  0  0  0  0  0  0  0  0  0  0
    2.1987    1.2928    0.0000 N   0  0  0  0  0  0  0  0  0  0  0  0
    3.6277   -1.1822    0.0000 N   0  0  0  0  0  0  0  0  0  0  0  0
    0.7697    0.4677    0.0000 C   0  0  0  0  0  0  0  0  0  0  0  0
    0.0553    0.0552    0.0000 C   0  0  0  0  0  0  0  0  0  0  0  0
   -0.6592    0.4677    0.0000 C   0  0  0  0  0  0  0  0  0  0  0  0
   -1.3736    0.0552    0.0000 C   0  0  0  0  0  0  0  0  0  0  0  0
   -1.3736   -0.7697    0.0000 C   0  0  0  0  0  0  0  0  0  0  0  0
   -0.6592   -1.1822    0.0000 C   0  0  0  0  0  0  0  0  0  0  0  0
    0.0553   -0.7697    0.0000 C   0  0  0  0  0  0  0  0  0  0  0  0
   -0.6592    1.2928    0.0000 C   0  0  0  0  0  0  0  0  0  0  0  0
   -1.3736    1.7053    0.0000 C   0  0  0  0  0  0  0  0  0  0  0  0
   -2.0881    1.2928    0.0000 C   0  0  1  0  0  0  0  0  0  0  0  0
   -2.0881    0.4677    0.0000 O   0  0  0  0  0  0  0  0  0  0  0  0
   -0.6592   -2.0072    0.0000 O   0  0  0  0  0  0  0  0  0  0  0  0
    0.0553   -2.4197    0.0000 C   0  0  0  0  0  0  0  0  0  0  0  0
   -2.0881   -1.1822    0.0000 O   0  0  0  0  0  0  0  0  0  0  0  0
   -2.0881   -2.0072    0.0000 C   0  0  0  0  0  0  0  0  0  0  0  0
   -2.8026    1.7053    0.0000 C   0  0  0  0  0  0  0  0  0  0  0  0
   -3.2151    2.4197    0.0000 C   0  0  0  0  0  0  0  0  0  0  0  0
   -3.6277    1.7053    0.0000 C   0  0  0  0  0  0  0  0  0  0  0  0
   -2.0919    2.1178    0.0000 H   0  0  0  0  0  0  0  0  0  0  0  0
    0.5905   -1.2857    0.0000 H   0  0  0  0  0  0  0  0  0  0  0  0
    3.0513    1.7851    0.0000 H   0  0  0  0  0  0  0  0  0  0  0  0
    1.3461    1.7851    0.0000 H   0  0  0  0  0  0  0  0  0  0  0  0
    3.6278   -2.1667    0.0000 H   0  0  0  0  0  0  0  0  0  0  0  0
    4.4803   -0.6899    0.0000 H   0  0  0  0  0  0  0  0  0  0  0  0
    0.7697    1.5377    0.0000 H   0  0  0  0  0  0  0  0  0  0  0  0
   -0.1570    1.0027    0.0000 H   0  0  0  0  0  0  0  0  0  0  0  0
    0.9490   -1.2857    0.0000 H   0  0  0  0  0  0  0  0  0  0  0  0
    0.2345    1.8088    0.0000 H   0  0  0  0  0  0  0  0  0  0  0  0
   -1.3736    2.7373    0.0000 H   0  0  0  0  0  0  0  0  0  0  0  0
    0.0553   -3.4897    0.0000 H   0  0  0  0  0  0  0  0  0  0  0  0
    0.9819   -1.8847    0.0000 H   0  0  0  0  0  0  0  0  0  0  0  0
    0.9820   -2.9547    0.0000 H   0  0  0  0  0  0  0  0  0  0  0  0
   -3.0147   -2.5422    0.0000 H   0  0  0  0  0  0  0  0  0  0  0  0
   -1.1615   -2.5422    0.0000 H   0  0  0  0  0  0  0  0  0  0  0  0
   -2.0881   -3.0772    0.0000 H   0  0  0  0  0  0  0  0  0  0  0  0
   -3.7293    2.2403    0.0000 H   0  0  0  0  0  0  0  0  0  0  0  0
   -3.2150    3.4897    0.0000 H   0  0  0  0  0  0  0  0  0  0  0  0
   -4.2486    2.6967    0.0000 H   0  0  0  0  0  0  0  0  0  0  0  0
   -4.5544    1.1704    0.0000 H   0  0  0  0  0  0  0  0  0  0  0  0
   -3.3508    0.6717    0.0000 H   0  0  0  0  0  0  0  0  0  0  0  0
  1  2  1  0  0  0  0
  1  7  1  0  0  0  0
  2  3  2  0  0  0  0
  2  9  1  0  0  0  0
  3  4  1  0  0  0  0
  3 28  1  0  0  0  0
  4  5  2  0  0  0  0
  5  6  1  0  0  0  0
  5  8  1  0  0  0  0
  6  1  2  0  0  0  0
  7 29  1  0  0  0  0
  7 30  1  0  0  0  0
  8 31  1  0  0  0  0
  8 32  1  0  0  0  0
  9 10  1  0  0  0  0
  9 33  1  0  0  0  0
  9 34  1  0  0  0  0
 10 11  1  0  0  0  0
 11 16  1  0  0  0  0
 11 12  2  0  0  0  0
 12 13  1  0  0  0  0
 12 19  1  0  0  0  0
 13 14  2  0  0  0  0
 13 22  1  0  0  0  0
 14 15  1  0  0  0  0
 14 20  1  0  0  0  0
 15 10  2  0  0  0  0
 15 35  1  0  0  0  0
 16 17  2  0  0  0  0
 16 36  1  0  0  0  0
 17 18  1  0  0  0  0
 17 37  1  0  0  0  0
 18 19  1  0  0  0  0
 18 24  1  0  0  0  0
 18 27  1  6  0  0  0
 20 21  1  0  0  0  0
 21 38  1  0  0  0  0
 21 39  1  0  0  0  0
 21 40  1  0  0  0  0
 22 23  1  0  0  0  0
 23 41  1  0  0  0  0
 23 42  1  0  0  0  0
 23 43  1  0  0  0  0
 24 25  1  0  0  0  0
 24 26  1  0  0  0  0
 24 44  1  0  0  0  0
 25 26  1  0  0  0  0
 25 45  1  0  0  0  0
 25 46  1  0  0  0  0
 26 47  1  0  0  0  0
 26 48  1  0  0  0  0
M  END
>  <DRUGBANK_ID>
DB07938

>  <COMMON_NAME>
(S)-iclaprim

>  <UNII>
7P9VLC9Y9D

$$$$
