
 OpenBabel10282417072D

109114  0  0  0  0  0  0  0  0999 V2000
    2.4601   -0.8249    0.0000 N   0  0  0  0  0  0  0  0  0  0  0  0
    2.0673   -1.5714    0.0000 C   0  0  2  0  0  0  0  0  0  0  0  0
    2.0280   -0.1179    0.0000 C   0  0  0  0  0  0  0  0  0  0  0  0
    3.2851   -0.8249    0.0000 C   0  0  0  0  0  0  0  0  0  0  0  0
    1.1637   -1.5714    0.0000 C   0  0  0  0  0  0  0  0  0  0  0  0
    2.4993   -2.2784    0.0000 C   0  0  0  0  0  0  0  0  0  0  0  0
    2.4208    0.5891    0.0000 C   0  0  1  0  0  0  0  0  0  0  0  0
    1.2030   -0.1179    0.0000 O   0  0  0  0  0  0  0  0  0  0  0  0
    3.7564   -1.5320    0.0000 C   0  0  0  0  0  0  0  0  0  0  0  0
    0.4174   -1.0213    0.0000 N   0  0  0  0  0  0  0  0  0  0  0  0
    0.9280   -2.3569    0.0000 O   0  0  0  0  0  0  0  0  0  0  0  0
    3.3243   -2.2784    0.0000 C   0  0  0  0  0  0  0  0  0  0  0  0
    2.0280    1.2963    0.0000 N   0  0  0  0  0  0  0  0  0  0  0  0
   -0.3289   -1.4141    0.0000 C   0  0  1  0  0  0  0  0  0  0  0  0
    3.7564   -2.9462    0.0000 O   0  0  0  0  0  0  0  0  0  0  0  0
    1.2030    1.2963    0.0000 C   0  0  0  0  0  0  0  0  0  0  0  0
   -0.3289   -2.2784    0.0000 C   0  0  0  0  0  0  0  0  0  0  0  0
   -0.9968   -1.0213    0.0000 C   0  0  0  0  0  0  0  0  0  0  0  0
    1.9102    2.6712    0.0000 C   0  0  1  0  0  0  0  0  0  0  0  0
   -1.0360   -2.6712    0.0000 C   0  0  0  0  0  0  0  0  0  0  0  0
    0.4174   -2.6712    0.0000 C   0  0  0  0  0  0  0  0  0  0  0  0
   -0.9968   -0.1570    0.0000 O   0  0  0  0  0  0  0  0  0  0  0  0
   -1.7431   -1.4141    0.0000 O   0  0  0  0  0  0  0  0  0  0  0  0
    1.0852    2.6712    0.0000 N   0  0  0  0  0  0  0  0  0  0  0  0
    2.1851    3.4176    0.0000 C   0  0  0  0  0  0  0  0  0  0  0  0
   -1.0360   -3.4962    0.0000 C   0  0  0  0  0  0  0  0  0  0  0  0
    0.4174   -3.4962    0.0000 C   0  0  0  0  0  0  0  0  0  0  0  0
   -1.7431    0.2357    0.0000 C   0  0  1  0  0  0  0  0  0  0  0  0
    0.4174    2.2391    0.0000 C   0  0  0  0  0  0  0  0  0  0  0  0
    0.8495    3.4177    0.0000 C   0  0  0  0  0  0  0  0  0  0  0  0
    1.5565    3.9283    0.0000 C   0  0  0  0  0  0  0  0  0  0  0  0
   -0.3289   -3.9283    0.0000 C   0  0  0  0  0  0  0  0  0  0  0  0
   -1.7431    1.0606    0.0000 C   0  0  1  0  0  0  0  0  0  0  0  0
   -2.4503   -0.1570    0.0000 C   0  0  0  0  0  0  0  0  0  0  0  0
   -0.3289    2.6712    0.0000 C   0  0  2  0  0  0  0  0  0  0  0  0
    0.4174    1.4535    0.0000 O   0  0  0  0  0  0  0  0  0  0  0  0
   -0.9968    1.4535    0.0000 C   0  0  0  0  0  0  0  0  0  0  0  0
   -2.4503    1.4535    0.0000 N   0  0  0  0  0  0  0  0  0  0  0  0
   -0.9968    2.2391    0.0000 N   0  0  0  0  0  0  0  0  0  0  0  0
   -0.3289    3.4962    0.0000 C   0  0  0  0  0  0  0  0  0  0  0  0
   -0.3289    1.0606    0.0000 O   0  0  0  0  0  0  0  0  0  0  0  0
   -3.1574    1.0606    0.0000 C   0  0  0  0  0  0  0  0  0  0  0  0
   -3.8645    1.4535    0.0000 C   0  0  0  0  0  0  0  0  0  0  0  0
   -3.1574    0.2357    0.0000 O   0  0  0  0  0  0  0  0  0  0  0  0
   -3.8645    2.2391    0.0000 C   0  0  0  0  0  0  0  0  0  0  0  0
   -4.5716    1.0606    0.0000 N   0  0  0  0  0  0  0  0  0  0  0  0
   -4.5716    2.6713    0.0000 C   0  0  0  0  0  0  0  0  0  0  0  0
   -3.1574    2.6712    0.0000 O   0  0  0  0  0  0  0  0  0  0  0  0
   -5.2786    1.4535    0.0000 C   0  0  0  0  0  0  0  0  0  0  0  0
   -5.2786    2.2391    0.0000 C   0  0  0  0  0  0  0  0  0  0  0  0
    2.4208    2.0034    0.0000 C   0  0  0  0  0  0  0  0  0  0  0  0
    3.2458    2.0034    0.0000 O   0  0  0  0  0  0  0  0  0  0  0  0
   -0.9968    3.9283    0.0000 C   0  0  0  0  0  0  0  0  0  0  0  0
    3.1352    1.0017    0.0000 H   0  0  0  0  0  0  0  0  0  0  0  0
    3.1352    0.1767    0.0000 C   0  0  0  0  0  0  0  0  0  0  0  0
    3.8498    0.5891    0.0000 C   0  0  0  0  0  0  0  0  0  0  0  0
    3.8498    1.4141    0.0000 C   0  0  0  0  0  0  0  0  0  0  0  0
    4.5641    0.1767    0.0000 C   0  0  0  0  0  0  0  0  0  0  0  0
    4.5642    1.8266    0.0000 C   0  0  0  0  0  0  0  0  0  0  0  0
    5.2786    0.5891    0.0000 C   0  0  0  0  0  0  0  0  0  0  0  0
    5.2786    1.4140    0.0000 C   0  0  0  0  0  0  0  0  0  0  0  0
    2.7064    2.4664    0.0000 H   0  0  0  0  0  0  0  0  0  0  0  0
    1.8539   -2.3677    0.0000 H   0  0  0  0  0  0  0  0  0  0  0  0
    3.7900    0.1185    0.0000 H   0  0  0  0  0  0  0  0  0  0  0  0
    4.3539   -0.7733    0.0000 H   0  0  0  0  0  0  0  0  0  0  0  0
    1.9759   -3.2116    0.0000 H   0  0  0  0  0  0  0  0  0  0  0  0
    3.0401   -3.2017    0.0000 H   0  0  0  0  0  0  0  0  0  0  0  0
    4.8259   -1.4982    0.0000 H   0  0  0  0  0  0  0  0  0  0  0  0
    4.3054   -2.4504    0.0000 H   0  0  0  0  0  0  0  0  0  0  0  0
    0.4915   -0.0396    0.0000 H   0  0  0  0  0  0  0  0  0  0  0  0
    0.5871   -1.9671    0.0000 H   0  0  0  0  0  0  0  0  0  0  0  0
    0.6680    2.2229    0.0000 H   0  0  0  0  0  0  0  0  0  0  0  0
    0.6680    0.3697    0.0000 H   0  0  0  0  0  0  0  0  0  0  0  0
    0.1330    1.2963    0.0000 H   0  0  0  0  0  0  0  0  0  0  0  0
   -1.9254   -2.1478    0.0000 H   0  0  0  0  0  0  0  0  0  0  0  0
    1.3009   -2.1378    0.0000 H   0  0  0  0  0  0  0  0  0  0  0  0
    3.2170    3.7007    0.0000 H   0  0  0  0  0  0  0  0  0  0  0  0
    2.4053    4.4647    0.0000 H   0  0  0  0  0  0  0  0  0  0  0  0
   -1.9361   -4.0010    0.0000 H   0  0  0  0  0  0  0  0  0  0  0  0
    1.3115   -4.0117    0.0000 H   0  0  0  0  0  0  0  0  0  0  0  0
   -1.7311   -0.8342    0.0000 H   0  0  0  0  0  0  0  0  0  0  0  0
   -0.1663    3.7540    0.0000 H   0  0  0  0  0  0  0  0  0  0  0  0
    0.6866    4.4752    0.0000 H   0  0  0  0  0  0  0  0  0  0  0  0
    1.5869    4.9979    0.0000 H   0  0  0  0  0  0  0  0  0  0  0  0
    0.6108    4.4289    0.0000 H   0  0  0  0  0  0  0  0  0  0  0  0
   -0.3411   -4.9602    0.0000 H   0  0  0  0  0  0  0  0  0  0  0  0
   -2.6653    0.5180    0.0000 H   0  0  0  0  0  0  0  0  0  0  0  0
   -3.3679    0.3934    0.0000 H   0  0  0  0  0  0  0  0  0  0  0  0
   -2.4682   -1.2269    0.0000 H   0  0  0  0  0  0  0  0  0  0  0  0
   -3.3858   -0.6764    0.0000 H   0  0  0  0  0  0  0  0  0  0  0  0
    0.5981    3.2056    0.0000 H   0  0  0  0  0  0  0  0  0  0  0  0
   -2.4503    2.4380    0.0000 H   0  0  0  0  0  0  0  0  0  0  0  0
   -1.8616    2.7096    0.0000 H   0  0  0  0  0  0  0  0  0  0  0  0
    0.6110    4.0076    0.0000 H   0  0  0  0  0  0  0  0  0  0  0  0
   -0.2883    4.5654    0.0000 H   0  0  0  0  0  0  0  0  0  0  0  0
   -4.5716    3.7033    0.0000 H   0  0  0  0  0  0  0  0  0  0  0  0
   -2.3345    2.2231    0.0000 H   0  0  0  0  0  0  0  0  0  0  0  0
   -6.1681    0.9302    0.0000 H   0  0  0  0  0  0  0  0  0  0  0  0
   -6.1787    2.7438    0.0000 H   0  0  0  0  0  0  0  0  0  0  0  0
   -0.9426    4.9969    0.0000 H   0  0  0  0  0  0  0  0  0  0  0  0
   -1.9493    3.4409    0.0000 H   0  0  0  0  0  0  0  0  0  0  0  0
   -1.8952    4.5095    0.0000 H   0  0  0  0  0  0  0  0  0  0  0  0
    3.1351   -0.8933    0.0000 H   0  0  0  0  0  0  0  0  0  0  0  0
    4.0618   -0.3584    0.0000 H   0  0  0  0  0  0  0  0  0  0  0  0
    2.9561    1.9301    0.0000 H   0  0  0  0  0  0  0  0  0  0  0  0
    4.5640   -0.8553    0.0000 H   0  0  0  0  0  0  0  0  0  0  0  0
    4.5643    2.8586    0.0000 H   0  0  0  0  0  0  0  0  0  0  0  0
    6.1723    0.0730    0.0000 H   0  0  0  0  0  0  0  0  0  0  0  0
    6.1724    1.9299    0.0000 H   0  0  0  0  0  0  0  0  0  0  0  0
  2  1  1  0  0  0  0
  2 63  1  6  0  0  0
  3  1  1  0  0  0  0
  4  1  1  0  0  0  0
  4 64  1  0  0  0  0
  4 65  1  0  0  0  0
  5  2  1  0  0  0  0
  6  2  1  0  0  0  0
  6 66  1  0  0  0  0
  6 67  1  0  0  0  0
  7  3  1  0  0  0  0
  7 13  1  0  0  0  0
  7 54  1  6  0  0  0
  8  3  2  0  0  0  0
  9  4  1  0  0  0  0
  9 68  1  0  0  0  0
  9 69  1  0  0  0  0
 10  5  1  0  0  0  0
 10 70  1  0  0  0  0
 11  5  2  0  0  0  0
 12  6  1  0  0  0  0
 12  9  1  0  0  0  0
 14 10  1  0  0  0  0
 14 17  1  0  0  0  0
 14 71  1  6  0  0  0
 15 12  2  0  0  0  0
 16 13  1  0  0  0  0
 16 72  1  0  0  0  0
 16 73  1  0  0  0  0
 16 74  1  0  0  0  0
 18 14  1  0  0  0  0
 19 51  1  0  0  0  0
 19 62  1  6  0  0  0
 20 17  2  0  0  0  0
 20 75  1  0  0  0  0
 21 17  1  0  0  0  0
 21 76  1  0  0  0  0
 22 18  1  0  0  0  0
 23 18  2  0  0  0  0
 24 19  1  0  0  0  0
 25 19  1  0  0  0  0
 25 77  1  0  0  0  0
 25 78  1  0  0  0  0
 26 20  1  0  0  0  0
 26 79  1  0  0  0  0
 27 21  2  0  0  0  0
 27 80  1  0  0  0  0
 28 22  1  0  0  0  0
 28 34  1  0  0  0  0
 28 81  1  1  0  0  0
 29 24  1  0  0  0  0
 30 24  1  0  0  0  0
 30 82  1  0  0  0  0
 30 83  1  0  0  0  0
 31 25  1  0  0  0  0
 31 30  1  0  0  0  0
 31 84  1  0  0  0  0
 31 85  1  0  0  0  0
 32 26  2  0  0  0  0
 32 27  1  0  0  0  0
 32 86  1  0  0  0  0
 33 28  1  0  0  0  0
 33 38  1  0  0  0  0
 33 87  1  1  0  0  0
 34 88  1  0  0  0  0
 34 89  1  0  0  0  0
 34 90  1  0  0  0  0
 35 29  1  0  0  0  0
 35 39  1  0  0  0  0
 35 40  1  0  0  0  0
 35 91  1  1  0  0  0
 36 29  2  0  0  0  0
 37 33  1  0  0  0  0
 38 92  1  0  0  0  0
 39 37  1  0  0  0  0
 39 93  1  0  0  0  0
 40 94  1  0  0  0  0
 40 95  1  0  0  0  0
 41 37  2  0  0  0  0
 42 38  1  0  0  0  0
 43 42  1  0  0  0  0
 44 42  2  0  0  0  0
 45 43  1  0  0  0  0
 46 43  2  0  0  0  0
 47 45  2  0  0  0  0
 47 96  1  0  0  0  0
 48 45  1  0  0  0  0
 48 97  1  0  0  0  0
 49 46  1  0  0  0  0
 49 98  1  0  0  0  0
 50 47  1  0  0  0  0
 50 49  2  0  0  0  0
 50 99  1  0  0  0  0
 51 13  1  0  0  0  0
 52 51  2  0  0  0  0
 53 40  1  0  0  0  0
 53100  1  0  0  0  0
 53101  1  0  0  0  0
 53102  1  0  0  0  0
 55  7  1  0  0  0  0
 55 56  1  0  0  0  0
 55103  1  0  0  0  0
 55104  1  0  0  0  0
 57 56  1  0  0  0  0
 57105  1  0  0  0  0
 58 56  2  0  0  0  0
 58106  1  0  0  0  0
 59 57  2  0  0  0  0
 59107  1  0  0  0  0
 60 58  1  0  0  0  0
 60108  1  0  0  0  0
 61 59  1  0  0  0  0
 61 60  2  0  0  0  0
 61109  1  0  0  0  0
M  END
>  <DRUGBANK_ID>
DB04805

>  <COMMON_NAME>
Virginiamycin S1

>  <CAS_NUMBER>
23152-29-6

>  <UNII>
J91D5GN5AT

>  <SYNONYMS>
Staphylomycin S; Staphylomycin S1; Virginiamycin factor S; Virginiamycin factor S1

$$$$
