
 OpenBabel10282417072D

 27 26  0  0  0  0  0  0  0  0999 V2000
    0.0000   -0.1826    0.0000 C   0  0  0  0  0  0  0  0  0  0  0  0
   -0.7154    0.2283    0.0000 C   0  0  0  0  0  0  0  0  0  0  0  0
    0.7154    0.2283    0.0000 C   0  0  0  0  0  0  0  0  0  0  0  0
   -1.4345   -0.1826    0.0000 C   0  0  0  0  0  0  0  0  0  0  0  0
    1.4345   -0.1826    0.0000 C   0  0  0  0  0  0  0  0  0  0  0  0
   -2.1499    0.2283    0.0000 C   0  0  0  0  0  0  0  0  0  0  0  0
    2.1499    0.2283    0.0000 C   0  0  0  0  0  0  0  0  0  0  0  0
   -2.8653   -0.1826    0.0000 C   0  0  0  0  0  0  0  0  0  0  0  0
    2.8653   -0.1826    0.0000 O   0  0  0  0  0  0  0  0  0  0  0  0
    0.0000   -1.2526    0.0000 H   0  0  0  0  0  0  0  0  0  0  0  0
    0.9260   -0.7186    0.0000 H   0  0  0  0  0  0  0  0  0  0  0  0
   -0.7142    1.2983    0.0000 H   0  0  0  0  0  0  0  0  0  0  0  0
   -1.6406    0.7659    0.0000 H   0  0  0  0  0  0  0  0  0  0  0  0
    0.7142    1.2983    0.0000 H   0  0  0  0  0  0  0  0  0  0  0  0
    1.6406    0.7659    0.0000 H   0  0  0  0  0  0  0  0  0  0  0  0
   -1.4357   -1.2526    0.0000 H   0  0  0  0  0  0  0  0  0  0  0  0
   -2.3608   -0.7181    0.0000 H   0  0  0  0  0  0  0  0  0  0  0  0
    1.4357   -1.2526    0.0000 H   0  0  0  0  0  0  0  0  0  0  0  0
    2.3608   -0.7181    0.0000 H   0  0  0  0  0  0  0  0  0  0  0  0
   -2.1499    1.2983    0.0000 H   0  0  0  0  0  0  0  0  0  0  0  0
   -3.0759    0.7643    0.0000 H   0  0  0  0  0  0  0  0  0  0  0  0
    2.1499    1.2983    0.0000 H   0  0  0  0  0  0  0  0  0  0  0  0
    3.0759    0.7643    0.0000 H   0  0  0  0  0  0  0  0  0  0  0  0
   -3.7907    0.3545    0.0000 H   0  0  0  0  0  0  0  0  0  0  0  0
   -2.8677   -1.2526    0.0000 H   0  0  0  0  0  0  0  0  0  0  0  0
   -3.7931   -0.7155    0.0000 H   0  0  0  0  0  0  0  0  0  0  0  0
    2.8675   -1.1526    0.0000 H   0  0  0  0  0  0  0  0  0  0  0  0
  1  2  1  0  0  0  0
  1  3  1  0  0  0  0
  1 10  1  0  0  0  0
  1 11  1  0  0  0  0
  2  4  1  0  0  0  0
  2 12  1  0  0  0  0
  2 13  1  0  0  0  0
  3  5  1  0  0  0  0
  3 14  1  0  0  0  0
  3 15  1  0  0  0  0
  4  6  1  0  0  0  0
  4 16  1  0  0  0  0
  4 17  1  0  0  0  0
  5  7  1  0  0  0  0
  5 18  1  0  0  0  0
  5 19  1  0  0  0  0
  6  8  1  0  0  0  0
  6 20  1  0  0  0  0
  6 21  1  0  0  0  0
  7  9  1  0  0  0  0
  7 22  1  0  0  0  0
  7 23  1  0  0  0  0
  8 24  1  0  0  0  0
  8 25  1  0  0  0  0
  8 26  1  0  0  0  0
  9 27  1  0  0  0  0
M  END
>  <DRUGBANK_ID>
DB12452

>  <COMMON_NAME>
Caprylic alcohol

>  <CAS_NUMBER>
111-87-5

>  <UNII>
NV1779205D

>  <SYNONYMS>
1-Octanol

$$$$
