
 OpenBabel10282417072D

 13 10  0  0  0  0  0  0  0  0999 V2000
    0.0000   -0.4946    0.0000 Si  0  0  0  0  0  0  0  0  0  0  0  0
    1.0779    0.5833    0.0000 Si  0  0  3  0  0  0  0  0  0  0  0  0
   -1.0779    0.5833    0.0000 Si  0  0  3  0  0  0  0  0  0  0  0  0
    0.0000   -1.6614    0.0000 Mg  0  2  0  0  0  0  0  0  0  0  0  0
    0.0000    1.6614    0.0000 Mg  0  2  0  0  0  0  0  0  0  0  0  0
    0.7622   -0.1788    0.0000 O   0  0  0  0  0  0  0  0  0  0  0  0
   -0.7622   -0.1788    0.0000 O   0  0  0  0  0  0  0  0  0  0  0  0
   -0.5833   -1.0780    0.0000 O   0  5  0  0  0  0  0  0  0  0  0  0
    0.5834   -1.0780    0.0000 O   0  5  0  0  0  0  0  0  0  0  0  0
    0.7622    1.3456    0.0000 O   0  5  0  0  0  0  0  0  0  0  0  0
   -0.7622    1.3456    0.0000 O   0  5  0  0  0  0  0  0  0  0  0  0
    1.9030    0.5833    0.0000 O   0  0  0  0  0  0  0  0  0  0  0  0
   -1.9030    0.5833    0.0000 O   0  0  0  0  0  0  0  0  0  0  0  0
  1  6  1  0  0  0  0
  1  7  1  0  0  0  0
  1  8  1  0  0  0  0
  1  9  1  0  0  0  0
  2  6  1  0  0  0  0
  2 10  1  0  0  0  0
  2 12  2  0  0  0  0
  3  7  1  0  0  0  0
  3 11  1  0  0  0  0
  3 13  2  0  0  0  0
M  CHG  6   4   2   5   2   8  -1   9  -1  10  -1  11  -1
M  END
>  <DRUGBANK_ID>
DB09281

>  <COMMON_NAME>
Magnesium trisilicate

>  <CAS_NUMBER>
14987-04-3

>  <UNII>
FML8G1U0Y3

>  <SYNONYMS>
Magnesio trisilicato

$$$$
