
 OpenBabel10282417072D

223229  0  0  1  0  0  0  0  0999 V2000
    4.8293   13.9539    0.0000 C   0  0  0  0  0  0  0  0  0  0  0  0
    5.1983   13.2161    0.0000 C   0  0  0  0  0  0  0  0  0  0  0  0
    4.7438   12.5275    0.0000 C   0  0  2  0  0  0  0  0  0  0  0  0
    3.9203   12.5769    0.0000 C   0  0  0  0  0  0  0  0  0  0  0  0
    5.1129   11.7897    0.0000 C   0  0  2  0  0  0  0  0  0  0  0  0
    4.6584   11.1012    0.0000 N   0  0  0  0  0  0  0  0  0  0  0  0
    4.0058   11.6058    0.0000 C   0  0  0  0  0  0  0  0  0  0  0  0
    3.6148   12.3323    0.0000 O   0  0  0  0  0  0  0  0  0  0  0  0
    3.2424   11.2930    0.0000 C   0  0  2  0  0  0  0  0  0  0  0  0
    2.5897   11.7976    0.0000 C   0  0  0  0  0  0  0  0  0  0  0  0
    2.7005   12.6152    0.0000 C   0  0  0  0  0  0  0  0  0  0  0  0
    3.4270   13.0061    0.0000 C   0  0  0  0  0  0  0  0  0  0  0  0
    3.2797   13.8179    0.0000 N   0  0  0  0  0  0  0  0  0  0  0  0
    2.4621   13.9286    0.0000 C   0  0  0  0  0  0  0  0  0  0  0  0
    2.1042   13.1853    0.0000 C   0  0  0  0  0  0  0  0  0  0  0  0
    1.2815   13.1236    0.0000 C   0  0  0  0  0  0  0  0  0  0  0  0
    0.8167   13.8053    0.0000 C   0  0  0  0  0  0  0  0  0  0  0  0
    1.1747   14.5486    0.0000 C   0  0  0  0  0  0  0  0  0  0  0  0
    1.9974   14.6102    0.0000 C   0  0  0  0  0  0  0  0  0  0  0  0
    3.1316   10.4754    0.0000 N   0  0  0  0  0  0  0  0  0  0  0  0
    2.3247   10.6470    0.0000 C   0  0  0  0  0  0  0  0  0  0  0  0
    2.0697   11.4316    0.0000 O   0  0  0  0  0  0  0  0  0  0  0  0
    1.7726   10.0339    0.0000 C   0  0  1  0  0  0  0  0  0  0  0  0
    2.0276    9.2492    0.0000 N   0  0  0  0  0  0  0  0  0  0  0  0
    1.2261    9.0537    0.0000 C   0  0  0  0  0  0  0  0  0  0  0  0
    0.6560    9.6500    0.0000 O   0  0  0  0  0  0  0  0  0  0  0  0
    0.9947    8.2618    0.0000 C   0  0  2  0  0  0  0  0  0  0  0  0
    0.2514    7.9038    0.0000 C   0  0  0  0  0  0  0  0  0  0  0  0
    0.3622    7.0863    0.0000 C   0  0  0  0  0  0  0  0  0  0  0  0
    1.1739    6.9390    0.0000 C   0  0  0  0  0  0  0  0  0  0  0  0
    1.5649    7.6654    0.0000 N   0  0  0  0  0  0  0  0  0  0  0  0
    0.9276    7.1415    0.0000 C   0  0  0  0  0  0  0  0  0  0  0  0
    0.1552    7.4314    0.0000 O   0  0  0  0  0  0  0  0  0  0  0  0
    1.0628    6.3276    0.0000 C   0  0  1  0  0  0  0  0  0  0  0  0
    0.5484    5.6826    0.0000 C   0  0  0  0  0  0  0  0  0  0  0  0
    1.0029    4.9941    0.0000 C   0  0  0  0  0  0  0  0  0  0  0  0
    1.7982    5.2136    0.0000 C   0  0  0  0  0  0  0  0  0  0  0  0
    1.8352    6.0377    0.0000 N   0  0  0  0  0  0  0  0  0  0  0  0
    1.4884    5.2892    0.0000 C   0  0  0  0  0  0  0  0  0  0  0  0
    0.6667    5.2152    0.0000 O   0  0  0  0  0  0  0  0  0  0  0  0
    1.9633    4.6146    0.0000 C   0  0  2  0  0  0  0  0  0  0  0  0
    1.6165    3.8660    0.0000 C   0  0  0  0  0  0  0  0  0  0  0  0
    0.7948    3.7920    0.0000 O   0  0  0  0  0  0  0  0  0  0  0  0
    2.7849    4.6885    0.0000 N   0  0  0  0  0  0  0  0  0  0  0  0
    2.7973    3.8636    0.0000 C   0  0  0  0  0  0  0  0  0  0  0  0
    2.0891    3.4405    0.0000 O   0  0  0  0  0  0  0  0  0  0  0  0
    3.5178    3.4618    0.0000 C   0  0  2  0  0  0  0  0  0  0  0  0
    3.5302    2.6369    0.0000 C   0  0  0  0  0  0  0  0  0  0  0  0
    4.2261    3.8850    0.0000 N   0  0  0  0  0  0  0  0  0  0  0  0
    4.5951    3.1471    0.0000 C   0  0  0  0  0  0  0  0  0  0  0  0
    4.1406    2.4586    0.0000 O   0  0  0  0  0  0  0  0  0  0  0  0
    5.4186    3.0978    0.0000 C   0  0  2  0  0  0  0  0  0  0  0  0
    5.7876    2.3599    0.0000 C   0  0  0  0  0  0  0  0  0  0  0  0
    5.3332    1.6714    0.0000 C   0  0  0  0  0  0  0  0  0  0  0  0
    5.7022    0.9335    0.0000 N   0  0  0  0  0  0  0  0  0  0  0  0
    5.8731    3.7863    0.0000 N   0  0  0  0  0  0  0  0  0  0  0  0
    6.5257    3.2816    0.0000 C   0  0  0  0  0  0  0  0  0  0  0  0
    6.4150    2.4641    0.0000 O   0  0  0  0  0  0  0  0  0  0  0  0
    7.2891    3.5945    0.0000 C   0  0  2  0  0  0  0  0  0  0  0  0
    7.9417    3.0898    0.0000 C   0  0  0  0  0  0  0  0  0  0  0  0
    7.8310    2.2723    0.0000 C   0  0  0  0  0  0  0  0  0  0  0  0
    8.4836    1.7676    0.0000 N   0  0  0  0  0  0  0  0  0  0  0  0
    7.3999    4.4120    0.0000 N   0  0  0  0  0  0  0  0  0  0  0  0
    8.2068    4.2405    0.0000 C   0  0  0  0  0  0  0  0  0  0  0  0
    8.4618    3.4559    0.0000 O   0  0  0  0  0  0  0  0  0  0  0  0
    8.7589    4.8536    0.0000 C   0  0  2  0  0  0  0  0  0  0  0  0
    9.5658    4.6821    0.0000 C   0  0  0  0  0  0  0  0  0  0  0  0
    9.8208    3.8974    0.0000 C   0  0  0  0  0  0  0  0  0  0  0  0
    9.3358    3.2300    0.0000 C   0  0  0  0  0  0  0  0  0  0  0  0
    9.8208    2.5626    0.0000 N   0  0  0  0  0  0  0  0  0  0  0  0
   10.6054    2.8175    0.0000 C   0  0  0  0  0  0  0  0  0  0  0  0
   10.6054    3.6425    0.0000 C   0  0  0  0  0  0  0  0  0  0  0  0
   11.3199    4.0550    0.0000 C   0  0  0  0  0  0  0  0  0  0  0  0
   12.0343    3.6425    0.0000 C   0  0  0  0  0  0  0  0  0  0  0  0
   12.0343    2.8175    0.0000 C   0  0  0  0  0  0  0  0  0  0  0  0
   11.3199    2.4050    0.0000 C   0  0  0  0  0  0  0  0  0  0  0  0
    8.5039    5.6382    0.0000 N   0  0  0  0  0  0  0  0  0  0  0  0
    9.3054    5.8338    0.0000 C   0  0  0  0  0  0  0  0  0  0  0  0
    9.8755    5.2375    0.0000 O   0  0  0  0  0  0  0  0  0  0  0  0
    9.5368    6.6257    0.0000 C   0  0  2  0  0  0  0  0  0  0  0  0
   10.3382    6.8213    0.0000 C   0  0  0  0  0  0  0  0  0  0  0  0
   10.9084    6.2250    0.0000 C   0  0  0  0  0  0  0  0  0  0  0  0
   11.7098    6.4206    0.0000 N   0  0  0  0  0  0  0  0  0  0  0  0
    8.9666    7.2220    0.0000 N   0  0  0  0  0  0  0  0  0  0  0  0
    9.6039    7.7460    0.0000 C   0  0  0  0  0  0  0  0  0  0  0  0
   10.3763    7.4561    0.0000 O   0  0  0  0  0  0  0  0  0  0  0  0
    9.4687    8.5598    0.0000 C   0  0  1  0  0  0  0  0  0  0  0  0
   10.1060    9.0838    0.0000 C   0  0  0  0  0  0  0  0  0  0  0  0
   10.8784    8.7939    0.0000 C   0  0  0  0  0  0  0  0  0  0  0  0
   11.5156    9.3179    0.0000 N   0  0  0  0  0  0  0  0  0  0  0  0
    8.6963    8.8497    0.0000 N   0  0  0  0  0  0  0  0  0  0  0  0
    9.0431    9.5983    0.0000 C   0  0  0  0  0  0  0  0  0  0  0  0
    9.8648    9.6722    0.0000 O   0  0  0  0  0  0  0  0  0  0  0  0
    8.5682   10.2729    0.0000 C   0  0  2  0  0  0  0  0  0  0  0  0
    8.9150   11.0215    0.0000 C   0  0  0  0  0  0  0  0  0  0  0  0
    9.7367   11.0954    0.0000 C   0  0  0  0  0  0  0  0  0  0  0  0
   10.0835   11.8440    0.0000 C   0  0  0  0  0  0  0  0  0  0  0  0
   10.9052   11.9179    0.0000 N   0  0  0  0  0  0  0  0  0  0  0  0
    7.7466   10.1989    0.0000 N   0  0  0  0  0  0  0  0  0  0  0  0
    7.7342   11.0239    0.0000 C   0  0  0  0  0  0  0  0  0  0  0  0
    8.4424   11.4470    0.0000 O   0  0  0  0  0  0  0  0  0  0  0  0
    7.0137   11.4256    0.0000 C   0  0  2  0  0  0  0  0  0  0  0  0
    7.0013   12.2505    0.0000 C   0  0  0  0  0  0  0  0  0  0  0  0
    7.7095   12.6737    0.0000 C   0  0  0  0  0  0  0  0  0  0  0  0
    7.6972   13.4986    0.0000 N   0  0  0  0  0  0  0  0  0  0  0  0
    6.3054   11.0025    0.0000 N   0  0  0  0  0  0  0  0  0  0  0  0
    5.9364   11.7403    0.0000 C   0  0  0  0  0  0  0  0  0  0  0  0
    6.3909   12.4289    0.0000 O   0  0  0  0  0  0  0  0  0  0  0  0
    0.9657   10.2054    0.0000 C   0  0  1  0  0  0  0  0  0  0  0  0
    0.7107   10.9900    0.0000 C   0  0  0  0  0  0  0  0  0  0  0  0
    0.2512    9.7929    0.0000 O   0  0  0  0  0  0  0  0  0  0  0  0
    5.4188   14.8469    0.0000 H   0  0  0  0  0  0  0  0  0  0  0  0
    3.7612   14.0179    0.0000 H   0  0  0  0  0  0  0  0  0  0  0  0
    4.3507   14.9109    0.0000 H   0  0  0  0  0  0  0  0  0  0  0  0
    6.2664   13.1521    0.0000 H   0  0  0  0  0  0  0  0  0  0  0  0
    5.6770   12.2591    0.0000 H   0  0  0  0  0  0  0  0  0  0  0  0
    4.2652   13.4845    0.0000 H   0  0  0  0  0  0  0  0  0  0  0  0
    3.4417   13.5339    0.0000 H   0  0  0  0  0  0  0  0  0  0  0  0
    3.3308   11.6840    0.0000 H   0  0  0  0  0  0  0  0  0  0  0  0
    2.8522   12.6410    0.0000 H   0  0  0  0  0  0  0  0  0  0  0  0
    4.0448   11.8536    0.0000 H   0  0  0  0  0  0  0  0  0  0  0  0
    4.8197   10.1300    0.0000 H   0  0  0  0  0  0  0  0  0  0  0  0
    3.3860   12.3533    0.0000 H   0  0  0  0  0  0  0  0  0  0  0  0
    1.5996   11.3918    0.0000 H   0  0  0  0  0  0  0  0  0  0  0  0
    1.7433   12.4522    0.0000 H   0  0  0  0  0  0  0  0  0  0  0  0
    4.3568   12.5583    0.0000 H   0  0  0  0  0  0  0  0  0  0  0  0
    3.9600   14.5295    0.0000 H   0  0  0  0  0  0  0  0  0  0  0  0
    0.8338   12.1938    0.0000 H   0  0  0  0  0  0  0  0  0  0  0  0
   -0.2124   13.7282    0.0000 H   0  0  0  0  0  0  0  0  0  0  0  0
    0.5934   15.4013    0.0000 H   0  0  0  0  0  0  0  0  0  0  0  0
    2.4452   15.5400    0.0000 H   0  0  0  0  0  0  0  0  0  0  0  0
    3.6982    9.6703    0.0000 H   0  0  0  0  0  0  0  0  0  0  0  0
    1.4420   11.0515    0.0000 H   0  0  0  0  0  0  0  0  0  0  0  0
    2.8875    8.7697    0.0000 H   0  0  0  0  0  0  0  0  0  0  0  0
    2.0342    8.5154    0.0000 H   0  0  0  0  0  0  0  0  0  0  0  0
   -0.6909    8.4108    0.0000 H   0  0  0  0  0  0  0  0  0  0  0  0
   -0.6281    7.2944    0.0000 H   0  0  0  0  0  0  0  0  0  0  0  0
   -0.4112    6.3468    0.0000 H   0  0  0  0  0  0  0  0  0  0  0  0
    0.6700    6.0615    0.0000 H   0  0  0  0  0  0  0  0  0  0  0  0
    1.6381    5.9749    0.0000 H   0  0  0  0  0  0  0  0  0  0  0  0
    2.2436    6.9149    0.0000 H   0  0  0  0  0  0  0  0  0  0  0  0
    1.8893    7.0072    0.0000 H   0  0  0  0  0  0  0  0  0  0  0  0
   -0.5205    5.7306    0.0000 H   0  0  0  0  0  0  0  0  0  0  0  0
    0.0204    4.7520    0.0000 H   0  0  0  0  0  0  0  0  0  0  0  0
    0.6269    3.9923    0.0000 H   0  0  0  0  0  0  0  0  0  0  0  0
    1.7248    4.2043    0.0000 H   0  0  0  0  0  0  0  0  0  0  0  0
    2.6348    4.5465    0.0000 H   0  0  0  0  0  0  0  0  0  0  0  0
    2.7724    5.6561    0.0000 H   0  0  0  0  0  0  0  0  0  0  0  0
    0.8976    4.5187    0.0000 H   0  0  0  0  0  0  0  0  0  0  0  0
    2.2324    2.9911    0.0000 H   0  0  0  0  0  0  0  0  0  0  0  0
    1.1668    2.8951    0.0000 H   0  0  0  0  0  0  0  0  0  0  0  0
    0.2364    4.5852    0.0000 H   0  0  0  0  0  0  0  0  0  0  0  0
    3.4437    5.4201    0.0000 H   0  0  0  0  0  0  0  0  0  0  0  0
    2.5993    2.9130    0.0000 H   0  0  0  0  0  0  0  0  0  0  0  0
    2.6117    2.0880    0.0000 H   0  0  0  0  0  0  0  0  0  0  0  0
    4.4648    2.1159    0.0000 H   0  0  0  0  0  0  0  0  0  0  0  0
    3.5463    1.5670    0.0000 H   0  0  0  0  0  0  0  0  0  0  0  0
    4.5022    4.8300    0.0000 H   0  0  0  0  0  0  0  0  0  0  0  0
    4.8291    2.2048    0.0000 H   0  0  0  0  0  0  0  0  0  0  0  0
    6.8557    2.2959    0.0000 H   0  0  0  0  0  0  0  0  0  0  0  0
    6.2663    1.4029    0.0000 H   0  0  0  0  0  0  0  0  0  0  0  0
    4.2651    1.7354    0.0000 H   0  0  0  0  0  0  0  0  0  0  0  0
    4.7437    0.7784    0.0000 H   0  0  0  0  0  0  0  0  0  0  0  0
    5.1402    0.0823    0.0000 H   0  0  0  0  0  0  0  0  0  0  0  0
    6.7204    0.8724    0.0000 H   0  0  0  0  0  0  0  0  0  0  0  0
    5.7119    4.7575    0.0000 H   0  0  0  0  0  0  0  0  0  0  0  0
    7.1455    2.5342    0.0000 H   0  0  0  0  0  0  0  0  0  0  0  0
    8.9318    3.4956    0.0000 H   0  0  0  0  0  0  0  0  0  0  0  0
    8.7882    2.4353    0.0000 H   0  0  0  0  0  0  0  0  0  0  0  0
    6.8409    1.8665    0.0000 H   0  0  0  0  0  0  0  0  0  0  0  0
    7.6873    1.2120    0.0000 H   0  0  0  0  0  0  0  0  0  0  0  0
    8.3466    0.7568    0.0000 H   0  0  0  0  0  0  0  0  0  0  0  0
    9.4274    2.1544    0.0000 H   0  0  0  0  0  0  0  0  0  0  0  0
    6.8332    5.2171    0.0000 H   0  0  0  0  0  0  0  0  0  0  0  0
    9.0895    3.8360    0.0000 H   0  0  0  0  0  0  0  0  0  0  0  0
   10.2817    5.4773    0.0000 H   0  0  0  0  0  0  0  0  0  0  0  0
   10.6124    4.4597    0.0000 H   0  0  0  0  0  0  0  0  0  0  0  0
    8.3038    3.2300    0.0000 H   0  0  0  0  0  0  0  0  0  0  0  0
    9.5166    1.6263    0.0000 H   0  0  0  0  0  0  0  0  0  0  0  0
   11.3199    5.0870    0.0000 H   0  0  0  0  0  0  0  0  0  0  0  0
   12.9280    4.1585    0.0000 H   0  0  0  0  0  0  0  0  0  0  0  0
   12.9280    2.3015    0.0000 H   0  0  0  0  0  0  0  0  0  0  0  0
   11.3199    1.3730    0.0000 H   0  0  0  0  0  0  0  0  0  0  0  0
    7.6440    6.1176    0.0000 H   0  0  0  0  0  0  0  0  0  0  0  0
   10.2762    5.8523    0.0000 H   0  0  0  0  0  0  0  0  0  0  0  0
   10.6382    7.8484    0.0000 H   0  0  0  0  0  0  0  0  0  0  0  0
   11.3777    7.0750    0.0000 H   0  0  0  0  0  0  0  0  0  0  0  0
   10.6084    5.1979    0.0000 H   0  0  0  0  0  0  0  0  0  0  0  0
   11.6479    5.4516    0.0000 H   0  0  0  0  0  0  0  0  0  0  0  0
   12.4147    5.6834    0.0000 H   0  0  0  0  0  0  0  0  0  0  0  0
   11.9958    7.3997    0.0000 H   0  0  0  0  0  0  0  0  0  0  0  0
    7.9839    7.2809    0.0000 H   0  0  0  0  0  0  0  0  0  0  0  0
   10.4705    8.1839    0.0000 H   0  0  0  0  0  0  0  0  0  0  0  0
    9.9307   10.1393    0.0000 H   0  0  0  0  0  0  0  0  0  0  0  0
   10.9325    9.7634    0.0000 H   0  0  0  0  0  0  0  0  0  0  0  0
   11.0537    7.7384    0.0000 H   0  0  0  0  0  0  0  0  0  0  0  0
   11.8802    8.4180    0.0000 H   0  0  0  0  0  0  0  0  0  0  0  0
   12.4706    8.9596    0.0000 H   0  0  0  0  0  0  0  0  0  0  0  0
   11.3484   10.3241    0.0000 H   0  0  0  0  0  0  0  0  0  0  0  0
    7.7853    8.4764    0.0000 H   0  0  0  0  0  0  0  0  0  0  0  0
    9.6339   10.3688    0.0000 H   0  0  0  0  0  0  0  0  0  0  0  0
    8.2991   11.8965    0.0000 H   0  0  0  0  0  0  0  0  0  0  0  0
    9.3648   11.9924    0.0000 H   0  0  0  0  0  0  0  0  0  0  0  0
   10.3526   10.2204    0.0000 H   0  0  0  0  0  0  0  0  0  0  0  0
   10.8024   11.1913    0.0000 H   0  0  0  0  0  0  0  0  0  0  0  0
    9.4676   12.7190    0.0000 H   0  0  0  0  0  0  0  0  0  0  0  0
   10.5333   12.8149    0.0000 H   0  0  0  0  0  0  0  0  0  0  0  0
   11.4923   11.0838    0.0000 H   0  0  0  0  0  0  0  0  0  0  0  0
   11.3340   12.8434    0.0000 H   0  0  0  0  0  0  0  0  0  0  0  0
    7.0879    9.4672    0.0000 H   0  0  0  0  0  0  0  0  0  0  0  0
    7.9322   11.9745    0.0000 H   0  0  0  0  0  0  0  0  0  0  0  0
    6.0667   12.7715    0.0000 H   0  0  0  0  0  0  0  0  0  0  0  0
    6.9852   13.3204    0.0000 H   0  0  0  0  0  0  0  0  0  0  0  0
    8.6441   12.1526    0.0000 H   0  0  0  0  0  0  0  0  0  0  0  0
    8.6281   13.2225    0.0000 H   0  0  0  0  0  0  0  0  0  0  0  0
    8.5728   14.0217    0.0000 H   0  0  0  0  0  0  0  0  0  0  0  0
    6.8063   13.9954    0.0000 H   0  0  0  0  0  0  0  0  0  0  0  0
    6.0293   10.0575    0.0000 H   0  0  0  0  0  0  0  0  0  0  0  0
   -0.0332   10.5888    0.0000 H   0  0  0  0  0  0  0  0  0  0  0  0
    1.4266   11.7852    0.0000 H   0  0  0  0  0  0  0  0  0  0  0  0
   -0.3359   11.2124    0.0000 H   0  0  0  0  0  0  0  0  0  0  0  0
    0.3800   12.0076    0.0000 H   0  0  0  0  0  0  0  0  0  0  0  0
   -0.5888   10.2779    0.0000 H   0  0  0  0  0  0  0  0  0  0  0  0
  1  2  1  0  0  0  0
  1112  1  0  0  0  0
  1113  1  0  0  0  0
  1114  1  0  0  0  0
  2115  1  0  0  0  0
  2116  1  0  0  0  0
  3  2  1  0  0  0  0
  3  4  1  0  0  0  0
  3  5  1  0  0  0  0
  3117  1  6  0  0  0
  4118  1  0  0  0  0
  4119  1  0  0  0  0
  4120  1  0  0  0  0
  5  6  1  0  0  0  0
  5107  1  0  0  0  0
  5121  1  6  0  0  0
  6  7  1  0  0  0  0
  6122  1  0  0  0  0
  7  8  2  0  0  0  0
  9  7  1  0  0  0  0
  9 10  1  0  0  0  0
  9 20  1  0  0  0  0
  9123  1  6  0  0  0
 10 11  1  0  0  0  0
 10124  1  0  0  0  0
 10125  1  0  0  0  0
 11 12  2  0  0  0  0
 11 15  1  0  0  0  0
 12 13  1  0  0  0  0
 12126  1  0  0  0  0
 13 14  1  0  0  0  0
 13127  1  0  0  0  0
 14 15  2  0  0  0  0
 14 19  1  0  0  0  0
 15 16  1  0  0  0  0
 16 17  2  0  0  0  0
 16128  1  0  0  0  0
 17 18  1  0  0  0  0
 17129  1  0  0  0  0
 18 19  2  0  0  0  0
 18130  1  0  0  0  0
 19131  1  0  0  0  0
 20 21  1  0  0  0  0
 20132  1  0  0  0  0
 21 22  2  0  0  0  0
 23 21  1  0  0  0  0
 23 24  1  0  0  0  0
 23109  1  0  0  0  0
 23133  1  6  0  0  0
 24 25  1  0  0  0  0
 24134  1  0  0  0  0
 25 26  2  0  0  0  0
 27 25  1  0  0  0  0
 27 28  1  0  0  0  0
 27 31  1  0  0  0  0
 27135  1  6  0  0  0
 28 29  1  0  0  0  0
 28136  1  0  0  0  0
 28137  1  0  0  0  0
 29 30  1  0  0  0  0
 29138  1  0  0  0  0
 29139  1  0  0  0  0
 30 31  1  0  0  0  0
 30140  1  0  0  0  0
 30141  1  0  0  0  0
 31 32  1  0  0  0  0
 32 33  2  0  0  0  0
 34 32  1  0  0  0  0
 34 35  1  0  0  0  0
 34 38  1  0  0  0  0
 34142  1  1  0  0  0
 35 36  1  0  0  0  0
 35143  1  0  0  0  0
 35144  1  0  0  0  0
 36 37  1  0  0  0  0
 36145  1  0  0  0  0
 36146  1  0  0  0  0
 37 38  1  0  0  0  0
 37147  1  0  0  0  0
 37148  1  0  0  0  0
 38 39  1  0  0  0  0
 39 40  2  0  0  0  0
 41 39  1  0  0  0  0
 41 42  1  0  0  0  0
 41 44  1  0  0  0  0
 41149  1  6  0  0  0
 42 43  1  0  0  0  0
 42150  1  0  0  0  0
 42151  1  0  0  0  0
 43152  1  0  0  0  0
 44 45  1  0  0  0  0
 44153  1  0  0  0  0
 45 46  2  0  0  0  0
 47 45  1  0  0  0  0
 47 48  1  0  0  0  0
 47 49  1  0  0  0  0
 47154  1  6  0  0  0
 48155  1  0  0  0  0
 48156  1  0  0  0  0
 48157  1  0  0  0  0
 49 50  1  0  0  0  0
 49158  1  0  0  0  0
 50 51  2  0  0  0  0
 52 50  1  0  0  0  0
 52 53  1  0  0  0  0
 52 56  1  0  0  0  0
 52159  1  6  0  0  0
 53 54  1  0  0  0  0
 53160  1  0  0  0  0
 53161  1  0  0  0  0
 54 55  1  0  0  0  0
 54162  1  0  0  0  0
 54163  1  0  0  0  0
 55164  1  0  0  0  0
 55165  1  0  0  0  0
 56 57  1  0  0  0  0
 56166  1  0  0  0  0
 57 58  2  0  0  0  0
 59 57  1  0  0  0  0
 59 60  1  0  0  0  0
 59 63  1  0  0  0  0
 59167  1  6  0  0  0
 60 61  1  0  0  0  0
 60168  1  0  0  0  0
 60169  1  0  0  0  0
 61 62  1  0  0  0  0
 61170  1  0  0  0  0
 61171  1  0  0  0  0
 62172  1  0  0  0  0
 62173  1  0  0  0  0
 63 64  1  0  0  0  0
 63174  1  0  0  0  0
 64 65  2  0  0  0  0
 66 64  1  0  0  0  0
 66 67  1  0  0  0  0
 66 77  1  0  0  0  0
 66175  1  6  0  0  0
 67 68  1  0  0  0  0
 67176  1  0  0  0  0
 67177  1  0  0  0  0
 68 69  2  0  0  0  0
 68 72  1  0  0  0  0
 69 70  1  0  0  0  0
 69178  1  0  0  0  0
 70 71  1  0  0  0  0
 70179  1  0  0  0  0
 71 72  2  0  0  0  0
 71 76  1  0  0  0  0
 72 73  1  0  0  0  0
 73 74  2  0  0  0  0
 73180  1  0  0  0  0
 74 75  1  0  0  0  0
 74181  1  0  0  0  0
 75 76  2  0  0  0  0
 75182  1  0  0  0  0
 76183  1  0  0  0  0
 77 78  1  0  0  0  0
 77184  1  0  0  0  0
 78 79  2  0  0  0  0
 80 78  1  0  0  0  0
 80 81  1  0  0  0  0
 80 84  1  0  0  0  0
 80185  1  6  0  0  0
 81 82  1  0  0  0  0
 81186  1  0  0  0  0
 81187  1  0  0  0  0
 82 83  1  0  0  0  0
 82188  1  0  0  0  0
 82189  1  0  0  0  0
 83190  1  0  0  0  0
 83191  1  0  0  0  0
 84 85  1  0  0  0  0
 84192  1  0  0  0  0
 85 86  2  0  0  0  0
 87 85  1  0  0  0  0
 87 88  1  0  0  0  0
 87 91  1  0  0  0  0
 87193  1  1  0  0  0
 88 89  1  0  0  0  0
 88194  1  0  0  0  0
 88195  1  0  0  0  0
 89 90  1  0  0  0  0
 89196  1  0  0  0  0
 89197  1  0  0  0  0
 90198  1  0  0  0  0
 90199  1  0  0  0  0
 91 92  1  0  0  0  0
 91200  1  0  0  0  0
 92 93  2  0  0  0  0
 94 92  1  0  0  0  0
 94 95  1  0  0  0  0
 94 99  1  0  0  0  0
 94201  1  6  0  0  0
 95 96  1  0  0  0  0
 95202  1  0  0  0  0
 95203  1  0  0  0  0
 96 97  1  0  0  0  0
 96204  1  0  0  0  0
 96205  1  0  0  0  0
 97 98  1  0  0  0  0
 97206  1  0  0  0  0
 97207  1  0  0  0  0
 98208  1  0  0  0  0
 98209  1  0  0  0  0
 99100  1  0  0  0  0
 99210  1  0  0  0  0
100101  2  0  0  0  0
102100  1  0  0  0  0
102103  1  0  0  0  0
102106  1  0  0  0  0
102211  1  6  0  0  0
103104  1  0  0  0  0
103212  1  0  0  0  0
103213  1  0  0  0  0
104105  1  0  0  0  0
104214  1  0  0  0  0
104215  1  0  0  0  0
105216  1  0  0  0  0
105217  1  0  0  0  0
106107  1  0  0  0  0
106218  1  0  0  0  0
107108  2  0  0  0  0
109110  1  0  0  0  0
109111  1  0  0  0  0
109219  1  1  0  0  0
110220  1  0  0  0  0
110221  1  0  0  0  0
110222  1  0  0  0  0
111223  1  0  0  0  0
M  END
>  <DRUGBANK_ID>
DB14777

>  <COMMON_NAME>
Murepavadin

>  <CAS_NUMBER>
944252-63-5

>  <UNII>
0D02GRY87Z

>  <SYNONYMS>
Murepavadin

$$$$
