
 OpenBabel10282417072D

 39 41  0  0  0  0  0  0  0  0999 V2000
    1.4411   -0.1349    0.0000 C   0  0  0  0  0  0  0  0  0  0  0  0
    1.1974   -1.0142    0.0000 N   0  0  0  0  0  0  0  0  0  0  0  0
    0.0201   -0.1005    0.0000 C   0  0  1  0  0  0  0  0  0  0  0  0
    0.7432    0.2979    0.0000 N   0  0  0  0  0  0  0  0  0  0  0  0
   -1.4240   -0.8101    0.0000 C   0  0  0  0  0  0  0  0  0  0  0  0
   -1.3613    0.0079    0.0000 N   0  0  0  0  0  0  0  0  0  0  0  0
   -0.6155    0.3635    0.0000 C   0  0  1  0  0  0  0  0  0  0  0  0
   -0.7489   -1.2764    0.0000 N   0  0  0  0  0  0  0  0  0  0  0  0
    0.0000   -0.9223    0.0000 C   0  0  1  0  0  0  0  0  0  0  0  0
    0.6100   -2.2119    0.0000 C   0  0  0  0  0  0  0  0  0  0  0  0
   -0.1388   -2.5661    0.0000 C   0  0  0  0  0  0  0  0  0  0  0  0
   -0.8242   -2.0964    0.0000 C   0  0  0  0  0  0  0  0  0  0  0  0
    1.3532   -1.8664    0.0000 O   0  0  0  0  0  0  0  0  0  0  0  0
    0.9671   -2.9561    0.0000 O   0  0  0  0  0  0  0  0  0  0  0  0
    2.1660    0.2521    0.0000 N   0  0  0  0  0  0  0  0  0  0  0  0
   -0.7177   -0.4534    0.0000 H   0  0  0  0  0  0  0  0  0  0  0  0
   -2.1660   -1.1639    0.0000 N   0  0  0  0  0  0  0  0  0  0  0  0
   -2.0423    0.4737    0.0000 O   0  0  0  0  0  0  0  0  0  0  0  0
   -0.5429    1.1830    0.0000 C   0  0  0  0  0  0  0  0  0  0  0  0
   -1.2168    1.6589    0.0000 O   0  0  0  0  0  0  0  0  0  0  0  0
   -1.1403    2.4803    0.0000 C   0  0  0  0  0  0  0  0  0  0  0  0
   -1.8142    2.9561    0.0000 N   0  0  0  0  0  0  0  0  0  0  0  0
   -0.3898    2.8259    0.0000 O   0  0  0  0  0  0  0  0  0  0  0  0
    1.7629   -1.8201    0.0000 H   0  0  0  0  0  0  0  0  0  0  0  0
   -1.4943    0.9739    0.0000 H   0  0  0  0  0  0  0  0  0  0  0  0
   -0.2238   -3.6327    0.0000 H   0  0  0  0  0  0  0  0  0  0  0  0
   -1.1045   -3.0269    0.0000 H   0  0  0  0  0  0  0  0  0  0  0  0
   -1.7926   -2.5514    0.0000 H   0  0  0  0  0  0  0  0  0  0  0  0
   -1.7003   -1.4821    0.0000 H   0  0  0  0  0  0  0  0  0  0  0  0
    2.1201   -2.4047    0.0000 H   0  0  0  0  0  0  0  0  0  0  0  0
    0.4382   -3.7295    0.0000 H   0  0  0  0  0  0  0  0  0  0  0  0
    3.0018   -0.2682    0.0000 H   0  0  0  0  0  0  0  0  0  0  0  0
    2.1987    1.2361    0.0000 H   0  0  0  0  0  0  0  0  0  0  0  0
   -2.9773   -0.6062    0.0000 H   0  0  0  0  0  0  0  0  0  0  0  0
   -1.9684    1.4409    0.0000 H   0  0  0  0  0  0  0  0  0  0  0  0
    0.4280    1.6327    0.0000 H   0  0  0  0  0  0  0  0  0  0  0  0
   -0.4462    2.2486    0.0000 H   0  0  0  0  0  0  0  0  0  0  0  0
   -1.7246    3.9365    0.0000 H   0  0  0  0  0  0  0  0  0  0  0  0
   -2.7081    2.5435    0.0000 H   0  0  0  0  0  0  0  0  0  0  0  0
  1 15  1  0  0  0  0
  1  2  1  0  0  0  0
  2 24  1  0  0  0  0
  3 16  1  1  0  0  0
  3  4  1  0  0  0  0
  4  1  2  0  0  0  0
  5  6  1  0  0  0  0
  5 17  2  0  0  0  0
  6  7  1  0  0  0  0
  6 18  1  0  0  0  0
  7  3  1  0  0  0  0
  7 19  1  0  0  0  0
  7 25  1  6  0  0  0
  8  5  1  0  0  0  0
  8  9  1  0  0  0  0
  9 10  1  1  0  0  0
  9  3  1  0  0  0  0
  9  2  1  0  0  0  0
 10 11  1  0  0  0  0
 10 13  1  0  0  0  0
 10 14  1  0  0  0  0
 11 12  1  0  0  0  0
 11 26  1  0  0  0  0
 11 27  1  0  0  0  0
 12  8  1  0  0  0  0
 12 28  1  0  0  0  0
 12 29  1  0  0  0  0
 13 30  1  0  0  0  0
 14 31  1  0  0  0  0
 15 32  1  0  0  0  0
 15 33  1  0  0  0  0
 17 34  1  0  0  0  0
 18 35  1  0  0  0  0
 19 20  1  0  0  0  0
 19 36  1  0  0  0  0
 19 37  1  0  0  0  0
 20 21  1  0  0  0  0
 21 22  1  0  0  0  0
 21 23  2  0  0  0  0
 22 38  1  0  0  0  0
 22 39  1  0  0  0  0
M  END
>  <DRUGBANK_ID>
DB12989

>  <COMMON_NAME>
Neosaxitoxin

>  <CAS_NUMBER>
64296-20-4

>  <UNII>
6YRL8BWD9H

$$$$
