446816
 OpenBabel10282417072D

 40 41  0  0  0  0  0  0  0  0999 V2000
    1.6991    4.1420    0.0000 Cl  0  0  0  0  0  0  0  0  0  0  0  0
    3.7829    1.2112    0.0000 O   0  0  0  0  0  0  0  0  0  0  0  0
    4.7934    0.0822    0.0000 N   0  0  0  0  0  0  0  0  0  0  0  0
    5.4609   -0.4027    0.0000 N   0  0  0  0  0  0  0  0  0  0  0  0
    3.3414   -0.1478    0.0000 N   0  0  0  0  0  0  0  0  0  0  0  0
    2.3852    0.9141    0.0000 N   0  0  0  0  0  0  0  0  0  0  0  0
    5.6908   -1.8548    0.0000 C   0  0  0  0  0  0  0  0  0  0  0  0
    5.2059   -1.1873    0.0000 C   0  0  0  0  0  0  0  0  0  0  0  0
    6.1758   -2.5222    0.0000 C   0  0  0  0  0  0  0  0  0  0  0  0
    5.0234   -2.3397    0.0000 C   0  0  0  0  0  0  0  0  0  0  0  0
    6.3583   -1.3699    0.0000 C   0  0  0  0  0  0  0  0  0  0  0  0
    4.3809   -1.1873    0.0000 C   0  0  0  0  0  0  0  0  0  0  0  0
    4.1260   -0.4027    0.0000 C   0  0  0  0  0  0  0  0  0  0  0  0
    4.7934    0.9072    0.0000 C   0  0  0  0  0  0  0  0  0  0  0  0
    3.1698    0.6592    0.0000 C   0  0  0  0  0  0  0  0  0  0  0  0
    2.2137    1.7211    0.0000 C   0  0  0  0  0  0  0  0  0  0  0  0
    1.4291    1.9760    0.0000 C   0  0  0  0  0  0  0  0  0  0  0  0
    2.8268    2.2731    0.0000 C   0  0  0  0  0  0  0  0  0  0  0  0
    1.2575    2.7830    0.0000 C   0  0  0  0  0  0  0  0  0  0  0  0
    2.6553    3.0801    0.0000 C   0  0  0  0  0  0  0  0  0  0  0  0
    1.8706    3.3351    0.0000 C   0  0  0  0  0  0  0  0  0  0  0  0
    2.6098   -0.8066    0.0000 H   0  0  0  0  0  0  0  0  0  0  0  0
    1.6536    0.2553    0.0000 H   0  0  0  0  0  0  0  0  0  0  0  0
    5.7407   -3.4997    0.0000 H   0  0  0  0  0  0  0  0  0  0  0  0
    7.2399   -2.4102    0.0000 H   0  0  0  0  0  0  0  0  0  0  0  0
    6.8048   -3.3878    0.0000 H   0  0  0  0  0  0  0  0  0  0  0  0
    4.0459   -1.9045    0.0000 H   0  0  0  0  0  0  0  0  0  0  0  0
    5.1353   -3.4038    0.0000 H   0  0  0  0  0  0  0  0  0  0  0  0
    4.1578   -2.9686    0.0000 H   0  0  0  0  0  0  0  0  0  0  0  0
    7.3358   -1.8052    0.0000 H   0  0  0  0  0  0  0  0  0  0  0  0
    6.2465   -0.3058    0.0000 H   0  0  0  0  0  0  0  0  0  0  0  0
    7.2240   -0.7410    0.0000 H   0  0  0  0  0  0  0  0  0  0  0  0
    3.7743   -2.0222    0.0000 H   0  0  0  0  0  0  0  0  0  0  0  0
    5.7200    1.4422    0.0000 H   0  0  0  0  0  0  0  0  0  0  0  0
    3.8668    1.4422    0.0000 H   0  0  0  0  0  0  0  0  0  0  0  0
    4.7934    1.9772    0.0000 H   0  0  0  0  0  0  0  0  0  0  0  0
    0.6622    1.2854    0.0000 H   0  0  0  0  0  0  0  0  0  0  0  0
    3.8083    1.9542    0.0000 H   0  0  0  0  0  0  0  0  0  0  0  0
    0.2760    3.1018    0.0000 H   0  0  0  0  0  0  0  0  0  0  0  0
    3.4223    3.7706    0.0000 H   0  0  0  0  0  0  0  0  0  0  0  0
  1 21  1  0  0  0  0
  2 15  2  0  0  0  0
  3  4  1  0  0  0  0
  3 13  1  0  0  0  0
  3 14  1  0  0  0  0
  4  8  2  0  0  0  0
  5 13  1  0  0  0  0
  5 15  1  0  0  0  0
  5 22  1  0  0  0  0
  6 15  1  0  0  0  0
  6 16  1  0  0  0  0
  6 23  1  0  0  0  0
  7  8  1  0  0  0  0
  7  9  1  0  0  0  0
  7 10  1  0  0  0  0
  7 11  1  0  0  0  0
  8 12  1  0  0  0  0
  9 24  1  0  0  0  0
  9 25  1  0  0  0  0
  9 26  1  0  0  0  0
 10 27  1  0  0  0  0
 10 28  1  0  0  0  0
 10 29  1  0  0  0  0
 11 30  1  0  0  0  0
 11 31  1  0  0  0  0
 11 32  1  0  0  0  0
 12 13  2  0  0  0  0
 12 33  1  0  0  0  0
 14 34  1  0  0  0  0
 14 35  1  0  0  0  0
 14 36  1  0  0  0  0
 16 17  2  0  0  0  0
 16 18  1  0  0  0  0
 17 19  1  0  0  0  0
 17 37  1  0  0  0  0
 18 20  2  0  0  0  0
 18 38  1  0  0  0  0
 19 21  2  0  0  0  0
 19 39  1  0  0  0  0
 20 21  1  0  0  0  0
 20 40  1  0  0  0  0
M  END
>  <DRUGBANK_ID>
DB02277

>  <SECONDARY_ACCESSION_NUMBERS>
EXPT00726

>  <COMMON_NAME>
1-(5-Tert-Butyl-2-Methyl-2h-Pyrazol-3-Yl)-3-(4-Chloro-Phenyl)-Urea

$$$$
