
 OpenBabel10282417072D

 56 55  0  0  1  0  0  0  0  0999 V2000
    0.9098    0.5658    0.0000 C   0  0  0  0  0  0  0  0  0  0  0  0
    0.0776    0.5621    0.0000 C   0  0  0  0  0  0  0  0  0  0  0  0
    1.6345    0.9874    0.0000 C   0  0  2  0  0  0  0  0  0  0  0  0
   -0.6509    0.9874    0.0000 C   0  0  0  0  0  0  0  0  0  0  0  0
    2.3631    0.5732    0.0000 C   0  0  0  0  0  0  0  0  0  0  0  0
    1.6271    1.8306    0.0000 O   0  0  0  0  0  0  0  0  0  0  0  0
   -1.3536    0.5843    0.0000 C   0  0  0  0  0  0  0  0  0  0  0  0
    3.0843    0.9985    0.0000 C   0  0  0  0  0  0  0  0  0  0  0  0
   -2.0599    0.9874    0.0000 C   0  0  0  0  0  0  0  0  0  0  0  0
    3.8128    0.5806    0.0000 C   0  0  0  0  0  0  0  0  0  0  0  0
   -2.7588    0.5880    0.0000 C   0  0  0  0  0  0  0  0  0  0  0  0
    4.5339    1.0059    0.0000 C   0  0  0  0  0  0  0  0  0  0  0  0
   -3.5687    0.5917    0.0000 C   0  0  1  0  0  0  0  0  0  0  0  0
    5.2661    0.5917    0.0000 O   0  0  0  0  0  0  0  0  0  0  0  0
    4.5265    1.8454    0.0000 O   0  0  0  0  0  0  0  0  0  0  0  0
   -4.2196   -0.7988    0.0000 C   0  0  0  0  0  0  0  0  0  0  0  0
   -3.5761    1.4756    0.0000 O   0  0  0  0  0  0  0  0  0  0  0  0
   -3.5650   -2.1967    0.0000 C   0  0  0  0  0  0  0  0  0  0  0  0
   -2.7514   -2.1930    0.0000 C   0  0  0  0  0  0  0  0  0  0  0  0
   -2.0561   -1.7825    0.0000 C   0  0  0  0  0  0  0  0  0  0  0  0
   -1.3462   -2.1856    0.0000 C   0  0  0  0  0  0  0  0  0  0  0  0
   -0.6471   -1.7751    0.0000 C   0  0  0  0  0  0  0  0  0  0  0  0
    0.0666   -2.1745    0.0000 C   0  0  0  0  0  0  0  0  0  0  0  0
    0.6471   -1.6457    0.0000 C   0  0  0  0  0  0  0  0  0  0  0  0
    1.1808   -0.4300    0.0000 H   0  0  0  0  0  0  0  0  0  0  0  0
   -0.1897   -0.4347    0.0000 H   0  0  0  0  0  0  0  0  0  0  0  0
    0.7046    1.5168    0.0000 H   0  0  0  0  0  0  0  0  0  0  0  0
   -0.6470    2.0194    0.0000 H   0  0  0  0  0  0  0  0  0  0  0  0
    2.3716   -0.4968    0.0000 H   0  0  0  0  0  0  0  0  0  0  0  0
    3.2943    0.0462    0.0000 H   0  0  0  0  0  0  0  0  0  0  0  0
    2.4629    2.3230    0.0000 H   0  0  0  0  0  0  0  0  0  0  0  0
   -1.3525   -0.4477    0.0000 H   0  0  0  0  0  0  0  0  0  0  0  0
    3.0779    2.0685    0.0000 H   0  0  0  0  0  0  0  0  0  0  0  0
    4.0086    1.5376    0.0000 H   0  0  0  0  0  0  0  0  0  0  0  0
   -2.0602    2.0194    0.0000 H   0  0  0  0  0  0  0  0  0  0  0  0
    3.8193   -0.4894    0.0000 H   0  0  0  0  0  0  0  0  0  0  0  0
    4.7435    0.0527    0.0000 H   0  0  0  0  0  0  0  0  0  0  0  0
   -2.4962   -0.4100    0.0000 H   0  0  0  0  0  0  0  0  0  0  0  0
   -2.8135    1.3497    0.0000 H   0  0  0  0  0  0  0  0  0  0  0  0
    5.2743   -0.3453    0.0000 H   0  0  0  0  0  0  0  0  0  0  0  0
   -5.2896   -0.7989    0.0000 H   0  0  0  0  0  0  0  0  0  0  0  0
   -4.7938   -1.7017    0.0000 H   0  0  0  0  0  0  0  0  0  0  0  0
   -2.7401    1.9676    0.0000 H   0  0  0  0  0  0  0  0  0  0  0  0
   -4.1168   -3.0688    0.0000 H   0  0  0  0  0  0  0  0  0  0  0  0
   -2.4772   -3.1879    0.0000 H   0  0  0  0  0  0  0  0  0  0  0  0
   -2.0651   -0.7125    0.0000 H   0  0  0  0  0  0  0  0  0  0  0  0
   -1.1337   -1.2403    0.0000 H   0  0  0  0  0  0  0  0  0  0  0  0
   -1.3384   -3.2556    0.0000 H   0  0  0  0  0  0  0  0  0  0  0  0
   -0.4157   -2.7138    0.0000 H   0  0  0  0  0  0  0  0  0  0  0  0
   -0.6582   -0.7052    0.0000 H   0  0  0  0  0  0  0  0  0  0  0  0
    0.2731   -1.2291    0.0000 H   0  0  0  0  0  0  0  0  0  0  0  0
    0.1886   -3.2375    0.0000 H   0  0  0  0  0  0  0  0  0  0  0  0
    1.0685   -2.5503    0.0000 H   0  0  0  0  0  0  0  0  0  0  0  0
    1.6666   -1.9705    0.0000 H   0  0  0  0  0  0  0  0  0  0  0  0
    0.4186   -0.6004    0.0000 H   0  0  0  0  0  0  0  0  0  0  0  0
    1.4381   -0.9251    0.0000 H   0  0  0  0  0  0  0  0  0  0  0  0
  1  2  2  0  0  0  0
  1  3  1  0  0  0  0
  1 25  1  0  0  0  0
  2  4  1  0  0  0  0
  2 26  1  0  0  0  0
  3  5  1  0  0  0  0
  3  6  1  0  0  0  0
  3 27  1  6  0  0  0
  4  7  2  0  0  0  0
  4 28  1  0  0  0  0
  5  8  1  0  0  0  0
  5 29  1  0  0  0  0
  5 30  1  0  0  0  0
  6 31  1  0  0  0  0
  7  9  1  0  0  0  0
  7 32  1  0  0  0  0
  8 10  1  0  0  0  0
  8 33  1  0  0  0  0
  8 34  1  0  0  0  0
  9 11  2  0  0  0  0
  9 35  1  0  0  0  0
 10 12  1  0  0  0  0
 10 36  1  0  0  0  0
 10 37  1  0  0  0  0
 11 13  1  0  0  0  0
 11 38  1  0  0  0  0
 12 14  1  0  0  0  0
 12 15  2  0  0  0  0
 13 16  1  0  0  0  0
 13 17  1  0  0  0  0
 13 39  1  6  0  0  0
 14 40  1  0  0  0  0
 16 18  1  0  0  0  0
 16 41  1  0  0  0  0
 16 42  1  0  0  0  0
 17 43  1  0  0  0  0
 18 19  2  0  0  0  0
 18 44  1  0  0  0  0
 19 20  1  0  0  0  0
 19 45  1  0  0  0  0
 20 21  1  0  0  0  0
 20 46  1  0  0  0  0
 20 47  1  0  0  0  0
 21 22  1  0  0  0  0
 21 48  1  0  0  0  0
 21 49  1  0  0  0  0
 22 23  1  0  0  0  0
 22 50  1  0  0  0  0
 22 51  1  0  0  0  0
 23 24  1  0  0  0  0
 23 52  1  0  0  0  0
 23 53  1  0  0  0  0
 24 54  1  0  0  0  0
 24 55  1  0  0  0  0
 24 56  1  0  0  0  0
M  END
>  <DRUGBANK_ID>
DB12961

>  <COMMON_NAME>
Leukotriene B4

>  <CAS_NUMBER>
71160-24-2

>  <UNII>
1HGW4DR56D

>  <SYNONYMS>
LTB4

$$$$
