
 OpenBabel10282417072D

 84 87  0  0  1  0  0  0  0  0999 V2000
   -1.9412   -4.4022    0.0000 H   0  0  0  0  0  0  0  0  0  0  0  0
   -1.6862   -3.6175    0.0000 C   0  0  2  0  0  0  0  0  0  0  0  0
   -1.2737   -2.9031    0.0000 C   0  0  0  0  0  0  0  0  0  0  0  0
   -0.4667   -3.0746    0.0000 C   0  0  0  0  0  0  0  0  0  0  0  0
   -0.3805   -3.8951    0.0000 C   0  0  2  0  0  0  0  0  0  0  0  0
    0.3340   -4.3076    0.0000 O   0  0  0  0  0  0  0  0  0  0  0  0
    1.0484   -3.8951    0.0000 C   0  0  0  0  0  0  0  0  0  0  0  0
    1.0484   -3.0701    0.0000 O   0  0  0  0  0  0  0  0  0  0  0  0
    1.7629   -4.3076    0.0000 C   0  0  0  0  0  0  0  0  0  0  0  0
    2.4774   -3.8951    0.0000 C   0  0  0  0  0  0  0  0  0  0  0  0
    3.1918   -4.3076    0.0000 C   0  0  0  0  0  0  0  0  0  0  0  0
    3.9063   -3.8951    0.0000 C   0  0  0  0  0  0  0  0  0  0  0  0
    4.6208   -4.3076    0.0000 C   0  0  0  0  0  0  0  0  0  0  0  0
    5.3353   -3.8951    0.0000 C   0  0  0  0  0  0  0  0  0  0  0  0
    6.0497   -4.3076    0.0000 C   0  0  0  0  0  0  0  0  0  0  0  0
    6.7642   -3.8951    0.0000 C   0  0  0  0  0  0  0  0  0  0  0  0
    7.4787   -4.3076    0.0000 C   0  0  0  0  0  0  0  0  0  0  0  0
    8.1931   -3.8951    0.0000 C   0  0  0  0  0  0  0  0  0  0  0  0
   -1.1342   -4.2306    0.0000 C   0  0  2  0  0  0  0  0  0  0  0  0
   -0.5211   -4.7827    0.0000 C   0  0  0  0  0  0  0  0  0  0  0  0
   -1.3891   -5.0152    0.0000 C   0  0  0  0  0  0  0  0  0  0  0  0
   -2.1961   -5.1868    0.0000 C   0  0  2  0  0  0  0  0  0  0  0  0
   -2.4510   -5.9714    0.0000 C   0  0  0  0  0  0  0  0  0  0  0  0
   -2.7481   -4.5737    0.0000 C   0  0  2  0  0  0  0  0  0  0  0  0
   -3.3002   -3.9606    0.0000 H   0  0  0  0  0  0  0  0  0  0  0  0
   -3.5551   -4.7452    0.0000 C   0  0  1  0  0  0  0  0  0  0  0  0
   -3.0031   -5.3583    0.0000 H   0  0  0  0  0  0  0  0  0  0  0  0
   -3.8100   -5.5298    0.0000 C   0  0  0  0  0  0  0  0  0  0  0  0
   -4.6170   -5.7014    0.0000 C   0  0  0  0  0  0  0  0  0  0  0  0
   -5.1690   -5.0883    0.0000 C   0  0  0  0  0  0  0  0  0  0  0  0
   -5.9760   -5.2598    0.0000 O   0  0  0  0  0  0  0  0  0  0  0  0
   -4.9141   -4.3036    0.0000 C   0  0  0  0  0  0  0  0  0  0  0  0
   -4.1071   -4.1321    0.0000 C   0  0  0  0  0  0  0  0  0  0  0  0
   -3.8522   -3.3475    0.0000 C   0  0  0  0  0  0  0  0  0  0  0  0
   -3.0452   -3.1760    0.0000 C   0  0  1  0  0  0  0  0  0  0  0  0
   -2.7903   -2.3913    0.0000 C   0  0  0  0  0  0  0  0  0  0  0  0
   -2.4932   -3.7891    0.0000 C   0  0  1  0  0  0  0  0  0  0  0  0
   -2.2382   -3.0044    0.0000 H   0  0  0  0  0  0  0  0  0  0  0  0
   -1.7089   -1.9256    0.0000 H   0  0  0  0  0  0  0  0  0  0  0  0
   -0.6003   -2.0715    0.0000 H   0  0  0  0  0  0  0  0  0  0  0  0
    0.3285   -2.3586    0.0000 H   0  0  0  0  0  0  0  0  0  0  0  0
    0.5322   -3.4581    0.0000 H   0  0  0  0  0  0  0  0  0  0  0  0
    0.5169   -3.3123    0.0000 H   0  0  0  0  0  0  0  0  0  0  0  0
    1.7629   -5.3776    0.0000 H   0  0  0  0  0  0  0  0  0  0  0  0
    2.6895   -4.8426    0.0000 H   0  0  0  0  0  0  0  0  0  0  0  0
    2.4774   -2.8251    0.0000 H   0  0  0  0  0  0  0  0  0  0  0  0
    3.4041   -3.3601    0.0000 H   0  0  0  0  0  0  0  0  0  0  0  0
    3.1918   -5.3776    0.0000 H   0  0  0  0  0  0  0  0  0  0  0  0
    4.1184   -4.8426    0.0000 H   0  0  0  0  0  0  0  0  0  0  0  0
    3.9063   -2.8251    0.0000 H   0  0  0  0  0  0  0  0  0  0  0  0
    4.8329   -3.3601    0.0000 H   0  0  0  0  0  0  0  0  0  0  0  0
    4.6208   -5.3776    0.0000 H   0  0  0  0  0  0  0  0  0  0  0  0
    5.5474   -4.8426    0.0000 H   0  0  0  0  0  0  0  0  0  0  0  0
    5.3353   -2.8251    0.0000 H   0  0  0  0  0  0  0  0  0  0  0  0
    6.2620   -3.3601    0.0000 H   0  0  0  0  0  0  0  0  0  0  0  0
    6.0497   -5.3776    0.0000 H   0  0  0  0  0  0  0  0  0  0  0  0
    6.9763   -4.8426    0.0000 H   0  0  0  0  0  0  0  0  0  0  0  0
    6.7642   -2.8251    0.0000 H   0  0  0  0  0  0  0  0  0  0  0  0
    7.6908   -3.3601    0.0000 H   0  0  0  0  0  0  0  0  0  0  0  0
    7.4787   -5.3776    0.0000 H   0  0  0  0  0  0  0  0  0  0  0  0
    8.4054   -4.8426    0.0000 H   0  0  0  0  0  0  0  0  0  0  0  0
    9.1198   -4.4301    0.0000 H   0  0  0  0  0  0  0  0  0  0  0  0
    8.1931   -2.8251    0.0000 H   0  0  0  0  0  0  0  0  0  0  0  0
    9.1197   -3.3601    0.0000 H   0  0  0  0  0  0  0  0  0  0  0  0
   -0.7436   -5.8293    0.0000 H   0  0  0  0  0  0  0  0  0  0  0  0
    0.4965   -4.4521    0.0000 H   0  0  0  0  0  0  0  0  0  0  0  0
    0.2740   -5.4987    0.0000 H   0  0  0  0  0  0  0  0  0  0  0  0
   -0.6731   -5.8103    0.0000 H   0  0  0  0  0  0  0  0  0  0  0  0
   -1.7197   -6.0329    0.0000 H   0  0  0  0  0  0  0  0  0  0  0  0
   -1.4801   -5.9819    0.0000 H   0  0  0  0  0  0  0  0  0  0  0  0
   -3.4976   -6.1939    0.0000 H   0  0  0  0  0  0  0  0  0  0  0  0
   -1.7350   -6.7665    0.0000 H   0  0  0  0  0  0  0  0  0  0  0  0
   -2.7816   -6.9890    0.0000 H   0  0  0  0  0  0  0  0  0  0  0  0
   -3.0940   -6.3249    0.0000 H   0  0  0  0  0  0  0  0  0  0  0  0
   -4.1406   -6.5475    0.0000 H   0  0  0  0  0  0  0  0  0  0  0  0
   -4.9476   -6.7190    0.0000 H   0  0  0  0  0  0  0  0  0  0  0  0
   -5.6636   -5.9239    0.0000 H   0  0  0  0  0  0  0  0  0  0  0  0
   -5.6047   -3.5367    0.0000 H   0  0  0  0  0  0  0  0  0  0  0  0
   -4.5682   -2.5523    0.0000 H   0  0  0  0  0  0  0  0  0  0  0  0
   -3.5215   -2.3299    0.0000 H   0  0  0  0  0  0  0  0  0  0  0  0
   -3.7612   -2.3808    0.0000 H   0  0  0  0  0  0  0  0  0  0  0  0
   -1.7437   -2.1688    0.0000 H   0  0  0  0  0  0  0  0  0  0  0  0
   -3.5063   -1.5962    0.0000 H   0  0  0  0  0  0  0  0  0  0  0  0
   -2.4597   -1.3736    0.0000 H   0  0  0  0  0  0  0  0  0  0  0  0
  2  1  1  1  0  0  0
  2  3  1  0  0  0  0
  2 19  1  0  0  0  0
  3  4  1  0  0  0  0
  3 39  1  0  0  0  0
  3 40  1  0  0  0  0
  4 41  1  0  0  0  0
  4 42  1  0  0  0  0
  5  4  1  0  0  0  0
  5  6  1  0  0  0  0
  5 43  1  1  0  0  0
  6  7  1  0  0  0  0
  7  8  2  0  0  0  0
  7  9  1  0  0  0  0
  9 10  1  0  0  0  0
  9 44  1  0  0  0  0
  9 45  1  0  0  0  0
 10 11  1  0  0  0  0
 10 46  1  0  0  0  0
 10 47  1  0  0  0  0
 11 12  1  0  0  0  0
 11 48  1  0  0  0  0
 11 49  1  0  0  0  0
 12 13  1  0  0  0  0
 12 50  1  0  0  0  0
 12 51  1  0  0  0  0
 13 14  1  0  0  0  0
 13 52  1  0  0  0  0
 13 53  1  0  0  0  0
 14 15  1  0  0  0  0
 14 54  1  0  0  0  0
 14 55  1  0  0  0  0
 15 16  1  0  0  0  0
 15 56  1  0  0  0  0
 15 57  1  0  0  0  0
 16 17  1  0  0  0  0
 16 58  1  0  0  0  0
 16 59  1  0  0  0  0
 17 18  1  0  0  0  0
 17 60  1  0  0  0  0
 17 61  1  0  0  0  0
 18 62  1  0  0  0  0
 18 63  1  0  0  0  0
 18 64  1  0  0  0  0
 19  5  1  0  0  0  0
 19 20  1  6  0  0  0
 19 21  1  0  0  0  0
 20 65  1  0  0  0  0
 20 66  1  0  0  0  0
 20 67  1  0  0  0  0
 21 68  1  0  0  0  0
 21 69  1  0  0  0  0
 22 21  1  0  0  0  0
 22 23  1  0  0  0  0
 22 70  1  1  0  0  0
 23 71  1  0  0  0  0
 23 72  1  0  0  0  0
 23 73  1  0  0  0  0
 24 22  1  0  0  0  0
 24 25  1  1  0  0  0
 24 26  1  0  0  0  0
 24 37  1  0  0  0  0
 26 27  1  6  0  0  0
 26 28  1  0  0  0  0
 26 33  1  0  0  0  0
 28 29  1  0  0  0  0
 28 74  1  0  0  0  0
 28 75  1  0  0  0  0
 29 30  1  0  0  0  0
 29 76  1  0  0  0  0
 29 77  1  0  0  0  0
 30 31  2  0  0  0  0
 30 32  1  0  0  0  0
 32 33  2  0  0  0  0
 32 78  1  0  0  0  0
 33 34  1  0  0  0  0
 34 79  1  0  0  0  0
 34 80  1  0  0  0  0
 35 34  1  0  0  0  0
 35 36  1  0  0  0  0
 35 81  1  6  0  0  0
 36 82  1  0  0  0  0
 36 83  1  0  0  0  0
 36 84  1  0  0  0  0
 37 35  1  0  0  0  0
 37  2  1  0  0  0  0
 37 38  1  6  0  0  0
M  END
>  <DRUGBANK_ID>
DB16141

>  <COMMON_NAME>
Dimethandrolone Undecanoate

>  <CAS_NUMBER>
366472-45-9

>  <UNII>
VMT7Z23GLM

$$$$
