
 OpenBabel10282417072D

 87 90  0  0  1  0  0  0  0  0999 V2000
   -2.1434   -1.2375    0.0000 C   0  0  0  0  0  0  0  0  0  0  0  0
    0.7145   -2.8875    0.0000 C   0  0  0  0  0  0  0  0  0  0  0  0
   -2.1434   -2.8875    0.0000 C   0  0  0  0  0  0  0  0  0  0  0  0
   -0.7145   -3.7125    0.0000 C   0  0  0  0  0  0  0  0  0  0  0  0
   -2.8579   -1.6500    0.0000 C   0  0  2  0  0  0  0  0  0  0  0  0
    1.4289   -2.4750    0.0000 C   0  0  2  0  0  0  0  0  0  0  0  0
   -2.1434   -3.7125    0.0000 C   0  0  2  0  0  0  0  0  0  0  0  0
    0.0000   -4.1250    0.0000 C   0  0  2  0  0  0  0  0  0  0  0  0
   -3.5724   -1.2375    0.0000 C   0  0  2  0  0  0  0  0  0  0  0  0
   -4.2868   -1.6500    0.0000 C   0  0  1  0  0  0  0  0  0  0  0  0
    2.8579   -2.4750    0.0000 C   0  0  2  0  0  0  0  0  0  0  0  0
   -2.8579   -4.9500    0.0000 C   0  0  2  0  0  0  0  0  0  0  0  0
    0.7145   -5.3625    0.0000 C   0  0  2  0  0  0  0  0  0  0  0  0
    2.8579   -1.6500    0.0000 C   0  0  2  0  0  0  0  0  0  0  0  0
   -4.2868   -2.4750    0.0000 C   0  0  2  0  0  0  0  0  0  0  0  0
    1.4289   -4.9500    0.0000 C   0  0  2  0  0  0  0  0  0  0  0  0
   -2.1434   -5.3625    0.0000 C   0  0  2  0  0  0  0  0  0  0  0  0
    2.1434   -2.8875    0.0000 C   0  0  2  0  0  0  0  0  0  0  0  0
   -2.8579   -4.1250    0.0000 C   0  0  2  0  0  0  0  0  0  0  0  0
    0.0000   -4.9500    0.0000 C   0  0  2  0  0  0  0  0  0  0  0  0
    2.1434   -1.2375    0.0000 C   0  0  2  0  0  0  0  0  0  0  0  0
   -3.5724   -2.8875    0.0000 C   0  0  1  0  0  0  0  0  0  0  0  0
    1.4289   -4.1250    0.0000 C   0  0  1  0  0  0  0  0  0  0  0  0
   -1.4289   -4.9500    0.0000 C   0  0  1  0  0  0  0  0  0  0  0  0
   -2.1434   -0.4125    0.0000 O   0  0  0  0  0  0  0  0  0  0  0  0
   -0.0000   -2.4750    0.0000 O   0  0  0  0  0  0  0  0  0  0  0  0
   -1.4289   -2.4750    0.0000 O   0  0  0  0  0  0  0  0  0  0  0  0
   -0.7145   -2.8875    0.0000 O   0  0  0  0  0  0  0  0  0  0  0  0
   -3.5724   -0.4125    0.0000 O   0  0  0  0  0  0  0  0  0  0  0  0
   -5.0013   -1.2375    0.0000 O   0  0  0  0  0  0  0  0  0  0  0  0
    3.5724   -2.8875    0.0000 O   0  0  0  0  0  0  0  0  0  0  0  0
   -3.5724   -5.3625    0.0000 O   0  0  0  0  0  0  0  0  0  0  0  0
    0.7145   -6.1875    0.0000 O   0  0  0  0  0  0  0  0  0  0  0  0
    3.5724   -1.2375    0.0000 O   0  0  0  0  0  0  0  0  0  0  0  0
   -5.0013   -2.8875    0.0000 O   0  0  0  0  0  0  0  0  0  0  0  0
    2.1434   -5.3625    0.0000 O   0  0  0  0  0  0  0  0  0  0  0  0
   -2.1434   -6.1875    0.0000 O   0  0  0  0  0  0  0  0  0  0  0  0
    2.1434   -0.4125    0.0000 O   0  0  0  0  0  0  0  0  0  0  0  0
    1.4289   -1.6500    0.0000 O   0  0  0  0  0  0  0  0  0  0  0  0
   -2.8579   -2.4750    0.0000 O   0  0  0  0  0  0  0  0  0  0  0  0
    0.7145   -3.7125    0.0000 O   0  0  0  0  0  0  0  0  0  0  0  0
   -1.4289   -4.1250    0.0000 O   0  0  0  0  0  0  0  0  0  0  0  0
    2.1434   -3.7125    0.0000 O   0  0  0  0  0  0  0  0  0  0  0  0
   -3.5724   -3.7125    0.0000 O   0  0  0  0  0  0  0  0  0  0  0  0
   -0.7145   -5.3625    0.0000 O   0  0  0  0  0  0  0  0  0  0  0  0
   -3.1401   -0.8748    0.0000 H   0  0  0  0  0  0  0  0  0  0  0  0
    1.7111   -3.2502    0.0000 H   0  0  0  0  0  0  0  0  0  0  0  0
   -2.9559   -3.5692    0.0000 H   0  0  0  0  0  0  0  0  0  0  0  0
   -0.5303   -4.7570    0.0000 H   0  0  0  0  0  0  0  0  0  0  0  0
   -3.0421   -0.6055    0.0000 H   0  0  0  0  0  0  0  0  0  0  0  0
   -4.2868   -0.8250    0.0000 H   0  0  0  0  0  0  0  0  0  0  0  0
    3.3882   -1.8430    0.0000 H   0  0  0  0  0  0  0  0  0  0  0  0
   -2.5757   -5.7252    0.0000 H   0  0  0  0  0  0  0  0  0  0  0  0
    1.5269   -5.5058    0.0000 H   0  0  0  0  0  0  0  0  0  0  0  0
    3.6704   -1.7933    0.0000 H   0  0  0  0  0  0  0  0  0  0  0  0
   -5.0013   -2.0625    0.0000 H   0  0  0  0  0  0  0  0  0  0  0  0
    1.7111   -5.7252    0.0000 H   0  0  0  0  0  0  0  0  0  0  0  0
   -2.6737   -5.9945    0.0000 H   0  0  0  0  0  0  0  0  0  0  0  0
    1.6131   -3.5195    0.0000 H   0  0  0  0  0  0  0  0  0  0  0  0
   -3.1401   -3.3498    0.0000 H   0  0  0  0  0  0  0  0  0  0  0  0
   -0.8125   -4.8067    0.0000 H   0  0  0  0  0  0  0  0  0  0  0  0
    2.8579   -0.8250    0.0000 H   0  0  0  0  0  0  0  0  0  0  0  0
   -4.2868   -3.3000    0.0000 H   0  0  0  0  0  0  0  0  0  0  0  0
    2.1434   -4.5375    0.0000 H   0  0  0  0  0  0  0  0  0  0  0  0
   -1.4289   -5.7750    0.0000 H   0  0  0  0  0  0  0  0  0  0  0  0
   -1.2168   -1.7725    0.0000 H   0  0  0  0  0  0  0  0  0  0  0  0
   -1.2168   -0.7025    0.0000 H   0  0  0  0  0  0  0  0  0  0  0  0
    0.7145   -3.9575    0.0000 H   0  0  0  0  0  0  0  0  0  0  0  0
   -0.2121   -3.4225    0.0000 H   0  0  0  0  0  0  0  0  0  0  0  0
   -3.0700   -2.3525    0.0000 H   0  0  0  0  0  0  0  0  0  0  0  0
   -2.1434   -1.8175    0.0000 H   0  0  0  0  0  0  0  0  0  0  0  0
   -1.6411   -4.2475    0.0000 H   0  0  0  0  0  0  0  0  0  0  0  0
   -1.6411   -3.1775    0.0000 H   0  0  0  0  0  0  0  0  0  0  0  0
   -1.3034    0.0725    0.0000 H   0  0  0  0  0  0  0  0  0  0  0  0
   -0.0000   -1.5050    0.0000 H   0  0  0  0  0  0  0  0  0  0  0  0
   -0.5889   -2.9600    0.0000 H   0  0  0  0  0  0  0  0  0  0  0  0
    0.1255   -2.4025    0.0000 H   0  0  0  0  0  0  0  0  0  0  0  0
   -2.7324    0.0725    0.0000 H   0  0  0  0  0  0  0  0  0  0  0  0
   -5.0013   -0.2675    0.0000 H   0  0  0  0  0  0  0  0  0  0  0  0
    3.5724   -3.8575    0.0000 H   0  0  0  0  0  0  0  0  0  0  0  0
   -4.4124   -4.8775    0.0000 H   0  0  0  0  0  0  0  0  0  0  0  0
   -0.1255   -6.6725    0.0000 H   0  0  0  0  0  0  0  0  0  0  0  0
    4.4124   -1.7225    0.0000 H   0  0  0  0  0  0  0  0  0  0  0  0
   -5.8413   -2.4025    0.0000 H   0  0  0  0  0  0  0  0  0  0  0  0
    2.1434   -6.3325    0.0000 H   0  0  0  0  0  0  0  0  0  0  0  0
   -2.9834   -6.6725    0.0000 H   0  0  0  0  0  0  0  0  0  0  0  0
    2.9834    0.0725    0.0000 H   0  0  0  0  0  0  0  0  0  0  0  0
  1 66  1  0  0  0  0
  1 67  1  0  0  0  0
  2 68  1  0  0  0  0
  2 69  1  0  0  0  0
  3 70  1  0  0  0  0
  3 71  1  0  0  0  0
  4 72  1  0  0  0  0
  4 73  1  0  0  0  0
  5  1  1  0  0  0  0
  5 46  1  6  0  0  0
  6  2  1  0  0  0  0
  6 47  1  6  0  0  0
  7  3  1  0  0  0  0
  7 48  1  6  0  0  0
  8  4  1  0  0  0  0
  8 49  1  6  0  0  0
  9  5  1  0  0  0  0
  9 29  1  0  0  0  0
  9 50  1  1  0  0  0
 10  9  1  0  0  0  0
 10 30  1  0  0  0  0
 10 51  1  6  0  0  0
 11 31  1  0  0  0  0
 11 52  1  6  0  0  0
 12 32  1  0  0  0  0
 12 53  1  6  0  0  0
 13 33  1  0  0  0  0
 13 54  1  6  0  0  0
 14 11  1  0  0  0  0
 14 34  1  0  0  0  0
 14 55  1  1  0  0  0
 15 10  1  0  0  0  0
 15 35  1  0  0  0  0
 15 56  1  1  0  0  0
 16 13  1  0  0  0  0
 16 36  1  0  0  0  0
 16 57  1  1  0  0  0
 17 12  1  0  0  0  0
 17 37  1  0  0  0  0
 17 58  1  1  0  0  0
 18  6  1  0  0  0  0
 18 11  1  0  0  0  0
 18 43  1  0  0  0  0
 18 59  1  1  0  0  0
 19  7  1  0  0  0  0
 19 12  1  0  0  0  0
 19 44  1  0  0  0  0
 19 60  1  1  0  0  0
 20  8  1  0  0  0  0
 20 13  1  0  0  0  0
 20 45  1  0  0  0  0
 20 61  1  1  0  0  0
 21 14  1  0  0  0  0
 21 38  1  0  0  0  0
 21 62  1  6  0  0  0
 22 15  1  0  0  0  0
 22 44  1  0  0  0  0
 22 63  1  6  0  0  0
 23 16  1  0  0  0  0
 23 43  1  0  0  0  0
 23 64  1  6  0  0  0
 24 17  1  0  0  0  0
 24 45  1  0  0  0  0
 24 65  1  6  0  0  0
 25  1  1  0  0  0  0
 25 74  1  0  0  0  0
 26  2  1  0  0  0  0
 26 75  1  0  0  0  0
 27  3  1  0  0  0  0
 27 76  1  0  0  0  0
 28  4  1  0  0  0  0
 28 77  1  0  0  0  0
 29 78  1  0  0  0  0
 30 79  1  0  0  0  0
 31 80  1  0  0  0  0
 32 81  1  0  0  0  0
 33 82  1  0  0  0  0
 34 83  1  0  0  0  0
 35 84  1  0  0  0  0
 36 85  1  0  0  0  0
 37 86  1  0  0  0  0
 38 87  1  0  0  0  0
 39  6  1  0  0  0  0
 39 21  1  0  0  0  0
 40  5  1  0  0  0  0
 40 22  1  0  0  0  0
 41  8  1  0  0  0  0
 41 23  1  0  0  0  0
 42  7  1  0  0  0  0
 42 24  1  0  0  0  0
M  END
>  <DRUGBANK_ID>
DB02717

>  <SECONDARY_ACCESSION_NUMBERS>
EXPT01056

>  <COMMON_NAME>
Cellotetraose

>  <CAS_NUMBER>
38819-01-1

$$$$
