F1J
 OpenBabel10282417072D

 40 41  0  0  0  0  0  0  0  0999 V2000
    1.4462    0.6337    0.0000 C   0  0  0  0  0  0  0  0  0  0  0  0
   -3.5551    0.2212    0.0000 C   0  0  0  0  0  0  0  0  0  0  0  0
   -2.8406    0.6337    0.0000 C   0  0  0  0  0  0  0  0  0  0  0  0
   -3.5551   -0.6038    0.0000 C   0  0  0  0  0  0  0  0  0  0  0  0
   -2.8406   -1.0163    0.0000 C   0  0  0  0  0  0  0  0  0  0  0  0
   -2.1261   -0.6038    0.0000 C   0  0  0  0  0  0  0  0  0  0  0  0
   -2.1261    0.2212    0.0000 C   0  0  0  0  0  0  0  0  0  0  0  0
   -1.4117    0.6337    0.0000 C   0  0  0  0  0  0  0  0  0  0  0  0
    0.0173    0.6337    0.0000 C   0  0  0  0  0  0  0  0  0  0  0  0
    0.7317    0.2212    0.0000 C   0  0  2  0  0  0  0  0  0  0  0  0
   -0.6972   -0.6038    0.0000 C   0  0  0  0  0  0  0  0  0  0  0  0
    0.0173   -1.0163    0.0000 C   0  0  0  0  0  0  0  0  0  0  0  0
    1.4462    1.4587    0.0000 O   0  0  0  0  0  0  0  0  0  0  0  0
    2.1607    0.2212    0.0000 N   0  0  0  0  0  0  0  0  0  0  0  0
    2.8752    0.6337    0.0000 C   0  0  0  0  0  0  0  0  0  0  0  0
    3.5896    0.2212    0.0000 C   0  0  0  0  0  0  0  0  0  0  0  0
    4.3041    0.6337    0.0000 S   0  0  0  0  0  0  0  0  0  0  0  0
    0.7317   -0.6038    0.0000 N   0  0  0  0  0  0  0  0  0  0  0  0
   -0.6972    0.2212    0.0000 N   0  0  0  0  0  0  0  0  0  0  0  0
   -4.2695   -1.0163    0.0000 F   0  0  0  0  0  0  0  0  0  0  0  0
    0.7317    0.8051    0.0000 H   0  0  0  0  0  0  0  0  0  0  0  0
   -4.4488    0.7372    0.0000 H   0  0  0  0  0  0  0  0  0  0  0  0
   -2.8406    1.6657    0.0000 H   0  0  0  0  0  0  0  0  0  0  0  0
   -2.8406   -2.0483    0.0000 H   0  0  0  0  0  0  0  0  0  0  0  0
   -1.2324   -1.1198    0.0000 H   0  0  0  0  0  0  0  0  0  0  0  0
   -1.4117    1.7037    0.0000 H   0  0  0  0  0  0  0  0  0  0  0  0
   -0.4851    1.1687    0.0000 H   0  0  0  0  0  0  0  0  0  0  0  0
    0.0173    1.7037    0.0000 H   0  0  0  0  0  0  0  0  0  0  0  0
   -0.9093    1.1687    0.0000 H   0  0  0  0  0  0  0  0  0  0  0  0
   -1.6238   -1.1388    0.0000 H   0  0  0  0  0  0  0  0  0  0  0  0
   -1.6238   -0.0688    0.0000 H   0  0  0  0  0  0  0  0  0  0  0  0
    0.0173   -2.0863    0.0000 H   0  0  0  0  0  0  0  0  0  0  0  0
    0.9440   -1.5513    0.0000 H   0  0  0  0  0  0  0  0  0  0  0  0
    2.1607   -0.7633    0.0000 H   0  0  0  0  0  0  0  0  0  0  0  0
    2.8752    1.7037    0.0000 H   0  0  0  0  0  0  0  0  0  0  0  0
    3.8019    1.1687    0.0000 H   0  0  0  0  0  0  0  0  0  0  0  0
    3.5896   -0.8488    0.0000 H   0  0  0  0  0  0  0  0  0  0  0  0
    4.5162   -0.3138    0.0000 H   0  0  0  0  0  0  0  0  0  0  0  0
    5.4819   -0.0463    0.0000 H   0  0  0  0  0  0  0  0  0  0  0  0
    1.6151   -1.1138    0.0000 H   0  0  0  0  0  0  0  0  0  0  0  0
  1 13  2  0  0  0  0
  1 14  1  0  0  0  0
  2  3  2  0  0  0  0
  2  4  1  0  0  0  0
  2 22  1  0  0  0  0
  3  7  1  0  0  0  0
  3 23  1  0  0  0  0
  4  5  2  0  0  0  0
  4 20  1  0  0  0  0
  5  6  1  0  0  0  0
  5 24  1  0  0  0  0
  6  7  2  0  0  0  0
  6 25  1  0  0  0  0
  7  8  1  0  0  0  0
  8 19  1  0  0  0  0
  8 26  1  0  0  0  0
  8 27  1  0  0  0  0
  9 10  1  0  0  0  0
  9 19  1  0  0  0  0
  9 28  1  0  0  0  0
  9 29  1  0  0  0  0
 10  1  1  0  0  0  0
 10 18  1  0  0  0  0
 10 21  1  6  0  0  0
 11 12  1  0  0  0  0
 11 19  1  0  0  0  0
 11 30  1  0  0  0  0
 11 31  1  0  0  0  0
 12 18  1  0  0  0  0
 12 32  1  0  0  0  0
 12 33  1  0  0  0  0
 14 15  1  0  0  0  0
 14 34  1  0  0  0  0
 15 16  1  0  0  0  0
 15 35  1  0  0  0  0
 15 36  1  0  0  0  0
 16 17  1  0  0  0  0
 16 37  1  0  0  0  0
 16 38  1  0  0  0  0
 17 39  1  0  0  0  0
 18 40  1  0  0  0  0
M  END
>  <DRUGBANK_ID>
DB07736

>  <COMMON_NAME>
(2S)-4-(4-fluorobenzyl)-N-(2-sulfanylethyl)piperazine-2-carboxamide

$$$$
