
 OpenBabel10282417072D

 33 34  0  0  0  0  0  0  0  0999 V2000
    1.0346    2.0594    0.0000 P   0  0  0  0  0  0  0  0  0  0  0  0
    1.0491   -2.0644    0.0000 P   0  0  0  0  0  0  0  0  0  0  0  0
    0.3271    0.8190    0.0000 C   0  0  0  0  0  0  0  0  0  0  0  0
    0.3367   -0.8335    0.0000 C   0  0  0  0  0  0  0  0  0  0  0  0
   -0.3803    0.4022    0.0000 C   0  0  0  0  0  0  0  0  0  0  0  0
   -0.3803   -0.4216    0.0000 C   0  0  0  0  0  0  0  0  0  0  0  0
    0.3222    1.6427    0.0000 O   0  0  0  0  0  0  0  0  0  0  0  0
    0.3367   -1.6573    0.0000 O   0  0  0  0  0  0  0  0  0  0  0  0
    1.0443    0.4119    0.0000 C   0  0  0  0  0  0  0  0  0  0  0  0
    1.0491   -0.4167    0.0000 C   0  0  0  0  0  0  0  0  0  0  0  0
    1.7954    1.6719    0.0000 O   0  0  0  0  0  0  0  0  0  0  0  0
    1.4369    2.7768    0.0000 O   0  0  0  0  0  0  0  0  0  0  0  0
    1.8050   -1.6331    0.0000 O   0  0  0  0  0  0  0  0  0  0  0  0
    1.4950   -2.7525    0.0000 O   0  0  0  0  0  0  0  0  0  0  0  0
    0.6178    2.7768    0.0000 O   0  0  0  0  0  0  0  0  0  0  0  0
    0.6323   -2.7768    0.0000 O   0  0  0  0  0  0  0  0  0  0  0  0
   -1.0927    0.8141    0.0000 C   0  0  0  0  0  0  0  0  0  0  0  0
    1.7567    0.8286    0.0000 C   0  0  0  0  0  0  0  0  0  0  0  0
   -1.0927   -0.8383    0.0000 C   0  0  0  0  0  0  0  0  0  0  0  0
   -1.8050    0.4022    0.0000 C   0  0  0  0  0  0  0  0  0  0  0  0
   -1.8050   -0.4264    0.0000 C   0  0  0  0  0  0  0  0  0  0  0  0
    1.9458   -0.9275    0.0000 H   0  0  0  0  0  0  0  0  0  0  0  0
    1.8463    0.7032    0.0000 H   0  0  0  0  0  0  0  0  0  0  0  0
    2.4068    2.7889    0.0000 H   0  0  0  0  0  0  0  0  0  0  0  0
    2.6426   -2.1224    0.0000 H   0  0  0  0  0  0  0  0  0  0  0  0
    1.0538   -3.6163    0.0000 H   0  0  0  0  0  0  0  0  0  0  0  0
   -1.0927    1.8461    0.0000 H   0  0  0  0  0  0  0  0  0  0  0  0
    2.6864    0.2989    0.0000 H   0  0  0  0  0  0  0  0  0  0  0  0
    1.7506    1.8986    0.0000 H   0  0  0  0  0  0  0  0  0  0  0  0
    2.6803    1.3688    0.0000 H   0  0  0  0  0  0  0  0  0  0  0  0
   -1.0901   -1.8703    0.0000 H   0  0  0  0  0  0  0  0  0  0  0  0
   -2.6989    0.9179    0.0000 H   0  0  0  0  0  0  0  0  0  0  0  0
   -2.6989   -0.9421    0.0000 H   0  0  0  0  0  0  0  0  0  0  0  0
  2  8  1  0  0  0  0
  3  7  1  0  0  0  0
  4  6  1  0  0  0  0
  5  3  1  0  0  0  0
  6  5  1  0  0  0  0
  7  1  1  0  0  0  0
  8  4  1  0  0  0  0
  9  3  2  0  0  0  0
 10  9  1  0  0  0  0
 10  4  2  0  0  0  0
 10 22  1  0  0  0  0
 11  1  1  0  0  0  0
 11 23  1  0  0  0  0
 12  1  1  0  0  0  0
 12 24  1  0  0  0  0
 13  2  1  0  0  0  0
 13 25  1  0  0  0  0
 14  2  1  0  0  0  0
 14 26  1  0  0  0  0
 15  1  2  0  0  0  0
 16  2  2  0  0  0  0
 17  5  2  0  0  0  0
 17 27  1  0  0  0  0
 18  9  1  0  0  0  0
 18 28  1  0  0  0  0
 18 29  1  0  0  0  0
 18 30  1  0  0  0  0
 19  6  2  0  0  0  0
 19 31  1  0  0  0  0
 20 17  1  0  0  0  0
 20 32  1  0  0  0  0
 21 19  1  0  0  0  0
 21 20  2  0  0  0  0
 21 33  1  0  0  0  0
M  END
>  <DRUGBANK_ID>
DB14650

>  <SECONDARY_ACCESSION_NUMBERS>
DBSALT000878

>  <COMMON_NAME>
Menadiol diphosphate

>  <CAS_NUMBER>
84-98-0

>  <UNII>
GRL65FEU3T

>  <SYNONYMS>
2-methyl-1,4-naphthalenediol diphosphate; Menadiol bis(dihydrogen phosphate); Menadiol phosphate

$$$$
