
 OpenBabel10282417072D

 48 51  0  0  0  0  0  0  0  0999 V2000
   13.4653   -4.3776    0.0000 C   0  0  0  0  0  0  0  0  0  0  0  0
   13.4653   -3.5495    0.0000 C   0  0  0  0  0  0  0  0  0  0  0  0
   14.8966   -3.5495    0.0000 C   0  0  0  0  0  0  0  0  0  0  0  0
   14.1767   -4.7895    0.0000 N   0  0  0  0  0  0  0  0  0  0  0  0
   12.7413   -4.7895    0.0000 N   0  0  0  0  0  0  0  0  0  0  0  0
   11.2767   -4.8019    0.0000 N   0  0  0  0  0  0  0  0  0  0  0  0
   14.1767   -3.1293    0.0000 C   0  0  0  0  0  0  0  0  0  0  0  0
   12.0381   -4.3776    0.0000 C   0  0  0  0  0  0  0  0  0  0  0  0
   14.8966   -4.3776    0.0000 C   0  0  0  0  0  0  0  0  0  0  0  0
    9.9453   -4.7895    0.0000 C   0  0  0  0  0  0  0  0  0  0  0  0
   12.7413   -3.1293    0.0000 C   0  0  0  0  0  0  0  0  0  0  0  0
   14.1767   -5.6132    0.0000 C   0  0  0  0  0  0  0  0  0  0  0  0
   10.1949   -5.5758    0.0000 C   0  0  3  0  0  0  0  0  0  0  0  0
   15.6205   -3.1376    0.0000 C   0  0  0  0  0  0  0  0  0  0  0  0
   12.0381   -3.5495    0.0000 C   0  0  0  0  0  0  0  0  0  0  0  0
   10.6068   -4.3026    0.0000 C   0  0  0  0  0  0  0  0  0  0  0  0
   11.0188   -5.5758    0.0000 C   0  0  0  0  0  0  0  0  0  0  0  0
   13.7732   -6.3248    0.0000 C   0  0  0  0  0  0  0  0  0  0  0  0
   14.5886   -6.3248    0.0000 C   0  0  0  0  0  0  0  0  0  0  0  0
    9.1671   -4.5273    0.0000 N   0  0  0  0  0  0  0  0  0  0  0  0
   14.1767   -2.3055    0.0000 O   0  0  0  0  0  0  0  0  0  0  0  0
   15.6205   -2.3138    0.0000 O   0  0  0  0  0  0  0  0  0  0  0  0
   11.3141   -3.1376    0.0000 F   0  0  0  0  0  0  0  0  0  0  0  0
   16.3237   -3.5495    0.0000 O   0  0  0  0  0  0  0  0  0  0  0  0
    9.7039   -6.2374    0.0000 C   0  0  0  0  0  0  0  0  0  0  0  0
   10.0284   -6.9864    0.0000 N   0  0  0  0  0  0  0  0  0  0  0  0
    8.9536   -3.7304    0.0000 O   0  0  0  0  0  0  0  0  0  0  0  0
    8.1567   -3.5168    0.0000 C   0  0  0  0  0  0  0  0  0  0  0  0
   15.7893   -4.8953    0.0000 H   0  0  0  0  0  0  0  0  0  0  0  0
   12.7347   -2.0973    0.0000 H   0  0  0  0  0  0  0  0  0  0  0  0
   14.1815   -6.6832    0.0000 H   0  0  0  0  0  0  0  0  0  0  0  0
   10.6758   -6.5316    0.0000 H   0  0  0  0  0  0  0  0  0  0  0  0
   10.6100   -3.2326    0.0000 H   0  0  0  0  0  0  0  0  0  0  0  0
   11.5638   -3.8241    0.0000 H   0  0  0  0  0  0  0  0  0  0  0  0
   11.6445   -6.4438    0.0000 H   0  0  0  0  0  0  0  0  0  0  0  0
   12.0766   -5.4144    0.0000 H   0  0  0  0  0  0  0  0  0  0  0  0
   12.8486   -6.8634    0.0000 H   0  0  0  0  0  0  0  0  0  0  0  0
   14.0521   -7.3578    0.0000 H   0  0  0  0  0  0  0  0  0  0  0  0
   15.5155   -6.8593    0.0000 H   0  0  0  0  0  0  0  0  0  0  0  0
   14.3120   -7.3584    0.0000 H   0  0  0  0  0  0  0  0  0  0  0  0
   16.3178   -4.4865    0.0000 H   0  0  0  0  0  0  0  0  0  0  0  0
    8.6409   -6.1148    0.0000 H   0  0  0  0  0  0  0  0  0  0  0  0
    9.0663   -7.0967    0.0000 H   0  0  0  0  0  0  0  0  0  0  0  0
    9.4206   -7.8055    0.0000 H   0  0  0  0  0  0  0  0  0  0  0  0
   11.0417   -7.1032    0.0000 H   0  0  0  0  0  0  0  0  0  0  0  0
    7.8798   -2.4832    0.0000 H   0  0  0  0  0  0  0  0  0  0  0  0
    7.4000   -4.2733    0.0000 H   0  0  0  0  0  0  0  0  0  0  0  0
    7.1232   -3.2398    0.0000 H   0  0  0  0  0  0  0  0  0  0  0  0
  2  1  2  0  0  0  0
  3  9  2  0  0  0  0
  4  1  1  0  0  0  0
  5  1  1  0  0  0  0
  6  8  1  0  0  0  0
  7  2  1  0  0  0  0
  7  3  1  0  0  0  0
  8  5  2  0  0  0  0
  9  4  1  0  0  0  0
  9 29  1  0  0  0  0
 10 16  1  0  0  0  0
 11  2  1  0  0  0  0
 11 15  2  0  0  0  0
 11 30  1  0  0  0  0
 12  4  1  0  0  0  0
 12 31  1  0  0  0  0
 13 17  1  0  0  0  0
 13 10  1  0  0  0  0
 13 32  1  0  0  0  0
 14  3  1  0  0  0  0
 15  8  1  0  0  0  0
 16  6  1  0  0  0  0
 16 33  1  0  0  0  0
 16 34  1  0  0  0  0
 17  6  1  0  0  0  0
 17 35  1  0  0  0  0
 17 36  1  0  0  0  0
 18 12  1  0  0  0  0
 18 37  1  0  0  0  0
 18 38  1  0  0  0  0
 19 12  1  0  0  0  0
 19 18  1  0  0  0  0
 19 39  1  0  0  0  0
 19 40  1  0  0  0  0
 20 10  2  0  0  0  0
 20 27  1  0  0  0  0
 21  7  2  0  0  0  0
 22 14  2  0  0  0  0
 23 15  1  0  0  0  0
 24 14  1  0  0  0  0
 24 41  1  0  0  0  0
 25 13  1  0  0  0  0
 25 42  1  0  0  0  0
 25 43  1  0  0  0  0
 26 25  1  0  0  0  0
 26 44  1  0  0  0  0
 26 45  1  0  0  0  0
 27 28  1  0  0  0  0
 28 46  1  0  0  0  0
 28 47  1  0  0  0  0
 28 48  1  0  0  0  0
M  END
>  <DRUGBANK_ID>
DB01155

>  <SECONDARY_ACCESSION_NUMBERS>
APRD00053

>  <COMMON_NAME>
Gemifloxacin

>  <CAS_NUMBER>
175463-14-6

>  <UNII>
OKR68Y0E4T

>  <SYNONYMS>
Gemifloxacin

$$$$
