
 OpenBabel10282417072D

 49 53  0  0  0  0  0  0  0  0999 V2000
    4.7199   -2.4989    0.0000 C   0  0  0  0  0  0  0  0  0  0  0  0
    3.9129   -2.6704    0.0000 C   0  0  0  0  0  0  0  0  0  0  0  0
    3.6580   -3.4550    0.0000 C   0  0  0  0  0  0  0  0  0  0  0  0
    2.8510   -3.6266    0.0000 C   0  0  0  0  0  0  0  0  0  0  0  0
    2.2990   -3.0135    0.0000 C   0  0  0  0  0  0  0  0  0  0  0  0
    1.4920   -3.1850    0.0000 C   0  0  0  0  0  0  0  0  0  0  0  0
    1.2371   -3.9696    0.0000 N   0  0  0  0  0  0  0  0  0  0  0  0
    0.4301   -4.1411    0.0000 C   0  0  0  0  0  0  0  0  0  0  0  0
    0.1751   -4.9258    0.0000 C   0  0  0  0  0  0  0  0  0  0  0  0
   -0.6318   -5.0973    0.0000 C   0  0  0  0  0  0  0  0  0  0  0  0
   -1.1839   -4.4842    0.0000 C   0  0  0  0  0  0  0  0  0  0  0  0
   -0.9289   -3.6996    0.0000 C   0  0  0  0  0  0  0  0  0  0  0  0
   -1.4810   -3.0865    0.0000 Cl  0  0  0  0  0  0  0  0  0  0  0  0
   -0.1219   -3.5280    0.0000 C   0  0  0  0  0  0  0  0  0  0  0  0
    0.1330   -2.7434    0.0000 F   0  0  0  0  0  0  0  0  0  0  0  0
    0.9400   -2.5719    0.0000 N   0  0  0  0  0  0  0  0  0  0  0  0
    1.1949   -1.7873    0.0000 C   0  0  0  0  0  0  0  0  0  0  0  0
    2.0019   -1.6157    0.0000 C   0  0  0  0  0  0  0  0  0  0  0  0
    2.5539   -2.2288    0.0000 C   0  0  0  0  0  0  0  0  0  0  0  0
    3.3609   -2.0573    0.0000 C   0  0  0  0  0  0  0  0  0  0  0  0
    3.6158   -1.2727    0.0000 N   0  0  0  0  0  0  0  0  0  0  0  0
    4.4228   -1.1012    0.0000 C   0  0  0  0  0  0  0  0  0  0  0  0
    4.9748   -1.7143    0.0000 O   0  0  0  0  0  0  0  0  0  0  0  0
    4.6777   -0.3165    0.0000 C   0  0  0  0  0  0  0  0  0  0  0  0
    4.1928    0.3509    0.0000 C   0  0  0  0  0  0  0  0  0  0  0  0
    4.6777    1.0183    0.0000 S   0  0  0  0  0  0  0  0  0  0  0  0
    5.4623    0.7634    0.0000 C   0  0  0  0  0  0  0  0  0  0  0  0
    6.1768    1.1759    0.0000 C   0  0  0  0  0  0  0  0  0  0  0  0
    6.1768    2.0009    0.0000 N   0  0  0  0  0  0  0  0  0  0  0  0
    6.8913    0.7634    0.0000 N   0  0  0  0  0  0  0  0  0  0  0  0
    6.8913   -0.0616    0.0000 C   0  0  0  0  0  0  0  0  0  0  0  0
    6.1768   -0.4741    0.0000 N   0  0  0  0  0  0  0  0  0  0  0  0
    5.4623   -0.0616    0.0000 C   0  0  0  0  0  0  0  0  0  0  0  0
    5.4358   -3.2941    0.0000 H   0  0  0  0  0  0  0  0  0  0  0  0
    5.0506   -1.4813    0.0000 H   0  0  0  0  0  0  0  0  0  0  0  0
    5.7665   -2.2765    0.0000 H   0  0  0  0  0  0  0  0  0  0  0  0
    4.3486   -4.2219    0.0000 H   0  0  0  0  0  0  0  0  0  0  0  0
    2.5321   -4.6081    0.0000 H   0  0  0  0  0  0  0  0  0  0  0  0
    1.8959   -4.7012    0.0000 H   0  0  0  0  0  0  0  0  0  0  0  0
    0.8656   -5.6927    0.0000 H   0  0  0  0  0  0  0  0  0  0  0  0
   -0.9507   -6.0788    0.0000 H   0  0  0  0  0  0  0  0  0  0  0  0
   -2.1934   -4.6988    0.0000 H   0  0  0  0  0  0  0  0  0  0  0  0
    0.5043   -1.0204    0.0000 H   0  0  0  0  0  0  0  0  0  0  0  0
    2.3208   -0.6342    0.0000 H   0  0  0  0  0  0  0  0  0  0  0  0
    2.9570   -0.5411    0.0000 H   0  0  0  0  0  0  0  0  0  0  0  0
    3.1608    0.3509    0.0000 H   0  0  0  0  0  0  0  0  0  0  0  0
    7.0294    2.4931    0.0000 H   0  0  0  0  0  0  0  0  0  0  0  0
    5.3242    2.4931    0.0000 H   0  0  0  0  0  0  0  0  0  0  0  0
    7.7850   -0.5776    0.0000 H   0  0  0  0  0  0  0  0  0  0  0  0
  1  2  1  0  0  0  0
  1 34  1  0  0  0  0
  1 35  1  0  0  0  0
  1 36  1  0  0  0  0
  2  3  1  0  0  0  0
  2 20  2  0  0  0  0
  3  4  2  0  0  0  0
  3 37  1  0  0  0  0
  4  5  1  0  0  0  0
  4 38  1  0  0  0  0
  5  6  2  0  0  0  0
  5 19  1  0  0  0  0
  6  7  1  0  0  0  0
  6 16  1  0  0  0  0
  7  8  1  0  0  0  0
  7 39  1  0  0  0  0
  8  9  2  0  0  0  0
  8 14  1  0  0  0  0
  9 10  1  0  0  0  0
  9 40  1  0  0  0  0
 10 11  2  0  0  0  0
 10 41  1  0  0  0  0
 11 12  1  0  0  0  0
 11 42  1  0  0  0  0
 12 13  1  0  0  0  0
 12 14  2  0  0  0  0
 14 15  1  0  0  0  0
 16 17  2  0  0  0  0
 17 18  1  0  0  0  0
 17 43  1  0  0  0  0
 18 19  2  0  0  0  0
 18 44  1  0  0  0  0
 19 20  1  0  0  0  0
 20 21  1  0  0  0  0
 21 22  1  0  0  0  0
 21 45  1  0  0  0  0
 22 23  2  0  0  0  0
 22 24  1  0  0  0  0
 24 25  2  0  0  0  0
 24 33  1  0  0  0  0
 25 26  1  0  0  0  0
 25 46  1  0  0  0  0
 26 27  1  0  0  0  0
 27 28  2  0  0  0  0
 27 33  1  0  0  0  0
 28 29  1  0  0  0  0
 28 30  1  0  0  0  0
 29 47  1  0  0  0  0
 29 48  1  0  0  0  0
 30 31  2  0  0  0  0
 31 32  1  0  0  0  0
 31 49  1  0  0  0  0
 32 33  2  0  0  0  0
M  END
>  <DRUGBANK_ID>
DB17568

>  <COMMON_NAME>
Belvarafenib

>  <CAS_NUMBER>
1446113-23-0

>  <UNII>
31M3WLJ3KG

>  <SYNONYMS>
4-amino-n-(1-((3-chloro-2-fluorophenyl)amino)-6-methylisoquinolin-5-yl)thieno(3,2-d)pyrimidine-7-carboxamide; Belvarafenib; Thieno(3,2-d)pyrimidine-7-carboxamide, 4-amino-n-(1-((3-chloro-2-fluorophenyl)amino)-6-methyl-5-isoquinolinyl)-

$$$$
