
 OpenBabel10282417072D

 53 53  0  0  0  0  0  0  0  0999 V2000
   -1.7308    3.9187    0.0000 P   0  0  0  0  0  0  0  0  0  0  0  0
   -1.7308   -1.8562    0.0000 O   0  0  0  0  0  0  0  0  0  0  0  0
   -0.3019   -3.5062    0.0000 O   0  0  0  0  0  0  0  0  0  0  0  0
   -2.4454   -3.0937    0.0000 O   0  0  0  0  0  0  0  0  0  0  0  0
   -2.4454   -4.7437    0.0000 O   0  0  0  0  0  0  0  0  0  0  0  0
   -1.7308    4.7437    0.0000 O   0  0  0  0  0  0  0  0  0  0  0  0
   -2.5558    3.9187    0.0000 O   0  0  0  0  0  0  0  0  0  0  0  0
    1.1269    1.4437    0.0000 O   0  0  0  0  0  0  0  0  0  0  0  0
   -0.9058    3.9187    0.0000 O   0  0  0  0  0  0  0  0  0  0  0  0
    2.5558   -1.0312    0.0000 O   0  0  0  0  0  0  0  0  0  0  0  0
   -0.3019   -1.0312    0.0000 N   0  0  0  0  0  0  0  0  0  0  0  0
    1.1269   -1.0312    0.0000 N   0  0  0  0  0  0  0  0  0  0  0  0
    1.8414    0.2062    0.0000 N   0  0  0  0  0  0  0  0  0  0  0  0
   -1.0164   -2.2687    0.0000 C   0  0  2  0  0  0  0  0  0  0  0  0
   -1.0164   -3.0937    0.0000 C   0  0  1  0  0  0  0  0  0  0  0  0
   -0.3019    1.4437    0.0000 C   0  0  0  0  0  0  0  0  0  0  0  0
   -0.3019    0.6187    0.0000 C   0  0  0  0  0  0  0  0  0  0  0  0
   -1.0164    1.8562    0.0000 C   0  0  0  0  0  0  0  0  0  0  0  0
   -0.3019   -1.8562    0.0000 C   0  0  0  0  0  0  0  0  0  0  0  0
    0.4124    0.2062    0.0000 C   0  0  0  0  0  0  0  0  0  0  0  0
   -1.7308   -3.5062    0.0000 C   0  0  1  0  0  0  0  0  0  0  0  0
   -1.0164    2.6812    0.0000 C   0  0  0  0  0  0  0  0  0  0  0  0
    0.4124   -0.6187    0.0000 C   0  0  0  0  0  0  0  0  0  0  0  0
   -1.7308    3.0937    0.0000 C   0  0  0  0  0  0  0  0  0  0  0  0
   -1.7308   -4.3312    0.0000 C   0  0  0  0  0  0  0  0  0  0  0  0
    1.1269    0.6187    0.0000 C   0  0  0  0  0  0  0  0  0  0  0  0
    1.8414   -0.6187    0.0000 C   0  0  0  0  0  0  0  0  0  0  0  0
   -0.7449   -0.7755    0.0000 H   0  0  0  0  0  0  0  0  0  0  0  0
    1.1269   -1.5427    0.0000 H   0  0  0  0  0  0  0  0  0  0  0  0
    2.2843    0.4620    0.0000 H   0  0  0  0  0  0  0  0  0  0  0  0
   -1.7308   -0.8862    0.0000 H   0  0  0  0  0  0  0  0  0  0  0  0
   -0.3019   -4.4762    0.0000 H   0  0  0  0  0  0  0  0  0  0  0  0
   -2.4455   -2.1237    0.0000 H   0  0  0  0  0  0  0  0  0  0  0  0
   -3.2854   -4.2586    0.0000 H   0  0  0  0  0  0  0  0  0  0  0  0
   -0.8908    5.2287    0.0000 H   0  0  0  0  0  0  0  0  0  0  0  0
   -3.0408    4.7587    0.0000 H   0  0  0  0  0  0  0  0  0  0  0  0
   -1.9431   -2.8037    0.0000 H   0  0  0  0  0  0  0  0  0  0  0  0
   -0.0898   -2.5587    0.0000 H   0  0  0  0  0  0  0  0  0  0  0  0
    0.6247    1.9787    0.0000 H   0  0  0  0  0  0  0  0  0  0  0  0
   -0.3019    2.5137    0.0000 H   0  0  0  0  0  0  0  0  0  0  0  0
   -1.2286    0.0837    0.0000 H   0  0  0  0  0  0  0  0  0  0  0  0
   -0.3020   -0.4513    0.0000 H   0  0  0  0  0  0  0  0  0  0  0  0
   -1.9430    1.3212    0.0000 H   0  0  0  0  0  0  0  0  0  0  0  0
   -1.9430    2.3912    0.0000 H   0  0  0  0  0  0  0  0  0  0  0  0
    0.6247   -2.3912    0.0000 H   0  0  0  0  0  0  0  0  0  0  0  0
   -0.3019   -2.9262    0.0000 H   0  0  0  0  0  0  0  0  0  0  0  0
   -1.7309   -2.4362    0.0000 H   0  0  0  0  0  0  0  0  0  0  0  0
   -0.0897    3.2162    0.0000 H   0  0  0  0  0  0  0  0  0  0  0  0
   -1.0164    3.7512    0.0000 H   0  0  0  0  0  0  0  0  0  0  0  0
   -2.6575    2.5587    0.0000 H   0  0  0  0  0  0  0  0  0  0  0  0
   -1.7308    2.0237    0.0000 H   0  0  0  0  0  0  0  0  0  0  0  0
   -0.8042   -4.8662    0.0000 H   0  0  0  0  0  0  0  0  0  0  0  0
   -0.8041   -3.7962    0.0000 H   0  0  0  0  0  0  0  0  0  0  0  0
  1  6  1  0  0  0  0
  1  7  1  0  0  0  0
  1  9  2  0  0  0  0
  1 24  1  0  0  0  0
  2 31  1  0  0  0  0
  3 32  1  0  0  0  0
  4 33  1  0  0  0  0
  5 25  1  0  0  0  0
  5 34  1  0  0  0  0
  6 35  1  0  0  0  0
  7 36  1  0  0  0  0
  8 26  2  0  0  0  0
 10 27  2  0  0  0  0
 11 19  1  0  0  0  0
 11 23  1  0  0  0  0
 11 28  1  0  0  0  0
 12 23  1  0  0  0  0
 12 27  1  0  0  0  0
 12 29  1  0  0  0  0
 13 26  1  0  0  0  0
 13 27  1  0  0  0  0
 13 30  1  0  0  0  0
 14  2  1  0  0  0  0
 14 15  1  0  0  0  0
 14 19  1  0  0  0  0
 14 37  1  6  0  0  0
 15  3  1  0  0  0  0
 15 21  1  0  0  0  0
 15 38  1  1  0  0  0
 16 17  1  0  0  0  0
 16 18  1  0  0  0  0
 16 39  1  0  0  0  0
 16 40  1  0  0  0  0
 17 20  1  0  0  0  0
 17 41  1  0  0  0  0
 17 42  1  0  0  0  0
 18 22  1  0  0  0  0
 18 43  1  0  0  0  0
 18 44  1  0  0  0  0
 19 45  1  0  0  0  0
 19 46  1  0  0  0  0
 20 23  2  0  0  0  0
 20 26  1  0  0  0  0
 21  4  1  0  0  0  0
 21 25  1  0  0  0  0
 21 47  1  6  0  0  0
 22 24  1  0  0  0  0
 22 48  1  0  0  0  0
 22 49  1  0  0  0  0
 24 50  1  0  0  0  0
 24 51  1  0  0  0  0
 25 52  1  0  0  0  0
 25 53  1  0  0  0  0
M  END
>  <DRUGBANK_ID>
DB04266

>  <SECONDARY_ACCESSION_NUMBERS>
EXPT01888

>  <COMMON_NAME>
5-(6-D-ribitylamino-2,4-dihydroxypyrimidin-5-yl)-1-pentyl-phosphonic acid

$$$$
