BHB
 OpenBabel10282417072D

 39 40  0  0  0  0  0  0  0  0999 V2000
   -1.4763    2.3967    0.0000 N   0  0  0  0  0  0  0  0  0  0  0  0
   -1.4763    1.5717    0.0000 C   0  0  0  0  0  0  0  0  0  0  0  0
   -0.7618    1.1592    0.0000 C   0  0  0  0  0  0  0  0  0  0  0  0
   -0.7618    0.3342    0.0000 C   0  0  0  0  0  0  0  0  0  0  0  0
   -1.4763   -0.0783    0.0000 C   0  0  0  0  0  0  0  0  0  0  0  0
   -1.4763   -0.9033    0.0000 N   0  0  0  0  0  0  0  0  0  0  0  0
   -2.1908   -1.3158    0.0000 C   0  0  0  0  0  0  0  0  0  0  0  0
   -2.1908   -2.1408    0.0000 N   0  0  0  0  0  0  0  0  0  0  0  0
   -2.9052   -0.9033    0.0000 N   0  0  0  0  0  0  0  0  0  0  0  0
   -2.9052   -0.0783    0.0000 C   0  0  0  0  0  0  0  0  0  0  0  0
   -3.6197    0.3342    0.0000 O   0  0  0  0  0  0  0  0  0  0  0  0
   -2.1908    0.3342    0.0000 C   0  0  0  0  0  0  0  0  0  0  0  0
   -2.1908    1.1592    0.0000 C   0  0  0  0  0  0  0  0  0  0  0  0
   -0.0474   -0.0783    0.0000 C   0  0  0  0  0  0  0  0  0  0  0  0
    0.6671    0.3342    0.0000 S   0  0  0  0  0  0  0  0  0  0  0  0
    1.3816   -0.0783    0.0000 C   0  0  0  0  0  0  0  0  0  0  0  0
    2.0961    0.3342    0.0000 C   0  0  0  0  0  0  0  0  0  0  0  0
    2.8105   -0.0783    0.0000 N   0  0  0  0  0  0  0  0  0  0  0  0
    3.5250    0.3342    0.0000 C   0  0  0  0  0  0  0  0  0  0  0  0
    2.8105   -0.9033    0.0000 C   0  0  0  0  0  0  0  0  0  0  0  0
   -0.6237    2.8890    0.0000 H   0  0  0  0  0  0  0  0  0  0  0  0
   -2.3289    2.8889    0.0000 H   0  0  0  0  0  0  0  0  0  0  0  0
    0.1319    1.6752    0.0000 H   0  0  0  0  0  0  0  0  0  0  0  0
   -3.0434   -2.6331    0.0000 H   0  0  0  0  0  0  0  0  0  0  0  0
   -1.3382   -2.6330    0.0000 H   0  0  0  0  0  0  0  0  0  0  0  0
   -3.7578   -1.3955    0.0000 H   0  0  0  0  0  0  0  0  0  0  0  0
   -3.0845    1.6752    0.0000 H   0  0  0  0  0  0  0  0  0  0  0  0
   -0.0474   -1.1483    0.0000 H   0  0  0  0  0  0  0  0  0  0  0  0
    0.8792   -0.6133    0.0000 H   0  0  0  0  0  0  0  0  0  0  0  0
    1.3816   -1.1483    0.0000 H   0  0  0  0  0  0  0  0  0  0  0  0
    2.3082   -0.6133    0.0000 H   0  0  0  0  0  0  0  0  0  0  0  0
    2.0961    1.4042    0.0000 H   0  0  0  0  0  0  0  0  0  0  0  0
    3.0228    0.8692    0.0000 H   0  0  0  0  0  0  0  0  0  0  0  0
    4.4516   -0.2008    0.0000 H   0  0  0  0  0  0  0  0  0  0  0  0
    3.5250    1.4042    0.0000 H   0  0  0  0  0  0  0  0  0  0  0  0
    4.4517    0.8692    0.0000 H   0  0  0  0  0  0  0  0  0  0  0  0
    1.8839   -1.4383    0.0000 H   0  0  0  0  0  0  0  0  0  0  0  0
    3.7371   -1.4383    0.0000 H   0  0  0  0  0  0  0  0  0  0  0  0
    2.8105   -1.9733    0.0000 H   0  0  0  0  0  0  0  0  0  0  0  0
  1  2  1  0  0  0  0
  1 21  1  0  0  0  0
  1 22  1  0  0  0  0
  2  3  2  0  0  0  0
  2 13  1  0  0  0  0
  3  4  1  0  0  0  0
  3 23  1  0  0  0  0
  4  5  2  0  0  0  0
  4 14  1  0  0  0  0
  5  6  1  0  0  0  0
  5 12  1  0  0  0  0
  6  7  2  0  0  0  0
  7  8  1  0  0  0  0
  7  9  1  0  0  0  0
  8 24  1  0  0  0  0
  8 25  1  0  0  0  0
  9 10  1  0  0  0  0
  9 26  1  0  0  0  0
 10 11  2  0  0  0  0
 10 12  1  0  0  0  0
 12 13  2  0  0  0  0
 13 27  1  0  0  0  0
 14 15  1  0  0  0  0
 14 28  1  0  0  0  0
 14 29  1  0  0  0  0
 15 16  1  0  0  0  0
 16 17  1  0  0  0  0
 16 30  1  0  0  0  0
 16 31  1  0  0  0  0
 17 18  1  0  0  0  0
 17 32  1  0  0  0  0
 17 33  1  0  0  0  0
 18 19  1  0  0  0  0
 18 20  1  0  0  0  0
 19 34  1  0  0  0  0
 19 35  1  0  0  0  0
 19 36  1  0  0  0  0
 20 37  1  0  0  0  0
 20 38  1  0  0  0  0
 20 39  1  0  0  0  0
M  END
>  <DRUGBANK_ID>
DB04004

>  <SECONDARY_ACCESSION_NUMBERS>
EXPT00694

>  <COMMON_NAME>
2,6-Diamino-8-(2-Dimethylaminoethylsulfanylmethyl)-3h-Quinazolin-4-One

$$$$
