
 OpenBabel10282417072D

 53 57  0  0  0  0  0  0  0  0999 V2000
    6.5428   -1.4388    0.0000 N   0  0  0  0  0  0  0  0  0  0  0  0
    3.8235    0.9922    0.0000 N   0  0  0  0  0  0  0  0  0  0  0  0
    2.9558   -1.5086    0.0000 C   0  0  0  0  0  0  0  0  0  0  0  0
    4.4953   -1.0961    0.0000 C   0  0  3  0  0  0  0  0  0  0  0  0
    4.7088   -0.2992    0.0000 C   0  0  3  0  0  0  0  0  0  0  0  0
    2.2021   -1.1731    0.0000 C   0  0  0  0  0  0  0  0  0  0  0  0
    2.8695   -2.3292    0.0000 C   0  0  0  0  0  0  0  0  0  0  0  0
    5.9017   -1.9580    0.0000 C   0  0  0  0  0  0  0  0  0  0  0  0
    6.2472   -0.6686    0.0000 C   0  0  0  0  0  0  0  0  0  0  0  0
    3.4880    0.2384    0.0000 C   0  0  0  0  0  0  0  0  0  0  0  0
    4.6440    0.9059    0.0000 C   0  0  0  0  0  0  0  0  0  0  0  0
    1.6500   -1.7862    0.0000 C   0  0  0  0  0  0  0  0  0  0  0  0
    2.0625   -2.5007    0.0000 C   0  0  0  0  0  0  0  0  0  0  0  0
    7.3398   -1.6523    0.0000 C   0  0  0  0  0  0  0  0  0  0  0  0
    3.4110    1.7066    0.0000 C   0  0  0  0  0  0  0  0  0  0  0  0
    7.5533   -2.4492    0.0000 C   0  0  0  0  0  0  0  0  0  0  0  0
    3.8235    2.4211    0.0000 C   0  0  0  0  0  0  0  0  0  0  0  0
    8.1367   -3.0326    0.0000 C   0  0  0  0  0  0  0  0  0  0  0  0
    7.3398   -3.2461    0.0000 C   0  0  0  0  0  0  0  0  0  0  0  0
    3.8235    3.2461    0.0000 C   0  0  0  0  0  0  0  0  0  0  0  0
    4.5380    2.8336    0.0000 C   0  0  0  0  0  0  0  0  0  0  0  0
    4.3417   -2.1550    0.0000 H   0  0  0  0  0  0  0  0  0  0  0  0
    4.9047   -1.3511    0.0000 H   0  0  0  0  0  0  0  0  0  0  0  0
    1.9796   -0.1265    0.0000 H   0  0  0  0  0  0  0  0  0  0  0  0
    1.1686   -0.8961    0.0000 H   0  0  0  0  0  0  0  0  0  0  0  0
    3.6646   -3.0452    0.0000 H   0  0  0  0  0  0  0  0  0  0  0  0
    2.5925   -3.3627    0.0000 H   0  0  0  0  0  0  0  0  0  0  0  0
    5.9717   -3.0257    0.0000 H   0  0  0  0  0  0  0  0  0  0  0  0
    4.9857   -2.5111    0.0000 H   0  0  0  0  0  0  0  0  0  0  0  0
    6.9527    0.1358    0.0000 H   0  0  0  0  0  0  0  0  0  0  0  0
    5.9233    0.3512    0.0000 H   0  0  0  0  0  0  0  0  0  0  0  0
    2.4249    0.1168    0.0000 H   0  0  0  0  0  0  0  0  0  0  0  0
    3.0662   -0.7450    0.0000 H   0  0  0  0  0  0  0  0  0  0  0  0
    5.4197    1.6429    0.0000 H   0  0  0  0  0  0  0  0  0  0  0  0
    5.6382    0.5104    0.0000 H   0  0  0  0  0  0  0  0  0  0  0  0
    0.5859   -1.6743    0.0000 H   0  0  0  0  0  0  0  0  0  0  0  0
    1.0672   -2.6836    0.0000 H   0  0  0  0  0  0  0  0  0  0  0  0
    1.6273   -3.4782    0.0000 H   0  0  0  0  0  0  0  0  0  0  0  0
    0.9940   -2.5567    0.0000 H   0  0  0  0  0  0  0  0  0  0  0  0
    8.0964   -0.8957    0.0000 H   0  0  0  0  0  0  0  0  0  0  0  0
    8.3733   -1.9292    0.0000 H   0  0  0  0  0  0  0  0  0  0  0  0
    2.3410    1.7066    0.0000 H   0  0  0  0  0  0  0  0  0  0  0  0
    2.8760    2.6332    0.0000 H   0  0  0  0  0  0  0  0  0  0  0  0
    7.8303   -3.4827    0.0000 H   0  0  0  0  0  0  0  0  0  0  0  0
    4.3585    3.3477    0.0000 H   0  0  0  0  0  0  0  0  0  0  0  0
    9.1702   -3.3096    0.0000 H   0  0  0  0  0  0  0  0  0  0  0  0
    8.1367   -4.1026    0.0000 H   0  0  0  0  0  0  0  0  0  0  0  0
    6.5832   -4.0027    0.0000 H   0  0  0  0  0  0  0  0  0  0  0  0
    7.8748   -4.1728    0.0000 H   0  0  0  0  0  0  0  0  0  0  0  0
    3.2885    4.1727    0.0000 H   0  0  0  0  0  0  0  0  0  0  0  0
    4.5801    4.0027    0.0000 H   0  0  0  0  0  0  0  0  0  0  0  0
    5.6080    2.8336    0.0000 H   0  0  0  0  0  0  0  0  0  0  0  0
    4.8149    3.8671    0.0000 H   0  0  0  0  0  0  0  0  0  0  0  0
  1  8  1  0  0  0  0
  1  9  1  0  0  0  0
  1 14  1  0  0  0  0
  2 10  1  0  0  0  0
  2 11  1  0  0  0  0
  2 15  1  0  0  0  0
  3  4  1  0  0  0  0
  3  5  1  0  0  0  0
  3  6  1  0  0  0  0
  3  7  1  0  0  0  0
  4  8  1  0  0  0  0
  4 10  1  0  0  0  0
  4 22  1  0  0  0  0
  5  9  1  0  0  0  0
  5 11  1  0  0  0  0
  5 23  1  0  0  0  0
  6 12  1  0  0  0  0
  6 24  1  0  0  0  0
  6 25  1  0  0  0  0
  7 13  1  0  0  0  0
  7 26  1  0  0  0  0
  7 27  1  0  0  0  0
  8 28  1  0  0  0  0
  8 29  1  0  0  0  0
  9 30  1  0  0  0  0
  9 31  1  0  0  0  0
 10 32  1  0  0  0  0
 10 33  1  0  0  0  0
 11 34  1  0  0  0  0
 11 35  1  0  0  0  0
 12 13  1  0  0  0  0
 12 36  1  0  0  0  0
 12 37  1  0  0  0  0
 13 38  1  0  0  0  0
 13 39  1  0  0  0  0
 14 16  1  0  0  0  0
 14 40  1  0  0  0  0
 14 41  1  0  0  0  0
 15 17  1  0  0  0  0
 15 42  1  0  0  0  0
 15 43  1  0  0  0  0
 16 18  1  0  0  0  0
 16 19  1  0  0  0  0
 16 44  1  0  0  0  0
 17 20  1  0  0  0  0
 17 21  1  0  0  0  0
 17 45  1  0  0  0  0
 18 19  1  0  0  0  0
 18 46  1  0  0  0  0
 18 47  1  0  0  0  0
 19 48  1  0  0  0  0
 19 49  1  0  0  0  0
 20 21  1  0  0  0  0
 20 50  1  0  0  0  0
 20 51  1  0  0  0  0
 21 52  1  0  0  0  0
 21 53  1  0  0  0  0
M  END
>  <DRUGBANK_ID>
DB06200

>  <COMMON_NAME>
Tedisamil

>  <CAS_NUMBER>
90961-53-8

>  <UNII>
A5VAY2U3R8

>  <SYNONYMS>
Tedisamil

$$$$
