
 OpenBabel10282417072D

 41 44  0  0  0  0  0  0  0  0999 V2000
    5.6480   -3.0852    0.0000 C   0  0  0  0  0  0  0  0  0  0  0  0
    1.4837    0.8510    0.0000 C   0  0  0  0  0  0  0  0  0  0  0  0
    1.6673    1.6553    0.0000 C   0  0  0  0  0  0  0  0  0  0  0  0
    2.0884    0.2898    0.0000 C   0  0  0  0  0  0  0  0  0  0  0  0
    2.4556    1.8985    0.0000 C   0  0  0  0  0  0  0  0  0  0  0  0
    5.9401    1.6553    0.0000 C   0  0  0  0  0  0  0  0  0  0  0  0
    5.1517    1.8985    0.0000 C   0  0  0  0  0  0  0  0  0  0  0  0
    5.7548   -1.6603    0.0000 C   0  0  0  0  0  0  0  0  0  0  0  0
    4.4673   -2.2803    0.0000 C   0  0  0  0  0  0  0  0  0  0  0  0
    5.3968   -0.9170    0.0000 C   0  0  0  0  0  0  0  0  0  0  0  0
    4.1094   -1.5370    0.0000 C   0  0  0  0  0  0  0  0  0  0  0  0
    5.5189    0.2898    0.0000 C   0  0  0  0  0  0  0  0  0  0  0  0
    6.1237    0.8510    0.0000 C   0  0  0  0  0  0  0  0  0  0  0  0
    4.7305    0.5330    0.0000 C   0  0  0  0  0  0  0  0  0  0  0  0
    2.8768    0.5330    0.0000 C   0  0  0  0  0  0  0  0  0  0  0  0
    4.5470    1.3373    0.0000 C   0  0  0  0  0  0  0  0  0  0  0  0
    3.0604    1.3373    0.0000 C   0  0  0  0  0  0  0  0  0  0  0  0
    4.2162   -0.1120    0.0000 C   0  0  0  0  0  0  0  0  0  0  0  0
    6.9120    0.6078    0.0000 Cl  0  0  0  0  0  0  0  0  0  0  0  0
    3.3912   -0.1120    0.0000 N   0  0  0  0  0  0  0  0  0  0  0  0
    5.2900   -2.3419    0.0000 N   0  0  0  0  0  0  0  0  0  0  0  0
    4.5741   -0.8553    0.0000 N   0  0  0  0  0  0  0  0  0  0  0  0
    3.8037    1.6953    0.0000 S   0  0  0  0  0  0  0  0  0  0  0  0
    5.0453   -3.9693    0.0000 H   0  0  0  0  0  0  0  0  0  0  0  0
    6.7150   -3.1651    0.0000 H   0  0  0  0  0  0  0  0  0  0  0  0
    6.1123   -4.0492    0.0000 H   0  0  0  0  0  0  0  0  0  0  0  0
    0.4975    0.5469    0.0000 H   0  0  0  0  0  0  0  0  0  0  0  0
    0.9108    2.3572    0.0000 H   0  0  0  0  0  0  0  0  0  0  0  0
    1.8587   -0.7163    0.0000 H   0  0  0  0  0  0  0  0  0  0  0  0
    2.6852    2.9046    0.0000 H   0  0  0  0  0  0  0  0  0  0  0  0
    6.6966    2.3572    0.0000 H   0  0  0  0  0  0  0  0  0  0  0  0
    4.9220    2.9046    0.0000 H   0  0  0  0  0  0  0  0  0  0  0  0
    6.8218   -1.7403    0.0000 H   0  0  0  0  0  0  0  0  0  0  0  0
    6.2190   -2.6244    0.0000 H   0  0  0  0  0  0  0  0  0  0  0  0
    3.8645   -3.1644    0.0000 H   0  0  0  0  0  0  0  0  0  0  0  0
    4.9316   -3.2443    0.0000 H   0  0  0  0  0  0  0  0  0  0  0  0
    5.9996   -0.0329    0.0000 H   0  0  0  0  0  0  0  0  0  0  0  0
    4.9326    0.0471    0.0000 H   0  0  0  0  0  0  0  0  0  0  0  0
    3.0424   -1.4570    0.0000 H   0  0  0  0  0  0  0  0  0  0  0  0
    3.6451   -0.5730    0.0000 H   0  0  0  0  0  0  0  0  0  0  0  0
    5.7485   -0.7163    0.0000 H   0  0  0  0  0  0  0  0  0  0  0  0
  1 24  1  0  0  0  0
  1 25  1  0  0  0  0
  1 26  1  0  0  0  0
  2 27  1  0  0  0  0
  3  2  2  0  0  0  0
  3 28  1  0  0  0  0
  4  2  1  0  0  0  0
  4 29  1  0  0  0  0
  5  3  1  0  0  0  0
  5 30  1  0  0  0  0
  6 31  1  0  0  0  0
  7  6  2  0  0  0  0
  7 32  1  0  0  0  0
  8 33  1  0  0  0  0
  8 34  1  0  0  0  0
  9 35  1  0  0  0  0
  9 36  1  0  0  0  0
 10  8  1  0  0  0  0
 10 37  1  0  0  0  0
 10 38  1  0  0  0  0
 11  9  1  0  0  0  0
 11 39  1  0  0  0  0
 11 40  1  0  0  0  0
 12 41  1  0  0  0  0
 13  6  1  0  0  0  0
 13 12  2  0  0  0  0
 14 12  1  0  0  0  0
 15  4  2  0  0  0  0
 16  7  1  0  0  0  0
 16 14  2  0  0  0  0
 17  5  2  0  0  0  0
 17 15  1  0  0  0  0
 18 14  1  0  0  0  0
 19 13  1  0  0  0  0
 20 15  1  0  0  0  0
 20 18  2  0  0  0  0
 21  1  1  0  0  0  0
 21  8  1  0  0  0  0
 21  9  1  0  0  0  0
 22 10  1  0  0  0  0
 22 11  1  0  0  0  0
 22 18  1  0  0  0  0
 23 16  1  0  0  0  0
 23 17  1  0  0  0  0
M  END
>  <DRUGBANK_ID>
DB13256

>  <COMMON_NAME>
Clothiapine

>  <CAS_NUMBER>
2058-52-8

>  <UNII>
Z05HCY0X1T

>  <SYNONYMS>
Clothiapine; Clotiapina; Clotiapine

$$$$
