915
 OpenBabel10282417072D

 42 43  0  0  0  0  0  0  0  0999 V2000
   -0.3646    1.5733    0.0000 C   0  0  0  0  0  0  0  0  0  0  0  0
   -1.0790    1.9858    0.0000 C   0  0  0  0  0  0  0  0  0  0  0  0
   -1.0790    2.8108    0.0000 C   0  0  0  0  0  0  0  0  0  0  0  0
   -0.3646    3.2233    0.0000 C   0  0  0  0  0  0  0  0  0  0  0  0
    0.3499    2.8108    0.0000 C   0  0  0  0  0  0  0  0  0  0  0  0
    0.3499    1.9858    0.0000 C   0  0  0  0  0  0  0  0  0  0  0  0
   -0.3646    4.0483    0.0000 F   0  0  0  0  0  0  0  0  0  0  0  0
   -1.7935    3.2233    0.0000 C   0  0  0  0  0  0  0  0  0  0  0  0
   -0.3646    0.7483    0.0000 S   0  0  0  0  0  0  0  0  0  0  0  0
   -0.3646   -0.0767    0.0000 N   0  0  0  0  0  0  0  0  0  0  0  0
    0.3499   -0.4892    0.0000 C   0  0  1  0  0  0  0  0  0  0  0  0
    1.0644   -0.0767    0.0000 C   0  0  0  0  0  0  0  0  0  0  0  0
    1.0644    0.7483    0.0000 N   0  0  0  0  0  0  0  0  0  0  0  0
    1.7788    1.1608    0.0000 O   0  0  0  0  0  0  0  0  0  0  0  0
    1.7788   -0.4892    0.0000 O   0  0  0  0  0  0  0  0  0  0  0  0
   -1.1896    0.7483    0.0000 O   0  0  0  0  0  0  0  0  0  0  0  0
    0.4604    0.7483    0.0000 O   0  0  0  0  0  0  0  0  0  0  0  0
    0.3499   -1.3142    0.0000 C   0  0  0  0  0  0  0  0  0  0  0  0
    1.0644   -1.7267    0.0000 C   0  0  0  0  0  0  0  0  0  0  0  0
    1.0644   -2.5517    0.0000 C   0  0  0  0  0  0  0  0  0  0  0  0
    0.3499   -2.9642    0.0000 O   0  0  0  0  0  0  0  0  0  0  0  0
   -0.3646   -2.5517    0.0000 C   0  0  0  0  0  0  0  0  0  0  0  0
   -0.3646   -1.7267    0.0000 C   0  0  0  0  0  0  0  0  0  0  0  0
    0.3499    0.0947    0.0000 H   0  0  0  0  0  0  0  0  0  0  0  0
   -1.9727    1.4698    0.0000 H   0  0  0  0  0  0  0  0  0  0  0  0
    1.2436    3.3268    0.0000 H   0  0  0  0  0  0  0  0  0  0  0  0
    1.2436    1.4698    0.0000 H   0  0  0  0  0  0  0  0  0  0  0  0
   -1.7935    4.2933    0.0000 H   0  0  0  0  0  0  0  0  0  0  0  0
   -2.7201    2.6883    0.0000 H   0  0  0  0  0  0  0  0  0  0  0  0
   -2.7202    3.7583    0.0000 H   0  0  0  0  0  0  0  0  0  0  0  0
   -1.2479   -0.5867    0.0000 H   0  0  0  0  0  0  0  0  0  0  0  0
    0.2118    1.2405    0.0000 H   0  0  0  0  0  0  0  0  0  0  0  0
    2.6189    0.6758    0.0000 H   0  0  0  0  0  0  0  0  0  0  0  0
    0.3499   -2.3842    0.0000 H   0  0  0  0  0  0  0  0  0  0  0  0
    1.9910   -1.1917    0.0000 H   0  0  0  0  0  0  0  0  0  0  0  0
    1.9910   -2.2617    0.0000 H   0  0  0  0  0  0  0  0  0  0  0  0
    1.9910   -3.0867    0.0000 H   0  0  0  0  0  0  0  0  0  0  0  0
    1.0644   -3.6217    0.0000 H   0  0  0  0  0  0  0  0  0  0  0  0
   -1.2912   -3.0867    0.0000 H   0  0  0  0  0  0  0  0  0  0  0  0
   -1.2912   -2.0167    0.0000 H   0  0  0  0  0  0  0  0  0  0  0  0
   -1.2912   -1.1917    0.0000 H   0  0  0  0  0  0  0  0  0  0  0  0
   -1.2912   -2.2617    0.0000 H   0  0  0  0  0  0  0  0  0  0  0  0
  1  2  2  0  0  0  0
  1  6  1  0  0  0  0
  1  9  1  0  0  0  0
  2  3  1  0  0  0  0
  2 25  1  0  0  0  0
  3  4  2  0  0  0  0
  3  8  1  0  0  0  0
  4  5  1  0  0  0  0
  4  7  1  0  0  0  0
  5  6  2  0  0  0  0
  5 26  1  0  0  0  0
  6 27  1  0  0  0  0
  8 28  1  0  0  0  0
  8 29  1  0  0  0  0
  8 30  1  0  0  0  0
  9 10  1  0  0  0  0
  9 16  2  0  0  0  0
  9 17  2  0  0  0  0
 10 31  1  0  0  0  0
 11 10  1  0  0  0  0
 11 12  1  0  0  0  0
 11 18  1  0  0  0  0
 11 24  1  6  0  0  0
 12 13  1  0  0  0  0
 12 15  2  0  0  0  0
 13 14  1  0  0  0  0
 13 32  1  0  0  0  0
 14 33  1  0  0  0  0
 18 19  1  0  0  0  0
 18 23  1  0  0  0  0
 18 34  1  0  0  0  0
 19 20  1  0  0  0  0
 19 35  1  0  0  0  0
 19 36  1  0  0  0  0
 20 21  1  0  0  0  0
 20 37  1  0  0  0  0
 20 38  1  0  0  0  0
 21 22  1  0  0  0  0
 22 23  1  0  0  0  0
 22 39  1  0  0  0  0
 22 40  1  0  0  0  0
 23 41  1  0  0  0  0
 23 42  1  0  0  0  0
M  END
>  <DRUGBANK_ID>
DB07290

>  <COMMON_NAME>
(2R)-2-{[(4-FLUORO-3-METHYLPHENYL)SULFONYL]AMINO}-N-HYDROXY-2-TETRAHYDRO-2H-PYRAN-4-YLACETAMIDE

$$$$
