
 OpenBabel10282417072D

 65 67  0  0  0  0  0  0  0  0999 V2000
    1.7764   -1.0575    0.0000 C   0  0  0  0  0  0  0  0  0  0  0  0
    1.0359    0.9994    0.0000 C   0  0  0  0  0  0  0  0  0  0  0  0
    0.3339   -1.0721    0.0000 C   0  0  0  0  0  0  0  0  0  0  0  0
    1.0745   -1.4836    0.0000 O   0  0  0  0  0  0  0  0  0  0  0  0
    1.0504    0.1718    0.0000 O   0  0  0  0  0  0  0  0  0  0  0  0
    0.3389   -0.2493    0.0000 C   0  0  0  0  0  0  0  0  0  0  0  0
   -0.3726   -1.4980    0.0000 C   0  0  0  0  0  0  0  0  0  0  0  0
   -1.0890   -1.0914    0.0000 C   0  0  0  0  0  0  0  0  0  0  0  0
    2.4976   -1.4690    0.0000 C   0  0  0  0  0  0  0  0  0  0  0  0
    1.7474    1.4351    0.0000 C   0  0  0  0  0  0  0  0  0  0  0  0
   -3.2333   -1.5417    0.0000 N   0  0  0  0  0  0  0  0  0  0  0  0
    1.7764   -0.2299    0.0000 O   0  0  0  0  0  0  0  0  0  0  0  0
    0.3243    1.4061    0.0000 O   0  0  0  0  0  0  0  0  0  0  0  0
   -0.3920    0.1572    0.0000 C   0  0  0  0  0  0  0  0  0  0  0  0
   -1.1036   -0.2589    0.0000 C   0  0  0  0  0  0  0  0  0  0  0  0
   -3.9546   -1.1398    0.0000 C   0  0  0  0  0  0  0  0  0  0  0  0
   -2.5218   -1.1205    0.0000 C   0  0  0  0  0  0  0  0  0  0  0  0
   -1.7957   -1.5126    0.0000 C   0  0  3  0  0  0  0  0  0  0  0  0
    3.2091   -1.0431    0.0000 C   0  0  0  0  0  0  0  0  0  0  0  0
    2.4831    1.0285    0.0000 C   0  0  0  0  0  0  0  0  0  0  0  0
    1.7425    2.2483    0.0000 C   0  0  0  0  0  0  0  0  0  0  0  0
    2.5121   -2.2968    0.0000 C   0  0  0  0  0  0  0  0  0  0  0  0
    2.4444    2.6839    0.0000 C   0  0  0  0  0  0  0  0  0  0  0  0
    3.2333   -2.6888    0.0000 C   0  0  0  0  0  0  0  0  0  0  0  0
    3.9207   -1.4448    0.0000 C   0  0  0  0  0  0  0  0  0  0  0  0
    3.1850    1.4497    0.0000 C   0  0  0  0  0  0  0  0  0  0  0  0
    3.1801    2.2629    0.0000 C   0  0  0  0  0  0  0  0  0  0  0  0
    3.9498   -2.2629    0.0000 C   0  0  0  0  0  0  0  0  0  0  0  0
   -1.7957   -2.3403    0.0000 O   0  0  0  0  0  0  0  0  0  0  0  0
   -4.3709   -0.4236    0.0000 C   0  0  0  0  0  0  0  0  0  0  0  0
   -4.6613   -1.5610    0.0000 C   0  0  0  0  0  0  0  0  0  0  0  0
   -3.5528   -0.4236    0.0000 C   0  0  0  0  0  0  0  0  0  0  0  0
    4.6613   -2.6791    0.0000 C   0  0  0  0  0  0  0  0  0  0  0  0
    3.8820    2.6888    0.0000 C   0  0  0  0  0  0  0  0  0  0  0  0
   -0.3590   -2.5299    0.0000 H   0  0  0  0  0  0  0  0  0  0  0  0
   -3.2200   -2.5616    0.0000 H   0  0  0  0  0  0  0  0  0  0  0  0
   -0.4031    1.1891    0.0000 H   0  0  0  0  0  0  0  0  0  0  0  0
   -2.0032    0.2468    0.0000 H   0  0  0  0  0  0  0  0  0  0  0  0
   -2.5429   -0.0507    0.0000 H   0  0  0  0  0  0  0  0  0  0  0  0
   -1.6083   -0.5634    0.0000 H   0  0  0  0  0  0  0  0  0  0  0  0
   -1.8184   -0.4428    0.0000 H   0  0  0  0  0  0  0  0  0  0  0  0
    3.1960   -0.0112    0.0000 H   0  0  0  0  0  0  0  0  0  0  0  0
    2.5015   -0.0033    0.0000 H   0  0  0  0  0  0  0  0  0  0  0  0
    0.8392    2.7473    0.0000 H   0  0  0  0  0  0  0  0  0  0  0  0
    1.6297   -2.8320    0.0000 H   0  0  0  0  0  0  0  0  0  0  0  0
    2.4260    3.7157    0.0000 H   0  0  0  0  0  0  0  0  0  0  0  0
    3.2531   -3.7206    0.0000 H   0  0  0  0  0  0  0  0  0  0  0  0
    4.8025   -0.9087    0.0000 H   0  0  0  0  0  0  0  0  0  0  0  0
    4.0846    0.9440    0.0000 H   0  0  0  0  0  0  0  0  0  0  0  0
   -2.6357   -2.8253    0.0000 H   0  0  0  0  0  0  0  0  0  0  0  0
   -3.8386    0.5046    0.0000 H   0  0  0  0  0  0  0  0  0  0  0  0
   -5.4409   -0.4267    0.0000 H   0  0  0  0  0  0  0  0  0  0  0  0
   -4.9086    0.5015    0.0000 H   0  0  0  0  0  0  0  0  0  0  0  0
   -5.5953   -1.0389    0.0000 H   0  0  0  0  0  0  0  0  0  0  0  0
   -4.6464   -2.6309    0.0000 H   0  0  0  0  0  0  0  0  0  0  0  0
   -5.5804   -2.1088    0.0000 H   0  0  0  0  0  0  0  0  0  0  0  0
   -2.4829   -0.4104    0.0000 H   0  0  0  0  0  0  0  0  0  0  0  0
   -4.0992    0.4964    0.0000 H   0  0  0  0  0  0  0  0  0  0  0  0
   -3.0293    0.5096    0.0000 H   0  0  0  0  0  0  0  0  0  0  0  0
    4.6552   -3.7491    0.0000 H   0  0  0  0  0  0  0  0  0  0  0  0
    5.5910   -2.1494    0.0000 H   0  0  0  0  0  0  0  0  0  0  0  0
    5.5849   -3.2194    0.0000 H   0  0  0  0  0  0  0  0  0  0  0  0
    4.8201    2.1741    0.0000 H   0  0  0  0  0  0  0  0  0  0  0  0
    3.8587    3.7585    0.0000 H   0  0  0  0  0  0  0  0  0  0  0  0
    4.7968    3.2439    0.0000 H   0  0  0  0  0  0  0  0  0  0  0  0
  2  5  1  0  0  0  0
  3  4  1  0  0  0  0
  4  1  1  0  0  0  0
  5  6  1  0  0  0  0
  6  3  2  0  0  0  0
  7  3  1  0  0  0  0
  7 35  1  0  0  0  0
  8  7  2  0  0  0  0
  9  1  1  0  0  0  0
 10  2  1  0  0  0  0
 11 17  1  0  0  0  0
 11 36  1  0  0  0  0
 12  1  2  0  0  0  0
 13  2  2  0  0  0  0
 14  6  1  0  0  0  0
 14 15  2  0  0  0  0
 14 37  1  0  0  0  0
 15  8  1  0  0  0  0
 15 38  1  0  0  0  0
 16 11  1  0  0  0  0
 17 18  1  0  0  0  0
 17 39  1  0  0  0  0
 17 40  1  0  0  0  0
 18  8  1  0  0  0  0
 18 41  1  0  0  0  0
 19  9  2  0  0  0  0
 19 42  1  0  0  0  0
 20 10  2  0  0  0  0
 20 43  1  0  0  0  0
 21 10  1  0  0  0  0
 21 44  1  0  0  0  0
 22  9  1  0  0  0  0
 22 45  1  0  0  0  0
 23 21  2  0  0  0  0
 23 46  1  0  0  0  0
 24 22  2  0  0  0  0
 24 28  1  0  0  0  0
 24 47  1  0  0  0  0
 25 19  1  0  0  0  0
 25 48  1  0  0  0  0
 26 20  1  0  0  0  0
 26 27  2  0  0  0  0
 26 49  1  0  0  0  0
 27 23  1  0  0  0  0
 28 25  2  0  0  0  0
 29 18  1  0  0  0  0
 29 50  1  0  0  0  0
 30 16  1  0  0  0  0
 30 51  1  0  0  0  0
 30 52  1  0  0  0  0
 30 53  1  0  0  0  0
 31 16  1  0  0  0  0
 31 54  1  0  0  0  0
 31 55  1  0  0  0  0
 31 56  1  0  0  0  0
 32 16  1  0  0  0  0
 32 57  1  0  0  0  0
 32 58  1  0  0  0  0
 32 59  1  0  0  0  0
 33 28  1  0  0  0  0
 33 60  1  0  0  0  0
 33 61  1  0  0  0  0
 33 62  1  0  0  0  0
 34 27  1  0  0  0  0
 34 63  1  0  0  0  0
 34 64  1  0  0  0  0
 34 65  1  0  0  0  0
M  END
>  <DRUGBANK_ID>
DB00901

>  <SECONDARY_ACCESSION_NUMBERS>
APRD00827

>  <COMMON_NAME>
Bitolterol

>  <CAS_NUMBER>
30392-40-6

>  <UNII>
9KY0QXD6LI

>  <SYNONYMS>
4-(2-(tert-butylamino)-1-hydroxyethyl)-o-phenylene di-p-toluate; 4-[2-(tert-butylamino)-1-hydroxyethyl]-o-phenylene di-p-toluate; bis(4-methylbenzoic acid) 4-[2-(tert-butylamino)-1-hydroxyethyl]-1,2-phenylene ester; Bitolterol; Bitolt√©rol; Bitolterolum

$$$$
