
 OpenBabel10282417072D

 68 71  0  0  0  0  0  0  0  0999 V2000
   -0.8195   -0.4660    0.0000 C   0  0  1  0  0  0  0  0  0  0  0  0
   -1.5367   -0.8588    0.0000 C   0  0  1  0  0  0  0  0  0  0  0  0
   -0.8195    0.3590    0.0000 C   0  0  1  0  0  0  0  0  0  0  0  0
   -0.0349   -0.7209    0.0000 C   0  0  0  0  0  0  0  0  0  0  0  0
   -2.2300   -0.4115    0.0000 C   0  0  1  0  0  0  0  0  0  0  0  0
   -1.5367   -1.6545    0.0000 C   0  0  0  0  0  0  0  0  0  0  0  0
   -0.0349    0.6139    0.0000 C   0  0  2  0  0  0  0  0  0  0  0  0
   -1.5128    0.7769    0.0000 C   0  0  0  0  0  0  0  0  0  0  0  0
   -0.8195    1.2687    0.0000 C   0  0  0  0  0  0  0  0  0  0  0  0
    0.4499   -0.0535    0.0000 C   0  0  0  0  0  0  0  0  0  0  0  0
   -2.9233   -0.8588    0.0000 C   0  0  2  0  0  0  0  0  0  0  0  0
   -2.2162    0.3295    0.0000 C   0  0  0  0  0  0  0  0  0  0  0  0
   -2.2162   -2.0951    0.0000 C   0  0  0  0  0  0  0  0  0  0  0  0
   -0.0062    1.6106    0.0000 C   0  0  0  0  0  0  0  0  0  0  0  0
    0.7990    1.0708    0.0000 O   0  0  0  0  0  0  0  0  0  0  0  0
   -2.9233   -1.6545    0.0000 C   0  0  0  0  0  0  0  0  0  0  0  0
   -3.6199   -0.4115    0.0000 C   0  0  0  0  0  0  0  0  0  0  0  0
    0.7378    1.9742    0.0000 C   0  0  0  0  0  0  0  0  0  0  0  0
   -0.6270    2.0951    0.0000 O   0  0  0  0  0  0  0  0  0  0  0  0
    1.5230    0.6234    0.0000 C   0  0  0  0  0  0  0  0  0  0  0  0
   -3.6164   -2.0951    0.0000 C   0  0  0  0  0  0  0  0  0  0  0  0
   -4.3338   -0.8588    0.0000 C   0  0  0  0  0  0  0  0  0  0  0  0
    2.2264    1.0843    0.0000 C   0  0  0  0  0  0  0  0  0  0  0  0
    1.5230   -0.1176    0.0000 O   0  0  0  0  0  0  0  0  0  0  0  0
   -4.3338   -1.6545    0.0000 C   0  0  0  0  0  0  0  0  0  0  0  0
    2.9574    0.6234    0.0000 C   0  0  0  0  0  0  0  0  0  0  0  0
   -5.0269   -2.0951    0.0000 O   0  0  0  0  0  0  0  0  0  0  0  0
    3.6404    1.0434    0.0000 C   0  0  0  0  0  0  0  0  0  0  0  0
    4.2961    0.5892    0.0000 C   0  0  0  0  0  0  0  0  0  0  0  0
    5.0269    1.0708    0.0000 C   0  0  0  0  0  0  0  0  0  0  0  0
   -1.5367   -0.0337    0.0000 H   0  0  0  0  0  0  0  0  0  0  0  0
   -2.9233   -0.0337    0.0000 H   0  0  0  0  0  0  0  0  0  0  0  0
   -0.7885   -1.2891    0.0000 H   0  0  0  0  0  0  0  0  0  0  0  0
   -2.2300   -1.2366    0.0000 H   0  0  0  0  0  0  0  0  0  0  0  0
    0.2958   -1.7385    0.0000 H   0  0  0  0  0  0  0  0  0  0  0  0
    1.0219   -0.8882    0.0000 H   0  0  0  0  0  0  0  0  0  0  0  0
   -0.5965   -2.1654    0.0000 H   0  0  0  0  0  0  0  0  0  0  0  0
   -1.4953   -2.7237    0.0000 H   0  0  0  0  0  0  0  0  0  0  0  0
   -1.5257    1.8468    0.0000 H   0  0  0  0  0  0  0  0  0  0  0  0
   -2.4538    1.2862    0.0000 H   0  0  0  0  0  0  0  0  0  0  0  0
    0.1071    1.8037    0.0000 H   0  0  0  0  0  0  0  0  0  0  0  0
   -1.7461    1.8037    0.0000 H   0  0  0  0  0  0  0  0  0  0  0  0
   -0.8195    2.3387    0.0000 H   0  0  0  0  0  0  0  0  0  0  0  0
    1.5199   -0.0535    0.0000 H   0  0  0  0  0  0  0  0  0  0  0  0
    0.9357    0.8999    0.0000 H   0  0  0  0  0  0  0  0  0  0  0  0
   -3.1493    0.8532    0.0000 H   0  0  0  0  0  0  0  0  0  0  0  0
   -2.2457    1.3991    0.0000 H   0  0  0  0  0  0  0  0  0  0  0  0
   -2.2066   -3.1651    0.0000 H   0  0  0  0  0  0  0  0  0  0  0  0
   -3.1494   -2.6186    0.0000 H   0  0  0  0  0  0  0  0  0  0  0  0
   -3.6140    0.6585    0.0000 H   0  0  0  0  0  0  0  0  0  0  0  0
   -4.5546    0.1093    0.0000 H   0  0  0  0  0  0  0  0  0  0  0  0
    1.6253    1.3766    0.0000 H   0  0  0  0  0  0  0  0  0  0  0  0
    0.8116    3.0417    0.0000 H   0  0  0  0  0  0  0  0  0  0  0  0
    1.6991    2.4440    0.0000 H   0  0  0  0  0  0  0  0  0  0  0  0
   -3.6084   -3.1271    0.0000 H   0  0  0  0  0  0  0  0  0  0  0  0
   -5.2700   -0.3406    0.0000 H   0  0  0  0  0  0  0  0  0  0  0  0
   -5.2556   -1.4021    0.0000 H   0  0  0  0  0  0  0  0  0  0  0  0
    2.2170    2.1543    0.0000 H   0  0  0  0  0  0  0  0  0  0  0  0
    3.1610    1.6052    0.0000 H   0  0  0  0  0  0  0  0  0  0  0  0
    2.9514   -0.4466    0.0000 H   0  0  0  0  0  0  0  0  0  0  0  0
    3.8899    0.0987    0.0000 H   0  0  0  0  0  0  0  0  0  0  0  0
    3.6695    2.1130    0.0000 H   0  0  0  0  0  0  0  0  0  0  0  0
    4.5949    1.5269    0.0000 H   0  0  0  0  0  0  0  0  0  0  0  0
    4.2837   -0.4807    0.0000 H   0  0  0  0  0  0  0  0  0  0  0  0
    5.2352    0.0764    0.0000 H   0  0  0  0  0  0  0  0  0  0  0  0
    5.9835    0.5914    0.0000 H   0  0  0  0  0  0  0  0  0  0  0  0
    4.9637    2.1389    0.0000 H   0  0  0  0  0  0  0  0  0  0  0  0
    5.9203    1.6596    0.0000 H   0  0  0  0  0  0  0  0  0  0  0  0
  1  2  1  0  0  0  0
  1  3  1  0  0  0  0
  1  4  1  0  0  0  0
  1 33  1  6  0  0  0
  2  5  1  0  0  0  0
  2  6  1  0  0  0  0
  2 31  1  1  0  0  0
  3  7  1  0  0  0  0
  3  8  1  0  0  0  0
  3  9  1  1  0  0  0
  4 10  1  0  0  0  0
  4 35  1  0  0  0  0
  4 36  1  0  0  0  0
  5 11  1  0  0  0  0
  5 12  1  0  0  0  0
  5 34  1  6  0  0  0
  6 13  1  0  0  0  0
  6 37  1  0  0  0  0
  6 38  1  0  0  0  0
  7 14  1  1  0  0  0
  7 10  1  0  0  0  0
  7 15  1  0  0  0  0
  8 12  1  0  0  0  0
  8 39  1  0  0  0  0
  8 40  1  0  0  0  0
  9 41  1  0  0  0  0
  9 42  1  0  0  0  0
  9 43  1  0  0  0  0
 10 44  1  0  0  0  0
 10 45  1  0  0  0  0
 11 16  1  0  0  0  0
 11 17  1  0  0  0  0
 11 32  1  1  0  0  0
 12 46  1  0  0  0  0
 12 47  1  0  0  0  0
 13 16  1  0  0  0  0
 13 48  1  0  0  0  0
 13 49  1  0  0  0  0
 14 18  1  0  0  0  0
 14 19  2  0  0  0  0
 15 20  1  0  0  0  0
 16 21  2  0  0  0  0
 17 22  1  0  0  0  0
 17 50  1  0  0  0  0
 17 51  1  0  0  0  0
 18 52  1  0  0  0  0
 18 53  1  0  0  0  0
 18 54  1  0  0  0  0
 20 23  1  0  0  0  0
 20 24  2  0  0  0  0
 21 25  1  0  0  0  0
 21 55  1  0  0  0  0
 22 25  1  0  0  0  0
 22 56  1  0  0  0  0
 22 57  1  0  0  0  0
 23 26  1  0  0  0  0
 23 58  1  0  0  0  0
 23 59  1  0  0  0  0
 25 27  2  0  0  0  0
 26 28  1  0  0  0  0
 26 60  1  0  0  0  0
 26 61  1  0  0  0  0
 28 29  1  0  0  0  0
 28 62  1  0  0  0  0
 28 63  1  0  0  0  0
 29 30  1  0  0  0  0
 29 64  1  0  0  0  0
 29 65  1  0  0  0  0
 30 66  1  0  0  0  0
 30 67  1  0  0  0  0
 30 68  1  0  0  0  0
M  END
>  <DRUGBANK_ID>
DB14677

>  <COMMON_NAME>
Gestonorone caproate

>  <CAS_NUMBER>
1253-28-7

>  <UNII>
U38E620NS6

>  <SYNONYMS>
Gestonorone caproate; Gestonorone hexanoate

$$$$
