FE1
 OpenBabel10282417072D

 59 62  0  0  0  0  0  0  0  0999 V2000
   -1.9470   -2.1943    0.0000 O   0  0  0  0  0  0  0  0  0  0  0  0
   -1.9470   -1.3693    0.0000 C   0  0  0  0  0  0  0  0  0  0  0  0
   -2.6615   -0.9568    0.0000 N   0  0  0  0  0  0  0  0  0  0  0  0
   -3.3760   -1.3693    0.0000 C   0  0  0  0  0  0  0  0  0  0  0  0
   -4.0904   -0.9568    0.0000 C   0  0  0  0  0  0  0  0  0  0  0  0
   -2.6615   -0.1318    0.0000 C   0  0  0  0  0  0  0  0  0  0  0  0
   -3.3760    0.2807    0.0000 C   0  0  0  0  0  0  0  0  0  0  0  0
   -4.0904   -0.1318    0.0000 C   0  0  0  0  0  0  0  0  0  0  0  0
   -4.8049    0.2807    0.0000 C   0  0  0  0  0  0  0  0  0  0  0  0
   -5.5194   -0.1318    0.0000 O   0  0  0  0  0  0  0  0  0  0  0  0
   -4.8049    1.1057    0.0000 O   0  0  0  0  0  0  0  0  0  0  0  0
   -5.5194    1.5182    0.0000 C   0  0  0  0  0  0  0  0  0  0  0  0
   -1.2325   -0.9568    0.0000 C   0  0  0  0  0  0  0  0  0  0  0  0
   -1.2325   -0.1318    0.0000 C   0  0  0  0  0  0  0  0  0  0  0  0
   -0.5181    0.2807    0.0000 C   0  0  0  0  0  0  0  0  0  0  0  0
    0.1964   -0.1318    0.0000 C   0  0  0  0  0  0  0  0  0  0  0  0
    0.1964   -0.9568    0.0000 C   0  0  0  0  0  0  0  0  0  0  0  0
   -0.5181   -1.3693    0.0000 C   0  0  0  0  0  0  0  0  0  0  0  0
    0.9109    0.2807    0.0000 N   0  0  0  0  0  0  0  0  0  0  0  0
    0.9109    1.1057    0.0000 C   0  0  0  0  0  0  0  0  0  0  0  0
    1.6253   -0.1318    0.0000 C   0  0  0  0  0  0  0  0  0  0  0  0
    2.3398    0.2807    0.0000 C   0  0  0  0  0  0  0  0  0  0  0  0
    3.0543   -0.1318    0.0000 N   0  0  0  0  0  0  0  0  0  0  0  0
    3.7687    0.2807    0.0000 C   0  0  0  0  0  0  0  0  0  0  0  0
    3.7687    1.1057    0.0000 C   0  0  0  0  0  0  0  0  0  0  0  0
    3.0543    1.5182    0.0000 N   0  0  0  0  0  0  0  0  0  0  0  0
    2.3398    1.1057    0.0000 C   0  0  0  0  0  0  0  0  0  0  0  0
    4.4832   -0.1318    0.0000 C   0  0  0  0  0  0  0  0  0  0  0  0
    4.4832   -0.9568    0.0000 N   0  0  0  0  0  0  0  0  0  0  0  0
    5.1977    0.2807    0.0000 N   0  0  0  0  0  0  0  0  0  0  0  0
    5.1977    1.1057    0.0000 C   0  0  0  0  0  0  0  0  0  0  0  0
    4.4832    1.5182    0.0000 N   0  0  0  0  0  0  0  0  0  0  0  0
    5.9122    1.5182    0.0000 N   0  0  0  0  0  0  0  0  0  0  0  0
   -3.3760   -2.4393    0.0000 H   0  0  0  0  0  0  0  0  0  0  0  0
   -4.3027   -1.9043    0.0000 H   0  0  0  0  0  0  0  0  0  0  0  0
   -5.0171   -1.4918    0.0000 H   0  0  0  0  0  0  0  0  0  0  0  0
   -5.0170   -0.4218    0.0000 H   0  0  0  0  0  0  0  0  0  0  0  0
   -1.7349    0.4032    0.0000 H   0  0  0  0  0  0  0  0  0  0  0  0
   -2.6615    0.9382    0.0000 H   0  0  0  0  0  0  0  0  0  0  0  0
   -3.3760    1.3507    0.0000 H   0  0  0  0  0  0  0  0  0  0  0  0
   -4.3027    0.8157    0.0000 H   0  0  0  0  0  0  0  0  0  0  0  0
   -4.0904    0.9382    0.0000 H   0  0  0  0  0  0  0  0  0  0  0  0
   -5.5194    2.5882    0.0000 H   0  0  0  0  0  0  0  0  0  0  0  0
   -6.4460    0.9832    0.0000 H   0  0  0  0  0  0  0  0  0  0  0  0
   -6.4461    2.0532    0.0000 H   0  0  0  0  0  0  0  0  0  0  0  0
   -2.1262    0.3842    0.0000 H   0  0  0  0  0  0  0  0  0  0  0  0
   -0.5181    1.3127    0.0000 H   0  0  0  0  0  0  0  0  0  0  0  0
    1.0901   -1.4728    0.0000 H   0  0  0  0  0  0  0  0  0  0  0  0
   -0.5181   -2.4013    0.0000 H   0  0  0  0  0  0  0  0  0  0  0  0
    1.8375    1.6407    0.0000 H   0  0  0  0  0  0  0  0  0  0  0  0
   -0.0157    1.6407    0.0000 H   0  0  0  0  0  0  0  0  0  0  0  0
    0.9109    2.1757    0.0000 H   0  0  0  0  0  0  0  0  0  0  0  0
    1.6253   -1.2018    0.0000 H   0  0  0  0  0  0  0  0  0  0  0  0
    2.5519   -0.6668    0.0000 H   0  0  0  0  0  0  0  0  0  0  0  0
    1.4461    1.6217    0.0000 H   0  0  0  0  0  0  0  0  0  0  0  0
    3.6306   -1.4491    0.0000 H   0  0  0  0  0  0  0  0  0  0  0  0
    5.3358   -1.4490    0.0000 H   0  0  0  0  0  0  0  0  0  0  0  0
    6.7648    1.0259    0.0000 H   0  0  0  0  0  0  0  0  0  0  0  0
    5.9122    2.5027    0.0000 H   0  0  0  0  0  0  0  0  0  0  0  0
  1  2  2  0  0  0  0
  2  3  1  0  0  0  0
  2 13  1  0  0  0  0
  3  4  1  0  0  0  0
  3  6  1  0  0  0  0
  4  5  1  0  0  0  0
  4 34  1  0  0  0  0
  4 35  1  0  0  0  0
  5  8  1  0  0  0  0
  5 36  1  0  0  0  0
  5 37  1  0  0  0  0
  6  7  1  0  0  0  0
  6 38  1  0  0  0  0
  6 39  1  0  0  0  0
  7  8  1  0  0  0  0
  7 40  1  0  0  0  0
  7 41  1  0  0  0  0
  8  9  1  0  0  0  0
  8 42  1  0  0  0  0
  9 10  2  0  0  0  0
  9 11  1  0  0  0  0
 11 12  1  0  0  0  0
 12 43  1  0  0  0  0
 12 44  1  0  0  0  0
 12 45  1  0  0  0  0
 13 14  2  0  0  0  0
 13 18  1  0  0  0  0
 14 15  1  0  0  0  0
 14 46  1  0  0  0  0
 15 16  2  0  0  0  0
 15 47  1  0  0  0  0
 16 17  1  0  0  0  0
 16 19  1  0  0  0  0
 17 18  2  0  0  0  0
 17 48  1  0  0  0  0
 18 49  1  0  0  0  0
 19 20  1  0  0  0  0
 19 21  1  0  0  0  0
 20 50  1  0  0  0  0
 20 51  1  0  0  0  0
 20 52  1  0  0  0  0
 21 22  1  0  0  0  0
 21 53  1  0  0  0  0
 21 54  1  0  0  0  0
 22 23  2  0  0  0  0
 22 27  1  0  0  0  0
 23 24  1  0  0  0  0
 24 25  1  0  0  0  0
 24 28  2  0  0  0  0
 25 26  1  0  0  0  0
 25 32  2  0  0  0  0
 26 27  2  0  0  0  0
 27 55  1  0  0  0  0
 28 29  1  0  0  0  0
 28 30  1  0  0  0  0
 29 56  1  0  0  0  0
 29 57  1  0  0  0  0
 30 31  2  0  0  0  0
 31 32  1  0  0  0  0
 31 33  1  0  0  0  0
 33 58  1  0  0  0  0
 33 59  1  0  0  0  0
M  END
>  <DRUGBANK_ID>
DB07765

>  <COMMON_NAME>
METHYL 1-(4-{[(2,4-DIAMINOPTERIDIN-6-YL)METHYL](METHYL)AMINO}BENZOYL)PIPERIDINE-4-CARBOXYLATE

$$$$
