
 OpenBabel10282417072D

 49 52  0  0  1  0  0  0  0  0999 V2000
    3.2147   -3.2918    0.0000 C   0  0  0  0  0  0  0  0  0  0  0  0
    3.5913   -2.5578    0.0000 C   0  0  0  0  0  0  0  0  0  0  0  0
    4.3254   -2.9343    0.0000 C   0  0  0  0  0  0  0  0  0  0  0  0
    2.8573   -2.1812    0.0000 C   0  0  0  0  0  0  0  0  0  0  0  0
    3.9679   -1.8237    0.0000 C   0  0  1  0  0  0  0  0  0  0  0  0
    4.7919   -1.7828    0.0000 C   0  0  0  0  0  0  0  0  0  0  0  0
    5.1684   -1.0488    0.0000 O   0  0  0  0  0  0  0  0  0  0  0  0
    3.5204   -1.1306    0.0000 N   0  0  0  0  0  0  0  0  0  0  0  0
    3.8970   -0.3965    0.0000 C   0  0  0  0  0  0  0  0  0  0  0  0
    4.7210   -0.3556    0.0000 O   0  0  0  0  0  0  0  0  0  0  0  0
    3.4496    0.2966    0.0000 C   0  0  0  0  0  0  0  0  0  0  0  0
    3.7473    1.0660    0.0000 N   0  0  0  0  0  0  0  0  0  0  0  0
    3.1076    1.5869    0.0000 N   0  0  0  0  0  0  0  0  0  0  0  0
    2.4145    1.1395    0.0000 C   0  0  0  0  0  0  0  0  0  0  0  0
    2.6258    0.3420    0.0000 C   0  0  0  0  0  0  0  0  0  0  0  0
    1.9327   -0.1054    0.0000 C   0  0  0  0  0  0  0  0  0  0  0  0
    1.2930    0.4156    0.0000 C   0  0  2  0  0  0  0  0  0  0  0  0
    0.7755    1.0581    0.0000 C   0  0  0  0  0  0  0  0  0  0  0  0
    1.5907    1.1849    0.0000 C   0  0  2  0  0  0  0  0  0  0  0  0
    3.1531    2.4107    0.0000 C   0  0  0  0  0  0  0  0  0  0  0  0
    2.4624    2.8619    0.0000 C   0  0  0  0  0  0  0  0  0  0  0  0
    2.5078    3.6856    0.0000 N   0  3  0  0  0  0  0  0  0  0  0  0
    1.8172    4.1369    0.0000 O   0  5  0  0  0  0  0  0  0  0  0  0
    3.2439    4.0582    0.0000 C   0  0  0  0  0  0  0  0  0  0  0  0
    3.9346    3.6069    0.0000 C   0  0  0  0  0  0  0  0  0  0  0  0
    3.8892    2.7832    0.0000 N   0  0  0  0  0  0  0  0  0  0  0  0
    2.1460   -3.3448    0.0000 H   0  0  0  0  0  0  0  0  0  0  0  0
    3.7949   -4.1908    0.0000 H   0  0  0  0  0  0  0  0  0  0  0  0
    2.7262   -4.2438    0.0000 H   0  0  0  0  0  0  0  0  0  0  0  0
    4.3786   -4.0030    0.0000 H   0  0  0  0  0  0  0  0  0  0  0  0
    5.2243   -2.3539    0.0000 H   0  0  0  0  0  0  0  0  0  0  0  0
    5.2775   -3.4226    0.0000 H   0  0  0  0  0  0  0  0  0  0  0  0
    2.8043   -1.1125    0.0000 H   0  0  0  0  0  0  0  0  0  0  0  0
    1.9583   -2.7614    0.0000 H   0  0  0  0  0  0  0  0  0  0  0  0
    1.9053   -1.6927    0.0000 H   0  0  0  0  0  0  0  0  0  0  0  0
    2.8992   -1.8768    0.0000 H   0  0  0  0  0  0  0  0  0  0  0  0
    5.3722   -2.6818    0.0000 H   0  0  0  0  0  0  0  0  0  0  0  0
    5.8606   -1.7297    0.0000 H   0  0  0  0  0  0  0  0  0  0  0  0
    6.1372   -1.0007    0.0000 H   0  0  0  0  0  0  0  0  0  0  0  0
    2.5371   -1.1795    0.0000 H   0  0  0  0  0  0  0  0  0  0  0  0
    1.8737   -1.1738    0.0000 H   0  0  0  0  0  0  0  0  0  0  0  0
    0.9540   -0.5379    0.0000 H   0  0  0  0  0  0  0  0  0  0  0  0
    2.0517    1.1701    0.0000 H   0  0  0  0  0  0  0  0  0  0  0  0
   -0.2224    1.4442    0.0000 H   0  0  0  0  0  0  0  0  0  0  0  0
    0.8903    2.1219    0.0000 H   0  0  0  0  0  0  0  0  0  0  0  0
    1.6438    0.1162    0.0000 H   0  0  0  0  0  0  0  0  0  0  0  0
    1.5416    2.3959    0.0000 H   0  0  0  0  0  0  0  0  0  0  0  0
    3.3007    5.0886    0.0000 H   0  0  0  0  0  0  0  0  0  0  0  0
    4.8554    4.0729    0.0000 H   0  0  0  0  0  0  0  0  0  0  0  0
  1  2  1  0  0  0  0
  1 27  1  0  0  0  0
  1 28  1  0  0  0  0
  1 29  1  0  0  0  0
  2  3  1  0  0  0  0
  2  4  1  0  0  0  0
  3 30  1  0  0  0  0
  3 31  1  0  0  0  0
  3 32  1  0  0  0  0
  4 33  1  0  0  0  0
  4 34  1  0  0  0  0
  4 35  1  0  0  0  0
  5  2  1  0  0  0  0
  5  6  1  0  0  0  0
  5  8  1  0  0  0  0
  5 36  1  1  0  0  0
  6  7  1  0  0  0  0
  6 37  1  0  0  0  0
  6 38  1  0  0  0  0
  7 39  1  0  0  0  0
  8  9  1  0  0  0  0
  8 40  1  0  0  0  0
  9 10  2  0  0  0  0
  9 11  1  0  0  0  0
 11 12  2  0  0  0  0
 11 15  1  0  0  0  0
 12 13  1  0  0  0  0
 13 14  1  0  0  0  0
 13 20  1  0  0  0  0
 14 15  2  0  0  0  0
 15 16  1  0  0  0  0
 16 41  1  0  0  0  0
 16 42  1  0  0  0  0
 17 16  1  0  0  0  0
 17 18  1  0  0  0  0
 17 19  1  0  0  0  0
 17 43  1  1  0  0  0
 18 44  1  0  0  0  0
 18 45  1  0  0  0  0
 19 18  1  0  0  0  0
 19 14  1  0  0  0  0
 19 46  1  1  0  0  0
 20 21  2  0  0  0  0
 20 26  1  0  0  0  0
 21 22  1  0  0  0  0
 21 47  1  0  0  0  0
 22 23  1  0  0  0  0
 22 24  2  0  0  0  0
 24 25  1  0  0  0  0
 24 48  1  0  0  0  0
 25 26  2  0  0  0  0
 25 49  1  0  0  0  0
M  CHG  2  22   1  23  -1
M  END
>  <DRUGBANK_ID>
DB14998

>  <COMMON_NAME>
Olorinab

>  <CAS_NUMBER>
1268881-20-4

>  <UNII>
581F7DFA9B

>  <SYNONYMS>
Olorinab

$$$$
