
 OpenBabel10282417072D

 57 61  0  0  0  0  0  0  0  0999 V2000
    0.7145   -3.7125    0.0000 C   0  0  0  0  0  0  0  0  0  0  0  0
    0.7145   -2.8875    0.0000 N   0  0  0  0  0  0  0  0  0  0  0  0
    0.0000   -2.4750    0.0000 C   0  0  0  0  0  0  0  0  0  0  0  0
    0.0000   -1.6500    0.0000 C   0  0  0  0  0  0  0  0  0  0  0  0
    0.7145   -1.2375    0.0000 N   0  0  0  0  0  0  0  0  0  0  0  0
    1.4289   -1.6500    0.0000 C   0  0  0  0  0  0  0  0  0  0  0  0
    1.4289   -2.4750    0.0000 C   0  0  0  0  0  0  0  0  0  0  0  0
    0.7145   -0.4125    0.0000 C   0  0  0  0  0  0  0  0  0  0  0  0
    0.0000    0.0000    0.0000 C   0  0  0  0  0  0  0  0  0  0  0  0
   -0.7846   -0.2549    0.0000 N   0  0  0  0  0  0  0  0  0  0  0  0
   -1.2695    0.4125    0.0000 C   0  0  0  0  0  0  0  0  0  0  0  0
   -0.7846    1.0799    0.0000 N   0  0  0  0  0  0  0  0  0  0  0  0
   -1.0396    1.8646    0.0000 C   0  0  0  0  0  0  0  0  0  0  0  0
   -1.8465    2.0361    0.0000 C   0  0  0  0  0  0  0  0  0  0  0  0
   -2.1015    2.8207    0.0000 C   0  0  0  0  0  0  0  0  0  0  0  0
   -1.5494    3.4338    0.0000 O   0  0  0  0  0  0  0  0  0  0  0  0
   -0.7425    3.2623    0.0000 C   0  0  0  0  0  0  0  0  0  0  0  0
   -0.4875    2.4777    0.0000 C   0  0  0  0  0  0  0  0  0  0  0  0
    0.0000    0.8250    0.0000 C   0  0  0  0  0  0  0  0  0  0  0  0
    0.7145    1.2375    0.0000 N   0  0  0  0  0  0  0  0  0  0  0  0
    1.4289    0.8250    0.0000 C   0  0  0  0  0  0  0  0  0  0  0  0
    2.1434    1.2375    0.0000 C   0  0  0  0  0  0  0  0  0  0  0  0
    1.4289    0.0000    0.0000 N   0  0  0  0  0  0  0  0  0  0  0  0
   -2.0945    0.4125    0.0000 C   0  0  0  0  0  0  0  0  0  0  0  0
   -2.5070    1.1270    0.0000 C   0  0  0  0  0  0  0  0  0  0  0  0
   -3.3320    1.1270    0.0000 C   0  0  0  0  0  0  0  0  0  0  0  0
   -3.7445    0.4125    0.0000 C   0  0  0  0  0  0  0  0  0  0  0  0
   -3.3320   -0.3020    0.0000 C   0  0  0  0  0  0  0  0  0  0  0  0
   -2.5070   -0.3020    0.0000 C   0  0  0  0  0  0  0  0  0  0  0  0
   -2.0945   -1.0164    0.0000 Cl  0  0  0  0  0  0  0  0  0  0  0  0
   -0.2121   -4.2475    0.0000 H   0  0  0  0  0  0  0  0  0  0  0  0
    1.6411   -4.2475    0.0000 H   0  0  0  0  0  0  0  0  0  0  0  0
    0.7145   -4.7825    0.0000 H   0  0  0  0  0  0  0  0  0  0  0  0
   -0.9266   -3.0100    0.0000 H   0  0  0  0  0  0  0  0  0  0  0  0
   -0.9266   -1.9400    0.0000 H   0  0  0  0  0  0  0  0  0  0  0  0
   -0.9266   -1.1150    0.0000 H   0  0  0  0  0  0  0  0  0  0  0  0
    0.0000   -0.5800    0.0000 H   0  0  0  0  0  0  0  0  0  0  0  0
    2.3556   -1.1150    0.0000 H   0  0  0  0  0  0  0  0  0  0  0  0
    2.3555   -2.1850    0.0000 H   0  0  0  0  0  0  0  0  0  0  0  0
    2.3556   -3.0100    0.0000 H   0  0  0  0  0  0  0  0  0  0  0  0
    1.4289   -3.5450    0.0000 H   0  0  0  0  0  0  0  0  0  0  0  0
   -1.3702    2.8822    0.0000 H   0  0  0  0  0  0  0  0  0  0  0  0
   -2.5624    1.2409    0.0000 H   0  0  0  0  0  0  0  0  0  0  0  0
   -2.8931    2.2585    0.0000 H   0  0  0  0  0  0  0  0  0  0  0  0
   -3.1481    3.0432    0.0000 H   0  0  0  0  0  0  0  0  0  0  0  0
   -2.4321    3.8383    0.0000 H   0  0  0  0  0  0  0  0  0  0  0  0
   -0.0266    4.0575    0.0000 H   0  0  0  0  0  0  0  0  0  0  0  0
    0.3041    3.0399    0.0000 H   0  0  0  0  0  0  0  0  0  0  0  0
    0.5591    2.2552    0.0000 H   0  0  0  0  0  0  0  0  0  0  0  0
   -0.1569    1.4601    0.0000 H   0  0  0  0  0  0  0  0  0  0  0  0
    3.0700    0.7025    0.0000 H   0  0  0  0  0  0  0  0  0  0  0  0
    2.1434    2.3075    0.0000 H   0  0  0  0  0  0  0  0  0  0  0  0
    3.0701    1.7725    0.0000 H   0  0  0  0  0  0  0  0  0  0  0  0
   -1.9910    2.0207    0.0000 H   0  0  0  0  0  0  0  0  0  0  0  0
   -3.8480    2.0207    0.0000 H   0  0  0  0  0  0  0  0  0  0  0  0
   -4.7765    0.4125    0.0000 H   0  0  0  0  0  0  0  0  0  0  0  0
   -3.8480   -1.1957    0.0000 H   0  0  0  0  0  0  0  0  0  0  0  0
  1  2  1  0  0  0  0
  1 31  1  0  0  0  0
  1 32  1  0  0  0  0
  1 33  1  0  0  0  0
  2  3  1  0  0  0  0
  2  7  1  0  0  0  0
  3  4  1  0  0  0  0
  3 34  1  0  0  0  0
  3 35  1  0  0  0  0
  4  5  1  0  0  0  0
  4 36  1  0  0  0  0
  4 37  1  0  0  0  0
  5  6  1  0  0  0  0
  5  8  1  0  0  0  0
  6  7  1  0  0  0  0
  6 38  1  0  0  0  0
  6 39  1  0  0  0  0
  7 40  1  0  0  0  0
  7 41  1  0  0  0  0
  8  9  2  0  0  0  0
  8 23  1  0  0  0  0
  9 10  1  0  0  0  0
  9 19  1  0  0  0  0
 10 11  2  0  0  0  0
 11 12  1  0  0  0  0
 11 24  1  0  0  0  0
 12 13  1  0  0  0  0
 12 19  1  0  0  0  0
 13 14  1  0  0  0  0
 13 18  1  0  0  0  0
 13 42  1  0  0  0  0
 14 15  1  0  0  0  0
 14 43  1  0  0  0  0
 14 44  1  0  0  0  0
 15 16  1  0  0  0  0
 15 45  1  0  0  0  0
 15 46  1  0  0  0  0
 16 17  1  0  0  0  0
 17 18  1  0  0  0  0
 17 47  1  0  0  0  0
 17 48  1  0  0  0  0
 18 49  1  0  0  0  0
 18 50  1  0  0  0  0
 19 20  2  0  0  0  0
 20 21  1  0  0  0  0
 21 22  1  0  0  0  0
 21 23  2  0  0  0  0
 22 51  1  0  0  0  0
 22 52  1  0  0  0  0
 22 53  1  0  0  0  0
 24 25  2  0  0  0  0
 24 29  1  0  0  0  0
 25 26  1  0  0  0  0
 25 54  1  0  0  0  0
 26 27  2  0  0  0  0
 26 55  1  0  0  0  0
 27 28  1  0  0  0  0
 27 56  1  0  0  0  0
 28 29  2  0  0  0  0
 28 57  1  0  0  0  0
 29 30  1  0  0  0  0
M  END
>  <DRUGBANK_ID>
DB16074

>  <COMMON_NAME>
LY2828360

>  <CAS_NUMBER>
1231220-79-3

>  <UNII>
O12H7VFU6P

$$$$
