
 OpenBabel10282417072D

 58 62  0  0  0  0  0  0  0  0999 V2000
    0.4741   -0.8250    0.0000 C   0  0  0  0  0  0  0  0  0  0  0  0
   -0.2403   -0.4123    0.0000 N   0  0  0  0  0  0  0  0  0  0  0  0
   -0.2403    0.4124    0.0000 C   0  0  2  0  0  0  0  0  0  0  0  0
    0.4741    0.8250    0.0000 S   0  0  0  0  0  0  0  0  0  0  0  0
    1.1884    0.4124    0.0000 C   0  0  0  0  0  0  0  0  0  0  0  0
    1.1884   -0.4123    0.0000 C   0  0  0  0  0  0  0  0  0  0  0  0
   -1.0653    0.4124    0.0000 C   0  0  1  0  0  0  0  0  0  0  0  0
   -1.0653   -0.4123    0.0000 C   0  0  0  0  0  0  0  0  0  0  0  0
   -1.6487   -0.9958    0.0000 O   0  0  0  0  0  0  0  0  0  0  0  0
    0.4741   -1.6500    0.0000 C   0  0  0  0  0  0  0  0  0  0  0  0
    1.1884   -2.0624    0.0000 O   0  0  0  0  0  0  0  0  0  0  0  0
   -0.2403   -2.0624    0.0000 O   0  0  0  0  0  0  0  0  0  0  0  0
    1.9030   -0.8250    0.0000 C   0  0  0  0  0  0  0  0  0  0  0  0
    2.6175   -0.4123    0.0000 C   0  0  0  0  0  0  0  0  0  0  0  0
    2.7036    0.4079    0.0000 C   0  0  0  0  0  0  0  0  0  0  0  0
    3.5107    0.5795    0.0000 C   0  0  0  0  0  0  0  0  0  0  0  0
    3.9233   -0.1349    0.0000 N   0  0  0  0  0  0  0  0  0  0  0  0
    3.3712   -0.7479    0.0000 C   0  0  0  0  0  0  0  0  0  0  0  0
    3.5427   -1.5549    0.0000 O   0  0  0  0  0  0  0  0  0  0  0  0
    4.7437   -0.2211    0.0000 C   0  0  1  0  0  0  0  0  0  0  0  0
    5.2957    0.3919    0.0000 C   0  0  0  0  0  0  0  0  0  0  0  0
    6.0494    0.0564    0.0000 N   0  0  0  0  0  0  0  0  0  0  0  0
    5.9631   -0.7640    0.0000 C   0  0  0  0  0  0  0  0  0  0  0  0
    5.1562   -0.9357    0.0000 C   0  0  0  0  0  0  0  0  0  0  0  0
    4.3311    0.4933    0.0000 H   0  0  0  0  0  0  0  0  0  0  0  0
   -1.7798    0.8250    0.0000 N   0  0  0  0  0  0  0  0  0  0  0  0
   -2.4943    0.4124    0.0000 C   0  0  0  0  0  0  0  0  0  0  0  0
   -3.2087    0.8250    0.0000 C   0  0  0  0  0  0  0  0  0  0  0  0
   -2.4943   -0.4123    0.0000 O   0  0  0  0  0  0  0  0  0  0  0  0
   -3.9233    0.4124    0.0000 C   0  0  0  0  0  0  0  0  0  0  0  0
   -3.2087    1.6500    0.0000 N   0  0  0  0  0  0  0  0  0  0  0  0
   -2.4943    2.0624    0.0000 O   0  0  0  0  0  0  0  0  0  0  0  0
   -4.0095   -0.4079    0.0000 N   0  0  0  0  0  0  0  0  0  0  0  0
   -4.8165   -0.5795    0.0000 S   0  0  0  0  0  0  0  0  0  0  0  0
   -5.2289    0.1350    0.0000 C   0  0  0  0  0  0  0  0  0  0  0  0
   -4.6770    0.7480    0.0000 N   0  0  0  0  0  0  0  0  0  0  0  0
   -6.0494    0.2211    0.0000 N   0  0  0  0  0  0  0  0  0  0  0  0
   -0.2403    1.2376    0.0000 H   0  0  0  0  0  0  0  0  0  0  0  0
   -1.0653    1.2376    0.0000 H   0  0  0  0  0  0  0  0  0  0  0  0
    2.1151    0.9473    0.0000 H   0  0  0  0  0  0  0  0  0  0  0  0
    2.1150   -0.1226    0.0000 H   0  0  0  0  0  0  0  0  0  0  0  0
    1.1884   -2.9994    0.0000 H   0  0  0  0  0  0  0  0  0  0  0  0
    1.9030   -1.8570    0.0000 H   0  0  0  0  0  0  0  0  0  0  0  0
    1.9084    1.1238    0.0000 H   0  0  0  0  0  0  0  0  0  0  0  0
    1.7047    0.0243    0.0000 H   0  0  0  0  0  0  0  0  0  0  0  0
    3.9458    1.5570    0.0000 H   0  0  0  0  0  0  0  0  0  0  0  0
    4.5792    0.6356    0.0000 H   0  0  0  0  0  0  0  0  0  0  0  0
    5.0732    1.4385    0.0000 H   0  0  0  0  0  0  0  0  0  0  0  0
    4.2622    0.6689    0.0000 H   0  0  0  0  0  0  0  0  0  0  0  0
    6.9327    0.5664    0.0000 H   0  0  0  0  0  0  0  0  0  0  0  0
    6.7583   -1.4799    0.0000 H   0  0  0  0  0  0  0  0  0  0  0  0
    5.6863   -1.7976    0.0000 H   0  0  0  0  0  0  0  0  0  0  0  0
    4.7211   -1.9132    0.0000 H   0  0  0  0  0  0  0  0  0  0  0  0
    4.0877   -0.9917    0.0000 H   0  0  0  0  0  0  0  0  0  0  0  0
   -1.7798    1.8095    0.0000 H   0  0  0  0  0  0  0  0  0  0  0  0
   -1.6829    1.5938    0.0000 H   0  0  0  0  0  0  0  0  0  0  0  0
   -6.4500    1.1204    0.0000 H   0  0  0  0  0  0  0  0  0  0  0  0
   -6.6279   -0.5755    0.0000 H   0  0  0  0  0  0  0  0  0  0  0  0
  1  2  1  0  0  0  0
  1  6  2  0  0  0  0
  1 10  1  0  0  0  0
  2  3  1  0  0  0  0
  3  4  1  0  0  0  0
  3  7  1  0  0  0  0
  3 38  1  6  0  0  0
  4  5  1  0  0  0  0
  5  6  1  0  0  0  0
  5 40  1  0  0  0  0
  5 41  1  0  0  0  0
  6 13  1  0  0  0  0
  7  8  1  0  0  0  0
  7 26  1  0  0  0  0
  7 39  1  6  0  0  0
  8  2  1  0  0  0  0
  8  9  2  0  0  0  0
 10 11  1  0  0  0  0
 10 12  2  0  0  0  0
 11 42  1  0  0  0  0
 13 14  2  0  0  0  0
 13 43  1  0  0  0  0
 14 15  1  0  0  0  0
 14 18  1  0  0  0  0
 15 16  1  0  0  0  0
 15 44  1  0  0  0  0
 15 45  1  0  0  0  0
 16 17  1  0  0  0  0
 16 46  1  0  0  0  0
 16 47  1  0  0  0  0
 17 18  1  0  0  0  0
 18 19  2  0  0  0  0
 20 17  1  0  0  0  0
 20 21  1  0  0  0  0
 20 24  1  0  0  0  0
 20 25  1  6  0  0  0
 21 22  1  0  0  0  0
 21 48  1  0  0  0  0
 21 49  1  0  0  0  0
 22 23  1  0  0  0  0
 22 50  1  0  0  0  0
 23 24  1  0  0  0  0
 23 51  1  0  0  0  0
 23 52  1  0  0  0  0
 24 53  1  0  0  0  0
 24 54  1  0  0  0  0
 26 27  1  0  0  0  0
 26 55  1  0  0  0  0
 27 28  1  0  0  0  0
 27 29  2  0  0  0  0
 28 30  1  0  0  0  0
 28 31  2  0  0  0  0
 30 33  2  0  0  0  0
 30 36  1  0  0  0  0
 31 32  1  0  0  0  0
 32 56  1  0  0  0  0
 33 34  1  0  0  0  0
 34 35  1  0  0  0  0
 35 36  2  0  0  0  0
 35 37  1  0  0  0  0
 37 57  1  0  0  0  0
 37 58  1  0  0  0  0
M  END
>  <DRUGBANK_ID>
DB04918

>  <COMMON_NAME>
Ceftobiprole

>  <CAS_NUMBER>
209467-52-7

>  <UNII>
5T97333YZK

>  <SYNONYMS>
Ceftobiprol; Ceftobiprole

$$$$
