HBC
 OpenBabel10282417072D

 43 46  0  0  0  0  0  0  0  0999 V2000
    0.1496   -1.2122    0.0000 C   0  0  0  0  0  0  0  0  0  0  0  0
    0.7873   -1.7357    0.0000 C   0  0  0  0  0  0  0  0  0  0  0  0
    0.6528   -2.5496    0.0000 C   0  0  0  0  0  0  0  0  0  0  0  0
   -0.1194   -2.8402    0.0000 C   0  0  0  0  0  0  0  0  0  0  0  0
   -0.7571   -2.3167    0.0000 C   0  0  0  0  0  0  0  0  0  0  0  0
   -0.6226   -1.5027    0.0000 C   0  0  0  0  0  0  0  0  0  0  0  0
   -1.0841    0.4955    0.0000 C   0  0  2  0  0  0  0  0  0  0  0  0
   -1.8596    0.1052    0.0000 C   0  0  0  0  0  0  0  0  0  0  0  0
   -1.4943    0.7657    0.0000 C   0  0  0  0  0  0  0  0  0  0  0  0
   -0.8540    1.2159    0.0000 C   0  0  1  0  0  0  0  0  0  0  0  0
   -1.0140    2.0313    0.0000 C   0  0  0  0  0  0  0  0  0  0  0  0
   -0.0585    0.7506    0.0000 C   0  0  2  0  0  0  0  0  0  0  0  0
   -0.3536    0.1252    0.0000 C   0  0  2  0  0  0  0  0  0  0  0  0
   -0.5358   -0.6794    0.0000 N   0  0  0  0  0  0  0  0  0  0  0  0
    0.2841   -0.3983    0.0000 C   0  0  0  0  0  0  0  0  0  0  0  0
    1.0562   -0.1077    0.0000 O   0  0  0  0  0  0  0  0  0  0  0  0
    1.3350    0.4342    0.0000 C   0  0  0  0  0  0  0  0  0  0  0  0
    0.7296    0.9947    0.0000 C   0  0  0  0  0  0  0  0  0  0  0  0
    0.9122    1.7992    0.0000 C   0  0  0  0  0  0  0  0  0  0  0  0
    1.7003    2.0432    0.0000 C   0  0  0  0  0  0  0  0  0  0  0  0
    2.3057    1.4828    0.0000 C   0  0  0  0  0  0  0  0  0  0  0  0
    2.1230    0.6783    0.0000 C   0  0  0  0  0  0  0  0  0  0  0  0
   -1.0849   -0.0884    0.0000 H   0  0  0  0  0  0  0  0  0  0  0  0
   -0.6774    1.7725    0.0000 H   0  0  0  0  0  0  0  0  0  0  0  0
    0.0082    1.3307    0.0000 H   0  0  0  0  0  0  0  0  0  0  0  0
    1.7532   -1.3723    0.0000 H   0  0  0  0  0  0  0  0  0  0  0  0
    1.4505   -3.2044    0.0000 H   0  0  0  0  0  0  0  0  0  0  0  0
   -0.2876   -3.8584    0.0000 H   0  0  0  0  0  0  0  0  0  0  0  0
   -1.7230   -2.6801    0.0000 H   0  0  0  0  0  0  0  0  0  0  0  0
   -1.4203   -0.8479    0.0000 H   0  0  0  0  0  0  0  0  0  0  0  0
   -2.6308   -0.6365    0.0000 H   0  0  0  0  0  0  0  0  0  0  0  0
   -2.7081    0.7570    0.0000 H   0  0  0  0  0  0  0  0  0  0  0  0
   -2.2905    1.4805    0.0000 H   0  0  0  0  0  0  0  0  0  0  0  0
   -1.4308    1.8338    0.0000 H   0  0  0  0  0  0  0  0  0  0  0  0
   -1.0932    3.0984    0.0000 H   0  0  0  0  0  0  0  0  0  0  0  0
    0.0464    2.1742    0.0000 H   0  0  0  0  0  0  0  0  0  0  0  0
   -1.5100   -0.9817    0.0000 H   0  0  0  0  0  0  0  0  0  0  0  0
    0.2131   -1.3719    0.0000 H   0  0  0  0  0  0  0  0  0  0  0  0
    1.1065   -0.5722    0.0000 H   0  0  0  0  0  0  0  0  0  0  0  0
    0.1549    2.5003    0.0000 H   0  0  0  0  0  0  0  0  0  0  0  0
    1.9288    3.0496    0.0000 H   0  0  0  0  0  0  0  0  0  0  0  0
    3.2915    1.7881    0.0000 H   0  0  0  0  0  0  0  0  0  0  0  0
    2.8803   -0.0228    0.0000 H   0  0  0  0  0  0  0  0  0  0  0  0
  1  2  2  0  0  0  0
  1  6  1  0  0  0  0
  1 15  1  0  0  0  0
  2  3  1  0  0  0  0
  2 26  1  0  0  0  0
  3  4  2  0  0  0  0
  3 27  1  0  0  0  0
  4  5  1  0  0  0  0
  4 28  1  0  0  0  0
  5  6  2  0  0  0  0
  5 29  1  0  0  0  0
  6 30  1  0  0  0  0
  7  8  1  0  0  0  0
  7 11  1  0  0  0  0
  7 13  1  0  0  0  0
  7 23  1  1  0  0  0
  8  9  1  0  0  0  0
  8 31  1  0  0  0  0
  8 32  1  0  0  0  0
  9 10  1  0  0  0  0
  9 33  1  0  0  0  0
  9 34  1  0  0  0  0
 10 11  1  0  0  0  0
 10 12  1  0  0  0  0
 10 24  1  6  0  0  0
 11 35  1  0  0  0  0
 11 36  1  0  0  0  0
 12 13  1  0  0  0  0
 12 18  1  0  0  0  0
 12 25  1  6  0  0  0
 13 14  1  0  0  0  0
 13 15  1  1  0  0  0
 14 37  1  0  0  0  0
 14 38  1  0  0  0  0
 15 16  2  0  0  0  0
 17 18  2  0  0  0  0
 17 22  1  0  0  0  0
 17 39  1  0  0  0  0
 18 19  1  0  0  0  0
 19 20  2  0  0  0  0
 19 40  1  0  0  0  0
 20 21  1  0  0  0  0
 20 41  1  0  0  0  0
 21 22  2  0  0  0  0
 21 42  1  0  0  0  0
 22 43  1  0  0  0  0
M  END
>  <DRUGBANK_ID>
DB07883

>  <COMMON_NAME>
(2-AMINO-3-PHENYL-BICYCLO[2.2.1]HEPT-2-YL)-PHENYL-METHANONE

$$$$
