OA1
 OpenBabel10282417072D

 22 23  0  0  0  0  0  0  0  0999 V2000
   -0.0345    2.6028    0.0000 Br  0  0  0  0  0  0  0  0  0  0  0  0
   -0.0345    1.7778    0.0000 C   0  0  0  0  0  0  0  0  0  0  0  0
    0.6800    1.3653    0.0000 C   0  0  0  0  0  0  0  0  0  0  0  0
   -0.7490    1.3653    0.0000 C   0  0  0  0  0  0  0  0  0  0  0  0
   -0.7490    0.5403    0.0000 C   0  0  0  0  0  0  0  0  0  0  0  0
   -0.0345    0.1278    0.0000 C   0  0  0  0  0  0  0  0  0  0  0  0
    0.6800    0.5403    0.0000 C   0  0  0  0  0  0  0  0  0  0  0  0
    1.3944    0.1278    0.0000 C   0  0  0  0  0  0  0  0  0  0  0  0
    2.1089    0.5403    0.0000 O   0  0  0  0  0  0  0  0  0  0  0  0
    1.3944   -0.6972    0.0000 C   0  0  0  0  0  0  0  0  0  0  0  0
    2.0619   -1.1821    0.0000 O   0  0  0  0  0  0  0  0  0  0  0  0
    1.8069   -1.9667    0.0000 C   0  0  0  0  0  0  0  0  0  0  0  0
    2.2919   -2.6342    0.0000 N   0  0  0  0  0  0  0  0  0  0  0  0
    0.9819   -1.9667    0.0000 N   0  0  0  0  0  0  0  0  0  0  0  0
    0.7270   -1.1821    0.0000 C   0  0  0  0  0  0  0  0  0  0  0  0
    1.5737    1.8813    0.0000 H   0  0  0  0  0  0  0  0  0  0  0  0
   -1.6427    1.8813    0.0000 H   0  0  0  0  0  0  0  0  0  0  0  0
   -1.6427    0.0243    0.0000 H   0  0  0  0  0  0  0  0  0  0  0  0
   -0.0345   -0.9042    0.0000 H   0  0  0  0  0  0  0  0  0  0  0  0
    1.8915   -3.5336    0.0000 H   0  0  0  0  0  0  0  0  0  0  0  0
    3.2710   -2.5313    0.0000 H   0  0  0  0  0  0  0  0  0  0  0  0
   -0.2545   -0.8632    0.0000 H   0  0  0  0  0  0  0  0  0  0  0  0
  1  2  1  0  0  0  0
  2  3  1  0  0  0  0
  2  4  2  0  0  0  0
  3  7  2  0  0  0  0
  3 16  1  0  0  0  0
  4  5  1  0  0  0  0
  4 17  1  0  0  0  0
  5  6  2  0  0  0  0
  5 18  1  0  0  0  0
  6  7  1  0  0  0  0
  6 19  1  0  0  0  0
  7  8  1  0  0  0  0
  8  9  2  0  0  0  0
  8 10  1  0  0  0  0
 10 11  1  0  0  0  0
 10 15  2  0  0  0  0
 11 12  1  0  0  0  0
 12 13  1  0  0  0  0
 12 14  2  0  0  0  0
 13 20  1  0  0  0  0
 13 21  1  0  0  0  0
 14 15  1  0  0  0  0
 15 22  1  0  0  0  0
M  END
>  <DRUGBANK_ID>
DB08314

>  <COMMON_NAME>
(2-AMINO-1,3-OXAZOL-5-YL)-(3-BROMOPHENYL)METHANONE

$$$$
