
 OpenBabel10282417072D

 40 42  0  0  1  0  0  0  0  0999 V2000
   -0.6880   -4.6754    0.0000 O   0  0  0  0  0  0  0  0  0  0  0  0
   -1.2400   -4.0623    0.0000 C   0  0  1  0  0  0  0  0  0  0  0  0
   -2.0470   -4.2338    0.0000 C   0  0  0  0  0  0  0  0  0  0  0  0
   -2.5990   -3.6207    0.0000 C   0  0  0  0  0  0  0  0  0  0  0  0
   -2.3441   -2.8361    0.0000 C   0  0  0  0  0  0  0  0  0  0  0  0
   -1.5371   -2.6646    0.0000 N   0  0  0  0  0  0  0  0  0  0  0  0
   -0.9851   -3.2777    0.0000 C   0  0  2  0  0  0  0  0  0  0  0  0
   -0.1781   -3.1062    0.0000 C   0  0  0  0  0  0  0  0  0  0  0  0
    0.0768   -2.3215    0.0000 C   0  0  0  0  0  0  0  0  0  0  0  0
    0.8838   -2.1500    0.0000 C   0  0  0  0  0  0  0  0  0  0  0  0
    1.1387   -1.3654    0.0000 N   0  0  0  0  0  0  0  0  0  0  0  0
    0.6538   -0.6979    0.0000 C   0  0  0  0  0  0  0  0  0  0  0  0
    1.1387   -0.0305    0.0000 N   0  0  0  0  0  0  0  0  0  0  0  0
    1.9233   -0.2854    0.0000 C   0  0  0  0  0  0  0  0  0  0  0  0
    2.6378    0.1271    0.0000 C   0  0  0  0  0  0  0  0  0  0  0  0
    2.6378    0.9521    0.0000 Cl  0  0  0  0  0  0  0  0  0  0  0  0
    3.3523   -0.2854    0.0000 C   0  0  0  0  0  0  0  0  0  0  0  0
    4.0668    0.1271    0.0000 Cl  0  0  0  0  0  0  0  0  0  0  0  0
    3.3523   -1.1104    0.0000 C   0  0  0  0  0  0  0  0  0  0  0  0
    2.6378   -1.5229    0.0000 C   0  0  0  0  0  0  0  0  0  0  0  0
    1.9233   -1.1104    0.0000 C   0  0  0  0  0  0  0  0  0  0  0  0
   -0.9878   -5.5979    0.0000 H   0  0  0  0  0  0  0  0  0  0  0  0
   -1.5707   -5.0799    0.0000 H   0  0  0  0  0  0  0  0  0  0  0  0
   -2.3777   -5.2514    0.0000 H   0  0  0  0  0  0  0  0  0  0  0  0
   -3.0936   -4.4562    0.0000 H   0  0  0  0  0  0  0  0  0  0  0  0
   -3.6456   -3.8432    0.0000 H   0  0  0  0  0  0  0  0  0  0  0  0
   -3.3150   -2.8255    0.0000 H   0  0  0  0  0  0  0  0  0  0  0  0
   -3.0601   -2.0409    0.0000 H   0  0  0  0  0  0  0  0  0  0  0  0
   -2.0134   -1.8185    0.0000 H   0  0  0  0  0  0  0  0  0  0  0  0
   -1.2219   -1.6945    0.0000 H   0  0  0  0  0  0  0  0  0  0  0  0
   -0.6544   -2.2601    0.0000 H   0  0  0  0  0  0  0  0  0  0  0  0
    0.5379   -3.9014    0.0000 H   0  0  0  0  0  0  0  0  0  0  0  0
    0.8685   -2.8837    0.0000 H   0  0  0  0  0  0  0  0  0  0  0  0
   -0.6392   -1.5263    0.0000 H   0  0  0  0  0  0  0  0  0  0  0  0
    0.4075   -1.3039    0.0000 H   0  0  0  0  0  0  0  0  0  0  0  0
    1.5998   -2.9452    0.0000 H   0  0  0  0  0  0  0  0  0  0  0  0
    1.9304   -1.9275    0.0000 H   0  0  0  0  0  0  0  0  0  0  0  0
   -0.3782   -0.6979    0.0000 H   0  0  0  0  0  0  0  0  0  0  0  0
    4.2460   -1.6264    0.0000 H   0  0  0  0  0  0  0  0  0  0  0  0
    2.6378   -2.5549    0.0000 H   0  0  0  0  0  0  0  0  0  0  0  0
  1 22  1  0  0  0  0
  2  1  1  0  0  0  0
  2  3  1  0  0  0  0
  2  7  1  0  0  0  0
  2 23  1  6  0  0  0
  3  4  1  0  0  0  0
  3 24  1  0  0  0  0
  3 25  1  0  0  0  0
  4  5  1  0  0  0  0
  4 26  1  0  0  0  0
  4 27  1  0  0  0  0
  5  6  1  0  0  0  0
  5 28  1  0  0  0  0
  5 29  1  0  0  0  0
  6 30  1  0  0  0  0
  7  6  1  0  0  0  0
  7  8  1  0  0  0  0
  7 31  1  1  0  0  0
  8  9  1  0  0  0  0
  8 32  1  0  0  0  0
  8 33  1  0  0  0  0
  9 10  1  0  0  0  0
  9 34  1  0  0  0  0
  9 35  1  0  0  0  0
 10 11  1  0  0  0  0
 10 36  1  0  0  0  0
 10 37  1  0  0  0  0
 11 12  1  0  0  0  0
 11 21  1  0  0  0  0
 12 13  2  0  0  0  0
 12 38  1  0  0  0  0
 13 14  1  0  0  0  0
 14 15  2  0  0  0  0
 14 21  1  0  0  0  0
 15 16  1  0  0  0  0
 15 17  1  0  0  0  0
 17 18  1  0  0  0  0
 17 19  2  0  0  0  0
 19 20  1  0  0  0  0
 19 39  1  0  0  0  0
 20 21  2  0  0  0  0
 20 40  1  0  0  0  0
M  END
>  <DRUGBANK_ID>
DB18017

>  <COMMON_NAME>
Bersiporocin

>  <CAS_NUMBER>
2241808-52-4

>  <UNII>
TTU6QSK1G5

>  <SYNONYMS>
(2r,3s)-2-(3-(4,5-dichloro-1h-benzo(d)imidazol-1-yl)propyl)piperidin-3-ol; 3-piperidinol, 2-(3-(4,5-dichloro-1h-benzimidazol-1-yl)propyl)-, (2r,3s)

$$$$
