
 OpenBabel10282417072D

 45 46  0  0  0  0  0  0  0  0999 V2000
    2.2835   -0.2676    0.0000 C   0  0  0  0  0  0  0  0  0  0  0  0
    1.5690    0.1448    0.0000 C   0  0  0  0  0  0  0  0  0  0  0  0
    0.8545   -0.2676    0.0000 C   0  0  2  0  0  0  0  0  0  0  0  0
    0.8545   -1.0926    0.0000 C   0  0  0  0  0  0  0  0  0  0  0  0
    0.1401   -1.5051    0.0000 N   0  0  0  0  0  0  0  0  0  0  0  0
    0.1401   -2.3301    0.0000 C   0  0  0  0  0  0  0  0  0  0  0  0
   -0.5743   -1.0926    0.0000 C   0  0  0  0  0  0  0  0  0  0  0  0
   -0.5743   -0.2676    0.0000 C   0  0  0  0  0  0  0  0  0  0  0  0
    0.1401    0.1448    0.0000 C   0  0  1  0  0  0  0  0  0  0  0  0
   -0.2472    0.8732    0.0000 O   0  0  0  0  0  0  0  0  0  0  0  0
   -1.0717    0.9020    0.0000 C   0  0  0  0  0  0  0  0  0  0  0  0
   -1.5088    0.2024    0.0000 O   0  0  0  0  0  0  0  0  0  0  0  0
   -1.4590    1.6305    0.0000 C   0  0  0  0  0  0  0  0  0  0  0  0
   -2.2835    1.6593    0.0000 C   0  0  0  0  0  0  0  0  0  0  0  0
    0.5274    0.8732    0.0000 C   0  0  0  0  0  0  0  0  0  0  0  0
    0.0902    1.5729    0.0000 C   0  0  0  0  0  0  0  0  0  0  0  0
    0.4775    2.3013    0.0000 C   0  0  0  0  0  0  0  0  0  0  0  0
    1.3020    2.3301    0.0000 C   0  0  0  0  0  0  0  0  0  0  0  0
    1.7392    1.6305    0.0000 C   0  0  0  0  0  0  0  0  0  0  0  0
    1.3519    0.9020    0.0000 C   0  0  0  0  0  0  0  0  0  0  0  0
    2.2836   -1.3376    0.0000 H   0  0  0  0  0  0  0  0  0  0  0  0
    3.2101    0.2675    0.0000 H   0  0  0  0  0  0  0  0  0  0  0  0
    3.2102   -0.8025    0.0000 H   0  0  0  0  0  0  0  0  0  0  0  0
    1.5690    1.2148    0.0000 H   0  0  0  0  0  0  0  0  0  0  0  0
    0.6424    0.6799    0.0000 H   0  0  0  0  0  0  0  0  0  0  0  0
    1.7811   -0.8027    0.0000 H   0  0  0  0  0  0  0  0  0  0  0  0
    1.7812   -1.6276    0.0000 H   0  0  0  0  0  0  0  0  0  0  0  0
    0.8545   -2.1626    0.0000 H   0  0  0  0  0  0  0  0  0  0  0  0
   -0.7865   -2.8651    0.0000 H   0  0  0  0  0  0  0  0  0  0  0  0
    1.0667   -2.8651    0.0000 H   0  0  0  0  0  0  0  0  0  0  0  0
    0.1401   -3.4001    0.0000 H   0  0  0  0  0  0  0  0  0  0  0  0
   -1.5010   -1.6276    0.0000 H   0  0  0  0  0  0  0  0  0  0  0  0
   -1.5009   -0.5576    0.0000 H   0  0  0  0  0  0  0  0  0  0  0  0
   -1.5009    0.2674    0.0000 H   0  0  0  0  0  0  0  0  0  0  0  0
   -0.5743    0.8024    0.0000 H   0  0  0  0  0  0  0  0  0  0  0  0
   -0.8920    2.5379    0.0000 H   0  0  0  0  0  0  0  0  0  0  0  0
   -1.9613    2.5753    0.0000 H   0  0  0  0  0  0  0  0  0  0  0  0
   -2.7858    2.6041    0.0000 H   0  0  0  0  0  0  0  0  0  0  0  0
   -2.8505    0.7519    0.0000 H   0  0  0  0  0  0  0  0  0  0  0  0
   -3.3528    1.6967    0.0000 H   0  0  0  0  0  0  0  0  0  0  0  0
   -0.9412    1.5369    0.0000 H   0  0  0  0  0  0  0  0  0  0  0  0
   -0.0694    3.1765    0.0000 H   0  0  0  0  0  0  0  0  0  0  0  0
    1.7865    3.2413    0.0000 H   0  0  0  0  0  0  0  0  0  0  0  0
    2.7706    1.6666    0.0000 H   0  0  0  0  0  0  0  0  0  0  0  0
    1.8988    0.0268    0.0000 H   0  0  0  0  0  0  0  0  0  0  0  0
  1  2  1  0  0  0  0
  1 21  1  0  0  0  0
  1 22  1  0  0  0  0
  1 23  1  0  0  0  0
  2 24  1  0  0  0  0
  2 25  1  0  0  0  0
  3  2  1  0  0  0  0
  3  4  1  0  0  0  0
  3  9  1  0  0  0  0
  3 26  1  1  0  0  0
  4  5  1  0  0  0  0
  4 27  1  0  0  0  0
  4 28  1  0  0  0  0
  5  6  1  0  0  0  0
  5  7  1  0  0  0  0
  6 29  1  0  0  0  0
  6 30  1  0  0  0  0
  6 31  1  0  0  0  0
  7  8  1  0  0  0  0
  7 32  1  0  0  0  0
  7 33  1  0  0  0  0
  8  9  1  0  0  0  0
  8 34  1  0  0  0  0
  8 35  1  0  0  0  0
  9 10  1  1  0  0  0
  9 15  1  0  0  0  0
 10 11  1  0  0  0  0
 11 12  2  0  0  0  0
 11 13  1  0  0  0  0
 13 14  1  0  0  0  0
 13 36  1  0  0  0  0
 13 37  1  0  0  0  0
 14 38  1  0  0  0  0
 14 39  1  0  0  0  0
 14 40  1  0  0  0  0
 15 16  2  0  0  0  0
 15 20  1  0  0  0  0
 16 17  1  0  0  0  0
 16 41  1  0  0  0  0
 17 18  2  0  0  0  0
 17 42  1  0  0  0  0
 18 19  1  0  0  0  0
 18 43  1  0  0  0  0
 19 20  2  0  0  0  0
 19 44  1  0  0  0  0
 20 45  1  0  0  0  0
M  END
>  <DRUGBANK_ID>
DB01552

>  <COMMON_NAME>
Betameprodine

>  <CAS_NUMBER>
468-50-8

>  <UNII>
4XS533X38C

>  <SYNONYMS>
beta-1-Methyl-3-ethyl-4-phenyl-4-propionoxy-piperidin; beta-3-Ethyl-1-methyl-4-phenyl-4-propionoxypiperidine; beta-meprodine; Betameprodina; Betameprodine; Betameprodinum

$$$$
