
 OpenBabel10282417072D

 96102  0  0  0  0  0  0  0  0999 V2000
   -1.1700   -0.6743    0.0000 C   0  0  0  0  0  0  0  0  0  0  0  0
   -1.9950   -0.6744    0.0000 C   0  0  0  0  0  0  0  0  0  0  0  0
   -0.7574   -1.3887    0.0000 O   0  0  0  0  0  0  0  0  0  0  0  0
   -0.7575    0.0401    0.0000 N   0  0  0  0  0  0  0  0  0  0  0  0
   -2.0720   -2.1425    0.0000 N   0  0  0  0  0  0  0  0  0  0  0  0
   -2.4075   -1.3887    0.0000 N   0  0  0  0  0  0  0  0  0  0  0  0
   -3.2281   -1.4749    0.0000 C   0  0  0  0  0  0  0  0  0  0  0  0
   -3.3996   -2.2820    0.0000 C   0  0  0  0  0  0  0  0  0  0  0  0
   -2.6850   -2.6945    0.0000 C   0  0  0  0  0  0  0  0  0  0  0  0
   -4.2200   -2.3682    0.0000 C   0  0  2  0  0  0  0  0  0  0  0  0
   -4.5556   -1.6146    0.0000 C   0  0  2  0  0  0  0  0  0  0  0  0
   -3.9424   -1.0625    0.0000 C   0  0  0  0  0  0  0  0  0  0  0  0
   -5.0405   -2.2819    0.0000 C   0  0  0  0  0  0  0  0  0  0  0  0
   -2.5987   -3.5149    0.0000 C   0  0  0  0  0  0  0  0  0  0  0  0
   -3.2907   -3.9643    0.0000 F   0  0  0  0  0  0  0  0  0  0  0  0
   -2.5557   -4.3389    0.0000 F   0  0  0  0  0  0  0  0  0  0  0  0
   -1.8638   -3.8895    0.0000 F   0  0  0  0  0  0  0  0  0  0  0  0
   -3.6070   -0.3089    0.0000 F   0  0  0  0  0  0  0  0  0  0  0  0
   -4.4275   -0.3952    0.0000 F   0  0  0  0  0  0  0  0  0  0  0  0
    0.0674    0.0400    0.0000 C   0  0  1  0  0  0  0  0  0  0  0  0
    0.4797   -0.6742    0.0000 C   0  0  0  0  0  0  0  0  0  0  0  0
    1.3049   -0.6743    0.0000 C   0  0  0  0  0  0  0  0  0  0  0  0
    1.7173    0.0401    0.0000 C   0  0  0  0  0  0  0  0  0  0  0  0
    2.5423    0.0400    0.0000 C   0  0  0  0  0  0  0  0  0  0  0  0
    2.9548   -0.6742    0.0000 C   0  0  0  0  0  0  0  0  0  0  0  0
    2.5424   -1.3888    0.0000 C   0  0  0  0  0  0  0  0  0  0  0  0
    1.7173   -1.3889    0.0000 C   0  0  0  0  0  0  0  0  0  0  0  0
    2.9548   -2.1033    0.0000 F   0  0  0  0  0  0  0  0  0  0  0  0
    2.9548    0.7545    0.0000 F   0  0  0  0  0  0  0  0  0  0  0  0
    0.4797    0.7545    0.0000 C   0  0  0  0  0  0  0  0  0  0  0  0
    0.0674    1.4689    0.0000 C   0  0  0  0  0  0  0  0  0  0  0  0
    0.4798    2.1833    0.0000 C   0  0  0  0  0  0  0  0  0  0  0  0
    1.3048    2.1834    0.0000 C   0  0  0  0  0  0  0  0  0  0  0  0
    1.7173    1.4689    0.0000 C   0  0  0  0  0  0  0  0  0  0  0  0
    1.3049    0.7545    0.0000 N   0  0  0  0  0  0  0  0  0  0  0  0
    2.5422    1.4689    0.0000 C   0  0  0  0  0  0  0  0  0  0  0  0
    3.3673    1.4688    0.0000 C   0  0  0  0  0  0  0  0  0  0  0  0
    4.1923    1.4689    0.0000 C   0  0  0  0  0  0  0  0  0  0  0  0
    4.9068    1.0563    0.0000 C   0  0  0  0  0  0  0  0  0  0  0  0
    4.6049    2.1835    0.0000 S   0  0  0  0  0  0  0  0  0  0  0  0
    5.3193    1.7709    0.0000 O   0  0  0  0  0  0  0  0  0  0  0  0
    3.8903    2.5959    0.0000 O   0  0  0  0  0  0  0  0  0  0  0  0
    5.0173    2.8978    0.0000 C   0  0  0  0  0  0  0  0  0  0  0  0
    4.1924    0.6440    0.0000 C   0  0  0  0  0  0  0  0  0  0  0  0
   -0.9150    2.9681    0.0000 N   0  0  0  0  0  0  0  0  0  0  0  0
   -1.5825    3.4529    0.0000 N   0  0  0  0  0  0  0  0  0  0  0  0
   -2.2500    2.9680    0.0000 C   0  0  0  0  0  0  0  0  0  0  0  0
   -1.9950    2.1835    0.0000 C   0  0  0  0  0  0  0  0  0  0  0  0
   -2.4075    1.4689    0.0000 C   0  0  0  0  0  0  0  0  0  0  0  0
   -1.9950    0.7544    0.0000 C   0  0  0  0  0  0  0  0  0  0  0  0
   -1.1701    0.7544    0.0000 C   0  0  0  0  0  0  0  0  0  0  0  0
   -0.7576    1.4690    0.0000 C   0  0  0  0  0  0  0  0  0  0  0  0
   -1.1699    2.1834    0.0000 C   0  0  0  0  0  0  0  0  0  0  0  0
   -0.1304    3.2230    0.0000 C   0  0  0  0  0  0  0  0  0  0  0  0
    0.0410    4.0300    0.0000 C   0  0  0  0  0  0  0  0  0  0  0  0
   -0.5720    4.5820    0.0000 F   0  0  0  0  0  0  0  0  0  0  0  0
    0.2126    4.8369    0.0000 F   0  0  0  0  0  0  0  0  0  0  0  0
    0.8256    4.2849    0.0000 F   0  0  0  0  0  0  0  0  0  0  0  0
   -3.0346    3.2230    0.0000 N   0  0  0  0  0  0  0  0  0  0  0  0
   -3.6477    2.6709    0.0000 S   0  0  0  0  0  0  0  0  0  0  0  0
   -4.1997    3.2840    0.0000 O   0  0  0  0  0  0  0  0  0  0  0  0
   -3.0957    2.0579    0.0000 O   0  0  0  0  0  0  0  0  0  0  0  0
   -4.2608    2.1189    0.0000 C   0  0  0  0  0  0  0  0  0  0  0  0
   -3.2325    1.4688    0.0000 Cl  0  0  0  0  0  0  0  0  0  0  0  0
   -4.2201   -3.1931    0.0000 H   0  0  0  0  0  0  0  0  0  0  0  0
   -5.1687   -1.0624    0.0000 H   0  0  0  0  0  0  0  0  0  0  0  0
   -2.5300    0.2522    0.0000 H   0  0  0  0  0  0  0  0  0  0  0  0
   -3.0650   -0.6743    0.0000 H   0  0  0  0  0  0  0  0  0  0  0  0
   -1.2497    0.8927    0.0000 H   0  0  0  0  0  0  0  0  0  0  0  0
   -6.0180   -2.7170    0.0000 H   0  0  0  0  0  0  0  0  0  0  0  0
   -5.7138   -1.4503    0.0000 H   0  0  0  0  0  0  0  0  0  0  0  0
   -0.4677   -0.8866    0.0000 H   0  0  0  0  0  0  0  0  0  0  0  0
   -0.0554   -1.6008    0.0000 H   0  0  0  0  0  0  0  0  0  0  0  0
    1.0146   -1.6009    0.0000 H   0  0  0  0  0  0  0  0  0  0  0  0
    1.2013    0.9339    0.0000 H   0  0  0  0  0  0  0  0  0  0  0  0
    3.9868   -0.6740    0.0000 H   0  0  0  0  0  0  0  0  0  0  0  0
    1.2013   -2.2826    0.0000 H   0  0  0  0  0  0  0  0  0  0  0  0
   -0.0363    3.0770    0.0000 H   0  0  0  0  0  0  0  0  0  0  0  0
    1.8208    3.0772    0.0000 H   0  0  0  0  0  0  0  0  0  0  0  0
    4.9067   -0.0137    0.0000 H   0  0  0  0  0  0  0  0  0  0  0  0
    5.8335    1.5912    0.0000 H   0  0  0  0  0  0  0  0  0  0  0  0
    5.8334    0.5212    0.0000 H   0  0  0  0  0  0  0  0  0  0  0  0
    6.0873    2.8978    0.0000 H   0  0  0  0  0  0  0  0  0  0  0  0
    4.4823    3.8244    0.0000 H   0  0  0  0  0  0  0  0  0  0  0  0
    5.5523    3.8244    0.0000 H   0  0  0  0  0  0  0  0  0  0  0  0
    3.2658    0.1089    0.0000 H   0  0  0  0  0  0  0  0  0  0  0  0
    5.1191    0.1091    0.0000 H   0  0  0  0  0  0  0  0  0  0  0  0
    4.1925   -0.4260    0.0000 H   0  0  0  0  0  0  0  0  0  0  0  0
   -2.5110   -0.1393    0.0000 H   0  0  0  0  0  0  0  0  0  0  0  0
   -0.6541   -0.1393    0.0000 H   0  0  0  0  0  0  0  0  0  0  0  0
    0.6648    2.5071    0.0000 H   0  0  0  0  0  0  0  0  0  0  0  0
   -0.3529    2.1764    0.0000 H   0  0  0  0  0  0  0  0  0  0  0  0
   -3.2393    4.1860    0.0000 H   0  0  0  0  0  0  0  0  0  0  0  0
   -5.2784    2.4496    0.0000 H   0  0  0  0  0  0  0  0  0  0  0  0
   -4.0384    1.0723    0.0000 H   0  0  0  0  0  0  0  0  0  0  0  0
   -5.0560    1.4030    0.0000 H   0  0  0  0  0  0  0  0  0  0  0  0
  1  2  1  0  0  0  0
  1  3  2  0  0  0  0
  1  4  1  0  0  0  0
  2  6  1  0  0  0  0
  2 67  1  0  0  0  0
  2 68  1  0  0  0  0
  4 69  1  0  0  0  0
  5  6  1  0  0  0  0
  5  9  2  0  0  0  0
  6  7  1  0  0  0  0
  7  8  2  0  0  0  0
  8  9  1  0  0  0  0
  9 14  1  0  0  0  0
 10 11  1  0  0  0  0
 10  8  1  0  0  0  0
 10 65  1  6  0  0  0
 11 12  1  0  0  0  0
 11 66  1  6  0  0  0
 12  7  1  0  0  0  0
 12 18  1  0  0  0  0
 12 19  1  0  0  0  0
 13 10  1  0  0  0  0
 13 11  1  0  0  0  0
 13 70  1  0  0  0  0
 13 71  1  0  0  0  0
 14 15  1  0  0  0  0
 14 16  1  0  0  0  0
 14 17  1  0  0  0  0
 20 21  1  0  0  0  0
 20 30  1  0  0  0  0
 20  4  1  0  0  0  0
 20 72  1  1  0  0  0
 21 22  1  0  0  0  0
 21 73  1  0  0  0  0
 21 74  1  0  0  0  0
 22 23  1  0  0  0  0
 22 27  2  0  0  0  0
 23 24  2  0  0  0  0
 23 75  1  0  0  0  0
 24 25  1  0  0  0  0
 24 29  1  0  0  0  0
 25 26  2  0  0  0  0
 25 76  1  0  0  0  0
 26 27  1  0  0  0  0
 26 28  1  0  0  0  0
 27 77  1  0  0  0  0
 30 31  1  0  0  0  0
 30 35  2  0  0  0  0
 31 32  2  0  0  0  0
 31 52  1  0  0  0  0
 32 33  1  0  0  0  0
 32 78  1  0  0  0  0
 33 34  2  0  0  0  0
 33 79  1  0  0  0  0
 34 35  1  0  0  0  0
 34 36  1  0  0  0  0
 36 37  3  0  0  0  0
 37 38  1  0  0  0  0
 38 39  1  0  0  0  0
 38 40  1  0  0  0  0
 38 44  1  0  0  0  0
 39 80  1  0  0  0  0
 39 81  1  0  0  0  0
 39 82  1  0  0  0  0
 40 41  2  0  0  0  0
 40 42  2  0  0  0  0
 40 43  1  0  0  0  0
 43 83  1  0  0  0  0
 43 84  1  0  0  0  0
 43 85  1  0  0  0  0
 44 86  1  0  0  0  0
 44 87  1  0  0  0  0
 44 88  1  0  0  0  0
 45 46  1  0  0  0  0
 45 53  1  0  0  0  0
 45 54  1  0  0  0  0
 46 47  2  0  0  0  0
 47 48  1  0  0  0  0
 47 59  1  0  0  0  0
 48 49  1  0  0  0  0
 48 53  2  0  0  0  0
 49 50  2  0  0  0  0
 49 64  1  0  0  0  0
 50 51  1  0  0  0  0
 50 89  1  0  0  0  0
 51 52  2  0  0  0  0
 51 90  1  0  0  0  0
 52 53  1  0  0  0  0
 54 55  1  0  0  0  0
 54 91  1  0  0  0  0
 54 92  1  0  0  0  0
 55 56  1  0  0  0  0
 55 57  1  0  0  0  0
 55 58  1  0  0  0  0
 59 60  1  0  0  0  0
 59 93  1  0  0  0  0
 60 61  2  0  0  0  0
 60 62  2  0  0  0  0
 60 63  1  0  0  0  0
 63 94  1  0  0  0  0
 63 95  1  0  0  0  0
 63 96  1  0  0  0  0
M  END
>  <DRUGBANK_ID>
DB15673

>  <COMMON_NAME>
Lenacapavir

>  <CAS_NUMBER>
2189684-44-2

>  <UNII>
A9A0O6FB4H

>  <SYNONYMS>
Lenacapavir

$$$$
