
 OpenBabel10282417072D

 25 24  0  0  1  0  0  0  0  0999 V2000
   22.2164  -15.6487    0.0000 O   0  0  0  0  0  0  0  0  0  0  0  0
   21.5020  -17.7111    0.0000 O   0  0  0  0  0  0  0  0  0  0  0  0
   22.9309  -17.7111    0.0000 O   0  0  0  0  0  0  0  0  0  0  0  0
   20.7876  -15.6487    0.0000 O   0  0  0  0  0  0  0  0  0  0  0  0
   24.3597  -16.8862    0.0000 O   0  0  0  0  0  0  0  0  0  0  0  0
   19.3587  -16.4736    0.0000 O   0  0  0  0  0  0  0  0  0  0  0  0
   20.0732  -17.7111    0.0000 O   0  0  0  0  0  0  0  0  0  0  0  0
   22.2164  -16.4736    0.0000 C   0  0  1  0  0  0  0  0  0  0  0  0
   21.5020  -16.8862    0.0000 C   0  0  1  0  0  0  0  0  0  0  0  0
   22.9309  -16.8862    0.0000 C   0  0  1  0  0  0  0  0  0  0  0  0
   20.7876  -16.4736    0.0000 C   0  0  2  0  0  0  0  0  0  0  0  0
   23.6452  -16.4736    0.0000 C   0  0  0  0  0  0  0  0  0  0  0  0
   20.0732  -16.8862    0.0000 C   0  0  0  0  0  0  0  0  0  0  0  0
   23.0564  -15.1637    0.0000 H   0  0  0  0  0  0  0  0  0  0  0  0
   20.6620  -18.1961    0.0000 H   0  0  0  0  0  0  0  0  0  0  0  0
   22.0909  -18.1961    0.0000 H   0  0  0  0  0  0  0  0  0  0  0  0
   21.6276  -15.1637    0.0000 H   0  0  0  0  0  0  0  0  0  0  0  0
   24.3596  -17.8562    0.0000 H   0  0  0  0  0  0  0  0  0  0  0  0
   19.3588  -15.5366    0.0000 H   0  0  0  0  0  0  0  0  0  0  0  0
   21.2897  -15.9387    0.0000 H   0  0  0  0  0  0  0  0  0  0  0  0
   22.4287  -17.4211    0.0000 H   0  0  0  0  0  0  0  0  0  0  0  0
   22.0042  -17.4212    0.0000 H   0  0  0  0  0  0  0  0  0  0  0  0
   21.7143  -15.9387    0.0000 H   0  0  0  0  0  0  0  0  0  0  0  0
   23.6451  -15.4036    0.0000 H   0  0  0  0  0  0  0  0  0  0  0  0
   22.7185  -15.9387    0.0000 H   0  0  0  0  0  0  0  0  0  0  0  0
  1 14  1  0  0  0  0
  2 15  1  0  0  0  0
  3 16  1  0  0  0  0
  4 17  1  0  0  0  0
  5 12  1  0  0  0  0
  5 18  1  0  0  0  0
  6 13  1  0  0  0  0
  6 19  1  0  0  0  0
  7 13  2  0  0  0  0
  8  1  1  0  0  0  0
  8  9  1  0  0  0  0
  8 10  1  0  0  0  0
  8 20  1  1  0  0  0
  9  2  1  0  0  0  0
  9 11  1  0  0  0  0
  9 21  1  1  0  0  0
 10  3  1  0  0  0  0
 10 12  1  0  0  0  0
 10 22  1  6  0  0  0
 11  4  1  0  0  0  0
 11 13  1  0  0  0  0
 11 23  1  1  0  0  0
 12 24  1  0  0  0  0
 12 25  1  0  0  0  0
M  END
>  <DRUGBANK_ID>
DB13180

>  <SECONDARY_ACCESSION_NUMBERS>
DB09408

>  <COMMON_NAME>
Gluconic Acid

>  <CAS_NUMBER>
526-95-4

>  <UNII>
R4R8J0Q44B

>  <SYNONYMS>
D-Gluconic Acid; Dextronic acid; Maltonic acid

$$$$
