GVP
 OpenBabel10282417072D

 44 47  0  0  0  0  0  0  0  0999 V2000
    3.3070    2.1704    0.0000 Cl  0  0  0  0  0  0  0  0  0  0  0  0
    2.4946    2.3137    0.0000 C   0  0  0  0  0  0  0  0  0  0  0  0
    1.9643    1.6817    0.0000 C   0  0  0  0  0  0  0  0  0  0  0  0
    1.1518    1.8249    0.0000 C   0  0  0  0  0  0  0  0  0  0  0  0
    0.8696    2.6002    0.0000 C   0  0  0  0  0  0  0  0  0  0  0  0
    1.3999    3.2322    0.0000 C   0  0  0  0  0  0  0  0  0  0  0  0
    2.2124    3.0889    0.0000 C   0  0  0  0  0  0  0  0  0  0  0  0
    0.0572    2.7434    0.0000 C   0  0  0  0  0  0  0  0  0  0  0  0
   -0.7553    2.6002    0.0000 C   0  0  0  0  0  0  0  0  0  0  0  0
   -1.2856    3.2322    0.0000 C   0  0  0  0  0  0  0  0  0  0  0  0
   -1.0034    4.0074    0.0000 N   0  0  0  0  0  0  0  0  0  0  0  0
   -0.1910    4.1507    0.0000 C   0  0  0  0  0  0  0  0  0  0  0  0
    0.3393    3.5187    0.0000 C   0  0  0  0  0  0  0  0  0  0  0  0
    0.0572    1.9184    0.0000 C   0  0  0  0  0  0  0  0  0  0  0  0
   -0.6573    1.5059    0.0000 C   0  0  0  0  0  0  0  0  0  0  0  0
   -0.6573    0.6809    0.0000 C   0  0  0  0  0  0  0  0  0  0  0  0
    0.0572    0.2684    0.0000 C   0  0  0  0  0  0  0  0  0  0  0  0
    0.7716    0.6809    0.0000 C   0  0  0  0  0  0  0  0  0  0  0  0
    0.7716    1.5059    0.0000 C   0  0  0  0  0  0  0  0  0  0  0  0
    0.0572   -0.5566    0.0000 C   0  0  0  0  0  0  0  0  0  0  0  0
    0.7246   -1.0415    0.0000 C   0  0  0  0  0  0  0  0  0  0  0  0
    0.4697   -1.8261    0.0000 N   0  0  0  0  0  0  0  0  0  0  0  0
   -0.3553   -1.8261    0.0000 N   0  0  0  0  0  0  0  0  0  0  0  0
   -0.6103   -1.0415    0.0000 C   0  0  0  0  0  0  0  0  0  0  0  0
    2.3173    0.7120    0.0000 H   0  0  0  0  0  0  0  0  0  0  0  0
    0.4885    1.0343    0.0000 H   0  0  0  0  0  0  0  0  0  0  0  0
    1.0470    4.2020    0.0000 H   0  0  0  0  0  0  0  0  0  0  0  0
    2.8758    3.8795    0.0000 H   0  0  0  0  0  0  0  0  0  0  0  0
   -1.1213    1.5947    0.0000 H   0  0  0  0  0  0  0  0  0  0  0  0
   -1.8090    2.4144    0.0000 H   0  0  0  0  0  0  0  0  0  0  0  0
   -2.3394    3.0464    0.0000 H   0  0  0  0  0  0  0  0  0  0  0  0
   -1.9733    4.0519    0.0000 H   0  0  0  0  0  0  0  0  0  0  0  0
   -1.6590    4.7888    0.0000 H   0  0  0  0  0  0  0  0  0  0  0  0
    0.1749    5.1562    0.0000 H   0  0  0  0  0  0  0  0  0  0  0  0
    0.8627    4.3365    0.0000 H   0  0  0  0  0  0  0  0  0  0  0  0
    1.3930    3.7045    0.0000 H   0  0  0  0  0  0  0  0  0  0  0  0
    0.7052    4.5242    0.0000 H   0  0  0  0  0  0  0  0  0  0  0  0
   -1.5510    2.0219    0.0000 H   0  0  0  0  0  0  0  0  0  0  0  0
   -1.5510    0.1649    0.0000 H   0  0  0  0  0  0  0  0  0  0  0  0
    1.6653    0.1649    0.0000 H   0  0  0  0  0  0  0  0  0  0  0  0
    1.6653    2.0219    0.0000 H   0  0  0  0  0  0  0  0  0  0  0  0
    1.7061   -0.7226    0.0000 H   0  0  0  0  0  0  0  0  0  0  0  0
    1.0484   -2.6226    0.0000 H   0  0  0  0  0  0  0  0  0  0  0  0
   -1.5918   -0.7226    0.0000 H   0  0  0  0  0  0  0  0  0  0  0  0
  1  2  1  0  0  0  0
  2  3  1  0  0  0  0
  2  7  2  0  0  0  0
  3  4  2  0  0  0  0
  3 25  1  0  0  0  0
  4  5  1  0  0  0  0
  4 26  1  0  0  0  0
  5  6  2  0  0  0  0
  5  8  1  0  0  0  0
  6  7  1  0  0  0  0
  6 27  1  0  0  0  0
  7 28  1  0  0  0  0
  8  9  1  0  0  0  0
  8 13  1  0  0  0  0
  8 14  1  0  0  0  0
  9 10  1  0  0  0  0
  9 29  1  0  0  0  0
  9 30  1  0  0  0  0
 10 11  1  0  0  0  0
 10 31  1  0  0  0  0
 10 32  1  0  0  0  0
 11 12  1  0  0  0  0
 11 33  1  0  0  0  0
 12 13  1  0  0  0  0
 12 34  1  0  0  0  0
 12 35  1  0  0  0  0
 13 36  1  0  0  0  0
 13 37  1  0  0  0  0
 14 19  2  0  0  0  0
 14 15  1  0  0  0  0
 15 16  2  0  0  0  0
 15 38  1  0  0  0  0
 16 17  1  0  0  0  0
 16 39  1  0  0  0  0
 17 18  2  0  0  0  0
 17 20  1  0  0  0  0
 18 19  1  0  0  0  0
 18 40  1  0  0  0  0
 19 41  1  0  0  0  0
 20 21  2  0  0  0  0
 20 24  1  0  0  0  0
 21 22  1  0  0  0  0
 21 42  1  0  0  0  0
 22 23  1  0  0  0  0
 22 43  1  0  0  0  0
 23 24  2  0  0  0  0
 24 44  1  0  0  0  0
M  END
>  <DRUGBANK_ID>
DB07859

>  <COMMON_NAME>
4-(4-CHLOROPHENYL)-4-[4-(1H-PYRAZOL-4-YL)PHENYL]PIPERIDINE

>  <UNII>
ERF7YL2CE2

$$$$
