
 OpenBabel10282417072D

 19 20  0  0  0  0  0  0  0  0999 V2000
    4.2032    2.0602    0.0000 C   0  0  0  0  0  0  0  0  0  0  0  0
    2.7512    4.7652    0.0000 C   0  0  0  0  0  0  0  0  0  0  0  0
    2.0367    4.3527    0.0000 C   0  0  0  0  0  0  0  0  0  0  0  0
    3.4656    3.5277    0.0000 C   0  0  0  0  0  0  0  0  0  0  0  0
    3.4186    1.8053    0.0000 C   0  0  0  0  0  0  0  0  0  0  0  0
    2.7512    3.1152    0.0000 C   0  0  0  0  0  0  0  0  0  0  0  0
    2.7512    2.2902    0.0000 C   0  0  0  0  0  0  0  0  0  0  0  0
    3.1637    1.0206    0.0000 C   0  0  0  0  0  0  0  0  0  0  0  0
    3.4656    4.3527    0.0000 N   0  0  0  0  0  0  0  0  0  0  0  0
    2.0367    3.5277    0.0000 N   0  0  0  0  0  0  0  0  0  0  0  0
    3.6486    0.3532    0.0000 S   0  0  0  0  0  0  0  0  0  0  0  0
    2.0837    1.8053    0.0000 S   0  0  0  0  0  0  0  0  0  0  0  0
    2.3387    1.0206    0.0000 S   0  0  0  0  0  0  0  0  0  0  0  0
    4.9983    1.3442    0.0000 H   0  0  0  0  0  0  0  0  0  0  0  0
    4.4257    3.1068    0.0000 H   0  0  0  0  0  0  0  0  0  0  0  0
    5.2208    2.3908    0.0000 H   0  0  0  0  0  0  0  0  0  0  0  0
    2.7512    5.7972    0.0000 H   0  0  0  0  0  0  0  0  0  0  0  0
    1.1430    4.8687    0.0000 H   0  0  0  0  0  0  0  0  0  0  0  0
    4.3593    3.0117    0.0000 H   0  0  0  0  0  0  0  0  0  0  0  0
  1 14  1  0  0  0  0
  1 15  1  0  0  0  0
  1 16  1  0  0  0  0
  2 17  1  0  0  0  0
  3  2  1  0  0  0  0
  3 18  1  0  0  0  0
  4 19  1  0  0  0  0
  5  1  1  0  0  0  0
  6  4  2  0  0  0  0
  7  5  2  0  0  0  0
  7  6  1  0  0  0  0
  8  5  1  0  0  0  0
  9  2  2  0  0  0  0
  9  4  1  0  0  0  0
 10  3  2  0  0  0  0
 10  6  1  0  0  0  0
 11  8  2  0  0  0  0
 12  7  1  0  0  0  0
 13  8  1  0  0  0  0
 13 12  1  0  0  0  0
M  END
>  <DRUGBANK_ID>
DB12539

>  <COMMON_NAME>
Oltipraz

>  <CAS_NUMBER>
64224-21-1

>  <UNII>
6N510JUL1Y

>  <SYNONYMS>
Oltipraz

$$$$
