SX5
 OpenBabel10282417072D

 48 49  0  0  0  0  0  0  0  0999 V2000
   -5.2593   -1.6334    0.0000 O   0  0  0  0  0  0  0  0  0  0  0  0
   -4.5448   -1.2209    0.0000 C   0  0  0  0  0  0  0  0  0  0  0  0
   -4.5448   -0.3959    0.0000 O   0  0  0  0  0  0  0  0  0  0  0  0
   -3.8304   -1.6334    0.0000 C   0  0  0  0  0  0  0  0  0  0  0  0
   -3.1159   -1.2209    0.0000 C   0  0  0  0  0  0  0  0  0  0  0  0
   -2.4014   -1.6334    0.0000 C   0  0  0  0  0  0  0  0  0  0  0  0
   -2.4014   -2.4584    0.0000 O   0  0  0  0  0  0  0  0  0  0  0  0
   -1.6870   -1.2209    0.0000 N   0  0  0  0  0  0  0  0  0  0  0  0
   -0.9725   -1.6334    0.0000 C   0  0  0  0  0  0  0  0  0  0  0  0
   -0.9725   -2.4584    0.0000 C   0  0  0  0  0  0  0  0  0  0  0  0
   -0.2580   -2.8709    0.0000 C   0  0  0  0  0  0  0  0  0  0  0  0
    0.4565   -2.4584    0.0000 C   0  0  0  0  0  0  0  0  0  0  0  0
    1.1709   -2.8709    0.0000 Br  0  0  0  0  0  0  0  0  0  0  0  0
    0.4565   -1.6334    0.0000 C   0  0  0  0  0  0  0  0  0  0  0  0
   -0.2580   -1.2209    0.0000 C   0  0  0  0  0  0  0  0  0  0  0  0
   -0.2580   -0.3959    0.0000 C   0  0  0  0  0  0  0  0  0  0  0  0
   -0.9725    0.0166    0.0000 O   0  0  0  0  0  0  0  0  0  0  0  0
    0.4565    0.0166    0.0000 N   0  0  0  0  0  0  0  0  0  0  0  0
    1.1709   -0.3959    0.0000 C   0  0  0  0  0  0  0  0  0  0  0  0
    1.8854    0.0166    0.0000 C   0  0  2  0  0  0  0  0  0  0  0  0
    2.5999   -0.3959    0.0000 C   0  0  0  0  0  0  0  0  0  0  0  0
    1.8854    0.8416    0.0000 C   0  0  0  0  0  0  0  0  0  0  0  0
    0.4565    0.8416    0.0000 C   0  0  0  0  0  0  0  0  0  0  0  0
    1.1709    1.2541    0.0000 C   0  0  1  0  0  0  0  0  0  0  0  0
    1.1709    2.0791    0.0000 C   0  0  0  0  0  0  0  0  0  0  0  0
    1.8854   -0.5673    0.0000 H   0  0  0  0  0  0  0  0  0  0  0  0
    1.6766    1.5461    0.0000 H   0  0  0  0  0  0  0  0  0  0  0  0
   -3.7333    0.0726    0.0000 H   0  0  0  0  0  0  0  0  0  0  0  0
   -3.8304   -2.7034    0.0000 H   0  0  0  0  0  0  0  0  0  0  0  0
   -2.9038   -2.1684    0.0000 H   0  0  0  0  0  0  0  0  0  0  0  0
   -3.1159   -0.1509    0.0000 H   0  0  0  0  0  0  0  0  0  0  0  0
   -2.1893   -0.6859    0.0000 H   0  0  0  0  0  0  0  0  0  0  0  0
   -1.6870   -0.2364    0.0000 H   0  0  0  0  0  0  0  0  0  0  0  0
   -1.8662   -2.9744    0.0000 H   0  0  0  0  0  0  0  0  0  0  0  0
   -0.2580   -3.9029    0.0000 H   0  0  0  0  0  0  0  0  0  0  0  0
    1.3502   -1.1174    0.0000 H   0  0  0  0  0  0  0  0  0  0  0  0
    1.1709   -1.4659    0.0000 H   0  0  0  0  0  0  0  0  0  0  0  0
    2.0975   -0.9309    0.0000 H   0  0  0  0  0  0  0  0  0  0  0  0
    2.5999   -1.4659    0.0000 H   0  0  0  0  0  0  0  0  0  0  0  0
    3.5265    0.1391    0.0000 H   0  0  0  0  0  0  0  0  0  0  0  0
    3.5266   -0.9309    0.0000 H   0  0  0  0  0  0  0  0  0  0  0  0
    2.8120    1.3766    0.0000 H   0  0  0  0  0  0  0  0  0  0  0  0
    1.8854    1.9116    0.0000 H   0  0  0  0  0  0  0  0  0  0  0  0
   -0.4702    1.3766    0.0000 H   0  0  0  0  0  0  0  0  0  0  0  0
    0.4565    1.9116    0.0000 H   0  0  0  0  0  0  0  0  0  0  0  0
    2.0975    2.6141    0.0000 H   0  0  0  0  0  0  0  0  0  0  0  0
    0.2443    2.6141    0.0000 H   0  0  0  0  0  0  0  0  0  0  0  0
    1.1709    3.1491    0.0000 H   0  0  0  0  0  0  0  0  0  0  0  0
  1  2  2  0  0  0  0
  2  3  1  0  0  0  0
  2  4  1  0  0  0  0
  3 28  1  0  0  0  0
  4 29  1  0  0  0  0
  4 30  1  0  0  0  0
  5  4  1  0  0  0  0
  5 31  1  0  0  0  0
  5 32  1  0  0  0  0
  6  5  1  0  0  0  0
  7  6  2  0  0  0  0
  8  6  1  0  0  0  0
  8 33  1  0  0  0  0
  9  8  1  0  0  0  0
 10  9  2  0  0  0  0
 10 34  1  0  0  0  0
 11 10  1  0  0  0  0
 11 35  1  0  0  0  0
 12 11  2  0  0  0  0
 12 14  1  0  0  0  0
 13 12  1  0  0  0  0
 14 15  2  0  0  0  0
 14 36  1  0  0  0  0
 15  9  1  0  0  0  0
 15 16  1  0  0  0  0
 16 18  1  0  0  0  0
 16 17  2  0  0  0  0
 18 23  1  0  0  0  0
 19 18  1  0  0  0  0
 19 37  1  0  0  0  0
 19 38  1  0  0  0  0
 20 19  1  0  0  0  0
 20 22  1  0  0  0  0
 20 26  1  6  0  0  0
 20 21  1  0  0  0  0
 21 39  1  0  0  0  0
 21 40  1  0  0  0  0
 21 41  1  0  0  0  0
 22 24  1  0  0  0  0
 22 42  1  0  0  0  0
 22 43  1  0  0  0  0
 23 44  1  0  0  0  0
 23 45  1  0  0  0  0
 24 23  1  0  0  0  0
 24 25  1  0  0  0  0
 24 27  1  6  0  0  0
 25 46  1  0  0  0  0
 25 47  1  0  0  0  0
 25 48  1  0  0  0  0
M  END
>  <DRUGBANK_ID>
DB08581

>  <COMMON_NAME>
4-[(4-bromo-2-{[(3R,5S)-3,5-dimethylpiperidin-1-yl]carbonyl}phenyl)amino]-4-oxobutanoic acid

$$$$
