008
 OpenBabel10282417072D

 48 50  0  0  0  0  0  0  0  0999 V2000
   -3.2966   -0.9164    0.0000 F   0  0  0  0  0  0  0  0  0  0  0  0
   -3.2966   -0.0914    0.0000 C   0  0  0  0  0  0  0  0  0  0  0  0
   -4.0111    0.3211    0.0000 C   0  0  0  0  0  0  0  0  0  0  0  0
   -4.0111    1.1461    0.0000 C   0  0  0  0  0  0  0  0  0  0  0  0
   -3.2966    1.5586    0.0000 C   0  0  0  0  0  0  0  0  0  0  0  0
   -2.5821    1.1461    0.0000 C   0  0  0  0  0  0  0  0  0  0  0  0
   -2.5821    0.3211    0.0000 C   0  0  0  0  0  0  0  0  0  0  0  0
   -1.8676   -0.0914    0.0000 C   0  0  0  0  0  0  0  0  0  0  0  0
   -1.1532    0.3211    0.0000 C   0  0  1  0  0  0  0  0  0  0  0  0
   -1.1532    1.1461    0.0000 N   0  0  0  0  0  0  0  0  0  0  0  0
   -0.4387   -0.0914    0.0000 C   0  0  0  0  0  0  0  0  0  0  0  0
    0.2758    0.3211    0.0000 C   0  0  0  0  0  0  0  0  0  0  0  0
    0.2758    1.1461    0.0000 O   0  0  0  0  0  0  0  0  0  0  0  0
    0.9902   -0.0914    0.0000 N   0  0  0  0  0  0  0  0  0  0  0  0
    1.7047    0.3211    0.0000 C   0  0  0  0  0  0  0  0  0  0  0  0
    2.4192   -0.0914    0.0000 C   0  0  0  0  0  0  0  0  0  0  0  0
    3.1337    0.3211    0.0000 C   0  0  0  0  0  0  0  0  0  0  0  0
    3.8481   -0.0914    0.0000 C   0  0  0  0  0  0  0  0  0  0  0  0
    3.8481   -0.9164    0.0000 C   0  0  0  0  0  0  0  0  0  0  0  0
    2.4192   -0.9164    0.0000 C   0  0  0  0  0  0  0  0  0  0  0  0
    3.1337   -1.3289    0.0000 C   0  0  0  0  0  0  0  0  0  0  0  0
    1.7047   -1.3289    0.0000 C   0  0  0  0  0  0  0  0  0  0  0  0
    0.9902   -0.9164    0.0000 C   0  0  1  0  0  0  0  0  0  0  0  0
    0.2758   -1.3289    0.0000 C   0  0  0  0  0  0  0  0  0  0  0  0
    0.2758   -2.1539    0.0000 O   0  0  0  0  0  0  0  0  0  0  0  0
   -0.4387   -0.9164    0.0000 N   0  0  0  0  0  0  0  0  0  0  0  0
   -1.6589    0.6130    0.0000 H   0  0  0  0  0  0  0  0  0  0  0  0
    0.4845   -0.6245    0.0000 H   0  0  0  0  0  0  0  0  0  0  0  0
   -4.9048   -0.1949    0.0000 H   0  0  0  0  0  0  0  0  0  0  0  0
   -4.9048    1.6621    0.0000 H   0  0  0  0  0  0  0  0  0  0  0  0
   -3.2966    2.5906    0.0000 H   0  0  0  0  0  0  0  0  0  0  0  0
   -1.6884    1.6621    0.0000 H   0  0  0  0  0  0  0  0  0  0  0  0
   -1.8676   -1.1614    0.0000 H   0  0  0  0  0  0  0  0  0  0  0  0
   -0.9409   -0.6264    0.0000 H   0  0  0  0  0  0  0  0  0  0  0  0
   -0.2699    1.6561    0.0000 H   0  0  0  0  0  0  0  0  0  0  0  0
   -2.0365    1.6561    0.0000 H   0  0  0  0  0  0  0  0  0  0  0  0
   -0.4387   -1.1614    0.0000 H   0  0  0  0  0  0  0  0  0  0  0  0
    0.4879   -0.6264    0.0000 H   0  0  0  0  0  0  0  0  0  0  0  0
    1.7047    1.3911    0.0000 H   0  0  0  0  0  0  0  0  0  0  0  0
    2.6313    0.8561    0.0000 H   0  0  0  0  0  0  0  0  0  0  0  0
    3.1337    1.3531    0.0000 H   0  0  0  0  0  0  0  0  0  0  0  0
    4.7418    0.4246    0.0000 H   0  0  0  0  0  0  0  0  0  0  0  0
    4.7418   -1.4324    0.0000 H   0  0  0  0  0  0  0  0  0  0  0  0
    3.1337   -2.3609    0.0000 H   0  0  0  0  0  0  0  0  0  0  0  0
    1.7047   -2.3989    0.0000 H   0  0  0  0  0  0  0  0  0  0  0  0
    0.7781   -1.8639    0.0000 H   0  0  0  0  0  0  0  0  0  0  0  0
   -0.4387    0.0681    0.0000 H   0  0  0  0  0  0  0  0  0  0  0  0
   -1.2913   -1.4087    0.0000 H   0  0  0  0  0  0  0  0  0  0  0  0
  1  2  1  0  0  0  0
  2  3  2  0  0  0  0
  2  7  1  0  0  0  0
  3  4  1  0  0  0  0
  3 29  1  0  0  0  0
  4  5  2  0  0  0  0
  4 30  1  0  0  0  0
  5  6  1  0  0  0  0
  5 31  1  0  0  0  0
  6  7  2  0  0  0  0
  6 32  1  0  0  0  0
  7  8  1  0  0  0  0
  8  9  1  0  0  0  0
  8 33  1  0  0  0  0
  8 34  1  0  0  0  0
  9 10  1  0  0  0  0
  9 11  1  0  0  0  0
  9 27  1  6  0  0  0
 10 35  1  0  0  0  0
 10 36  1  0  0  0  0
 11 12  1  0  0  0  0
 11 37  1  0  0  0  0
 11 38  1  0  0  0  0
 12 13  2  0  0  0  0
 12 14  1  0  0  0  0
 14 15  1  0  0  0  0
 14 23  1  0  0  0  0
 15 16  1  0  0  0  0
 15 39  1  0  0  0  0
 15 40  1  0  0  0  0
 16 17  2  0  0  0  0
 16 20  1  0  0  0  0
 17 18  1  0  0  0  0
 17 41  1  0  0  0  0
 18 19  2  0  0  0  0
 18 42  1  0  0  0  0
 19 21  1  0  0  0  0
 19 43  1  0  0  0  0
 20 21  2  0  0  0  0
 20 22  1  0  0  0  0
 21 44  1  0  0  0  0
 22 23  1  0  0  0  0
 22 45  1  0  0  0  0
 22 46  1  0  0  0  0
 23 24  1  0  0  0  0
 23 28  1  6  0  0  0
 24 25  2  0  0  0  0
 24 26  1  0  0  0  0
 26 47  1  0  0  0  0
 26 48  1  0  0  0  0
M  END
>  <DRUGBANK_ID>
DB04578

>  <COMMON_NAME>
(S)-2-[(R)-3-amino-4-(2-fluorophenyl)butyryl]-1,2,3,4-tetrahydroisoquinoline-3-carboxamide

$$$$
