
 OpenBabel10282417072D

 53 56  0  0  1  0  0  0  0  0999 V2000
    4.5466   -0.5086    0.0000 C   0  0  0  0  0  0  0  0  0  0  0  0
    4.8269    0.2673    0.0000 C   0  0  2  0  0  0  0  0  0  0  0  0
    5.3587   -0.3634    0.0000 C   0  0  0  0  0  0  0  0  0  0  0  0
    6.1708   -0.2182    0.0000 C   0  0  0  0  0  0  0  0  0  0  0  0
    6.4511    0.5577    0.0000 C   0  0  0  0  0  0  0  0  0  0  0  0
    7.2632    0.7029    0.0000 O   0  0  0  0  0  0  0  0  0  0  0  0
    5.9193    1.1884    0.0000 C   0  0  0  0  0  0  0  0  0  0  0  0
    5.1072    1.0432    0.0000 C   0  0  0  0  0  0  0  0  0  0  0  0
    4.5754    1.6739    0.0000 C   0  0  0  0  0  0  0  0  0  0  0  0
    3.7633    1.5287    0.0000 C   0  0  0  0  0  0  0  0  0  0  0  0
    3.4830    0.7528    0.0000 C   0  0  2  0  0  0  0  0  0  0  0  0
    4.0148    0.1221    0.0000 C   0  0  0  0  0  0  0  0  0  0  0  0
    3.7345   -0.6539    0.0000 C   0  0  0  0  0  0  0  0  0  0  0  0
    2.9224   -0.7991    0.0000 C   0  0  0  0  0  0  0  0  0  0  0  0
    2.3905   -0.1684    0.0000 C   0  0  1  0  0  0  0  0  0  0  0  0
    2.6708    0.6076    0.0000 C   0  0  1  0  0  0  0  0  0  0  0  0
    2.0195    1.1139    0.0000 C   0  0  0  0  0  0  0  0  0  0  0  0
    1.3367    0.6509    0.0000 C   0  0  0  0  0  0  0  0  0  0  0  0
    1.5660   -0.1416    0.0000 C   0  0  2  0  0  0  0  0  0  0  0  0
    0.8051   -0.4604    0.0000 C   0  0  0  0  0  0  0  0  0  0  0  0
    0.7008   -1.2788    0.0000 O   0  0  0  0  0  0  0  0  0  0  0  0
    0.1485    0.0391    0.0000 C   0  0  0  0  0  0  0  0  0  0  0  0
   -0.6124   -0.2798    0.0000 O   0  0  0  0  0  0  0  0  0  0  0  0
    1.4446   -0.9576    0.0000 O   0  0  0  0  0  0  0  0  0  0  0  0
    2.0307   -0.9107    0.0000 C   0  0  0  0  0  0  0  0  0  0  0  0
    3.4933   -0.6969    0.0000 H   0  0  0  0  0  0  0  0  0  0  0  0
    5.2363   -1.3266    0.0000 H   0  0  0  0  0  0  0  0  0  0  0  0
    4.1830   -1.5149    0.0000 H   0  0  0  0  0  0  0  0  0  0  0  0
    4.9951   -1.3697    0.0000 H   0  0  0  0  0  0  0  0  0  0  0  0
    6.0484   -1.1814    0.0000 H   0  0  0  0  0  0  0  0  0  0  0  0
    6.8605   -1.0362    0.0000 H   0  0  0  0  0  0  0  0  0  0  0  0
    7.2241   -0.0299    0.0000 H   0  0  0  0  0  0  0  0  0  0  0  0
    6.2699    2.1590    0.0000 H   0  0  0  0  0  0  0  0  0  0  0  0
    4.9390    2.6802    0.0000 H   0  0  0  0  0  0  0  0  0  0  0  0
    3.8857    2.4919    0.0000 H   0  0  0  0  0  0  0  0  0  0  0  0
    3.0736    2.3467    0.0000 H   0  0  0  0  0  0  0  0  0  0  0  0
    2.7100    1.3404    0.0000 H   0  0  0  0  0  0  0  0  0  0  0  0
    4.5363    0.9411    0.0000 H   0  0  0  0  0  0  0  0  0  0  0  0
    4.3998   -1.4429    0.0000 H   0  0  0  0  0  0  0  0  0  0  0  0
    2.5589   -1.8055    0.0000 H   0  0  0  0  0  0  0  0  0  0  0  0
    1.8691   -0.9875    0.0000 H   0  0  0  0  0  0  0  0  0  0  0  0
    1.6430    0.3102    0.0000 H   0  0  0  0  0  0  0  0  0  0  0  0
    2.0542    2.1833    0.0000 H   0  0  0  0  0  0  0  0  0  0  0  0
    1.0824    1.6303    0.0000 H   0  0  0  0  0  0  0  0  0  0  0  0
    0.3303    1.0144    0.0000 H   0  0  0  0  0  0  0  0  0  0  0  0
    0.5559   -0.0807    0.0000 H   0  0  0  0  0  0  0  0  0  0  0  0
    0.2837    1.1005    0.0000 H   0  0  0  0  0  0  0  0  0  0  0  0
   -0.7031    0.6869    0.0000 H   0  0  0  0  0  0  0  0  0  0  0  0
   -1.3844    0.3075    0.0000 H   0  0  0  0  0  0  0  0  0  0  0  0
    0.5423   -1.3137    0.0000 H   0  0  0  0  0  0  0  0  0  0  0  0
    0.9635   -0.9879    0.0000 H   0  0  0  0  0  0  0  0  0  0  0  0
    2.6312   -1.7963    0.0000 H   0  0  0  0  0  0  0  0  0  0  0  0
    1.5640   -1.8736    0.0000 H   0  0  0  0  0  0  0  0  0  0  0  0
  1 26  1  0  0  0  0
  1 27  1  0  0  0  0
  1 28  1  0  0  0  0
  2  1  1  1  0  0  0
  2  3  1  0  0  0  0
  2  8  1  0  0  0  0
  2 12  1  0  0  0  0
  3  4  1  0  0  0  0
  3 29  1  0  0  0  0
  3 30  1  0  0  0  0
  4  5  1  0  0  0  0
  4 31  1  0  0  0  0
  4 32  1  0  0  0  0
  5  6  2  0  0  0  0
  5  7  1  0  0  0  0
  7  8  2  0  0  0  0
  7 33  1  0  0  0  0
  8  9  1  0  0  0  0
  9 10  1  0  0  0  0
  9 34  1  0  0  0  0
  9 35  1  0  0  0  0
 10 36  1  0  0  0  0
 10 37  1  0  0  0  0
 11 10  1  0  0  0  0
 11 12  1  0  0  0  0
 11 16  1  0  0  0  0
 11 38  1  1  0  0  0
 12 13  2  0  0  0  0
 13 14  1  0  0  0  0
 13 39  1  0  0  0  0
 14 15  1  0  0  0  0
 14 40  1  0  0  0  0
 14 41  1  0  0  0  0
 15 16  1  0  0  0  0
 15 19  1  0  0  0  0
 15 25  1  1  0  0  0
 16 17  1  0  0  0  0
 16 42  1  6  0  0  0
 17 18  1  0  0  0  0
 17 43  1  0  0  0  0
 17 44  1  0  0  0  0
 18 19  1  0  0  0  0
 18 45  1  0  0  0  0
 18 46  1  0  0  0  0
 19 20  1  1  0  0  0
 19 24  1  0  0  0  0
 20 21  2  0  0  0  0
 20 22  1  0  0  0  0
 22 23  1  0  0  0  0
 22 47  1  0  0  0  0
 22 48  1  0  0  0  0
 23 49  1  0  0  0  0
 24 50  1  0  0  0  0
 25 51  1  0  0  0  0
 25 52  1  0  0  0  0
 25 53  1  0  0  0  0
M  END
>  <DRUGBANK_ID>
DB12081

>  <COMMON_NAME>
Anecortave

>  <CAS_NUMBER>
10184-70-0

>  <UNII>
R5Y8O51589

$$$$
