797
 OpenBabel10282417072D

 24 25  0  0  0  0  0  0  0  0999 V2000
    3.1651    1.6828    0.0000 N   0  0  0  0  0  0  0  0  0  0  0  0
    3.8324    0.5269    0.0000 N   0  0  0  0  0  0  0  0  0  0  0  0
    3.0789    0.8623    0.0000 C   0  0  0  0  0  0  0  0  0  0  0  0
    3.9719    1.8543    0.0000 C   0  0  0  0  0  0  0  0  0  0  0  0
    2.3643    0.4499    0.0000 C   0  0  0  0  0  0  0  0  0  0  0  0
    4.3844    1.1398    0.0000 C   0  0  0  0  0  0  0  0  0  0  0  0
    2.3643   -0.3751    0.0000 C   0  0  0  0  0  0  0  0  0  0  0  0
    3.0789   -0.7875    0.0000 C   0  0  0  0  0  0  0  0  0  0  0  0
    1.6499   -0.7875    0.0000 C   0  0  0  0  0  0  0  0  0  0  0  0
    3.0789   -1.6126    0.0000 C   0  0  0  0  0  0  0  0  0  0  0  0
    1.6499   -1.6126    0.0000 C   0  0  0  0  0  0  0  0  0  0  0  0
    2.3643   -2.0250    0.0000 C   0  0  0  0  0  0  0  0  0  0  0  0
    2.4335    2.3415    0.0000 H   0  0  0  0  0  0  0  0  0  0  0  0
    4.4071    2.8318    0.0000 H   0  0  0  0  0  0  0  0  0  0  0  0
    5.0404    1.9103    0.0000 H   0  0  0  0  0  0  0  0  0  0  0  0
    1.4377    0.9850    0.0000 H   0  0  0  0  0  0  0  0  0  0  0  0
    1.4376   -0.0851    0.0000 H   0  0  0  0  0  0  0  0  0  0  0  0
    5.4485    1.0279    0.0000 H   0  0  0  0  0  0  0  0  0  0  0  0
    4.9672    2.0372    0.0000 H   0  0  0  0  0  0  0  0  0  0  0  0
    3.9726   -0.2714    0.0000 H   0  0  0  0  0  0  0  0  0  0  0  0
    0.7562   -0.2715    0.0000 H   0  0  0  0  0  0  0  0  0  0  0  0
    3.9726   -2.1287    0.0000 H   0  0  0  0  0  0  0  0  0  0  0  0
    0.7562   -2.1286    0.0000 H   0  0  0  0  0  0  0  0  0  0  0  0
    2.3642   -3.0570    0.0000 H   0  0  0  0  0  0  0  0  0  0  0  0
  1  3  1  0  0  0  0
  1  4  1  0  0  0  0
  1 13  1  0  0  0  0
  2  3  2  0  0  0  0
  2  6  1  0  0  0  0
  3  5  1  0  0  0  0
  4  6  1  0  0  0  0
  4 14  1  0  0  0  0
  4 15  1  0  0  0  0
  5  7  1  0  0  0  0
  5 16  1  0  0  0  0
  5 17  1  0  0  0  0
  6 18  1  0  0  0  0
  6 19  1  0  0  0  0
  7  8  2  0  0  0  0
  7  9  1  0  0  0  0
  8 10  1  0  0  0  0
  8 20  1  0  0  0  0
  9 11  2  0  0  0  0
  9 21  1  0  0  0  0
 10 12  2  0  0  0  0
 10 22  1  0  0  0  0
 11 12  1  0  0  0  0
 11 23  1  0  0  0  0
 12 24  1  0  0  0  0
M  END
>  <DRUGBANK_ID>
DB00797

>  <SECONDARY_ACCESSION_NUMBERS>
APRD00170

>  <COMMON_NAME>
Tolazoline

>  <CAS_NUMBER>
59-98-3

>  <UNII>
CHH9H12AQ3

>  <SYNONYMS>
2-Benzyl-2-imidazoline; 2-Benzyl-4,5-imidazoline; 2-Benzylimidazoline; 4,5-Dihydro-2-(phenylmethyl)-1H-imidazole; Benzazoline; Tolazolin; Tolazolina; Tolazoline; Tolazolinum

$$$$
