
 OpenBabel10282417072D

234245  0  0  1  0  0  0  0  0999 V2000
   -8.5148   -1.9266    0.0000 H   0  0  0  0  0  0  0  0  0  0  0  0
   -8.8426   -2.6837    0.0000 C   0  0  2  0  0  0  0  0  0  0  0  0
   -9.1705   -3.4408    0.0000 C   0  0  0  0  0  0  0  0  0  0  0  0
   -9.9900   -3.5354    0.0000 C   0  0  0  0  0  0  0  0  0  0  0  0
  -10.4681   -4.2078    0.0000 C   0  0  0  0  0  0  0  0  0  0  0  0
  -11.2553   -3.9609    0.0000 N   0  0  0  0  0  0  0  0  0  0  0  0
  -11.2637   -3.1359    0.0000 C   0  0  0  0  0  0  0  0  0  0  0  0
  -10.4818   -2.8730    0.0000 C   0  0  0  0  0  0  0  0  0  0  0  0
  -10.1539   -2.1159    0.0000 C   0  0  0  0  0  0  0  0  0  0  0  0
  -10.9372   -1.5186    0.0000 C   0  0  0  0  0  0  0  0  0  0  0  0
  -11.7192   -1.7815    0.0000 C   0  0  0  0  0  0  0  0  0  0  0  0
  -11.8824   -2.5902    0.0000 C   0  0  0  0  0  0  0  0  0  0  0  0
   -9.3344   -2.0213    0.0000 C   0  0  1  0  0  0  0  0  0  0  0  0
   -9.8261   -1.3588    0.0000 H   0  0  0  0  0  0  0  0  0  0  0  0
   -9.0066   -1.2642    0.0000 C   0  0  0  0  0  0  0  0  0  0  0  0
   -8.1870   -1.1696    0.0000 C   0  0  1  0  0  0  0  0  0  0  0  0
   -7.8592   -0.4125    0.0000 C   0  0  0  0  0  0  0  0  0  0  0  0
   -7.0396   -0.3179    0.0000 S   0  0  0  0  0  0  0  0  0  0  0  0
   -6.7118    0.4392    0.0000 C   0  0  0  0  0  0  0  0  0  0  0  0
   -5.8922    0.5338    0.0000 C   0  0  0  0  0  0  0  0  0  0  0  0
   -5.4005   -0.1286    0.0000 O   0  0  0  0  0  0  0  0  0  0  0  0
   -5.5644    1.2909    0.0000 N   0  0  0  0  0  0  0  0  0  0  0  0
   -4.7449    1.3855    0.0000 C   0  0  0  0  0  0  0  0  0  0  0  0
   -4.4171    2.1426    0.0000 C   0  0  0  0  0  0  0  0  0  0  0  0
   -3.5975    2.2373    0.0000 C   0  0  0  0  0  0  0  0  0  0  0  0
   -3.2697    2.9943    0.0000 C   0  0  0  0  0  0  0  0  0  0  0  0
   -2.4501    3.0890    0.0000 C   0  0  1  0  0  0  0  0  0  0  0  0
   -1.9584    2.4265    0.0000 N   0  0  0  0  0  0  0  0  0  0  0  0
   -2.2862    1.6694    0.0000 C   0  0  0  0  0  0  0  0  0  0  0  0
   -3.1058    1.5748    0.0000 O   0  0  0  0  0  0  0  0  0  0  0  0
   -1.7945    1.0070    0.0000 C   0  0  0  0  0  0  0  0  0  0  0  0
   -2.1223    0.2499    0.0000 S   0  0  0  0  0  0  0  0  0  0  0  0
   -1.6306   -0.4125    0.0000 C   0  0  0  0  0  0  0  0  0  0  0  0
   -1.9584   -1.1696    0.0000 C   0  0  1  0  0  0  0  0  0  0  0  0
   -1.4667   -1.8320    0.0000 C   0  0  0  0  0  0  0  0  0  0  0  0
   -1.7945   -2.5891    0.0000 N   0  0  0  0  0  0  0  0  0  0  0  0
   -1.3027   -3.2515    0.0000 C   0  0  0  0  0  0  0  0  0  0  0  0
   -0.4832   -3.1569    0.0000 C   0  0  0  0  0  0  0  0  0  0  0  0
    0.0085   -3.8193    0.0000 C   0  0  0  0  0  0  0  0  0  0  0  0
   -2.6140   -2.6837    0.0000 C   0  0  2  0  0  0  0  0  0  0  0  0
   -3.4336   -2.7783    0.0000 H   0  0  0  0  0  0  0  0  0  0  0  0
   -2.9419   -3.4408    0.0000 C   0  0  0  0  0  0  0  0  0  0  0  0
   -3.7614   -3.5354    0.0000 C   0  0  0  0  0  0  0  0  0  0  0  0
   -4.2395   -4.2078    0.0000 C   0  0  0  0  0  0  0  0  0  0  0  0
   -5.0267   -3.9609    0.0000 N   0  0  0  0  0  0  0  0  0  0  0  0
   -5.0351   -3.1359    0.0000 C   0  0  0  0  0  0  0  0  0  0  0  0
   -4.2531   -2.8730    0.0000 C   0  0  0  0  0  0  0  0  0  0  0  0
   -3.9253   -2.1159    0.0000 C   0  0  0  0  0  0  0  0  0  0  0  0
   -4.7086   -1.5186    0.0000 C   0  0  0  0  0  0  0  0  0  0  0  0
   -5.4906   -1.7815    0.0000 C   0  0  0  0  0  0  0  0  0  0  0  0
   -5.6538   -2.5902    0.0000 C   0  0  0  0  0  0  0  0  0  0  0  0
   -3.1058   -2.0213    0.0000 C   0  0  1  0  0  0  0  0  0  0  0  0
   -3.5975   -1.3588    0.0000 H   0  0  0  0  0  0  0  0  0  0  0  0
   -2.7779   -1.2642    0.0000 C   0  0  0  0  0  0  0  0  0  0  0  0
   -2.1223    3.8460    0.0000 C   0  0  0  0  0  0  0  0  0  0  0  0
   -2.6140    4.5085    0.0000 O   0  0  0  0  0  0  0  0  0  0  0  0
   -1.3027    3.9407    0.0000 N   0  0  0  0  0  0  0  0  0  0  0  0
   -0.9749    4.6977    0.0000 C   0  0  0  0  0  0  0  0  0  0  0  0
   -1.7945    4.6031    0.0000 C   0  0  0  0  0  0  0  0  0  0  0  0
   -2.2862    5.2655    0.0000 S   0  0  0  0  0  0  0  0  0  0  0  0
   -1.9584    6.0226    0.0000 S   0  0  0  0  0  0  0  0  0  0  0  0
   -1.1388    6.1172    0.0000 C   0  0  0  0  0  0  0  0  0  0  0  0
   -0.8110    6.8743    0.0000 C   0  0  2  0  0  0  0  0  0  0  0  0
    0.0085    6.9690    0.0000 N   0  0  0  0  0  0  0  0  0  0  0  0
    0.3364    7.7260    0.0000 C   0  0  0  0  0  0  0  0  0  0  0  0
   -0.1554    8.3885    0.0000 O   0  0  0  0  0  0  0  0  0  0  0  0
    1.1559    7.8207    0.0000 C   0  0  0  0  0  0  0  0  0  0  0  0
    0.6642    8.4831    0.0000 C   0  0  0  0  0  0  0  0  0  0  0  0
    0.9920    9.2402    0.0000 C   0  0  0  0  0  0  0  0  0  0  0  0
    1.4837    8.5777    0.0000 N   0  0  0  0  0  0  0  0  0  0  0  0
    2.3033    8.6724    0.0000 C   0  0  0  0  0  0  0  0  0  0  0  0
    2.6311    9.4294    0.0000 O   0  0  0  0  0  0  0  0  0  0  0  0
    2.7950    8.0099    0.0000 C   0  0  2  0  0  0  0  0  0  0  0  0
    3.6146    8.1046    0.0000 C   0  0  0  0  0  0  0  0  0  0  0  0
    3.9424    8.8616    0.0000 C   0  0  0  0  0  0  0  0  0  0  0  0
    3.4507    9.5241    0.0000 C   0  0  0  0  0  0  0  0  0  0  0  0
    3.7785   10.2811    0.0000 C   0  0  0  0  0  0  0  0  0  0  0  0
    3.2868   10.9436    0.0000 N   0  0  0  0  0  0  0  0  0  0  0  0
    2.4672    7.2529    0.0000 N   0  0  0  0  0  0  0  0  0  0  0  0
    2.9589    6.5904    0.0000 C   0  0  0  0  0  0  0  0  0  0  0  0
    3.7785    6.6850    0.0000 O   0  0  0  0  0  0  0  0  0  0  0  0
    2.6311    5.8333    0.0000 C   0  0  1  0  0  0  0  0  0  0  0  0
    3.1228    5.1709    0.0000 C   0  0  0  0  0  0  0  0  0  0  0  0
    3.9424    5.2655    0.0000 C   0  0  0  0  0  0  0  0  0  0  0  0
    4.3476    5.9842    0.0000 C   0  0  0  0  0  0  0  0  0  0  0  0
    5.1563    5.8209    0.0000 N   0  0  0  0  0  0  0  0  0  0  0  0
    5.2509    5.0014    0.0000 C   0  0  0  0  0  0  0  0  0  0  0  0
    4.5007    4.6581    0.0000 C   0  0  0  0  0  0  0  0  0  0  0  0
    4.4229    3.8368    0.0000 C   0  0  0  0  0  0  0  0  0  0  0  0
    5.0952    3.3587    0.0000 C   0  0  0  0  0  0  0  0  0  0  0  0
    5.8454    3.7020    0.0000 C   0  0  0  0  0  0  0  0  0  0  0  0
    5.9233    4.5233    0.0000 C   0  0  0  0  0  0  0  0  0  0  0  0
    1.8116    5.7387    0.0000 N   0  0  0  0  0  0  0  0  0  0  0  0
    1.4837    4.9816    0.0000 C   0  0  0  0  0  0  0  0  0  0  0  0
    1.9755    4.3192    0.0000 O   0  0  0  0  0  0  0  0  0  0  0  0
    0.6642    4.8870    0.0000 C   0  0  0  0  0  0  0  0  0  0  0  0
    1.1559    4.2246    0.0000 C   0  0  0  0  0  0  0  0  0  0  0  0
    0.8281    3.4675    0.0000 C   0  0  0  0  0  0  0  0  0  0  0  0
    1.3198    2.8051    0.0000 C   0  0  0  0  0  0  0  0  0  0  0  0
    0.9920    2.0480    0.0000 C   0  0  0  0  0  0  0  0  0  0  0  0
    0.1725    1.9533    0.0000 C   0  0  0  0  0  0  0  0  0  0  0  0
   -0.1554    1.1963    0.0000 O   0  0  0  0  0  0  0  0  0  0  0  0
   -0.3193    2.6158    0.0000 C   0  0  0  0  0  0  0  0  0  0  0  0
    0.0085    3.3729    0.0000 C   0  0  0  0  0  0  0  0  0  0  0  0
    0.3364    4.1299    0.0000 N   0  0  0  0  0  0  0  0  0  0  0  0
   -0.4832    4.0353    0.0000 C   0  0  0  0  0  0  0  0  0  0  0  0
   -0.8110    3.2782    0.0000 O   0  0  0  0  0  0  0  0  0  0  0  0
   -1.3027    7.5368    0.0000 C   0  0  0  0  0  0  0  0  0  0  0  0
   -0.9749    8.2938    0.0000 O   0  0  0  0  0  0  0  0  0  0  0  0
   -2.1223    7.4421    0.0000 N   0  0  0  0  0  0  0  0  0  0  0  0
   -2.6140    8.1046    0.0000 C   0  0  1  0  0  0  0  0  0  0  0  0
   -2.2862    8.8616    0.0000 C   0  0  1  0  0  0  0  0  0  0  0  0
   -2.7779    9.5241    0.0000 C   0  0  0  0  0  0  0  0  0  0  0  0
   -1.4667    8.9563    0.0000 O   0  0  0  0  0  0  0  0  0  0  0  0
   -3.4336    8.0099    0.0000 C   0  0  0  0  0  0  0  0  0  0  0  0
   -3.7614    7.2529    0.0000 N   0  0  0  0  0  0  0  0  0  0  0  0
   -3.9253    8.6724    0.0000 O   0  0  0  0  0  0  0  0  0  0  0  0
   -7.6953   -1.8320    0.0000 C   0  0  0  0  0  0  0  0  0  0  0  0
   -8.0231   -2.5891    0.0000 N   0  0  0  0  0  0  0  0  0  0  0  0
   -7.5314   -3.2515    0.0000 C   0  0  0  0  0  0  0  0  0  0  0  0
   -6.7118   -3.1569    0.0000 C   0  0  0  0  0  0  0  0  0  0  0  0
   -6.2201   -3.8193    0.0000 C   0  0  0  0  0  0  0  0  0  0  0  0
   -8.5328   -4.3000    0.0000 H   0  0  0  0  0  0  0  0  0  0  0  0
   -9.5957   -4.4227    0.0000 H   0  0  0  0  0  0  0  0  0  0  0  0
  -10.1392   -5.1860    0.0000 H   0  0  0  0  0  0  0  0  0  0  0  0
  -12.0458   -4.5477    0.0000 H   0  0  0  0  0  0  0  0  0  0  0  0
  -10.7691   -0.5004    0.0000 H   0  0  0  0  0  0  0  0  0  0  0  0
  -12.4932   -1.0988    0.0000 H   0  0  0  0  0  0  0  0  0  0  0  0
  -12.8606   -2.9192    0.0000 H   0  0  0  0  0  0  0  0  0  0  0  0
   -9.6444   -0.4050    0.0000 H   0  0  0  0  0  0  0  0  0  0  0  0
   -8.5814   -0.2823    0.0000 H   0  0  0  0  0  0  0  0  0  0  0  0
   -8.8248   -0.3104    0.0000 H   0  0  0  0  0  0  0  0  0  0  0  0
   -8.4970    0.4467    0.0000 H   0  0  0  0  0  0  0  0  0  0  0  0
   -7.4340    0.5694    0.0000 H   0  0  0  0  0  0  0  0  0  0  0  0
   -7.3496    1.2984    0.0000 H   0  0  0  0  0  0  0  0  0  0  0  0
   -6.2866    1.4211    0.0000 H   0  0  0  0  0  0  0  0  0  0  0  0
   -6.1512    2.0814    0.0000 H   0  0  0  0  0  0  0  0  0  0  0  0
   -4.1071    0.5263    0.0000 H   0  0  0  0  0  0  0  0  0  0  0  0
   -3.6820    1.5083    0.0000 H   0  0  0  0  0  0  0  0  0  0  0  0
   -5.0549    3.0017    0.0000 H   0  0  0  0  0  0  0  0  0  0  0  0
   -3.9920    3.1245    0.0000 H   0  0  0  0  0  0  0  0  0  0  0  0
   -2.9597    1.3782    0.0000 H   0  0  0  0  0  0  0  0  0  0  0  0
   -2.5346    2.3600    0.0000 H   0  0  0  0  0  0  0  0  0  0  0  0
   -3.9075    3.8534    0.0000 H   0  0  0  0  0  0  0  0  0  0  0  0
   -2.8446    3.9762    0.0000 H   0  0  0  0  0  0  0  0  0  0  0  0
   -2.8753    2.1071    0.0000 H   0  0  0  0  0  0  0  0  0  0  0  0
   -0.9804    2.5394    0.0000 H   0  0  0  0  0  0  0  0  0  0  0  0
   -0.7316    1.1298    0.0000 H   0  0  0  0  0  0  0  0  0  0  0  0
   -1.1567    0.1479    0.0000 H   0  0  0  0  0  0  0  0  0  0  0  0
   -0.5677   -0.2897    0.0000 H   0  0  0  0  0  0  0  0  0  0  0  0
   -0.9928   -1.2716    0.0000 H   0  0  0  0  0  0  0  0  0  0  0  0
   -0.8955   -1.0468    0.0000 H   0  0  0  0  0  0  0  0  0  0  0  0
   -0.4038   -1.7092    0.0000 H   0  0  0  0  0  0  0  0  0  0  0  0
   -0.8289   -2.6911    0.0000 H   0  0  0  0  0  0  0  0  0  0  0  0
   -1.7278   -4.2334    0.0000 H   0  0  0  0  0  0  0  0  0  0  0  0
   -0.6649   -4.1107    0.0000 H   0  0  0  0  0  0  0  0  0  0  0  0
   -0.0580   -2.1750    0.0000 H   0  0  0  0  0  0  0  0  0  0  0  0
    0.5797   -3.0342    0.0000 H   0  0  0  0  0  0  0  0  0  0  0  0
   -0.4167   -4.8012    0.0000 H   0  0  0  0  0  0  0  0  0  0  0  0
    1.0714   -3.6966    0.0000 H   0  0  0  0  0  0  0  0  0  0  0  0
    0.6463   -4.6785    0.0000 H   0  0  0  0  0  0  0  0  0  0  0  0
   -2.3042   -4.3000    0.0000 H   0  0  0  0  0  0  0  0  0  0  0  0
   -3.3671   -4.4227    0.0000 H   0  0  0  0  0  0  0  0  0  0  0  0
   -3.9106   -5.1860    0.0000 H   0  0  0  0  0  0  0  0  0  0  0  0
   -5.8172   -4.5477    0.0000 H   0  0  0  0  0  0  0  0  0  0  0  0
   -4.5405   -0.5004    0.0000 H   0  0  0  0  0  0  0  0  0  0  0  0
   -6.2646   -1.0988    0.0000 H   0  0  0  0  0  0  0  0  0  0  0  0
   -6.6320   -2.9192    0.0000 H   0  0  0  0  0  0  0  0  0  0  0  0
   -3.4156   -0.4050    0.0000 H   0  0  0  0  0  0  0  0  0  0  0  0
   -2.3527   -0.2823    0.0000 H   0  0  0  0  0  0  0  0  0  0  0  0
   -0.7159    3.1502    0.0000 H   0  0  0  0  0  0  0  0  0  0  0  0
   -1.4001    3.7158    0.0000 H   0  0  0  0  0  0  0  0  0  0  0  0
   -2.2197    3.6212    0.0000 H   0  0  0  0  0  0  0  0  0  0  0  0
   -2.8574    4.4804    0.0000 H   0  0  0  0  0  0  0  0  0  0  0  0
   -0.5010    5.2580    0.0000 H   0  0  0  0  0  0  0  0  0  0  0  0
   -0.0759    6.2400    0.0000 H   0  0  0  0  0  0  0  0  0  0  0  0
   -1.8739    6.7516    0.0000 H   0  0  0  0  0  0  0  0  0  0  0  0
    0.5953    6.1785    0.0000 H   0  0  0  0  0  0  0  0  0  0  0  0
    1.0332    8.8836    0.0000 H   0  0  0  0  0  0  0  0  0  0  0  0
   -0.3987    8.3603    0.0000 H   0  0  0  0  0  0  0  0  0  0  0  0
    0.0264    9.3422    0.0000 H   0  0  0  0  0  0  0  0  0  0  0  0
    2.0549    9.3630    0.0000 H   0  0  0  0  0  0  0  0  0  0  0  0
    0.3542   10.0993    0.0000 H   0  0  0  0  0  0  0  0  0  0  0  0
    1.4171   10.2221    0.0000 H   0  0  0  0  0  0  0  0  0  0  0  0
    0.8969    9.3682    0.0000 H   0  0  0  0  0  0  0  0  0  0  0  0
    3.2202    8.9918    0.0000 H   0  0  0  0  0  0  0  0  0  0  0  0
    4.2524    7.2455    0.0000 H   0  0  0  0  0  0  0  0  0  0  0  0
    4.6775    8.2273    0.0000 H   0  0  0  0  0  0  0  0  0  0  0  0
    5.0053    8.9843    0.0000 H   0  0  0  0  0  0  0  0  0  0  0  0
    4.3676    9.8435    0.0000 H   0  0  0  0  0  0  0  0  0  0  0  0
    2.3878    9.4014    0.0000 H   0  0  0  0  0  0  0  0  0  0  0  0
    2.8130   10.3833    0.0000 H   0  0  0  0  0  0  0  0  0  0  0  0
    4.8414   10.4038    0.0000 H   0  0  0  0  0  0  0  0  0  0  0  0
    4.2037   11.2630    0.0000 H   0  0  0  0  0  0  0  0  0  0  0  0
    3.6922   11.8796    0.0000 H   0  0  0  0  0  0  0  0  0  0  0  0
    2.2735   10.8267    0.0000 H   0  0  0  0  0  0  0  0  0  0  0  0
    1.4892    7.1400    0.0000 H   0  0  0  0  0  0  0  0  0  0  0  0
    3.6940    5.9561    0.0000 H   0  0  0  0  0  0  0  0  0  0  0  0
    2.6976    4.1890    0.0000 H   0  0  0  0  0  0  0  0  0  0  0  0
    3.7605    4.3117    0.0000 H   0  0  0  0  0  0  0  0  0  0  0  0
    3.9182    6.9226    0.0000 H   0  0  0  0  0  0  0  0  0  0  0  0
    5.8812    6.4871    0.0000 H   0  0  0  0  0  0  0  0  0  0  0  0
    3.4845    3.4074    0.0000 H   0  0  0  0  0  0  0  0  0  0  0  0
    4.9978    2.3313    0.0000 H   0  0  0  0  0  0  0  0  0  0  0  0
    6.6865    3.1040    0.0000 H   0  0  0  0  0  0  0  0  0  0  0  0
    6.8618    4.9526    0.0000 H   0  0  0  0  0  0  0  0  0  0  0  0
    1.2248    6.5292    0.0000 H   0  0  0  0  0  0  0  0  0  0  0  0
    0.7870    3.8241    0.0000 H   0  0  0  0  0  0  0  0  0  0  0  0
    2.2188    4.3474    0.0000 H   0  0  0  0  0  0  0  0  0  0  0  0
    1.7937    3.3655    0.0000 H   0  0  0  0  0  0  0  0  0  0  0  0
    2.3450    2.9235    0.0000 H   0  0  0  0  0  0  0  0  0  0  0  0
    1.6072    1.2194    0.0000 H   0  0  0  0  0  0  0  0  0  0  0  0
   -1.0862    1.0889    0.0000 H   0  0  0  0  0  0  0  0  0  0  0  0
   -1.3445    2.4974    0.0000 H   0  0  0  0  0  0  0  0  0  0  0  0
   -0.6066    4.2016    0.0000 H   0  0  0  0  0  0  0  0  0  0  0  0
    0.9232    3.3394    0.0000 H   0  0  0  0  0  0  0  0  0  0  0  0
   -2.5135    6.5387    0.0000 H   0  0  0  0  0  0  0  0  0  0  0  0
   -1.5511    8.2273    0.0000 H   0  0  0  0  0  0  0  0  0  0  0  0
   -1.6484    8.0025    0.0000 H   0  0  0  0  0  0  0  0  0  0  0  0
   -2.3526   10.5060    0.0000 H   0  0  0  0  0  0  0  0  0  0  0  0
   -3.8408    9.4014    0.0000 H   0  0  0  0  0  0  0  0  0  0  0  0
   -3.4156   10.3833    0.0000 H   0  0  0  0  0  0  0  0  0  0  0  0
   -0.8885    8.1775    0.0000 H   0  0  0  0  0  0  0  0  0  0  0  0
   -4.7394    7.1400    0.0000 H   0  0  0  0  0  0  0  0  0  0  0  0
   -3.1746    6.4624    0.0000 H   0  0  0  0  0  0  0  0  0  0  0  0
   -6.6324   -1.7092    0.0000 H   0  0  0  0  0  0  0  0  0  0  0  0
   -7.0575   -2.6911    0.0000 H   0  0  0  0  0  0  0  0  0  0  0  0
   -7.9566   -4.2334    0.0000 H   0  0  0  0  0  0  0  0  0  0  0  0
   -6.8937   -4.1107    0.0000 H   0  0  0  0  0  0  0  0  0  0  0  0
   -6.2866   -2.1750    0.0000 H   0  0  0  0  0  0  0  0  0  0  0  0
   -5.6489   -3.0342    0.0000 H   0  0  0  0  0  0  0  0  0  0  0  0
   -6.6453   -4.8012    0.0000 H   0  0  0  0  0  0  0  0  0  0  0  0
   -5.1572   -3.6966    0.0000 H   0  0  0  0  0  0  0  0  0  0  0  0
   -5.5823   -4.6785    0.0000 H   0  0  0  0  0  0  0  0  0  0  0  0
  2  1  1  1  0  0  0
  2  3  1  0  0  0  0
  2 13  1  0  0  0  0
  2119  1  0  0  0  0
  3  4  1  0  0  0  0
  3123  1  0  0  0  0
  3124  1  0  0  0  0
  4  5  2  0  0  0  0
  4  8  1  0  0  0  0
  5  6  1  0  0  0  0
  5125  1  0  0  0  0
  6  7  1  0  0  0  0
  6126  1  0  0  0  0
  7  8  2  0  0  0  0
  7 12  1  0  0  0  0
  8  9  1  0  0  0  0
  9 10  2  0  0  0  0
 10 11  1  0  0  0  0
 10127  1  0  0  0  0
 11 12  2  0  0  0  0
 11128  1  0  0  0  0
 12129  1  0  0  0  0
 13  9  1  0  0  0  0
 13 14  1  6  0  0  0
 13 15  1  0  0  0  0
 15130  1  0  0  0  0
 15131  1  0  0  0  0
 16 15  1  0  0  0  0
 16 17  1  0  0  0  0
 16118  1  0  0  0  0
 16132  1  6  0  0  0
 17 18  1  0  0  0  0
 17133  1  0  0  0  0
 17134  1  0  0  0  0
 18 19  1  0  0  0  0
 19 20  1  0  0  0  0
 19135  1  0  0  0  0
 19136  1  0  0  0  0
 20 21  2  0  0  0  0
 20 22  1  0  0  0  0
 22 23  1  0  0  0  0
 22137  1  0  0  0  0
 23 24  1  0  0  0  0
 23138  1  0  0  0  0
 23139  1  0  0  0  0
 24 25  1  0  0  0  0
 24140  1  0  0  0  0
 24141  1  0  0  0  0
 25 26  1  0  0  0  0
 25142  1  0  0  0  0
 25143  1  0  0  0  0
 26144  1  0  0  0  0
 26145  1  0  0  0  0
 27 26  1  0  0  0  0
 27 28  1  0  0  0  0
 27 55  1  0  0  0  0
 27146  1  1  0  0  0
 28 29  1  0  0  0  0
 28147  1  0  0  0  0
 29 30  2  0  0  0  0
 29 31  1  0  0  0  0
 31 32  1  0  0  0  0
 31148  1  0  0  0  0
 31149  1  0  0  0  0
 32 33  1  0  0  0  0
 33150  1  0  0  0  0
 33151  1  0  0  0  0
 34 33  1  0  0  0  0
 34 35  1  0  0  0  0
 34 54  1  0  0  0  0
 34152  1  6  0  0  0
 35 36  1  0  0  0  0
 35153  1  0  0  0  0
 35154  1  0  0  0  0
 36 37  1  0  0  0  0
 37 38  1  0  0  0  0
 37155  1  0  0  0  0
 37156  1  0  0  0  0
 38 39  1  0  0  0  0
 38157  1  0  0  0  0
 38158  1  0  0  0  0
 39159  1  0  0  0  0
 39160  1  0  0  0  0
 39161  1  0  0  0  0
 40 36  1  0  0  0  0
 40 41  1  1  0  0  0
 40 42  1  0  0  0  0
 40 52  1  0  0  0  0
 42 43  1  0  0  0  0
 42162  1  0  0  0  0
 42163  1  0  0  0  0
 43 44  2  0  0  0  0
 43 47  1  0  0  0  0
 44 45  1  0  0  0  0
 44164  1  0  0  0  0
 45 46  1  0  0  0  0
 45165  1  0  0  0  0
 46 47  2  0  0  0  0
 46 51  1  0  0  0  0
 47 48  1  0  0  0  0
 48 49  2  0  0  0  0
 49 50  1  0  0  0  0
 49166  1  0  0  0  0
 50 51  2  0  0  0  0
 50167  1  0  0  0  0
 51168  1  0  0  0  0
 52 48  1  0  0  0  0
 52 53  1  6  0  0  0
 52 54  1  0  0  0  0
 54169  1  0  0  0  0
 54170  1  0  0  0  0
 55 56  2  0  0  0  0
 55 57  1  0  0  0  0
 57171  1  0  0  0  0
 58 57  1  0  0  0  0
 58 59  1  0  0  0  0
 58106  1  0  0  0  0
 58172  1  0  0  0  0
 59 60  1  0  0  0  0
 59173  1  0  0  0  0
 59174  1  0  0  0  0
 60 61  1  0  0  0  0
 61 62  1  0  0  0  0
 62175  1  0  0  0  0
 62176  1  0  0  0  0
 63 62  1  0  0  0  0
 63 64  1  0  0  0  0
 63108  1  0  0  0  0
 63177  1  6  0  0  0
 64 65  1  0  0  0  0
 64178  1  0  0  0  0
 65 66  2  0  0  0  0
 67 65  1  0  0  0  0
 67 68  1  0  0  0  0
 67 70  1  0  0  0  0
 67179  1  0  0  0  0
 68 69  1  0  0  0  0
 68180  1  0  0  0  0
 68181  1  0  0  0  0
 69182  1  0  0  0  0
 69183  1  0  0  0  0
 69184  1  0  0  0  0
 70 71  1  0  0  0  0
 70185  1  0  0  0  0
 71 72  2  0  0  0  0
 73 71  1  0  0  0  0
 73 74  1  0  0  0  0
 73 79  1  0  0  0  0
 73186  1  1  0  0  0
 74 75  1  0  0  0  0
 74187  1  0  0  0  0
 74188  1  0  0  0  0
 75 76  1  0  0  0  0
 75189  1  0  0  0  0
 75190  1  0  0  0  0
 76 77  1  0  0  0  0
 76191  1  0  0  0  0
 76192  1  0  0  0  0
 77 78  1  0  0  0  0
 77193  1  0  0  0  0
 77194  1  0  0  0  0
 78195  1  0  0  0  0
 78196  1  0  0  0  0
 79 80  1  0  0  0  0
 79197  1  0  0  0  0
 80 81  2  0  0  0  0
 82 80  1  0  0  0  0
 82 83  1  0  0  0  0
 82 93  1  0  0  0  0
 82198  1  6  0  0  0
 83 84  1  0  0  0  0
 83199  1  0  0  0  0
 83200  1  0  0  0  0
 84 85  2  0  0  0  0
 84 88  1  0  0  0  0
 85 86  1  0  0  0  0
 85201  1  0  0  0  0
 86 87  1  0  0  0  0
 86202  1  0  0  0  0
 87 88  2  0  0  0  0
 87 92  1  0  0  0  0
 88 89  1  0  0  0  0
 89 90  2  0  0  0  0
 89203  1  0  0  0  0
 90 91  1  0  0  0  0
 90204  1  0  0  0  0
 91 92  2  0  0  0  0
 91205  1  0  0  0  0
 92206  1  0  0  0  0
 93 94  1  0  0  0  0
 93207  1  0  0  0  0
 94 95  2  0  0  0  0
 96 94  1  0  0  0  0
 96 97  1  0  0  0  0
 96105  1  0  0  0  0
 96208  1  0  0  0  0
 97 98  1  0  0  0  0
 97209  1  0  0  0  0
 97210  1  0  0  0  0
 98 99  2  0  0  0  0
 98104  1  0  0  0  0
 99100  1  0  0  0  0
 99211  1  0  0  0  0
100101  2  0  0  0  0
100212  1  0  0  0  0
101102  1  0  0  0  0
101103  1  0  0  0  0
102213  1  0  0  0  0
103104  2  0  0  0  0
103214  1  0  0  0  0
104215  1  0  0  0  0
105106  1  0  0  0  0
105216  1  0  0  0  0
106107  2  0  0  0  0
108109  2  0  0  0  0
108110  1  0  0  0  0
110217  1  0  0  0  0
111110  1  0  0  0  0
111112  1  0  0  0  0
111115  1  0  0  0  0
111218  1  1  0  0  0
112113  1  0  0  0  0
112114  1  0  0  0  0
112219  1  6  0  0  0
113220  1  0  0  0  0
113221  1  0  0  0  0
113222  1  0  0  0  0
114223  1  0  0  0  0
115116  1  0  0  0  0
115117  2  0  0  0  0
116224  1  0  0  0  0
116225  1  0  0  0  0
118119  1  0  0  0  0
118226  1  0  0  0  0
118227  1  0  0  0  0
119120  1  0  0  0  0
120121  1  0  0  0  0
120228  1  0  0  0  0
120229  1  0  0  0  0
121122  1  0  0  0  0
121230  1  0  0  0  0
121231  1  0  0  0  0
122232  1  0  0  0  0
122233  1  0  0  0  0
122234  1  0  0  0  0
M  END
>  <DRUGBANK_ID>
DB16144

>  <COMMON_NAME>
Dopastatin

>  <CAS_NUMBER>
868562-36-1

>  <UNII>
L32IM11DV4

$$$$
