1586
 OpenBabel10282417072D

 68 71  0  0  1  0  0  0  0  0999 V2000
    6.5590   -2.5194    0.0000 O   0  0  0  0  0  0  0  0  0  0  0  0
    2.0919   -2.5366    0.0000 O   0  0  0  0  0  0  0  0  0  0  0  0
    9.7049    2.9254    0.0000 O   0  0  0  0  0  0  0  0  0  0  0  0
    9.9996    1.5273    0.0000 O   0  0  0  0  0  0  0  0  0  0  0  0
    6.5410   -0.8436    0.0000 C   0  0  2  0  0  0  0  0  0  0  0  0
    6.5410   -0.0186    0.0000 C   0  0  1  0  0  0  0  0  0  0  0  0
    5.8265   -1.2561    0.0000 C   0  0  1  0  0  0  0  0  0  0  0  0
    5.1122   -0.8436    0.0000 C   0  0  1  0  0  0  0  0  0  0  0  0
    4.3614   -1.2617    0.0000 C   0  0  2  0  0  0  0  0  0  0  0  0
    7.3215    0.2327    0.0000 C   0  0  2  0  0  0  0  0  0  0  0  0
    4.3547   -2.1210    0.0000 C   0  0  2  0  0  0  0  0  0  0  0  0
    5.8265    0.3939    0.0000 C   0  0  0  0  0  0  0  0  0  0  0  0
    5.1122   -0.0186    0.0000 C   0  0  0  0  0  0  0  0  0  0  0  0
    5.8398   -2.1153    0.0000 C   0  0  2  0  0  0  0  0  0  0  0  0
    7.3215   -1.0949    0.0000 C   0  0  0  0  0  0  0  0  0  0  0  0
    7.8030   -0.4312    0.0000 C   0  0  0  0  0  0  0  0  0  0  0  0
    5.0990   -2.5506    0.0000 C   0  0  0  0  0  0  0  0  0  0  0  0
    3.5968   -0.7963    0.0000 C   0  0  0  0  0  0  0  0  0  0  0  0
    6.5410    0.8063    0.0000 C   0  0  0  0  0  0  0  0  0  0  0  0
    7.5779    1.0169    0.0000 C   0  0  1  0  0  0  0  0  0  0  0  0
    3.5831   -2.5745    0.0000 C   0  0  0  0  0  0  0  0  0  0  0  0
    4.3678   -0.4368    0.0000 C   0  0  0  0  0  0  0  0  0  0  0  0
    2.8148   -1.2319    0.0000 C   0  0  0  0  0  0  0  0  0  0  0  0
    2.8079   -2.1270    0.0000 C   0  0  1  0  0  0  0  0  0  0  0  0
    8.3851    1.1870    0.0000 C   0  0  0  0  0  0  0  0  0  0  0  0
    7.0270    1.6310    0.0000 C   0  0  0  0  0  0  0  0  0  0  0  0
    8.6415    1.9712    0.0000 C   0  0  0  0  0  0  0  0  0  0  0  0
    9.4487    2.1413    0.0000 C   0  0  0  0  0  0  0  0  0  0  0  0
    6.6109   -1.4999    0.0000 H   0  0  0  0  0  0  0  0  0  0  0  0
    6.4007   -1.5816    0.0000 H   0  0  0  0  0  0  0  0  0  0  0  0
    5.6836   -0.5137    0.0000 H   0  0  0  0  0  0  0  0  0  0  0  0
    7.9736    0.3352    0.0000 H   0  0  0  0  0  0  0  0  0  0  0  0
    4.3573   -2.7809    0.0000 H   0  0  0  0  0  0  0  0  0  0  0  0
    6.5703   -3.4893    0.0000 H   0  0  0  0  0  0  0  0  0  0  0  0
    1.2538   -2.0483    0.0000 H   0  0  0  0  0  0  0  0  0  0  0  0
   10.6217    3.1187    0.0000 H   0  0  0  0  0  0  0  0  0  0  0  0
    5.8264    1.4639    0.0000 H   0  0  0  0  0  0  0  0  0  0  0  0
    4.8998    0.9288    0.0000 H   0  0  0  0  0  0  0  0  0  0  0  0
    4.1855    0.5164    0.0000 H   0  0  0  0  0  0  0  0  0  0  0  0
    5.1121    1.0514    0.0000 H   0  0  0  0  0  0  0  0  0  0  0  0
    6.7591   -1.5678    0.0000 H   0  0  0  0  0  0  0  0  0  0  0  0
    7.6539   -2.1120    0.0000 H   0  0  0  0  0  0  0  0  0  0  0  0
    8.3785   -1.2610    0.0000 H   0  0  0  0  0  0  0  0  0  0  0  0
    8.8730   -0.4313    0.0000 H   0  0  0  0  0  0  0  0  0  0  0  0
    8.2891   -1.3844    0.0000 H   0  0  0  0  0  0  0  0  0  0  0  0
    5.1032   -3.6206    0.0000 H   0  0  0  0  0  0  0  0  0  0  0  0
    6.0287   -3.0802    0.0000 H   0  0  0  0  0  0  0  0  0  0  0  0
    3.6174    0.2735    0.0000 H   0  0  0  0  0  0  0  0  0  0  0  0
    2.6796   -0.2453    0.0000 H   0  0  0  0  0  0  0  0  0  0  0  0
    7.4676    1.3413    0.0000 H   0  0  0  0  0  0  0  0  0  0  0  0
    5.6144    1.3413    0.0000 H   0  0  0  0  0  0  0  0  0  0  0  0
    6.5410    1.8763    0.0000 H   0  0  0  0  0  0  0  0  0  0  0  0
    6.5309    0.7964    0.0000 H   0  0  0  0  0  0  0  0  0  0  0  0
    3.5873   -3.6445    0.0000 H   0  0  0  0  0  0  0  0  0  0  0  0
    2.6575   -3.1113    0.0000 H   0  0  0  0  0  0  0  0  0  0  0  0
    5.2986    0.0910    0.0000 H   0  0  0  0  0  0  0  0  0  0  0  0
    3.4453    0.1054    0.0000 H   0  0  0  0  0  0  0  0  0  0  0  0
    4.3761    0.6332    0.0000 H   0  0  0  0  0  0  0  0  0  0  0  0
    1.8944   -0.6862    0.0000 H   0  0  0  0  0  0  0  0  0  0  0  0
    1.8830   -1.7580    0.0000 H   0  0  0  0  0  0  0  0  0  0  0  0
    2.8058   -3.1970    0.0000 H   0  0  0  0  0  0  0  0  0  0  0  0
    9.0996    0.3906    0.0000 H   0  0  0  0  0  0  0  0  0  0  0  0
    9.4321    1.4076    0.0000 H   0  0  0  0  0  0  0  0  0  0  0  0
    7.3595    2.6480    0.0000 H   0  0  0  0  0  0  0  0  0  0  0  0
    5.9800    1.4105    0.0000 H   0  0  0  0  0  0  0  0  0  0  0  0
    6.3125    2.4275    0.0000 H   0  0  0  0  0  0  0  0  0  0  0  0
    7.9270    2.7676    0.0000 H   0  0  0  0  0  0  0  0  0  0  0  0
    8.9740    2.9882    0.0000 H   0  0  0  0  0  0  0  0  0  0  0  0
  1 34  1  0  0  0  0
  2 35  1  0  0  0  0
  3 28  1  0  0  0  0
  3 36  1  0  0  0  0
  4 28  2  0  0  0  0
  5  6  1  0  0  0  0
  5  7  1  0  0  0  0
  5 15  1  0  0  0  0
  5 29  1  6  0  0  0
  6 10  1  0  0  0  0
  6 12  1  0  0  0  0
  6 19  1  1  0  0  0
  7  8  1  0  0  0  0
  7 14  1  0  0  0  0
  7 30  1  1  0  0  0
  8  9  1  0  0  0  0
  8 13  1  0  0  0  0
  8 31  1  6  0  0  0
  9 11  1  0  0  0  0
  9 18  1  0  0  0  0
  9 22  1  1  0  0  0
 10 16  1  0  0  0  0
 10 20  1  0  0  0  0
 10 32  1  6  0  0  0
 11 17  1  0  0  0  0
 11 21  1  0  0  0  0
 11 33  1  1  0  0  0
 12 13  1  0  0  0  0
 12 37  1  0  0  0  0
 12 38  1  0  0  0  0
 13 39  1  0  0  0  0
 13 40  1  0  0  0  0
 14  1  1  0  0  0  0
 14 17  1  0  0  0  0
 14 41  1  6  0  0  0
 15 16  1  0  0  0  0
 15 42  1  0  0  0  0
 15 43  1  0  0  0  0
 16 44  1  0  0  0  0
 16 45  1  0  0  0  0
 17 46  1  0  0  0  0
 17 47  1  0  0  0  0
 18 23  1  0  0  0  0
 18 48  1  0  0  0  0
 18 49  1  0  0  0  0
 19 50  1  0  0  0  0
 19 51  1  0  0  0  0
 19 52  1  0  0  0  0
 20 25  1  0  0  0  0
 20 26  1  0  0  0  0
 20 53  1  1  0  0  0
 21 24  1  0  0  0  0
 21 54  1  0  0  0  0
 21 55  1  0  0  0  0
 22 56  1  0  0  0  0
 22 57  1  0  0  0  0
 22 58  1  0  0  0  0
 23 24  1  0  0  0  0
 23 59  1  0  0  0  0
 23 60  1  0  0  0  0
 24  2  1  0  0  0  0
 24 61  1  1  0  0  0
 25 27  1  0  0  0  0
 25 62  1  0  0  0  0
 25 63  1  0  0  0  0
 26 64  1  0  0  0  0
 26 65  1  0  0  0  0
 26 66  1  0  0  0  0
 27 28  1  0  0  0  0
 27 67  1  0  0  0  0
 27 68  1  0  0  0  0
M  END
>  <DRUGBANK_ID>
DB01586

>  <COMMON_NAME>
Ursodeoxycholic acid

>  <CAS_NUMBER>
128-13-2

>  <UNII>
724L30Y2QR

>  <SYNONYMS>
(3alpha,5beta,7beta)-3,7-dihydroxycholan-24-oic acid; (3α,5β,7β)-3,7-dihydroxycholan-24-oic acid; 3alpha,7beta-Dihydroxy-5beta-cholan-24-oic acid; Acide ursodesoxycholique; Acido ursodeossicolico; Acido ursodeoxicolico; Acidum ursodeoxycholicum; UDCA; Ursodeoxycholate; Ursodeoxycholic acid; Ursodiol

$$$$
