NC6
 OpenBabel10282417072D

 42 42  0  0  0  0  0  0  0  0999 V2000
   -2.4065   -0.0534    0.0000 C   0  0  0  0  0  0  0  0  0  0  0  0
   -1.6919   -0.4659    0.0000 N   0  0  0  0  0  0  0  0  0  0  0  0
   -0.9775   -0.0534    0.0000 C   0  0  0  0  0  0  0  0  0  0  0  0
   -0.2629   -0.4659    0.0000 N   0  0  0  0  0  0  0  0  0  0  0  0
    0.4516   -0.0534    0.0000 C   0  0  0  0  0  0  0  0  0  0  0  0
    1.1662   -0.4659    0.0000 C   0  0  0  0  0  0  0  0  0  0  0  0
    1.8806   -0.0534    0.0000 C   0  0  0  0  0  0  0  0  0  0  0  0
    2.5952   -0.4659    0.0000 C   0  0  0  0  0  0  0  0  0  0  0  0
    3.3097   -0.0534    0.0000 C   0  0  0  0  0  0  0  0  0  0  0  0
   -0.9775    0.7717    0.0000 O   0  0  0  0  0  0  0  0  0  0  0  0
    4.0242   -0.4659    0.0000 C   0  0  0  0  0  0  0  0  0  0  0  0
    4.7388   -0.0534    0.0000 O   0  0  0  0  0  0  0  0  0  0  0  0
    4.0242   -1.2910    0.0000 O   0  0  0  0  0  0  0  0  0  0  0  0
   -3.1210   -0.4659    0.0000 C   0  0  0  0  0  0  0  0  0  0  0  0
   -3.8355   -0.0534    0.0000 C   0  0  0  0  0  0  0  0  0  0  0  0
   -3.8355    0.7717    0.0000 C   0  0  0  0  0  0  0  0  0  0  0  0
   -3.1210    1.1842    0.0000 C   0  0  0  0  0  0  0  0  0  0  0  0
   -2.4065    0.7717    0.0000 C   0  0  0  0  0  0  0  0  0  0  0  0
   -3.3331    0.4816    0.0000 H   0  0  0  0  0  0  0  0  0  0  0  0
   -1.6918   -1.4504    0.0000 H   0  0  0  0  0  0  0  0  0  0  0  0
   -0.2629   -1.4504    0.0000 H   0  0  0  0  0  0  0  0  0  0  0  0
    0.4516    1.0166    0.0000 H   0  0  0  0  0  0  0  0  0  0  0  0
    1.3782    0.4817    0.0000 H   0  0  0  0  0  0  0  0  0  0  0  0
    1.1663   -1.5359    0.0000 H   0  0  0  0  0  0  0  0  0  0  0  0
    2.0929   -1.0009    0.0000 H   0  0  0  0  0  0  0  0  0  0  0  0
    1.8805    1.0166    0.0000 H   0  0  0  0  0  0  0  0  0  0  0  0
    2.8072    0.4817    0.0000 H   0  0  0  0  0  0  0  0  0  0  0  0
    2.5952   -1.5359    0.0000 H   0  0  0  0  0  0  0  0  0  0  0  0
    3.5219   -1.0009    0.0000 H   0  0  0  0  0  0  0  0  0  0  0  0
    3.3097    1.0166    0.0000 H   0  0  0  0  0  0  0  0  0  0  0  0
    4.2363    0.4816    0.0000 H   0  0  0  0  0  0  0  0  0  0  0  0
    5.5502   -0.5220    0.0000 H   0  0  0  0  0  0  0  0  0  0  0  0
   -3.1210   -1.5359    0.0000 H   0  0  0  0  0  0  0  0  0  0  0  0
   -4.0476   -1.0009    0.0000 H   0  0  0  0  0  0  0  0  0  0  0  0
   -4.7621   -0.5884    0.0000 H   0  0  0  0  0  0  0  0  0  0  0  0
   -4.7621    0.4816    0.0000 H   0  0  0  0  0  0  0  0  0  0  0  0
   -4.7621    1.3067    0.0000 H   0  0  0  0  0  0  0  0  0  0  0  0
   -3.8355    1.8417    0.0000 H   0  0  0  0  0  0  0  0  0  0  0  0
   -3.1210    2.2542    0.0000 H   0  0  0  0  0  0  0  0  0  0  0  0
   -2.1944    1.7192    0.0000 H   0  0  0  0  0  0  0  0  0  0  0  0
   -1.4799    1.3067    0.0000 H   0  0  0  0  0  0  0  0  0  0  0  0
   -2.4065    1.8417    0.0000 H   0  0  0  0  0  0  0  0  0  0  0  0
  1  2  1  0  0  0  0
  1 14  1  0  0  0  0
  1 18  1  0  0  0  0
  1 19  1  0  0  0  0
  2  3  1  0  0  0  0
  2 20  1  0  0  0  0
  3  4  1  0  0  0  0
  3 10  2  0  0  0  0
  4  5  1  0  0  0  0
  4 21  1  0  0  0  0
  5  6  1  0  0  0  0
  5 22  1  0  0  0  0
  5 23  1  0  0  0  0
  6  7  1  0  0  0  0
  6 24  1  0  0  0  0
  6 25  1  0  0  0  0
  7  8  1  0  0  0  0
  7 26  1  0  0  0  0
  7 27  1  0  0  0  0
  8  9  1  0  0  0  0
  8 28  1  0  0  0  0
  8 29  1  0  0  0  0
  9 11  1  0  0  0  0
  9 30  1  0  0  0  0
  9 31  1  0  0  0  0
 11 12  1  0  0  0  0
 11 13  2  0  0  0  0
 12 32  1  0  0  0  0
 14 15  1  0  0  0  0
 14 33  1  0  0  0  0
 14 34  1  0  0  0  0
 15 16  1  0  0  0  0
 15 35  1  0  0  0  0
 15 36  1  0  0  0  0
 16 17  1  0  0  0  0
 16 37  1  0  0  0  0
 16 38  1  0  0  0  0
 17 18  1  0  0  0  0
 17 39  1  0  0  0  0
 17 40  1  0  0  0  0
 18 41  1  0  0  0  0
 18 42  1  0  0  0  0
M  END
>  <DRUGBANK_ID>
DB08258

>  <COMMON_NAME>
6-{[(CYCLOHEXYLAMINO)CARBONYL]AMINO}HEXANOIC ACID

>  <UNII>
BCV85A2H3R

$$$$
