462
 OpenBabel10282417072D

 51 53  0  0  0  0  0  0  0  0999 V2000
   -2.4618    3.9722    0.0000 C   0  0  0  0  0  0  0  0  0  0  0  0
   -1.6772    3.7173    0.0000 C   0  0  0  0  0  0  0  0  0  0  0  0
   -1.5057    2.9103    0.0000 C   0  0  0  0  0  0  0  0  0  0  0  0
   -0.7211    2.6554    0.0000 O   0  0  0  0  0  0  0  0  0  0  0  0
   -0.5495    1.8484    0.0000 C   0  0  0  0  0  0  0  0  0  0  0  0
    0.2351    1.5935    0.0000 C   0  0  0  0  0  0  0  0  0  0  0  0
    0.4066    0.7865    0.0000 C   0  0  0  0  0  0  0  0  0  0  0  0
   -0.2065    0.2345    0.0000 C   0  0  0  0  0  0  0  0  0  0  0  0
   -0.9911    0.4894    0.0000 C   0  0  0  0  0  0  0  0  0  0  0  0
   -1.1626    1.2964    0.0000 C   0  0  0  0  0  0  0  0  0  0  0  0
   -0.0350   -0.5725    0.0000 C   0  0  0  0  0  0  0  0  0  0  0  0
   -0.5870   -1.1856    0.0000 C   0  0  0  0  0  0  0  0  0  0  0  0
   -0.1745   -1.9001    0.0000 S   0  0  0  0  0  0  0  0  0  0  0  0
    0.6325   -1.7286    0.0000 C   0  0  0  0  0  0  0  0  0  0  0  0
    0.7187   -0.9081    0.0000 C   0  0  0  0  0  0  0  0  0  0  0  0
    1.4332   -0.4956    0.0000 C   0  0  0  0  0  0  0  0  0  0  0  0
    1.4332    0.3294    0.0000 C   0  0  0  0  0  0  0  0  0  0  0  0
    0.7187    0.7419    0.0000 O   0  0  0  0  0  0  0  0  0  0  0  0
    2.1477    0.7419    0.0000 N   0  0  0  0  0  0  0  0  0  0  0  0
    2.8621    0.3294    0.0000 C   0  0  0  0  0  0  0  0  0  0  0  0
    2.8621   -0.4956    0.0000 N   0  0  0  0  0  0  0  0  0  0  0  0
    3.5766    0.7419    0.0000 N   0  0  0  0  0  0  0  0  0  0  0  0
    1.2456   -2.2806    0.0000 C   0  0  0  0  0  0  0  0  0  0  0  0
    2.0302   -2.0257    0.0000 C   0  0  0  0  0  0  0  0  0  0  0  0
    2.6433   -2.5777    0.0000 C   0  0  0  0  0  0  0  0  0  0  0  0
    2.4718   -3.3847    0.0000 C   0  0  0  0  0  0  0  0  0  0  0  0
    1.6871   -3.6396    0.0000 C   0  0  0  0  0  0  0  0  0  0  0  0
    1.0741   -3.0876    0.0000 C   0  0  0  0  0  0  0  0  0  0  0  0
    0.2894   -3.3425    0.0000 Cl  0  0  0  0  0  0  0  0  0  0  0  0
   -2.6843    5.0188    0.0000 H   0  0  0  0  0  0  0  0  0  0  0  0
   -3.2569    3.2562    0.0000 H   0  0  0  0  0  0  0  0  0  0  0  0
   -3.4794    4.3028    0.0000 H   0  0  0  0  0  0  0  0  0  0  0  0
   -0.8820    4.4333    0.0000 H   0  0  0  0  0  0  0  0  0  0  0  0
   -0.6596    3.3866    0.0000 H   0  0  0  0  0  0  0  0  0  0  0  0
   -2.3009    2.1943    0.0000 H   0  0  0  0  0  0  0  0  0  0  0  0
   -1.2832    1.8637    0.0000 H   0  0  0  0  0  0  0  0  0  0  0  0
    1.0020    2.2840    0.0000 H   0  0  0  0  0  0  0  0  0  0  0  0
    1.3881    0.4676    0.0000 H   0  0  0  0  0  0  0  0  0  0  0  0
   -1.7580   -0.2011    0.0000 H   0  0  0  0  0  0  0  0  0  0  0  0
   -2.1441    1.6153    0.0000 H   0  0  0  0  0  0  0  0  0  0  0  0
   -1.6133   -1.0777    0.0000 H   0  0  0  0  0  0  0  0  0  0  0  0
    2.3598   -1.0306    0.0000 H   0  0  0  0  0  0  0  0  0  0  0  0
    1.4332   -1.5656    0.0000 H   0  0  0  0  0  0  0  0  0  0  0  0
    2.1477    1.7264    0.0000 H   0  0  0  0  0  0  0  0  0  0  0  0
    2.0095   -0.9879    0.0000 H   0  0  0  0  0  0  0  0  0  0  0  0
    4.4292    0.2496    0.0000 H   0  0  0  0  0  0  0  0  0  0  0  0
    3.5766    1.7264    0.0000 H   0  0  0  0  0  0  0  0  0  0  0  0
    2.2448   -1.0163    0.0000 H   0  0  0  0  0  0  0  0  0  0  0  0
    3.6248   -2.2588    0.0000 H   0  0  0  0  0  0  0  0  0  0  0  0
    3.2387   -4.0753    0.0000 H   0  0  0  0  0  0  0  0  0  0  0  0
    1.4725   -4.6490    0.0000 H   0  0  0  0  0  0  0  0  0  0  0  0
  1  2  1  0  0  0  0
  1 30  1  0  0  0  0
  1 31  1  0  0  0  0
  1 32  1  0  0  0  0
  2  3  1  0  0  0  0
  2 33  1  0  0  0  0
  2 34  1  0  0  0  0
  3  4  1  0  0  0  0
  3 35  1  0  0  0  0
  3 36  1  0  0  0  0
  4  5  1  0  0  0  0
  5  6  2  0  0  0  0
  5 10  1  0  0  0  0
  6  7  1  0  0  0  0
  6 37  1  0  0  0  0
  7  8  2  0  0  0  0
  7 38  1  0  0  0  0
  8 11  1  0  0  0  0
  9  8  1  0  0  0  0
  9 39  1  0  0  0  0
 10  9  2  0  0  0  0
 10 40  1  0  0  0  0
 11 12  2  0  0  0  0
 12 13  1  0  0  0  0
 12 41  1  0  0  0  0
 14 13  1  0  0  0  0
 15 11  1  0  0  0  0
 15 14  2  0  0  0  0
 16 17  1  0  0  0  0
 16 15  1  0  0  0  0
 16 42  1  0  0  0  0
 16 43  1  0  0  0  0
 17 18  2  0  0  0  0
 19 20  1  0  0  0  0
 19 17  1  0  0  0  0
 19 44  1  0  0  0  0
 20 21  2  0  0  0  0
 21 45  1  0  0  0  0
 22 20  1  0  0  0  0
 22 46  1  0  0  0  0
 22 47  1  0  0  0  0
 23 14  1  0  0  0  0
 23 24  2  0  0  0  0
 24 48  1  0  0  0  0
 25 24  1  0  0  0  0
 25 49  1  0  0  0  0
 26 25  2  0  0  0  0
 26 50  1  0  0  0  0
 27 28  2  0  0  0  0
 27 26  1  0  0  0  0
 27 51  1  0  0  0  0
 28 23  1  0  0  0  0
 29 28  1  0  0  0  0
M  END
>  <DRUGBANK_ID>
DB07089

>  <COMMON_NAME>
N-[amino(imino)methyl]-2-[2-(2-chlorophenyl)-4-(4-propoxyphenyl)-3-thienyl]acetamide

$$$$
