GK5
 OpenBabel10282417072D

 50 53  0  0  0  0  0  0  0  0999 V2000
   -1.5505    0.8584    0.0000 C   0  0  0  0  0  0  0  0  0  0  0  0
    2.4343    4.4604    0.0000 C   0  0  0  0  0  0  0  0  0  0  0  0
    2.8468    3.7459    0.0000 C   0  0  0  0  0  0  0  0  0  0  0  0
    2.0218    3.7459    0.0000 C   0  0  0  0  0  0  0  0  0  0  0  0
   -1.9630   -4.8060    0.0000 C   0  0  0  0  0  0  0  0  0  0  0  0
   -2.3755   -4.0916    0.0000 C   0  0  0  0  0  0  0  0  0  0  0  0
   -1.5505   -4.0916    0.0000 C   0  0  0  0  0  0  0  0  0  0  0  0
   -0.8361    1.2709    0.0000 C   0  0  0  0  0  0  0  0  0  0  0  0
   -0.8361    2.0959    0.0000 C   0  0  0  0  0  0  0  0  0  0  0  0
   -0.1216    2.5084    0.0000 C   0  0  0  0  0  0  0  0  0  0  0  0
    0.5929    2.0959    0.0000 C   0  0  0  0  0  0  0  0  0  0  0  0
    1.3073    2.5084    0.0000 C   0  0  0  0  0  0  0  0  0  0  0  0
    2.0218    2.0959    0.0000 O   0  0  0  0  0  0  0  0  0  0  0  0
    1.3073    3.3334    0.0000 N   0  0  0  0  0  0  0  0  0  0  0  0
    0.5929    1.2709    0.0000 C   0  0  0  0  0  0  0  0  0  0  0  0
   -0.1216    0.8584    0.0000 C   0  0  0  0  0  0  0  0  0  0  0  0
   -0.1216    0.0334    0.0000 C   0  0  0  0  0  0  0  0  0  0  0  0
    0.5929   -0.3791    0.0000 C   0  0  0  0  0  0  0  0  0  0  0  0
    0.5929   -1.2041    0.0000 C   0  0  0  0  0  0  0  0  0  0  0  0
   -0.1216   -1.6166    0.0000 C   0  0  0  0  0  0  0  0  0  0  0  0
   -0.8361   -1.2041    0.0000 C   0  0  0  0  0  0  0  0  0  0  0  0
   -0.8361   -0.3791    0.0000 C   0  0  0  0  0  0  0  0  0  0  0  0
   -0.1216   -2.4416    0.0000 C   0  0  0  0  0  0  0  0  0  0  0  0
    0.5929   -2.8541    0.0000 O   0  0  0  0  0  0  0  0  0  0  0  0
   -0.8361   -2.8541    0.0000 N   0  0  0  0  0  0  0  0  0  0  0  0
   -0.8361   -3.6791    0.0000 C   0  0  0  0  0  0  0  0  0  0  0  0
   -2.4772    1.3934    0.0000 H   0  0  0  0  0  0  0  0  0  0  0  0
   -1.5505   -0.2116    0.0000 H   0  0  0  0  0  0  0  0  0  0  0  0
   -2.4771    0.3234    0.0000 H   0  0  0  0  0  0  0  0  0  0  0  0
    2.4343    5.5304    0.0000 H   0  0  0  0  0  0  0  0  0  0  0  0
    1.4008    4.7373    0.0000 H   0  0  0  0  0  0  0  0  0  0  0  0
    3.7734    3.2109    0.0000 H   0  0  0  0  0  0  0  0  0  0  0  0
    2.5699    2.7124    0.0000 H   0  0  0  0  0  0  0  0  0  0  0  0
    2.2987    2.7124    0.0000 H   0  0  0  0  0  0  0  0  0  0  0  0
   -1.9630   -5.8760    0.0000 H   0  0  0  0  0  0  0  0  0  0  0  0
   -0.9295   -5.0830    0.0000 H   0  0  0  0  0  0  0  0  0  0  0  0
   -3.3022   -3.5566    0.0000 H   0  0  0  0  0  0  0  0  0  0  0  0
   -2.0986   -3.0581    0.0000 H   0  0  0  0  0  0  0  0  0  0  0  0
   -1.8275   -3.0581    0.0000 H   0  0  0  0  0  0  0  0  0  0  0  0
   -1.7298    2.6119    0.0000 H   0  0  0  0  0  0  0  0  0  0  0  0
   -0.1216    3.5404    0.0000 H   0  0  0  0  0  0  0  0  0  0  0  0
    0.4547    3.8257    0.0000 H   0  0  0  0  0  0  0  0  0  0  0  0
    1.4866    0.7549    0.0000 H   0  0  0  0  0  0  0  0  0  0  0  0
    1.4866    0.1369    0.0000 H   0  0  0  0  0  0  0  0  0  0  0  0
    1.4866   -1.7201    0.0000 H   0  0  0  0  0  0  0  0  0  0  0  0
   -1.7298   -1.7201    0.0000 H   0  0  0  0  0  0  0  0  0  0  0  0
   -1.7298    0.1369    0.0000 H   0  0  0  0  0  0  0  0  0  0  0  0
   -1.6887   -2.3618    0.0000 H   0  0  0  0  0  0  0  0  0  0  0  0
    0.0906   -4.2141    0.0000 H   0  0  0  0  0  0  0  0  0  0  0  0
    0.0905   -3.1441    0.0000 H   0  0  0  0  0  0  0  0  0  0  0  0
  1  8  1  0  0  0  0
  1 27  1  0  0  0  0
  1 28  1  0  0  0  0
  1 29  1  0  0  0  0
  2  3  1  0  0  0  0
  2  4  1  0  0  0  0
  2 30  1  0  0  0  0
  2 31  1  0  0  0  0
  3  4  1  0  0  0  0
  3 32  1  0  0  0  0
  3 33  1  0  0  0  0
  4 14  1  0  0  0  0
  4 34  1  0  0  0  0
  5  6  1  0  0  0  0
  5  7  1  0  0  0  0
  5 35  1  0  0  0  0
  5 36  1  0  0  0  0
  6  7  1  0  0  0  0
  6 37  1  0  0  0  0
  6 38  1  0  0  0  0
  7 26  1  0  0  0  0
  7 39  1  0  0  0  0
  8  9  2  0  0  0  0
  8 16  1  0  0  0  0
  9 10  1  0  0  0  0
  9 40  1  0  0  0  0
 10 11  2  0  0  0  0
 10 41  1  0  0  0  0
 11 12  1  0  0  0  0
 11 15  1  0  0  0  0
 12 13  2  0  0  0  0
 12 14  1  0  0  0  0
 14 42  1  0  0  0  0
 15 16  2  0  0  0  0
 15 43  1  0  0  0  0
 16 17  1  0  0  0  0
 17 18  2  0  0  0  0
 17 22  1  0  0  0  0
 18 19  1  0  0  0  0
 18 44  1  0  0  0  0
 19 20  2  0  0  0  0
 19 45  1  0  0  0  0
 20 21  1  0  0  0  0
 20 23  1  0  0  0  0
 21 22  2  0  0  0  0
 21 46  1  0  0  0  0
 22 47  1  0  0  0  0
 23 24  2  0  0  0  0
 23 25  1  0  0  0  0
 25 26  1  0  0  0  0
 25 48  1  0  0  0  0
 26 49  1  0  0  0  0
 26 50  1  0  0  0  0
M  END
>  <DRUGBANK_ID>
DB07835

>  <COMMON_NAME>
N~3~-cyclopropyl-N~4~'-(cyclopropylmethyl)-6-methylbiphenyl-3,4'-dicarboxamide

>  <UNII>
ATH2GHG7LR

$$$$
