
 OpenBabel10282417072D

 41 43  0  0  0  0  0  0  0  0999 V2000
    3.7099    0.0058    0.0000 N   0  0  0  0  0  0  0  0  0  0  0  0
    3.2986   -0.7093    0.0000 C   0  0  0  0  0  0  0  0  0  0  0  0
    2.4736   -0.7107    0.0000 C   0  0  0  0  0  0  0  0  0  0  0  0
    2.0599    0.0029    0.0000 C   0  0  0  0  0  0  0  0  0  0  0  0
    2.4711    0.7181    0.0000 C   0  0  0  0  0  0  0  0  0  0  0  0
    2.0573    1.4318    0.0000 C   0  0  0  0  0  0  0  0  0  0  0  0
    2.4686    2.1470    0.0000 C   0  0  0  0  0  0  0  0  0  0  0  0
    3.2936    2.1485    0.0000 C   0  0  0  0  0  0  0  0  0  0  0  0
    3.7073    1.4348    0.0000 C   0  0  0  0  0  0  0  0  0  0  0  0
    3.2961    0.7196    0.0000 C   0  0  0  0  0  0  0  0  0  0  0  0
    1.2374   -1.4274    0.0000 C   0  0  0  0  0  0  0  0  0  0  0  0
    0.8236   -0.7137    0.0000 C   0  0  3  0  0  0  0  0  0  0  0  0
    1.2349    0.0014    0.0000 C   0  0  0  0  0  0  0  0  0  0  0  0
    2.0624   -1.4259    0.0000 O   0  0  0  0  0  0  0  0  0  0  0  0
    0.8262   -2.1426    0.0000 O   0  0  0  0  0  0  0  0  0  0  0  0
    3.7124   -1.4230    0.0000 O   0  0  0  0  0  0  0  0  0  0  0  0
   -0.0013   -0.7151    0.0000 N   0  0  0  0  0  0  0  0  0  0  0  0
   -0.4125   -1.4303    0.0000 C   0  0  0  0  0  0  0  0  0  0  0  0
   -1.2375   -1.4318    0.0000 C   0  0  0  0  0  0  0  0  0  0  0  0
   -1.6487   -2.1470    0.0000 C   0  0  0  0  0  0  0  0  0  0  0  0
   -2.4737   -2.1485    0.0000 C   0  0  0  0  0  0  0  0  0  0  0  0
   -2.8875   -1.4347    0.0000 C   0  0  0  0  0  0  0  0  0  0  0  0
   -2.4763   -0.7195    0.0000 C   0  0  0  0  0  0  0  0  0  0  0  0
   -1.6513   -0.7181    0.0000 C   0  0  0  0  0  0  0  0  0  0  0  0
    0.0012   -2.1441    0.0000 O   0  0  0  0  0  0  0  0  0  0  0  0
   -3.7125   -1.4362    0.0000 Cl  0  0  0  0  0  0  0  0  0  0  0  0
    4.6944    0.0075    0.0000 H   0  0  0  0  0  0  0  0  0  0  0  0
    1.9592   -1.6053    0.0000 H   0  0  0  0  0  0  0  0  0  0  0  0
    1.0253    1.4300    0.0000 H   0  0  0  0  0  0  0  0  0  0  0  0
    1.9510    3.0398    0.0000 H   0  0  0  0  0  0  0  0  0  0  0  0
    3.8080    3.0432    0.0000 H   0  0  0  0  0  0  0  0  0  0  0  0
    4.7393    1.4366    0.0000 H   0  0  0  0  0  0  0  0  0  0  0  0
    1.8936   -0.7118    0.0000 H   0  0  0  0  0  0  0  0  0  0  0  0
    0.6983    0.9271    0.0000 H   0  0  0  0  0  0  0  0  0  0  0  0
    1.7683    0.9290    0.0000 H   0  0  0  0  0  0  0  0  0  0  0  0
   -0.1108   -2.1443    0.0000 H   0  0  0  0  0  0  0  0  0  0  0  0
   -0.4950    0.1366    0.0000 H   0  0  0  0  0  0  0  0  0  0  0  0
   -1.1311   -3.0398    0.0000 H   0  0  0  0  0  0  0  0  0  0  0  0
   -2.9881   -3.0432    0.0000 H   0  0  0  0  0  0  0  0  0  0  0  0
   -2.9939    0.1733    0.0000 H   0  0  0  0  0  0  0  0  0  0  0  0
   -1.1369    0.1765    0.0000 H   0  0  0  0  0  0  0  0  0  0  0  0
  1  2  1  0  0  0  0
  1 10  1  0  0  0  0
  1 27  1  0  0  0  0
  2  3  1  0  0  0  0
  2 16  2  0  0  0  0
  3  4  2  0  0  0  0
  3 28  1  0  0  0  0
  4  5  1  0  0  0  0
  4 13  1  0  0  0  0
  5  6  1  0  0  0  0
  5 10  2  0  0  0  0
  6  7  2  0  0  0  0
  6 29  1  0  0  0  0
  7  8  1  0  0  0  0
  7 30  1  0  0  0  0
  8  9  2  0  0  0  0
  8 31  1  0  0  0  0
  9 10  1  0  0  0  0
  9 32  1  0  0  0  0
 11 12  1  0  0  0  0
 11 14  2  0  0  0  0
 11 15  1  0  0  0  0
 12 13  1  0  0  0  0
 12 17  1  0  0  0  0
 12 33  1  0  0  0  0
 13 34  1  0  0  0  0
 13 35  1  0  0  0  0
 15 36  1  0  0  0  0
 17 18  1  0  0  0  0
 17 37  1  0  0  0  0
 18 19  1  0  0  0  0
 18 25  2  0  0  0  0
 19 20  1  0  0  0  0
 19 24  2  0  0  0  0
 20 21  2  0  0  0  0
 20 38  1  0  0  0  0
 21 22  1  0  0  0  0
 21 39  1  0  0  0  0
 22 23  2  0  0  0  0
 22 26  1  0  0  0  0
 23 24  1  0  0  0  0
 23 40  1  0  0  0  0
 24 41  1  0  0  0  0
M  END
>  <DRUGBANK_ID>
DB11656

>  <COMMON_NAME>
Rebamipide

>  <CAS_NUMBER>
90098-04-7

>  <UNII>
LR583V32ZR

>  <SYNONYMS>
Rebamipida; Rebamipide; RÃ©bamipide; Rebamipidum

$$$$
