
 OpenBabel10282417072D

 60 59  0  0  0  0  0  0  0  0999 V2000
    3.5725    0.4124    0.0000 C   0  0  0  0  0  0  0  0  0  0  0  0
    2.8580    0.0000    0.0000 C   0  0  0  0  0  0  0  0  0  0  0  0
    2.1435    0.4124    0.0000 C   0  0  0  0  0  0  0  0  0  0  0  0
    1.4289    0.0000    0.0000 C   0  0  0  0  0  0  0  0  0  0  0  0
    0.7145    0.4124    0.0000 C   0  0  0  0  0  0  0  0  0  0  0  0
    0.0000    0.0000    0.0000 C   0  0  0  0  0  0  0  0  0  0  0  0
   -0.7145    0.4124    0.0000 C   0  0  0  0  0  0  0  0  0  0  0  0
   -1.4289    0.0000    0.0000 C   0  0  0  0  0  0  0  0  0  0  0  0
   -2.1435    0.4124    0.0000 C   0  0  0  0  0  0  0  0  0  0  0  0
   -2.8580    0.0000    0.0000 C   0  0  0  0  0  0  0  0  0  0  0  0
    4.2870    0.0000    0.0000 O   0  0  0  0  0  0  0  0  0  0  0  0
   -3.5725    0.4124    0.0000 C   0  0  0  0  0  0  0  0  0  0  0  0
   -4.2870    0.0000    0.0000 C   0  0  0  0  0  0  0  0  0  0  0  0
    3.5725    1.2374    0.0000 O   0  0  0  0  0  0  0  0  0  0  0  0
   -4.2870   -0.8250    0.0000 C   0  0  0  0  0  0  0  0  0  0  0  0
   -3.5724   -1.2374    0.0000 C   0  0  0  0  0  0  0  0  0  0  0  0
   -2.8580   -0.8247    0.0000 C   0  0  0  0  0  0  0  0  0  0  0  0
   -2.1434   -1.2371    0.0000 C   0  0  0  0  0  0  0  0  0  0  0  0
   -1.4290   -0.8244    0.0000 C   0  0  0  0  0  0  0  0  0  0  0  0
   -0.7144   -1.2368    0.0000 C   0  0  0  0  0  0  0  0  0  0  0  0
    0.0000   -0.8241    0.0000 C   0  0  0  0  0  0  0  0  0  0  0  0
    0.7146   -1.2365    0.0000 C   0  0  0  0  0  0  0  0  0  0  0  0
    2.8580   -1.0700    0.0000 H   0  0  0  0  0  0  0  0  0  0  0  0
    1.9314   -0.5351    0.0000 H   0  0  0  0  0  0  0  0  0  0  0  0
    2.1435    1.4824    0.0000 H   0  0  0  0  0  0  0  0  0  0  0  0
    1.2169    0.9475    0.0000 H   0  0  0  0  0  0  0  0  0  0  0  0
    1.4288   -1.0700    0.0000 H   0  0  0  0  0  0  0  0  0  0  0  0
    0.5023   -0.5350    0.0000 H   0  0  0  0  0  0  0  0  0  0  0  0
    0.7145    1.4824    0.0000 H   0  0  0  0  0  0  0  0  0  0  0  0
   -0.2121    0.9475    0.0000 H   0  0  0  0  0  0  0  0  0  0  0  0
    0.0000   -1.0700    0.0000 H   0  0  0  0  0  0  0  0  0  0  0  0
   -0.9266   -0.5351    0.0000 H   0  0  0  0  0  0  0  0  0  0  0  0
   -0.7145    1.4824    0.0000 H   0  0  0  0  0  0  0  0  0  0  0  0
   -1.6411    0.9474    0.0000 H   0  0  0  0  0  0  0  0  0  0  0  0
   -1.4288   -1.0700    0.0000 H   0  0  0  0  0  0  0  0  0  0  0  0
   -2.3555   -0.5351    0.0000 H   0  0  0  0  0  0  0  0  0  0  0  0
   -2.1435    1.4824    0.0000 H   0  0  0  0  0  0  0  0  0  0  0  0
   -3.0701    0.9474    0.0000 H   0  0  0  0  0  0  0  0  0  0  0  0
   -2.8580   -1.0700    0.0000 H   0  0  0  0  0  0  0  0  0  0  0  0
   -3.7846   -0.5351    0.0000 H   0  0  0  0  0  0  0  0  0  0  0  0
    4.2871   -0.9370    0.0000 H   0  0  0  0  0  0  0  0  0  0  0  0
   -3.5725    1.4444    0.0000 H   0  0  0  0  0  0  0  0  0  0  0  0
   -5.1807    0.5161    0.0000 H   0  0  0  0  0  0  0  0  0  0  0  0
   -5.2136   -1.3601    0.0000 H   0  0  0  0  0  0  0  0  0  0  0  0
   -4.2869   -1.8950    0.0000 H   0  0  0  0  0  0  0  0  0  0  0  0
   -3.5722   -2.3074    0.0000 H   0  0  0  0  0  0  0  0  0  0  0  0
   -2.6456   -1.7722    0.0000 H   0  0  0  0  0  0  0  0  0  0  0  0
   -2.8582    0.2453    0.0000 H   0  0  0  0  0  0  0  0  0  0  0  0
   -1.9315   -0.2895    0.0000 H   0  0  0  0  0  0  0  0  0  0  0  0
   -2.1432   -2.3071    0.0000 H   0  0  0  0  0  0  0  0  0  0  0  0
   -1.2166   -1.7719    0.0000 H   0  0  0  0  0  0  0  0  0  0  0  0
   -1.4292    0.2456    0.0000 H   0  0  0  0  0  0  0  0  0  0  0  0
   -0.5025   -0.2892    0.0000 H   0  0  0  0  0  0  0  0  0  0  0  0
   -0.7142   -2.3068    0.0000 H   0  0  0  0  0  0  0  0  0  0  0  0
    0.2124   -1.7716    0.0000 H   0  0  0  0  0  0  0  0  0  0  0  0
   -0.0002    0.2459    0.0000 H   0  0  0  0  0  0  0  0  0  0  0  0
    0.9265   -0.2889    0.0000 H   0  0  0  0  0  0  0  0  0  0  0  0
    0.7148   -2.3065    0.0000 H   0  0  0  0  0  0  0  0  0  0  0  0
    1.6411   -0.7013    0.0000 H   0  0  0  0  0  0  0  0  0  0  0  0
    1.6413   -1.7713    0.0000 H   0  0  0  0  0  0  0  0  0  0  0  0
  1 14  2  0  0  0  0
  1  2  1  0  0  0  0
  1 11  1  0  0  0  0
  2  3  1  0  0  0  0
  2 23  1  0  0  0  0
  2 24  1  0  0  0  0
  3  4  1  0  0  0  0
  3 25  1  0  0  0  0
  3 26  1  0  0  0  0
  4  5  1  0  0  0  0
  4 27  1  0  0  0  0
  4 28  1  0  0  0  0
  5  6  1  0  0  0  0
  5 29  1  0  0  0  0
  5 30  1  0  0  0  0
  6  7  1  0  0  0  0
  6 31  1  0  0  0  0
  6 32  1  0  0  0  0
  7  8  1  0  0  0  0
  7 33  1  0  0  0  0
  7 34  1  0  0  0  0
  8  9  1  0  0  0  0
  8 35  1  0  0  0  0
  8 36  1  0  0  0  0
  9 10  1  0  0  0  0
  9 37  1  0  0  0  0
  9 38  1  0  0  0  0
 10 39  1  0  0  0  0
 10 40  1  0  0  0  0
 11 41  1  0  0  0  0
 12 10  1  0  0  0  0
 12 42  1  0  0  0  0
 13 12  2  0  0  0  0
 13 43  1  0  0  0  0
 15 13  1  0  0  0  0
 15 44  1  0  0  0  0
 15 45  1  0  0  0  0
 16 15  1  0  0  0  0
 16 46  1  0  0  0  0
 16 47  1  0  0  0  0
 17 16  1  0  0  0  0
 17 48  1  0  0  0  0
 17 49  1  0  0  0  0
 18 17  1  0  0  0  0
 18 50  1  0  0  0  0
 18 51  1  0  0  0  0
 19 18  1  0  0  0  0
 19 52  1  0  0  0  0
 19 53  1  0  0  0  0
 20 19  1  0  0  0  0
 20 54  1  0  0  0  0
 20 55  1  0  0  0  0
 21 20  1  0  0  0  0
 21 56  1  0  0  0  0
 21 57  1  0  0  0  0
 22 21  1  0  0  0  0
 22 58  1  0  0  0  0
 22 59  1  0  0  0  0
 22 60  1  0  0  0  0
M  END
>  <DRUGBANK_ID>
DB14073

>  <COMMON_NAME>
Gondoic acid

>  <CAS_NUMBER>
5561-99-9

>  <UNII>
UDX6WPL94T

>  <SYNONYMS>
(11Z)-Eicosenoic acid; (11Z)-Icosenoic acid; (Z)-eicos-11-enoic acid; (Z)-icos-11-enoic acid; (Z)-Icosa-11-enoic acid; 11-Eicosenoic acid; 11-Icosenoic acid; cis-11-eicosenoic acid; cis-gondoic acid; cis-Î”11-eicosenoic acid; Eicosenoic acid

$$$$
