AIQ
 OpenBabel10282417072D

 32 34  0  0  0  0  0  0  0  0999 V2000
   -1.0547   -0.7424    0.0000 C   0  0  0  0  0  0  0  0  0  0  0  0
   -0.3403   -0.3299    0.0000 C   0  0  0  0  0  0  0  0  0  0  0  0
   -0.3403    0.4951    0.0000 C   0  0  0  0  0  0  0  0  0  0  0  0
    0.3742   -0.7424    0.0000 C   0  0  0  0  0  0  0  0  0  0  0  0
    1.0887   -0.3299    0.0000 N   0  0  0  0  0  0  0  0  0  0  0  0
    1.8031   -0.7424    0.0000 C   0  0  0  0  0  0  0  0  0  0  0  0
    2.5176   -0.3299    0.0000 N   0  0  0  0  0  0  0  0  0  0  0  0
    1.8031   -1.5674    0.0000 N   0  0  0  0  0  0  0  0  0  0  0  0
    1.0887   -1.9799    0.0000 C   0  0  0  0  0  0  0  0  0  0  0  0
    1.0887   -2.8049    0.0000 O   0  0  0  0  0  0  0  0  0  0  0  0
    0.3742   -1.5674    0.0000 C   0  0  0  0  0  0  0  0  0  0  0  0
   -0.3403   -1.9799    0.0000 C   0  0  0  0  0  0  0  0  0  0  0  0
   -1.0547   -1.5674    0.0000 C   0  0  0  0  0  0  0  0  0  0  0  0
   -1.7692   -1.9799    0.0000 N   0  0  0  0  0  0  0  0  0  0  0  0
   -1.0547    0.9076    0.0000 S   0  0  0  0  0  0  0  0  0  0  0  0
   -1.0547    1.7326    0.0000 C   0  0  0  0  0  0  0  0  0  0  0  0
   -1.7222    2.2176    0.0000 N   0  0  0  0  0  0  0  0  0  0  0  0
   -0.3873    2.2176    0.0000 N   0  0  0  0  0  0  0  0  0  0  0  0
   -1.4672    3.0022    0.0000 C   0  0  0  0  0  0  0  0  0  0  0  0
   -0.6422    3.0022    0.0000 C   0  0  0  0  0  0  0  0  0  0  0  0
   -1.9484   -0.2264    0.0000 H   0  0  0  0  0  0  0  0  0  0  0  0
    0.5864    1.0301    0.0000 H   0  0  0  0  0  0  0  0  0  0  0  0
   -0.3403    1.5651    0.0000 H   0  0  0  0  0  0  0  0  0  0  0  0
    3.3702   -0.8222    0.0000 H   0  0  0  0  0  0  0  0  0  0  0  0
    2.5176    0.6546    0.0000 H   0  0  0  0  0  0  0  0  0  0  0  0
    2.6557   -2.0596    0.0000 H   0  0  0  0  0  0  0  0  0  0  0  0
   -0.3403   -3.0119    0.0000 H   0  0  0  0  0  0  0  0  0  0  0  0
   -2.6218   -1.4876    0.0000 H   0  0  0  0  0  0  0  0  0  0  0  0
   -1.7692   -2.9644    0.0000 H   0  0  0  0  0  0  0  0  0  0  0  0
    0.5490    1.9134    0.0000 H   0  0  0  0  0  0  0  0  0  0  0  0
   -2.0738    3.8371    0.0000 H   0  0  0  0  0  0  0  0  0  0  0  0
   -0.0356    3.8371    0.0000 H   0  0  0  0  0  0  0  0  0  0  0  0
  1  2  2  0  0  0  0
  1 13  1  0  0  0  0
  1 21  1  0  0  0  0
  2  3  1  0  0  0  0
  2  4  1  0  0  0  0
  3 15  1  0  0  0  0
  3 22  1  0  0  0  0
  3 23  1  0  0  0  0
  4  5  1  0  0  0  0
  4 11  2  0  0  0  0
  5  6  2  0  0  0  0
  6  7  1  0  0  0  0
  6  8  1  0  0  0  0
  7 24  1  0  0  0  0
  7 25  1  0  0  0  0
  8  9  1  0  0  0  0
  8 26  1  0  0  0  0
  9 10  2  0  0  0  0
  9 11  1  0  0  0  0
 11 12  1  0  0  0  0
 12 13  2  0  0  0  0
 12 27  1  0  0  0  0
 13 14  1  0  0  0  0
 14 28  1  0  0  0  0
 14 29  1  0  0  0  0
 15 16  1  0  0  0  0
 16 17  2  0  0  0  0
 16 18  1  0  0  0  0
 17 19  1  0  0  0  0
 18 20  1  0  0  0  0
 18 30  1  0  0  0  0
 19 20  2  0  0  0  0
 19 31  1  0  0  0  0
 20 32  1  0  0  0  0
M  END
>  <DRUGBANK_ID>
DB04543

>  <SECONDARY_ACCESSION_NUMBERS>
EXPT00476

>  <COMMON_NAME>
2,6-Diamino-8-(1h-Imidazol-2-Ylsulfanylmethyl)-3h-Quinazoline-4-One

$$$$
