
 OpenBabel10282417072D

 15 15  0  0  0  0  0  0  0  0999 V2000
   -0.3938    1.4191    0.0000 N   0  0  0  0  0  0  0  0  0  0  0  0
    0.2382    0.8888    0.0000 C   0  0  0  0  0  0  0  0  0  0  0  0
    0.6507    0.1743    0.0000 C   0  0  0  0  0  0  0  0  0  0  0  0
   -0.1743    0.1743    0.0000 C   0  0  0  0  0  0  0  0  0  0  0  0
    0.8701    1.4191    0.0000 P   0  0  2  0  0  0  0  0  0  0  0  0
    1.5021    1.9494    0.0000 O   0  0  0  0  0  0  0  0  0  0  0  0
    1.4004    0.7871    0.0000 O   0  5  0  0  0  0  0  0  0  0  0  0
    0.3398    2.0511    0.0000 O   0  0  0  0  0  0  0  0  0  0  0  0
   -0.2167    2.4236    0.0000 H   0  0  0  0  0  0  0  0  0  0  0  0
   -1.3523    1.0702    0.0000 H   0  0  0  0  0  0  0  0  0  0  0  0
    1.5773   -0.3607    0.0000 H   0  0  0  0  0  0  0  0  0  0  0  0
    0.3738   -0.8592    0.0000 H   0  0  0  0  0  0  0  0  0  0  0  0
   -1.1009   -0.3607    0.0000 H   0  0  0  0  0  0  0  0  0  0  0  0
   -0.9309    0.9309    0.0000 H   0  0  0  0  0  0  0  0  0  0  0  0
    2.4136    1.6176    0.0000 H   0  0  0  0  0  0  0  0  0  0  0  0
  1  2  1  0  0  0  0
  1  9  1  0  0  0  0
  1 10  1  0  0  0  0
  2  3  1  0  0  0  0
  2  4  1  0  0  0  0
  2  5  1  0  0  0  0
  3  4  1  0  0  0  0
  3 11  1  0  0  0  0
  3 12  1  0  0  0  0
  4 13  1  0  0  0  0
  4 14  1  0  0  0  0
  5  6  1  0  0  0  0
  5  7  1  1  0  0  0
  5  8  2  0  0  0  0
  6 15  1  0  0  0  0
M  CHG  1   7  -1
M  END
>  <DRUGBANK_ID>
DB03053

>  <SECONDARY_ACCESSION_NUMBERS>
EXPT02186

>  <COMMON_NAME>
1-Aminocyclopropylphosphonate

$$$$
