
 OpenBabel10282417072D

 56 60  0  0  0  0  0  0  0  0999 V2000
    6.7063    5.8305    0.0000 C   0  0  0  0  0  0  0  0  0  0  0  0
    6.1919    5.1855    0.0000 C   0  0  0  0  0  0  0  0  0  0  0  0
    6.4933    4.4175    0.0000 C   0  0  0  0  0  0  0  0  0  0  0  0
    5.9790    3.7725    0.0000 C   0  0  0  0  0  0  0  0  0  0  0  0
    6.2804    3.0045    0.0000 C   0  0  0  0  0  0  0  0  0  0  0  0
    7.0961    2.8815    0.0000 N   0  0  0  0  0  0  0  0  0  0  0  0
    7.6105    3.5266    0.0000 C   0  0  0  0  0  0  0  0  0  0  0  0
    8.4263    3.4036    0.0000 C   0  0  0  0  0  0  0  0  0  0  0  0
    8.3034    2.5878    0.0000 N   0  0  0  0  0  0  0  0  0  0  0  0
    8.5493    4.2194    0.0000 C   0  0  0  0  0  0  0  0  0  0  0  0
    9.3651    4.0964    0.0000 O   0  0  0  0  0  0  0  0  0  0  0  0
    9.2421    3.2806    0.0000 C   0  0  0  0  0  0  0  0  0  0  0  0
    5.7660    2.3595    0.0000 N   0  0  0  0  0  0  0  0  0  0  0  0
    4.9502    2.4825    0.0000 C   0  0  0  0  0  0  0  0  0  0  0  0
    4.6488    3.2504    0.0000 N   0  0  0  0  0  0  0  0  0  0  0  0
    5.1632    3.8954    0.0000 C   0  0  0  0  0  0  0  0  0  0  0  0
    4.8618    4.6634    0.0000 C   0  0  0  0  0  0  0  0  0  0  0  0
    5.3761    5.3084    0.0000 C   0  0  0  0  0  0  0  0  0  0  0  0
    4.4358    1.8374    0.0000 N   0  0  0  0  0  0  0  0  0  0  0  0
    4.7938    1.0941    0.0000 C   0  0  0  0  0  0  0  0  0  0  0  0
    4.4358    0.3508    0.0000 C   0  0  0  0  0  0  0  0  0  0  0  0
    3.6315    0.1673    0.0000 S   0  0  0  0  0  0  0  0  0  0  0  0
    3.9895   -0.5760    0.0000 O   0  0  0  0  0  0  0  0  0  0  0  0
    2.9865   -0.3471    0.0000 O   0  0  0  0  0  0  0  0  0  0  0  0
    2.9865    0.6816    0.0000 C   0  0  0  0  0  0  0  0  0  0  0  0
    2.2720    0.2691    0.0000 C   0  0  0  0  0  0  0  0  0  0  0  0
    1.5575    0.6816    0.0000 C   0  0  0  0  0  0  0  0  0  0  0  0
    1.5575    1.5066    0.0000 C   0  0  0  0  0  0  0  0  0  0  0  0
    2.2720    1.9191    0.0000 C   0  0  0  0  0  0  0  0  0  0  0  0
    2.9865    1.5066    0.0000 C   0  0  0  0  0  0  0  0  0  0  0  0
    3.6315    2.0210    0.0000 C   0  0  0  0  0  0  0  0  0  0  0  0
    7.7643    5.6710    0.0000 H   0  0  0  0  0  0  0  0  0  0  0  0
    6.3154    6.8265    0.0000 H   0  0  0  0  0  0  0  0  0  0  0  0
    7.3735    6.6670    0.0000 H   0  0  0  0  0  0  0  0  0  0  0  0
    7.5138    4.2637    0.0000 H   0  0  0  0  0  0  0  0  0  0  0  0
    7.4558    1.9651    0.0000 H   0  0  0  0  0  0  0  0  0  0  0  0
    7.2196    4.5226    0.0000 H   0  0  0  0  0  0  0  0  0  0  0  0
    8.2777    4.3631    0.0000 H   0  0  0  0  0  0  0  0  0  0  0  0
    7.3539    2.2151    0.0000 H   0  0  0  0  0  0  0  0  0  0  0  0
    9.1009    1.9519    0.0000 H   0  0  0  0  0  0  0  0  0  0  0  0
    7.9140    5.0803    0.0000 H   0  0  0  0  0  0  0  0  0  0  0  0
    9.1016    5.1359    0.0000 H   0  0  0  0  0  0  0  0  0  0  0  0
    9.8774    2.4197    0.0000 H   0  0  0  0  0  0  0  0  0  0  0  0
    8.6898    2.3641    0.0000 H   0  0  0  0  0  0  0  0  0  0  0  0
    3.8413    4.8172    0.0000 H   0  0  0  0  0  0  0  0  0  0  0  0
    4.9990    6.2690    0.0000 H   0  0  0  0  0  0  0  0  0  0  0  0
    5.8638    1.0941    0.0000 H   0  0  0  0  0  0  0  0  0  0  0  0
    5.3631    0.1881    0.0000 H   0  0  0  0  0  0  0  0  0  0  0  0
    5.1029   -0.4858    0.0000 H   0  0  0  0  0  0  0  0  0  0  0  0
    4.0823   -0.6591    0.0000 H   0  0  0  0  0  0  0  0  0  0  0  0
    2.2720   -0.7629    0.0000 H   0  0  0  0  0  0  0  0  0  0  0  0
    0.6638    0.1656    0.0000 H   0  0  0  0  0  0  0  0  0  0  0  0
    0.6638    2.0226    0.0000 H   0  0  0  0  0  0  0  0  0  0  0  0
    2.2720    2.9511    0.0000 H   0  0  0  0  0  0  0  0  0  0  0  0
    3.3934    3.0642    0.0000 H   0  0  0  0  0  0  0  0  0  0  0  0
    4.3881    2.7776    0.0000 H   0  0  0  0  0  0  0  0  0  0  0  0
  1  2  1  0  0  0  0
  1 32  1  0  0  0  0
  1 33  1  0  0  0  0
  1 34  1  0  0  0  0
  2  3  2  0  0  0  0
  2 18  1  0  0  0  0
  3  4  1  0  0  0  0
  3 35  1  0  0  0  0
  4  5  2  0  0  0  0
  4 16  1  0  0  0  0
  5  6  1  0  0  0  0
  5 13  1  0  0  0  0
  6  7  1  0  0  0  0
  6 36  1  0  0  0  0
  7  8  1  0  0  0  0
  7 37  1  0  0  0  0
  7 38  1  0  0  0  0
  8  9  1  0  0  0  0
  8 10  1  0  0  0  0
  8 12  1  0  0  0  0
  9 39  1  0  0  0  0
  9 40  1  0  0  0  0
 10 11  1  0  0  0  0
 10 41  1  0  0  0  0
 10 42  1  0  0  0  0
 11 12  1  0  0  0  0
 12 43  1  0  0  0  0
 12 44  1  0  0  0  0
 13 14  2  0  0  0  0
 14 15  1  0  0  0  0
 14 19  1  0  0  0  0
 15 16  2  0  0  0  0
 16 17  1  0  0  0  0
 17 18  2  0  0  0  0
 17 45  1  0  0  0  0
 18 46  1  0  0  0  0
 19 20  1  0  0  0  0
 19 31  1  0  0  0  0
 20 21  1  0  0  0  0
 20 47  1  0  0  0  0
 20 48  1  0  0  0  0
 21 22  1  0  0  0  0
 21 49  1  0  0  0  0
 21 50  1  0  0  0  0
 22 23  2  0  0  0  0
 22 24  2  0  0  0  0
 22 25  1  0  0  0  0
 25 26  2  0  0  0  0
 25 30  1  0  0  0  0
 26 27  1  0  0  0  0
 26 51  1  0  0  0  0
 27 28  2  0  0  0  0
 27 52  1  0  0  0  0
 28 29  1  0  0  0  0
 28 53  1  0  0  0  0
 29 30  2  0  0  0  0
 29 54  1  0  0  0  0
 30 31  1  0  0  0  0
 31 55  1  0  0  0  0
 31 56  1  0  0  0  0
M  END
>  <DRUGBANK_ID>
DB15145

>  <COMMON_NAME>
Ziresovir

>  <CAS_NUMBER>
1422500-60-4

>  <UNII>
XCF42D7AG4

>  <SYNONYMS>
Ziresovir

$$$$
