
 OpenBabel10282417072D

 83 84  0  0  0  0  0  0  0  0999 V2000
    5.7461   -5.7468    0.0000 C   0  0  0  0  0  0  0  0  0  0  0  0
    5.7461   -4.9218    0.0000 C   0  0  0  0  0  0  0  0  0  0  0  0
    7.1750   -4.9218    0.0000 C   0  0  0  0  0  0  0  0  0  0  0  0
    7.1750   -5.7468    0.0000 C   0  0  0  0  0  0  0  0  0  0  0  0
    6.4605   -4.5093    0.0000 C   0  0  0  0  0  0  0  0  0  0  0  0
    7.1750   -3.2718    0.0000 C   0  0  0  0  0  0  0  0  0  0  0  0
    5.7461   -3.2718    0.0000 C   0  0  0  0  0  0  0  0  0  0  0  0
    6.4605   -3.6842    0.0000 C   0  0  0  0  0  0  0  0  0  0  0  0
    6.4605   -2.8593    0.0000 C   0  0  0  0  0  0  0  0  0  0  0  0
    6.4605   -6.1592    0.0000 C   0  0  0  0  0  0  0  0  0  0  0  0
    7.8894   -6.1592    0.0000 S   0  0  0  0  0  0  0  0  0  0  0  0
    9.3184   -6.1592    0.0000 S   0  0  0  0  0  0  0  0  0  0  0  0
   10.0300   -5.7965    0.0000 C   0  0  0  0  0  0  0  0  0  0  0  0
   10.0300   -4.9715    0.0000 C   0  0  0  0  0  0  0  0  0  0  0  0
   11.4590   -4.9715    0.0000 C   0  0  0  0  0  0  0  0  0  0  0  0
   11.4590   -5.7965    0.0000 C   0  0  0  0  0  0  0  0  0  0  0  0
   10.7445   -4.5590    0.0000 C   0  0  0  0  0  0  0  0  0  0  0  0
   11.4590   -3.3215    0.0000 C   0  0  0  0  0  0  0  0  0  0  0  0
   10.0300   -3.3215    0.0000 C   0  0  0  0  0  0  0  0  0  0  0  0
   10.7445   -3.7340    0.0000 C   0  0  0  0  0  0  0  0  0  0  0  0
   10.7445   -2.9089    0.0000 C   0  0  0  0  0  0  0  0  0  0  0  0
   10.7445   -6.2089    0.0000 C   0  0  0  0  0  0  0  0  0  0  0  0
    8.6038   -5.7468    0.0000 C   0  0  0  0  0  0  0  0  0  0  0  0
   12.1735   -6.2089    0.0000 C   0  0  0  0  0  0  0  0  0  0  0  0
   12.8879   -5.7965    0.0000 C   0  0  0  0  0  0  0  0  0  0  0  0
   12.1735   -7.0340    0.0000 C   0  0  0  0  0  0  0  0  0  0  0  0
   13.0888   -6.6846    0.0000 C   0  0  0  0  0  0  0  0  0  0  0  0
    5.0316   -6.1592    0.0000 C   0  0  0  0  0  0  0  0  0  0  0  0
    5.0316   -6.9842    0.0000 C   0  0  0  0  0  0  0  0  0  0  0  0
    4.3171   -5.7467    0.0000 C   0  0  0  0  0  0  0  0  0  0  0  0
    4.1529   -6.7045    0.0000 C   0  0  0  0  0  0  0  0  0  0  0  0
    5.0316   -4.5093    0.0000 O   0  0  0  0  0  0  0  0  0  0  0  0
   12.1735   -4.5590    0.0000 O   0  0  0  0  0  0  0  0  0  0  0  0
    8.1912   -5.0324    0.0000 C   0  0  0  0  0  0  0  0  0  0  0  0
    9.0163   -5.0323    0.0000 C   0  0  0  0  0  0  0  0  0  0  0  0
    8.0687   -4.4058    0.0000 H   0  0  0  0  0  0  0  0  0  0  0  0
    8.1016   -3.8069    0.0000 H   0  0  0  0  0  0  0  0  0  0  0  0
    7.1751   -2.2018    0.0000 H   0  0  0  0  0  0  0  0  0  0  0  0
    8.1017   -2.7369    0.0000 H   0  0  0  0  0  0  0  0  0  0  0  0
    5.7460   -2.2018    0.0000 H   0  0  0  0  0  0  0  0  0  0  0  0
    4.8195   -3.8069    0.0000 H   0  0  0  0  0  0  0  0  0  0  0  0
    4.8194   -2.7369    0.0000 H   0  0  0  0  0  0  0  0  0  0  0  0
    7.3871   -2.3243    0.0000 H   0  0  0  0  0  0  0  0  0  0  0  0
    5.5339   -2.3243    0.0000 H   0  0  0  0  0  0  0  0  0  0  0  0
    6.4605   -1.7893    0.0000 H   0  0  0  0  0  0  0  0  0  0  0  0
    6.4605   -7.1912    0.0000 H   0  0  0  0  0  0  0  0  0  0  0  0
    9.1363   -4.4555    0.0000 H   0  0  0  0  0  0  0  0  0  0  0  0
   12.3856   -3.8565    0.0000 H   0  0  0  0  0  0  0  0  0  0  0  0
   11.4590   -2.2515    0.0000 H   0  0  0  0  0  0  0  0  0  0  0  0
   12.3857   -2.7865    0.0000 H   0  0  0  0  0  0  0  0  0  0  0  0
   10.0300   -2.2515    0.0000 H   0  0  0  0  0  0  0  0  0  0  0  0
    9.1034   -3.8565    0.0000 H   0  0  0  0  0  0  0  0  0  0  0  0
    9.1033   -2.7865    0.0000 H   0  0  0  0  0  0  0  0  0  0  0  0
   11.6711   -2.3739    0.0000 H   0  0  0  0  0  0  0  0  0  0  0  0
    9.8179   -2.3739    0.0000 H   0  0  0  0  0  0  0  0  0  0  0  0
   10.7445   -1.8389    0.0000 H   0  0  0  0  0  0  0  0  0  0  0  0
   10.7445   -7.2409    0.0000 H   0  0  0  0  0  0  0  0  0  0  0  0
   13.8145   -6.3316    0.0000 H   0  0  0  0  0  0  0  0  0  0  0  0
   12.8880   -4.7265    0.0000 H   0  0  0  0  0  0  0  0  0  0  0  0
   13.8146   -5.2616    0.0000 H   0  0  0  0  0  0  0  0  0  0  0  0
   11.2469   -7.5690    0.0000 H   0  0  0  0  0  0  0  0  0  0  0  0
   13.1001   -7.5690    0.0000 H   0  0  0  0  0  0  0  0  0  0  0  0
   12.1735   -8.1040    0.0000 H   0  0  0  0  0  0  0  0  0  0  0  0
   13.1362   -7.7536    0.0000 H   0  0  0  0  0  0  0  0  0  0  0  0
   13.9908   -6.1091    0.0000 H   0  0  0  0  0  0  0  0  0  0  0  0
   14.0382   -7.1780    0.0000 H   0  0  0  0  0  0  0  0  0  0  0  0
    4.1050   -7.5192    0.0000 H   0  0  0  0  0  0  0  0  0  0  0  0
    5.9582   -7.5192    0.0000 H   0  0  0  0  0  0  0  0  0  0  0  0
    5.0316   -8.0542    0.0000 H   0  0  0  0  0  0  0  0  0  0  0  0
    4.3171   -4.6767    0.0000 H   0  0  0  0  0  0  0  0  0  0  0  0
    3.3905   -6.2817    0.0000 H   0  0  0  0  0  0  0  0  0  0  0  0
    3.3904   -5.2117    0.0000 H   0  0  0  0  0  0  0  0  0  0  0  0
    3.2097   -6.1992    0.0000 H   0  0  0  0  0  0  0  0  0  0  0  0
    4.1869   -7.7740    0.0000 H   0  0  0  0  0  0  0  0  0  0  0  0
    3.2437   -7.2687    0.0000 H   0  0  0  0  0  0  0  0  0  0  0  0
    5.0316   -3.5723    0.0000 H   0  0  0  0  0  0  0  0  0  0  0  0
   12.9850   -5.0275    0.0000 H   0  0  0  0  0  0  0  0  0  0  0  0
    8.7261   -4.1057    0.0000 H   0  0  0  0  0  0  0  0  0  0  0  0
    7.1212   -5.0326    0.0000 H   0  0  0  0  0  0  0  0  0  0  0  0
    7.6561   -4.1058    0.0000 H   0  0  0  0  0  0  0  0  0  0  0  0
   10.0863   -5.0323    0.0000 H   0  0  0  0  0  0  0  0  0  0  0  0
    8.4813   -4.1057    0.0000 H   0  0  0  0  0  0  0  0  0  0  0  0
    9.5513   -4.1056    0.0000 H   0  0  0  0  0  0  0  0  0  0  0  0
  1  2  2  0  0  0  0
  1 28  1  0  0  0  0
  2  5  1  0  0  0  0
  2 32  1  0  0  0  0
  3  4  1  0  0  0  0
  3 36  1  0  0  0  0
  4 11  1  0  0  0  0
  5  3  2  0  0  0  0
  5  8  1  0  0  0  0
  6 37  1  0  0  0  0
  6 38  1  0  0  0  0
  6 39  1  0  0  0  0
  7 40  1  0  0  0  0
  7 41  1  0  0  0  0
  7 42  1  0  0  0  0
  8  6  1  0  0  0  0
  8  7  1  0  0  0  0
  8  9  1  0  0  0  0
  9 43  1  0  0  0  0
  9 44  1  0  0  0  0
  9 45  1  0  0  0  0
 10  1  1  0  0  0  0
 10  4  2  0  0  0  0
 10 46  1  0  0  0  0
 11 23  1  0  0  0  0
 12 13  1  0  0  0  0
 13 14  2  0  0  0  0
 14 17  1  0  0  0  0
 14 47  1  0  0  0  0
 15 16  1  0  0  0  0
 15 33  1  0  0  0  0
 16 24  1  0  0  0  0
 17 15  2  0  0  0  0
 17 20  1  0  0  0  0
 18 48  1  0  0  0  0
 18 49  1  0  0  0  0
 18 50  1  0  0  0  0
 19 51  1  0  0  0  0
 19 52  1  0  0  0  0
 19 53  1  0  0  0  0
 20 18  1  0  0  0  0
 20 19  1  0  0  0  0
 20 21  1  0  0  0  0
 21 54  1  0  0  0  0
 21 55  1  0  0  0  0
 21 56  1  0  0  0  0
 22 13  1  0  0  0  0
 22 16  2  0  0  0  0
 22 57  1  0  0  0  0
 23 12  1  0  0  0  0
 24 25  1  0  0  0  0
 24 26  1  0  0  0  0
 24 27  1  0  0  0  0
 25 58  1  0  0  0  0
 25 59  1  0  0  0  0
 25 60  1  0  0  0  0
 26 61  1  0  0  0  0
 26 62  1  0  0  0  0
 26 63  1  0  0  0  0
 27 64  1  0  0  0  0
 27 65  1  0  0  0  0
 27 66  1  0  0  0  0
 28 29  1  0  0  0  0
 28 30  1  0  0  0  0
 28 31  1  0  0  0  0
 29 67  1  0  0  0  0
 29 68  1  0  0  0  0
 29 69  1  0  0  0  0
 30 70  1  0  0  0  0
 30 71  1  0  0  0  0
 30 72  1  0  0  0  0
 31 73  1  0  0  0  0
 31 74  1  0  0  0  0
 31 75  1  0  0  0  0
 32 76  1  0  0  0  0
 33 77  1  0  0  0  0
 34 23  1  0  0  0  0
 34 78  1  0  0  0  0
 34 79  1  0  0  0  0
 34 80  1  0  0  0  0
 35 23  1  0  0  0  0
 35 81  1  0  0  0  0
 35 82  1  0  0  0  0
 35 83  1  0  0  0  0
M  END
>  <DRUGBANK_ID>
DB01599

>  <COMMON_NAME>
Probucol

>  <CAS_NUMBER>
23288-49-5

>  <UNII>
P3CTH044XJ

>  <SYNONYMS>
4,4'- (Isopropylidenedithio)bis(2,6-di-tert-butylphenol); Acetone bis(3,5-di-tert-butyl-4-hydroxyphenyl) mercaptole; Biphenabid; Bisbid; Bisphenabid; Probucol; Probucolum

$$$$
