439
 OpenBabel10282417072D

 67 68  0  0  1  0  0  0  0  0999 V2000
    8.5234    2.9833    0.0000 F   0  0  0  0  0  0  0  0  0  0  0  0
   10.6668   -0.7293    0.0000 O   0  0  0  0  0  0  0  0  0  0  0  0
    5.6655    0.5082    0.0000 O   0  0  0  0  0  0  0  0  0  0  0  0
    4.2365    0.5082    0.0000 O   0  0  0  0  0  0  0  0  0  0  0  0
    2.0930   -0.7293    0.0000 O   0  0  0  0  0  0  0  0  0  0  0  0
    2.8075    0.5082    0.0000 O   0  0  0  0  0  0  0  0  0  0  0  0
    8.5234   -1.9668    0.0000 N   0  0  0  0  0  0  0  0  0  0  0  0
    9.2379   -1.5543    0.0000 C   0  0  0  0  0  0  0  0  0  0  0  0
    7.8089   -1.5543    0.0000 C   0  0  0  0  0  0  0  0  0  0  0  0
    9.2379   -0.7293    0.0000 C   0  0  0  0  0  0  0  0  0  0  0  0
    7.8089   -0.7293    0.0000 C   0  0  0  0  0  0  0  0  0  0  0  0
    8.5234   -0.3168    0.0000 C   0  0  0  0  0  0  0  0  0  0  0  0
    7.3964   -2.2688    0.0000 C   0  0  0  0  0  0  0  0  0  0  0  0
    9.9524   -1.9668    0.0000 C   0  0  0  0  0  0  0  0  0  0  0  0
    9.9524   -0.3168    0.0000 C   0  0  0  0  0  0  0  0  0  0  0  0
    8.5234    0.5082    0.0000 C   0  0  0  0  0  0  0  0  0  0  0  0
    7.0944   -0.3168    0.0000 C   0  0  0  0  0  0  0  0  0  0  0  0
    5.6655   -0.3168    0.0000 C   0  0  1  0  0  0  0  0  0  0  0  0
    6.5714   -2.2687    0.0000 C   0  0  0  0  0  0  0  0  0  0  0  0
    7.8090   -2.9833    0.0000 C   0  0  0  0  0  0  0  0  0  0  0  0
   10.6668   -1.5543    0.0000 C   0  0  0  0  0  0  0  0  0  0  0  0
    9.9524   -2.7919    0.0000 C   0  0  0  0  0  0  0  0  0  0  0  0
    4.9509   -0.7293    0.0000 C   0  0  0  0  0  0  0  0  0  0  0  0
    6.3799   -0.7293    0.0000 C   0  0  0  0  0  0  0  0  0  0  0  0
    4.2365   -0.3168    0.0000 C   0  0  2  0  0  0  0  0  0  0  0  0
    7.8089    0.9207    0.0000 C   0  0  0  0  0  0  0  0  0  0  0  0
    9.2379    0.9207    0.0000 C   0  0  0  0  0  0  0  0  0  0  0  0
    3.5220   -0.7293    0.0000 C   0  0  0  0  0  0  0  0  0  0  0  0
    7.8089    1.7457    0.0000 C   0  0  0  0  0  0  0  0  0  0  0  0
    9.2379    1.7457    0.0000 C   0  0  0  0  0  0  0  0  0  0  0  0
    8.5234    2.1582    0.0000 C   0  0  0  0  0  0  0  0  0  0  0  0
   11.3814   -0.3168    0.0000 C   0  0  0  0  0  0  0  0  0  0  0  0
    2.8075   -0.3168    0.0000 C   0  0  0  0  0  0  0  0  0  0  0  0
    6.5055    0.9932    0.0000 H   0  0  0  0  0  0  0  0  0  0  0  0
    5.0765    0.9932    0.0000 H   0  0  0  0  0  0  0  0  0  0  0  0
    1.2815   -0.2608    0.0000 H   0  0  0  0  0  0  0  0  0  0  0  0
    6.8614   -3.1954    0.0000 H   0  0  0  0  0  0  0  0  0  0  0  0
   10.8791   -2.5018    0.0000 H   0  0  0  0  0  0  0  0  0  0  0  0
    9.9524    0.7532    0.0000 H   0  0  0  0  0  0  0  0  0  0  0  0
    9.0258    0.2182    0.0000 H   0  0  0  0  0  0  0  0  0  0  0  0
    7.0944    0.7152    0.0000 H   0  0  0  0  0  0  0  0  0  0  0  0
    4.7389    0.2182    0.0000 H   0  0  0  0  0  0  0  0  0  0  0  0
    6.0365   -1.3420    0.0000 H   0  0  0  0  0  0  0  0  0  0  0  0
    6.0363   -3.1953    0.0000 H   0  0  0  0  0  0  0  0  0  0  0  0
    5.5014   -2.2686    0.0000 H   0  0  0  0  0  0  0  0  0  0  0  0
    7.2741   -3.9100    0.0000 H   0  0  0  0  0  0  0  0  0  0  0  0
    8.8790   -2.9832    0.0000 H   0  0  0  0  0  0  0  0  0  0  0  0
    8.3441   -3.9099    0.0000 H   0  0  0  0  0  0  0  0  0  0  0  0
   11.5935   -2.0893    0.0000 H   0  0  0  0  0  0  0  0  0  0  0  0
   10.6668   -0.4843    0.0000 H   0  0  0  0  0  0  0  0  0  0  0  0
   11.5934   -1.0193    0.0000 H   0  0  0  0  0  0  0  0  0  0  0  0
    9.0258   -3.3269    0.0000 H   0  0  0  0  0  0  0  0  0  0  0  0
   10.8790   -3.3269    0.0000 H   0  0  0  0  0  0  0  0  0  0  0  0
    9.9524   -3.8619    0.0000 H   0  0  0  0  0  0  0  0  0  0  0  0
    4.9508   -1.7993    0.0000 H   0  0  0  0  0  0  0  0  0  0  0  0
    4.0242   -1.2643    0.0000 H   0  0  0  0  0  0  0  0  0  0  0  0
    6.3799   -1.7613    0.0000 H   0  0  0  0  0  0  0  0  0  0  0  0
    5.1632    0.2182    0.0000 H   0  0  0  0  0  0  0  0  0  0  0  0
    6.9152    0.4047    0.0000 H   0  0  0  0  0  0  0  0  0  0  0  0
   10.1316    0.4047    0.0000 H   0  0  0  0  0  0  0  0  0  0  0  0
    3.5220   -1.7993    0.0000 H   0  0  0  0  0  0  0  0  0  0  0  0
    2.5954   -1.2643    0.0000 H   0  0  0  0  0  0  0  0  0  0  0  0
    6.9152    2.2617    0.0000 H   0  0  0  0  0  0  0  0  0  0  0  0
   10.1316    2.2617    0.0000 H   0  0  0  0  0  0  0  0  0  0  0  0
   12.3080   -0.8519    0.0000 H   0  0  0  0  0  0  0  0  0  0  0  0
   11.3815    0.7532    0.0000 H   0  0  0  0  0  0  0  0  0  0  0  0
   12.3081    0.2181    0.0000 H   0  0  0  0  0  0  0  0  0  0  0  0
  1 31  1  0  0  0  0
  2 15  1  0  0  0  0
  2 32  1  0  0  0  0
  3 34  1  0  0  0  0
  4 35  1  0  0  0  0
  5 33  1  0  0  0  0
  5 36  1  0  0  0  0
  6 33  2  0  0  0  0
  7  8  2  0  0  0  0
  7  9  1  0  0  0  0
  8 10  1  0  0  0  0
  8 14  1  0  0  0  0
  9 11  2  0  0  0  0
  9 13  1  0  0  0  0
 10 12  2  0  0  0  0
 10 15  1  0  0  0  0
 11 12  1  0  0  0  0
 11 17  1  0  0  0  0
 12 16  1  0  0  0  0
 13 19  1  0  0  0  0
 13 20  1  0  0  0  0
 13 37  1  0  0  0  0
 14 21  1  0  0  0  0
 14 22  1  0  0  0  0
 14 38  1  0  0  0  0
 15 39  1  0  0  0  0
 15 40  1  0  0  0  0
 16 26  2  0  0  0  0
 16 27  1  0  0  0  0
 17 24  2  0  0  0  0
 17 41  1  0  0  0  0
 18  3  1  0  0  0  0
 18 23  1  0  0  0  0
 18 24  1  0  0  0  0
 18 42  1  1  0  0  0
 19 43  1  0  0  0  0
 19 44  1  0  0  0  0
 19 45  1  0  0  0  0
 20 46  1  0  0  0  0
 20 47  1  0  0  0  0
 20 48  1  0  0  0  0
 21 49  1  0  0  0  0
 21 50  1  0  0  0  0
 21 51  1  0  0  0  0
 22 52  1  0  0  0  0
 22 53  1  0  0  0  0
 22 54  1  0  0  0  0
 23 25  1  0  0  0  0
 23 55  1  0  0  0  0
 23 56  1  0  0  0  0
 24 57  1  0  0  0  0
 25  4  1  0  0  0  0
 25 28  1  0  0  0  0
 25 58  1  1  0  0  0
 26 29  1  0  0  0  0
 26 59  1  0  0  0  0
 27 30  2  0  0  0  0
 27 60  1  0  0  0  0
 28 33  1  0  0  0  0
 28 61  1  0  0  0  0
 28 62  1  0  0  0  0
 29 31  2  0  0  0  0
 29 63  1  0  0  0  0
 30 31  1  0  0  0  0
 30 64  1  0  0  0  0
 32 65  1  0  0  0  0
 32 66  1  0  0  0  0
 32 67  1  0  0  0  0
M  END
>  <DRUGBANK_ID>
DB00439

>  <SECONDARY_ACCESSION_NUMBERS>
APRD00102

>  <COMMON_NAME>
Cerivastatin

>  <CAS_NUMBER>
145599-86-6

>  <UNII>
AM91H2KS67

>  <SYNONYMS>
Cerivastatin

$$$$
