
 OpenBabel10282417072D

 62 66  0  0  0  0  0  0  0  0999 V2000
    1.5226    0.3383    0.0000 C   0  0  1  0  0  0  0  0  0  0  0  0
    0.7251    0.0967    0.0000 C   0  0  2  0  0  0  0  0  0  0  0  0
    0.7251   -0.7250    0.0000 C   0  0  2  0  0  0  0  0  0  0  0  0
   -1.4259   -1.1601    0.0000 C   0  0  2  0  0  0  0  0  0  0  0  0
    0.0241   -1.1601    0.0000 C   0  0  1  0  0  0  0  0  0  0  0  0
    1.9819   -0.3142    0.0000 C   0  0  1  0  0  0  0  0  0  0  0  0
   -0.7009   -0.7250    0.0000 C   0  0  2  0  0  0  0  0  0  0  0  0
   -1.4259   -2.0061    0.0000 C   0  0  0  0  0  0  0  0  0  0  0  0
    0.0241    0.5075    0.0000 C   0  0  0  0  0  0  0  0  0  0  0  0
   -0.7009    0.0967    0.0000 C   0  0  2  0  0  0  0  0  0  0  0  0
   -2.1511   -0.7250    0.0000 C   0  0  0  0  0  0  0  0  0  0  0  0
    1.5226   -1.0151    0.0000 C   0  0  0  0  0  0  0  0  0  0  0  0
   -2.1511   -2.3928    0.0000 C   0  0  0  0  0  0  0  0  0  0  0  0
    0.0241   -2.0061    0.0000 C   0  0  0  0  0  0  0  0  0  0  0  0
   -2.8761   -1.1601    0.0000 C   0  0  0  0  0  0  0  0  0  0  0  0
   -2.8761   -2.0061    0.0000 C   0  0  0  0  0  0  0  0  0  0  0  0
   -0.7009   -2.3928    0.0000 C   0  0  0  0  0  0  0  0  0  0  0  0
   -3.6012   -2.4169    0.0000 O   0  0  0  0  0  0  0  0  0  0  0  0
    0.7251    0.9184    0.0000 C   0  0  0  0  0  0  0  0  0  0  0  0
   -1.4259    0.5317    0.0000 O   0  0  0  0  0  0  0  0  0  0  0  0
   -1.4259   -0.3142    0.0000 C   0  0  0  0  0  0  0  0  0  0  0  0
    0.7251   -1.5710    0.0000 H   0  0  0  0  0  0  0  0  0  0  0  0
   -0.7009   -1.5710    0.0000 H   0  0  0  0  0  0  0  0  0  0  0  0
    0.0241   -0.3142    0.0000 H   0  0  0  0  0  0  0  0  0  0  0  0
    2.0061    0.9909    0.0000 O   0  0  0  0  0  0  0  0  0  0  0  0
    2.7795    0.7251    0.0000 C   0  0  0  0  0  0  0  0  0  0  0  0
    2.7554   -0.0724    0.0000 O   0  0  0  0  0  0  0  0  0  0  0  0
    1.5226    1.1843    0.0000 C   0  0  0  0  0  0  0  0  0  0  0  0
    2.2236    1.5951    0.0000 C   0  0  0  0  0  0  0  0  0  0  0  0
    0.8218    1.5951    0.0000 O   0  0  0  0  0  0  0  0  0  0  0  0
    2.2236    2.4169    0.0000 O   0  0  0  0  0  0  0  0  0  0  0  0
    3.6012    0.7251    0.0000 C   0  0  0  0  0  0  0  0  0  0  0  0
    3.3597    1.3052    0.0000 C   0  0  0  0  0  0  0  0  0  0  0  0
    2.3258    0.6990    0.0000 H   0  0  0  0  0  0  0  0  0  0  0  0
    0.0319    1.5775    0.0000 H   0  0  0  0  0  0  0  0  0  0  0  0
   -0.8984    1.0496    0.0000 H   0  0  0  0  0  0  0  0  0  0  0  0
   -1.6320   -0.4305    0.0000 H   0  0  0  0  0  0  0  0  0  0  0  0
   -2.1512    0.3070    0.0000 H   0  0  0  0  0  0  0  0  0  0  0  0
    1.8601   -2.0305    0.0000 H   0  0  0  0  0  0  0  0  0  0  0  0
    2.5836   -1.1534    0.0000 H   0  0  0  0  0  0  0  0  0  0  0  0
   -2.1512   -3.4248    0.0000 H   0  0  0  0  0  0  0  0  0  0  0  0
    0.9416   -2.5566    0.0000 H   0  0  0  0  0  0  0  0  0  0  0  0
   -0.0029   -3.0758    0.0000 H   0  0  0  0  0  0  0  0  0  0  0  0
   -3.7742   -0.6517    0.0000 H   0  0  0  0  0  0  0  0  0  0  0  0
   -0.7009   -3.4628    0.0000 H   0  0  0  0  0  0  0  0  0  0  0  0
    0.2166   -2.9433    0.0000 H   0  0  0  0  0  0  0  0  0  0  0  0
    1.6517    1.4534    0.0000 H   0  0  0  0  0  0  0  0  0  0  0  0
   -0.2015    1.4534    0.0000 H   0  0  0  0  0  0  0  0  0  0  0  0
    0.7251    1.9884    0.0000 H   0  0  0  0  0  0  0  0  0  0  0  0
   -1.4096    1.5016    0.0000 H   0  0  0  0  0  0  0  0  0  0  0  0
   -0.4993    0.2208    0.0000 H   0  0  0  0  0  0  0  0  0  0  0  0
   -2.3525    0.2208    0.0000 H   0  0  0  0  0  0  0  0  0  0  0  0
   -1.4259    0.7558    0.0000 H   0  0  0  0  0  0  0  0  0  0  0  0
    3.1520    1.0631    0.0000 H   0  0  0  0  0  0  0  0  0  0  0  0
    3.1494    2.1316    0.0000 H   0  0  0  0  0  0  0  0  0  0  0  0
    3.0636    2.9019    0.0000 H   0  0  0  0  0  0  0  0  0  0  0  0
    4.1362   -0.2015    0.0000 H   0  0  0  0  0  0  0  0  0  0  0  0
    4.1362    1.6517    0.0000 H   0  0  0  0  0  0  0  0  0  0  0  0
    4.6712    0.7251    0.0000 H   0  0  0  0  0  0  0  0  0  0  0  0
    4.3932    1.0282    0.0000 H   0  0  0  0  0  0  0  0  0  0  0  0
    3.0829    2.3388    0.0000 H   0  0  0  0  0  0  0  0  0  0  0  0
    4.1164    2.0617    0.0000 H   0  0  0  0  0  0  0  0  0  0  0  0
  1 25  1  0  0  0  0
  1 28  1  1  0  0  0
  2  1  1  0  0  0  0
  2 19  1  1  0  0  0
  3  2  1  0  0  0  0
  3 22  1  6  0  0  0
  4 21  1  1  0  0  0
  5  3  1  0  0  0  0
  5 24  1  1  0  0  0
  6  1  1  0  0  0  0
  6 27  1  0  0  0  0
  6 34  1  1  0  0  0
  7  4  1  0  0  0  0
  7  5  1  0  0  0  0
  7 23  1  6  0  0  0
  8  4  1  0  0  0  0
  9  2  1  0  0  0  0
  9 35  1  0  0  0  0
  9 36  1  0  0  0  0
 10  7  1  0  0  0  0
 10  9  1  0  0  0  0
 10 20  1  0  0  0  0
 10 37  1  6  0  0  0
 11  4  1  0  0  0  0
 11 38  1  0  0  0  0
 12  3  1  0  0  0  0
 12  6  1  0  0  0  0
 12 39  1  0  0  0  0
 12 40  1  0  0  0  0
 13  8  2  0  0  0  0
 13 41  1  0  0  0  0
 14  5  1  0  0  0  0
 14 42  1  0  0  0  0
 14 43  1  0  0  0  0
 15 11  2  0  0  0  0
 15 44  1  0  0  0  0
 16 13  1  0  0  0  0
 16 15  1  0  0  0  0
 17  8  1  0  0  0  0
 17 14  1  0  0  0  0
 17 45  1  0  0  0  0
 17 46  1  0  0  0  0
 18 16  2  0  0  0  0
 19 47  1  0  0  0  0
 19 48  1  0  0  0  0
 19 49  1  0  0  0  0
 20 50  1  0  0  0  0
 21 51  1  0  0  0  0
 21 52  1  0  0  0  0
 21 53  1  0  0  0  0
 26 25  1  0  0  0  0
 27 26  1  0  0  0  0
 29 28  1  0  0  0  0
 29 54  1  0  0  0  0
 29 55  1  0  0  0  0
 30 28  2  0  0  0  0
 31 29  1  0  0  0  0
 31 56  1  0  0  0  0
 32 26  1  0  0  0  0
 32 57  1  0  0  0  0
 32 58  1  0  0  0  0
 32 59  1  0  0  0  0
 33 26  1  0  0  0  0
 33 60  1  0  0  0  0
 33 61  1  0  0  0  0
 33 62  1  0  0  0  0
M  END
>  <DRUGBANK_ID>
DB01260

>  <COMMON_NAME>
Desonide

>  <CAS_NUMBER>
638-94-8

>  <UNII>
J280872D1O

>  <SYNONYMS>
11β,21-dihydroxy-16α,17-[(1-methylethylidene)bis(oxy)]pregna-1,4-diene-3,20-dione; 11β,21-dihydroxy-16α,17-isopropylidenedioxypregna-1,4-diene-3,20-dione; 11β,21-dihydroxy-16α,17α-isopropylidenedioxypregna-1,4-diene-3,20-dione; 16α-hydroxyprednisole-16,17-acetonide; 16α-hydroxyprednisolone-16α,17-acetonide; 16α,17α-isopropylidenedioxyprednisolone; Desfluorotriamcinolone acetonide; Desonida; Desonide; Desonidum

$$$$
