
 OpenBabel10282417072D

 52 55  0  0  1  0  0  0  0  0999 V2000
    4.1207   -4.5812    0.0000 N   0  3  2  0  0  0  0  0  0  0  0  0
    4.8379   -3.3448    0.0000 C   0  0  3  0  0  0  0  0  0  0  0  0
    4.8379   -4.1732    0.0000 C   0  0  0  0  0  0  0  0  0  0  0  0
    4.1207   -2.9369    0.0000 C   0  0  1  0  0  0  0  0  0  0  0  0
    3.4119   -4.1732    0.0000 C   0  0  0  0  0  0  0  0  0  0  0  0
    3.7501   -3.8760    0.0000 C   0  0  0  0  0  0  0  0  0  0  0  0
    3.4119   -3.3448    0.0000 C   0  0  0  0  0  0  0  0  0  0  0  0
    4.4504   -3.6787    0.0000 C   0  0  0  0  0  0  0  0  0  0  0  0
    4.1207   -5.3354    0.0000 C   0  0  0  0  0  0  0  0  0  0  0  0
    5.5510   -2.9301    0.0000 O   0  0  0  0  0  0  0  0  0  0  0  0
    6.2668   -3.3404    0.0000 C   0  0  0  0  0  0  0  0  0  0  0  0
    6.9799   -2.9256    0.0000 C   0  0  0  0  0  0  0  0  0  0  0  0
    6.2694   -4.1653    0.0000 O   0  0  0  0  0  0  0  0  0  0  0  0
    7.6957   -3.3358    0.0000 O   0  0  0  0  0  0  0  0  0  0  0  0
    6.3966   -2.3422    0.0000 C   0  0  0  0  0  0  0  0  0  0  0  0
    7.5633   -2.3422    0.0000 C   0  0  0  0  0  0  0  0  0  0  0  0
    5.5997   -2.5558    0.0000 C   0  0  0  0  0  0  0  0  0  0  0  0
    5.0163   -1.9724    0.0000 C   0  0  0  0  0  0  0  0  0  0  0  0
    5.2298   -1.1755    0.0000 C   0  0  0  0  0  0  0  0  0  0  0  0
    6.6101   -1.5453    0.0000 C   0  0  0  0  0  0  0  0  0  0  0  0
    6.0267   -0.9620    0.0000 C   0  0  0  0  0  0  0  0  0  0  0  0
    8.3602   -2.5558    0.0000 C   0  0  0  0  0  0  0  0  0  0  0  0
    8.9436   -1.9724    0.0000 C   0  0  0  0  0  0  0  0  0  0  0  0
    7.3498   -1.5453    0.0000 C   0  0  0  0  0  0  0  0  0  0  0  0
    8.7300   -1.1755    0.0000 C   0  0  0  0  0  0  0  0  0  0  0  0
    7.9332   -0.9620    0.0000 C   0  0  0  0  0  0  0  0  0  0  0  0
    3.9130   -3.8828    0.0000 H   0  0  0  0  0  0  0  0  0  0  0  0
    5.7628   -4.7112    0.0000 H   0  0  0  0  0  0  0  0  0  0  0  0
    5.7654   -3.6397    0.0000 H   0  0  0  0  0  0  0  0  0  0  0  0
    4.8390   -3.7300    0.0000 H   0  0  0  0  0  0  0  0  0  0  0  0
    2.4856   -4.7088    0.0000 H   0  0  0  0  0  0  0  0  0  0  0  0
    3.4129   -5.2432    0.0000 H   0  0  0  0  0  0  0  0  0  0  0  0
    2.7672   -3.4533    0.0000 H   0  0  0  0  0  0  0  0  0  0  0  0
    3.0235   -4.6614    0.0000 H   0  0  0  0  0  0  0  0  0  0  0  0
    2.4856   -2.8091    0.0000 H   0  0  0  0  0  0  0  0  0  0  0  0
    3.4130   -2.2748    0.0000 H   0  0  0  0  0  0  0  0  0  0  0  0
    5.4190   -4.1335    0.0000 H   0  0  0  0  0  0  0  0  0  0  0  0
    5.2148   -2.9300    0.0000 H   0  0  0  0  0  0  0  0  0  0  0  0
    3.1941   -5.8704    0.0000 H   0  0  0  0  0  0  0  0  0  0  0  0
    5.0473   -5.8704    0.0000 H   0  0  0  0  0  0  0  0  0  0  0  0
    4.1207   -6.4054    0.0000 H   0  0  0  0  0  0  0  0  0  0  0  0
    7.6988   -4.3058    0.0000 H   0  0  0  0  0  0  0  0  0  0  0  0
    5.3326   -3.5526    0.0000 H   0  0  0  0  0  0  0  0  0  0  0  0
    4.0195   -2.2395    0.0000 H   0  0  0  0  0  0  0  0  0  0  0  0
    4.5001   -0.4458    0.0000 H   0  0  0  0  0  0  0  0  0  0  0  0
    7.6069   -1.2781    0.0000 H   0  0  0  0  0  0  0  0  0  0  0  0
    6.2938    0.0348    0.0000 H   0  0  0  0  0  0  0  0  0  0  0  0
    8.6273   -3.5526    0.0000 H   0  0  0  0  0  0  0  0  0  0  0  0
    9.9404   -2.2395    0.0000 H   0  0  0  0  0  0  0  0  0  0  0  0
    6.3530   -1.2781    0.0000 H   0  0  0  0  0  0  0  0  0  0  0  0
    9.4597   -0.4457    0.0000 H   0  0  0  0  0  0  0  0  0  0  0  0
    7.6661    0.0348    0.0000 H   0  0  0  0  0  0  0  0  0  0  0  0
  1  3  1  0  0  0  0
  1  9  1  1  0  0  0
  1  6  1  0  0  0  0
  2 10  1  0  0  0  0
  2 27  1  0  0  0  0
  3  2  1  0  0  0  0
  3 28  1  0  0  0  0
  3 29  1  0  0  0  0
  4  2  1  0  0  0  0
  4  8  1  0  0  0  0
  4 30  1  1  0  0  0
  5  7  1  0  0  0  0
  5  1  1  0  0  0  0
  5 31  1  0  0  0  0
  5 32  1  0  0  0  0
  6  8  1  0  0  0  0
  6 33  1  0  0  0  0
  6 34  1  0  0  0  0
  7  4  1  0  0  0  0
  7 35  1  0  0  0  0
  7 36  1  0  0  0  0
  8 37  1  0  0  0  0
  8 38  1  0  0  0  0
  9 39  1  0  0  0  0
  9 40  1  0  0  0  0
  9 41  1  0  0  0  0
 10 11  1  0  0  0  0
 11 12  1  0  0  0  0
 11 13  2  0  0  0  0
 12 14  1  0  0  0  0
 12 15  1  0  0  0  0
 12 16  1  0  0  0  0
 14 42  1  0  0  0  0
 15 17  2  0  0  0  0
 16 22  1  0  0  0  0
 17 43  1  0  0  0  0
 18 17  1  0  0  0  0
 18 44  1  0  0  0  0
 19 18  2  0  0  0  0
 19 45  1  0  0  0  0
 20 15  1  0  0  0  0
 20 46  1  0  0  0  0
 21 19  1  0  0  0  0
 21 20  2  0  0  0  0
 21 47  1  0  0  0  0
 22 48  1  0  0  0  0
 23 22  2  0  0  0  0
 23 49  1  0  0  0  0
 24 16  2  0  0  0  0
 24 50  1  0  0  0  0
 25 23  1  0  0  0  0
 25 51  1  0  0  0  0
 26 24  1  0  0  0  0
 26 25  2  0  0  0  0
 26 52  1  0  0  0  0
M  CHG  1   1   1
M  END
>  <DRUGBANK_ID>
DB00771

>  <SECONDARY_ACCESSION_NUMBERS>
APRD00737

>  <COMMON_NAME>
Clidinium

>  <CAS_NUMBER>
7020-55-5

>  <UNII>
BO76JF850N

>  <SYNONYMS>
3-(2-Hydroxy-2,2-diphenyl-acetoxy)-1-methyl-1-azonia-bicyclo[2.2.2]octane; 3-hydroxy-1-methylquinuclidinium benzilate ester; Bromure de Clidinium; Bromuro de clidinio; Clidinii Bromidum; Clidinium bromid; N-methyl quinuclidinyl benzilate

$$$$
