Structure #1
 OpenBabel10282417072D

 14 13  0  0  0  0  0  0  0  0999 V2000
    1.2375   -0.7145    0.0000 C   0  0  0  0  0  0  0  0  0  0  0  0
    1.2375    0.7145    0.0000 C   0  0  0  0  0  0  0  0  0  0  0  0
    0.8250    0.0000    0.0000 C   0  0  3  0  0  0  0  0  0  0  0  0
    0.8250   -1.4289    0.0000 O   0  0  0  0  0  0  0  0  0  0  0  0
    0.8250    1.4289    0.0000 S   0  0  0  0  0  0  0  0  0  0  0  0
    0.0000    0.0000    0.0000 S   0  0  0  0  0  0  0  0  0  0  0  0
    2.3075   -0.7145    0.0000 H   0  0  0  0  0  0  0  0  0  0  0  0
    1.7725   -1.6412    0.0000 H   0  0  0  0  0  0  0  0  0  0  0  0
    2.3075    0.7145    0.0000 H   0  0  0  0  0  0  0  0  0  0  0  0
    1.7725    1.6412    0.0000 H   0  0  0  0  0  0  0  0  0  0  0  0
    1.8950    0.0000    0.0000 H   0  0  0  0  0  0  0  0  0  0  0  0
   -0.1450   -1.4289    0.0000 H   0  0  0  0  0  0  0  0  0  0  0  0
    1.5049    2.6067    0.0000 H   0  0  0  0  0  0  0  0  0  0  0  0
   -0.6800    1.1778    0.0000 H   0  0  0  0  0  0  0  0  0  0  0  0
  1  3  1  0  0  0  0
  1  4  1  0  0  0  0
  1  7  1  0  0  0  0
  1  8  1  0  0  0  0
  2  3  1  0  0  0  0
  2  5  1  0  0  0  0
  2  9  1  0  0  0  0
  2 10  1  0  0  0  0
  3  6  1  0  0  0  0
  3 11  1  0  0  0  0
  4 12  1  0  0  0  0
  5 13  1  0  0  0  0
  6 14  1  0  0  0  0
M  END
>  <DRUGBANK_ID>
DB06782

>  <COMMON_NAME>
Dimercaprol

>  <CAS_NUMBER>
59-52-9

>  <UNII>
0CPP32S55X

>  <SYNONYMS>
1,2-dimercapto-3-propanol; 1,2-dithioglycerol; 2,3-dimercapto-1-propanol; 2,3-dimercaptol-1-propanol; 2,3-dimercaptopropanol; 2,3-dithiopropanol; 2,3-mercaptopropan-1-ol; 2,3-Mercaptopropanol; 3-hydroxy-1,2-propanedithiol; BAL; British anti-lewisite; British antilewisite; Dimercaprol; Dimercaprolum; Dimercaptopropanol; Dithioglycerine; Dithioglycerol; Sulfactin; α,β-dithioglycerol

$$$$
