
 OpenBabel10282417072D

 43 46  0  0  0  0  0  0  0  0999 V2000
   -1.8062   -2.5989    0.0000 C   0  0  0  0  0  0  0  0  0  0  0  0
   -1.8920   -1.7765    0.0000 O   0  0  0  0  0  0  0  0  0  0  0  0
   -1.2262   -1.2915    0.0000 C   0  0  0  0  0  0  0  0  0  0  0  0
   -0.4354   -1.5460    0.0000 C   0  0  0  0  0  0  0  0  0  0  0  0
    0.0499   -0.8765    0.0000 C   0  0  0  0  0  0  0  0  0  0  0  0
    0.8749   -0.8765    0.0000 C   0  0  0  0  0  0  0  0  0  0  0  0
    1.3599   -1.5423    0.0000 C   0  0  0  0  0  0  0  0  0  0  0  0
    2.1462   -1.2895    0.0000 C   0  0  0  0  0  0  0  0  0  0  0  0
    2.8607   -1.7020    0.0000 C   0  0  0  0  0  0  0  0  0  0  0  0
    3.5750   -1.2896    0.0000 C   0  0  0  0  0  0  0  0  0  0  0  0
    3.5749   -0.4646    0.0000 C   0  0  0  0  0  0  0  0  0  0  0  0
    2.8606   -0.0520    0.0000 C   0  0  0  0  0  0  0  0  0  0  0  0
    2.1462   -0.4645    0.0000 C   0  0  0  0  0  0  0  0  0  0  0  0
    1.3604   -0.2072    0.0000 N   0  0  0  0  0  0  0  0  0  0  0  0
   -0.4378   -0.2058    0.0000 N   0  0  0  0  0  0  0  0  0  0  0  0
   -1.2212   -0.4637    0.0000 C   0  0  0  0  0  0  0  0  0  0  0  0
   -1.8907    0.0218    0.0000 C   0  0  0  0  0  0  0  0  0  0  0  0
   -1.8071    0.8413    0.0000 C   0  0  0  0  0  0  0  0  0  0  0  0
   -1.0927    1.2538    0.0000 N   0  0  0  0  0  0  0  0  0  0  0  0
   -1.2664    2.0658    0.0000 C   0  0  0  0  0  0  0  0  0  0  0  0
   -0.7150    2.6792    0.0000 C   0  0  0  0  0  0  0  0  0  0  0  0
   -2.0860    2.1492    0.0000 C   0  0  0  0  0  0  0  0  0  0  0  0
   -2.4206    1.3926    0.0000 C   0  0  0  0  0  0  0  0  0  0  0  0
   -3.2274    1.2219    0.0000 C   0  0  0  0  0  0  0  0  0  0  0  0
   -2.6723   -3.2272    0.0000 H   0  0  0  0  0  0  0  0  0  0  0  0
   -0.8290   -3.0349    0.0000 H   0  0  0  0  0  0  0  0  0  0  0  0
   -1.6952   -3.6631    0.0000 H   0  0  0  0  0  0  0  0  0  0  0  0
   -0.1146   -2.5269    0.0000 H   0  0  0  0  0  0  0  0  0  0  0  0
    1.0401   -2.5235    0.0000 H   0  0  0  0  0  0  0  0  0  0  0  0
    2.8607   -2.7340    0.0000 H   0  0  0  0  0  0  0  0  0  0  0  0
    4.4688   -1.8055    0.0000 H   0  0  0  0  0  0  0  0  0  0  0  0
    4.4687    0.0514    0.0000 H   0  0  0  0  0  0  0  0  0  0  0  0
    2.8607    0.9800    0.0000 H   0  0  0  0  0  0  0  0  0  0  0  0
    1.0569    0.7293    0.0000 H   0  0  0  0  0  0  0  0  0  0  0  0
   -2.8326   -0.3998    0.0000 H   0  0  0  0  0  0  0  0  0  0  0  0
   -0.1930    0.8540    0.0000 H   0  0  0  0  0  0  0  0  0  0  0  0
    0.3318    2.4576    0.0000 H   0  0  0  0  0  0  0  0  0  0  0  0
   -1.0465    3.6966    0.0000 H   0  0  0  0  0  0  0  0  0  0  0  0
    0.0003    3.4750    0.0000 H   0  0  0  0  0  0  0  0  0  0  0  0
   -2.6046    3.0414    0.0000 H   0  0  0  0  0  0  0  0  0  0  0  0
   -3.9426    2.0177    0.0000 H   0  0  0  0  0  0  0  0  0  0  0  0
   -3.5590    0.2046    0.0000 H   0  0  0  0  0  0  0  0  0  0  0  0
   -4.2742    1.0004    0.0000 H   0  0  0  0  0  0  0  0  0  0  0  0
  1  2  1  0  0  0  0
  1 25  1  0  0  0  0
  1 26  1  0  0  0  0
  1 27  1  0  0  0  0
  2  3  1  0  0  0  0
  3  4  2  0  0  0  0
  3 16  1  0  0  0  0
  4  5  1  0  0  0  0
  4 28  1  0  0  0  0
  5  6  1  0  0  0  0
  5 15  2  0  0  0  0
  6  7  2  0  0  0  0
  6 14  1  0  0  0  0
  7  8  1  0  0  0  0
  7 29  1  0  0  0  0
  8  9  2  0  0  0  0
  8 13  1  0  0  0  0
  9 10  1  0  0  0  0
  9 30  1  0  0  0  0
 10 11  2  0  0  0  0
 10 31  1  0  0  0  0
 11 12  1  0  0  0  0
 11 32  1  0  0  0  0
 12 13  2  0  0  0  0
 12 33  1  0  0  0  0
 13 14  1  0  0  0  0
 14 34  1  0  0  0  0
 15 16  1  0  0  0  0
 16 17  2  0  0  0  0
 17 18  1  0  0  0  0
 17 35  1  0  0  0  0
 18 19  1  0  0  0  0
 18 23  2  0  0  0  0
 19 20  1  0  0  0  0
 19 36  1  0  0  0  0
 20 21  1  0  0  0  0
 20 22  2  0  0  0  0
 21 37  1  0  0  0  0
 21 38  1  0  0  0  0
 21 39  1  0  0  0  0
 22 23  1  0  0  0  0
 22 40  1  0  0  0  0
 23 24  1  0  0  0  0
 24 41  1  0  0  0  0
 24 42  1  0  0  0  0
 24 43  1  0  0  0  0
M  END
>  <DRUGBANK_ID>
DB12191

>  <SECONDARY_ACCESSION_NUMBERS>
DB05567

>  <COMMON_NAME>
Obatoclax

>  <CAS_NUMBER>
803712-67-6

>  <UNII>
QN4128B52A

>  <SYNONYMS>
Obatoclax

$$$$
