
 OpenBabel10282417072D

 62 65  0  0  0  0  0  0  0  0999 V2000
   -5.6147   -4.1283    0.0000 C   0  0  0  0  0  0  0  0  0  0  0  0
   -4.7897   -4.1283    0.0000 C   0  0  0  0  0  0  0  0  0  0  0  0
   -4.3772   -3.4138    0.0000 C   0  0  0  0  0  0  0  0  0  0  0  0
   -3.5522   -3.4138    0.0000 N   0  0  0  0  0  0  0  0  0  0  0  0
   -3.1397   -2.6994    0.0000 C   0  0  0  0  0  0  0  0  0  0  0  0
   -2.3147   -2.6994    0.0000 C   0  0  0  0  0  0  0  0  0  0  0  0
   -1.9022   -3.4138    0.0000 C   0  0  0  0  0  0  0  0  0  0  0  0
   -1.0772   -3.4138    0.0000 O   0  0  0  0  0  0  0  0  0  0  0  0
   -2.3147   -4.1283    0.0000 N   0  0  0  0  0  0  0  0  0  0  0  0
   -3.1397   -4.1283    0.0000 C   0  0  0  0  0  0  0  0  0  0  0  0
   -3.5522   -4.8428    0.0000 O   0  0  0  0  0  0  0  0  0  0  0  0
   -1.9022   -4.8428    0.0000 C   0  0  0  0  0  0  0  0  0  0  0  0
   -2.3147   -5.5573    0.0000 C   0  0  0  0  0  0  0  0  0  0  0  0
   -1.9022   -6.2717    0.0000 C   0  0  0  0  0  0  0  0  0  0  0  0
   -2.0598   -1.9147    0.0000 N   0  0  0  0  0  0  0  0  0  0  0  0
   -2.7272   -1.4298    0.0000 C   0  0  0  0  0  0  0  0  0  0  0  0
   -3.3947   -1.9147    0.0000 N   0  0  0  0  0  0  0  0  0  0  0  0
   -2.7272   -0.6048    0.0000 C   0  0  3  0  0  0  0  0  0  0  0  0
   -3.4417   -0.1923    0.0000 C   0  0  0  0  0  0  0  0  0  0  0  0
   -3.4417    0.6327    0.0000 C   0  0  0  0  0  0  0  0  0  0  0  0
   -2.7272    1.0452    0.0000 C   0  0  3  0  0  0  0  0  0  0  0  0
   -2.0127    0.6327    0.0000 C   0  0  0  0  0  0  0  0  0  0  0  0
   -2.0127   -0.1923    0.0000 C   0  0  0  0  0  0  0  0  0  0  0  0
   -2.5897    0.4952    0.0000 C   0  0  0  0  0  0  0  0  0  0  0  0
   -2.5897   -0.0548    0.0000 C   0  0  0  0  0  0  0  0  0  0  0  0
   -2.7272    1.8702    0.0000 C   0  0  0  0  0  0  0  0  0  0  0  0
   -3.4417    2.2827    0.0000 C   0  0  0  0  0  0  0  0  0  0  0  0
   -3.4417    3.1077    0.0000 C   0  0  0  0  0  0  0  0  0  0  0  0
   -4.1562    3.5202    0.0000 O   0  0  0  0  0  0  0  0  0  0  0  0
   -2.7272    3.5202    0.0000 O   0  0  0  0  0  0  0  0  0  0  0  0
   -6.1497   -3.2017    0.0000 H   0  0  0  0  0  0  0  0  0  0  0  0
   -6.1497   -5.0549    0.0000 H   0  0  0  0  0  0  0  0  0  0  0  0
   -6.6847   -4.1283    0.0000 H   0  0  0  0  0  0  0  0  0  0  0  0
   -4.2547   -5.0549    0.0000 H   0  0  0  0  0  0  0  0  0  0  0  0
   -3.7197   -4.1283    0.0000 H   0  0  0  0  0  0  0  0  0  0  0  0
   -4.9122   -2.4872    0.0000 H   0  0  0  0  0  0  0  0  0  0  0  0
   -3.8422   -2.4872    0.0000 H   0  0  0  0  0  0  0  0  0  0  0  0
   -0.8322   -4.8428    0.0000 H   0  0  0  0  0  0  0  0  0  0  0  0
   -1.3672   -5.7694    0.0000 H   0  0  0  0  0  0  0  0  0  0  0  0
   -3.3847   -5.5573    0.0000 H   0  0  0  0  0  0  0  0  0  0  0  0
   -2.8497   -6.4840    0.0000 H   0  0  0  0  0  0  0  0  0  0  0  0
   -2.4372   -7.1984    0.0000 H   0  0  0  0  0  0  0  0  0  0  0  0
   -0.8322   -6.2717    0.0000 H   0  0  0  0  0  0  0  0  0  0  0  0
   -1.3672   -7.1983    0.0000 H   0  0  0  0  0  0  0  0  0  0  0  0
   -1.1235   -1.6104    0.0000 H   0  0  0  0  0  0  0  0  0  0  0  0
   -4.3683   -0.7273    0.0000 H   0  0  0  0  0  0  0  0  0  0  0  0
   -4.3683    0.3427    0.0000 H   0  0  0  0  0  0  0  0  0  0  0  0
   -4.3683    1.1677    0.0000 H   0  0  0  0  0  0  0  0  0  0  0  0
   -3.4417    1.7027    0.0000 H   0  0  0  0  0  0  0  0  0  0  0  0
   -1.0861    1.1677    0.0000 H   0  0  0  0  0  0  0  0  0  0  0  0
   -1.0861    0.0977    0.0000 H   0  0  0  0  0  0  0  0  0  0  0  0
   -1.0861   -0.7273    0.0000 H   0  0  0  0  0  0  0  0  0  0  0  0
   -2.0127   -1.2623    0.0000 H   0  0  0  0  0  0  0  0  0  0  0  0
   -1.5277    0.6259    0.0000 H   0  0  0  0  0  0  0  0  0  0  0  0
   -1.7882   -0.2137    0.0000 H   0  0  0  0  0  0  0  0  0  0  0  0
   -1.5277   -0.1855    0.0000 H   0  0  0  0  0  0  0  0  0  0  0  0
   -1.9841   -0.9369    0.0000 H   0  0  0  0  0  0  0  0  0  0  0  0
   -1.8006    2.4052    0.0000 H   0  0  0  0  0  0  0  0  0  0  0  0
   -2.7272    2.9402    0.0000 H   0  0  0  0  0  0  0  0  0  0  0  0
   -4.3683    1.7477    0.0000 H   0  0  0  0  0  0  0  0  0  0  0  0
   -4.3683    2.8177    0.0000 H   0  0  0  0  0  0  0  0  0  0  0  0
   -1.9157    3.0517    0.0000 H   0  0  0  0  0  0  0  0  0  0  0  0
  1  2  1  0  0  0  0
  1 31  1  0  0  0  0
  1 32  1  0  0  0  0
  1 33  1  0  0  0  0
  2  3  1  0  0  0  0
  2 34  1  0  0  0  0
  2 35  1  0  0  0  0
  3  4  1  0  0  0  0
  3 36  1  0  0  0  0
  3 37  1  0  0  0  0
  4  5  1  0  0  0  0
  4 10  1  0  0  0  0
  5  6  2  0  0  0  0
  5 17  1  0  0  0  0
  6  7  1  0  0  0  0
  6 15  1  0  0  0  0
  7  8  2  0  0  0  0
  7  9  1  0  0  0  0
  9 10  1  0  0  0  0
  9 12  1  0  0  0  0
 10 11  2  0  0  0  0
 12 13  1  0  0  0  0
 12 38  1  0  0  0  0
 12 39  1  0  0  0  0
 13 14  1  0  0  0  0
 13 40  1  0  0  0  0
 13 41  1  0  0  0  0
 14 42  1  0  0  0  0
 14 43  1  0  0  0  0
 14 44  1  0  0  0  0
 15 16  1  0  0  0  0
 15 45  1  0  0  0  0
 16 17  2  0  0  0  0
 16 18  1  0  0  0  0
 18 19  1  0  0  0  0
 18 23  1  0  0  0  0
 18 25  1  0  0  0  0
 19 20  1  0  0  0  0
 19 46  1  0  0  0  0
 19 47  1  0  0  0  0
 20 21  1  0  0  0  0
 20 48  1  0  0  0  0
 20 49  1  0  0  0  0
 21 22  1  0  0  0  0
 21 24  1  0  0  0  0
 21 26  1  0  0  0  0
 22 23  1  0  0  0  0
 22 50  1  0  0  0  0
 22 51  1  0  0  0  0
 23 52  1  0  0  0  0
 23 53  1  0  0  0  0
 24 25  1  0  0  0  0
 24 54  1  0  0  0  0
 24 55  1  0  0  0  0
 25 56  1  0  0  0  0
 25 57  1  0  0  0  0
 26 27  1  0  0  0  0
 26 58  1  0  0  0  0
 26 59  1  0  0  0  0
 27 28  1  0  0  0  0
 27 60  1  0  0  0  0
 27 61  1  0  0  0  0
 28 29  2  0  0  0  0
 28 30  1  0  0  0  0
 30 62  1  0  0  0  0
M  END
>  <DRUGBANK_ID>
DB12569

>  <SECONDARY_ACCESSION_NUMBERS>
DB05640

>  <COMMON_NAME>
Tonapofylline

>  <CAS_NUMBER>
340021-17-2

>  <UNII>
83VNU4U44T

>  <SYNONYMS>
Tonapofylline

$$$$
