
 OpenBabel10282417072D

 65 66  0  0  0  0  0  0  0  0999 V2000
    2.8295    1.2219    0.0000 C   0  0  0  0  0  0  0  0  0  0  0  0
    2.8295    0.3968    0.0000 C   0  0  0  0  0  0  0  0  0  0  0  0
    2.1149   -0.0156    0.0000 C   0  0  0  0  0  0  0  0  0  0  0  0
    1.4003    0.3968    0.0000 C   0  0  0  0  0  0  0  0  0  0  0  0
    1.4003    1.2219    0.0000 C   0  0  0  0  0  0  0  0  0  0  0  0
    2.1149    1.6345    0.0000 C   0  0  0  0  0  0  0  0  0  0  0  0
    0.6748    1.6410    0.0000 C   0  0  2  0  0  0  0  0  0  0  0  0
   -0.0353    1.2309    0.0000 C   0  0  0  0  0  0  0  0  0  0  0  0
   -0.7321    1.6334    0.0000 N   0  0  0  0  0  0  0  0  0  0  0  0
   -1.4359    1.2271    0.0000 C   0  0  0  0  0  0  0  0  0  0  0  0
   -2.1359    1.6315    0.0000 C   0  0  0  0  0  0  0  0  0  0  0  0
   -2.8378    1.2261    0.0000 C   0  0  0  0  0  0  0  0  0  0  0  0
   -3.5388    1.6309    0.0000 C   0  0  0  0  0  0  0  0  0  0  0  0
   -4.2439    1.2208    0.0000 C   0  0  0  0  0  0  0  0  0  0  0  0
   -4.2486    0.4110    0.0000 C   0  0  0  0  0  0  0  0  0  0  0  0
   -3.5496    0.0021    0.0000 O   0  0  0  0  0  0  0  0  0  0  0  0
    0.6748    2.4661    0.0000 O   0  0  0  0  0  0  0  0  0  0  0  0
   -2.8460    0.4030    0.0000 C   0  0  0  0  0  0  0  0  0  0  0  0
   -2.1470   -0.0057    0.0000 C   0  0  0  0  0  0  0  0  0  0  0  0
   -1.4435    0.3950    0.0000 O   0  0  0  0  0  0  0  0  0  0  0  0
   -0.7444   -0.0137    0.0000 C   0  0  0  0  0  0  0  0  0  0  0  0
   -0.7490   -0.8236    0.0000 C   0  0  0  0  0  0  0  0  0  0  0  0
   -0.0500   -1.2324    0.0000 C   0  0  0  0  0  0  0  0  0  0  0  0
   -0.0546   -2.0574    0.0000 C   0  0  0  0  0  0  0  0  0  0  0  0
   -0.7715   -2.4661    0.0000 C   0  0  0  0  0  0  0  0  0  0  0  0
   -1.4705   -2.0571    0.0000 C   0  0  0  0  0  0  0  0  0  0  0  0
   -1.4659   -1.2320    0.0000 C   0  0  0  0  0  0  0  0  0  0  0  0
   -2.1912   -0.8078    0.0000 Cl  0  0  0  0  0  0  0  0  0  0  0  0
    0.6701   -0.8221    0.0000 Cl  0  0  0  0  0  0  0  0  0  0  0  0
    3.5441    1.6345    0.0000 C   0  0  0  0  0  0  0  0  0  0  0  0
    4.2486    1.2276    0.0000 O   0  0  0  0  0  0  0  0  0  0  0  0
    3.5441   -0.0156    0.0000 O   0  0  0  0  0  0  0  0  0  0  0  0
    2.1149   -1.0476    0.0000 H   0  0  0  0  0  0  0  0  0  0  0  0
    0.5066   -0.1193    0.0000 H   0  0  0  0  0  0  0  0  0  0  0  0
    2.1149    2.6665    0.0000 H   0  0  0  0  0  0  0  0  0  0  0  0
    1.6015    2.1759    0.0000 H   0  0  0  0  0  0  0  0  0  0  0  0
   -0.0353    0.1609    0.0000 H   0  0  0  0  0  0  0  0  0  0  0  0
   -0.9620    0.6960    0.0000 H   0  0  0  0  0  0  0  0  0  0  0  0
   -0.7320    2.6534    0.0000 H   0  0  0  0  0  0  0  0  0  0  0  0
   -1.4361    0.1571    0.0000 H   0  0  0  0  0  0  0  0  0  0  0  0
   -2.3627    0.6923    0.0000 H   0  0  0  0  0  0  0  0  0  0  0  0
   -2.1358    2.7015    0.0000 H   0  0  0  0  0  0  0  0  0  0  0  0
   -3.0626    2.1664    0.0000 H   0  0  0  0  0  0  0  0  0  0  0  0
   -2.8378    0.1561    0.0000 H   0  0  0  0  0  0  0  0  0  0  0  0
   -3.7645    0.6911    0.0000 H   0  0  0  0  0  0  0  0  0  0  0  0
   -3.5405    2.7009    0.0000 H   0  0  0  0  0  0  0  0  0  0  0  0
   -4.4667    2.1637    0.0000 H   0  0  0  0  0  0  0  0  0  0  0  0
   -5.1698    1.7570    0.0000 H   0  0  0  0  0  0  0  0  0  0  0  0
   -5.1724    0.6891    0.0000 H   0  0  0  0  0  0  0  0  0  0  0  0
   -5.1783   -0.1187    0.0000 H   0  0  0  0  0  0  0  0  0  0  0  0
   -4.2547   -0.6590    0.0000 H   0  0  0  0  0  0  0  0  0  0  0  0
    1.5148    2.9511    0.0000 H   0  0  0  0  0  0  0  0  0  0  0  0
   -2.8400    1.4730    0.0000 H   0  0  0  0  0  0  0  0  0  0  0  0
   -1.9164    0.9329    0.0000 H   0  0  0  0  0  0  0  0  0  0  0  0
   -2.1531   -1.0757    0.0000 H   0  0  0  0  0  0  0  0  0  0  0  0
   -1.2234   -0.5460    0.0000 H   0  0  0  0  0  0  0  0  0  0  0  0
    0.1852    0.5161    0.0000 H   0  0  0  0  0  0  0  0  0  0  0  0
    0.1792   -0.5539    0.0000 H   0  0  0  0  0  0  0  0  0  0  0  0
    0.8363   -2.5783    0.0000 H   0  0  0  0  0  0  0  0  0  0  0  0
   -0.7773   -3.4981    0.0000 H   0  0  0  0  0  0  0  0  0  0  0  0
   -2.3672   -2.5680    0.0000 H   0  0  0  0  0  0  0  0  0  0  0  0
    3.5442    2.7045    0.0000 H   0  0  0  0  0  0  0  0  0  0  0  0
    4.4708    2.1694    0.0000 H   0  0  0  0  0  0  0  0  0  0  0  0
    4.2484    0.2576    0.0000 H   0  0  0  0  0  0  0  0  0  0  0  0
    3.5443   -0.9526    0.0000 H   0  0  0  0  0  0  0  0  0  0  0  0
  1  2  2  0  0  0  0
  1  6  1  0  0  0  0
  1 30  1  0  0  0  0
  2  3  1  0  0  0  0
  2 32  1  0  0  0  0
  3  4  2  0  0  0  0
  3 33  1  0  0  0  0
  4  5  1  0  0  0  0
  4 34  1  0  0  0  0
  5  6  2  0  0  0  0
  5  7  1  0  0  0  0
  6 35  1  0  0  0  0
  7  8  1  0  0  0  0
  7 17  1  0  0  0  0
  7 36  1  1  0  0  0
  8  9  1  0  0  0  0
  8 37  1  0  0  0  0
  8 38  1  0  0  0  0
  9 10  1  0  0  0  0
  9 39  1  0  0  0  0
 10 11  1  0  0  0  0
 10 40  1  0  0  0  0
 10 41  1  0  0  0  0
 11 12  1  0  0  0  0
 11 42  1  0  0  0  0
 11 43  1  0  0  0  0
 12 13  1  0  0  0  0
 12 44  1  0  0  0  0
 12 45  1  0  0  0  0
 13 14  1  0  0  0  0
 13 46  1  0  0  0  0
 13 47  1  0  0  0  0
 14 15  1  0  0  0  0
 14 48  1  0  0  0  0
 14 49  1  0  0  0  0
 15 16  1  0  0  0  0
 15 50  1  0  0  0  0
 15 51  1  0  0  0  0
 16 18  1  0  0  0  0
 17 52  1  0  0  0  0
 18 19  1  0  0  0  0
 18 53  1  0  0  0  0
 18 54  1  0  0  0  0
 19 20  1  0  0  0  0
 19 55  1  0  0  0  0
 19 56  1  0  0  0  0
 20 21  1  0  0  0  0
 21 22  1  0  0  0  0
 21 57  1  0  0  0  0
 21 58  1  0  0  0  0
 22 23  1  0  0  0  0
 22 27  2  0  0  0  0
 23 24  2  0  0  0  0
 23 29  1  0  0  0  0
 24 25  1  0  0  0  0
 24 59  1  0  0  0  0
 25 26  2  0  0  0  0
 25 60  1  0  0  0  0
 26 27  1  0  0  0  0
 26 61  1  0  0  0  0
 27 28  1  0  0  0  0
 30 31  1  0  0  0  0
 30 62  1  0  0  0  0
 30 63  1  0  0  0  0
 31 64  1  0  0  0  0
 32 65  1  0  0  0  0
M  END
>  <DRUGBANK_ID>
DB09082

>  <SECONDARY_ACCESSION_NUMBERS>
DB06577

>  <COMMON_NAME>
Vilanterol

>  <CAS_NUMBER>
503068-34-6

>  <UNII>
028LZY775B

>  <SYNONYMS>
Vilanterol; Vilant√©rol; Vilanterolum

$$$$
