
 OpenBabel10282417072D

 29 30  0  0  0  0  0  0  0  0999 V2000
   -0.0014   -0.4097    0.0000 C   0  0  0  0  0  0  0  0  0  0  0  0
   -0.0014    0.4158    0.0000 N   0  0  0  0  0  0  0  0  0  0  0  0
    0.7120   -0.8199    0.0000 N   0  0  0  0  0  0  0  0  0  0  0  0
   -0.7149   -0.8250    0.0000 N   0  0  0  0  0  0  0  0  0  0  0  0
   -2.1418    0.8210    0.0000 C   0  0  0  0  0  0  0  0  0  0  0  0
   -2.8553    0.4058    0.0000 C   0  0  0  0  0  0  0  0  0  0  0  0
   -2.8553   -0.4198    0.0000 C   0  0  0  0  0  0  0  0  0  0  0  0
   -2.1418   -0.8300    0.0000 C   0  0  0  0  0  0  0  0  0  0  0  0
   -1.4284   -0.4148    0.0000 C   0  0  0  0  0  0  0  0  0  0  0  0
   -1.4284    0.4108    0.0000 C   0  0  0  0  0  0  0  0  0  0  0  0
    1.4265   -0.4074    0.0000 C   0  0  0  0  0  0  0  0  0  0  0  0
    1.4265    0.4175    0.0000 C   0  0  0  0  0  0  0  0  0  0  0  0
    2.1409    0.8300    0.0000 C   0  0  0  0  0  0  0  0  0  0  0  0
    2.8553    0.4175    0.0000 C   0  0  0  0  0  0  0  0  0  0  0  0
    2.8553   -0.4074    0.0000 C   0  0  0  0  0  0  0  0  0  0  0  0
    2.1409   -0.8199    0.0000 C   0  0  0  0  0  0  0  0  0  0  0  0
    0.8512    0.9081    0.0000 H   0  0  0  0  0  0  0  0  0  0  0  0
    0.7129   -1.8044    0.0000 H   0  0  0  0  0  0  0  0  0  0  0  0
   -0.7123   -1.8095    0.0000 H   0  0  0  0  0  0  0  0  0  0  0  0
   -2.1445    1.8530    0.0000 H   0  0  0  0  0  0  0  0  0  0  0  0
   -3.7499    0.9203    0.0000 H   0  0  0  0  0  0  0  0  0  0  0  0
   -3.7486   -0.9366    0.0000 H   0  0  0  0  0  0  0  0  0  0  0  0
   -2.1391   -1.8620    0.0000 H   0  0  0  0  0  0  0  0  0  0  0  0
   -0.5351    0.9276    0.0000 H   0  0  0  0  0  0  0  0  0  0  0  0
    0.5328    0.9335    0.0000 H   0  0  0  0  0  0  0  0  0  0  0  0
    2.1409    1.8620    0.0000 H   0  0  0  0  0  0  0  0  0  0  0  0
    3.7490    0.9335    0.0000 H   0  0  0  0  0  0  0  0  0  0  0  0
    3.7490   -0.9234    0.0000 H   0  0  0  0  0  0  0  0  0  0  0  0
    2.1409   -1.8519    0.0000 H   0  0  0  0  0  0  0  0  0  0  0  0
  2  1  2  0  0  0  0
  2 17  1  0  0  0  0
  3  1  1  0  0  0  0
  3 11  1  0  0  0  0
  3 18  1  0  0  0  0
  4  1  1  0  0  0  0
  4 19  1  0  0  0  0
  5 20  1  0  0  0  0
  6  5  1  0  0  0  0
  6 21  1  0  0  0  0
  7  6  2  0  0  0  0
  7 22  1  0  0  0  0
  8  7  1  0  0  0  0
  8 23  1  0  0  0  0
  9  4  1  0  0  0  0
  9  8  2  0  0  0  0
 10  5  2  0  0  0  0
 10  9  1  0  0  0  0
 10 24  1  0  0  0  0
 11 12  1  0  0  0  0
 12 13  2  0  0  0  0
 12 25  1  0  0  0  0
 13 14  1  0  0  0  0
 13 26  1  0  0  0  0
 14 15  2  0  0  0  0
 14 27  1  0  0  0  0
 15 16  1  0  0  0  0
 15 28  1  0  0  0  0
 16 11  2  0  0  0  0
 16 29  1  0  0  0  0
M  END
>  <DRUGBANK_ID>
DB14191

>  <COMMON_NAME>
Diphenylguanidine

>  <CAS_NUMBER>
102-06-7

>  <UNII>
6MRZ85RNHQ

>  <SYNONYMS>
1,3-diphenylguanidine; DPG; DPG vulcanizer; Melaniline; N,N'-diphenylguanidine; s-Diphenylguanidine

$$$$
