
 OpenBabel10282417072D

 36 38  0  0  0  0  0  0  0  0999 V2000
   -0.6469    0.8003    0.0000 N   0  0  0  0  0  0  0  0  0  0  0  0
   -0.6469   -0.0247    0.0000 C   0  0  2  0  0  0  0  0  0  0  0  0
    0.1376    1.0552    0.0000 C   0  0  0  0  0  0  0  0  0  0  0  0
   -1.4719    0.8003    0.0000 C   0  0  0  0  0  0  0  0  0  0  0  0
    0.6226    0.3877    0.0000 C   0  0  0  0  0  0  0  0  0  0  0  0
    0.1376   -0.2796    0.0000 S   0  0  0  0  0  0  0  0  0  0  0  0
   -1.4719   -0.0247    0.0000 C   0  0  2  0  0  0  0  0  0  0  0  0
    2.1376   -1.6324    0.0000 S   0  3  2  0  0  0  0  0  0  0  0  0
    0.3926    1.8398    0.0000 C   0  0  0  0  0  0  0  0  0  0  0  0
    1.4476    0.3877    0.0000 S   0  0  0  0  0  0  0  0  0  0  0  0
   -2.0553    1.3836    0.0000 O   0  0  0  0  0  0  0  0  0  0  0  0
    1.5245   -1.0803    0.0000 C   0  0  0  0  0  0  0  0  0  0  0  0
    1.8601   -0.3267    0.0000 C   0  0  2  0  0  0  0  0  0  0  0  0
    2.0514   -2.4529    0.0000 O   0  5  0  0  0  0  0  0  0  0  0  0
   -2.0553   -0.6080    0.0000 C   0  0  2  0  0  0  0  0  0  0  0  0
   -0.1594    2.4528    0.0000 O   0  0  0  0  0  0  0  0  0  0  0  0
    2.8521   -1.2198    0.0000 C   0  0  0  0  0  0  0  0  0  0  0  0
    2.6805   -0.4129    0.0000 C   0  0  0  0  0  0  0  0  0  0  0  0
    1.1995    2.0113    0.0000 O   0  0  0  0  0  0  0  0  0  0  0  0
   -1.8417   -1.4050    0.0000 O   0  0  0  0  0  0  0  0  0  0  0  0
   -2.8521   -0.3945    0.0000 C   0  0  0  0  0  0  0  0  0  0  0  0
   -0.7760   -0.8395    0.0000 H   0  0  0  0  0  0  0  0  0  0  0  0
   -2.2341    0.2909    0.0000 H   0  0  0  0  0  0  0  0  0  0  0  0
    0.4779   -1.3027    0.0000 H   0  0  0  0  0  0  0  0  0  0  0  0
    0.8512   -0.2487    0.0000 H   0  0  0  0  0  0  0  0  0  0  0  0
    0.7916   -0.3827    0.0000 H   0  0  0  0  0  0  0  0  0  0  0  0
   -1.0218   -0.8850    0.0000 H   0  0  0  0  0  0  0  0  0  0  0  0
    3.8296   -1.6549    0.0000 H   0  0  0  0  0  0  0  0  0  0  0  0
    2.9082   -2.2883    0.0000 H   0  0  0  0  0  0  0  0  0  0  0  0
    3.3964    0.3823    0.0000 H   0  0  0  0  0  0  0  0  0  0  0  0
    2.2970    0.5860    0.0000 H   0  0  0  0  0  0  0  0  0  0  0  0
    1.8265    1.3150    0.0000 H   0  0  0  0  0  0  0  0  0  0  0  0
   -2.5276   -2.0909    0.0000 H   0  0  0  0  0  0  0  0  0  0  0  0
   -3.1290    0.6390    0.0000 H   0  0  0  0  0  0  0  0  0  0  0  0
   -3.6087   -1.1511    0.0000 H   0  0  0  0  0  0  0  0  0  0  0  0
   -3.8856   -0.1176    0.0000 H   0  0  0  0  0  0  0  0  0  0  0  0
  2  1  1  0  0  0  0
  2 22  1  1  0  0  0
  2  7  1  0  0  0  0
  3  1  1  0  0  0  0
  4  1  1  0  0  0  0
  5  3  2  0  0  0  0
  6  2  1  0  0  0  0
  6  5  1  0  0  0  0
  7  4  1  0  0  0  0
  7 23  1  6  0  0  0
  8 12  1  0  0  0  0
  8 14  1  1  0  0  0
  8 17  1  0  0  0  0
  9  3  1  0  0  0  0
 10  5  1  0  0  0  0
 11  4  2  0  0  0  0
 12 13  1  0  0  0  0
 12 24  1  0  0  0  0
 12 25  1  0  0  0  0
 13 10  1  0  0  0  0
 13 26  1  6  0  0  0
 15  7  1  0  0  0  0
 15 20  1  0  0  0  0
 15 27  1  1  0  0  0
 16  9  2  0  0  0  0
 17 18  1  0  0  0  0
 17 28  1  0  0  0  0
 17 29  1  0  0  0  0
 18 13  1  0  0  0  0
 18 30  1  0  0  0  0
 18 31  1  0  0  0  0
 19  9  1  0  0  0  0
 19 32  1  0  0  0  0
 20 33  1  0  0  0  0
 21 15  1  0  0  0  0
 21 34  1  0  0  0  0
 21 35  1  0  0  0  0
 21 36  1  0  0  0  0
M  CHG  2   8   1  14  -1
M  END
>  <DRUGBANK_ID>
DB15284

>  <COMMON_NAME>
Sulopenem

>  <CAS_NUMBER>
120788-07-0

>  <UNII>
XX514BJ1XW

>  <SYNONYMS>
Sulopenem

$$$$
