PMA
 OpenBabel10282417072D

 24 24  0  0  0  0  0  0  0  0999 V2000
    0.6434    0.3118    0.0000 C   0  0  0  0  0  0  0  0  0  0  0  0
    0.6434   -0.5132    0.0000 C   0  0  0  0  0  0  0  0  0  0  0  0
   -0.0711    0.7243    0.0000 C   0  0  0  0  0  0  0  0  0  0  0  0
   -0.7855   -0.5132    0.0000 C   0  0  0  0  0  0  0  0  0  0  0  0
   -0.7855    0.3118    0.0000 C   0  0  0  0  0  0  0  0  0  0  0  0
   -0.0711   -0.9257    0.0000 C   0  0  0  0  0  0  0  0  0  0  0  0
   -1.5000   -0.9257    0.0000 C   0  0  0  0  0  0  0  0  0  0  0  0
   -1.5000    0.7243    0.0000 C   0  0  0  0  0  0  0  0  0  0  0  0
    1.3579    0.7243    0.0000 C   0  0  0  0  0  0  0  0  0  0  0  0
    1.3579   -0.9257    0.0000 C   0  0  0  0  0  0  0  0  0  0  0  0
    2.0723    0.3118    0.0000 O   0  0  0  0  0  0  0  0  0  0  0  0
    1.3579    1.5493    0.0000 O   0  0  0  0  0  0  0  0  0  0  0  0
    1.3579   -1.7507    0.0000 O   0  0  0  0  0  0  0  0  0  0  0  0
    2.0723   -0.5132    0.0000 O   0  0  0  0  0  0  0  0  0  0  0  0
   -1.5000   -1.7507    0.0000 O   0  0  0  0  0  0  0  0  0  0  0  0
   -2.2145   -0.5132    0.0000 O   0  0  0  0  0  0  0  0  0  0  0  0
   -2.2145    0.3118    0.0000 O   0  0  0  0  0  0  0  0  0  0  0  0
   -1.5000    1.5493    0.0000 O   0  0  0  0  0  0  0  0  0  0  0  0
   -0.0711    1.7563    0.0000 H   0  0  0  0  0  0  0  0  0  0  0  0
   -0.0711   -1.9577    0.0000 H   0  0  0  0  0  0  0  0  0  0  0  0
    2.1694    2.0178    0.0000 H   0  0  0  0  0  0  0  0  0  0  0  0
    2.8838   -0.9817    0.0000 H   0  0  0  0  0  0  0  0  0  0  0  0
   -2.2145    0.4238    0.0000 H   0  0  0  0  0  0  0  0  0  0  0  0
   -0.6885    2.0178    0.0000 H   0  0  0  0  0  0  0  0  0  0  0  0
  1  2  2  0  0  0  0
  1  3  1  0  0  0  0
  1  9  1  0  0  0  0
  2  6  1  0  0  0  0
  2 10  1  0  0  0  0
  3  5  2  0  0  0  0
  3 19  1  0  0  0  0
  4  5  1  0  0  0  0
  4  6  2  0  0  0  0
  4  7  1  0  0  0  0
  5  8  1  0  0  0  0
  6 20  1  0  0  0  0
  7 15  2  0  0  0  0
  7 16  1  0  0  0  0
  8 17  2  0  0  0  0
  8 18  1  0  0  0  0
  9 11  2  0  0  0  0
  9 12  1  0  0  0  0
 10 13  2  0  0  0  0
 10 14  1  0  0  0  0
 12 21  1  0  0  0  0
 14 22  1  0  0  0  0
 16 23  1  0  0  0  0
 18 24  1  0  0  0  0
M  END
>  <DRUGBANK_ID>
DB02749

>  <SECONDARY_ACCESSION_NUMBERS>
EXPT02613

>  <COMMON_NAME>
Pyromellitic Acid

>  <CAS_NUMBER>
89-05-4

>  <UNII>
D9UXG2U6ZU

$$$$
