775
 OpenBabel10282417072D

 66 67  0  0  1  0  0  0  0  0999 V2000
    7.0944    3.3001    0.0000 S   0  0  0  0  0  0  0  0  0  0  0  0
    5.6655   -1.6500    0.0000 O   0  0  0  0  0  0  0  0  0  0  0  0
    7.5069    2.5856    0.0000 O   0  0  0  0  0  0  0  0  0  0  0  0
    6.6819    4.0145    0.0000 O   0  0  0  0  0  0  0  0  0  0  0  0
    7.8089    2.0625    0.0000 O   0  0  0  0  0  0  0  0  0  0  0  0
    7.0944    0.8250    0.0000 O   0  0  0  0  0  0  0  0  0  0  0  0
    2.0930   -5.3626    0.0000 N   0  0  0  0  0  0  0  0  0  0  0  0
    6.3799    2.8876    0.0000 N   0  0  0  0  0  0  0  0  0  0  0  0
    3.5220   -4.5376    0.0000 C   0  0  0  0  0  0  0  0  0  0  0  0
    3.5220   -5.3626    0.0000 C   0  0  0  0  0  0  0  0  0  0  0  0
    2.8075   -4.1251    0.0000 C   0  0  0  0  0  0  0  0  0  0  0  0
    4.2365   -4.1251    0.0000 C   0  0  0  0  0  0  0  0  0  0  0  0
    2.8075   -5.7751    0.0000 C   0  0  0  0  0  0  0  0  0  0  0  0
    2.0930   -4.5376    0.0000 C   0  0  0  0  0  0  0  0  0  0  0  0
    4.2365   -3.3001    0.0000 C   0  0  0  0  0  0  0  0  0  0  0  0
    4.9509   -2.8876    0.0000 C   0  0  0  0  0  0  0  0  0  0  0  0
    4.9509   -2.0625    0.0000 C   0  0  0  0  0  0  0  0  0  0  0  0
    6.3799    2.0625    0.0000 C   0  0  1  0  0  0  0  0  0  0  0  0
    5.6655    1.6500    0.0000 C   0  0  0  0  0  0  0  0  0  0  0  0
    7.8089    3.7126    0.0000 C   0  0  0  0  0  0  0  0  0  0  0  0
    5.6655   -0.8250    0.0000 C   0  0  0  0  0  0  0  0  0  0  0  0
    7.8089    4.5376    0.0000 C   0  0  0  0  0  0  0  0  0  0  0  0
    5.6655    0.8250    0.0000 C   0  0  0  0  0  0  0  0  0  0  0  0
    8.5234    4.9501    0.0000 C   0  0  0  0  0  0  0  0  0  0  0  0
    6.3799   -0.4125    0.0000 C   0  0  0  0  0  0  0  0  0  0  0  0
    4.9509   -0.4125    0.0000 C   0  0  0  0  0  0  0  0  0  0  0  0
    6.3799    0.4125    0.0000 C   0  0  0  0  0  0  0  0  0  0  0  0
    4.9509    0.4125    0.0000 C   0  0  0  0  0  0  0  0  0  0  0  0
    7.0944    1.6500    0.0000 C   0  0  0  0  0  0  0  0  0  0  0  0
    8.5234    5.7751    0.0000 C   0  0  0  0  0  0  0  0  0  0  0  0
    8.6204    1.5940    0.0000 H   0  0  0  0  0  0  0  0  0  0  0  0
    1.2097   -5.8726    0.0000 H   0  0  0  0  0  0  0  0  0  0  0  0
    5.4966    3.3976    0.0000 H   0  0  0  0  0  0  0  0  0  0  0  0
    3.5220   -3.4676    0.0000 H   0  0  0  0  0  0  0  0  0  0  0  0
    4.4486   -5.8976    0.0000 H   0  0  0  0  0  0  0  0  0  0  0  0
    3.5220   -6.4326    0.0000 H   0  0  0  0  0  0  0  0  0  0  0  0
    2.8075   -3.0551    0.0000 H   0  0  0  0  0  0  0  0  0  0  0  0
    1.8809   -3.5901    0.0000 H   0  0  0  0  0  0  0  0  0  0  0  0
    5.1631   -4.6601    0.0000 H   0  0  0  0  0  0  0  0  0  0  0  0
    5.1631   -3.5901    0.0000 H   0  0  0  0  0  0  0  0  0  0  0  0
    2.8075   -6.8451    0.0000 H   0  0  0  0  0  0  0  0  0  0  0  0
    3.7341   -6.3101    0.0000 H   0  0  0  0  0  0  0  0  0  0  0  0
    1.1664   -4.0026    0.0000 H   0  0  0  0  0  0  0  0  0  0  0  0
    2.0930   -3.4676    0.0000 H   0  0  0  0  0  0  0  0  0  0  0  0
    3.3098   -2.7651    0.0000 H   0  0  0  0  0  0  0  0  0  0  0  0
    4.2365   -2.2301    0.0000 H   0  0  0  0  0  0  0  0  0  0  0  0
    5.8776   -3.4226    0.0000 H   0  0  0  0  0  0  0  0  0  0  0  0
    5.8775   -2.3526    0.0000 H   0  0  0  0  0  0  0  0  0  0  0  0
    4.0243   -1.5275    0.0000 H   0  0  0  0  0  0  0  0  0  0  0  0
    4.0242   -2.5975    0.0000 H   0  0  0  0  0  0  0  0  0  0  0  0
    5.4532    2.5975    0.0000 H   0  0  0  0  0  0  0  0  0  0  0  0
    4.7388    2.1850    0.0000 H   0  0  0  0  0  0  0  0  0  0  0  0
    4.7389    1.1150    0.0000 H   0  0  0  0  0  0  0  0  0  0  0  0
    8.7355    3.1776    0.0000 H   0  0  0  0  0  0  0  0  0  0  0  0
    8.7355    4.2476    0.0000 H   0  0  0  0  0  0  0  0  0  0  0  0
    6.8823    5.0726    0.0000 H   0  0  0  0  0  0  0  0  0  0  0  0
    7.8089    5.6076    0.0000 H   0  0  0  0  0  0  0  0  0  0  0  0
    9.4500    4.4151    0.0000 H   0  0  0  0  0  0  0  0  0  0  0  0
    9.4500    5.4851    0.0000 H   0  0  0  0  0  0  0  0  0  0  0  0
    7.2736   -0.9285    0.0000 H   0  0  0  0  0  0  0  0  0  0  0  0
    4.0572   -0.9285    0.0000 H   0  0  0  0  0  0  0  0  0  0  0  0
    7.2736    0.9285    0.0000 H   0  0  0  0  0  0  0  0  0  0  0  0
    4.0572    0.9285    0.0000 H   0  0  0  0  0  0  0  0  0  0  0  0
    9.4500    6.3101    0.0000 H   0  0  0  0  0  0  0  0  0  0  0  0
    7.5968    6.3101    0.0000 H   0  0  0  0  0  0  0  0  0  0  0  0
    8.5234    6.8451    0.0000 H   0  0  0  0  0  0  0  0  0  0  0  0
  1  3  2  0  0  0  0
  1  4  2  0  0  0  0
  1  8  1  0  0  0  0
  1 20  1  0  0  0  0
  2 17  1  0  0  0  0
  2 21  1  0  0  0  0
  5 29  1  0  0  0  0
  5 31  1  0  0  0  0
  6 29  2  0  0  0  0
  7 13  1  0  0  0  0
  7 14  1  0  0  0  0
  7 32  1  0  0  0  0
  8 33  1  0  0  0  0
  9 10  1  0  0  0  0
  9 11  1  0  0  0  0
  9 12  1  0  0  0  0
  9 34  1  0  0  0  0
 10 13  1  0  0  0  0
 10 35  1  0  0  0  0
 10 36  1  0  0  0  0
 11 14  1  0  0  0  0
 11 37  1  0  0  0  0
 11 38  1  0  0  0  0
 12 15  1  0  0  0  0
 12 39  1  0  0  0  0
 12 40  1  0  0  0  0
 13 41  1  0  0  0  0
 13 42  1  0  0  0  0
 14 43  1  0  0  0  0
 14 44  1  0  0  0  0
 15 16  1  0  0  0  0
 15 45  1  0  0  0  0
 15 46  1  0  0  0  0
 16 17  1  0  0  0  0
 16 47  1  0  0  0  0
 16 48  1  0  0  0  0
 17 49  1  0  0  0  0
 17 50  1  0  0  0  0
 18  8  1  0  0  0  0
 18 19  1  0  0  0  0
 18 29  1  0  0  0  0
 18 51  1  1  0  0  0
 19 23  1  0  0  0  0
 19 52  1  0  0  0  0
 19 53  1  0  0  0  0
 20 22  1  0  0  0  0
 20 54  1  0  0  0  0
 20 55  1  0  0  0  0
 21 25  2  0  0  0  0
 21 26  1  0  0  0  0
 22 24  1  0  0  0  0
 22 56  1  0  0  0  0
 22 57  1  0  0  0  0
 23 27  2  0  0  0  0
 23 28  1  0  0  0  0
 24 30  1  0  0  0  0
 24 58  1  0  0  0  0
 24 59  1  0  0  0  0
 25 27  1  0  0  0  0
 25 60  1  0  0  0  0
 26 28  2  0  0  0  0
 26 61  1  0  0  0  0
 27 62  1  0  0  0  0
 28 63  1  0  0  0  0
 30 64  1  0  0  0  0
 30 65  1  0  0  0  0
 30 66  1  0  0  0  0
M  END
>  <DRUGBANK_ID>
DB00775

>  <SECONDARY_ACCESSION_NUMBERS>
APRD00304

>  <COMMON_NAME>
Tirofiban

>  <CAS_NUMBER>
144494-65-5

>  <UNII>
GGX234SI5H

>  <SYNONYMS>
(2S)-2-(butylsulfonylamino)-3-[4-(4-piperidin-4-ylbutoxy)phenyl]propanoic acid; N-(Butylsulfonyl)-O-(4-(4-piperidyl)butyl)-L-tyrosine; Tirofiban; Tirofib√°n; Tirofibanum

$$$$
