
 OpenBabel10282417072D

 51 50  0  0  0  0  0  0  0  0999 V2000
    7.0944   -0.6740    0.0000 O   0  0  0  0  0  0  0  0  0  0  0  0
   12.0958   -0.2615    0.0000 O   0  0  0  0  0  0  0  0  0  0  0  0
    2.0930   -0.2615    0.0000 O   0  0  0  0  0  0  0  0  0  0  0  0
   11.3814    0.9760    0.0000 O   0  0  0  0  0  0  0  0  0  0  0  0
    2.8075    0.9760    0.0000 O   0  0  0  0  0  0  0  0  0  0  0  0
   10.6668   -0.2615    0.0000 C   0  0  0  0  0  0  0  0  0  0  0  0
    3.5220   -0.2615    0.0000 C   0  0  0  0  0  0  0  0  0  0  0  0
    9.9524   -0.6740    0.0000 C   0  0  0  0  0  0  0  0  0  0  0  0
    4.2365   -0.6740    0.0000 C   0  0  0  0  0  0  0  0  0  0  0  0
    9.2379   -0.2615    0.0000 C   0  0  0  0  0  0  0  0  0  0  0  0
    4.9509   -0.2615    0.0000 C   0  0  0  0  0  0  0  0  0  0  0  0
    8.5234   -0.6740    0.0000 C   0  0  0  0  0  0  0  0  0  0  0  0
    5.6655   -0.6740    0.0000 C   0  0  0  0  0  0  0  0  0  0  0  0
   11.0793   -0.9760    0.0000 C   0  0  0  0  0  0  0  0  0  0  0  0
   10.2543    0.4529    0.0000 C   0  0  0  0  0  0  0  0  0  0  0  0
    3.1095   -0.9760    0.0000 C   0  0  0  0  0  0  0  0  0  0  0  0
    3.9345    0.4529    0.0000 C   0  0  0  0  0  0  0  0  0  0  0  0
    7.8089   -0.2615    0.0000 C   0  0  0  0  0  0  0  0  0  0  0  0
    6.3799   -0.2615    0.0000 C   0  0  0  0  0  0  0  0  0  0  0  0
   11.3814    0.1510    0.0000 C   0  0  0  0  0  0  0  0  0  0  0  0
    2.8075    0.1510    0.0000 C   0  0  0  0  0  0  0  0  0  0  0  0
   12.0958   -1.1985    0.0000 H   0  0  0  0  0  0  0  0  0  0  0  0
    1.2815    0.2070    0.0000 H   0  0  0  0  0  0  0  0  0  0  0  0
    9.9524   -1.7440    0.0000 H   0  0  0  0  0  0  0  0  0  0  0  0
    9.0258   -1.2090    0.0000 H   0  0  0  0  0  0  0  0  0  0  0  0
    4.2365   -1.7440    0.0000 H   0  0  0  0  0  0  0  0  0  0  0  0
    5.1632   -1.2090    0.0000 H   0  0  0  0  0  0  0  0  0  0  0  0
    9.2379    0.8085    0.0000 H   0  0  0  0  0  0  0  0  0  0  0  0
    8.3113    0.2735    0.0000 H   0  0  0  0  0  0  0  0  0  0  0  0
    4.9508    0.8085    0.0000 H   0  0  0  0  0  0  0  0  0  0  0  0
    5.8775    0.2736    0.0000 H   0  0  0  0  0  0  0  0  0  0  0  0
    8.5234   -1.7440    0.0000 H   0  0  0  0  0  0  0  0  0  0  0  0
    7.5968   -1.2090    0.0000 H   0  0  0  0  0  0  0  0  0  0  0  0
    5.6656   -1.7440    0.0000 H   0  0  0  0  0  0  0  0  0  0  0  0
    6.5922   -1.2090    0.0000 H   0  0  0  0  0  0  0  0  0  0  0  0
   10.5443   -1.9026    0.0000 H   0  0  0  0  0  0  0  0  0  0  0  0
   12.1493   -0.9760    0.0000 H   0  0  0  0  0  0  0  0  0  0  0  0
   11.6143   -1.9027    0.0000 H   0  0  0  0  0  0  0  0  0  0  0  0
   10.7893    1.3796    0.0000 H   0  0  0  0  0  0  0  0  0  0  0  0
    9.1843    0.4529    0.0000 H   0  0  0  0  0  0  0  0  0  0  0  0
    9.7193    1.3795    0.0000 H   0  0  0  0  0  0  0  0  0  0  0  0
    2.0395   -0.9760    0.0000 H   0  0  0  0  0  0  0  0  0  0  0  0
    3.6445   -1.9026    0.0000 H   0  0  0  0  0  0  0  0  0  0  0  0
    2.5745   -1.9027    0.0000 H   0  0  0  0  0  0  0  0  0  0  0  0
    5.0045    0.4529    0.0000 H   0  0  0  0  0  0  0  0  0  0  0  0
    3.3995    1.3796    0.0000 H   0  0  0  0  0  0  0  0  0  0  0  0
    4.4695    1.3795    0.0000 H   0  0  0  0  0  0  0  0  0  0  0  0
    7.8089    0.8085    0.0000 H   0  0  0  0  0  0  0  0  0  0  0  0
    8.7355    0.2735    0.0000 H   0  0  0  0  0  0  0  0  0  0  0  0
    6.3799    0.8085    0.0000 H   0  0  0  0  0  0  0  0  0  0  0  0
    5.4532    0.2735    0.0000 H   0  0  0  0  0  0  0  0  0  0  0  0
  1 18  1  0  0  0  0
  1 19  1  0  0  0  0
  2 20  1  0  0  0  0
  2 22  1  0  0  0  0
  3 21  1  0  0  0  0
  3 23  1  0  0  0  0
  4 20  2  0  0  0  0
  5 21  2  0  0  0  0
  6  8  1  0  0  0  0
  6 14  1  0  0  0  0
  6 15  1  0  0  0  0
  6 20  1  0  0  0  0
  7  9  1  0  0  0  0
  7 16  1  0  0  0  0
  7 17  1  0  0  0  0
  7 21  1  0  0  0  0
  8 10  1  0  0  0  0
  8 24  1  0  0  0  0
  8 25  1  0  0  0  0
  9 11  1  0  0  0  0
  9 26  1  0  0  0  0
  9 27  1  0  0  0  0
 10 12  1  0  0  0  0
 10 28  1  0  0  0  0
 10 29  1  0  0  0  0
 11 13  1  0  0  0  0
 11 30  1  0  0  0  0
 11 31  1  0  0  0  0
 12 18  1  0  0  0  0
 12 32  1  0  0  0  0
 12 33  1  0  0  0  0
 13 19  1  0  0  0  0
 13 34  1  0  0  0  0
 13 35  1  0  0  0  0
 14 36  1  0  0  0  0
 14 37  1  0  0  0  0
 14 38  1  0  0  0  0
 15 39  1  0  0  0  0
 15 40  1  0  0  0  0
 15 41  1  0  0  0  0
 16 42  1  0  0  0  0
 16 43  1  0  0  0  0
 16 44  1  0  0  0  0
 17 45  1  0  0  0  0
 17 46  1  0  0  0  0
 17 47  1  0  0  0  0
 18 48  1  0  0  0  0
 18 49  1  0  0  0  0
 19 50  1  0  0  0  0
 19 51  1  0  0  0  0
M  END
>  <DRUGBANK_ID>
DB05123

>  <COMMON_NAME>
Gemcabene

>  <CAS_NUMBER>
183293-82-5

>  <UNII>
B96UX1DDKS

>  <SYNONYMS>
Gemcabene

$$$$
