
 OpenBabel10282417072D

 60 59  0  0  1  0  0  0  0  0999 V2000
    9.1855    6.1283    0.0000 C   0  0  0  0  0  0  0  0  0  0  0  0
    9.9000    5.7158    0.0000 C   0  0  0  0  0  0  0  0  0  0  0  0
   10.6145    6.1283    0.0000 C   0  0  0  0  0  0  0  0  0  0  0  0
   11.3289    5.7158    0.0000 C   0  0  0  0  0  0  0  0  0  0  0  0
   12.0434    6.1283    0.0000 C   0  0  0  0  0  0  0  0  0  0  0  0
   12.7579    5.7158    0.0000 C   0  0  0  0  0  0  0  0  0  0  0  0
   13.4724    6.1283    0.0000 C   0  0  0  0  0  0  0  0  0  0  0  0
   14.1868    5.7158    0.0000 C   0  0  0  0  0  0  0  0  0  0  0  0
   14.9013    6.1283    0.0000 C   0  0  0  0  0  0  0  0  0  0  0  0
   15.6158    5.7158    0.0000 C   0  0  0  0  0  0  0  0  0  0  0  0
   16.3302    6.1283    0.0000 C   0  0  0  0  0  0  0  0  0  0  0  0
   17.0447    5.7158    0.0000 C   0  0  0  0  0  0  0  0  0  0  0  0
   17.7592    6.1283    0.0000 C   0  0  0  0  0  0  0  0  0  0  0  0
   18.4737    5.7158    0.0000 C   0  0  0  0  0  0  0  0  0  0  0  0
   19.1881    6.1283    0.0000 C   0  0  0  0  0  0  0  0  0  0  0  0
   19.9026    5.7158    0.0000 C   0  0  1  0  0  0  0  0  0  0  0  0
   20.6171    6.1283    0.0000 C   0  0  2  0  0  0  0  0  0  0  0  0
   21.3315    5.7158    0.0000 C   0  0  0  0  0  0  0  0  0  0  0  0
   22.0460    6.1283    0.0000 O   0  0  0  0  0  0  0  0  0  0  0  0
   20.6171    6.9533    0.0000 N   0  0  0  0  0  0  0  0  0  0  0  0
   19.9026    4.8908    0.0000 O   0  0  0  0  0  0  0  0  0  0  0  0
    9.1855    7.1983    0.0000 H   0  0  0  0  0  0  0  0  0  0  0  0
    8.2589    5.5933    0.0000 H   0  0  0  0  0  0  0  0  0  0  0  0
    8.2588    6.6633    0.0000 H   0  0  0  0  0  0  0  0  0  0  0  0
    9.9000    4.6458    0.0000 H   0  0  0  0  0  0  0  0  0  0  0  0
   10.8266    5.1808    0.0000 H   0  0  0  0  0  0  0  0  0  0  0  0
   10.6145    7.1983    0.0000 H   0  0  0  0  0  0  0  0  0  0  0  0
   11.5412    6.6633    0.0000 H   0  0  0  0  0  0  0  0  0  0  0  0
   11.3289    4.6458    0.0000 H   0  0  0  0  0  0  0  0  0  0  0  0
   12.2555    5.1808    0.0000 H   0  0  0  0  0  0  0  0  0  0  0  0
   12.0434    7.1983    0.0000 H   0  0  0  0  0  0  0  0  0  0  0  0
   12.9700    6.6633    0.0000 H   0  0  0  0  0  0  0  0  0  0  0  0
   12.7579    4.6458    0.0000 H   0  0  0  0  0  0  0  0  0  0  0  0
   13.6845    5.1808    0.0000 H   0  0  0  0  0  0  0  0  0  0  0  0
   13.4724    7.1983    0.0000 H   0  0  0  0  0  0  0  0  0  0  0  0
   14.3991    6.6633    0.0000 H   0  0  0  0  0  0  0  0  0  0  0  0
   14.1868    4.6458    0.0000 H   0  0  0  0  0  0  0  0  0  0  0  0
   15.1134    5.1808    0.0000 H   0  0  0  0  0  0  0  0  0  0  0  0
   14.9013    7.1983    0.0000 H   0  0  0  0  0  0  0  0  0  0  0  0
   15.8279    6.6633    0.0000 H   0  0  0  0  0  0  0  0  0  0  0  0
   15.6158    4.6458    0.0000 H   0  0  0  0  0  0  0  0  0  0  0  0
   16.5425    5.1808    0.0000 H   0  0  0  0  0  0  0  0  0  0  0  0
   16.3302    7.1983    0.0000 H   0  0  0  0  0  0  0  0  0  0  0  0
   17.2568    6.6633    0.0000 H   0  0  0  0  0  0  0  0  0  0  0  0
   17.0447    4.6458    0.0000 H   0  0  0  0  0  0  0  0  0  0  0  0
   17.9713    5.1808    0.0000 H   0  0  0  0  0  0  0  0  0  0  0  0
   17.7592    7.1983    0.0000 H   0  0  0  0  0  0  0  0  0  0  0  0
   18.6858    6.6633    0.0000 H   0  0  0  0  0  0  0  0  0  0  0  0
   18.4737    4.6458    0.0000 H   0  0  0  0  0  0  0  0  0  0  0  0
   19.4004    5.1808    0.0000 H   0  0  0  0  0  0  0  0  0  0  0  0
   19.1881    7.1983    0.0000 H   0  0  0  0  0  0  0  0  0  0  0  0
   20.1147    6.6633    0.0000 H   0  0  0  0  0  0  0  0  0  0  0  0
   18.9760    5.1808    0.0000 H   0  0  0  0  0  0  0  0  0  0  0  0
   19.6905    6.6633    0.0000 H   0  0  0  0  0  0  0  0  0  0  0  0
   21.3315    4.6458    0.0000 H   0  0  0  0  0  0  0  0  0  0  0  0
   22.2581    5.1808    0.0000 H   0  0  0  0  0  0  0  0  0  0  0  0
   22.8860    5.6433    0.0000 H   0  0  0  0  0  0  0  0  0  0  0  0
   21.5004    7.4633    0.0000 H   0  0  0  0  0  0  0  0  0  0  0  0
   19.7338    7.4633    0.0000 H   0  0  0  0  0  0  0  0  0  0  0  0
   19.0626    4.4058    0.0000 H   0  0  0  0  0  0  0  0  0  0  0  0
  1  2  1  0  0  0  0
  1 22  1  0  0  0  0
  1 23  1  0  0  0  0
  1 24  1  0  0  0  0
  2  3  1  0  0  0  0
  2 25  1  0  0  0  0
  2 26  1  0  0  0  0
  3  4  1  0  0  0  0
  3 27  1  0  0  0  0
  3 28  1  0  0  0  0
  4  5  1  0  0  0  0
  4 29  1  0  0  0  0
  4 30  1  0  0  0  0
  5  6  1  0  0  0  0
  5 31  1  0  0  0  0
  5 32  1  0  0  0  0
  6  7  1  0  0  0  0
  6 33  1  0  0  0  0
  6 34  1  0  0  0  0
  7  8  1  0  0  0  0
  7 35  1  0  0  0  0
  7 36  1  0  0  0  0
  8  9  1  0  0  0  0
  8 37  1  0  0  0  0
  8 38  1  0  0  0  0
  9 10  1  0  0  0  0
  9 39  1  0  0  0  0
  9 40  1  0  0  0  0
 10 11  1  0  0  0  0
 10 41  1  0  0  0  0
 10 42  1  0  0  0  0
 11 12  1  0  0  0  0
 11 43  1  0  0  0  0
 11 44  1  0  0  0  0
 12 13  1  0  0  0  0
 12 45  1  0  0  0  0
 12 46  1  0  0  0  0
 13 14  1  0  0  0  0
 13 47  1  0  0  0  0
 13 48  1  0  0  0  0
 14 15  1  0  0  0  0
 14 49  1  0  0  0  0
 14 50  1  0  0  0  0
 15 16  1  0  0  0  0
 15 51  1  0  0  0  0
 15 52  1  0  0  0  0
 16 17  1  0  0  0  0
 16 21  1  0  0  0  0
 16 53  1  6  0  0  0
 17 18  1  0  0  0  0
 17 20  1  0  0  0  0
 17 54  1  6  0  0  0
 18 19  1  0  0  0  0
 18 55  1  0  0  0  0
 18 56  1  0  0  0  0
 19 57  1  0  0  0  0
 20 58  1  0  0  0  0
 20 59  1  0  0  0  0
 21 60  1  0  0  0  0
M  END
>  <DRUGBANK_ID>
DB11924

>  <COMMON_NAME>
Safingol

>  <CAS_NUMBER>
15639-50-6

>  <UNII>
OWA98U788S

>  <SYNONYMS>
Safingol

$$$$
