23M
 OpenBabel10282417072D

 34 36  0  0  0  0  0  0  0  0999 V2000
    0.9527   -0.3076    0.0000 C   0  0  0  0  0  0  0  0  0  0  0  0
    0.9527    0.5174    0.0000 C   0  0  0  0  0  0  0  0  0  0  0  0
    0.1680    0.7724    0.0000 N   0  0  0  0  0  0  0  0  0  0  0  0
   -0.3169    0.1049    0.0000 C   0  0  0  0  0  0  0  0  0  0  0  0
    0.1680   -0.5625    0.0000 C   0  0  0  0  0  0  0  0  0  0  0  0
   -1.1419    0.1049    0.0000 C   0  0  0  0  0  0  0  0  0  0  0  0
   -1.5544   -0.6095    0.0000 C   0  0  0  0  0  0  0  0  0  0  0  0
   -2.3794   -0.6095    0.0000 C   0  0  0  0  0  0  0  0  0  0  0  0
   -2.7919    0.1049    0.0000 C   0  0  0  0  0  0  0  0  0  0  0  0
   -2.3794    0.8194    0.0000 C   0  0  0  0  0  0  0  0  0  0  0  0
   -1.5544    0.8194    0.0000 C   0  0  0  0  0  0  0  0  0  0  0  0
   -2.7919    1.5339    0.0000 C   0  0  0  0  0  0  0  0  0  0  0  0
    1.6671    0.9299    0.0000 C   0  0  0  0  0  0  0  0  0  0  0  0
    2.3816    0.5174    0.0000 C   0  0  0  0  0  0  0  0  0  0  0  0
    2.3816   -0.3076    0.0000 C   0  0  0  0  0  0  0  0  0  0  0  0
    1.6671   -0.7201    0.0000 C   0  0  0  0  0  0  0  0  0  0  0  0
    3.0961   -0.7201    0.0000 C   0  0  0  0  0  0  0  0  0  0  0  0
    3.8105   -0.3076    0.0000 N   0  0  0  0  0  0  0  0  0  0  0  0
    3.0961   -1.5451    0.0000 N   0  0  0  0  0  0  0  0  0  0  0  0
   -0.1362    1.7087    0.0000 H   0  0  0  0  0  0  0  0  0  0  0  0
   -0.1509   -1.5440    0.0000 H   0  0  0  0  0  0  0  0  0  0  0  0
   -1.0384   -1.5032    0.0000 H   0  0  0  0  0  0  0  0  0  0  0  0
   -2.8954   -1.5032    0.0000 H   0  0  0  0  0  0  0  0  0  0  0  0
   -3.8239    0.1049    0.0000 H   0  0  0  0  0  0  0  0  0  0  0  0
   -1.0384    1.7131    0.0000 H   0  0  0  0  0  0  0  0  0  0  0  0
   -2.2569    2.4605    0.0000 H   0  0  0  0  0  0  0  0  0  0  0  0
   -3.8619    1.5339    0.0000 H   0  0  0  0  0  0  0  0  0  0  0  0
   -3.3269    2.4606    0.0000 H   0  0  0  0  0  0  0  0  0  0  0  0
    1.6671    1.9619    0.0000 H   0  0  0  0  0  0  0  0  0  0  0  0
    3.2753    1.0334    0.0000 H   0  0  0  0  0  0  0  0  0  0  0  0
    1.6671   -1.7521    0.0000 H   0  0  0  0  0  0  0  0  0  0  0  0
    4.6631   -0.7998    0.0000 H   0  0  0  0  0  0  0  0  0  0  0  0
    2.2435   -2.0373    0.0000 H   0  0  0  0  0  0  0  0  0  0  0  0
    3.9487   -2.0373    0.0000 H   0  0  0  0  0  0  0  0  0  0  0  0
  1  2  2  0  0  0  0
  1  5  1  0  0  0  0
  1 16  1  0  0  0  0
  2  3  1  0  0  0  0
  2 13  1  0  0  0  0
  3  4  1  0  0  0  0
  3 20  1  0  0  0  0
  4  5  2  0  0  0  0
  4  6  1  0  0  0  0
  5 21  1  0  0  0  0
  6  7  1  0  0  0  0
  6 11  2  0  0  0  0
  7  8  2  0  0  0  0
  7 22  1  0  0  0  0
  8  9  1  0  0  0  0
  8 23  1  0  0  0  0
  9 10  2  0  0  0  0
  9 24  1  0  0  0  0
 10 11  1  0  0  0  0
 10 12  1  0  0  0  0
 11 25  1  0  0  0  0
 12 26  1  0  0  0  0
 12 27  1  0  0  0  0
 12 28  1  0  0  0  0
 13 14  2  0  0  0  0
 13 29  1  0  0  0  0
 14 15  1  0  0  0  0
 14 30  1  0  0  0  0
 15 16  2  0  0  0  0
 15 17  1  0  0  0  0
 16 31  1  0  0  0  0
 17 18  2  0  0  0  0
 17 19  1  0  0  0  0
 18 32  1  0  0  0  0
 19 33  1  0  0  0  0
 19 34  1  0  0  0  0
M  END
>  <DRUGBANK_ID>
DB06923

>  <COMMON_NAME>
2-(3-METHYLPHENYL)-1H-INDOLE-5-CARBOXIMIDAMIDE

$$$$
