
 OpenBabel10282417072D

 15 14  0  0  1  0  0  0  0  0999 V2000
   -0.1914    0.7145    0.0000 O   0  0  0  0  0  0  0  0  0  0  0  0
    0.5230    1.1270    0.0000 C   0  0  0  0  0  0  0  0  0  0  0  0
    1.2375    0.7145    0.0000 C   0  0  1  0  0  0  0  0  0  0  0  0
    1.2375   -0.1105    0.0000 O   0  0  0  0  0  0  0  0  0  0  0  0
    1.9520    1.1270    0.0000 C   0  0  0  0  0  0  0  0  0  0  0  0
    2.6664    0.7145    0.0000 S   0  0  0  0  0  0  0  0  0  0  0  0
    3.3809    1.1270    0.0000 O   0  0  0  0  0  0  0  0  0  0  0  0
   -1.0315    1.1995    0.0000 H   0  0  0  0  0  0  0  0  0  0  0  0
    0.5230    2.1970    0.0000 H   0  0  0  0  0  0  0  0  0  0  0  0
    1.4496    1.6620    0.0000 H   0  0  0  0  0  0  0  0  0  0  0  0
    0.3109    0.1795    0.0000 H   0  0  0  0  0  0  0  0  0  0  0  0
    0.3975   -0.5955    0.0000 H   0  0  0  0  0  0  0  0  0  0  0  0
    1.9520    2.1970    0.0000 H   0  0  0  0  0  0  0  0  0  0  0  0
    2.8787    1.6620    0.0000 H   0  0  0  0  0  0  0  0  0  0  0  0
    4.2209    0.6420    0.0000 H   0  0  0  0  0  0  0  0  0  0  0  0
  1  2  1  0  0  0  0
  1  8  1  0  0  0  0
  2  3  1  0  0  0  0
  2  9  1  0  0  0  0
  2 10  1  0  0  0  0
  3  4  1  0  0  0  0
  3  5  1  0  0  0  0
  3 11  1  1  0  0  0
  4 12  1  0  0  0  0
  5  6  1  0  0  0  0
  5 13  1  0  0  0  0
  5 14  1  0  0  0  0
  6  7  1  0  0  0  0
  7 15  1  0  0  0  0
M  END
>  <DRUGBANK_ID>
DB01684

>  <SECONDARY_ACCESSION_NUMBERS>
EXPT02896

>  <COMMON_NAME>
1-Hydroxy-1-Thio-Glycerol

$$$$
