C17
 OpenBabel10282417072D

 33 35  0  0  0  0  0  0  0  0999 V2000
   -3.8929   -0.3588    0.0000 O   0  0  0  0  0  0  0  0  0  0  0  0
   -3.1784    0.0537    0.0000 C   0  0  0  0  0  0  0  0  0  0  0  0
   -2.4640   -0.3588    0.0000 O   0  0  0  0  0  0  0  0  0  0  0  0
   -1.7495    0.0537    0.0000 C   0  0  0  0  0  0  0  0  0  0  0  0
   -1.7495    0.8787    0.0000 C   0  0  0  0  0  0  0  0  0  0  0  0
   -2.4640    1.2912    0.0000 C   0  0  0  0  0  0  0  0  0  0  0  0
   -2.4640    2.1162    0.0000 C   0  0  0  0  0  0  0  0  0  0  0  0
   -3.1784    2.5287    0.0000 O   0  0  0  0  0  0  0  0  0  0  0  0
   -3.1784    0.8787    0.0000 C   0  0  0  0  0  0  0  0  0  0  0  0
   -1.0350   -0.3588    0.0000 C   0  0  0  0  0  0  0  0  0  0  0  0
   -0.3205    0.0537    0.0000 C   0  0  0  0  0  0  0  0  0  0  0  0
   -0.3205    0.8787    0.0000 C   0  0  0  0  0  0  0  0  0  0  0  0
   -1.0350    1.2912    0.0000 C   0  0  0  0  0  0  0  0  0  0  0  0
    0.3939   -0.3588    0.0000 O   0  0  0  0  0  0  0  0  0  0  0  0
    1.1084    0.0537    0.0000 C   0  0  0  0  0  0  0  0  0  0  0  0
    1.8229   -0.3588    0.0000 C   0  0  0  0  0  0  0  0  0  0  0  0
    2.5373    0.0537    0.0000 C   0  0  0  0  0  0  0  0  0  0  0  0
    3.2518   -0.3588    0.0000 C   0  0  0  0  0  0  0  0  0  0  0  0
    3.2518   -1.1838    0.0000 C   0  0  0  0  0  0  0  0  0  0  0  0
    2.5373   -1.5963    0.0000 C   0  0  0  0  0  0  0  0  0  0  0  0
    2.5373   -2.4213    0.0000 Cl  0  0  0  0  0  0  0  0  0  0  0  0
    1.8229   -1.1838    0.0000 C   0  0  0  0  0  0  0  0  0  0  0  0
   -1.5703    2.6322    0.0000 H   0  0  0  0  0  0  0  0  0  0  0  0
   -4.0721    1.3947    0.0000 H   0  0  0  0  0  0  0  0  0  0  0  0
   -1.0350   -1.3908    0.0000 H   0  0  0  0  0  0  0  0  0  0  0  0
    0.5732    1.3947    0.0000 H   0  0  0  0  0  0  0  0  0  0  0  0
   -1.0350    2.3232    0.0000 H   0  0  0  0  0  0  0  0  0  0  0  0
    1.1084    1.1237    0.0000 H   0  0  0  0  0  0  0  0  0  0  0  0
    2.0350    0.5887    0.0000 H   0  0  0  0  0  0  0  0  0  0  0  0
    2.5373    1.0857    0.0000 H   0  0  0  0  0  0  0  0  0  0  0  0
    4.1455    0.1572    0.0000 H   0  0  0  0  0  0  0  0  0  0  0  0
    4.1455   -1.6998    0.0000 H   0  0  0  0  0  0  0  0  0  0  0  0
    0.9292   -1.6998    0.0000 H   0  0  0  0  0  0  0  0  0  0  0  0
  1  2  2  0  0  0  0
  2  3  1  0  0  0  0
  2  9  1  0  0  0  0
  3  4  1  0  0  0  0
  4  5  1  0  0  0  0
  4 10  2  0  0  0  0
  5  6  1  0  0  0  0
  5 13  2  0  0  0  0
  6  7  1  0  0  0  0
  6  9  2  0  0  0  0
  7  8  2  0  0  0  0
  7 23  1  0  0  0  0
  9 24  1  0  0  0  0
 10 11  1  0  0  0  0
 10 25  1  0  0  0  0
 11 12  2  0  0  0  0
 11 14  1  0  0  0  0
 12 13  1  0  0  0  0
 12 26  1  0  0  0  0
 13 27  1  0  0  0  0
 14 15  1  0  0  0  0
 15 16  1  0  0  0  0
 15 28  1  0  0  0  0
 15 29  1  0  0  0  0
 16 17  1  0  0  0  0
 16 22  2  0  0  0  0
 17 18  2  0  0  0  0
 17 30  1  0  0  0  0
 18 19  1  0  0  0  0
 18 31  1  0  0  0  0
 19 20  2  0  0  0  0
 19 32  1  0  0  0  0
 20 21  1  0  0  0  0
 20 22  1  0  0  0  0
 22 33  1  0  0  0  0
M  END
>  <DRUGBANK_ID>
DB07512

>  <COMMON_NAME>
7-[(3-CHLOROBENZYL)OXY]-2-OXO-2H-CHROMENE-4-CARBALDEHYDE

$$$$
