BIF
 OpenBabel10282417072D

 33 34  0  0  0  0  0  0  0  0999 V2000
    1.1756    0.8366    0.0000 N   0  0  0  0  0  0  0  0  0  0  0  0
    1.8901    1.2491    0.0000 C   0  0  2  0  0  0  0  0  0  0  0  0
    1.8901    2.0741    0.0000 C   0  0  0  0  0  0  0  0  0  0  0  0
    1.1756    2.4866    0.0000 O   0  0  0  0  0  0  0  0  0  0  0  0
    2.6046    0.8366    0.0000 C   0  0  0  0  0  0  0  0  0  0  0  0
    2.6046    0.0116    0.0000 C   0  0  0  0  0  0  0  0  0  0  0  0
    3.3190   -0.4009    0.0000 C   0  0  0  0  0  0  0  0  0  0  0  0
    3.3190   -1.2259    0.0000 C   0  0  0  0  0  0  0  0  0  0  0  0
    2.6046   -1.6384    0.0000 C   0  0  0  0  0  0  0  0  0  0  0  0
    1.8901   -1.2259    0.0000 C   0  0  0  0  0  0  0  0  0  0  0  0
    1.8901   -0.4009    0.0000 C   0  0  0  0  0  0  0  0  0  0  0  0
    3.3190   -3.7009    0.0000 C   0  0  0  0  0  0  0  0  0  0  0  0
    2.6046   -4.1134    0.0000 C   0  0  0  0  0  0  0  0  0  0  0  0
    1.8901   -3.7009    0.0000 C   0  0  0  0  0  0  0  0  0  0  0  0
    1.8901   -2.8759    0.0000 C   0  0  0  0  0  0  0  0  0  0  0  0
    2.6046   -2.4634    0.0000 C   0  0  0  0  0  0  0  0  0  0  0  0
    3.3190   -2.8759    0.0000 C   0  0  0  0  0  0  0  0  0  0  0  0
    2.6046    2.4866    0.0000 O   0  0  0  0  0  0  0  0  0  0  0  0
    1.3844    1.5411    0.0000 H   0  0  0  0  0  0  0  0  0  0  0  0
    0.2923    1.3466    0.0000 H   0  0  0  0  0  0  0  0  0  0  0  0
    1.1756   -0.1834    0.0000 H   0  0  0  0  0  0  0  0  0  0  0  0
    1.1756    3.4236    0.0000 H   0  0  0  0  0  0  0  0  0  0  0  0
    3.5312    1.3716    0.0000 H   0  0  0  0  0  0  0  0  0  0  0  0
    3.5312    0.3016    0.0000 H   0  0  0  0  0  0  0  0  0  0  0  0
    4.2127    0.1151    0.0000 H   0  0  0  0  0  0  0  0  0  0  0  0
    4.2127   -1.7419    0.0000 H   0  0  0  0  0  0  0  0  0  0  0  0
    0.9964   -1.7419    0.0000 H   0  0  0  0  0  0  0  0  0  0  0  0
    0.9964    0.1151    0.0000 H   0  0  0  0  0  0  0  0  0  0  0  0
    4.2127   -4.2169    0.0000 H   0  0  0  0  0  0  0  0  0  0  0  0
    2.6046   -5.1454    0.0000 H   0  0  0  0  0  0  0  0  0  0  0  0
    0.9964   -4.2169    0.0000 H   0  0  0  0  0  0  0  0  0  0  0  0
    0.9964   -2.3599    0.0000 H   0  0  0  0  0  0  0  0  0  0  0  0
    4.2127   -2.3599    0.0000 H   0  0  0  0  0  0  0  0  0  0  0  0
  1 20  1  0  0  0  0
  1 21  1  0  0  0  0
  2  1  1  0  0  0  0
  2  3  1  0  0  0  0
  2  5  1  0  0  0  0
  2 19  1  1  0  0  0
  3  4  1  0  0  0  0
  3 18  2  0  0  0  0
  4 22  1  0  0  0  0
  5  6  1  0  0  0  0
  5 23  1  0  0  0  0
  5 24  1  0  0  0  0
  6  7  2  0  0  0  0
  6 11  1  0  0  0  0
  7  8  1  0  0  0  0
  7 25  1  0  0  0  0
  8  9  2  0  0  0  0
  8 26  1  0  0  0  0
  9 10  1  0  0  0  0
  9 16  1  0  0  0  0
 10 11  2  0  0  0  0
 10 27  1  0  0  0  0
 11 28  1  0  0  0  0
 12 13  2  0  0  0  0
 12 17  1  0  0  0  0
 12 29  1  0  0  0  0
 13 14  1  0  0  0  0
 13 30  1  0  0  0  0
 14 15  2  0  0  0  0
 14 31  1  0  0  0  0
 15 16  1  0  0  0  0
 15 32  1  0  0  0  0
 16 17  2  0  0  0  0
 17 33  1  0  0  0  0
M  END
>  <DRUGBANK_ID>
DB04639

>  <COMMON_NAME>
Biphenylalanine

$$$$
