
 OpenBabel10282417072D

 55 57  0  0  0  0  0  0  0  0999 V2000
   -1.4289   -1.6500    0.0000 C   0  0  0  0  0  0  0  0  0  0  0  0
   -3.5724   -2.8875    0.0000 C   0  0  0  0  0  0  0  0  0  0  0  0
   -4.2868   -1.6500    0.0000 C   0  0  0  0  0  0  0  0  0  0  0  0
   -2.8579   -2.4750    0.0000 C   0  0  0  0  0  0  0  0  0  0  0  0
   -3.5724   -1.2375    0.0000 C   0  0  0  0  0  0  0  0  0  0  0  0
   -7.1447   -2.4750    0.0000 C   0  0  0  0  0  0  0  0  0  0  0  0
   -7.8592   -2.8875    0.0000 C   0  0  0  0  0  0  0  0  0  0  0  0
   -1.4289    0.8250    0.0000 C   0  0  0  0  0  0  0  0  0  0  0  0
   -2.1434   -0.4125    0.0000 C   0  0  0  0  0  0  0  0  0  0  0  0
   -4.2868   -2.4750    0.0000 C   0  0  0  0  0  0  0  0  0  0  0  0
   -1.4289    0.0000    0.0000 C   0  0  0  0  0  0  0  0  0  0  0  0
   -2.8579   -1.6500    0.0000 C   0  0  0  0  0  0  0  0  0  0  0  0
   -6.4302   -2.8875    0.0000 C   0  0  1  0  0  0  0  0  0  0  0  0
   -8.5737   -2.4750    0.0000 C   0  0  0  0  0  0  0  0  0  0  0  0
   -0.0000    0.0000    0.0000 C   0  0  0  0  0  0  0  0  0  0  0  0
    0.7145   -0.4125    0.0000 C   0  0  0  0  0  0  0  0  0  0  0  0
   -0.0000    0.8250    0.0000 C   0  0  0  0  0  0  0  0  0  0  0  0
   -5.0013   -2.8875    0.0000 C   0  0  0  0  0  0  0  0  0  0  0  0
   -6.4302   -3.7125    0.0000 C   0  0  0  0  0  0  0  0  0  0  0  0
    1.4289    0.8250    0.0000 C   0  0  0  0  0  0  0  0  0  0  0  0
    0.7145   -1.2375    0.0000 N   0  0  0  0  0  0  0  0  0  0  0  0
    2.1434    1.2375    0.0000 N   0  0  0  0  0  0  0  0  0  0  0  0
   -0.7145    1.2375    0.0000 N   0  0  0  0  0  0  0  0  0  0  0  0
   -0.7145   -0.4125    0.0000 N   0  0  0  0  0  0  0  0  0  0  0  0
   -5.7158   -2.4750    0.0000 N   0  0  0  0  0  0  0  0  0  0  0  0
    1.4289    0.0000    0.0000 N   0  0  0  0  0  0  0  0  0  0  0  0
    0.7145    1.2375    0.0000 N   0  0  0  0  0  0  0  0  0  0  0  0
   -2.1434   -1.2375    0.0000 N   0  0  0  0  0  0  0  0  0  0  0  0
   -9.2881   -2.8875    0.0000 O   0  0  0  0  0  0  0  0  0  0  0  0
   -8.5737   -1.6500    0.0000 O   0  0  0  0  0  0  0  0  0  0  0  0
   -5.0013   -3.7125    0.0000 O   0  0  0  0  0  0  0  0  0  0  0  0
   -5.7158   -4.1250    0.0000 O   0  0  0  0  0  0  0  0  0  0  0  0
   -7.1447   -4.1250    0.0000 O   0  0  0  0  0  0  0  0  0  0  0  0
   -7.1447   -3.3000    0.0000 H   0  0  0  0  0  0  0  0  0  0  0  0
   -1.4289   -2.7200    0.0000 H   0  0  0  0  0  0  0  0  0  0  0  0
   -0.5023   -1.1150    0.0000 H   0  0  0  0  0  0  0  0  0  0  0  0
   -0.5022   -2.1850    0.0000 H   0  0  0  0  0  0  0  0  0  0  0  0
   -3.5724   -3.9195    0.0000 H   0  0  0  0  0  0  0  0  0  0  0  0
   -5.1805   -1.1340    0.0000 H   0  0  0  0  0  0  0  0  0  0  0  0
   -1.9642   -2.9910    0.0000 H   0  0  0  0  0  0  0  0  0  0  0  0
   -3.5724   -0.2055    0.0000 H   0  0  0  0  0  0  0  0  0  0  0  0
   -7.1447   -1.4050    0.0000 H   0  0  0  0  0  0  0  0  0  0  0  0
   -6.2181   -1.9400    0.0000 H   0  0  0  0  0  0  0  0  0  0  0  0
   -7.8592   -3.9575    0.0000 H   0  0  0  0  0  0  0  0  0  0  0  0
   -8.7858   -3.4225    0.0000 H   0  0  0  0  0  0  0  0  0  0  0  0
   -2.3226    1.3410    0.0000 H   0  0  0  0  0  0  0  0  0  0  0  0
   -3.0700    0.1225    0.0000 H   0  0  0  0  0  0  0  0  0  0  0  0
   -3.0700   -0.9475    0.0000 H   0  0  0  0  0  0  0  0  0  0  0  0
   -0.1381   -1.7298    0.0000 H   0  0  0  0  0  0  0  0  0  0  0  0
    1.5671   -1.7298    0.0000 H   0  0  0  0  0  0  0  0  0  0  0  0
    2.9960    0.7452    0.0000 H   0  0  0  0  0  0  0  0  0  0  0  0
   -5.7158   -1.4905    0.0000 H   0  0  0  0  0  0  0  0  0  0  0  0
    2.2815   -0.4922    0.0000 H   0  0  0  0  0  0  0  0  0  0  0  0
   -7.7622   -1.1815    0.0000 H   0  0  0  0  0  0  0  0  0  0  0  0
   -7.9562   -3.6565    0.0000 H   0  0  0  0  0  0  0  0  0  0  0  0
  1 35  1  0  0  0  0
  1 36  1  0  0  0  0
  1 37  1  0  0  0  0
  2 38  1  0  0  0  0
  3 39  1  0  0  0  0
  4  2  1  0  0  0  0
  4 40  1  0  0  0  0
  5  3  2  0  0  0  0
  5 41  1  0  0  0  0
  6 42  1  0  0  0  0
  6 43  1  0  0  0  0
  7  6  1  0  0  0  0
  7 44  1  0  0  0  0
  7 45  1  0  0  0  0
  8 46  1  0  0  0  0
  9 47  1  0  0  0  0
  9 48  1  0  0  0  0
 10  2  2  0  0  0  0
 10  3  1  0  0  0  0
 11  8  1  0  0  0  0
 11  9  1  0  0  0  0
 12  4  2  0  0  0  0
 12  5  1  0  0  0  0
 13  6  1  0  0  0  0
 13 19  1  0  0  0  0
 13 25  1  0  0  0  0
 13 34  1  1  0  0  0
 14  7  1  0  0  0  0
 16 15  2  0  0  0  0
 17 15  1  0  0  0  0
 18 10  1  0  0  0  0
 21 16  1  0  0  0  0
 21 49  1  0  0  0  0
 21 50  1  0  0  0  0
 22 20  2  0  0  0  0
 22 51  1  0  0  0  0
 23  8  2  0  0  0  0
 23 17  1  0  0  0  0
 24 11  2  0  0  0  0
 24 15  1  0  0  0  0
 25 18  1  0  0  0  0
 25 52  1  0  0  0  0
 26 16  1  0  0  0  0
 26 20  1  0  0  0  0
 26 53  1  0  0  0  0
 27 17  2  0  0  0  0
 27 20  1  0  0  0  0
 28  1  1  0  0  0  0
 28  9  1  0  0  0  0
 28 12  1  0  0  0  0
 29 14  2  0  0  0  0
 30 14  1  0  0  0  0
 30 54  1  0  0  0  0
 31 18  2  0  0  0  0
 32 19  2  0  0  0  0
 33 19  1  0  0  0  0
 33 55  1  0  0  0  0
M  END
>  <DRUGBANK_ID>
DB00563

>  <SECONDARY_ACCESSION_NUMBERS>
APRD00353

>  <COMMON_NAME>
Methotrexate

>  <CAS_NUMBER>
59-05-2

>  <UNII>
YL5FZ2Y5U1

>  <SYNONYMS>
4-amino-10-methylfolic acid; 4-amino-N(10)-methylpteroylglutamic acid; Amethopterin; Methotrexat; MÃ©thotrexate; Methotrexate; Methotrexatum; Metotrexato; MTX; N-[4-[[(2,4-diamino-6-pteridinyl)methyl]methylamino]benzoyl]-L-glutamic acid

$$$$
