
 OpenBabel10282417072D

 63 66  0  0  0  0  0  0  0  0999 V2000
   -4.1699    1.7727    0.0000 C   0  0  0  0  0  0  0  0  0  0  0  0
   -3.4554    1.3602    0.0000 C   0  0  0  0  0  0  0  0  0  0  0  0
   -2.7410    1.7727    0.0000 C   0  0  0  0  0  0  0  0  0  0  0  0
   -2.0265    1.3602    0.0000 C   0  0  0  0  0  0  0  0  0  0  0  0
   -1.3120    1.7727    0.0000 C   0  0  0  0  0  0  0  0  0  0  0  0
   -0.5975    1.3602    0.0000 N   0  0  0  0  0  0  0  0  0  0  0  0
   -0.5975    0.5352    0.0000 C   0  0  0  0  0  0  0  0  0  0  0  0
    0.1168    0.1227    0.0000 N   0  0  0  0  0  0  0  0  0  0  0  0
    0.8313    0.5352    0.0000 C   0  0  0  0  0  0  0  0  0  0  0  0
    0.8313    1.3602    0.0000 C   0  0  0  0  0  0  0  0  0  0  0  0
    1.5458    1.7727    0.0000 C   0  0  0  0  0  0  0  0  0  0  0  0
    2.2602    1.3602    0.0000 C   0  0  0  0  0  0  0  0  0  0  0  0
    2.9747    1.7727    0.0000 C   0  0  0  0  0  0  0  0  0  0  0  0
    3.0610    2.5932    0.0000 N   0  0  0  0  0  0  0  0  0  0  0  0
    3.8679    2.7647    0.0000 N   0  0  0  0  0  0  0  0  0  0  0  0
    4.2804    2.0502    0.0000 C   0  0  0  0  0  0  0  0  0  0  0  0
    3.7284    1.4371    0.0000 N   0  0  0  0  0  0  0  0  0  0  0  0
    3.8999    0.6302    0.0000 C   0  0  0  0  0  0  0  0  0  0  0  0
    2.2602    0.5352    0.0000 C   0  0  0  0  0  0  0  0  0  0  0  0
    1.5458    0.1227    0.0000 C   0  0  0  0  0  0  0  0  0  0  0  0
    1.5458   -0.7022    0.0000 O   0  0  0  0  0  0  0  0  0  0  0  0
    2.2602   -1.1147    0.0000 C   0  0  0  0  0  0  0  0  0  0  0  0
    2.2602   -1.9397    0.0000 C   0  0  0  0  0  0  0  0  0  0  0  0
   -1.3120    0.1227    0.0000 N   0  0  0  0  0  0  0  0  0  0  0  0
   -2.0265    0.5352    0.0000 C   0  0  0  0  0  0  0  0  0  0  0  0
   -2.7410    0.1227    0.0000 C   0  0  0  0  0  0  0  0  0  0  0  0
   -2.7410   -0.7022    0.0000 N   0  0  0  0  0  0  0  0  0  0  0  0
   -3.4554   -1.1147    0.0000 C   0  0  0  0  0  0  0  0  0  0  0  0
   -3.4554   -1.9397    0.0000 C   0  0  0  0  0  0  0  0  0  0  0  0
   -3.4554   -2.7647    0.0000 C   0  0  0  0  0  0  0  0  0  0  0  0
   -4.2804   -1.9397    0.0000 C   0  0  0  0  0  0  0  0  0  0  0  0
   -2.6304   -1.9397    0.0000 C   0  0  0  0  0  0  0  0  0  0  0  0
   -3.4554    0.5352    0.0000 N   0  0  0  0  0  0  0  0  0  0  0  0
   -4.1699    2.8427    0.0000 H   0  0  0  0  0  0  0  0  0  0  0  0
   -5.0965    1.2377    0.0000 H   0  0  0  0  0  0  0  0  0  0  0  0
   -5.0966    2.3077    0.0000 H   0  0  0  0  0  0  0  0  0  0  0  0
   -2.7410    2.8047    0.0000 H   0  0  0  0  0  0  0  0  0  0  0  0
   -1.3120    2.8047    0.0000 H   0  0  0  0  0  0  0  0  0  0  0  0
    0.1167   -0.8618    0.0000 H   0  0  0  0  0  0  0  0  0  0  0  0
   -0.0624    1.8762    0.0000 H   0  0  0  0  0  0  0  0  0  0  0  0
    1.5458    2.8047    0.0000 H   0  0  0  0  0  0  0  0  0  0  0  0
    5.3067    1.9423    0.0000 H   0  0  0  0  0  0  0  0  0  0  0  0
    3.1047   -0.0858    0.0000 H   0  0  0  0  0  0  0  0  0  0  0  0
    4.9175    0.2995    0.0000 H   0  0  0  0  0  0  0  0  0  0  0  0
    4.1224   -0.4164    0.0000 H   0  0  0  0  0  0  0  0  0  0  0  0
    3.1539    0.0192    0.0000 H   0  0  0  0  0  0  0  0  0  0  0  0
    3.1869   -0.5797    0.0000 H   0  0  0  0  0  0  0  0  0  0  0  0
    3.1868   -1.6497    0.0000 H   0  0  0  0  0  0  0  0  0  0  0  0
    1.3336   -2.4747    0.0000 H   0  0  0  0  0  0  0  0  0  0  0  0
    3.1868   -2.4747    0.0000 H   0  0  0  0  0  0  0  0  0  0  0  0
    2.2602   -3.0097    0.0000 H   0  0  0  0  0  0  0  0  0  0  0  0
   -1.8884   -1.1944    0.0000 H   0  0  0  0  0  0  0  0  0  0  0  0
   -4.3821   -0.5797    0.0000 H   0  0  0  0  0  0  0  0  0  0  0  0
   -4.3820   -1.6497    0.0000 H   0  0  0  0  0  0  0  0  0  0  0  0
   -4.3820   -3.2997    0.0000 H   0  0  0  0  0  0  0  0  0  0  0  0
   -2.5288   -3.2997    0.0000 H   0  0  0  0  0  0  0  0  0  0  0  0
   -3.4554   -3.8347    0.0000 H   0  0  0  0  0  0  0  0  0  0  0  0
   -4.8154   -1.0131    0.0000 H   0  0  0  0  0  0  0  0  0  0  0  0
   -4.8154   -2.8663    0.0000 H   0  0  0  0  0  0  0  0  0  0  0  0
   -5.3504   -1.9397    0.0000 H   0  0  0  0  0  0  0  0  0  0  0  0
   -2.0954   -2.8663    0.0000 H   0  0  0  0  0  0  0  0  0  0  0  0
   -2.0954   -1.0131    0.0000 H   0  0  0  0  0  0  0  0  0  0  0  0
   -1.5604   -1.9397    0.0000 H   0  0  0  0  0  0  0  0  0  0  0  0
  1  2  1  0  0  0  0
  1 34  1  0  0  0  0
  1 35  1  0  0  0  0
  1 36  1  0  0  0  0
  2  3  2  0  0  0  0
  2 33  1  0  0  0  0
  3  4  1  0  0  0  0
  3 37  1  0  0  0  0
  4  5  2  0  0  0  0
  4 25  1  0  0  0  0
  5  6  1  0  0  0  0
  5 38  1  0  0  0  0
  6  7  2  0  0  0  0
  7  8  1  0  0  0  0
  7 24  1  0  0  0  0
  8  9  1  0  0  0  0
  8 39  1  0  0  0  0
  9 10  2  0  0  0  0
  9 20  1  0  0  0  0
 10 11  1  0  0  0  0
 10 40  1  0  0  0  0
 11 12  2  0  0  0  0
 11 41  1  0  0  0  0
 12 13  1  0  0  0  0
 12 19  1  0  0  0  0
 13 14  2  0  0  0  0
 13 17  1  0  0  0  0
 14 15  1  0  0  0  0
 15 16  2  0  0  0  0
 16 17  1  0  0  0  0
 16 42  1  0  0  0  0
 17 18  1  0  0  0  0
 18 43  1  0  0  0  0
 18 44  1  0  0  0  0
 18 45  1  0  0  0  0
 19 20  2  0  0  0  0
 19 46  1  0  0  0  0
 20 21  1  0  0  0  0
 21 22  1  0  0  0  0
 22 23  1  0  0  0  0
 22 47  1  0  0  0  0
 22 48  1  0  0  0  0
 23 49  1  0  0  0  0
 23 50  1  0  0  0  0
 23 51  1  0  0  0  0
 24 25  2  0  0  0  0
 25 26  1  0  0  0  0
 26 27  1  0  0  0  0
 26 33  2  0  0  0  0
 27 28  1  0  0  0  0
 27 52  1  0  0  0  0
 28 29  1  0  0  0  0
 28 53  1  0  0  0  0
 28 54  1  0  0  0  0
 29 30  1  0  0  0  0
 29 31  1  0  0  0  0
 29 32  1  0  0  0  0
 30 55  1  0  0  0  0
 30 56  1  0  0  0  0
 30 57  1  0  0  0  0
 31 58  1  0  0  0  0
 31 59  1  0  0  0  0
 31 60  1  0  0  0  0
 32 61  1  0  0  0  0
 32 62  1  0  0  0  0
 32 63  1  0  0  0  0
M  END
>  <DRUGBANK_ID>
DB15498

>  <COMMON_NAME>
BOS172722

>  <CAS_NUMBER>
1578245-44-9

$$$$
