
 OpenBabel10282417072D

 55 58  0  0  0  0  0  0  0  0999 V2000
   15.8813  -20.1712    0.0000 C   0  0  0  0  0  0  0  0  0  0  0  0
   15.8813  -20.9962    0.0000 C   0  0  0  0  0  0  0  0  0  0  0  0
   16.5957  -21.4087    0.0000 C   0  0  0  0  0  0  0  0  0  0  0  0
   17.3102  -20.9962    0.0000 C   0  0  0  0  0  0  0  0  0  0  0  0
   17.3102  -20.1712    0.0000 C   0  0  0  0  0  0  0  0  0  0  0  0
   16.5957  -19.7587    0.0000 C   0  0  0  0  0  0  0  0  0  0  0  0
   16.5957  -18.9339    0.0000 F   0  0  0  0  0  0  0  0  0  0  0  0
   15.1668  -21.4087    0.0000 F   0  0  0  0  0  0  0  0  0  0  0  0
   15.1668  -19.7587    0.0000 S   0  0  0  0  0  0  0  0  0  0  0  0
   14.4623  -20.1656    0.0000 N   0  0  0  0  0  0  0  0  0  0  0  0
   13.7626  -19.7616    0.0000 C   0  0  0  0  0  0  0  0  0  0  0  0
   13.7625  -18.9339    0.0000 C   0  0  0  0  0  0  0  0  0  0  0  0
   13.0480  -18.5214    0.0000 C   0  0  0  0  0  0  0  0  0  0  0  0
   12.3336  -18.9340    0.0000 C   0  0  0  0  0  0  0  0  0  0  0  0
   12.3336  -19.7618    0.0000 C   0  0  0  0  0  0  0  0  0  0  0  0
   13.0481  -20.1742    0.0000 C   0  0  0  0  0  0  0  0  0  0  0  0
   13.0482  -20.9961    0.0000 F   0  0  0  0  0  0  0  0  0  0  0  0
   11.6206  -20.1735    0.0000 C   0  0  0  0  0  0  0  0  0  0  0  0
   10.9556  -19.6996    0.0000 N   0  0  0  0  0  0  0  0  0  0  0  0
   10.3017  -20.1862    0.0000 C   0  0  0  0  0  0  0  0  0  0  0  0
   10.5624  -20.9584    0.0000 S   0  0  0  0  0  0  0  0  0  0  0  0
   11.3774  -20.9491    0.0000 C   0  0  0  0  0  0  0  0  0  0  0  0
   11.8751  -21.6187    0.0000 C   0  0  0  0  0  0  0  0  0  0  0  0
   11.4507  -22.3195    0.0000 C   0  0  0  0  0  0  0  0  0  0  0  0
   11.8489  -23.0421    0.0000 C   0  0  0  0  0  0  0  0  0  0  0  0
   12.6737  -23.0585    0.0000 N   0  0  0  0  0  0  0  0  0  0  0  0
   13.0976  -22.3570    0.0000 C   0  0  0  0  0  0  0  0  0  0  0  0
   12.6995  -21.6344    0.0000 N   0  0  0  0  0  0  0  0  0  0  0  0
    9.5200  -19.9420    0.0000 C   0  0  0  0  0  0  0  0  0  0  0  0
    8.9269  -20.4880    0.0000 C   0  0  0  0  0  0  0  0  0  0  0  0
    9.3358  -19.1216    0.0000 C   0  0  0  0  0  0  0  0  0  0  0  0
    8.7231  -19.7284    0.0000 C   0  0  0  0  0  0  0  0  0  0  0  0
   13.9423  -22.3738    0.0000 N   0  0  0  0  0  0  0  0  0  0  0  0
   14.5835  -19.1754    0.0000 O   0  0  0  0  0  0  0  0  0  0  0  0
   15.7501  -19.1754    0.0000 O   0  0  0  0  0  0  0  0  0  0  0  0
   16.5957  -22.4407    0.0000 H   0  0  0  0  0  0  0  0  0  0  0  0
   18.2039  -21.5122    0.0000 H   0  0  0  0  0  0  0  0  0  0  0  0
   18.2039  -19.6552    0.0000 H   0  0  0  0  0  0  0  0  0  0  0  0
   14.4624  -21.1501    0.0000 H   0  0  0  0  0  0  0  0  0  0  0  0
   14.6562  -18.4178    0.0000 H   0  0  0  0  0  0  0  0  0  0  0  0
   13.0479  -17.4894    0.0000 H   0  0  0  0  0  0  0  0  0  0  0  0
   11.4398  -18.4181    0.0000 H   0  0  0  0  0  0  0  0  0  0  0  0
   10.4189  -22.2984    0.0000 H   0  0  0  0  0  0  0  0  0  0  0  0
   11.3152  -23.9254    0.0000 H   0  0  0  0  0  0  0  0  0  0  0  0
    7.9057  -20.1686    0.0000 H   0  0  0  0  0  0  0  0  0  0  0  0
    9.1609  -21.5321    0.0000 H   0  0  0  0  0  0  0  0  0  0  0  0
    8.1397  -21.2127    0.0000 H   0  0  0  0  0  0  0  0  0  0  0  0
   10.1227  -18.3966    0.0000 H   0  0  0  0  0  0  0  0  0  0  0  0
    8.3145  -18.8026    0.0000 H   0  0  0  0  0  0  0  0  0  0  0  0
    9.1014  -18.0776    0.0000 H   0  0  0  0  0  0  0  0  0  0  0  0
    8.4462  -18.6948    0.0000 H   0  0  0  0  0  0  0  0  0  0  0  0
    7.9664  -20.4849    0.0000 H   0  0  0  0  0  0  0  0  0  0  0  0
    7.6896  -19.4514    0.0000 H   0  0  0  0  0  0  0  0  0  0  0  0
   14.4175  -23.2360    0.0000 H   0  0  0  0  0  0  0  0  0  0  0  0
   14.4514  -21.5312    0.0000 H   0  0  0  0  0  0  0  0  0  0  0  0
  1  2  2  0  0  0  0
  1  6  1  0  0  0  0
  1  9  1  0  0  0  0
  2  3  1  0  0  0  0
  2  8  1  0  0  0  0
  3  4  2  0  0  0  0
  3 36  1  0  0  0  0
  4  5  1  0  0  0  0
  4 37  1  0  0  0  0
  5  6  2  0  0  0  0
  5 38  1  0  0  0  0
  6  7  1  0  0  0  0
  9 10  1  0  0  0  0
  9 34  2  0  0  0  0
  9 35  2  0  0  0  0
 10 11  1  0  0  0  0
 10 39  1  0  0  0  0
 11 12  2  0  0  0  0
 11 16  1  0  0  0  0
 12 13  1  0  0  0  0
 12 40  1  0  0  0  0
 13 14  2  0  0  0  0
 13 41  1  0  0  0  0
 14 15  1  0  0  0  0
 14 42  1  0  0  0  0
 15 16  2  0  0  0  0
 15 18  1  0  0  0  0
 16 17  1  0  0  0  0
 18 19  1  0  0  0  0
 18 22  2  0  0  0  0
 19 20  2  0  0  0  0
 20 21  1  0  0  0  0
 20 29  1  0  0  0  0
 21 22  1  0  0  0  0
 22 23  1  0  0  0  0
 23 24  1  0  0  0  0
 23 28  2  0  0  0  0
 24 25  2  0  0  0  0
 24 43  1  0  0  0  0
 25 26  1  0  0  0  0
 25 44  1  0  0  0  0
 26 27  2  0  0  0  0
 27 28  1  0  0  0  0
 27 33  1  0  0  0  0
 29 30  1  0  0  0  0
 29 31  1  0  0  0  0
 29 32  1  0  0  0  0
 30 45  1  0  0  0  0
 30 46  1  0  0  0  0
 30 47  1  0  0  0  0
 31 48  1  0  0  0  0
 31 49  1  0  0  0  0
 31 50  1  0  0  0  0
 32 51  1  0  0  0  0
 32 52  1  0  0  0  0
 32 53  1  0  0  0  0
 33 54  1  0  0  0  0
 33 55  1  0  0  0  0
M  END
>  <DRUGBANK_ID>
DB08912

>  <COMMON_NAME>
Dabrafenib

>  <CAS_NUMBER>
1195765-45-7

>  <UNII>
QGP4HA4G1B

>  <SYNONYMS>
Dabrafenib

$$$$
