
 OpenBabel10282417072D

 47 50  0  0  0  0  0  0  0  0999 V2000
   -2.6976    0.2309    0.0000 C   0  0  0  0  0  0  0  0  0  0  0  0
   -3.4070   -0.1814    0.0000 C   0  0  0  0  0  0  0  0  0  0  0  0
   -3.4070   -1.0064    0.0000 C   0  0  0  0  0  0  0  0  0  0  0  0
   -2.6976   -1.4189    0.0000 C   0  0  0  0  0  0  0  0  0  0  0  0
   -2.0129   -1.0064    0.0000 C   0  0  0  0  0  0  0  0  0  0  0  0
   -2.0129   -0.1814    0.0000 C   0  0  0  0  0  0  0  0  0  0  0  0
   -1.2951    0.2309    0.0000 C   0  0  0  0  0  0  0  0  0  0  0  0
   -1.2951   -1.4189    0.0000 C   0  0  0  0  0  0  0  0  0  0  0  0
   -0.5774   -1.0064    0.0000 N   0  0  0  0  0  0  0  0  0  0  0  0
   -0.5774   -0.1814    0.0000 C   0  0  0  0  0  0  0  0  0  0  0  0
    0.1320    0.2309    0.0000 O   0  0  0  0  0  0  0  0  0  0  0  0
   -1.2951   -2.2438    0.0000 O   0  0  0  0  0  0  0  0  0  0  0  0
   -4.1248    0.2309    0.0000 Br  0  0  0  0  0  0  0  0  0  0  0  0
   -1.2951    1.0559    0.0000 C   0  0  0  0  0  0  0  0  0  0  0  0
   -0.5774    1.4684    0.0000 N   0  0  0  0  0  0  0  0  0  0  0  0
    0.2475    1.4684    0.0000 C   0  0  0  0  0  0  0  0  0  0  0  0
    0.6270    2.2027    0.0000 C   0  0  0  0  0  0  0  0  0  0  0  0
    0.6929    0.7754    0.0000 C   0  0  0  0  0  0  0  0  0  0  0  0
    1.5179    0.8166    0.0000 C   0  0  0  0  0  0  0  0  0  0  0  0
    1.8974    1.5508    0.0000 C   0  0  0  0  0  0  0  0  0  0  0  0
    1.4520    2.2438    0.0000 C   0  0  0  0  0  0  0  0  0  0  0  0
    2.7224    1.5508    0.0000 C   0  0  0  0  0  0  0  0  0  0  0  0
    3.1349    0.8332    0.0000 N   0  0  0  0  0  0  0  0  0  0  0  0
    3.9515    0.7506    0.0000 C   0  0  0  0  0  0  0  0  0  0  0  0
    2.7966    0.0825    0.0000 C   0  0  0  0  0  0  0  0  0  0  0  0
    3.4070   -0.4702    0.0000 C   0  0  0  0  0  0  0  0  0  0  0  0
    4.1248   -0.0577    0.0000 C   0  0  0  0  0  0  0  0  0  0  0  0
   -2.6896    1.2629    0.0000 H   0  0  0  0  0  0  0  0  0  0  0  0
   -4.3015   -1.5210    0.0000 H   0  0  0  0  0  0  0  0  0  0  0  0
   -2.6896   -2.4509    0.0000 H   0  0  0  0  0  0  0  0  0  0  0  0
    0.2747   -1.4995    0.0000 H   0  0  0  0  0  0  0  0  0  0  0  0
   -2.1883    1.5728    0.0000 H   0  0  0  0  0  0  0  0  0  0  0  0
   -0.8313    2.4196    0.0000 H   0  0  0  0  0  0  0  0  0  0  0  0
    0.0686    3.0705    0.0000 H   0  0  0  0  0  0  0  0  0  0  0  0
    0.2211   -0.1424    0.0000 H   0  0  0  0  0  0  0  0  0  0  0  0
    2.0764   -0.0512    0.0000 H   0  0  0  0  0  0  0  0  0  0  0  0
    1.9239    3.1616    0.0000 H   0  0  0  0  0  0  0  0  0  0  0  0
    3.2583    2.4769    0.0000 H   0  0  0  0  0  0  0  0  0  0  0  0
    3.7924    1.5493    0.0000 H   0  0  0  0  0  0  0  0  0  0  0  0
    4.6652    1.5478    0.0000 H   0  0  0  0  0  0  0  0  0  0  0  0
    4.9857    0.4760    0.0000 H   0  0  0  0  0  0  0  0  0  0  0  0
    1.7492   -0.1361    0.0000 H   0  0  0  0  0  0  0  0  0  0  0  0
    2.5163   -0.9501    0.0000 H   0  0  0  0  0  0  0  0  0  0  0  0
    3.2926   -1.5341    0.0000 H   0  0  0  0  0  0  0  0  0  0  0  0
    4.3031   -1.0549    0.0000 H   0  0  0  0  0  0  0  0  0  0  0  0
    5.1022   -0.4930    0.0000 H   0  0  0  0  0  0  0  0  0  0  0  0
    4.1797   -1.1263    0.0000 H   0  0  0  0  0  0  0  0  0  0  0  0
  1  2  1  0  0  0  0
  1  6  2  0  0  0  0
  1 28  1  0  0  0  0
  2  3  2  0  0  0  0
  2 13  1  0  0  0  0
  3  4  1  0  0  0  0
  3 29  1  0  0  0  0
  4  5  2  0  0  0  0
  4 30  1  0  0  0  0
  5  6  1  0  0  0  0
  5  8  1  0  0  0  0
  6  7  1  0  0  0  0
  7 10  1  0  0  0  0
  7 14  2  0  0  0  0
  8  9  1  0  0  0  0
  8 12  2  0  0  0  0
  9 10  1  0  0  0  0
  9 31  1  0  0  0  0
 10 11  2  0  0  0  0
 14 15  1  0  0  0  0
 14 32  1  0  0  0  0
 15 16  1  0  0  0  0
 15 33  1  0  0  0  0
 16 17  1  0  0  0  0
 16 18  2  0  0  0  0
 17 21  2  0  0  0  0
 17 34  1  0  0  0  0
 18 19  1  0  0  0  0
 18 35  1  0  0  0  0
 19 20  2  0  0  0  0
 19 36  1  0  0  0  0
 20 21  1  0  0  0  0
 20 22  1  0  0  0  0
 21 37  1  0  0  0  0
 22 23  1  0  0  0  0
 22 38  1  0  0  0  0
 22 39  1  0  0  0  0
 23 24  1  0  0  0  0
 23 25  1  0  0  0  0
 24 27  1  0  0  0  0
 24 40  1  0  0  0  0
 24 41  1  0  0  0  0
 25 26  1  0  0  0  0
 25 42  1  0  0  0  0
 25 43  1  0  0  0  0
 26 27  1  0  0  0  0
 26 44  1  0  0  0  0
 26 45  1  0  0  0  0
 27 46  1  0  0  0  0
 27 47  1  0  0  0  0
M  END
>  <DRUGBANK_ID>
DB07156

>  <COMMON_NAME>
(4Z)-6-bromo-4-({[4-(pyrrolidin-1-ylmethyl)phenyl]amino}methylidene)isoquinoline-1,3(2H,4H)-dione

$$$$
