
 OpenBabel10282417072D

 73 77  0  0  1  0  0  0  0  0999 V2000
   -4.9320   -1.1552    0.0000 C   0  0  0  0  0  0  0  0  0  0  0  0
   -4.1375   -0.9327    0.0000 C   0  0  0  0  0  0  0  0  0  0  0  0
   -3.9330   -0.1335    0.0000 C   0  0  0  0  0  0  0  0  0  0  0  0
   -4.4593    0.5018    0.0000 N   0  0  0  0  0  0  0  0  0  0  0  0
   -4.0178    1.1987    0.0000 O   0  0  0  0  0  0  0  0  0  0  0  0
   -3.2185    0.9941    0.0000 C   0  0  0  0  0  0  0  0  0  0  0  0
   -2.5833    1.5205    0.0000 C   0  0  0  0  0  0  0  0  0  0  0  0
   -1.8098    1.2335    0.0000 C   0  0  0  0  0  0  0  0  0  0  0  0
   -3.1661    0.1708    0.0000 C   0  0  0  0  0  0  0  0  0  0  0  0
   -2.4692   -0.2707    0.0000 C   0  0  0  0  0  0  0  0  0  0  0  0
   -2.5032   -1.0951    0.0000 O   0  0  0  0  0  0  0  0  0  0  0  0
   -1.7384    0.1120    0.0000 O   0  0  0  0  0  0  0  0  0  0  0  0
   -1.0415   -0.3295    0.0000 C   0  0  1  0  0  0  0  0  0  0  0  0
   -1.0008   -1.1576    0.0000 C   0  0  0  0  0  0  0  0  0  0  0  0
   -1.6332   -1.6874    0.0000 C   0  0  0  0  0  0  0  0  0  0  0  0
   -0.1929   -1.3426    0.0000 C   0  0  0  0  0  0  0  0  0  0  0  0
    0.3261   -0.6574    0.0000 C   0  0  1  0  0  0  0  0  0  0  0  0
    0.7898   -1.4107    0.0000 C   0  0  2  0  0  0  0  0  0  0  0  0
    0.2915   -2.0682    0.0000 C   0  0  0  0  0  0  0  0  0  0  0  0
    1.6097   -1.6445    0.0000 C   0  0  0  0  0  0  0  0  0  0  0  0
    2.2721   -1.1201    0.0000 C   0  0  2  0  0  0  0  0  0  0  0  0
    2.2431   -0.2956    0.0000 C   0  0  2  0  0  0  0  0  0  0  0  0
    1.5837    0.2513    0.0000 C   0  0  2  0  0  0  0  0  0  0  0  0
    1.2746    1.0377    0.0000 C   0  0  0  0  0  0  0  0  0  0  0  0
    0.4853    1.3255    0.0000 C   0  0  0  0  0  0  0  0  0  0  0  0
    0.3879    2.1447    0.0000 C   0  0  0  0  0  0  0  0  0  0  0  0
   -0.3702    2.4700    0.0000 O   0  0  0  0  0  0  0  0  0  0  0  0
   -0.2167    0.8594    0.0000 C   0  0  1  0  0  0  0  0  0  0  0  0
   -0.9315    1.2713    0.0000 O   0  0  0  0  0  0  0  0  0  0  0  0
   -0.2695   -0.0102    0.0000 C   0  0  2  0  0  0  0  0  0  0  0  0
   -0.9411    0.4689    0.0000 O   0  0  0  0  0  0  0  0  0  0  0  0
    0.9424   -0.2150    0.0000 C   0  0  0  0  0  0  0  0  0  0  0  0
    1.4256   -0.8837    0.0000 O   0  0  0  0  0  0  0  0  0  0  0  0
    2.9716   -0.6827    0.0000 C   0  0  0  0  0  0  0  0  0  0  0  0
    3.6304   -0.1861    0.0000 C   0  0  0  0  0  0  0  0  0  0  0  0
    3.6636   -1.1319    0.0000 C   0  0  0  0  0  0  0  0  0  0  0  0
   -5.6971   -0.4072    0.0000 H   0  0  0  0  0  0  0  0  0  0  0  0
   -5.1973   -2.1918    0.0000 H   0  0  0  0  0  0  0  0  0  0  0  0
   -5.9624   -1.4438    0.0000 H   0  0  0  0  0  0  0  0  0  0  0  0
   -3.3724   -1.6807    0.0000 H   0  0  0  0  0  0  0  0  0  0  0  0
   -3.1072   -0.6441    0.0000 H   0  0  0  0  0  0  0  0  0  0  0  0
   -2.7626    2.5754    0.0000 H   0  0  0  0  0  0  0  0  0  0  0  0
   -1.7594    2.2032    0.0000 H   0  0  0  0  0  0  0  0  0  0  0  0
   -1.6306    0.1786    0.0000 H   0  0  0  0  0  0  0  0  0  0  0  0
   -0.9859    1.9162    0.0000 H   0  0  0  0  0  0  0  0  0  0  0  0
   -0.8066    0.8613    0.0000 H   0  0  0  0  0  0  0  0  0  0  0  0
   -1.9660   -0.8682    0.0000 H   0  0  0  0  0  0  0  0  0  0  0  0
   -2.6384   -1.3206    0.0000 H   0  0  0  0  0  0  0  0  0  0  0  0
   -1.4482   -2.7413    0.0000 H   0  0  0  0  0  0  0  0  0  0  0  0
   -2.4534   -2.3745    0.0000 H   0  0  0  0  0  0  0  0  0  0  0  0
    0.1597   -2.3125    0.0000 H   0  0  0  0  0  0  0  0  0  0  0  0
   -0.2789   -1.3590    0.0000 H   0  0  0  0  0  0  0  0  0  0  0  0
   -0.7702   -1.9349    0.0000 H   0  0  0  0  0  0  0  0  0  0  0  0
    0.7069   -3.0543    0.0000 H   0  0  0  0  0  0  0  0  0  0  0  0
   -0.3548   -2.9210    0.0000 H   0  0  0  0  0  0  0  0  0  0  0  0
    1.8180   -2.6940    0.0000 H   0  0  0  0  0  0  0  0  0  0  0  0
    2.6139   -2.0140    0.0000 H   0  0  0  0  0  0  0  0  0  0  0  0
    2.7742   -0.1752    0.0000 H   0  0  0  0  0  0  0  0  0  0  0  0
    1.2828   -0.7675    0.0000 H   0  0  0  0  0  0  0  0  0  0  0  0
    1.5496   -0.8182    0.0000 H   0  0  0  0  0  0  0  0  0  0  0  0
    1.9952    1.7764    0.0000 H   0  0  0  0  0  0  0  0  0  0  0  0
    1.2449    2.7853    0.0000 H   0  0  0  0  0  0  0  0  0  0  0  0
    0.2616    3.2072    0.0000 H   0  0  0  0  0  0  0  0  0  0  0  0
   -0.4846    3.4332    0.0000 H   0  0  0  0  0  0  0  0  0  0  0  0
   -0.2506    1.9289    0.0000 H   0  0  0  0  0  0  0  0  0  0  0  0
   -0.9323    2.2413    0.0000 H   0  0  0  0  0  0  0  0  0  0  0  0
   -0.8481    1.4344    0.0000 H   0  0  0  0  0  0  0  0  0  0  0  0
    4.6154   -0.6040    0.0000 H   0  0  0  0  0  0  0  0  0  0  0  0
    3.4998    0.8759    0.0000 H   0  0  0  0  0  0  0  0  0  0  0  0
    4.4848    0.4580    0.0000 H   0  0  0  0  0  0  0  0  0  0  0  0
    3.6078   -2.2004    0.0000 H   0  0  0  0  0  0  0  0  0  0  0  0
    4.6169   -0.6459    0.0000 H   0  0  0  0  0  0  0  0  0  0  0  0
    4.5611   -1.7145    0.0000 H   0  0  0  0  0  0  0  0  0  0  0  0
  1  2  1  0  0  0  0
  1 37  1  0  0  0  0
  1 38  1  0  0  0  0
  1 39  1  0  0  0  0
  2  3  1  0  0  0  0
  2 40  1  0  0  0  0
  2 41  1  0  0  0  0
  3  4  2  0  0  0  0
  3  9  1  0  0  0  0
  4  5  1  0  0  0  0
  5  6  1  0  0  0  0
  6  7  1  0  0  0  0
  6  9  2  0  0  0  0
  7  8  1  0  0  0  0
  7 42  1  0  0  0  0
  7 43  1  0  0  0  0
  8 44  1  0  0  0  0
  8 45  1  0  0  0  0
  8 46  1  0  0  0  0
  9 10  1  0  0  0  0
 10 11  2  0  0  0  0
 10 12  1  0  0  0  0
 13 12  1  0  0  0  0
 13 14  1  0  0  0  0
 13 47  1  1  0  0  0
 14 15  1  0  0  0  0
 14 16  2  0  0  0  0
 15 48  1  0  0  0  0
 15 49  1  0  0  0  0
 15 50  1  0  0  0  0
 16 51  1  0  0  0  0
 17 16  1  1  0  0  0
 17 18  1  0  0  0  0
 17 32  1  0  0  0  0
 18 19  1  0  0  0  0
 18 20  1  0  0  0  0
 18 52  1  6  0  0  0
 19 53  1  0  0  0  0
 19 54  1  0  0  0  0
 19 55  1  0  0  0  0
 20 56  1  0  0  0  0
 20 57  1  0  0  0  0
 21 20  1  0  0  0  0
 21 34  1  0  0  0  0
 21 58  1  1  0  0  0
 22 21  1  0  0  0  0
 22 23  1  0  0  0  0
 22 34  1  0  0  0  0
 22 59  1  1  0  0  0
 23 24  1  0  0  0  0
 23 32  1  0  0  0  0
 23 60  1  6  0  0  0
 24 25  2  0  0  0  0
 24 61  1  0  0  0  0
 25 26  1  0  0  0  0
 26 27  1  0  0  0  0
 26 62  1  0  0  0  0
 26 63  1  0  0  0  0
 27 64  1  0  0  0  0
 28 25  1  0  0  0  0
 28 29  1  0  0  0  0
 28 65  1  1  0  0  0
 29 66  1  0  0  0  0
 30 28  1  0  0  0  0
 30 13  1  0  0  0  0
 30 17  1  0  0  0  0
 30 31  1  6  0  0  0
 31 67  1  0  0  0  0
 32 33  2  0  0  0  0
 34 35  1  0  0  0  0
 34 36  1  0  0  0  0
 35 68  1  0  0  0  0
 35 69  1  0  0  0  0
 35 70  1  0  0  0  0
 36 71  1  0  0  0  0
 36 72  1  0  0  0  0
 36 73  1  0  0  0  0
M  END
>  <DRUGBANK_ID>
DB15109

>  <COMMON_NAME>
Ingenol disoxate

>  <CAS_NUMBER>
1383547-60-1

>  <UNII>
3B100VJ4ZW

>  <SYNONYMS>
Ingenol disoxate

$$$$
