TPY
 OpenBabel10282417072D

 39 39  0  0  0  0  0  0  0  0999 V2000
    2.3660    0.7625    0.0000 C   0  0  0  0  0  0  0  0  0  0  0  0
    2.3660   -0.0625    0.0000 C   0  0  2  0  0  0  0  0  0  0  0  0
    1.6515   -0.4750    0.0000 C   0  0  2  0  0  0  0  0  0  0  0  0
    1.6515   -1.3000    0.0000 C   0  0  0  0  0  0  0  0  0  0  0  0
    3.0804   -0.4750    0.0000 C   0  0  0  0  0  0  0  0  0  0  0  0
    3.7949   -0.0625    0.0000 C   0  0  0  0  0  0  0  0  0  0  0  0
    3.0804    1.1750    0.0000 O   0  0  0  0  0  0  0  0  0  0  0  0
    0.9370   -1.7125    0.0000 O   0  0  0  0  0  0  0  0  0  0  0  0
    2.3660   -1.7125    0.0000 O   0  0  0  0  0  0  0  0  0  0  0  0
   -0.0794    0.6520    0.0000 O   0  0  0  0  0  0  0  0  0  0  0  0
   -0.9044   -0.7770    0.0000 O   0  0  0  0  0  0  0  0  0  0  0  0
   -0.4919   -0.0625    0.0000 S   0  0  0  0  0  0  0  0  0  0  0  0
    0.2225   -0.4750    0.0000 N   0  0  0  0  0  0  0  0  0  0  0  0
    0.9370   -0.0625    0.0000 C   0  0  0  0  0  0  0  0  0  0  0  0
   -1.2064    0.3500    0.0000 C   0  0  0  0  0  0  0  0  0  0  0  0
   -1.9209   -0.0625    0.0000 C   0  0  0  0  0  0  0  0  0  0  0  0
   -1.2064    1.1750    0.0000 C   0  0  0  0  0  0  0  0  0  0  0  0
   -2.6353    0.3500    0.0000 C   0  0  0  0  0  0  0  0  0  0  0  0
   -1.9209    1.5875    0.0000 C   0  0  0  0  0  0  0  0  0  0  0  0
   -2.6353    1.1750    0.0000 C   0  0  0  0  0  0  0  0  0  0  0  0
   -3.3498    1.5875    0.0000 N   0  3  0  0  0  0  0  0  0  0  0  0
   -4.0643    1.1750    0.0000 O   0  5  0  0  0  0  0  0  0  0  0  0
   -3.3498    2.4125    0.0000 O   0  0  0  0  0  0  0  0  0  0  0  0
    1.8603    0.2295    0.0000 H   0  0  0  0  0  0  0  0  0  0  0  0
    2.1572   -0.7670    0.0000 H   0  0  0  0  0  0  0  0  0  0  0  0
    1.4723    1.2785    0.0000 H   0  0  0  0  0  0  0  0  0  0  0  0
    3.0804   -1.5450    0.0000 H   0  0  0  0  0  0  0  0  0  0  0  0
    4.0070   -1.0100    0.0000 H   0  0  0  0  0  0  0  0  0  0  0  0
    4.7215   -0.5975    0.0000 H   0  0  0  0  0  0  0  0  0  0  0  0
    3.7949    1.0075    0.0000 H   0  0  0  0  0  0  0  0  0  0  0  0
    4.7216    0.4725    0.0000 H   0  0  0  0  0  0  0  0  0  0  0  0
    0.1255   -1.2440    0.0000 H   0  0  0  0  0  0  0  0  0  0  0  0
    0.2225   -1.4950    0.0000 H   0  0  0  0  0  0  0  0  0  0  0  0
    0.9370    1.0075    0.0000 H   0  0  0  0  0  0  0  0  0  0  0  0
    0.0104    0.4725    0.0000 H   0  0  0  0  0  0  0  0  0  0  0  0
   -1.9209   -1.0945    0.0000 H   0  0  0  0  0  0  0  0  0  0  0  0
   -0.3127    1.6910    0.0000 H   0  0  0  0  0  0  0  0  0  0  0  0
   -3.5290   -0.1660    0.0000 H   0  0  0  0  0  0  0  0  0  0  0  0
   -1.9209    2.6195    0.0000 H   0  0  0  0  0  0  0  0  0  0  0  0
  1  2  1  0  0  0  0
  1  7  2  0  0  0  0
  1 26  1  0  0  0  0
  2  3  1  0  0  0  0
  2  5  1  0  0  0  0
  2 24  1  6  0  0  0
  3  4  1  0  0  0  0
  3 14  1  0  0  0  0
  3 25  1  1  0  0  0
  4  8  1  0  0  0  0
  4  9  2  0  0  0  0
  5  6  1  0  0  0  0
  5 27  1  0  0  0  0
  5 28  1  0  0  0  0
  6 29  1  0  0  0  0
  6 30  1  0  0  0  0
  6 31  1  0  0  0  0
  8 32  1  0  0  0  0
 10 12  2  0  0  0  0
 11 12  2  0  0  0  0
 12 13  1  0  0  0  0
 12 15  1  0  0  0  0
 13 14  1  0  0  0  0
 13 33  1  0  0  0  0
 14 34  1  0  0  0  0
 14 35  1  0  0  0  0
 15 16  2  0  0  0  0
 15 17  1  0  0  0  0
 16 18  1  0  0  0  0
 16 36  1  0  0  0  0
 17 19  2  0  0  0  0
 17 37  1  0  0  0  0
 18 20  2  0  0  0  0
 18 38  1  0  0  0  0
 19 20  1  0  0  0  0
 19 39  1  0  0  0  0
 20 21  1  0  0  0  0
 21 22  1  0  0  0  0
 21 23  2  0  0  0  0
M  CHG  2  21   1  22  -1
M  END
>  <DRUGBANK_ID>
DB08641

>  <COMMON_NAME>
(2S,3S)-3-FORMYL-2-({[(4-NITROPHENYL)SULFONYL]AMINO}METHYL)PENTANOIC ACID

$$$$
