PC0
 OpenBabel10282417072D

 42 43  0  0  0  0  0  0  0  0999 V2000
   -2.7367    0.0353    0.0000 C   0  0  0  0  0  0  0  0  0  0  0  0
   -3.4511   -0.3772    0.0000 N   0  0  0  0  0  0  0  0  0  0  0  0
   -4.1656    0.0353    0.0000 C   0  0  0  0  0  0  0  0  0  0  0  0
   -4.1656    0.8603    0.0000 C   0  0  0  0  0  0  0  0  0  0  0  0
   -3.4511    1.2728    0.0000 C   0  0  0  0  0  0  0  0  0  0  0  0
   -2.7367    0.8603    0.0000 C   0  0  0  0  0  0  0  0  0  0  0  0
   -4.8801    1.2728    0.0000 C   0  0  0  0  0  0  0  0  0  0  0  0
   -2.0222   -0.3772    0.0000 N   0  0  0  0  0  0  0  0  0  0  0  0
   -1.3077    0.0353    0.0000 C   0  0  0  0  0  0  0  0  0  0  0  0
   -1.3077    0.8603    0.0000 S   0  0  0  0  0  0  0  0  0  0  0  0
   -0.5933   -0.3772    0.0000 N   0  0  0  0  0  0  0  0  0  0  0  0
    0.1212    0.0353    0.0000 C   0  0  0  0  0  0  0  0  0  0  0  0
    0.8357   -0.3772    0.0000 C   0  0  0  0  0  0  0  0  0  0  0  0
    1.5502    0.0353    0.0000 C   0  0  0  0  0  0  0  0  0  0  0  0
    1.5502    0.8603    0.0000 N   0  0  0  0  0  0  0  0  0  0  0  0
    2.2646    1.2728    0.0000 C   0  0  0  0  0  0  0  0  0  0  0  0
    2.9791    0.8603    0.0000 C   0  0  0  0  0  0  0  0  0  0  0  0
    2.9791    0.0353    0.0000 C   0  0  0  0  0  0  0  0  0  0  0  0
    2.2646   -0.3772    0.0000 C   0  0  0  0  0  0  0  0  0  0  0  0
    3.6936   -0.3772    0.0000 O   0  0  0  0  0  0  0  0  0  0  0  0
    3.6936   -1.2022    0.0000 C   0  0  0  0  0  0  0  0  0  0  0  0
    4.4080   -1.6147    0.0000 C   0  0  0  0  0  0  0  0  0  0  0  0
    2.2646   -1.2022    0.0000 F   0  0  0  0  0  0  0  0  0  0  0  0
   -5.0593   -0.4807    0.0000 H   0  0  0  0  0  0  0  0  0  0  0  0
   -3.4511    2.3048    0.0000 H   0  0  0  0  0  0  0  0  0  0  0  0
   -1.8430    1.3763    0.0000 H   0  0  0  0  0  0  0  0  0  0  0  0
   -4.8801    2.3428    0.0000 H   0  0  0  0  0  0  0  0  0  0  0  0
   -5.8067    0.7378    0.0000 H   0  0  0  0  0  0  0  0  0  0  0  0
   -5.8068    1.8078    0.0000 H   0  0  0  0  0  0  0  0  0  0  0  0
   -2.0222   -1.3617    0.0000 H   0  0  0  0  0  0  0  0  0  0  0  0
   -0.5933   -1.3617    0.0000 H   0  0  0  0  0  0  0  0  0  0  0  0
    0.1212    1.1053    0.0000 H   0  0  0  0  0  0  0  0  0  0  0  0
    1.0478    0.5703    0.0000 H   0  0  0  0  0  0  0  0  0  0  0  0
    0.8357   -1.4472    0.0000 H   0  0  0  0  0  0  0  0  0  0  0  0
    1.7623   -0.9122    0.0000 H   0  0  0  0  0  0  0  0  0  0  0  0
    2.2646    2.3048    0.0000 H   0  0  0  0  0  0  0  0  0  0  0  0
    3.8728    1.3763    0.0000 H   0  0  0  0  0  0  0  0  0  0  0  0
    2.7669   -1.7372    0.0000 H   0  0  0  0  0  0  0  0  0  0  0  0
    3.6936   -2.2722    0.0000 H   0  0  0  0  0  0  0  0  0  0  0  0
    4.4080   -2.6847    0.0000 H   0  0  0  0  0  0  0  0  0  0  0  0
    5.3347   -1.0797    0.0000 H   0  0  0  0  0  0  0  0  0  0  0  0
    5.3346   -2.1497    0.0000 H   0  0  0  0  0  0  0  0  0  0  0  0
  1  2  1  0  0  0  0
  1  6  2  0  0  0  0
  1  8  1  0  0  0  0
  2  3  2  0  0  0  0
  3  4  1  0  0  0  0
  3 24  1  0  0  0  0
  4  5  2  0  0  0  0
  4  7  1  0  0  0  0
  5  6  1  0  0  0  0
  5 25  1  0  0  0  0
  6 26  1  0  0  0  0
  7 27  1  0  0  0  0
  7 28  1  0  0  0  0
  7 29  1  0  0  0  0
  8  9  1  0  0  0  0
  8 30  1  0  0  0  0
  9 10  2  0  0  0  0
  9 11  1  0  0  0  0
 11 12  1  0  0  0  0
 11 31  1  0  0  0  0
 12 13  1  0  0  0  0
 12 32  1  0  0  0  0
 12 33  1  0  0  0  0
 13 14  1  0  0  0  0
 13 34  1  0  0  0  0
 13 35  1  0  0  0  0
 14 15  2  0  0  0  0
 14 19  1  0  0  0  0
 15 16  1  0  0  0  0
 16 17  2  0  0  0  0
 16 36  1  0  0  0  0
 17 18  1  0  0  0  0
 17 37  1  0  0  0  0
 18 19  2  0  0  0  0
 18 20  1  0  0  0  0
 19 23  1  0  0  0  0
 20 21  1  0  0  0  0
 21 22  1  0  0  0  0
 21 38  1  0  0  0  0
 21 39  1  0  0  0  0
 22 40  1  0  0  0  0
 22 41  1  0  0  0  0
 22 42  1  0  0  0  0
M  END
>  <DRUGBANK_ID>
DB08372

>  <COMMON_NAME>
1-[2-(4-ETHOXY-3-FLUOROPYRIDIN-2-YL)ETHYL]-3-(5-METHYLPYRIDIN-2-YL)THIOUREA

$$$$
