
 OpenBabel10282417072D

 28 27  0  0  0  0  0  0  0  0999 V2000
   -1.6500    1.4289    0.0000 C   0  0  0  0  0  0  0  0  0  0  0  0
    2.0625   -0.7145    0.0000 C   0  0  0  0  0  0  0  0  0  0  0  0
   -1.2375    0.7145    0.0000 C   0  0  0  0  0  0  0  0  0  0  0  0
    1.2375   -0.7145    0.0000 C   0  0  0  0  0  0  0  0  0  0  0  0
   -0.4125    0.7145    0.0000 C   0  0  0  0  0  0  0  0  0  0  0  0
    1.2375    0.7145    0.0000 C   0  0  0  0  0  0  0  0  0  0  0  0
    0.8250    0.0000    0.0000 C   0  0  3  0  0  0  0  0  0  0  0  0
    0.0000    0.0000    0.0000 C   0  0  3  0  0  0  0  0  0  0  0  0
    2.0625    0.7145    0.0000 O   0  0  0  0  0  0  0  0  0  0  0  0
   -0.4125   -0.7145    0.0000 O   0  0  0  0  0  0  0  0  0  0  0  0
   -1.1150    2.3556    0.0000 H   0  0  0  0  0  0  0  0  0  0  0  0
   -2.7200    1.4289    0.0000 H   0  0  0  0  0  0  0  0  0  0  0  0
   -2.1850    2.3555    0.0000 H   0  0  0  0  0  0  0  0  0  0  0  0
    2.5975   -1.6411    0.0000 H   0  0  0  0  0  0  0  0  0  0  0  0
    2.5975    0.2121    0.0000 H   0  0  0  0  0  0  0  0  0  0  0  0
    3.1325   -0.7145    0.0000 H   0  0  0  0  0  0  0  0  0  0  0  0
   -1.7725   -0.2122    0.0000 H   0  0  0  0  0  0  0  0  0  0  0  0
   -0.7025   -0.2121    0.0000 H   0  0  0  0  0  0  0  0  0  0  0  0
    0.7025   -1.6411    0.0000 H   0  0  0  0  0  0  0  0  0  0  0  0
    0.1675   -0.7145    0.0000 H   0  0  0  0  0  0  0  0  0  0  0  0
    0.1225    1.6411    0.0000 H   0  0  0  0  0  0  0  0  0  0  0  0
    0.6575    0.7145    0.0000 H   0  0  0  0  0  0  0  0  0  0  0  0
    0.7025    1.6411    0.0000 H   0  0  0  0  0  0  0  0  0  0  0  0
    1.7725    1.6411    0.0000 H   0  0  0  0  0  0  0  0  0  0  0  0
    1.8950    0.0000    0.0000 H   0  0  0  0  0  0  0  0  0  0  0  0
    0.5350    0.9266    0.0000 H   0  0  0  0  0  0  0  0  0  0  0  0
    2.5475   -0.1255    0.0000 H   0  0  0  0  0  0  0  0  0  0  0  0
   -1.3825   -0.7145    0.0000 H   0  0  0  0  0  0  0  0  0  0  0  0
  1 11  1  0  0  0  0
  1 12  1  0  0  0  0
  1 13  1  0  0  0  0
  2 14  1  0  0  0  0
  2 15  1  0  0  0  0
  2 16  1  0  0  0  0
  3  1  1  0  0  0  0
  3 17  1  0  0  0  0
  3 18  1  0  0  0  0
  4  2  1  0  0  0  0
  4 19  1  0  0  0  0
  4 20  1  0  0  0  0
  5  3  1  0  0  0  0
  5 21  1  0  0  0  0
  5 22  1  0  0  0  0
  6 23  1  0  0  0  0
  6 24  1  0  0  0  0
  7  4  1  0  0  0  0
  7  6  1  0  0  0  0
  7 25  1  0  0  0  0
  8  5  1  0  0  0  0
  8  7  1  0  0  0  0
  8 26  1  0  0  0  0
  9  6  1  0  0  0  0
  9 27  1  0  0  0  0
 10  8  1  0  0  0  0
 10 28  1  0  0  0  0
M  END
>  <DRUGBANK_ID>
DB13826

>  <COMMON_NAME>
Etohexadiol

>  <CAS_NUMBER>
94-96-2

>  <UNII>
M9JGK7U88V

>  <SYNONYMS>
Ethohexadiol

$$$$
