
 OpenBabel10282417072D

 88 87  0  0  0  0  0  0  0  0999 V2000
   -4.3321   -0.2062    0.0000 Tc  0  0  0  0  0  0  0  0  0  0  0  0
    1.7457   -4.6653    0.0000 O   0  0  0  0  0  0  0  0  0  0  0  0
    1.9671    3.9394    0.0000 O   0  5  0  0  0  0  0  0  0  0  0  0
    1.0312   -0.9529    0.0000 O   0  0  0  0  0  0  0  0  0  0  0  0
    3.8891   -3.4279    0.0000 O   0  0  0  0  0  0  0  0  0  0  0  0
    0.3167   -2.1904    0.0000 O   0  0  0  0  0  0  0  0  0  0  0  0
    3.1746   -2.1904    0.0000 O   0  0  0  0  0  0  0  0  0  0  0  0
    1.2527    7.6519    0.0000 O   0  5  0  0  0  0  0  0  0  0  0  0
    4.1106    5.1769    0.0000 O   0  5  0  0  0  0  0  0  0  0  0  0
    0.5382    6.4144    0.0000 O   0  0  0  0  0  0  0  0  0  0  0  0
    3.3962    6.4144    0.0000 O   0  0  0  0  0  0  0  0  0  0  0  0
    0.3167   -4.6653    0.0000 N   0  0  0  0  0  0  0  0  0  0  0  0
    1.7457   -3.0153    0.0000 N   0  0  0  0  0  0  0  0  0  0  0  0
    1.9671    5.5894    0.0000 N   0  0  0  0  0  0  0  0  0  0  0  0
    0.5382    3.9394    0.0000 N   0  0  0  0  0  0  0  0  0  0  0  0
    0.3167   -5.4904    0.0000 C   0  0  0  0  0  0  0  0  0  0  0  0
    1.0312   -5.9028    0.0000 C   0  0  0  0  0  0  0  0  0  0  0  0
   -0.3976   -5.9028    0.0000 C   0  0  0  0  0  0  0  0  0  0  0  0
    1.7457   -5.4904    0.0000 C   0  0  0  0  0  0  0  0  0  0  0  0
   -1.1121   -5.4904    0.0000 C   0  0  0  0  0  0  0  0  0  0  0  0
    1.0312   -6.7279    0.0000 C   0  0  0  0  0  0  0  0  0  0  0  0
   -0.3976   -6.7279    0.0000 C   0  0  0  0  0  0  0  0  0  0  0  0
    1.0312   -3.4279    0.0000 C   0  0  0  0  0  0  0  0  0  0  0  0
    1.0312   -4.2529    0.0000 C   0  0  0  0  0  0  0  0  0  0  0  0
    1.2527    2.7019    0.0000 C   0  0  0  0  0  0  0  0  0  0  0  0
   -0.1762    2.7019    0.0000 C   0  0  0  0  0  0  0  0  0  0  0  0
    0.3167   -7.1404    0.0000 C   0  0  0  0  0  0  0  0  0  0  0  0
    0.5382    3.1143    0.0000 C   0  0  0  0  0  0  0  0  0  0  0  0
    1.9671    3.1143    0.0000 C   0  0  0  0  0  0  0  0  0  0  0  0
   -0.8907    3.1143    0.0000 C   0  0  0  0  0  0  0  0  0  0  0  0
    2.4602   -5.9028    0.0000 C   0  0  0  0  0  0  0  0  0  0  0  0
   -1.8266   -5.9028    0.0000 C   0  0  0  0  0  0  0  0  0  0  0  0
    1.7457   -2.1904    0.0000 C   0  0  0  0  0  0  0  0  0  0  0  0
    2.4602   -3.4279    0.0000 C   0  0  0  0  0  0  0  0  0  0  0  0
    1.2527    1.8768    0.0000 C   0  0  0  0  0  0  0  0  0  0  0  0
   -0.1762    1.8768    0.0000 C   0  0  0  0  0  0  0  0  0  0  0  0
    0.5382    1.4643    0.0000 C   0  0  0  0  0  0  0  0  0  0  0  0
    1.2527    5.1769    0.0000 C   0  0  0  0  0  0  0  0  0  0  0  0
    2.6817    2.7019    0.0000 C   0  0  0  0  0  0  0  0  0  0  0  0
   -1.6051    2.7019    0.0000 C   0  0  0  0  0  0  0  0  0  0  0  0
    1.2527    4.3518    0.0000 C   0  0  0  0  0  0  0  0  0  0  0  0
    1.9671    6.4144    0.0000 C   0  0  0  0  0  0  0  0  0  0  0  0
    2.6817    5.1769    0.0000 C   0  0  0  0  0  0  0  0  0  0  0  0
    1.0312   -1.7778    0.0000 C   0  0  0  0  0  0  0  0  0  0  0  0
    3.1746   -3.0153    0.0000 C   0  0  0  0  0  0  0  0  0  0  0  0
    1.2527    6.8269    0.0000 C   0  0  0  0  0  0  0  0  0  0  0  0
    3.3962    5.5894    0.0000 C   0  0  0  0  0  0  0  0  0  0  0  0
    1.8427   -0.4844    0.0000 H   0  0  0  0  0  0  0  0  0  0  0  0
    3.8890   -4.3649    0.0000 H   0  0  0  0  0  0  0  0  0  0  0  0
   -0.5359   -4.1730    0.0000 H   0  0  0  0  0  0  0  0  0  0  0  0
    1.7457   -4.4204    0.0000 H   0  0  0  0  0  0  0  0  0  0  0  0
    2.6723   -4.9553    0.0000 H   0  0  0  0  0  0  0  0  0  0  0  0
   -1.1121   -4.4204    0.0000 H   0  0  0  0  0  0  0  0  0  0  0  0
   -2.0387   -4.9553    0.0000 H   0  0  0  0  0  0  0  0  0  0  0  0
    1.9249   -7.2439    0.0000 H   0  0  0  0  0  0  0  0  0  0  0  0
   -1.2914   -7.2439    0.0000 H   0  0  0  0  0  0  0  0  0  0  0  0
    0.1045   -2.8929    0.0000 H   0  0  0  0  0  0  0  0  0  0  0  0
    0.1046   -3.9629    0.0000 H   0  0  0  0  0  0  0  0  0  0  0  0
    0.3166   -8.1724    0.0000 H   0  0  0  0  0  0  0  0  0  0  0  0
    1.9670    4.1843    0.0000 H   0  0  0  0  0  0  0  0  0  0  0  0
    2.8937    3.6494    0.0000 H   0  0  0  0  0  0  0  0  0  0  0  0
   -0.8907    4.1843    0.0000 H   0  0  0  0  0  0  0  0  0  0  0  0
   -1.8173    3.6493    0.0000 H   0  0  0  0  0  0  0  0  0  0  0  0
    2.4603   -6.9728    0.0000 H   0  0  0  0  0  0  0  0  0  0  0  0
    3.3868   -5.3677    0.0000 H   0  0  0  0  0  0  0  0  0  0  0  0
    3.3869   -6.4377    0.0000 H   0  0  0  0  0  0  0  0  0  0  0  0
   -2.7532   -5.3677    0.0000 H   0  0  0  0  0  0  0  0  0  0  0  0
   -1.8267   -6.9728    0.0000 H   0  0  0  0  0  0  0  0  0  0  0  0
   -2.7533   -6.4377    0.0000 H   0  0  0  0  0  0  0  0  0  0  0  0
    2.6724   -1.6554    0.0000 H   0  0  0  0  0  0  0  0  0  0  0  0
    1.7458   -1.1204    0.0000 H   0  0  0  0  0  0  0  0  0  0  0  0
    2.4602   -4.4979    0.0000 H   0  0  0  0  0  0  0  0  0  0  0  0
    3.3869   -3.9628    0.0000 H   0  0  0  0  0  0  0  0  0  0  0  0
    2.1464    1.3608    0.0000 H   0  0  0  0  0  0  0  0  0  0  0  0
   -1.0699    1.3608    0.0000 H   0  0  0  0  0  0  0  0  0  0  0  0
    0.5382    0.4323    0.0000 H   0  0  0  0  0  0  0  0  0  0  0  0
    0.3260    5.7119    0.0000 H   0  0  0  0  0  0  0  0  0  0  0  0
    0.3261    4.6419    0.0000 H   0  0  0  0  0  0  0  0  0  0  0  0
    2.6819    1.6319    0.0000 H   0  0  0  0  0  0  0  0  0  0  0  0
    3.6082    3.2371    0.0000 H   0  0  0  0  0  0  0  0  0  0  0  0
    3.6084    2.1671    0.0000 H   0  0  0  0  0  0  0  0  0  0  0  0
   -2.5317    3.2370    0.0000 H   0  0  0  0  0  0  0  0  0  0  0  0
   -1.6052    1.6319    0.0000 H   0  0  0  0  0  0  0  0  0  0  0  0
   -2.5318    2.1670    0.0000 H   0  0  0  0  0  0  0  0  0  0  0  0
    2.8938    6.9494    0.0000 H   0  0  0  0  0  0  0  0  0  0  0  0
    1.9671    7.4844    0.0000 H   0  0  0  0  0  0  0  0  0  0  0  0
    2.6817    4.1069    0.0000 H   0  0  0  0  0  0  0  0  0  0  0  0
    3.6084    4.6419    0.0000 H   0  0  0  0  0  0  0  0  0  0  0  0
  2 24  2  0  0  0  0
  3 41  1  0  0  0  0
  4 44  1  0  0  0  0
  4 48  1  0  0  0  0
  5 45  1  0  0  0  0
  5 49  1  0  0  0  0
  6 44  2  0  0  0  0
  7 45  2  0  0  0  0
  8 46  1  0  0  0  0
  9 47  1  0  0  0  0
 10 46  2  0  0  0  0
 11 47  2  0  0  0  0
 12 16  1  0  0  0  0
 12 24  1  0  0  0  0
 12 50  1  0  0  0  0
 13 23  1  0  0  0  0
 13 33  1  0  0  0  0
 13 34  1  0  0  0  0
 14 38  1  0  0  0  0
 14 42  1  0  0  0  0
 14 43  1  0  0  0  0
 15 28  1  0  0  0  0
 15 41  2  0  0  0  0
 16 17  2  0  0  0  0
 16 18  1  0  0  0  0
 17 19  1  0  0  0  0
 17 21  1  0  0  0  0
 18 20  1  0  0  0  0
 18 22  2  0  0  0  0
 19 31  1  0  0  0  0
 19 51  1  0  0  0  0
 19 52  1  0  0  0  0
 20 32  1  0  0  0  0
 20 53  1  0  0  0  0
 20 54  1  0  0  0  0
 21 27  2  0  0  0  0
 21 55  1  0  0  0  0
 22 27  1  0  0  0  0
 22 56  1  0  0  0  0
 23 24  1  0  0  0  0
 23 57  1  0  0  0  0
 23 58  1  0  0  0  0
 25 28  2  0  0  0  0
 25 29  1  0  0  0  0
 25 35  1  0  0  0  0
 26 28  1  0  0  0  0
 26 30  1  0  0  0  0
 26 36  2  0  0  0  0
 27 59  1  0  0  0  0
 29 39  1  0  0  0  0
 29 60  1  0  0  0  0
 29 61  1  0  0  0  0
 30 40  1  0  0  0  0
 30 62  1  0  0  0  0
 30 63  1  0  0  0  0
 31 64  1  0  0  0  0
 31 65  1  0  0  0  0
 31 66  1  0  0  0  0
 32 67  1  0  0  0  0
 32 68  1  0  0  0  0
 32 69  1  0  0  0  0
 33 44  1  0  0  0  0
 33 70  1  0  0  0  0
 33 71  1  0  0  0  0
 34 45  1  0  0  0  0
 34 72  1  0  0  0  0
 34 73  1  0  0  0  0
 35 37  2  0  0  0  0
 35 74  1  0  0  0  0
 36 37  1  0  0  0  0
 36 75  1  0  0  0  0
 37 76  1  0  0  0  0
 38 41  1  0  0  0  0
 38 77  1  0  0  0  0
 38 78  1  0  0  0  0
 39 79  1  0  0  0  0
 39 80  1  0  0  0  0
 39 81  1  0  0  0  0
 40 82  1  0  0  0  0
 40 83  1  0  0  0  0
 40 84  1  0  0  0  0
 42 46  1  0  0  0  0
 42 85  1  0  0  0  0
 42 86  1  0  0  0  0
 43 47  1  0  0  0  0
 43 87  1  0  0  0  0
 43 88  1  0  0  0  0
M  ISO  1   1  98
M  CHG  3   3  -1   8  -1   9  -1
M  END
>  <DRUGBANK_ID>
DB13183

>  <COMMON_NAME>
Technetium Tc-99m etifenin

>  <CAS_NUMBER>
72950-39-1

>  <UNII>
1R72G5JPE8

>  <SYNONYMS>
Technetium (99m Tc) etifenin; Technetium (99mTc) etifenin

$$$$
