
 OpenBabel10282417072D

 62 66  0  0  1  0  0  0  0  0999 V2000
    6.4302    2.0625    0.0000 C   0  0  0  0  0  0  0  0  0  0  0  0
    6.1283    4.5695    0.0000 C   0  0  0  0  0  0  0  0  0  0  0  0
    5.3033    4.5695    0.0000 C   0  0  0  0  0  0  0  0  0  0  0  0
    2.8579   -2.4750    0.0000 C   0  0  0  0  0  0  0  0  0  0  0  0
    3.5724   -1.2375    0.0000 C   0  0  0  0  0  0  0  0  0  0  0  0
    3.5724   -0.4125    0.0000 C   0  0  0  0  0  0  0  0  0  0  0  0
    2.8579    0.8250    0.0000 C   0  0  0  0  0  0  0  0  0  0  0  0
    3.5724   -2.8875    0.0000 C   0  0  0  0  0  0  0  0  0  0  0  0
    4.2868   -1.6500    0.0000 C   0  0  0  0  0  0  0  0  0  0  0  0
   -0.7145   -0.4125    0.0000 C   0  0  0  0  0  0  0  0  0  0  0  0
    4.2868    0.0000    0.0000 C   0  0  0  0  0  0  0  0  0  0  0  0
    3.5724    1.2375    0.0000 C   0  0  0  0  0  0  0  0  0  0  0  0
    0.0000    0.0000    0.0000 C   0  0  0  0  0  0  0  0  0  0  0  0
    6.3832    3.7849    0.0000 C   0  0  0  0  0  0  0  0  0  0  0  0
    5.0483    3.7849    0.0000 C   0  0  0  0  0  0  0  0  0  0  0  0
    0.0000   -1.6500    0.0000 C   0  0  0  0  0  0  0  0  0  0  0  0
    5.0013    2.0625    0.0000 C   0  0  0  0  0  0  0  0  0  0  0  0
    5.7158    2.4750    0.0000 C   0  0  2  0  0  0  0  0  0  0  0  0
    2.8579    0.0000    0.0000 C   0  0  0  0  0  0  0  0  0  0  0  0
    2.8579   -1.6500    0.0000 C   0  0  0  0  0  0  0  0  0  0  0  0
    4.2868   -2.4750    0.0000 C   0  0  0  0  0  0  0  0  0  0  0  0
   -0.7145   -1.2375    0.0000 C   0  0  0  0  0  0  0  0  0  0  0  0
    4.2868    0.8250    0.0000 C   0  0  0  0  0  0  0  0  0  0  0  0
    0.7145   -0.4125    0.0000 C   0  0  0  0  0  0  0  0  0  0  0  0
    0.7145   -1.2375    0.0000 C   0  0  0  0  0  0  0  0  0  0  0  0
    2.1434   -0.4125    0.0000 C   0  0  1  0  0  0  0  0  0  0  0  0
    2.1434   -1.2375    0.0000 C   0  0  2  0  0  0  0  0  0  0  0  0
    5.7158    3.3000    0.0000 N   0  0  0  0  0  0  0  0  0  0  0  0
    5.0013   -2.8875    0.0000 O   0  0  0  0  0  0  0  0  0  0  0  0
   -1.4289   -1.6500    0.0000 O   0  0  0  0  0  0  0  0  0  0  0  0
    5.0013    1.2375    0.0000 O   0  0  0  0  0  0  0  0  0  0  0  0
    1.4289   -0.0000    0.0000 O   0  0  0  0  0  0  0  0  0  0  0  0
    1.4289   -1.6500    0.0000 S   0  0  0  0  0  0  0  0  0  0  0  0
    5.7158    1.6500    0.0000 H   0  0  0  0  0  0  0  0  0  0  0  0
    2.9559   -0.5558    0.0000 H   0  0  0  0  0  0  0  0  0  0  0  0
    2.9559   -1.0942    0.0000 H   0  0  0  0  0  0  0  0  0  0  0  0
    6.4302    0.9925    0.0000 H   0  0  0  0  0  0  0  0  0  0  0  0
    7.3569    2.5975    0.0000 H   0  0  0  0  0  0  0  0  0  0  0  0
    7.3568    1.5275    0.0000 H   0  0  0  0  0  0  0  0  0  0  0  0
    6.7572    5.4351    0.0000 H   0  0  0  0  0  0  0  0  0  0  0  0
    7.1851    4.4021    0.0000 H   0  0  0  0  0  0  0  0  0  0  0  0
    4.6744    5.4352    0.0000 H   0  0  0  0  0  0  0  0  0  0  0  0
    4.2465    4.4022    0.0000 H   0  0  0  0  0  0  0  0  0  0  0  0
    1.9642   -2.9910    0.0000 H   0  0  0  0  0  0  0  0  0  0  0  0
    3.5724   -0.2055    0.0000 H   0  0  0  0  0  0  0  0  0  0  0  0
    3.5724   -1.4445    0.0000 H   0  0  0  0  0  0  0  0  0  0  0  0
    1.9642    1.3410    0.0000 H   0  0  0  0  0  0  0  0  0  0  0  0
    3.5724   -3.9195    0.0000 H   0  0  0  0  0  0  0  0  0  0  0  0
    5.1805   -1.1340    0.0000 H   0  0  0  0  0  0  0  0  0  0  0  0
   -1.6082    0.1035    0.0000 H   0  0  0  0  0  0  0  0  0  0  0  0
    5.1805   -0.5160    0.0000 H   0  0  0  0  0  0  0  0  0  0  0  0
    3.5724    2.2695    0.0000 H   0  0  0  0  0  0  0  0  0  0  0  0
    0.0000    1.0320    0.0000 H   0  0  0  0  0  0  0  0  0  0  0  0
    7.4008    3.4542    0.0000 H   0  0  0  0  0  0  0  0  0  0  0  0
    6.5506    2.7281    0.0000 H   0  0  0  0  0  0  0  0  0  0  0  0
    4.0307    3.4543    0.0000 H   0  0  0  0  0  0  0  0  0  0  0  0
    4.8809    2.7281    0.0000 H   0  0  0  0  0  0  0  0  0  0  0  0
    0.0000   -2.6820    0.0000 H   0  0  0  0  0  0  0  0  0  0  0  0
    4.0747    2.5975    0.0000 H   0  0  0  0  0  0  0  0  0  0  0  0
    4.0747    1.5275    0.0000 H   0  0  0  0  0  0  0  0  0  0  0  0
    5.0013   -3.8245    0.0000 H   0  0  0  0  0  0  0  0  0  0  0  0
   -2.2404   -1.1815    0.0000 H   0  0  0  0  0  0  0  0  0  0  0  0
  1 37  1  0  0  0  0
  1 38  1  0  0  0  0
  1 39  1  0  0  0  0
  2 40  1  0  0  0  0
  2 41  1  0  0  0  0
  3  2  1  0  0  0  0
  3 42  1  0  0  0  0
  3 43  1  0  0  0  0
  4 44  1  0  0  0  0
  5 45  1  0  0  0  0
  6 46  1  0  0  0  0
  7 47  1  0  0  0  0
  8  4  1  0  0  0  0
  8 48  1  0  0  0  0
  9  5  2  0  0  0  0
  9 49  1  0  0  0  0
 10 50  1  0  0  0  0
 11  6  1  0  0  0  0
 11 51  1  0  0  0  0
 12  7  2  0  0  0  0
 12 52  1  0  0  0  0
 13 10  2  0  0  0  0
 13 53  1  0  0  0  0
 14  2  1  0  0  0  0
 14 54  1  0  0  0  0
 14 55  1  0  0  0  0
 15  3  1  0  0  0  0
 15 56  1  0  0  0  0
 15 57  1  0  0  0  0
 16 58  1  0  0  0  0
 17 59  1  0  0  0  0
 17 60  1  0  0  0  0
 18  1  1  0  0  0  0
 18 17  1  0  0  0  0
 18 34  1  1  0  0  0
 19  6  2  0  0  0  0
 19  7  1  0  0  0  0
 20  4  2  0  0  0  0
 20  5  1  0  0  0  0
 21  8  2  0  0  0  0
 21  9  1  0  0  0  0
 22 10  1  0  0  0  0
 22 16  2  0  0  0  0
 23 11  2  0  0  0  0
 23 12  1  0  0  0  0
 24 13  1  0  0  0  0
 25 16  1  0  0  0  0
 25 24  2  0  0  0  0
 26 19  1  0  0  0  0
 26 35  1  6  0  0  0
 27 20  1  0  0  0  0
 27 26  1  0  0  0  0
 27 36  1  6  0  0  0
 28 14  1  0  0  0  0
 28 15  1  0  0  0  0
 28 18  1  0  0  0  0
 29 21  1  0  0  0  0
 29 61  1  0  0  0  0
 30 22  1  0  0  0  0
 30 62  1  0  0  0  0
 31 17  1  0  0  0  0
 31 23  1  0  0  0  0
 32 24  1  0  0  0  0
 32 26  1  0  0  0  0
 33 25  1  0  0  0  0
 33 27  1  0  0  0  0
M  END
>  <DRUGBANK_ID>
DB02615

>  <SECONDARY_ACCESSION_NUMBERS>
EXPT00478; EXPT00338

>  <COMMON_NAME>
Compound 19

$$$$
