
 OpenBabel10282417072D

 37 38  0  0  0  0  0  0  0  0999 V2000
    2.1572    1.6810    0.0000 C   0  0  0  0  0  0  0  0  0  0  0  0
    1.4527    1.2632    0.0000 C   0  0  0  0  0  0  0  0  0  0  0  0
   -0.6899   -0.0097    0.0000 O   0  0  0  0  0  0  0  0  0  0  0  0
   -0.6899   -0.8210    0.0000 C   0  0  2  0  0  0  0  0  0  0  0  0
    2.1523    2.5022    0.0000 F   0  0  0  0  0  0  0  0  0  0  0  0
    2.8715    1.2778    0.0000 F   0  0  0  0  0  0  0  0  0  0  0  0
    2.7790    2.1766    0.0000 F   0  0  0  0  0  0  0  0  0  0  0  0
   -1.4284   -1.2632    0.0000 C   0  0  0  0  0  0  0  0  0  0  0  0
    0.7384    1.6714    0.0000 C   0  0  0  0  0  0  0  0  0  0  0  0
    1.4527    0.4129    0.0000 C   0  0  0  0  0  0  0  0  0  0  0  0
    0.0242    0.4129    0.0000 C   0  0  0  0  0  0  0  0  0  0  0  0
    0.0242   -1.2340    0.0000 C   0  0  0  0  0  0  0  0  0  0  0  0
    0.0242    1.2632    0.0000 C   0  0  0  0  0  0  0  0  0  0  0  0
    0.7384    0.0194    0.0000 C   0  0  0  0  0  0  0  0  0  0  0  0
    1.4381   -1.2340    0.0000 N   0  0  0  0  0  0  0  0  0  0  0  0
    0.7142   -0.8210    0.0000 C   0  0  0  0  0  0  0  0  0  0  0  0
   -1.4284   -2.0940    0.0000 C   0  0  0  0  0  0  0  0  0  0  0  0
   -2.1572   -0.8406    0.0000 C   0  0  0  0  0  0  0  0  0  0  0  0
   -2.1572   -2.5022    0.0000 C   0  0  0  0  0  0  0  0  0  0  0  0
   -2.8715   -1.2632    0.0000 C   0  0  0  0  0  0  0  0  0  0  0  0
   -2.8715   -2.0940    0.0000 C   0  0  0  0  0  0  0  0  0  0  0  0
   -1.6208   -0.2934    0.0000 H   0  0  0  0  0  0  0  0  0  0  0  0
    0.7384    2.7034    0.0000 H   0  0  0  0  0  0  0  0  0  0  0  0
    2.3412   -0.1120    0.0000 H   0  0  0  0  0  0  0  0  0  0  0  0
    0.0322   -2.3040    0.0000 H   0  0  0  0  0  0  0  0  0  0  0  0
    0.9570   -1.7582    0.0000 H   0  0  0  0  0  0  0  0  0  0  0  0
   -0.8684    1.7811    0.0000 H   0  0  0  0  0  0  0  0  0  0  0  0
    0.7384   -1.0126    0.0000 H   0  0  0  0  0  0  0  0  0  0  0  0
    1.4433   -2.2540    0.0000 H   0  0  0  0  0  0  0  0  0  0  0  0
    2.3188   -0.7195    0.0000 H   0  0  0  0  0  0  0  0  0  0  0  0
    0.7030    0.2489    0.0000 H   0  0  0  0  0  0  0  0  0  0  0  0
   -0.2194   -0.2982    0.0000 H   0  0  0  0  0  0  0  0  0  0  0  0
   -0.5380   -2.6158    0.0000 H   0  0  0  0  0  0  0  0  0  0  0  0
   -2.1617    0.1914    0.0000 H   0  0  0  0  0  0  0  0  0  0  0  0
   -2.1616   -3.5342    0.0000 H   0  0  0  0  0  0  0  0  0  0  0  0
   -3.7680   -0.7520    0.0000 H   0  0  0  0  0  0  0  0  0  0  0  0
   -3.7641   -2.6120    0.0000 H   0  0  0  0  0  0  0  0  0  0  0  0
  2  1  1  0  0  0  0
  3 11  1  0  0  0  0
  4  3  1  0  0  0  0
  4 22  1  6  0  0  0
  5  1  1  0  0  0  0
  6  1  1  0  0  0  0
  7  1  1  0  0  0  0
  8  4  1  0  0  0  0
  9  2  1  0  0  0  0
  9 23  1  0  0  0  0
 10  2  2  0  0  0  0
 10 24  1  0  0  0  0
 11 14  2  0  0  0  0
 12  4  1  0  0  0  0
 12 25  1  0  0  0  0
 12 26  1  0  0  0  0
 13  9  2  0  0  0  0
 13 11  1  0  0  0  0
 13 27  1  0  0  0  0
 14 10  1  0  0  0  0
 14 28  1  0  0  0  0
 15 16  1  0  0  0  0
 15 29  1  0  0  0  0
 15 30  1  0  0  0  0
 16 12  1  0  0  0  0
 16 31  1  0  0  0  0
 16 32  1  0  0  0  0
 17  8  2  0  0  0  0
 17 33  1  0  0  0  0
 18  8  1  0  0  0  0
 18 34  1  0  0  0  0
 19 17  1  0  0  0  0
 19 35  1  0  0  0  0
 20 18  2  0  0  0  0
 20 21  1  0  0  0  0
 20 36  1  0  0  0  0
 21 19  2  0  0  0  0
 21 37  1  0  0  0  0
M  END
>  <DRUGBANK_ID>
DB06731

>  <COMMON_NAME>
Seproxetine

>  <CAS_NUMBER>
126924-38-7

>  <UNII>
25CO3X0R31

>  <SYNONYMS>
(S)-norfluoxetine; Seproxetine

$$$$
