
 OpenBabel10282417072D

 31 31  0  0  0  0  0  0  0  0999 V2000
   -0.3562    0.4125    0.0000 S   0  0  0  0  0  0  0  0  0  0  0  0
    0.3583    0.0010    0.0000 N   0  0  0  0  0  0  0  0  0  0  0  0
    0.0553    1.1291    0.0000 O   0  0  0  0  0  0  0  0  0  0  0  0
   -0.7697    1.1291    0.0000 O   0  0  0  0  0  0  0  0  0  0  0  0
   -1.0708    0.0010    0.0000 C   0  0  0  0  0  0  0  0  0  0  0  0
    1.0728    0.4125    0.0000 C   0  0  0  0  0  0  0  0  0  0  0  0
   -1.7852    0.4125    0.0000 C   0  0  0  0  0  0  0  0  0  0  0  0
   -1.0708   -0.8240    0.0000 C   0  0  0  0  0  0  0  0  0  0  0  0
    1.7873    0.0010    0.0000 C   0  0  0  0  0  0  0  0  0  0  0  0
    1.0728    1.2376    0.0000 O   0  0  0  0  0  0  0  0  0  0  0  0
   -2.5019    0.0010    0.0000 C   0  0  0  0  0  0  0  0  0  0  0  0
   -1.7852   -1.2376    0.0000 C   0  0  0  0  0  0  0  0  0  0  0  0
    2.5019    0.4125    0.0000 C   0  0  0  0  0  0  0  0  0  0  0  0
   -2.5019   -0.8240    0.0000 C   0  0  0  0  0  0  0  0  0  0  0  0
    3.2163    0.0010    0.0000 C   0  0  0  0  0  0  0  0  0  0  0  0
    2.5019    1.2376    0.0000 C   0  0  0  0  0  0  0  0  0  0  0  0
   -3.2163   -1.2376    0.0000 N   0  0  0  0  0  0  0  0  0  0  0  0
    0.3583   -0.9835    0.0000 H   0  0  0  0  0  0  0  0  0  0  0  0
   -1.7845    1.4445    0.0000 H   0  0  0  0  0  0  0  0  0  0  0  0
   -0.1768   -1.3395    0.0000 H   0  0  0  0  0  0  0  0  0  0  0  0
    1.7873   -1.0310    0.0000 H   0  0  0  0  0  0  0  0  0  0  0  0
   -3.3950    0.5181    0.0000 H   0  0  0  0  0  0  0  0  0  0  0  0
   -1.7845   -2.2696    0.0000 H   0  0  0  0  0  0  0  0  0  0  0  0
    3.2174   -1.0690    0.0000 H   0  0  0  0  0  0  0  0  0  0  0  0
    4.1424    0.5369    0.0000 H   0  0  0  0  0  0  0  0  0  0  0  0
    4.1435   -0.5331    0.0000 H   0  0  0  0  0  0  0  0  0  0  0  0
    3.4285    1.7726    0.0000 H   0  0  0  0  0  0  0  0  0  0  0  0
    1.5753    1.7726    0.0000 H   0  0  0  0  0  0  0  0  0  0  0  0
    2.5019    2.3076    0.0000 H   0  0  0  0  0  0  0  0  0  0  0  0
   -4.0695   -0.7464    0.0000 H   0  0  0  0  0  0  0  0  0  0  0  0
   -3.2151   -2.2221    0.0000 H   0  0  0  0  0  0  0  0  0  0  0  0
  1  2  1  0  0  0  0
  1  3  2  0  0  0  0
  1  4  2  0  0  0  0
  1  5  1  0  0  0  0
  2  6  1  0  0  0  0
  2 18  1  0  0  0  0
  5  7  2  0  0  0  0
  5  8  1  0  0  0  0
  6  9  1  0  0  0  0
  6 10  2  0  0  0  0
  7 11  1  0  0  0  0
  7 19  1  0  0  0  0
  8 12  2  0  0  0  0
  8 20  1  0  0  0  0
  9 13  2  0  0  0  0
  9 21  1  0  0  0  0
 11 14  2  0  0  0  0
 11 22  1  0  0  0  0
 12 14  1  0  0  0  0
 12 23  1  0  0  0  0
 13 15  1  0  0  0  0
 13 16  1  0  0  0  0
 14 17  1  0  0  0  0
 15 24  1  0  0  0  0
 15 25  1  0  0  0  0
 15 26  1  0  0  0  0
 16 27  1  0  0  0  0
 16 28  1  0  0  0  0
 16 29  1  0  0  0  0
 17 30  1  0  0  0  0
 17 31  1  0  0  0  0
M  END
>  <DRUGBANK_ID>
DB13214

>  <COMMON_NAME>
Sulfadicramide

>  <CAS_NUMBER>
115-68-4

>  <UNII>
7WZ5EG263C

>  <SYNONYMS>
Sulfadicramide; Sulfadicrolamide

$$$$
