C8C
 OpenBabel10282417072D

 33 35  0  0  0  0  0  0  0  0999 V2000
   41.1222   26.5873    0.0000 N   0  0  0  0  0  0  0  0  0  0  0  0
   40.4078   26.9998    0.0000 C   0  0  0  0  0  0  0  0  0  0  0  0
   39.6933   28.2373    0.0000 C   0  0  0  0  0  0  0  0  0  0  0  0
   38.9788   27.8248    0.0000 C   0  0  0  0  0  0  0  0  0  0  0  0
   38.9788   26.9998    0.0000 C   0  0  0  0  0  0  0  0  0  0  0  0
   38.2644   26.5873    0.0000 C   0  0  0  0  0  0  0  0  0  0  0  0
   38.2644   25.7623    0.0000 C   0  0  0  0  0  0  0  0  0  0  0  0
   37.5499   25.3498    0.0000 C   0  0  0  0  0  0  0  0  0  0  0  0
   37.5499   24.5248    0.0000 C   0  0  0  0  0  0  0  0  0  0  0  0
   36.8354   24.1123    0.0000 C   0  0  0  0  0  0  0  0  0  0  0  0
   36.1209   24.5248    0.0000 C   0  0  0  0  0  0  0  0  0  0  0  0
   35.3363   24.2698    0.0000 C   0  0  0  0  0  0  0  0  0  0  0  0
   34.8514   24.9373    0.0000 C   0  0  0  0  0  0  0  0  0  0  0  0
   35.3363   25.6047    0.0000 N   0  0  0  0  0  0  0  0  0  0  0  0
   36.1209   25.3498    0.0000 C   0  0  0  0  0  0  0  0  0  0  0  0
   36.8354   25.7623    0.0000 C   0  0  0  0  0  0  0  0  0  0  0  0
   39.6933   26.5873    0.0000 N   0  0  0  0  0  0  0  0  0  0  0  0
   40.4078   27.8248    0.0000 N   0  0  0  0  0  0  0  0  0  0  0  0
   39.6933   29.0623    0.0000 O   0  0  0  0  0  0  0  0  0  0  0  0
   41.1222   25.6028    0.0000 H   0  0  0  0  0  0  0  0  0  0  0  0
   41.9748   27.0795    0.0000 H   0  0  0  0  0  0  0  0  0  0  0  0
   38.0851   28.3408    0.0000 H   0  0  0  0  0  0  0  0  0  0  0  0
   37.3377   27.1223    0.0000 H   0  0  0  0  0  0  0  0  0  0  0  0
   37.3378   26.0523    0.0000 H   0  0  0  0  0  0  0  0  0  0  0  0
   39.1910   25.2273    0.0000 H   0  0  0  0  0  0  0  0  0  0  0  0
   38.2644   24.6923    0.0000 H   0  0  0  0  0  0  0  0  0  0  0  0
   38.4436   24.0088    0.0000 H   0  0  0  0  0  0  0  0  0  0  0  0
   36.8354   23.0803    0.0000 H   0  0  0  0  0  0  0  0  0  0  0  0
   35.0174   23.2883    0.0000 H   0  0  0  0  0  0  0  0  0  0  0  0
   33.8194   24.9373    0.0000 H   0  0  0  0  0  0  0  0  0  0  0  0
   35.0321   26.5410    0.0000 H   0  0  0  0  0  0  0  0  0  0  0  0
   36.8354   26.7943    0.0000 H   0  0  0  0  0  0  0  0  0  0  0  0
   41.2604   28.3171    0.0000 H   0  0  0  0  0  0  0  0  0  0  0  0
  1  2  1  0  0  0  0
  1 20  1  0  0  0  0
  1 21  1  0  0  0  0
  2 17  2  0  0  0  0
  2 18  1  0  0  0  0
  3  4  1  0  0  0  0
  3 18  1  0  0  0  0
  3 19  2  0  0  0  0
  4  5  2  0  0  0  0
  4 22  1  0  0  0  0
  5  6  1  0  0  0  0
  5 17  1  0  0  0  0
  6  7  1  0  0  0  0
  6 23  1  0  0  0  0
  6 24  1  0  0  0  0
  7  8  1  0  0  0  0
  7 25  1  0  0  0  0
  7 26  1  0  0  0  0
  8  9  1  0  0  0  0
  8 16  2  0  0  0  0
  9 10  2  0  0  0  0
  9 27  1  0  0  0  0
 10 11  1  0  0  0  0
 10 28  1  0  0  0  0
 11 12  1  0  0  0  0
 11 15  2  0  0  0  0
 12 13  2  0  0  0  0
 12 29  1  0  0  0  0
 13 14  1  0  0  0  0
 13 30  1  0  0  0  0
 14 15  1  0  0  0  0
 14 31  1  0  0  0  0
 15 16  1  0  0  0  0
 16 32  1  0  0  0  0
 18 33  1  0  0  0  0
M  END
>  <DRUGBANK_ID>
DB07535

>  <COMMON_NAME>
2-amino-6-[2-(1H-indol-6-yl)ethyl]pyrimidin-4(3H)-one

>  <UNII>
O6FBI5EK8D

$$$$
