
 OpenBabel10282417072D

 80 86  0  0  0  0  0  0  0  0999 V2000
    0.5033  -16.5917    0.0000 C   0  0  0  0  0  0  0  0  0  0  0  0
    0.9050  -15.8712    0.0000 O   0  0  0  0  0  0  0  0  0  0  0  0
    0.4819  -15.1630    0.0000 C   0  0  0  0  0  0  0  0  0  0  0  0
   -0.3430  -15.1753    0.0000 O   0  0  0  0  0  0  0  0  0  0  0  0
    0.8837  -14.4424    0.0000 C   0  0  0  0  0  0  0  0  0  0  0  0
    1.7028  -14.3439    0.0000 C   0  0  0  0  0  0  0  0  0  0  0  0
    1.8622  -13.5344    0.0000 N   0  0  0  0  0  0  0  0  0  0  0  0
    1.1416  -13.1327    0.0000 C   0  0  0  0  0  0  0  0  0  0  0  0
    0.5369  -13.6938    0.0000 N   0  0  0  0  0  0  0  0  0  0  0  0
   -0.2789  -13.5709    0.0000 C   0  0  0  0  0  0  0  0  0  0  0  0
   -0.6914  -12.8564    0.0000 C   0  0  0  0  0  0  0  0  0  0  0  0
   -0.3900  -12.0884    0.0000 C   0  0  0  0  0  0  0  0  0  0  0  0
   -0.9948  -11.5273    0.0000 C   0  0  0  0  0  0  0  0  0  0  0  0
   -0.8112  -10.7230    0.0000 C   0  0  0  0  0  0  0  0  0  0  0  0
   -0.0229  -10.4798    0.0000 C   0  0  0  0  0  0  0  0  0  0  0  0
    0.5819  -11.0409    0.0000 C   0  0  0  0  0  0  0  0  0  0  0  0
    0.3983  -11.8453    0.0000 C   0  0  0  0  0  0  0  0  0  0  0  0
    1.0800  -12.3100    0.0000 C   0  0  0  0  0  0  0  0  0  0  0  0
    1.7944  -11.8975    0.0000 C   0  0  0  0  0  0  0  0  0  0  0  0
    1.7944  -11.0725    0.0000 C   0  0  0  0  0  0  0  0  0  0  0  0
    2.5089  -10.6600    0.0000 C   0  0  0  0  0  0  0  0  0  0  0  0
    3.2234  -11.0725    0.0000 N   0  0  0  0  0  0  0  0  0  0  0  0
    3.2234  -11.8975    0.0000 C   0  0  0  0  0  0  0  0  0  0  0  0
    2.5089  -12.3100    0.0000 C   0  0  0  0  0  0  0  0  0  0  0  0
    3.9379  -10.6600    0.0000 C   0  0  0  0  0  0  0  0  0  0  0  0
    3.9379   -9.8350    0.0000 C   0  0  0  0  0  0  0  0  0  0  0  0
    4.6523   -9.4225    0.0000 C   0  0  0  0  0  0  0  0  0  0  0  0
    4.6523   -8.5975    0.0000 C   0  0  0  0  0  0  0  0  0  0  0  0
    5.3668   -8.1850    0.0000 C   0  0  0  0  0  0  0  0  0  0  0  0
    6.0813   -8.5975    0.0000 C   0  0  0  0  0  0  0  0  0  0  0  0
    6.0813   -9.4225    0.0000 C   0  0  0  0  0  0  0  0  0  0  0  0
    5.3668   -9.8350    0.0000 C   0  0  0  0  0  0  0  0  0  0  0  0
    6.7957   -8.1850    0.0000 O   0  0  0  0  0  0  0  0  0  0  0  0
    6.7957   -7.3600    0.0000 C   0  0  0  0  0  0  0  0  0  0  0  0
    7.5102   -6.9475    0.0000 C   0  0  0  0  0  0  0  0  0  0  0  0
    7.5102   -6.1225    0.0000 C   0  0  0  0  0  0  0  0  0  0  0  0
    8.2247   -5.7100    0.0000 C   0  0  0  0  0  0  0  0  0  0  0  0
    8.9392   -6.1225    0.0000 C   0  0  0  0  0  0  0  0  0  0  0  0
    9.6536   -5.7100    0.0000 C   0  0  0  0  0  0  0  0  0  0  0  0
   10.3681   -6.1225    0.0000 C   0  0  0  0  0  0  0  0  0  0  0  0
   10.3681   -6.9475    0.0000 C   0  0  0  0  0  0  0  0  0  0  0  0
    9.6536   -7.3600    0.0000 C   0  0  0  0  0  0  0  0  0  0  0  0
    8.9392   -6.9475    0.0000 C   0  0  0  0  0  0  0  0  0  0  0  0
    8.2247   -7.3600    0.0000 N   0  0  0  0  0  0  0  0  0  0  0  0
   -0.5666  -16.6077    0.0000 H   0  0  0  0  0  0  0  0  0  0  0  0
    1.0521  -17.5102    0.0000 H   0  0  0  0  0  0  0  0  0  0  0  0
   -0.0177  -17.5263    0.0000 H   0  0  0  0  0  0  0  0  0  0  0  0
    2.4048  -15.1004    0.0000 H   0  0  0  0  0  0  0  0  0  0  0  0
   -0.8816  -14.4550    0.0000 H   0  0  0  0  0  0  0  0  0  0  0  0
   -1.3482  -13.5309    0.0000 H   0  0  0  0  0  0  0  0  0  0  0  0
   -1.7584  -12.9364    0.0000 H   0  0  0  0  0  0  0  0  0  0  0  0
   -1.3268  -11.9955    0.0000 H   0  0  0  0  0  0  0  0  0  0  0  0
   -1.9809  -11.8315    0.0000 H   0  0  0  0  0  0  0  0  0  0  0  0
   -1.5677  -10.0211    0.0000 H   0  0  0  0  0  0  0  0  0  0  0  0
    0.2067   -9.4737    0.0000 H   0  0  0  0  0  0  0  0  0  0  0  0
    1.5680  -10.7367    0.0000 H   0  0  0  0  0  0  0  0  0  0  0  0
    0.8678  -10.5375    0.0000 H   0  0  0  0  0  0  0  0  0  0  0  0
    1.7944  -10.0025    0.0000 H   0  0  0  0  0  0  0  0  0  0  0  0
    2.5089   -9.5900    0.0000 H   0  0  0  0  0  0  0  0  0  0  0  0
    3.4355  -10.1250    0.0000 H   0  0  0  0  0  0  0  0  0  0  0  0
    4.1500  -12.4325    0.0000 H   0  0  0  0  0  0  0  0  0  0  0  0
    3.2234  -12.9675    0.0000 H   0  0  0  0  0  0  0  0  0  0  0  0
    2.5089  -13.3800    0.0000 H   0  0  0  0  0  0  0  0  0  0  0  0
    1.5823  -12.8450    0.0000 H   0  0  0  0  0  0  0  0  0  0  0  0
    4.8645  -11.1950    0.0000 H   0  0  0  0  0  0  0  0  0  0  0  0
    4.8645  -10.1250    0.0000 H   0  0  0  0  0  0  0  0  0  0  0  0
    3.0112   -9.3000    0.0000 H   0  0  0  0  0  0  0  0  0  0  0  0
    3.9379   -8.7650    0.0000 H   0  0  0  0  0  0  0  0  0  0  0  0
    3.7586   -8.0815    0.0000 H   0  0  0  0  0  0  0  0  0  0  0  0
    5.3668   -7.1530    0.0000 H   0  0  0  0  0  0  0  0  0  0  0  0
    6.9750   -9.9385    0.0000 H   0  0  0  0  0  0  0  0  0  0  0  0
    5.3668  -10.8670    0.0000 H   0  0  0  0  0  0  0  0  0  0  0  0
    5.8691   -6.8250    0.0000 H   0  0  0  0  0  0  0  0  0  0  0  0
    6.7957   -6.2900    0.0000 H   0  0  0  0  0  0  0  0  0  0  0  0
    6.6165   -5.6065    0.0000 H   0  0  0  0  0  0  0  0  0  0  0  0
    8.2247   -4.6780    0.0000 H   0  0  0  0  0  0  0  0  0  0  0  0
    9.6536   -4.6780    0.0000 H   0  0  0  0  0  0  0  0  0  0  0  0
   11.2618   -5.6065    0.0000 H   0  0  0  0  0  0  0  0  0  0  0  0
   11.2618   -7.4635    0.0000 H   0  0  0  0  0  0  0  0  0  0  0  0
    9.6536   -8.3920    0.0000 H   0  0  0  0  0  0  0  0  0  0  0  0
  1  2  1  0  0  0  0
  1 45  1  0  0  0  0
  1 46  1  0  0  0  0
  1 47  1  0  0  0  0
  2  3  1  0  0  0  0
  3  4  2  0  0  0  0
  3  5  1  0  0  0  0
  5  6  2  0  0  0  0
  5  9  1  0  0  0  0
  6  7  1  0  0  0  0
  6 48  1  0  0  0  0
  7  8  2  0  0  0  0
  8  9  1  0  0  0  0
  8 18  1  0  0  0  0
  9 10  1  0  0  0  0
 10 11  1  0  0  0  0
 10 49  1  0  0  0  0
 10 50  1  0  0  0  0
 11 12  1  0  0  0  0
 11 51  1  0  0  0  0
 11 52  1  0  0  0  0
 12 13  2  0  0  0  0
 12 17  1  0  0  0  0
 13 14  1  0  0  0  0
 13 53  1  0  0  0  0
 14 15  2  0  0  0  0
 14 54  1  0  0  0  0
 15 16  1  0  0  0  0
 15 55  1  0  0  0  0
 16 17  2  0  0  0  0
 16 56  1  0  0  0  0
 17 18  1  0  0  0  0
 18 19  2  0  0  0  0
 19 20  1  0  0  0  0
 19 24  1  0  0  0  0
 20 21  1  0  0  0  0
 20 57  1  0  0  0  0
 20 58  1  0  0  0  0
 21 22  1  0  0  0  0
 21 59  1  0  0  0  0
 21 60  1  0  0  0  0
 22 23  1  0  0  0  0
 22 25  1  0  0  0  0
 23 24  1  0  0  0  0
 23 61  1  0  0  0  0
 23 62  1  0  0  0  0
 24 63  1  0  0  0  0
 24 64  1  0  0  0  0
 25 26  1  0  0  0  0
 25 65  1  0  0  0  0
 25 66  1  0  0  0  0
 26 27  1  0  0  0  0
 26 67  1  0  0  0  0
 26 68  1  0  0  0  0
 27 28  2  0  0  0  0
 27 32  1  0  0  0  0
 28 29  1  0  0  0  0
 28 69  1  0  0  0  0
 29 30  2  0  0  0  0
 29 70  1  0  0  0  0
 30 31  1  0  0  0  0
 30 33  1  0  0  0  0
 31 32  2  0  0  0  0
 31 71  1  0  0  0  0
 32 72  1  0  0  0  0
 33 34  1  0  0  0  0
 34 35  1  0  0  0  0
 34 73  1  0  0  0  0
 34 74  1  0  0  0  0
 35 36  2  0  0  0  0
 35 44  1  0  0  0  0
 36 37  1  0  0  0  0
 36 75  1  0  0  0  0
 37 38  2  0  0  0  0
 37 76  1  0  0  0  0
 38 39  1  0  0  0  0
 38 43  1  0  0  0  0
 39 40  2  0  0  0  0
 39 77  1  0  0  0  0
 40 41  1  0  0  0  0
 40 78  1  0  0  0  0
 41 42  2  0  0  0  0
 41 79  1  0  0  0  0
 42 43  1  0  0  0  0
 42 80  1  0  0  0  0
 43 44  2  0  0  0  0
M  END
>  <DRUGBANK_ID>
DB12799

>  <COMMON_NAME>
Laniquidar

>  <CAS_NUMBER>
197509-46-9

>  <UNII>
K3FRN4DDOY

>  <SYNONYMS>
Laniquidar

$$$$
