
 OpenBabel10282417072D

 42 44  0  0  0  0  0  0  0  0999 V2000
   -3.6719    1.1628    0.0000 C   0  0  0  0  0  0  0  0  0  0  0  0
   -3.6719    1.9920    0.0000 N   0  0  0  0  0  0  0  0  0  0  0  0
   -2.9563    2.4107    0.0000 C   0  0  0  0  0  0  0  0  0  0  0  0
   -2.2408    1.9920    0.0000 C   0  0  0  0  0  0  0  0  0  0  0  0
   -2.2408    1.1618    0.0000 C   0  0  0  0  0  0  0  0  0  0  0  0
   -2.9563    0.7523    0.0000 N   0  0  0  0  0  0  0  0  0  0  0  0
   -1.4511    0.9051    0.0000 N   0  0  0  0  0  0  0  0  0  0  0  0
   -0.9631    1.5769    0.0000 C   0  0  0  0  0  0  0  0  0  0  0  0
   -1.4511    2.2484    0.0000 N   0  0  0  0  0  0  0  0  0  0  0  0
   -1.1964    0.1210    0.0000 C   0  0  3  0  0  0  0  0  0  0  0  0
   -1.6831   -0.5444    0.0000 C   0  0  3  0  0  0  0  0  0  0  0  0
   -1.1981   -1.2126    0.0000 C   0  0  3  0  0  0  0  0  0  0  0  0
   -0.4120   -0.9597    0.0000 C   0  0  3  0  0  0  0  0  0  0  0  0
   -0.4112   -0.1314    0.0000 O   0  0  0  0  0  0  0  0  0  0  0  0
    0.2540   -1.4454    0.0000 C   0  0  0  0  0  0  0  0  0  0  0  0
    1.0077   -1.1115    0.0000 O   0  0  0  0  0  0  0  0  0  0  0  0
    1.6738   -1.5974    0.0000 W   0  0  3  0  0  0  0  0  0  0  0  0
    2.1597   -0.9314    0.0000 O   0  0  0  0  0  0  0  0  0  0  0  0
    1.1879   -2.2635    0.0000 O   0  0  0  0  0  0  0  0  0  0  0  0
    2.3399   -2.0833    0.0000 O   0  0  0  0  0  0  0  0  0  0  0  0
    3.0059   -2.5691    0.0000 W   0  0  0  0  0  0  0  0  0  0  0  0
    3.6719   -3.0550    0.0000 O   0  0  0  0  0  0  0  0  0  0  0  0
    3.4918   -1.9031    0.0000 O   0  0  0  0  0  0  0  0  0  0  0  0
    2.5201   -3.2352    0.0000 O   0  0  0  0  0  0  0  0  0  0  0  0
   -1.4542   -1.9961    0.0000 O   0  0  0  0  0  0  0  0  0  0  0  0
   -2.5075   -0.5428    0.0000 O   0  0  0  0  0  0  0  0  0  0  0  0
   -2.9563    3.2352    0.0000 N   0  0  0  0  0  0  0  0  0  0  0  0
   -4.5649    0.6456    0.0000 H   0  0  0  0  0  0  0  0  0  0  0  0
    0.0689    1.5770    0.0000 H   0  0  0  0  0  0  0  0  0  0  0  0
   -2.2530    0.2901    0.0000 H   0  0  0  0  0  0  0  0  0  0  0  0
   -0.6131   -0.5464    0.0000 H   0  0  0  0  0  0  0  0  0  0  0  0
   -0.8657   -0.1955    0.0000 H   0  0  0  0  0  0  0  0  0  0  0  0
   -1.2764   -0.3291    0.0000 H   0  0  0  0  0  0  0  0  0  0  0  0
    0.1402   -2.5093    0.0000 H   0  0  0  0  0  0  0  0  0  0  0  0
    1.1185   -2.0759    0.0000 H   0  0  0  0  0  0  0  0  0  0  0  0
    0.2234   -2.1603    0.0000 H   0  0  0  0  0  0  0  0  0  0  0  0
    4.4563   -2.0064    0.0000 H   0  0  0  0  0  0  0  0  0  0  0  0
    1.5556   -3.1321    0.0000 H   0  0  0  0  0  0  0  0  0  0  0  0
   -2.4034   -2.1961    0.0000 H   0  0  0  0  0  0  0  0  0  0  0  0
   -2.9909    0.2982    0.0000 H   0  0  0  0  0  0  0  0  0  0  0  0
   -2.1037    3.7275    0.0000 H   0  0  0  0  0  0  0  0  0  0  0  0
   -3.8089    3.7274    0.0000 H   0  0  0  0  0  0  0  0  0  0  0  0
  1  2  2  0  0  0  0
  1  6  1  0  0  0  0
  1 28  1  0  0  0  0
  2  3  1  0  0  0  0
  3  4  2  0  0  0  0
  3 27  1  0  0  0  0
  4  5  1  0  0  0  0
  4  9  1  0  0  0  0
  5  6  2  0  0  0  0
  5  7  1  0  0  0  0
  7  8  1  0  0  0  0
  7 10  1  0  0  0  0
  8  9  2  0  0  0  0
  8 29  1  0  0  0  0
 10 11  1  0  0  0  0
 10 14  1  0  0  0  0
 10 30  1  0  0  0  0
 11 12  1  0  0  0  0
 11 26  1  0  0  0  0
 11 31  1  0  0  0  0
 12 13  1  0  0  0  0
 12 25  1  0  0  0  0
 12 32  1  0  0  0  0
 13 14  1  0  0  0  0
 13 15  1  0  0  0  0
 13 33  1  0  0  0  0
 15 16  1  0  0  0  0
 15 34  1  0  0  0  0
 15 35  1  0  0  0  0
 16 17  1  0  0  0  0
 17 18  2  0  0  0  0
 17 19  1  0  0  0  0
 17 20  1  0  0  0  0
 19 36  1  0  0  0  0
 20 21  1  0  0  0  0
 21 22  2  0  0  0  0
 21 23  1  0  0  0  0
 21 24  1  0  0  0  0
 23 37  1  0  0  0  0
 24 38  1  0  0  0  0
 25 39  1  0  0  0  0
 26 40  1  0  0  0  0
 27 41  1  0  0  0  0
 27 42  1  0  0  0  0
M  END
>  <DRUGBANK_ID>
DB02183

>  <SECONDARY_ACCESSION_NUMBERS>
EXPT00440

>  <COMMON_NAME>
Adenosine-5'-ditungstate

$$$$
