
 OpenBabel10282417072D

 45 48  0  0  0  0  0  0  0  0999 V2000
   -1.0719   -0.4145    0.0000 C   0  0  0  0  0  0  0  0  0  0  0  0
   -1.0629   -1.2392    0.0000 C   0  0  0  0  0  0  0  0  0  0  0  0
   -1.7866   -0.0023    0.0000 C   0  0  0  0  0  0  0  0  0  0  0  0
   -1.7775   -1.6608    0.0000 C   0  0  0  0  0  0  0  0  0  0  0  0
   -2.4968   -0.4238    0.0000 C   0  0  0  0  0  0  0  0  0  0  0  0
   -2.4968   -1.2484    0.0000 C   0  0  0  0  0  0  0  0  0  0  0  0
   -0.3619   -0.0023    0.0000 C   0  0  2  0  0  0  0  0  0  0  0  0
   -1.7912    0.8223    0.0000 O   0  0  0  0  0  0  0  0  0  0  0  0
   -1.7775   -2.4853    0.0000 O   0  0  0  0  0  0  0  0  0  0  0  0
    1.7821    1.2392    0.0000 C   0  0  0  0  0  0  0  0  0  0  0  0
   -0.3481   -1.6515    0.0000 O   0  0  0  0  0  0  0  0  0  0  0  0
    1.0629    0.8268    0.0000 C   0  0  1  0  0  0  0  0  0  0  0  0
   -0.3619    0.8223    0.0000 C   0  0  0  0  0  0  0  0  0  0  0  0
    0.3574   -0.4100    0.0000 C   0  0  0  0  0  0  0  0  0  0  0  0
    1.0720    0.0022    0.0000 C   0  0  0  0  0  0  0  0  0  0  0  0
    0.3527    1.2392    0.0000 C   0  0  0  0  0  0  0  0  0  0  0  0
    2.4968    0.8268    0.0000 C   0  0  0  0  0  0  0  0  0  0  0  0
    1.7775    2.0592    0.0000 C   0  0  0  0  0  0  0  0  0  0  0  0
    3.2068    2.0637    0.0000 C   0  0  0  0  0  0  0  0  0  0  0  0
    2.4877    2.4761    0.0000 C   0  0  0  0  0  0  0  0  0  0  0  0
    3.2068    1.2392    0.0000 C   0  0  0  0  0  0  0  0  0  0  0  0
    3.9215    2.4853    0.0000 Cl  0  0  0  0  0  0  0  0  0  0  0  0
   -3.2114   -0.0115    0.0000 C   0  0  0  0  0  0  0  0  0  0  0  0
   -3.2114   -1.6653    0.0000 C   0  0  0  0  0  0  0  0  0  0  0  0
   -3.9215   -0.4238    0.0000 C   0  0  0  0  0  0  0  0  0  0  0  0
   -3.9215   -1.2529    0.0000 C   0  0  0  0  0  0  0  0  0  0  0  0
   -1.2892    0.5316    0.0000 H   0  0  0  0  0  0  0  0  0  0  0  0
   -0.3477   -2.5885    0.0000 H   0  0  0  0  0  0  0  0  0  0  0  0
    1.9917    0.2955    0.0000 H   0  0  0  0  0  0  0  0  0  0  0  0
   -1.2898    1.3552    0.0000 H   0  0  0  0  0  0  0  0  0  0  0  0
   -0.3655    1.8923    0.0000 H   0  0  0  0  0  0  0  0  0  0  0  0
    0.3614   -1.4800    0.0000 H   0  0  0  0  0  0  0  0  0  0  0  0
    1.2850   -0.9434    0.0000 H   0  0  0  0  0  0  0  0  0  0  0  0
    2.0015   -0.5279    0.0000 H   0  0  0  0  0  0  0  0  0  0  0  0
    1.0746   -1.0678    0.0000 H   0  0  0  0  0  0  0  0  0  0  0  0
    0.3516    2.3092    0.0000 H   0  0  0  0  0  0  0  0  0  0  0  0
    1.2797    1.7735    0.0000 H   0  0  0  0  0  0  0  0  0  0  0  0
    2.4983   -0.2052    0.0000 H   0  0  0  0  0  0  0  0  0  0  0  0
    0.8805    2.5695    0.0000 H   0  0  0  0  0  0  0  0  0  0  0  0
    2.4825    3.5081    0.0000 H   0  0  0  0  0  0  0  0  0  0  0  0
    4.1012    0.7244    0.0000 H   0  0  0  0  0  0  0  0  0  0  0  0
   -3.2128    1.0205    0.0000 H   0  0  0  0  0  0  0  0  0  0  0  0
   -3.2104   -2.6973    0.0000 H   0  0  0  0  0  0  0  0  0  0  0  0
   -4.8159    0.0911    0.0000 H   0  0  0  0  0  0  0  0  0  0  0  0
   -4.8159   -1.7678    0.0000 H   0  0  0  0  0  0  0  0  0  0  0  0
  2  1  2  0  0  0  0
  3  1  1  0  0  0  0
  4  2  1  0  0  0  0
  5  3  1  0  0  0  0
  6  5  1  0  0  0  0
  6  4  1  0  0  0  0
  7  1  1  0  0  0  0
  7 27  1  1  0  0  0
  8  3  2  0  0  0  0
  9  4  2  0  0  0  0
 11  2  1  0  0  0  0
 11 28  1  0  0  0  0
 12 10  1  0  0  0  0
 12 15  1  0  0  0  0
 12 29  1  6  0  0  0
 13  7  1  0  0  0  0
 13 30  1  0  0  0  0
 13 31  1  0  0  0  0
 14  7  1  0  0  0  0
 14 32  1  0  0  0  0
 14 33  1  0  0  0  0
 15 14  1  0  0  0  0
 15 34  1  0  0  0  0
 15 35  1  0  0  0  0
 16 13  1  0  0  0  0
 16 12  1  0  0  0  0
 16 36  1  0  0  0  0
 16 37  1  0  0  0  0
 17 10  2  0  0  0  0
 17 38  1  0  0  0  0
 18 10  1  0  0  0  0
 18 39  1  0  0  0  0
 19 20  1  0  0  0  0
 20 18  2  0  0  0  0
 20 40  1  0  0  0  0
 21 17  1  0  0  0  0
 21 19  2  0  0  0  0
 21 41  1  0  0  0  0
 22 19  1  0  0  0  0
 23  5  2  0  0  0  0
 23 42  1  0  0  0  0
 24  6  2  0  0  0  0
 24 43  1  0  0  0  0
 25 23  1  0  0  0  0
 25 44  1  0  0  0  0
 26 25  2  0  0  0  0
 26 24  1  0  0  0  0
 26 45  1  0  0  0  0
M  END
>  <DRUGBANK_ID>
DB01117

>  <SECONDARY_ACCESSION_NUMBERS>
APRD00805

>  <COMMON_NAME>
Atovaquone

>  <CAS_NUMBER>
95233-18-4

>  <UNII>
Y883P1Z2LT

>  <SYNONYMS>
2-(trans-4-(p-Chlorophenyl)cyclohexyl)-3-hydroxy-1,4-naphthoquinone; Atovacuona; Atovaquone

$$$$
