
 OpenBabel10282417072D

219225  0  0  0  0  0  0  0  0999 V2000
    0.7261   -2.3537    0.0000 C   0  0  2  0  0  0  0  0  0  0  0  0
   -0.5126   -1.6396    0.0000 C   0  0  1  0  0  0  0  0  0  0  0  0
   -0.0947   -2.3537    0.0000 C   0  0  1  0  0  0  0  0  0  0  0  0
   -2.4557   -2.7764    0.0000 C   0  0  1  0  0  0  0  0  0  0  0  0
   -2.0477   -2.0622    0.0000 C   0  0  1  0  0  0  0  0  0  0  0  0
   -3.2817   -2.7764    0.0000 C   0  0  2  0  0  0  0  0  0  0  0  0
   -1.3335   -1.6396    0.0000 O   0  0  0  0  0  0  0  0  0  0  0  0
    1.4403   -2.7617    0.0000 O   0  0  0  0  0  0  0  0  0  0  0  0
    1.8484   -3.4760    0.0000 C   0  0  1  0  0  0  0  0  0  0  0  0
   -3.7043   -2.0622    0.0000 C   0  0  2  0  0  0  0  0  0  0  0  0
    1.1441   -1.6396    0.0000 C   0  0  2  0  0  0  0  0  0  0  0  0
   -0.0947   -0.9254    0.0000 C   0  0  1  0  0  0  0  0  0  0  0  0
    2.6791   -3.4760    0.0000 O   0  0  0  0  0  0  0  0  0  0  0  0
   -2.4557   -1.3481    0.0000 O   0  0  0  0  0  0  0  0  0  0  0  0
    0.7261   -0.9254    0.0000 C   0  0  0  0  0  0  0  0  0  0  0  0
   -3.2817   -1.3481    0.0000 C   0  0  0  0  0  0  0  0  0  0  0  0
    1.4403   -4.1900    0.0000 C   0  0  1  0  0  0  0  0  0  0  0  0
   -3.6945   -3.4904    0.0000 N   0  0  0  0  0  0  0  0  0  0  0  0
   -2.0429   -3.4904    0.0000 O   0  0  0  0  0  0  0  0  0  0  0  0
   -0.5126   -3.0678    0.0000 O   0  0  0  0  0  0  0  0  0  0  0  0
    1.8484   -4.9042    0.0000 C   0  0  0  0  0  0  0  0  0  0  0  0
    1.9649   -1.6396    0.0000 N   0  0  0  0  0  0  0  0  0  0  0  0
   -0.5126   -0.2113    0.0000 N   0  0  0  0  0  0  0  0  0  0  0  0
    3.0872   -4.1900    0.0000 C   0  0  1  0  0  0  0  0  0  0  0  0
   -4.4186   -1.6492    0.0000 O   0  0  0  0  0  0  0  0  0  0  0  0
    0.6095   -4.1900    0.0000 N   0  0  0  0  0  0  0  0  0  0  0  0
    2.6791   -4.9042    0.0000 C   0  0  0  0  0  0  0  0  0  0  0  0
    4.5155   -4.1755    0.0000 N   0  0  0  0  0  0  0  0  0  0  0  0
   -4.4186   -2.4703    0.0000 C   0  0  0  0  0  0  0  0  0  0  0  0
    3.7965   -3.7674    0.0000 C   0  0  0  0  0  0  0  0  0  0  0  0
   -4.5206   -3.4904    0.0000 C   0  0  0  0  0  0  0  0  0  0  0  0
   -1.3335   -2.4703    0.0000 H   0  0  0  0  0  0  0  0  0  0  0  0
    3.8013   -4.6078    0.0000 H   0  0  0  0  0  0  0  0  0  0  0  0
    0.7261   -3.1795    0.0000 H   0  0  0  0  0  0  0  0  0  0  0  0
   -5.0452    2.7617    0.0000 C   0  0  2  0  0  0  0  0  0  0  0  0
   -6.2840    3.4760    0.0000 C   0  0  1  0  0  0  0  0  0  0  0  0
   -5.8760    2.7617    0.0000 C   0  0  1  0  0  0  0  0  0  0  0  0
   -8.2369    2.3391    0.0000 C   0  0  1  0  0  0  0  0  0  0  0  0
   -7.8289    3.0534    0.0000 C   0  0  1  0  0  0  0  0  0  0  0  0
   -9.0580    2.3391    0.0000 C   0  0  2  0  0  0  0  0  0  0  0  0
   -3.9230    1.6299    0.0000 C   0  0  1  0  0  0  0  0  0  0  0  0
   -7.1147    3.4662    0.0000 O   0  0  0  0  0  0  0  0  0  0  0  0
   -4.3310    2.3440    0.0000 O   0  0  0  0  0  0  0  0  0  0  0  0
   -3.0970    1.6299    0.0000 O   0  0  0  0  0  0  0  0  0  0  0  0
   -9.4758    3.0534    0.0000 C   0  0  2  0  0  0  0  0  0  0  0  0
   -4.6371    3.4760    0.0000 C   0  0  2  0  0  0  0  0  0  0  0  0
   -5.8760    4.1900    0.0000 C   0  0  1  0  0  0  0  0  0  0  0  0
   -8.2369    3.7674    0.0000 O   0  0  0  0  0  0  0  0  0  0  0  0
   -5.0452    4.1900    0.0000 C   0  0  0  0  0  0  0  0  0  0  0  0
   -2.6842    0.9158    0.0000 C   0  0  1  0  0  0  0  0  0  0  0  0
   -9.0580    3.7674    0.0000 C   0  0  0  0  0  0  0  0  0  0  0  0
   -4.3358    0.9158    0.0000 C   0  0  1  0  0  0  0  0  0  0  0  0
   -9.4758    1.6250    0.0000 N   0  0  0  0  0  0  0  0  0  0  0  0
   -3.0970    0.2016    0.0000 C   0  0  0  0  0  0  0  0  0  0  0  0
   -3.9230    0.2016    0.0000 C   0  0  0  0  0  0  0  0  0  0  0  0
   -7.8191    1.6250    0.0000 O   0  0  0  0  0  0  0  0  0  0  0  0
   -6.2840    2.0477    0.0000 O   0  0  0  0  0  0  0  0  0  0  0  0
   -6.2840    4.9042    0.0000 N   0  0  0  0  0  0  0  0  0  0  0  0
   -3.8064    3.4662    0.0000 N   0  0  0  0  0  0  0  0  0  0  0  0
   -1.9748    1.3335    0.0000 C   0  0  3  0  0  0  0  0  0  0  0  0
  -10.2045    3.4613    0.0000 O   0  0  0  0  0  0  0  0  0  0  0  0
   -1.9846    2.1642    0.0000 N   0  0  0  0  0  0  0  0  0  0  0  0
   -5.1617    0.9158    0.0000 N   0  0  0  0  0  0  0  0  0  0  0  0
  -10.2045    2.6452    0.0000 C   0  0  0  0  0  0  0  0  0  0  0  0
  -10.2966    1.6250    0.0000 C   0  0  0  0  0  0  0  0  0  0  0  0
   -1.2704    2.5868    0.0000 C   0  0  0  0  0  0  0  0  0  0  0  0
   -1.2558    0.9303    0.0000 C   0  0  0  0  0  0  0  0  0  0  0  0
   -5.0500    1.9310    0.0000 H   0  0  0  0  0  0  0  0  0  0  0  0
   -7.1147    2.6356    0.0000 H   0  0  0  0  0  0  0  0  0  0  0  0
   -1.9748    0.5027    0.0000 H   0  0  0  0  0  0  0  0  0  0  0  0
    6.5074    2.7617    0.0000 C   0  0  2  0  0  0  0  0  0  0  0  0
    5.2685    3.4760    0.0000 C   0  0  1  0  0  0  0  0  0  0  0  0
    5.6814    2.7617    0.0000 C   0  0  1  0  0  0  0  0  0  0  0  0
    3.3203    2.3391    0.0000 C   0  0  1  0  0  0  0  0  0  0  0  0
    3.7284    3.0534    0.0000 C   0  0  1  0  0  0  0  0  0  0  0  0
    2.4895    2.3391    0.0000 C   0  0  2  0  0  0  0  0  0  0  0  0
    7.6296    1.6299    0.0000 C   0  0  1  0  0  0  0  0  0  0  0  0
    4.4426    3.4662    0.0000 O   0  0  0  0  0  0  0  0  0  0  0  0
    7.2215    2.3440    0.0000 O   0  0  0  0  0  0  0  0  0  0  0  0
    8.4505    1.6299    0.0000 O   0  0  0  0  0  0  0  0  0  0  0  0
    2.0768    3.0534    0.0000 C   0  0  2  0  0  0  0  0  0  0  0  0
    6.9203    3.4760    0.0000 C   0  0  2  0  0  0  0  0  0  0  0  0
    5.6814    4.1900    0.0000 C   0  0  1  0  0  0  0  0  0  0  0  0
    3.3203    3.7674    0.0000 O   0  0  0  0  0  0  0  0  0  0  0  0
    6.5074    4.1900    0.0000 C   0  0  0  0  0  0  0  0  0  0  0  0
    8.8683    0.9158    0.0000 C   0  0  1  0  0  0  0  0  0  0  0  0
    2.4895    3.7674    0.0000 C   0  0  0  0  0  0  0  0  0  0  0  0
    7.2117    0.9158    0.0000 C   0  0  1  0  0  0  0  0  0  0  0  0
    2.0816    1.6250    0.0000 N   0  0  0  0  0  0  0  0  0  0  0  0
    8.4505    0.2016    0.0000 C   0  0  0  0  0  0  0  0  0  0  0  0
    7.6296    0.2016    0.0000 C   0  0  0  0  0  0  0  0  0  0  0  0
    3.7284    1.6250    0.0000 O   0  0  0  0  0  0  0  0  0  0  0  0
    5.2685    2.0477    0.0000 O   0  0  0  0  0  0  0  0  0  0  0  0
    5.2685    4.9042    0.0000 N   0  0  0  0  0  0  0  0  0  0  0  0
    7.7462    3.4662    0.0000 N   0  0  0  0  0  0  0  0  0  0  0  0
    9.5728    1.3335    0.0000 C   0  0  3  0  0  0  0  0  0  0  0  0
    1.3528    3.4613    0.0000 O   0  0  0  0  0  0  0  0  0  0  0  0
    6.3859    0.9158    0.0000 N   0  0  0  0  0  0  0  0  0  0  0  0
    9.5728    2.1642    0.0000 N   0  0  0  0  0  0  0  0  0  0  0  0
    1.3528    2.6452    0.0000 C   0  0  0  0  0  0  0  0  0  0  0  0
    1.2509    1.6250    0.0000 C   0  0  0  0  0  0  0  0  0  0  0  0
   10.2966    0.9303    0.0000 C   0  0  0  0  0  0  0  0  0  0  0  0
    4.4426    2.6356    0.0000 H   0  0  0  0  0  0  0  0  0  0  0  0
    6.4975    1.9310    0.0000 H   0  0  0  0  0  0  0  0  0  0  0  0
    9.5728    0.5027    0.0000 H   0  0  0  0  0  0  0  0  0  0  0  0
   -1.0449   -2.5678    0.0000 H   0  0  0  0  0  0  0  0  0  0  0  0
   -1.1647   -2.3537    0.0000 H   0  0  0  0  0  0  0  0  0  0  0  0
   -1.3857   -2.7736    0.0000 H   0  0  0  0  0  0  0  0  0  0  0  0
   -2.7470   -3.7032    0.0000 H   0  0  0  0  0  0  0  0  0  0  0  0
    2.3855   -2.5506    0.0000 H   0  0  0  0  0  0  0  0  0  0  0  0
    1.6763   -2.5678    0.0000 H   0  0  0  0  0  0  0  0  0  0  0  0
    0.4376    0.0028    0.0000 H   0  0  0  0  0  0  0  0  0  0  0  0
    1.2584    0.0028    0.0000 H   0  0  0  0  0  0  0  0  0  0  0  0
    1.7961   -0.9206    0.0000 H   0  0  0  0  0  0  0  0  0  0  0  0
   -3.8117   -0.4186    0.0000 H   0  0  0  0  0  0  0  0  0  0  0  0
   -2.7442   -0.4229    0.0000 H   0  0  0  0  0  0  0  0  0  0  0  0
    0.9033   -3.2645    0.0000 H   0  0  0  0  0  0  0  0  0  0  0  0
   -3.1848   -4.3739    0.0000 H   0  0  0  0  0  0  0  0  0  0  0  0
   -2.5274   -4.3307    0.0000 H   0  0  0  0  0  0  0  0  0  0  0  0
   -1.4826   -3.0621    0.0000 H   0  0  0  0  0  0  0  0  0  0  0  0
    1.3113   -5.8296    0.0000 H   0  0  0  0  0  0  0  0  0  0  0  0
    2.3824   -5.8314    0.0000 H   0  0  0  0  0  0  0  0  0  0  0  0
    2.4749   -2.5229    0.0000 H   0  0  0  0  0  0  0  0  0  0  0  0
    2.4749   -0.7563    0.0000 H   0  0  0  0  0  0  0  0  0  0  0  0
   -0.0078    0.6750    0.0000 H   0  0  0  0  0  0  0  0  0  0  0  0
   -1.5326   -0.2173    0.0000 H   0  0  0  0  0  0  0  0  0  0  0  0
   -4.4180   -0.6792    0.0000 H   0  0  0  0  0  0  0  0  0  0  0  0
    0.0995   -3.3067    0.0000 H   0  0  0  0  0  0  0  0  0  0  0  0
    0.0995   -5.0733    0.0000 H   0  0  0  0  0  0  0  0  0  0  0  0
    3.2162   -5.8296    0.0000 H   0  0  0  0  0  0  0  0  0  0  0  0
    3.7491   -4.9006    0.0000 H   0  0  0  0  0  0  0  0  0  0  0  0
    4.5230   -5.1955    0.0000 H   0  0  0  0  0  0  0  0  0  0  0  0
    5.3951   -3.6590    0.0000 H   0  0  0  0  0  0  0  0  0  0  0  0
   -5.3428   -1.9311    0.0000 H   0  0  0  0  0  0  0  0  0  0  0  0
   -4.4234   -3.5403    0.0000 H   0  0  0  0  0  0  0  0  0  0  0  0
   -5.3477   -3.0011    0.0000 H   0  0  0  0  0  0  0  0  0  0  0  0
    3.7852   -2.6975    0.0000 H   0  0  0  0  0  0  0  0  0  0  0  0
    2.8634   -3.2437    0.0000 H   0  0  0  0  0  0  0  0  0  0  0  0
   -5.0556   -2.5638    0.0000 H   0  0  0  0  0  0  0  0  0  0  0  0
   -5.0556   -4.4170    0.0000 H   0  0  0  0  0  0  0  0  0  0  0  0
   -5.5906   -3.4904    0.0000 H   0  0  0  0  0  0  0  0  0  0  0  0
   -6.8265    4.3983    0.0000 H   0  0  0  0  0  0  0  0  0  0  0  0
   -6.9460    2.7618    0.0000 H   0  0  0  0  0  0  0  0  0  0  0  0
   -7.1669    2.3447    0.0000 H   0  0  0  0  0  0  0  0  0  0  0  0
  -10.1280    2.3392    0.0000 H   0  0  0  0  0  0  0  0  0  0  0  0
   -3.3859    2.5553    0.0000 H   0  0  0  0  0  0  0  0  0  0  0  0
   -4.1055    2.5474    0.0000 H   0  0  0  0  0  0  0  0  0  0  0  0
   -6.9460    4.1901    0.0000 H   0  0  0  0  0  0  0  0  0  0  0  0
   -4.5082    5.1155    0.0000 H   0  0  0  0  0  0  0  0  0  0  0  0
   -3.9752    4.1865    0.0000 H   0  0  0  0  0  0  0  0  0  0  0  0
   -9.5903    4.6956    0.0000 H   0  0  0  0  0  0  0  0  0  0  0  0
   -8.5216    4.6933    0.0000 H   0  0  0  0  0  0  0  0  0  0  0  0
   -4.8705    1.8426    0.0000 H   0  0  0  0  0  0  0  0  0  0  0  0
   -8.9684    0.7402    0.0000 H   0  0  0  0  0  0  0  0  0  0  0  0
   -2.5622   -0.7252    0.0000 H   0  0  0  0  0  0  0  0  0  0  0  0
   -2.0270    0.2012    0.0000 H   0  0  0  0  0  0  0  0  0  0  0  0
   -4.4578   -0.7252    0.0000 H   0  0  0  0  0  0  0  0  0  0  0  0
   -4.9930    0.2012    0.0000 H   0  0  0  0  0  0  0  0  0  0  0  0
   -8.2992    0.7822    0.0000 H   0  0  0  0  0  0  0  0  0  0  0  0
   -7.2540    2.0434    0.0000 H   0  0  0  0  0  0  0  0  0  0  0  0
   -5.7700    5.7852    0.0000 H   0  0  0  0  0  0  0  0  0  0  0  0
   -7.3040    4.9089    0.0000 H   0  0  0  0  0  0  0  0  0  0  0  0
   -3.3069    2.5769    0.0000 H   0  0  0  0  0  0  0  0  0  0  0  0
   -3.2860    4.3435    0.0000 H   0  0  0  0  0  0  0  0  0  0  0  0
   -1.9635    0.2636    0.0000 H   0  0  0  0  0  0  0  0  0  0  0  0
  -10.2174    4.4312    0.0000 H   0  0  0  0  0  0  0  0  0  0  0  0
   -2.8736    2.6642    0.0000 H   0  0  0  0  0  0  0  0  0  0  0  0
   -5.6717    1.7991    0.0000 H   0  0  0  0  0  0  0  0  0  0  0  0
   -5.6717    0.0325    0.0000 H   0  0  0  0  0  0  0  0  0  0  0  0
  -11.1241    3.1922    0.0000 H   0  0  0  0  0  0  0  0  0  0  0  0
  -10.2184    1.5753    0.0000 H   0  0  0  0  0  0  0  0  0  0  0  0
  -11.1380    2.1223    0.0000 H   0  0  0  0  0  0  0  0  0  0  0  0
  -10.8316    2.5516    0.0000 H   0  0  0  0  0  0  0  0  0  0  0  0
  -10.8316    0.6984    0.0000 H   0  0  0  0  0  0  0  0  0  0  0  0
  -11.3666    1.6250    0.0000 H   0  0  0  0  0  0  0  0  0  0  0  0
   -0.3381    2.0617    0.0000 H   0  0  0  0  0  0  0  0  0  0  0  0
   -1.2819    3.6567    0.0000 H   0  0  0  0  0  0  0  0  0  0  0  0
   -0.3495    3.1317    0.0000 H   0  0  0  0  0  0  0  0  0  0  0  0
   -1.2424   -0.1396    0.0000 H   0  0  0  0  0  0  0  0  0  0  0  0
   -0.3359    1.4769    0.0000 H   0  0  0  0  0  0  0  0  0  0  0  0
   -0.3225    0.4069    0.0000 H   0  0  0  0  0  0  0  0  0  0  0  0
    4.7393    2.5461    0.0000 H   0  0  0  0  0  0  0  0  0  0  0  0
    4.6114    2.7618    0.0000 H   0  0  0  0  0  0  0  0  0  0  0  0
    4.3903    2.3392    0.0000 H   0  0  0  0  0  0  0  0  0  0  0  0
    3.0266    1.4137    0.0000 H   0  0  0  0  0  0  0  0  0  0  0  0
    8.1666    2.5554    0.0000 H   0  0  0  0  0  0  0  0  0  0  0  0
    7.4495    2.5461    0.0000 H   0  0  0  0  0  0  0  0  0  0  0  0
    6.2161    5.1168    0.0000 H   0  0  0  0  0  0  0  0  0  0  0  0
    7.0421    5.1168    0.0000 H   0  0  0  0  0  0  0  0  0  0  0  0
    7.5774    4.1906    0.0000 H   0  0  0  0  0  0  0  0  0  0  0  0
    1.9547    4.6942    0.0000 H   0  0  0  0  0  0  0  0  0  0  0  0
    3.0246    4.6940    0.0000 H   0  0  0  0  0  0  0  0  0  0  0  0
    6.6794    1.8440    0.0000 H   0  0  0  0  0  0  0  0  0  0  0  0
    2.5936    0.7428    0.0000 H   0  0  0  0  0  0  0  0  0  0  0  0
    8.9829   -0.7266    0.0000 H   0  0  0  0  0  0  0  0  0  0  0  0
    9.5205    0.1970    0.0000 H   0  0  0  0  0  0  0  0  0  0  0  0
    7.0973   -0.7266    0.0000 H   0  0  0  0  0  0  0  0  0  0  0  0
    6.5596    0.1969    0.0000 H   0  0  0  0  0  0  0  0  0  0  0  0
    3.2397    0.7871    0.0000 H   0  0  0  0  0  0  0  0  0  0  0  0
    4.2985    2.0484    0.0000 H   0  0  0  0  0  0  0  0  0  0  0  0
    5.7780    5.7878    0.0000 H   0  0  0  0  0  0  0  0  0  0  0  0
    4.2485    4.9036    0.0000 H   0  0  0  0  0  0  0  0  0  0  0  0
    8.2457    2.5769    0.0000 H   0  0  0  0  0  0  0  0  0  0  0  0
    8.2666    4.3434    0.0000 H   0  0  0  0  0  0  0  0  0  0  0  0
    9.5872    0.2636    0.0000 H   0  0  0  0  0  0  0  0  0  0  0  0
    1.3426    4.4312    0.0000 H   0  0  0  0  0  0  0  0  0  0  0  0
    5.8759    1.7991    0.0000 H   0  0  0  0  0  0  0  0  0  0  0  0
    5.8759    0.0325    0.0000 H   0  0  0  0  0  0  0  0  0  0  0  0
   10.4561    2.6742    0.0000 H   0  0  0  0  0  0  0  0  0  0  0  0
    8.6895    2.6742    0.0000 H   0  0  0  0  0  0  0  0  0  0  0  0
    0.4317    3.1896    0.0000 H   0  0  0  0  0  0  0  0  0  0  0  0
    1.3419    1.5753    0.0000 H   0  0  0  0  0  0  0  0  0  0  0  0
    0.4207    2.1197    0.0000 H   0  0  0  0  0  0  0  0  0  0  0  0
    0.7159    2.5516    0.0000 H   0  0  0  0  0  0  0  0  0  0  0  0
    0.7159    0.6984    0.0000 H   0  0  0  0  0  0  0  0  0  0  0  0
    0.1809    1.6250    0.0000 H   0  0  0  0  0  0  0  0  0  0  0  0
   10.3130   -0.1396    0.0000 H   0  0  0  0  0  0  0  0  0  0  0  0
   11.2149    1.4795    0.0000 H   0  0  0  0  0  0  0  0  0  0  0  0
   11.2314    0.4096    0.0000 H   0  0  0  0  0  0  0  0  0  0  0  0
  1 34  1  6  0  0  0
  2  3  1  0  0  0  0
  2  7  1  0  0  0  0
  2106  1  6  0  0  0
  3  1  1  0  0  0  0
  3 20  1  0  0  0  0
  3107  1  1  0  0  0
  4  5  1  0  0  0  0
  4 19  1  0  0  0  0
  4108  1  1  0  0  0
  5  7  1  0  0  0  0
  5 32  1  1  0  0  0
  6  4  1  0  0  0  0
  6 18  1  0  0  0  0
  6 10  1  0  0  0  0
  6109  1  6  0  0  0
  8  1  1  0  0  0  0
  9  8  1  0  0  0  0
  9110  1  6  0  0  0
 10 16  1  0  0  0  0
 10 25  1  1  0  0  0
 11  1  1  0  0  0  0
 11 22  1  0  0  0  0
 11111  1  1  0  0  0
 12 15  1  0  0  0  0
 12 23  1  0  0  0  0
 12  2  1  0  0  0  0
 12112  1  1  0  0  0
 13  9  1  0  0  0  0
 14  5  1  0  0  0  0
 15 11  1  0  0  0  0
 15113  1  0  0  0  0
 15114  1  0  0  0  0
 16 14  1  0  0  0  0
 16115  1  0  0  0  0
 16116  1  0  0  0  0
 17  9  1  0  0  0  0
 17 26  1  0  0  0  0
 17117  1  6  0  0  0
 18118  1  0  0  0  0
 19119  1  0  0  0  0
 20120  1  0  0  0  0
 21 17  1  0  0  0  0
 21121  1  0  0  0  0
 21122  1  0  0  0  0
 22123  1  0  0  0  0
 22124  1  0  0  0  0
 23125  1  0  0  0  0
 23126  1  0  0  0  0
 24 13  1  0  0  0  0
 24 33  1  1  0  0  0
 25127  1  0  0  0  0
 26128  1  0  0  0  0
 26129  1  0  0  0  0
 27 21  1  0  0  0  0
 27 24  1  0  0  0  0
 27130  1  0  0  0  0
 27131  1  0  0  0  0
 28 30  1  0  0  0  0
 28132  1  0  0  0  0
 28133  1  0  0  0  0
 29 10  1  0  0  0  0
 29134  1  0  0  0  0
 29135  1  0  0  0  0
 29136  1  0  0  0  0
 30 24  1  0  0  0  0
 30137  1  0  0  0  0
 30138  1  0  0  0  0
 31 18  1  0  0  0  0
 31139  1  0  0  0  0
 31140  1  0  0  0  0
 31141  1  0  0  0  0
 35 68  1  6  0  0  0
 36 47  1  0  0  0  0
 36 37  1  0  0  0  0
 36 42  1  0  0  0  0
 36142  1  6  0  0  0
 37 35  1  0  0  0  0
 37 57  1  0  0  0  0
 37143  1  1  0  0  0
 38 39  1  0  0  0  0
 38 56  1  0  0  0  0
 38144  1  1  0  0  0
 39 69  1  1  0  0  0
 39 42  1  0  0  0  0
 40 45  1  0  0  0  0
 40 38  1  0  0  0  0
 40 53  1  0  0  0  0
 40145  1  6  0  0  0
 41 43  1  0  0  0  0
 41146  1  6  0  0  0
 43 35  1  0  0  0  0
 44 41  1  0  0  0  0
 45 61  1  1  0  0  0
 45 51  1  0  0  0  0
 46 35  1  0  0  0  0
 46 59  1  0  0  0  0
 46147  1  1  0  0  0
 47 49  1  0  0  0  0
 47 58  1  0  0  0  0
 47148  1  1  0  0  0
 48 39  1  0  0  0  0
 49 46  1  0  0  0  0
 49149  1  0  0  0  0
 49150  1  0  0  0  0
 50 70  1  1  0  0  0
 50 44  1  0  0  0  0
 51 48  1  0  0  0  0
 51151  1  0  0  0  0
 51152  1  0  0  0  0
 52 63  1  0  0  0  0
 52 41  1  0  0  0  0
 52153  1  6  0  0  0
 53154  1  0  0  0  0
 54 50  1  0  0  0  0
 54155  1  0  0  0  0
 54156  1  0  0  0  0
 55 54  1  0  0  0  0
 55 52  1  0  0  0  0
 55157  1  0  0  0  0
 55158  1  0  0  0  0
 56159  1  0  0  0  0
 57160  1  0  0  0  0
 58161  1  0  0  0  0
 58162  1  0  0  0  0
 59163  1  0  0  0  0
 59164  1  0  0  0  0
 60 50  1  0  0  0  0
 60 62  1  0  0  0  0
 60165  1  0  0  0  0
 61166  1  0  0  0  0
 62167  1  0  0  0  0
 63168  1  0  0  0  0
 63169  1  0  0  0  0
 64 45  1  0  0  0  0
 64170  1  0  0  0  0
 64171  1  0  0  0  0
 64172  1  0  0  0  0
 65 53  1  0  0  0  0
 65173  1  0  0  0  0
 65174  1  0  0  0  0
 65175  1  0  0  0  0
 66 62  1  0  0  0  0
 66176  1  0  0  0  0
 66177  1  0  0  0  0
 66178  1  0  0  0  0
 67 60  1  0  0  0  0
 67179  1  0  0  0  0
 67180  1  0  0  0  0
 67181  1  0  0  0  0
 71104  1  6  0  0  0
 72 73  1  0  0  0  0
 72 78  1  0  0  0  0
 72182  1  6  0  0  0
 73 71  1  0  0  0  0
 73 93  1  0  0  0  0
 73183  1  1  0  0  0
 74 75  1  0  0  0  0
 74 92  1  0  0  0  0
 74184  1  1  0  0  0
 75 78  1  0  0  0  0
 75103  1  1  0  0  0
 76 74  1  0  0  0  0
 76 89  1  0  0  0  0
 76 81  1  0  0  0  0
 76185  1  6  0  0  0
 77 79  1  0  0  0  0
 77186  1  6  0  0  0
 79 71  1  0  0  0  0
 80 77  1  0  0  0  0
 81 87  1  0  0  0  0
 81 97  1  1  0  0  0
 82 71  1  0  0  0  0
 82 95  1  0  0  0  0
 82187  1  1  0  0  0
 83 85  1  0  0  0  0
 83 94  1  0  0  0  0
 83 72  1  0  0  0  0
 83188  1  1  0  0  0
 84 75  1  0  0  0  0
 85 82  1  0  0  0  0
 85189  1  0  0  0  0
 85190  1  0  0  0  0
 86 80  1  0  0  0  0
 86105  1  1  0  0  0
 87 84  1  0  0  0  0
 87191  1  0  0  0  0
 87192  1  0  0  0  0
 88 77  1  0  0  0  0
 88 98  1  0  0  0  0
 88193  1  6  0  0  0
 89194  1  0  0  0  0
 90 91  1  0  0  0  0
 90 86  1  0  0  0  0
 90195  1  0  0  0  0
 90196  1  0  0  0  0
 91 88  1  0  0  0  0
 91197  1  0  0  0  0
 91198  1  0  0  0  0
 92199  1  0  0  0  0
 93200  1  0  0  0  0
 94201  1  0  0  0  0
 94202  1  0  0  0  0
 95203  1  0  0  0  0
 95204  1  0  0  0  0
 96 86  1  0  0  0  0
 96 99  1  0  0  0  0
 96205  1  0  0  0  0
 97206  1  0  0  0  0
 98207  1  0  0  0  0
 98208  1  0  0  0  0
 99209  1  0  0  0  0
 99210  1  0  0  0  0
100 81  1  0  0  0  0
100211  1  0  0  0  0
100212  1  0  0  0  0
100213  1  0  0  0  0
101 89  1  0  0  0  0
101214  1  0  0  0  0
101215  1  0  0  0  0
101216  1  0  0  0  0
102 96  1  0  0  0  0
102217  1  0  0  0  0
102218  1  0  0  0  0
102219  1  0  0  0  0
M  END
>  <DRUGBANK_ID>
DB00798

>  <SECONDARY_ACCESSION_NUMBERS>
APRD00214

>  <COMMON_NAME>
Gentamicin

>  <CAS_NUMBER>
1403-66-3

>  <UNII>
T6Z9V48IKG

>  <SYNONYMS>
Gentamicin; Gentamicina

$$$$
