
 OpenBabel10282417072D

 38 40  0  0  0  0  0  0  0  0999 V2000
    2.4606    2.0085    0.0000 P   0  0  0  0  0  0  0  0  0  0  0  0
    0.3696    0.5529    0.0000 O   0  0  0  0  0  0  0  0  0  0  0  0
   -1.7242    0.9690    0.0000 O   0  0  0  0  0  0  0  0  0  0  0  0
   -0.6667    2.4192    0.0000 O   0  0  0  0  0  0  0  0  0  0  0  0
    1.7924    1.5247    0.0000 O   0  0  0  0  0  0  0  0  0  0  0  0
   -2.1669   -2.7987    0.0000 O   0  0  0  0  0  0  0  0  0  0  0  0
   -3.5959   -0.3238    0.0000 O   0  0  0  0  0  0  0  0  0  0  0  0
    3.1289    2.4923    0.0000 O   0  0  0  0  0  0  0  0  0  0  0  0
    2.9444    1.3403    0.0000 O   0  0  0  0  0  0  0  0  0  0  0  0
    1.9768    2.6768    0.0000 O   0  0  0  0  0  0  0  0  0  0  0  0
   -0.6718   -0.4848    0.0000 N   0  3  0  0  0  0  0  0  0  0  0  0
   -0.6718   -1.8127    0.0000 N   0  0  0  0  0  0  0  0  0  0  0  0
   -2.1669   -0.3238    0.0000 N   0  0  0  0  0  0  0  0  0  0  0  0
   -2.8814   -1.5612    0.0000 N   0  0  0  0  0  0  0  0  0  0  0  0
   -0.4154    0.2993    0.0000 C   0  0  1  0  0  0  0  0  0  0  0  0
   -0.8992    0.9675    0.0000 C   0  0  1  0  0  0  0  0  0  0  0  0
   -0.4131    1.6341    0.0000 C   0  0  1  0  0  0  0  0  0  0  0  0
    0.3710    1.3779    0.0000 C   0  0  1  0  0  0  0  0  0  0  0  0
    1.0392    1.8617    0.0000 C   0  0  0  0  0  0  0  0  0  0  0  0
   -1.4524   -0.7363    0.0000 C   0  0  0  0  0  0  0  0  0  0  0  0
   -0.1903   -1.1487    0.0000 C   0  0  0  0  0  0  0  0  0  0  0  0
   -1.4524   -1.5612    0.0000 C   0  0  0  0  0  0  0  0  0  0  0  0
   -2.1669   -1.9738    0.0000 C   0  0  0  0  0  0  0  0  0  0  0  0
   -2.8814   -0.7363    0.0000 C   0  0  0  0  0  0  0  0  0  0  0  0
   -2.2077    1.8099    0.0000 H   0  0  0  0  0  0  0  0  0  0  0  0
   -0.0164    3.1389    0.0000 H   0  0  0  0  0  0  0  0  0  0  0  0
    4.0144    2.0962    0.0000 H   0  0  0  0  0  0  0  0  0  0  0  0
    2.5484    0.4548    0.0000 H   0  0  0  0  0  0  0  0  0  0  0  0
   -0.3660   -2.7485    0.0000 H   0  0  0  0  0  0  0  0  0  0  0  0
   -2.1669    0.6607    0.0000 H   0  0  0  0  0  0  0  0  0  0  0  0
   -3.7340   -2.0534    0.0000 H   0  0  0  0  0  0  0  0  0  0  0  0
    0.3399   -0.4587    0.0000 H   0  0  0  0  0  0  0  0  0  0  0  0
   -1.3866    0.0150    0.0000 H   0  0  0  0  0  0  0  0  0  0  0  0
   -1.4696    1.8033    0.0000 H   0  0  0  0  0  0  0  0  0  0  0  0
    1.3236    0.8905    0.0000 H   0  0  0  0  0  0  0  0  0  0  0  0
    0.9292    2.9260    0.0000 H   0  0  0  0  0  0  0  0  0  0  0  0
    0.0624    2.2986    0.0000 H   0  0  0  0  0  0  0  0  0  0  0  0
    0.8417   -1.1487    0.0000 H   0  0  0  0  0  0  0  0  0  0  0  0
  1  5  1  0  0  0  0
  1  8  1  0  0  0  0
  1  9  1  0  0  0  0
  1 10  2  0  0  0  0
  2 15  1  0  0  0  0
  2 18  1  0  0  0  0
  3 25  1  0  0  0  0
  4 26  1  0  0  0  0
  5 19  1  0  0  0  0
  6 23  2  0  0  0  0
  7 24  2  0  0  0  0
  8 27  1  0  0  0  0
  9 28  1  0  0  0  0
 11 20  1  0  0  0  0
 11 21  2  0  0  0  0
 12 21  1  0  0  0  0
 12 22  1  0  0  0  0
 12 29  1  0  0  0  0
 13 20  1  0  0  0  0
 13 24  1  0  0  0  0
 13 30  1  0  0  0  0
 14 23  1  0  0  0  0
 14 24  1  0  0  0  0
 14 31  1  0  0  0  0
 15 11  1  0  0  0  0
 15 16  1  0  0  0  0
 15 32  1  6  0  0  0
 16  3  1  0  0  0  0
 16 17  1  0  0  0  0
 16 33  1  1  0  0  0
 17  4  1  0  0  0  0
 17 18  1  0  0  0  0
 17 34  1  1  0  0  0
 18 19  1  0  0  0  0
 18 35  1  6  0  0  0
 19 36  1  0  0  0  0
 19 37  1  0  0  0  0
 20 22  2  0  0  0  0
 21 38  1  0  0  0  0
 22 23  1  0  0  0  0
M  CHG  1  11   1
M  END
>  <DRUGBANK_ID>
DB02309

>  <SECONDARY_ACCESSION_NUMBERS>
EXPT03260

>  <COMMON_NAME>
5-monophosphate-9-beta-D-ribofuranosyl xanthine

$$$$
