PFI
 OpenBabel10282417072D

 53 55  0  0  0  0  0  0  0  0999 V2000
    2.3791    0.9468    0.0000 F   0  0  0  0  0  0  0  0  0  0  0  0
    1.8488    0.3148    0.0000 C   0  0  0  0  0  0  0  0  0  0  0  0
    2.1309   -0.4604    0.0000 C   0  0  0  0  0  0  0  0  0  0  0  0
    2.9434   -0.6037    0.0000 O   0  0  0  0  0  0  0  0  0  0  0  0
    3.4737    0.0283    0.0000 C   0  0  0  0  0  0  0  0  0  0  0  0
    4.2862   -0.1149    0.0000 C   0  0  0  0  0  0  0  0  0  0  0  0
    3.1915    0.8036    0.0000 C   0  0  0  0  0  0  0  0  0  0  0  0
    1.6006   -1.0924    0.0000 C   0  0  0  0  0  0  0  0  0  0  0  0
    0.7882   -0.9491    0.0000 C   0  0  0  0  0  0  0  0  0  0  0  0
    0.5060   -0.1739    0.0000 C   0  0  0  0  0  0  0  0  0  0  0  0
    1.0363    0.4581    0.0000 C   0  0  0  0  0  0  0  0  0  0  0  0
   -0.3065   -0.0306    0.0000 C   0  0  0  0  0  0  0  0  0  0  0  0
   -0.5886    0.7446    0.0000 C   0  0  0  0  0  0  0  0  0  0  0  0
   -1.4011    0.8879    0.0000 C   0  0  2  0  0  0  0  0  0  0  0  0
   -2.2136    0.7446    0.0000 C   0  0  0  0  0  0  0  0  0  0  0  0
   -1.4011    0.0629    0.0000 C   0  0  0  0  0  0  0  0  0  0  0  0
   -0.7337   -0.4221    0.0000 C   0  0  0  0  0  0  0  0  0  0  0  0
   -2.0686   -0.4221    0.0000 C   0  0  0  0  0  0  0  0  0  0  0  0
   -1.8136   -1.2067    0.0000 C   0  0  0  0  0  0  0  0  0  0  0  0
   -0.9886   -1.2067    0.0000 C   0  0  0  0  0  0  0  0  0  0  0  0
   -1.1189    1.6631    0.0000 O   0  0  0  0  0  0  0  0  0  0  0  0
   -1.6492    2.2951    0.0000 C   0  0  0  0  0  0  0  0  0  0  0  0
   -1.3671    3.0704    0.0000 O   0  0  0  0  0  0  0  0  0  0  0  0
   -2.4617    2.1518    0.0000 C   0  0  0  0  0  0  0  0  0  0  0  0
   -2.7439    1.3766    0.0000 C   0  0  0  0  0  0  0  0  0  0  0  0
   -3.5563    1.2333    0.0000 O   0  0  0  0  0  0  0  0  0  0  0  0
    4.1614    0.8480    0.0000 H   0  0  0  0  0  0  0  0  0  0  0  0
    4.6522   -1.1203    0.0000 H   0  0  0  0  0  0  0  0  0  0  0  0
    4.9739    0.7048    0.0000 H   0  0  0  0  0  0  0  0  0  0  0  0
    5.3400   -0.3006    0.0000 H   0  0  0  0  0  0  0  0  0  0  0  0
    3.8793    1.6233    0.0000 H   0  0  0  0  0  0  0  0  0  0  0  0
    2.1378    0.9894    0.0000 H   0  0  0  0  0  0  0  0  0  0  0  0
    2.8255    1.8091    0.0000 H   0  0  0  0  0  0  0  0  0  0  0  0
    1.9535   -2.0622    0.0000 H   0  0  0  0  0  0  0  0  0  0  0  0
    0.1248   -1.7397    0.0000 H   0  0  0  0  0  0  0  0  0  0  0  0
    0.6834    1.4279    0.0000 H   0  0  0  0  0  0  0  0  0  0  0  0
   -0.9943   -0.8502    0.0000 H   0  0  0  0  0  0  0  0  0  0  0  0
   -1.3602    0.1553    0.0000 H   0  0  0  0  0  0  0  0  0  0  0  0
    0.0992    1.5642    0.0000 H   0  0  0  0  0  0  0  0  0  0  0  0
   -0.9545    1.7501    0.0000 H   0  0  0  0  0  0  0  0  0  0  0  0
   -2.5795   -0.2609    0.0000 H   0  0  0  0  0  0  0  0  0  0  0  0
   -3.2673    0.5588    0.0000 H   0  0  0  0  0  0  0  0  0  0  0  0
   -1.4011   -1.0071    0.0000 H   0  0  0  0  0  0  0  0  0  0  0  0
    0.2839   -0.0915    0.0000 H   0  0  0  0  0  0  0  0  0  0  0  0
    0.0229   -1.1787    0.0000 H   0  0  0  0  0  0  0  0  0  0  0  0
   -3.0862   -0.0915    0.0000 H   0  0  0  0  0  0  0  0  0  0  0  0
   -2.8252   -1.1788    0.0000 H   0  0  0  0  0  0  0  0  0  0  0  0
   -2.4425   -2.0724    0.0000 H   0  0  0  0  0  0  0  0  0  0  0  0
   -1.3278   -2.1601    0.0000 H   0  0  0  0  0  0  0  0  0  0  0  0
   -0.3597   -2.0723    0.0000 H   0  0  0  0  0  0  0  0  0  0  0  0
   -1.4744   -2.1601    0.0000 H   0  0  0  0  0  0  0  0  0  0  0  0
   -3.1251    2.9424    0.0000 H   0  0  0  0  0  0  0  0  0  0  0  0
   -4.1586    1.9510    0.0000 H   0  0  0  0  0  0  0  0  0  0  0  0
  1  2  1  0  0  0  0
  2  3  1  0  0  0  0
  2 11  2  0  0  0  0
  3  4  1  0  0  0  0
  3  8  2  0  0  0  0
  4  5  1  0  0  0  0
  5  6  1  0  0  0  0
  5  7  1  0  0  0  0
  5 27  1  0  0  0  0
  6 28  1  0  0  0  0
  6 29  1  0  0  0  0
  6 30  1  0  0  0  0
  7 31  1  0  0  0  0
  7 32  1  0  0  0  0
  7 33  1  0  0  0  0
  8  9  1  0  0  0  0
  8 34  1  0  0  0  0
  9 10  2  0  0  0  0
  9 35  1  0  0  0  0
 10 11  1  0  0  0  0
 10 12  1  0  0  0  0
 11 36  1  0  0  0  0
 12 13  1  0  0  0  0
 12 37  1  0  0  0  0
 12 38  1  0  0  0  0
 13 39  1  0  0  0  0
 13 40  1  0  0  0  0
 14 13  1  1  0  0  0
 14 15  1  0  0  0  0
 14 16  1  0  0  0  0
 14 21  1  0  0  0  0
 15 25  1  0  0  0  0
 15 41  1  0  0  0  0
 15 42  1  0  0  0  0
 16 17  1  0  0  0  0
 16 18  1  0  0  0  0
 16 43  1  0  0  0  0
 17 20  1  0  0  0  0
 17 44  1  0  0  0  0
 17 45  1  0  0  0  0
 18 19  1  0  0  0  0
 18 46  1  0  0  0  0
 18 47  1  0  0  0  0
 19 20  1  0  0  0  0
 19 48  1  0  0  0  0
 19 49  1  0  0  0  0
 20 50  1  0  0  0  0
 20 51  1  0  0  0  0
 21 22  1  0  0  0  0
 22 23  2  0  0  0  0
 22 24  1  0  0  0  0
 24 25  2  0  0  0  0
 24 52  1  0  0  0  0
 25 26  1  0  0  0  0
 26 53  1  0  0  0  0
M  END
>  <DRUGBANK_ID>
DB08390

>  <COMMON_NAME>
(6S)-6-CYCLOPENTYL-6-[2-(3-FLUORO-4-ISOPROPOXYPHENYL)ETHYL]-4-HYDROXY-5,6-DIHYDRO-2H-PYRAN-2-ONE

$$$$
