
 OpenBabel10282417072D

 37 39  0  0  0  0  0  0  0  0999 V2000
   -0.9160   -1.9250    0.0000 C   0  0  0  0  0  0  0  0  0  0  0  0
    3.0045    0.6793    0.0000 C   0  0  0  0  0  0  0  0  0  0  0  0
    0.3060    1.0918    0.0000 C   0  0  0  0  0  0  0  0  0  0  0  0
   -0.2485   -1.4401    0.0000 C   0  0  2  0  0  0  0  0  0  0  0  0
    1.5756    1.5043    0.0000 C   0  0  0  0  0  0  0  0  0  0  0  0
    0.5360   -1.6950    0.0000 C   0  0  2  0  0  0  0  0  0  0  0  0
    1.0209   -1.0276    0.0000 C   0  0  3  0  0  0  0  0  0  0  0  0
    2.2900    1.9168    0.0000 C   0  0  0  0  0  0  0  0  0  0  0  0
    1.5756    0.6793    0.0000 C   0  0  0  0  0  0  0  0  0  0  0  0
    0.5360   -0.3601    0.0000 C   0  0  2  0  0  0  0  0  0  0  0  0
    2.2900    2.7418    0.0000 N   0  0  0  0  0  0  0  0  0  0  0  0
    3.0045    1.5043    0.0000 N   0  0  0  0  0  0  0  0  0  0  0  0
    2.2900    0.2668    0.0000 N   0  0  0  0  0  0  0  0  0  0  0  0
    0.7909    1.7593    0.0000 N   0  0  0  0  0  0  0  0  0  0  0  0
    0.7909    0.4244    0.0000 N   0  0  0  0  0  0  0  0  0  0  0  0
    0.7909   -2.4796    0.0000 O   0  0  0  0  0  0  0  0  0  0  0  0
    1.8459   -1.0276    0.0000 O   0  0  0  0  0  0  0  0  0  0  0  0
   -3.0045   -2.5593    0.0000 O   0  0  0  0  0  0  0  0  0  0  0  0
   -1.6696   -1.5895    0.0000 O   0  0  0  0  0  0  0  0  0  0  0  0
   -0.2485   -0.6151    0.0000 O   0  0  0  0  0  0  0  0  0  0  0  0
   -2.3371   -2.0744    0.0000 P   0  0  3  0  0  0  0  0  0  0  0  0
   -2.8220   -1.4069    0.0000 S   0  0  0  0  0  0  0  0  0  0  0  0
   -1.8521   -2.7418    0.0000 S   0  0  0  0  0  0  0  0  0  0  0  0
   -0.1195   -2.2549    0.0000 H   0  0  0  0  0  0  0  0  0  0  0  0
    1.3508   -1.8241    0.0000 H   0  0  0  0  0  0  0  0  0  0  0  0
    1.3955   -0.2925    0.0000 H   0  0  0  0  0  0  0  0  0  0  0  0
   -0.0473    0.2231    0.0000 H   0  0  0  0  0  0  0  0  0  0  0  0
   -0.8042   -2.9891    0.0000 H   0  0  0  0  0  0  0  0  0  0  0  0
   -1.7816   -2.5539    0.0000 H   0  0  0  0  0  0  0  0  0  0  0  0
    3.8982    0.1633    0.0000 H   0  0  0  0  0  0  0  0  0  0  0  0
   -0.7260    1.0918    0.0000 H   0  0  0  0  0  0  0  0  0  0  0  0
    3.1426    3.2341    0.0000 H   0  0  0  0  0  0  0  0  0  0  0  0
    1.4374    3.2340    0.0000 H   0  0  0  0  0  0  0  0  0  0  0  0
    0.1418   -3.2004    0.0000 H   0  0  0  0  0  0  0  0  0  0  0  0
    2.3309   -1.8676    0.0000 H   0  0  0  0  0  0  0  0  0  0  0  0
   -3.8906   -2.1648    0.0000 H   0  0  0  0  0  0  0  0  0  0  0  0
   -2.2688   -0.1645    0.0000 H   0  0  0  0  0  0  0  0  0  0  0  0
  1 28  1  0  0  0  0
  1 29  1  0  0  0  0
  2 30  1  0  0  0  0
  3 31  1  0  0  0  0
  4  1  1  0  0  0  0
  4 20  1  0  0  0  0
  4 24  1  6  0  0  0
  6  4  1  0  0  0  0
  6  7  1  0  0  0  0
  6 16  1  0  0  0  0
  6 25  1  1  0  0  0
  8  5  2  0  0  0  0
  9  5  1  0  0  0  0
 10  7  1  0  0  0  0
 10 15  1  0  0  0  0
 10 20  1  0  0  0  0
 10 27  1  6  0  0  0
 11  8  1  0  0  0  0
 11 32  1  0  0  0  0
 11 33  1  0  0  0  0
 12  2  2  0  0  0  0
 12  8  1  0  0  0  0
 13  2  1  0  0  0  0
 13  9  2  0  0  0  0
 14  3  2  0  0  0  0
 14  5  1  0  0  0  0
 15  3  1  0  0  0  0
 15  9  1  0  0  0  0
 16 34  1  0  0  0  0
 17  7  1  0  0  0  0
 17 35  1  0  0  0  0
 18 36  1  0  0  0  0
 19  1  1  0  0  0  0
 21 18  1  0  0  0  0
 21 19  1  0  0  0  0
 22 21  1  0  0  0  0
 22 37  1  0  0  0  0
 23 21  2  0  0  0  0
 26  7  1  0  0  0  0
M  END
>  <DRUGBANK_ID>
DB03011

>  <SECONDARY_ACCESSION_NUMBERS>
EXPT00438

>  <COMMON_NAME>
Adenosine-5'-(Dithio)Phosphate

>  <UNII>
9WPM6R7Z7Q

$$$$
