
 OpenBabel10282417072D

 23 23  0  0  0  0  0  0  0  0999 V2000
   -0.6171   -1.0206    0.0000 C   0  0  0  0  0  0  0  0  0  0  0  0
   -1.4449   -1.0204    0.0000 C   0  0  0  0  0  0  0  0  0  0  0  0
   -1.8545   -0.3093    0.0000 C   0  0  0  0  0  0  0  0  0  0  0  0
   -2.6795   -0.3096    0.0000 N   0  0  0  0  0  0  0  0  0  0  0  0
   -1.4432    0.4059    0.0000 C   0  0  0  0  0  0  0  0  0  0  0  0
   -0.6224    0.4099    0.0000 C   0  0  0  0  0  0  0  0  0  0  0  0
   -0.2059   -0.3053    0.0000 C   0  0  0  0  0  0  0  0  0  0  0  0
    0.6190   -0.3031    0.0000 S   0  0  0  0  0  0  0  0  0  0  0  0
    0.6213   -1.1281    0.0000 O   0  0  0  0  0  0  0  0  0  0  0  0
    0.6169    0.5218    0.0000 O   0  0  0  0  0  0  0  0  0  0  0  0
    1.4440   -0.3008    0.0000 N   0  0  0  0  0  0  0  0  0  0  0  0
    1.8545    0.4148    0.0000 C   0  0  0  0  0  0  0  0  0  0  0  0
    1.4400    1.1281    0.0000 S   0  0  0  0  0  0  0  0  0  0  0  0
    2.6795    0.4171    0.0000 N   0  0  0  0  0  0  0  0  0  0  0  0
   -0.1004   -1.9139    0.0000 H   0  0  0  0  0  0  0  0  0  0  0  0
   -1.9615   -1.9138    0.0000 H   0  0  0  0  0  0  0  0  0  0  0  0
   -3.1721    0.5428    0.0000 H   0  0  0  0  0  0  0  0  0  0  0  0
   -3.1714   -1.1624    0.0000 H   0  0  0  0  0  0  0  0  0  0  0  0
   -1.9621    1.2979    0.0000 H   0  0  0  0  0  0  0  0  0  0  0  0
   -0.1103    1.3059    0.0000 H   0  0  0  0  0  0  0  0  0  0  0  0
    1.9386   -1.1520    0.0000 H   0  0  0  0  0  0  0  0  0  0  0  0
    3.1741   -0.4341    0.0000 H   0  0  0  0  0  0  0  0  0  0  0  0
    3.1694    1.2711    0.0000 H   0  0  0  0  0  0  0  0  0  0  0  0
  1  2  1  0  0  0  0
  1 15  1  0  0  0  0
  2  3  2  0  0  0  0
  2 16  1  0  0  0  0
  3  4  1  0  0  0  0
  3  5  1  0  0  0  0
  4 17  1  0  0  0  0
  4 18  1  0  0  0  0
  5  6  2  0  0  0  0
  5 19  1  0  0  0  0
  6  7  1  0  0  0  0
  6 20  1  0  0  0  0
  7  1  2  0  0  0  0
  7  8  1  0  0  0  0
  8  9  2  0  0  0  0
  8 10  2  0  0  0  0
  8 11  1  0  0  0  0
 11 12  1  0  0  0  0
 11 21  1  0  0  0  0
 12 13  2  0  0  0  0
 12 14  1  0  0  0  0
 14 22  1  0  0  0  0
 14 23  1  0  0  0  0
M  END
>  <DRUGBANK_ID>
DB13699

>  <COMMON_NAME>
Sulfathiourea

>  <CAS_NUMBER>
515-49-1

>  <UNII>
MXF9G4I1V5

>  <SYNONYMS>
1-sulfanilyl-2-thiourea; 4-amino-N-(aminothioxomethyl)benzenesulfonamide; p-aminobenzenesulfonylthiourea; p-aminophenylsulfonylthiourea; Sulfathiocarbamide; Sulfathiourea; Sulfathiour√©e; Sulfatiourea; Sulphathiourea

$$$$
