
 OpenBabel10282417072D

 46 49  0  0  0  0  0  0  0  0999 V2000
   -0.8046   -0.2255    0.0000 O   0  0  0  0  0  0  0  0  0  0  0  0
   -0.0356    2.1270    0.0000 O   0  0  0  0  0  0  0  0  0  0  0  0
    1.0217   -3.7358    0.0000 O   0  0  0  0  0  0  0  0  0  0  0  0
   -1.1376    3.3552    0.0000 O   0  0  0  0  0  0  0  0  0  0  0  0
   -0.5099   -2.9516    0.0000 N   0  0  0  0  0  0  0  0  0  0  0  0
   -0.2536   -0.8396    0.0000 N   0  0  0  0  0  0  0  0  0  0  0  0
    2.0587   -2.7003    0.0000 N   0  0  0  0  0  0  0  0  0  0  0  0
   -0.0284   -2.2877    0.0000 C   0  0  0  0  0  0  0  0  0  0  0  0
   -0.5099   -1.6238    0.0000 C   0  0  0  0  0  0  0  0  0  0  0  0
   -1.2906   -1.8752    0.0000 C   0  0  0  0  0  0  0  0  0  0  0  0
   -1.2906   -2.7003    0.0000 C   0  0  0  0  0  0  0  0  0  0  0  0
    0.7966   -2.2877    0.0000 C   0  0  0  0  0  0  0  0  0  0  0  0
    1.2780   -1.6238    0.0000 C   0  0  0  0  0  0  0  0  0  0  0  0
   -2.0050   -1.4627    0.0000 C   0  0  0  0  0  0  0  0  0  0  0  0
   -1.0993    1.1726    0.0000 C   0  0  0  0  0  0  0  0  0  0  0  0
    2.0622   -1.8801    0.0000 C   0  0  0  0  0  0  0  0  0  0  0  0
   -2.0050   -3.1128    0.0000 C   0  0  0  0  0  0  0  0  0  0  0  0
    1.2780   -2.9516    0.0000 C   0  0  0  0  0  0  0  0  0  0  0  0
   -0.5482    0.5586    0.0000 C   0  0  0  0  0  0  0  0  0  0  0  0
   -0.8429    1.9568    0.0000 C   0  0  1  0  0  0  0  0  0  0  0  0
    1.1079   -0.8165    0.0000 C   0  0  0  0  0  0  0  0  0  0  0  0
   -2.7195   -1.8752    0.0000 C   0  0  0  0  0  0  0  0  0  0  0  0
   -2.7195   -2.7003    0.0000 C   0  0  0  0  0  0  0  0  0  0  0  0
    2.6763   -1.3291    0.0000 C   0  0  0  0  0  0  0  0  0  0  0  0
   -1.3940    2.5709    0.0000 C   0  0  0  0  0  0  0  0  0  0  0  0
    1.7220   -0.2655    0.0000 C   0  0  0  0  0  0  0  0  0  0  0  0
    2.5062   -0.5218    0.0000 C   0  0  0  0  0  0  0  0  0  0  0  0
    0.6123    1.4051    0.0000 H   0  0  0  0  0  0  0  0  0  0  0  0
   -0.1884    3.5552    0.0000 H   0  0  0  0  0  0  0  0  0  0  0  0
   -0.2040   -3.8874    0.0000 H   0  0  0  0  0  0  0  0  0  0  0  0
    0.7097   -0.6366    0.0000 H   0  0  0  0  0  0  0  0  0  0  0  0
   -2.0050   -0.4307    0.0000 H   0  0  0  0  0  0  0  0  0  0  0  0
   -2.1463    0.9519    0.0000 H   0  0  0  0  0  0  0  0  0  0  0  0
   -1.8139    1.9690    0.0000 H   0  0  0  0  0  0  0  0  0  0  0  0
   -2.0050   -4.1448    0.0000 H   0  0  0  0  0  0  0  0  0  0  0  0
    0.4988    0.7793    0.0000 H   0  0  0  0  0  0  0  0  0  0  0  0
   -0.2159    1.5757    0.0000 H   0  0  0  0  0  0  0  0  0  0  0  0
   -0.1283    1.1604    0.0000 H   0  0  0  0  0  0  0  0  0  0  0  0
    0.1270   -0.4959    0.0000 H   0  0  0  0  0  0  0  0  0  0  0  0
   -3.6132   -1.3592    0.0000 H   0  0  0  0  0  0  0  0  0  0  0  0
   -3.6132   -3.2163    0.0000 H   0  0  0  0  0  0  0  0  0  0  0  0
    3.6572   -1.6497    0.0000 H   0  0  0  0  0  0  0  0  0  0  0  0
   -2.4410    2.3502    0.0000 H   0  0  0  0  0  0  0  0  0  0  0  0
   -1.7264    1.5538    0.0000 H   0  0  0  0  0  0  0  0  0  0  0  0
    1.5092    0.7443    0.0000 H   0  0  0  0  0  0  0  0  0  0  0  0
    3.2743    0.1674    0.0000 H   0  0  0  0  0  0  0  0  0  0  0  0
  1  6  1  0  0  0  0
  1 19  1  0  0  0  0
  2 28  1  0  0  0  0
  3 18  2  0  0  0  0
  4 25  1  0  0  0  0
  4 29  1  0  0  0  0
  5  8  1  0  0  0  0
  5 11  1  0  0  0  0
  5 30  1  0  0  0  0
  6  9  1  0  0  0  0
  6 31  1  0  0  0  0
  7 16  2  0  0  0  0
  7 18  1  0  0  0  0
  8  9  2  0  0  0  0
  8 12  1  0  0  0  0
  9 10  1  0  0  0  0
 10 11  1  0  0  0  0
 10 14  2  0  0  0  0
 11 17  2  0  0  0  0
 12 13  2  0  0  0  0
 12 18  1  0  0  0  0
 13 16  1  0  0  0  0
 13 21  1  0  0  0  0
 14 22  1  0  0  0  0
 14 32  1  0  0  0  0
 15 19  1  0  0  0  0
 15 20  1  0  0  0  0
 15 33  1  0  0  0  0
 15 34  1  0  0  0  0
 16 24  1  0  0  0  0
 17 23  1  0  0  0  0
 17 35  1  0  0  0  0
 19 36  1  0  0  0  0
 19 37  1  0  0  0  0
 20  2  1  0  0  0  0
 20 25  1  0  0  0  0
 20 38  1  6  0  0  0
 21 26  2  0  0  0  0
 21 39  1  0  0  0  0
 22 23  2  0  0  0  0
 22 40  1  0  0  0  0
 23 41  1  0  0  0  0
 24 27  2  0  0  0  0
 24 42  1  0  0  0  0
 25 43  1  0  0  0  0
 25 44  1  0  0  0  0
 26 27  1  0  0  0  0
 26 45  1  0  0  0  0
 27 46  1  0  0  0  0
M  END
>  <DRUGBANK_ID>
DB07676

>  <COMMON_NAME>
3-({[(3S)-3,4-dihydroxybutyl]oxy}amino)-1H,2'H-2,3'-biindol-2'-one

$$$$
