
 OpenBabel10282417072D

 63 67  0  0  0  0  0  0  0  0999 V2000
    1.8636    1.6731    0.0000 P   0  0  3  0  0  0  0  0  0  0  0  0
    2.8179    2.7367    0.0000 P   0  0  3  0  0  0  0  0  0  0  0  0
    3.7723    3.8002    0.0000 P   0  0  0  0  0  0  0  0  0  0  0  0
    0.1287   -1.2119    0.0000 O   0  0  0  0  0  0  0  0  0  0  0  0
   -1.2061   -1.2119    0.0000 O   0  0  0  0  0  0  0  0  0  0  0  0
   -0.5387    0.8347    0.0000 O   0  0  0  0  0  0  0  0  0  0  0  0
    1.0795    1.4168    0.0000 O   0  0  0  0  0  0  0  0  0  0  0  0
   -2.6821   -2.1094    0.0000 O   0  5  0  0  0  0  0  0  0  0  0  0
    1.6047   -2.1094    0.0000 O   0  5  0  0  0  0  0  0  0  0  0  0
   -1.9677   -0.8719    0.0000 O   0  0  0  0  0  0  0  0  0  0  0  0
    0.8901   -0.8719    0.0000 O   0  0  0  0  0  0  0  0  0  0  0  0
    2.6478    1.9294    0.0000 O   0  0  0  0  0  0  0  0  0  0  0  0
    1.6073    2.4573    0.0000 O   0  0  0  0  0  0  0  0  0  0  0  0
    2.1199    0.8889    0.0000 O   0  0  0  0  0  0  0  0  0  0  0  0
    0.1757   -4.5844    0.0000 O   0  0  0  0  0  0  0  0  0  0  0  0
   -1.2531   -4.5844    0.0000 O   0  5  0  0  0  0  0  0  0  0  0  0
    2.9880    3.5440    0.0000 O   0  0  0  0  0  0  0  0  0  0  0  0
    3.6252    2.5665    0.0000 O   0  0  0  0  0  0  0  0  0  0  0  0
    2.0107    2.9068    0.0000 O   0  0  0  0  0  0  0  0  0  0  0  0
    4.5565    4.0565    0.0000 O   0  0  0  0  0  0  0  0  0  0  0  0
    3.5160    4.5844    0.0000 O   0  0  0  0  0  0  0  0  0  0  0  0
    4.0285    3.0160    0.0000 O   0  0  0  0  0  0  0  0  0  0  0  0
   -1.9868    0.6095    0.0000 N   0  0  0  0  0  0  0  0  0  0  0  0
   -1.9677   -1.6969    0.0000 N   0  3  0  0  0  0  0  0  0  0  0  0
    0.8901   -1.6969    0.0000 N   0  3  0  0  0  0  0  0  0  0  0  0
   -3.3146    0.6095    0.0000 N   0  0  0  0  0  0  0  0  0  0  0  0
   -1.8257    2.1047    0.0000 N   0  0  0  0  0  0  0  0  0  0  0  0
   -0.5387   -4.1719    0.0000 N   0  3  0  0  0  0  0  0  0  0  0  0
   -3.0632    2.8191    0.0000 N   0  0  0  0  0  0  0  0  0  0  0  0
   -4.3007    2.1047    0.0000 N   0  0  0  0  0  0  0  0  0  0  0  0
   -0.1262   -0.4273    0.0000 C   0  0  1  0  0  0  0  0  0  0  0  0
   -0.9512   -0.4273    0.0000 C   0  0  2  0  0  0  0  0  0  0  0  0
    0.1251    0.3533    0.0000 C   0  0  1  0  0  0  0  0  0  0  0  0
   -1.2026    0.3533    0.0000 C   0  0  1  0  0  0  0  0  0  0  0  0
   -0.5387   -1.6969    0.0000 C   0  0  3  0  0  0  0  0  0  0  0  0
    0.9093    0.6095    0.0000 C   0  0  0  0  0  0  0  0  0  0  0  0
   -1.2531   -2.1094    0.0000 C   0  0  0  0  0  0  0  0  0  0  0  0
    0.1757   -2.1094    0.0000 C   0  0  0  0  0  0  0  0  0  0  0  0
   -2.2382    1.3901    0.0000 C   0  0  0  0  0  0  0  0  0  0  0  0
   -2.6507    0.1280    0.0000 C   0  0  0  0  0  0  0  0  0  0  0  0
   -1.2531   -2.9344    0.0000 C   0  0  0  0  0  0  0  0  0  0  0  0
    0.1757   -2.9344    0.0000 C   0  0  0  0  0  0  0  0  0  0  0  0
   -0.5387   -3.3469    0.0000 C   0  0  0  0  0  0  0  0  0  0  0  0
   -3.0632    1.3901    0.0000 C   0  0  0  0  0  0  0  0  0  0  0  0
   -3.4757    2.1047    0.0000 C   0  0  0  0  0  0  0  0  0  0  0  0
   -2.2382    2.8191    0.0000 C   0  0  0  0  0  0  0  0  0  0  0  0
    0.5337   -0.4264    0.0000 H   0  0  0  0  0  0  0  0  0  0  0  0
   -1.6112   -0.4264    0.0000 H   0  0  0  0  0  0  0  0  0  0  0  0
   -4.5565    2.5476    0.0000 H   0  0  0  0  0  0  0  0  0  0  0  0
   -4.5565    1.6616    0.0000 H   0  0  0  0  0  0  0  0  0  0  0  0
    2.2551    3.1793    0.0000 H   0  0  0  0  0  0  0  0  0  0  0  0
    0.1757   -5.5214    0.0000 H   0  0  0  0  0  0  0  0  0  0  0  0
    3.9265    1.6445    0.0000 H   0  0  0  0  0  0  0  0  0  0  0  0
    5.2785    3.4087    0.0000 H   0  0  0  0  0  0  0  0  0  0  0  0
    4.1638    5.3064    0.0000 H   0  0  0  0  0  0  0  0  0  0  0  0
    0.2912    1.4103    0.0000 H   0  0  0  0  0  0  0  0  0  0  0  0
   -1.3686    1.4103    0.0000 H   0  0  0  0  0  0  0  0  0  0  0  0
    1.7056   -0.1052    0.0000 H   0  0  0  0  0  0  0  0  0  0  0  0
    0.6885   -0.4375    0.0000 H   0  0  0  0  0  0  0  0  0  0  0  0
   -2.6507   -0.9040    0.0000 H   0  0  0  0  0  0  0  0  0  0  0  0
   -2.1468   -3.4504    0.0000 H   0  0  0  0  0  0  0  0  0  0  0  0
    1.0694   -3.4504    0.0000 H   0  0  0  0  0  0  0  0  0  0  0  0
   -1.7222    3.7128    0.0000 H   0  0  0  0  0  0  0  0  0  0  0  0
  1  7  1  0  0  0  0
  1 12  1  0  0  0  0
  1 13  1  0  0  0  0
  1 14  2  0  0  0  0
  2 12  1  0  0  0  0
  2 17  1  0  0  0  0
  2 18  1  0  0  0  0
  2 19  2  0  0  0  0
  3 17  1  0  0  0  0
  3 20  1  0  0  0  0
  3 21  1  0  0  0  0
  3 22  2  0  0  0  0
  4 31  1  0  0  0  0
  4 35  1  0  0  0  0
  5 32  1  0  0  0  0
  5 35  1  0  0  0  0
  6 33  1  0  0  0  0
  6 34  1  0  0  0  0
  7 36  1  0  0  0  0
  8 24  1  0  0  0  0
  9 25  1  0  0  0  0
 10 24  2  0  0  0  0
 11 25  2  0  0  0  0
 13 51  1  0  0  0  0
 15 28  1  0  0  0  0
 15 52  1  0  0  0  0
 16 28  1  0  0  0  0
 18 53  1  0  0  0  0
 20 54  1  0  0  0  0
 21 55  1  0  0  0  0
 23 39  1  0  0  0  0
 23 40  1  0  0  0  0
 24 37  1  0  0  0  0
 25 38  1  0  0  0  0
 26 40  2  0  0  0  0
 26 44  1  0  0  0  0
 27 39  2  0  0  0  0
 27 46  1  0  0  0  0
 28 43  2  0  0  0  0
 29 45  1  0  0  0  0
 29 46  2  0  0  0  0
 30 45  1  0  0  0  0
 30 49  1  0  0  0  0
 30 50  1  0  0  0  0
 31 32  1  0  0  0  0
 31 33  1  0  0  0  0
 31 47  1  6  0  0  0
 32 34  1  0  0  0  0
 32 48  1  6  0  0  0
 33 36  1  0  0  0  0
 33 56  1  1  0  0  0
 34 23  1  0  0  0  0
 34 57  1  1  0  0  0
 35 37  1  0  0  0  0
 35 38  1  0  0  0  0
 36 58  1  0  0  0  0
 36 59  1  0  0  0  0
 37 41  2  0  0  0  0
 38 42  2  0  0  0  0
 39 44  1  0  0  0  0
 40 60  1  0  0  0  0
 41 43  1  0  0  0  0
 41 61  1  0  0  0  0
 42 43  1  0  0  0  0
 42 62  1  0  0  0  0
 44 45  2  0  0  0  0
 46 63  1  0  0  0  0
M  CHG  6   8  -1   9  -1  16  -1  24   1  25   1  28   1
M  END
>  <DRUGBANK_ID>
DB02524

>  <SECONDARY_ACCESSION_NUMBERS>
EXPT00019

>  <COMMON_NAME>
2',3'-O-{4-[Hydroxy(oxido)-Î»5-azanylidene]-2,6-dinitro-2,5-cyclohexadiene-1,1-diyl}adenosine 5'-(tetrahydrogen triphosphate)

$$$$
