
 OpenBabel10282417072D

188192  0  0  0  0  0  0  0  0999 V2000
    5.1397   -0.1194    0.0000 O   0  0  0  0  0  0  0  0  0  0  0  0
    4.3311    0.0425    0.0000 C   0  0  2  0  0  0  0  0  0  0  0  0
    3.7864   -0.5767    0.0000 C   0  0  0  0  0  0  0  0  0  0  0  0
    4.0668    0.8240    0.0000 C   0  0  2  0  0  0  0  0  0  0  0  0
    3.2581    0.9856    0.0000 N   0  0  0  0  0  0  0  0  0  0  0  0
    2.9939    1.7671    0.0000 C   0  0  0  0  0  0  0  0  0  0  0  0
    3.5386    2.3865    0.0000 O   0  0  0  0  0  0  0  0  0  0  0  0
    2.1853    1.9289    0.0000 C   0  0  2  0  0  0  0  0  0  0  0  0
    1.6124    1.2744    0.0000 C   0  0  0  0  0  0  0  0  0  0  0  0
    0.7553    1.4532    0.0000 S   0  0  0  0  0  0  0  0  0  0  0  0
    0.1768    0.7924    0.0000 S   0  0  0  0  0  0  0  0  0  0  0  0
   -0.9834   -0.4676    0.0000 N   0  0  0  0  0  0  0  0  0  0  0  0
   -1.5322   -1.0833    0.0000 C   0  0  0  0  0  0  0  0  0  0  0  0
   -2.3397   -0.9158    0.0000 O   0  0  0  0  0  0  0  0  0  0  0  0
   -1.2733   -1.8662    0.0000 C   0  0  2  0  0  0  0  0  0  0  0  0
   -0.4655   -2.0338    0.0000 N   0  0  0  0  0  0  0  0  0  0  0  0
   -0.2067   -2.8168    0.0000 C   0  0  0  0  0  0  0  0  0  0  0  0
    0.6009   -2.9842    0.0000 C   0  0  0  0  0  0  0  0  0  0  0  0
    0.8597   -3.7671    0.0000 N   0  0  0  0  0  0  0  0  0  0  0  0
    1.6438   -4.0550    0.0000 C   0  0  0  0  0  0  0  0  0  0  0  0
    1.5348   -4.8857    0.0000 C   0  0  0  0  0  0  0  0  0  0  0  0
    2.2252   -5.3428    0.0000 N   0  0  0  0  0  0  0  0  0  0  0  0
    3.0093   -5.0871    0.0000 C   0  0  0  0  0  0  0  0  0  0  0  0
    3.6229   -5.6385    0.0000 C   0  0  0  0  0  0  0  0  0  0  0  0
    3.4522   -6.4452    0.0000 O   0  0  0  0  0  0  0  0  0  0  0  0
    4.4071   -5.3826    0.0000 O   0  5  0  0  0  0  0  0  0  0  0  0
    1.9349   -6.1244    0.0000 C   0  0  0  0  0  0  0  0  0  0  0  0
    1.1026   -6.0163    0.0000 C   0  0  0  0  0  0  0  0  0  0  0  0
    0.6434   -6.7097    0.0000 N   0  0  0  0  0  0  0  0  0  0  0  0
    0.9002   -7.4934    0.0000 C   0  0  0  0  0  0  0  0  0  0  0  0
    0.3496   -8.1076    0.0000 C   0  0  0  0  0  0  0  0  0  0  0  0
   -0.4572   -7.9379    0.0000 O   0  0  0  0  0  0  0  0  0  0  0  0
    0.6064   -8.8914    0.0000 O   0  5  0  0  0  0  0  0  0  0  0  0
   -0.1478   -6.4182    0.0000 C   0  0  0  0  0  0  0  0  0  0  0  0
   -0.0455   -5.5941    0.0000 C   0  0  0  0  0  0  0  0  0  0  0  0
   -0.7329   -5.1384    0.0000 N   0  0  0  0  0  0  0  0  0  0  0  0
   -1.5177   -5.3918    0.0000 C   0  0  0  0  0  0  0  0  0  0  0  0
   -2.1298   -4.8388    0.0000 C   0  0  0  0  0  0  0  0  0  0  0  0
   -1.9568   -4.0323    0.0000 O   0  0  0  0  0  0  0  0  0  0  0  0
   -2.9146   -5.0922    0.0000 O   0  5  0  0  0  0  0  0  0  0  0  0
   -0.4387   -4.3587    0.0000 C   0  0  0  0  0  0  0  0  0  0  0  0
    0.3957   -4.4748    0.0000 C   0  0  0  0  0  0  0  0  0  0  0  0
   -0.7556   -3.4326    0.0000 O   0  0  0  0  0  0  0  0  0  0  0  0
   -1.8219   -2.4821    0.0000 C   0  0  0  0  0  0  0  0  0  0  0  0
   -2.6296   -2.3148    0.0000 C   0  0  0  0  0  0  0  0  0  0  0  0
   -2.8875   -1.5268    0.0000 C   0  0  0  0  0  0  0  0  0  0  0  0
   -3.6953   -1.3594    0.0000 C   0  0  0  0  0  0  0  0  0  0  0  0
   -4.2477   -1.9720    0.0000 C   0  0  0  0  0  0  0  0  0  0  0  0
   -3.9896   -2.7600    0.0000 C   0  0  0  0  0  0  0  0  0  0  0  0
   -3.1792   -2.9353    0.0000 C   0  0  0  0  0  0  0  0  0  0  0  0
   -3.2104    2.2612    0.0000 C   0  0  0  0  0  0  0  0  0  0  0  0
   -3.7644    1.6500    0.0000 C   0  0  0  0  0  0  0  0  0  0  0  0
   -3.5083    0.8616    0.0000 C   0  0  0  0  0  0  0  0  0  0  0  0
   -4.0621    0.2501    0.0000 C   0  0  0  0  0  0  0  0  0  0  0  0
   -4.8691    0.4193    0.0000 C   0  0  0  0  0  0  0  0  0  0  0  0
   -5.4202   -0.1942    0.0000 O   0  0  0  0  0  0  0  0  0  0  0  0
   -5.1252    1.2079    0.0000 C   0  0  0  0  0  0  0  0  0  0  0  0
   -4.5741    1.8272    0.0000 C   0  0  0  0  0  0  0  0  0  0  0  0
   -2.0459    2.7438    0.0000 C   0  0  0  0  0  0  0  0  0  0  0  0
   -2.8816    2.9248    0.0000 O   0  0  0  0  0  0  0  0  0  0  0  0
   -1.4727    3.3837    0.0000 N   0  0  0  0  0  0  0  0  0  0  0  0
   -1.7424    4.1997    0.0000 C   0  0  2  0  0  0  0  0  0  0  0  0
   -2.5489    4.3712    0.0000 C   0  0  0  0  0  0  0  0  0  0  0  0
   -2.8037    5.1555    0.0000 C   0  0  0  0  0  0  0  0  0  0  0  0
   -2.3155    5.8278    0.0000 C   0  0  0  0  0  0  0  0  0  0  0  0
   -2.8037    6.4996    0.0000 N   0  0  0  0  0  0  0  0  0  0  0  0
   -3.5937    6.2430    0.0000 C   0  0  0  0  0  0  0  0  0  0  0  0
   -4.3095    6.6619    0.0000 C   0  0  0  0  0  0  0  0  0  0  0  0
   -5.0256    6.2430    0.0000 C   0  0  0  0  0  0  0  0  0  0  0  0
   -5.0256    5.4133    0.0000 C   0  0  0  0  0  0  0  0  0  0  0  0
   -4.3095    5.0028    0.0000 C   0  0  0  0  0  0  0  0  0  0  0  0
   -3.5937    5.4123    0.0000 C   0  0  0  0  0  0  0  0  0  0  0  0
   -1.1642    4.8352    0.0000 C   0  0  0  0  0  0  0  0  0  0  0  0
   -1.4230    5.6185    0.0000 O   0  0  0  0  0  0  0  0  0  0  0  0
   -0.3195    4.6681    0.0000 N   0  0  0  0  0  0  0  0  0  0  0  0
    0.2489    5.3080    0.0000 C   0  0  1  0  0  0  0  0  0  0  0  0
   -0.0163    6.0891    0.0000 C   0  0  0  0  0  0  0  0  0  0  0  0
    0.5274    6.7092    0.0000 C   0  0  0  0  0  0  0  0  0  0  0  0
    0.2622    7.4902    0.0000 C   0  0  0  0  0  0  0  0  0  0  0  0
    0.8057    8.1106    0.0000 C   0  0  0  0  0  0  0  0  0  0  0  0
    0.5404    8.8914    0.0000 N   0  0  0  0  0  0  0  0  0  0  0  0
    1.0831    5.1476    0.0000 C   0  0  0  0  0  0  0  0  0  0  0  0
    1.6230    5.7715    0.0000 O   0  0  0  0  0  0  0  0  0  0  0  0
    1.3640    4.3370    0.0000 N   0  0  0  0  0  0  0  0  0  0  0  0
    2.2077    4.1658    0.0000 C   0  0  2  0  0  0  0  0  0  0  0  0
    2.4815    3.3551    0.0000 C   0  0  0  0  0  0  0  0  0  0  0  0
    3.2866    3.1757    0.0000 O   0  0  0  0  0  0  0  0  0  0  0  0
    1.9074    2.7562    0.0000 N   0  0  0  0  0  0  0  0  0  0  0  0
    2.7533    4.7845    0.0000 C   0  0  2  0  0  0  0  0  0  0  0  0
    2.4903    5.5662    0.0000 O   0  0  0  0  0  0  0  0  0  0  0  0
    3.5617    4.6215    0.0000 C   0  0  0  0  0  0  0  0  0  0  0  0
    4.6115    1.4432    0.0000 C   0  0  0  0  0  0  0  0  0  0  0  0
    5.4202    1.2813    0.0000 O   0  0  0  0  0  0  0  0  0  0  0  0
    4.6115    2.2682    0.0000 O   0  0  0  0  0  0  0  0  0  0  0  0
   -2.3715    1.3155    0.0000 N   0  0  0  0  0  0  0  0  0  0  0  0
   -2.6511   -0.1126    0.0000 O   0  0  0  0  0  0  0  0  0  0  0  0
   -2.1003    0.5011    0.0000 C   0  0  0  0  0  0  0  0  0  0  0  0
   -1.7995    1.9568    0.0000 C   0  0  1  0  0  0  0  0  0  0  0  0
   -0.6734    0.9652    0.0000 C   0  0  0  0  0  0  0  0  0  0  0  0
   -1.2423    0.3155    0.0000 C   0  0  2  0  0  0  0  0  0  0  0  0
    0.7222   -5.0731    0.0000 Ga  0  1  0  0  0  0  0  0  0  0  0  0
    5.4503   -1.0383    0.0000 H   0  0  0  0  0  0  0  0  0  0  0  0
    3.2819    0.2526    0.0000 H   0  0  0  0  0  0  0  0  0  0  0  0
    2.7373   -0.3663    0.0000 H   0  0  0  0  0  0  0  0  0  0  0  0
    4.1288   -1.5904    0.0000 H   0  0  0  0  0  0  0  0  0  0  0  0
    3.0797   -1.3801    0.0000 H   0  0  0  0  0  0  0  0  0  0  0  0
    3.3605    0.0202    0.0000 H   0  0  0  0  0  0  0  0  0  0  0  0
    2.6082    0.2461    0.0000 H   0  0  0  0  0  0  0  0  0  0  0  0
    2.5291    0.9156    0.0000 H   0  0  0  0  0  0  0  0  0  0  0  0
    1.9521    0.2598    0.0000 H   0  0  0  0  0  0  0  0  0  0  0  0
    0.9015    0.4747    0.0000 H   0  0  0  0  0  0  0  0  0  0  0  0
   -0.0194   -0.6674    0.0000 H   0  0  0  0  0  0  0  0  0  0  0  0
   -0.5613   -1.0674    0.0000 H   0  0  0  0  0  0  0  0  0  0  0  0
    0.1896   -1.2989    0.0000 H   0  0  0  0  0  0  0  0  0  0  0  0
    1.3128   -2.1854    0.0000 H   0  0  0  0  0  0  0  0  0  0  0  0
    1.6486   -3.2013    0.0000 H   0  0  0  0  0  0  0  0  0  0  0  0
    2.5592   -3.5010    0.0000 H   0  0  0  0  0  0  0  0  0  0  0  0
    2.5397   -4.6401    0.0000 H   0  0  0  0  0  0  0  0  0  0  0  0
    0.5612   -5.3296    0.0000 H   0  0  0  0  0  0  0  0  0  0  0  0
    1.4509   -5.9524    0.0000 H   0  0  0  0  0  0  0  0  0  0  0  0
    3.2307   -4.0403    0.0000 H   0  0  0  0  0  0  0  0  0  0  0  0
    4.0266   -4.7554    0.0000 H   0  0  0  0  0  0  0  0  0  0  0  0
    2.4878   -7.0405    0.0000 H   0  0  0  0  0  0  0  0  0  0  0  0
    1.3499   -7.0203    0.0000 H   0  0  0  0  0  0  0  0  0  0  0  0
    0.6582   -5.0430    0.0000 H   0  0  0  0  0  0  0  0  0  0  0  0
    0.0359   -5.9326    0.0000 H   0  0  0  0  0  0  0  0  0  0  0  0
    1.9473   -7.7134    0.0000 H   0  0  0  0  0  0  0  0  0  0  0  0
    1.2332   -8.5103    0.0000 H   0  0  0  0  0  0  0  0  0  0  0  0
   -1.0616   -6.9749    0.0000 H   0  0  0  0  0  0  0  0  0  0  0  0
   -1.0466   -5.8376    0.0000 H   0  0  0  0  0  0  0  0  0  0  0  0
    0.9267   -5.1471    0.0000 H   0  0  0  0  0  0  0  0  0  0  0  0
    0.0371   -4.5273    0.0000 H   0  0  0  0  0  0  0  0  0  0  0  0
   -1.7420   -6.4380    0.0000 H   0  0  0  0  0  0  0  0  0  0  0  0
   -2.5359   -5.7207    0.0000 H   0  0  0  0  0  0  0  0  0  0  0  0
   -0.9850   -3.4387    0.0000 H   0  0  0  0  0  0  0  0  0  0  0  0
    0.1536   -3.4676    0.0000 H   0  0  0  0  0  0  0  0  0  0  0  0
    0.8380   -5.4491    0.0000 H   0  0  0  0  0  0  0  0  0  0  0  0
    1.4625   -4.5572    0.0000 H   0  0  0  0  0  0  0  0  0  0  0  0
   -1.4859   -3.4980    0.0000 H   0  0  0  0  0  0  0  0  0  0  0  0
   -2.5337   -3.2810    0.0000 H   0  0  0  0  0  0  0  0  0  0  0  0
   -2.1997   -0.7574    0.0000 H   0  0  0  0  0  0  0  0  0  0  0  0
   -4.0163   -0.3786    0.0000 H   0  0  0  0  0  0  0  0  0  0  0  0
   -5.2573   -1.7583    0.0000 H   0  0  0  0  0  0  0  0  0  0  0  0
   -4.6806   -3.5265    0.0000 H   0  0  0  0  0  0  0  0  0  0  0  0
   -2.8581   -3.9161    0.0000 H   0  0  0  0  0  0  0  0  0  0  0  0
   -3.5378    3.2799    0.0000 H   0  0  0  0  0  0  0  0  0  0  0  0
   -2.4920    3.0541    0.0000 H   0  0  0  0  0  0  0  0  0  0  0  0
   -2.4992    0.6455    0.0000 H   0  0  0  0  0  0  0  0  0  0  0  0
   -3.7433   -0.7314    0.0000 H   0  0  0  0  0  0  0  0  0  0  0  0
   -6.3370   -0.0005    0.0000 H   0  0  0  0  0  0  0  0  0  0  0  0
   -6.1353    1.4196    0.0000 H   0  0  0  0  0  0  0  0  0  0  0  0
   -4.8929    2.8087    0.0000 H   0  0  0  0  0  0  0  0  0  0  0  0
   -0.5089    3.1827    0.0000 H   0  0  0  0  0  0  0  0  0  0  0  0
   -2.4564    3.4028    0.0000 H   0  0  0  0  0  0  0  0  0  0  0  0
   -3.2649    3.5761    0.0000 H   0  0  0  0  0  0  0  0  0  0  0  0
   -3.5955    4.5937    0.0000 H   0  0  0  0  0  0  0  0  0  0  0  0
   -1.2835    5.8280    0.0000 H   0  0  0  0  0  0  0  0  0  0  0  0
   -2.4995    7.4359    0.0000 H   0  0  0  0  0  0  0  0  0  0  0  0
   -4.3094    7.6939    0.0000 H   0  0  0  0  0  0  0  0  0  0  0  0
   -5.9208    6.7565    0.0000 H   0  0  0  0  0  0  0  0  0  0  0  0
   -5.9185    4.8959    0.0000 H   0  0  0  0  0  0  0  0  0  0  0  0
   -4.3099    3.9708    0.0000 H   0  0  0  0  0  0  0  0  0  0  0  0
   -0.0055    3.7350    0.0000 H   0  0  0  0  0  0  0  0  0  0  0  0
   -0.7999    5.5200    0.0000 H   0  0  0  0  0  0  0  0  0  0  0  0
   -1.0658    6.2978    0.0000 H   0  0  0  0  0  0  0  0  0  0  0  0
   -0.3603    7.1023    0.0000 H   0  0  0  0  0  0  0  0  0  0  0  0
    1.5769    6.5006    0.0000 H   0  0  0  0  0  0  0  0  0  0  0  0
    1.2328    7.5137    0.0000 H   0  0  0  0  0  0  0  0  0  0  0  0
   -0.7873    7.6986    0.0000 H   0  0  0  0  0  0  0  0  0  0  0  0
   -0.0822    8.5033    0.0000 H   0  0  0  0  0  0  0  0  0  0  0  0
    1.8552    7.9023    0.0000 H   0  0  0  0  0  0  0  0  0  0  0  0
    1.5109    8.9153    0.0000 H   0  0  0  0  0  0  0  0  0  0  0  0
    1.2127    9.6585    0.0000 H   0  0  0  0  0  0  0  0  0  0  0  0
   -0.4601    9.0901    0.0000 H   0  0  0  0  0  0  0  0  0  0  0  0
    0.7158    3.5960    0.0000 H   0  0  0  0  0  0  0  0  0  0  0  0
    1.5000    3.3632    0.0000 H   0  0  0  0  0  0  0  0  0  0  0  0
    0.9466    2.9711    0.0000 H   0  0  0  0  0  0  0  0  0  0  0  0
    1.7044    4.9961    0.0000 H   0  0  0  0  0  0  0  0  0  0  0  0
    3.1318    6.2938    0.0000 H   0  0  0  0  0  0  0  0  0  0  0  0
    3.9030    3.6074    0.0000 H   0  0  0  0  0  0  0  0  0  0  0  0
    4.2693    5.4241    0.0000 H   0  0  0  0  0  0  0  0  0  0  0  0
    4.6106    4.4100    0.0000 H   0  0  0  0  0  0  0  0  0  0  0  0
    5.7203    0.3937    0.0000 H   0  0  0  0  0  0  0  0  0  0  0  0
   -3.3357    1.5144    0.0000 H   0  0  0  0  0  0  0  0  0  0  0  0
   -2.5897    2.6782    0.0000 H   0  0  0  0  0  0  0  0  0  0  0  0
   -1.0156    1.9790    0.0000 H   0  0  0  0  0  0  0  0  0  0  0  0
    0.0345    1.7676    0.0000 H   0  0  0  0  0  0  0  0  0  0  0  0
   -1.9577   -0.4802    0.0000 H   0  0  0  0  0  0  0  0  0  0  0  0
  1102  1  0  0  0  0
  2  1  1  0  0  0  0
  2  3  1  0  0  0  0
  2103  1  1  0  0  0
  3104  1  0  0  0  0
  3105  1  0  0  0  0
  3106  1  0  0  0  0
  4  2  1  0  0  0  0
  4  5  1  0  0  0  0
  4 92  1  0  0  0  0
  4107  1  1  0  0  0
  5  6  1  0  0  0  0
  5108  1  0  0  0  0
  6  7  2  0  0  0  0
  8  6  1  0  0  0  0
  8  9  1  0  0  0  0
  8 88  1  0  0  0  0
  8109  1  1  0  0  0
  9 10  1  0  0  0  0
  9110  1  0  0  0  0
  9111  1  0  0  0  0
 10 11  1  0  0  0  0
 11 99  1  0  0  0  0
 12 13  1  0  0  0  0
 12112  1  0  0  0  0
 13 14  2  0  0  0  0
 15 13  1  0  0  0  0
 15 16  1  0  0  0  0
 15 44  1  0  0  0  0
 15113  1  1  0  0  0
 16 17  1  0  0  0  0
 16114  1  0  0  0  0
 17 18  1  0  0  0  0
 17 43  2  0  0  0  0
 18 19  1  0  0  0  0
 18115  1  0  0  0  0
 18116  1  0  0  0  0
 19 20  1  0  0  0  0
 19 42  1  0  0  0  0
 20 21  1  0  0  0  0
 20117  1  0  0  0  0
 20118  1  0  0  0  0
 21 22  1  0  0  0  0
 21119  1  0  0  0  0
 21120  1  0  0  0  0
 22 23  1  0  0  0  0
 22 27  1  0  0  0  0
 23 24  1  0  0  0  0
 23121  1  0  0  0  0
 23122  1  0  0  0  0
 24 25  2  0  0  0  0
 24 26  1  0  0  0  0
 27 28  1  0  0  0  0
 27123  1  0  0  0  0
 27124  1  0  0  0  0
 28 29  1  0  0  0  0
 28125  1  0  0  0  0
 28126  1  0  0  0  0
 29 30  1  0  0  0  0
 29 34  1  0  0  0  0
 30 31  1  0  0  0  0
 30127  1  0  0  0  0
 30128  1  0  0  0  0
 31 32  2  0  0  0  0
 31 33  1  0  0  0  0
 34 35  1  0  0  0  0
 34129  1  0  0  0  0
 34130  1  0  0  0  0
 35 36  1  0  0  0  0
 35131  1  0  0  0  0
 35132  1  0  0  0  0
 36 37  1  0  0  0  0
 36 41  1  0  0  0  0
 37 38  1  0  0  0  0
 37133  1  0  0  0  0
 37134  1  0  0  0  0
 38 39  2  0  0  0  0
 38 40  1  0  0  0  0
 41 42  1  0  0  0  0
 41135  1  0  0  0  0
 41136  1  0  0  0  0
 42137  1  0  0  0  0
 42138  1  0  0  0  0
 44 45  1  0  0  0  0
 44139  1  0  0  0  0
 44140  1  0  0  0  0
 45 46  2  0  0  0  0
 45 50  1  0  0  0  0
 46 47  1  0  0  0  0
 46141  1  0  0  0  0
 47 48  2  0  0  0  0
 47142  1  0  0  0  0
 48 49  1  0  0  0  0
 48143  1  0  0  0  0
 49 50  2  0  0  0  0
 49144  1  0  0  0  0
 50145  1  0  0  0  0
 51 52  1  0  0  0  0
 51146  1  0  0  0  0
 51147  1  0  0  0  0
 52 53  2  0  0  0  0
 52 58  1  0  0  0  0
 53 54  1  0  0  0  0
 53148  1  0  0  0  0
 54 55  2  0  0  0  0
 54149  1  0  0  0  0
 55 56  1  0  0  0  0
 55 57  1  0  0  0  0
 56150  1  0  0  0  0
 57 58  2  0  0  0  0
 57151  1  0  0  0  0
 58152  1  0  0  0  0
 59 60  2  0  0  0  0
 59 61  1  0  0  0  0
 59 98  1  0  0  0  0
 61 62  1  0  0  0  0
 61153  1  0  0  0  0
 62 63  1  0  0  0  0
 62 73  1  0  0  0  0
 62154  1  1  0  0  0
 63 64  1  0  0  0  0
 63155  1  0  0  0  0
 63156  1  0  0  0  0
 64 65  2  0  0  0  0
 64 72  1  0  0  0  0
 65 66  1  0  0  0  0
 65157  1  0  0  0  0
 66 67  1  0  0  0  0
 66158  1  0  0  0  0
 67 68  1  0  0  0  0
 67 72  2  0  0  0  0
 68159  1  0  0  0  0
 69 68  2  0  0  0  0
 69160  1  0  0  0  0
 70 69  1  0  0  0  0
 70161  1  0  0  0  0
 71 70  2  0  0  0  0
 71162  1  0  0  0  0
 72 71  1  0  0  0  0
 73 74  2  0  0  0  0
 73 75  1  0  0  0  0
 75 76  1  0  0  0  0
 75163  1  0  0  0  0
 76 77  1  0  0  0  0
 76 82  1  0  0  0  0
 76164  1  6  0  0  0
 77 78  1  0  0  0  0
 77165  1  0  0  0  0
 77166  1  0  0  0  0
 78 79  1  0  0  0  0
 78167  1  0  0  0  0
 78168  1  0  0  0  0
 79 80  1  0  0  0  0
 79169  1  0  0  0  0
 79170  1  0  0  0  0
 80 81  1  0  0  0  0
 80171  1  0  0  0  0
 80172  1  0  0  0  0
 81173  1  0  0  0  0
 81174  1  0  0  0  0
 82 83  2  0  0  0  0
 82 84  1  0  0  0  0
 84 85  1  0  0  0  0
 84175  1  0  0  0  0
 85 86  1  0  0  0  0
 85 89  1  0  0  0  0
 85176  1  6  0  0  0
 86 87  2  0  0  0  0
 86 88  1  0  0  0  0
 88177  1  0  0  0  0
 89 90  1  0  0  0  0
 89 91  1  0  0  0  0
 89178  1  1  0  0  0
 90179  1  0  0  0  0
 91180  1  0  0  0  0
 91181  1  0  0  0  0
 91182  1  0  0  0  0
 92 93  1  0  0  0  0
 92 94  2  0  0  0  0
 93183  1  0  0  0  0
 95 97  1  0  0  0  0
 95184  1  0  0  0  0
 97100  1  0  0  0  0
 97 96  2  0  0  0  0
 98 51  1  0  0  0  0
 98 95  1  0  0  0  0
 98185  1  6  0  0  0
 99186  1  0  0  0  0
 99187  1  0  0  0  0
100 12  1  0  0  0  0
100 99  1  0  0  0  0
100188  1  1  0  0  0
M  ISO  1 101  68
M  CHG  4  26  -1  33  -1  40  -1 101   3
M  END
>  <DRUGBANK_ID>
DB13925

>  <COMMON_NAME>
Dotatate gallium Ga-68

>  <CAS_NUMBER>
1027785-90-5

>  <UNII>
9L17Y0H71P

>  <SYNONYMS>
(68Ga)Gallium dotatate; 68Ga-DOTATATE; 68Ga-DOTATOC; DOTA-octreotate gallium Ga-68; Dotatate gallium Ga-68; Ga 68 DOTATOC; Gallium (68Ga) DOTA-tate; Gallium (68Ga) dotatate; Gallium (Ga 68) dotatate; Gallium 68 dotatate; Gallium dotatate, Ga-68; Gallium oxodotreotide Ga-68; Gallium-DOTA-octreotate Ga-68; Gallium-DOTA-octreotate, Ga-68; Gatate

$$$$
