W43
 OpenBabel10282417072D

 54 56  0  0  0  0  0  0  0  0999 V2000
   -5.5396    0.1593    0.0000 O   0  0  0  0  0  0  0  0  0  0  0  0
   -6.0916    0.7724    0.0000 N   0  0  0  0  0  0  0  0  0  0  0  0
   -5.6791    1.4869    0.0000 C   0  0  0  0  0  0  0  0  0  0  0  0
   -6.0147    2.2406    0.0000 C   0  0  0  0  0  0  0  0  0  0  0  0
   -4.8721    1.3154    0.0000 C   0  0  0  0  0  0  0  0  0  0  0  0
   -4.7859    0.4949    0.0000 C   0  0  0  0  0  0  0  0  0  0  0  0
   -4.0714    0.0824    0.0000 C   0  0  0  0  0  0  0  0  0  0  0  0
   -3.3570    0.4949    0.0000 C   0  0  0  0  0  0  0  0  0  0  0  0
   -2.6425    0.0824    0.0000 C   0  0  0  0  0  0  0  0  0  0  0  0
   -1.9280    0.4949    0.0000 C   0  0  0  0  0  0  0  0  0  0  0  0
   -1.2135    0.0824    0.0000 C   0  0  0  0  0  0  0  0  0  0  0  0
   -0.4991    0.4949    0.0000 C   0  0  0  0  0  0  0  0  0  0  0  0
    0.2154    0.0824    0.0000 C   0  0  0  0  0  0  0  0  0  0  0  0
    0.9299    0.4949    0.0000 O   0  0  0  0  0  0  0  0  0  0  0  0
    1.6443    0.0824    0.0000 C   0  0  0  0  0  0  0  0  0  0  0  0
    2.3588    0.4949    0.0000 C   0  0  0  0  0  0  0  0  0  0  0  0
    3.0733    0.0824    0.0000 C   0  0  0  0  0  0  0  0  0  0  0  0
    3.0733   -0.7426    0.0000 C   0  0  0  0  0  0  0  0  0  0  0  0
    2.3588   -1.1551    0.0000 C   0  0  0  0  0  0  0  0  0  0  0  0
    1.6443   -0.7426    0.0000 C   0  0  0  0  0  0  0  0  0  0  0  0
    0.9299   -1.1551    0.0000 Cl  0  0  0  0  0  0  0  0  0  0  0  0
    3.7878   -1.1551    0.0000 C   0  0  0  0  0  0  0  0  0  0  0  0
    4.5414   -0.8195    0.0000 N   0  0  0  0  0  0  0  0  0  0  0  0
    5.0935   -1.4326    0.0000 C   0  0  1  0  0  0  0  0  0  0  0  0
    5.9139   -1.3464    0.0000 C   0  0  0  0  0  0  0  0  0  0  0  0
    4.6810   -2.1471    0.0000 C   0  0  0  0  0  0  0  0  0  0  0  0
    3.8740   -1.9756    0.0000 O   0  0  0  0  0  0  0  0  0  0  0  0
    5.3027   -0.8875    0.0000 H   0  0  0  0  0  0  0  0  0  0  0  0
   -5.3858    3.1063    0.0000 H   0  0  0  0  0  0  0  0  0  0  0  0
   -7.0788    2.3524    0.0000 H   0  0  0  0  0  0  0  0  0  0  0  0
   -6.4499    3.2181    0.0000 H   0  0  0  0  0  0  0  0  0  0  0  0
   -4.1052    2.0059    0.0000 H   0  0  0  0  0  0  0  0  0  0  0  0
   -4.0714   -0.9876    0.0000 H   0  0  0  0  0  0  0  0  0  0  0  0
   -3.1447   -0.4526    0.0000 H   0  0  0  0  0  0  0  0  0  0  0  0
   -3.3570    1.5649    0.0000 H   0  0  0  0  0  0  0  0  0  0  0  0
   -2.4304    1.0299    0.0000 H   0  0  0  0  0  0  0  0  0  0  0  0
   -2.6425   -0.9876    0.0000 H   0  0  0  0  0  0  0  0  0  0  0  0
   -1.7159   -0.4526    0.0000 H   0  0  0  0  0  0  0  0  0  0  0  0
   -1.9280    1.5649    0.0000 H   0  0  0  0  0  0  0  0  0  0  0  0
   -1.0014    1.0299    0.0000 H   0  0  0  0  0  0  0  0  0  0  0  0
   -1.2135   -0.9876    0.0000 H   0  0  0  0  0  0  0  0  0  0  0  0
   -0.2868   -0.4526    0.0000 H   0  0  0  0  0  0  0  0  0  0  0  0
   -0.4991    1.5649    0.0000 H   0  0  0  0  0  0  0  0  0  0  0  0
    0.4275    1.0299    0.0000 H   0  0  0  0  0  0  0  0  0  0  0  0
    0.2154   -0.9876    0.0000 H   0  0  0  0  0  0  0  0  0  0  0  0
    1.1420   -0.4526    0.0000 H   0  0  0  0  0  0  0  0  0  0  0  0
    2.3588    1.5269    0.0000 H   0  0  0  0  0  0  0  0  0  0  0  0
    3.9670    0.5984    0.0000 H   0  0  0  0  0  0  0  0  0  0  0  0
    2.3588   -2.1871    0.0000 H   0  0  0  0  0  0  0  0  0  0  0  0
    6.5428   -2.2121    0.0000 H   0  0  0  0  0  0  0  0  0  0  0  0
    6.3491   -0.3689    0.0000 H   0  0  0  0  0  0  0  0  0  0  0  0
    6.9780   -1.2346    0.0000 H   0  0  0  0  0  0  0  0  0  0  0  0
    5.1162   -3.1246    0.0000 H   0  0  0  0  0  0  0  0  0  0  0  0
    4.0077   -2.9787    0.0000 H   0  0  0  0  0  0  0  0  0  0  0  0
  1  2  1  0  0  0  0
  1  6  1  0  0  0  0
  2  3  2  0  0  0  0
  3  4  1  0  0  0  0
  3  5  1  0  0  0  0
  4 29  1  0  0  0  0
  4 30  1  0  0  0  0
  4 31  1  0  0  0  0
  5  6  2  0  0  0  0
  5 32  1  0  0  0  0
  6  7  1  0  0  0  0
  7  8  1  0  0  0  0
  7 33  1  0  0  0  0
  7 34  1  0  0  0  0
  8  9  1  0  0  0  0
  8 35  1  0  0  0  0
  8 36  1  0  0  0  0
  9 10  1  0  0  0  0
  9 37  1  0  0  0  0
  9 38  1  0  0  0  0
 10 11  1  0  0  0  0
 10 39  1  0  0  0  0
 10 40  1  0  0  0  0
 11 12  1  0  0  0  0
 11 41  1  0  0  0  0
 11 42  1  0  0  0  0
 12 13  1  0  0  0  0
 12 43  1  0  0  0  0
 12 44  1  0  0  0  0
 13 14  1  0  0  0  0
 13 45  1  0  0  0  0
 13 46  1  0  0  0  0
 14 15  1  0  0  0  0
 15 16  2  0  0  0  0
 15 20  1  0  0  0  0
 16 17  1  0  0  0  0
 16 47  1  0  0  0  0
 17 18  2  0  0  0  0
 17 48  1  0  0  0  0
 18 19  1  0  0  0  0
 18 22  1  0  0  0  0
 19 20  2  0  0  0  0
 19 49  1  0  0  0  0
 20 21  1  0  0  0  0
 22 23  2  0  0  0  0
 22 27  1  0  0  0  0
 23 24  1  0  0  0  0
 24 25  1  0  0  0  0
 24 26  1  0  0  0  0
 24 28  1  6  0  0  0
 25 50  1  0  0  0  0
 25 51  1  0  0  0  0
 25 52  1  0  0  0  0
 26 27  1  0  0  0  0
 26 53  1  0  0  0  0
 26 54  1  0  0  0  0
M  END
>  <DRUGBANK_ID>
DB08722

>  <COMMON_NAME>
5-(7-(6-chloro-4-(5-hydro-4-methyl-2-oxazolyl)phenoxy)heptyl)-3-methyl isoxazole

$$$$
