TRZ
 OpenBabel10282417072D

 51 52  0  0  0  0  0  0  0  0999 V2000
   -0.9445    0.5944    0.0000 C   0  0  0  0  0  0  0  0  0  0  0  0
   -0.2300    1.0069    0.0000 C   0  0  0  0  0  0  0  0  0  0  0  0
    0.4845    0.5944    0.0000 C   0  0  0  0  0  0  0  0  0  0  0  0
    0.4845   -0.2306    0.0000 C   0  0  0  0  0  0  0  0  0  0  0  0
   -0.2300   -0.6431    0.0000 C   0  0  0  0  0  0  0  0  0  0  0  0
   -0.9445   -0.2306    0.0000 C   0  0  0  0  0  0  0  0  0  0  0  0
    1.2691    0.8493    0.0000 C   0  0  0  0  0  0  0  0  0  0  0  0
    1.7540    0.1819    0.0000 C   0  0  2  0  0  0  0  0  0  0  0  0
    1.2691   -0.4856    0.0000 C   0  0  2  0  0  0  0  0  0  0  0  0
    1.5240   -1.2702    0.0000 C   0  0  0  0  0  0  0  0  0  0  0  0
    2.3310   -1.4417    0.0000 C   0  0  0  0  0  0  0  0  0  0  0  0
    0.9720   -1.8833    0.0000 C   0  0  0  0  0  0  0  0  0  0  0  0
    2.5790    0.1819    0.0000 C   0  0  0  0  0  0  0  0  0  0  0  0
    1.1060    1.6580    0.0000 C   0  0  0  0  0  0  0  0  0  0  0  0
    1.8764    1.4077    0.0000 C   0  0  0  0  0  0  0  0  0  0  0  0
   -1.6590    1.0069    0.0000 C   0  0  0  0  0  0  0  0  0  0  0  0
   -2.3734   -0.2306    0.0000 C   0  0  0  0  0  0  0  0  0  0  0  0
   -3.0879   -0.6431    0.0000 C   0  0  0  0  0  0  0  0  0  0  0  0
   -3.8024   -0.2306    0.0000 C   0  0  0  0  0  0  0  0  0  0  0  0
   -4.5168   -0.6431    0.0000 O   0  0  0  0  0  0  0  0  0  0  0  0
   -3.8024    0.5944    0.0000 O   0  0  0  0  0  0  0  0  0  0  0  0
   -1.6590   -0.6431    0.0000 C   0  0  0  0  0  0  0  0  0  0  0  0
   -1.6590   -1.4681    0.0000 O   0  0  0  0  0  0  0  0  0  0  0  0
    2.0191    0.7022    0.0000 H   0  0  0  0  0  0  0  0  0  0  0  0
    0.8562   -0.8985    0.0000 H   0  0  0  0  0  0  0  0  0  0  0  0
   -0.2300    2.0389    0.0000 H   0  0  0  0  0  0  0  0  0  0  0  0
   -0.2300   -1.6751    0.0000 H   0  0  0  0  0  0  0  0  0  0  0  0
    1.8547   -2.2878    0.0000 H   0  0  0  0  0  0  0  0  0  0  0  0
    2.6617   -2.4593    0.0000 H   0  0  0  0  0  0  0  0  0  0  0  0
    3.0469   -0.6465    0.0000 H   0  0  0  0  0  0  0  0  0  0  0  0
    3.3776   -1.6641    0.0000 H   0  0  0  0  0  0  0  0  0  0  0  0
   -0.0746   -1.6609    0.0000 H   0  0  0  0  0  0  0  0  0  0  0  0
    1.3027   -2.9009    0.0000 H   0  0  0  0  0  0  0  0  0  0  0  0
    0.2561   -2.6785    0.0000 H   0  0  0  0  0  0  0  0  0  0  0  0
    3.1140   -0.7447    0.0000 H   0  0  0  0  0  0  0  0  0  0  0  0
    3.1140    1.1085    0.0000 H   0  0  0  0  0  0  0  0  0  0  0  0
    3.6490    0.1819    0.0000 H   0  0  0  0  0  0  0  0  0  0  0  0
    1.9086    2.3656    0.0000 H   0  0  0  0  0  0  0  0  0  0  0  0
    0.0919    1.9992    0.0000 H   0  0  0  0  0  0  0  0  0  0  0  0
    0.8945    2.7069    0.0000 H   0  0  0  0  0  0  0  0  0  0  0  0
    2.8974    1.0877    0.0000 H   0  0  0  0  0  0  0  0  0  0  0  0
    1.6430    2.4519    0.0000 H   0  0  0  0  0  0  0  0  0  0  0  0
    2.6641    2.1319    0.0000 H   0  0  0  0  0  0  0  0  0  0  0  0
   -1.6590    2.0769    0.0000 H   0  0  0  0  0  0  0  0  0  0  0  0
   -2.5856    0.4719    0.0000 H   0  0  0  0  0  0  0  0  0  0  0  0
   -2.5857    1.5419    0.0000 H   0  0  0  0  0  0  0  0  0  0  0  0
   -2.3734    0.8394    0.0000 H   0  0  0  0  0  0  0  0  0  0  0  0
   -1.4467    0.3044    0.0000 H   0  0  0  0  0  0  0  0  0  0  0  0
   -3.0879   -1.7131    0.0000 H   0  0  0  0  0  0  0  0  0  0  0  0
   -4.0145   -1.1781    0.0000 H   0  0  0  0  0  0  0  0  0  0  0  0
   -2.9909    1.0629    0.0000 H   0  0  0  0  0  0  0  0  0  0  0  0
  1  2  2  0  0  0  0
  1  6  1  0  0  0  0
  1 16  1  0  0  0  0
  2  3  1  0  0  0  0
  2 26  1  0  0  0  0
  3  4  2  0  0  0  0
  3  7  1  0  0  0  0
  4  5  1  0  0  0  0
  4  9  1  0  0  0  0
  5  6  2  0  0  0  0
  5 27  1  0  0  0  0
  6 22  1  0  0  0  0
  7  8  1  0  0  0  0
  7 14  1  0  0  0  0
  7 15  1  0  0  0  0
  8  9  1  0  0  0  0
  8 13  1  0  0  0  0
  8 24  1  6  0  0  0
  9 10  1  0  0  0  0
  9 25  1  1  0  0  0
 10 11  1  0  0  0  0
 10 12  1  0  0  0  0
 10 28  1  0  0  0  0
 11 29  1  0  0  0  0
 11 30  1  0  0  0  0
 11 31  1  0  0  0  0
 12 32  1  0  0  0  0
 12 33  1  0  0  0  0
 12 34  1  0  0  0  0
 13 35  1  0  0  0  0
 13 36  1  0  0  0  0
 13 37  1  0  0  0  0
 14 38  1  0  0  0  0
 14 39  1  0  0  0  0
 14 40  1  0  0  0  0
 15 41  1  0  0  0  0
 15 42  1  0  0  0  0
 15 43  1  0  0  0  0
 16 44  1  0  0  0  0
 16 45  1  0  0  0  0
 16 46  1  0  0  0  0
 17 18  1  0  0  0  0
 17 22  1  0  0  0  0
 17 47  1  0  0  0  0
 17 48  1  0  0  0  0
 18 19  1  0  0  0  0
 18 49  1  0  0  0  0
 18 50  1  0  0  0  0
 19 20  2  0  0  0  0
 19 21  1  0  0  0  0
 21 51  1  0  0  0  0
 22 23  2  0  0  0  0
M  END
>  <DRUGBANK_ID>
DB08647

>  <COMMON_NAME>
Trazeolide

$$$$
