
 OpenBabel10282417072D

 51 54  0  0  1  0  0  0  0  0999 V2000
    0.7296   -1.5424    0.0000 C   0  0  0  0  0  0  0  0  0  0  0  0
    4.0193    1.0490    0.0000 C   0  0  0  0  0  0  0  0  0  0  0  0
    2.8185   -2.0212    0.0000 C   0  0  0  0  0  0  0  0  0  0  0  0
    1.5417   -1.3972    0.0000 C   0  0  0  0  0  0  0  0  0  0  0  0
    6.9587   -1.3287    0.0000 C   0  0  0  0  0  0  0  0  0  0  0  0
    6.1465   -1.4739    0.0000 C   0  0  0  0  0  0  0  0  0  0  0  0
    4.5223   -1.7643    0.0000 C   0  0  0  0  0  0  0  0  0  0  0  0
    2.8073    0.0035    0.0000 C   0  0  0  0  0  0  0  0  0  0  0  0
    3.7102   -1.9095    0.0000 C   0  0  0  0  0  0  0  0  0  0  0  0
    2.1245   -0.4595    0.0000 C   0  0  0  0  0  0  0  0  0  0  0  0
    5.3632    0.5635    0.0000 C   0  0  0  0  0  0  0  0  0  0  0  0
    6.7071    0.0780    0.0000 C   0  0  0  0  0  0  0  0  0  0  0  0
    4.5511    0.4183    0.0000 C   0  0  2  0  0  0  0  0  0  0  0  0
    5.8950   -0.0672    0.0000 C   0  0  0  0  0  0  0  0  0  0  0  0
    7.2390   -0.5527    0.0000 C   0  0  0  0  0  0  0  0  0  0  0  0
    5.6147   -0.8432    0.0000 C   0  0  0  0  0  0  0  0  0  0  0  0
    4.8026   -0.9884    0.0000 C   0  0  2  0  0  0  0  0  0  0  0  0
    3.4587   -0.5029    0.0000 C   0  0  1  0  0  0  0  0  0  0  0  0
    4.2708   -0.3577    0.0000 C   0  0  2  0  0  0  0  0  0  0  0  0
    3.1784   -1.2788    0.0000 C   0  0  2  0  0  0  0  0  0  0  0  0
    2.3538   -1.2520    0.0000 C   0  0  2  0  0  0  0  0  0  0  0  0
    8.0511   -0.4075    0.0000 O   0  0  0  0  0  0  0  0  0  0  0  0
    2.4133   -2.0748    0.0000 O   0  0  0  0  0  0  0  0  0  0  0  0
    3.7390    0.2730    0.0000 H   0  0  0  0  0  0  0  0  0  0  0  0
    5.0829   -0.2124    0.0000 H   0  0  0  0  0  0  0  0  0  0  0  0
    3.9905   -1.1336    0.0000 H   0  0  0  0  0  0  0  0  0  0  0  0
    3.4949   -0.0774    0.0000 H   0  0  0  0  0  0  0  0  0  0  0  0
   -0.2489   -1.7173    0.0000 H   0  0  0  0  0  0  0  0  0  0  0  0
    4.3829    2.0553    0.0000 H   0  0  0  0  0  0  0  0  0  0  0  0
    2.9660    0.8607    0.0000 H   0  0  0  0  0  0  0  0  0  0  0  0
    3.3296    1.8670    0.0000 H   0  0  0  0  0  0  0  0  0  0  0  0
    1.7513   -2.0984    0.0000 H   0  0  0  0  0  0  0  0  0  0  0  0
    3.4190   -2.9068    0.0000 H   0  0  0  0  0  0  0  0  0  0  0  0
    2.3517   -2.9840    0.0000 H   0  0  0  0  0  0  0  0  0  0  0  0
    7.6485   -2.1467    0.0000 H   0  0  0  0  0  0  0  0  0  0  0  0
    8.0120   -1.1403    0.0000 H   0  0  0  0  0  0  0  0  0  0  0  0
    5.7829   -2.4802    0.0000 H   0  0  0  0  0  0  0  0  0  0  0  0
    5.0932   -1.6622    0.0000 H   0  0  0  0  0  0  0  0  0  0  0  0
    5.2120   -2.5823    0.0000 H   0  0  0  0  0  0  0  0  0  0  0  0
    5.5756   -1.5760    0.0000 H   0  0  0  0  0  0  0  0  0  0  0  0
    2.8420    1.0729    0.0000 H   0  0  0  0  0  0  0  0  0  0  0  0
    3.7759    0.4581    0.0000 H   0  0  0  0  0  0  0  0  0  0  0  0
    3.3466   -2.9158    0.0000 H   0  0  0  0  0  0  0  0  0  0  0  0
    2.6569   -2.0978    0.0000 H   0  0  0  0  0  0  0  0  0  0  0  0
    1.1181   -0.0960    0.0000 H   0  0  0  0  0  0  0  0  0  0  0  0
    1.3437   -1.1911    0.0000 H   0  0  0  0  0  0  0  0  0  0  0  0
    5.7268    1.5698    0.0000 H   0  0  0  0  0  0  0  0  0  0  0  0
    6.4165    0.7518    0.0000 H   0  0  0  0  0  0  0  0  0  0  0  0
    7.0706    1.0844    0.0000 H   0  0  0  0  0  0  0  0  0  0  0  0
    7.7604    0.2664    0.0000 H   0  0  0  0  0  0  0  0  0  0  0  0
    1.6104   -2.6191    0.0000 H   0  0  0  0  0  0  0  0  0  0  0  0
  1 28  1  0  0  0  0
  2 29  1  0  0  0  0
  2 30  1  0  0  0  0
  2 31  1  0  0  0  0
  3 32  1  0  0  0  0
  3 33  1  0  0  0  0
  3 34  1  0  0  0  0
  4  1  3  0  0  0  0
  5 35  1  0  0  0  0
  5 36  1  0  0  0  0
  6  5  1  0  0  0  0
  6 37  1  0  0  0  0
  6 38  1  0  0  0  0
  7 39  1  0  0  0  0
  7 40  1  0  0  0  0
  8 41  1  0  0  0  0
  8 42  1  0  0  0  0
  9  7  1  0  0  0  0
  9 43  1  0  0  0  0
  9 44  1  0  0  0  0
 10  8  1  0  0  0  0
 10 45  1  0  0  0  0
 10 46  1  0  0  0  0
 11 47  1  0  0  0  0
 11 48  1  0  0  0  0
 12 49  1  0  0  0  0
 12 50  1  0  0  0  0
 13  2  1  0  0  0  0
 13 11  1  0  0  0  0
 13 24  1  1  0  0  0
 14 11  1  0  0  0  0
 14 12  1  0  0  0  0
 15  5  1  0  0  0  0
 15 12  1  0  0  0  0
 16  6  1  0  0  0  0
 16 14  2  0  0  0  0
 17  7  1  0  0  0  0
 17 16  1  0  0  0  0
 17 25  1  6  0  0  0
 18  8  1  0  0  0  0
 18 26  1  6  0  0  0
 19 13  1  0  0  0  0
 19 17  1  0  0  0  0
 19 18  1  0  0  0  0
 19 27  1  1  0  0  0
 20  3  1  1  0  0  0
 20  9  1  0  0  0  0
 20 18  1  0  0  0  0
 21  4  1  6  0  0  0
 21 10  1  0  0  0  0
 21 20  1  0  0  0  0
 21 23  1  0  0  0  0
 22 15  2  0  0  0  0
 23 51  1  0  0  0  0
M  END
>  <DRUGBANK_ID>
DB09070

>  <COMMON_NAME>
Tibolone

>  <CAS_NUMBER>
5630-53-5

>  <UNII>
FF9X0205V2

>  <SYNONYMS>
17-hydroxy-7alpha-methyl-19-nor-17alpha-pregn-5(10)-en-20-yn-3-one; tibolona; Tibolone; tibolonum

$$$$
