DT2
 OpenBabel10282417072D

 48 51  0  0  0  0  0  0  0  0999 V2000
   -4.5470   -2.8228    0.0000 O   0  0  0  0  0  0  0  0  0  0  0  0
   -3.8326   -2.4103    0.0000 S   0  0  0  0  0  0  0  0  0  0  0  0
   -3.4201   -3.1247    0.0000 O   0  0  0  0  0  0  0  0  0  0  0  0
   -4.2451   -1.6958    0.0000 N   0  0  0  0  0  0  0  0  0  0  0  0
   -3.1181   -1.9978    0.0000 C   0  0  0  0  0  0  0  0  0  0  0  0
   -3.1181   -1.1728    0.0000 C   0  0  0  0  0  0  0  0  0  0  0  0
   -2.4036   -0.7603    0.0000 C   0  0  0  0  0  0  0  0  0  0  0  0
   -1.6892   -1.1728    0.0000 C   0  0  0  0  0  0  0  0  0  0  0  0
   -1.6892   -1.9978    0.0000 C   0  0  0  0  0  0  0  0  0  0  0  0
   -2.4036   -2.4103    0.0000 C   0  0  0  0  0  0  0  0  0  0  0  0
   -0.9747   -0.7603    0.0000 N   0  0  0  0  0  0  0  0  0  0  0  0
   -0.9747    0.0647    0.0000 C   0  0  0  0  0  0  0  0  0  0  0  0
   -1.6892    0.4772    0.0000 N   0  0  0  0  0  0  0  0  0  0  0  0
   -2.4738    0.2223    0.0000 N   0  0  0  0  0  0  0  0  0  0  0  0
   -2.9587    0.8897    0.0000 C   0  0  0  0  0  0  0  0  0  0  0  0
   -1.6892    1.3022    0.0000 C   0  0  0  0  0  0  0  0  0  0  0  0
   -2.4738    1.5572    0.0000 N   0  0  0  0  0  0  0  0  0  0  0  0
   -0.9747    1.7147    0.0000 N   0  0  0  0  0  0  0  0  0  0  0  0
   -0.2602    1.3022    0.0000 C   0  0  0  0  0  0  0  0  0  0  0  0
   -0.2602    0.4772    0.0000 C   0  0  0  0  0  0  0  0  0  0  0  0
    0.4543    1.7147    0.0000 N   0  0  0  0  0  0  0  0  0  0  0  0
    1.1687    1.3022    0.0000 C   0  0  0  0  0  0  0  0  0  0  0  0
    1.8832    1.7147    0.0000 C   0  0  0  0  0  0  0  0  0  0  0  0
    2.5977    1.3022    0.0000 C   0  0  0  0  0  0  0  0  0  0  0  0
    2.5977    0.4772    0.0000 C   0  0  0  0  0  0  0  0  0  0  0  0
    1.8832    0.0647    0.0000 C   0  0  0  0  0  0  0  0  0  0  0  0
    1.1687    0.4772    0.0000 C   0  0  0  0  0  0  0  0  0  0  0  0
   -3.7351   -0.8125    0.0000 H   0  0  0  0  0  0  0  0  0  0  0  0
   -5.2651   -1.6958    0.0000 H   0  0  0  0  0  0  0  0  0  0  0  0
   -4.0118   -0.6568    0.0000 H   0  0  0  0  0  0  0  0  0  0  0  0
   -2.4036    0.2717    0.0000 H   0  0  0  0  0  0  0  0  0  0  0  0
   -0.7955   -2.5138    0.0000 H   0  0  0  0  0  0  0  0  0  0  0  0
   -2.4036   -3.4423    0.0000 H   0  0  0  0  0  0  0  0  0  0  0  0
   -0.1221   -1.2526    0.0000 H   0  0  0  0  0  0  0  0  0  0  0  0
   -3.9907    0.8897    0.0000 H   0  0  0  0  0  0  0  0  0  0  0  0
    0.6335   -0.0388    0.0000 H   0  0  0  0  0  0  0  0  0  0  0  0
    0.4543    2.6992    0.0000 H   0  0  0  0  0  0  0  0  0  0  0  0
    2.0953    0.7672    0.0000 H   0  0  0  0  0  0  0  0  0  0  0  0
    1.8832    2.7847    0.0000 H   0  0  0  0  0  0  0  0  0  0  0  0
    2.8098    2.2497    0.0000 H   0  0  0  0  0  0  0  0  0  0  0  0
    3.5243    1.8372    0.0000 H   0  0  0  0  0  0  0  0  0  0  0  0
    3.5243    0.7672    0.0000 H   0  0  0  0  0  0  0  0  0  0  0  0
    3.5243   -0.0578    0.0000 H   0  0  0  0  0  0  0  0  0  0  0  0
    2.5977   -0.5928    0.0000 H   0  0  0  0  0  0  0  0  0  0  0  0
    1.8832   -1.0053    0.0000 H   0  0  0  0  0  0  0  0  0  0  0  0
    0.9566   -0.4703    0.0000 H   0  0  0  0  0  0  0  0  0  0  0  0
    0.2421   -0.0578    0.0000 H   0  0  0  0  0  0  0  0  0  0  0  0
    1.1687   -0.5928    0.0000 H   0  0  0  0  0  0  0  0  0  0  0  0
  1  2  2  0  0  0  0
  2  3  2  0  0  0  0
  2  4  1  0  0  0  0
  2  5  1  0  0  0  0
  4 28  1  0  0  0  0
  4 29  1  0  0  0  0
  5  6  2  0  0  0  0
  5 10  1  0  0  0  0
  6  7  1  0  0  0  0
  6 30  1  0  0  0  0
  7  8  2  0  0  0  0
  7 31  1  0  0  0  0
  8  9  1  0  0  0  0
  8 11  1  0  0  0  0
  9 10  2  0  0  0  0
  9 32  1  0  0  0  0
 10 33  1  0  0  0  0
 11 12  1  0  0  0  0
 11 34  1  0  0  0  0
 12 13  1  0  0  0  0
 12 20  2  0  0  0  0
 13 14  1  0  0  0  0
 13 16  1  0  0  0  0
 14 15  2  0  0  0  0
 15 17  1  0  0  0  0
 15 35  1  0  0  0  0
 16 17  2  0  0  0  0
 16 18  1  0  0  0  0
 18 19  2  0  0  0  0
 19 20  1  0  0  0  0
 19 21  1  0  0  0  0
 20 36  1  0  0  0  0
 21 22  1  0  0  0  0
 21 37  1  0  0  0  0
 22 23  1  0  0  0  0
 22 27  1  0  0  0  0
 22 38  1  0  0  0  0
 23 24  1  0  0  0  0
 23 39  1  0  0  0  0
 23 40  1  0  0  0  0
 24 25  1  0  0  0  0
 24 41  1  0  0  0  0
 24 42  1  0  0  0  0
 25 26  1  0  0  0  0
 25 43  1  0  0  0  0
 25 44  1  0  0  0  0
 26 27  1  0  0  0  0
 26 45  1  0  0  0  0
 26 46  1  0  0  0  0
 27 47  1  0  0  0  0
 27 48  1  0  0  0  0
M  END
>  <DRUGBANK_ID>
DB07686

>  <COMMON_NAME>
4-{[5-(CYCLOHEXYLAMINO)[1,2,4]TRIAZOLO[1,5-A]PYRIMIDIN-7-YL]AMINO}BENZENESULFONAMIDE

$$$$
