
 OpenBabel10282417072D

 29 28  0  0  0  0  0  0  0  0999 V2000
    0.3572    0.2063    0.0000 C   0  0  2  0  0  0  0  0  0  0  0  0
   -0.3572   -0.2062    0.0000 C   0  0  2  0  0  0  0  0  0  0  0  0
    1.0717   -0.2063    0.0000 C   0  0  1  0  0  0  0  0  0  0  0  0
    1.7863    0.2062    0.0000 C   0  0  0  0  0  0  0  0  0  0  0  0
    1.0717   -1.0313    0.0000 O   0  0  0  0  0  0  0  0  0  0  0  0
    1.7862    1.0313    0.0000 O   0  0  0  0  0  0  0  0  0  0  0  0
    0.3572    1.0313    0.0000 O   0  0  0  0  0  0  0  0  0  0  0  0
   -0.3572   -1.0313    0.0000 O   0  0  0  0  0  0  0  0  0  0  0  0
   -1.0717    0.2062    0.0000 C   0  0  0  0  0  0  0  0  0  0  0  0
   -1.7862   -0.2063    0.0000 O   0  0  0  0  0  0  0  0  0  0  0  0
    2.5008   -0.2062    0.0000 C   0  0  0  0  0  0  0  0  0  0  0  0
    3.2154    0.2063    0.0000 O   0  0  0  0  0  0  0  0  0  0  0  0
   -2.5008    0.2061    0.0000 P   0  0  0  0  0  0  0  0  0  0  0  0
   -3.2154   -0.2064    0.0000 O   0  0  0  0  0  0  0  0  0  0  0  0
   -2.5008    1.0312    0.0000 O   0  0  0  0  0  0  0  0  0  0  0  0
   -2.5008   -0.6189    0.0000 O   0  0  0  0  0  0  0  0  0  0  0  0
   -0.5695    0.7413    0.0000 H   0  0  0  0  0  0  0  0  0  0  0  0
    0.5695   -0.7412    0.0000 H   0  0  0  0  0  0  0  0  0  0  0  0
    0.1450   -0.7413    0.0000 H   0  0  0  0  0  0  0  0  0  0  0  0
    0.2317   -1.5163    0.0000 H   0  0  0  0  0  0  0  0  0  0  0  0
    1.1972    1.5163    0.0000 H   0  0  0  0  0  0  0  0  0  0  0  0
   -1.1972   -1.5163    0.0000 H   0  0  0  0  0  0  0  0  0  0  0  0
   -1.0718    1.2762    0.0000 H   0  0  0  0  0  0  0  0  0  0  0  0
   -1.9984    0.7412    0.0000 H   0  0  0  0  0  0  0  0  0  0  0  0
    2.5008   -1.2762    0.0000 H   0  0  0  0  0  0  0  0  0  0  0  0
    3.4274   -0.7412    0.0000 H   0  0  0  0  0  0  0  0  0  0  0  0
    4.0554   -0.2788    0.0000 H   0  0  0  0  0  0  0  0  0  0  0  0
   -4.0554    0.2787    0.0000 H   0  0  0  0  0  0  0  0  0  0  0  0
   -3.3408   -1.1039    0.0000 H   0  0  0  0  0  0  0  0  0  0  0  0
  1  7  1  0  0  0  0
  1  2  1  0  0  0  0
  1 17  1  6  0  0  0
  2  9  1  0  0  0  0
  2  8  1  0  0  0  0
  2 18  1  1  0  0  0
  3  1  1  0  0  0  0
  3  5  1  0  0  0  0
  3  4  1  0  0  0  0
  3 19  1  6  0  0  0
  5 20  1  0  0  0  0
  6  4  2  0  0  0  0
  7 21  1  0  0  0  0
  8 22  1  0  0  0  0
  9 10  1  0  0  0  0
  9 23  1  0  0  0  0
  9 24  1  0  0  0  0
 10 13  1  0  0  0  0
 11  4  1  0  0  0  0
 11 12  1  0  0  0  0
 11 25  1  0  0  0  0
 11 26  1  0  0  0  0
 12 27  1  0  0  0  0
 13 14  1  0  0  0  0
 13 15  2  0  0  0  0
 13 16  1  0  0  0  0
 14 28  1  0  0  0  0
 16 29  1  0  0  0  0
M  END
>  <DRUGBANK_ID>
DB04493

>  <SECONDARY_ACCESSION_NUMBERS>
EXPT01383

>  <COMMON_NAME>
Fructose-6-phosphate

>  <CAS_NUMBER>
643-13-0

>  <UNII>
2012QM764Y

>  <SYNONYMS>
D-Fructose 6-phosphate; D-Fructose 6-phosphoric acid; keto-D-fructose 6-phosphate; Neuberg ester

$$$$
