
 OpenBabel10282417072D

 89 92  0  0  0  0  0  0  0  0999 V2000
   -2.1537    0.2093    0.0000 C   0  0  0  0  0  0  0  0  0  0  0  0
   -1.4458   -0.2093    0.0000 C   0  0  1  0  0  0  0  0  0  0  0  0
   -0.7279    0.2093    0.0000 C   0  0  1  0  0  0  0  0  0  0  0  0
   -0.0100   -0.2093    0.0000 C   0  0  2  0  0  0  0  0  0  0  0  0
    0.6980    0.2093    0.0000 C   0  0  2  0  0  0  0  0  0  0  0  0
    1.4159   -0.2093    0.0000 C   0  0  0  0  0  0  0  0  0  0  0  0
    2.1239    0.2093    0.0000 N   0  0  0  0  0  0  0  0  0  0  0  0
    1.4159   -1.0270    0.0000 O   0  0  0  0  0  0  0  0  0  0  0  0
    0.6980    1.0270    0.0000 O   0  0  0  0  0  0  0  0  0  0  0  0
    1.4159    1.4458    0.0000 C   0  0  0  0  0  0  0  0  0  0  0  0
    1.4159    2.2635    0.0000 C   0  0  0  0  0  0  0  0  0  0  0  0
    1.4159    3.9187    0.0000 C   0  0  0  0  0  0  0  0  0  0  0  0
    0.6980    3.4999    0.0000 C   0  0  0  0  0  0  0  0  0  0  0  0
    0.6980    2.6823    0.0000 C   0  0  0  0  0  0  0  0  0  0  0  0
    2.1239    2.6823    0.0000 C   0  0  0  0  0  0  0  0  0  0  0  0
    2.1239    3.4999    0.0000 C   0  0  0  0  0  0  0  0  0  0  0  0
   -0.0100   -1.0270    0.0000 O   0  0  0  0  0  0  0  0  0  0  0  0
   -0.7279    1.0270    0.0000 O   0  0  0  0  0  0  0  0  0  0  0  0
   -2.1537   -1.4458    0.0000 C   0  0  0  0  0  0  0  0  0  0  0  0
   -2.1537   -2.2734    0.0000 C   0  0  0  0  0  0  0  0  0  0  0  0
   -2.8717   -2.6823    0.0000 C   0  0  0  0  0  0  0  0  0  0  0  0
   -2.8717   -3.5099    0.0000 C   0  0  0  0  0  0  0  0  0  0  0  0
   -2.1537   -3.9187    0.0000 C   0  0  0  0  0  0  0  0  0  0  0  0
   -1.4458   -3.5099    0.0000 C   0  0  0  0  0  0  0  0  0  0  0  0
   -1.4458   -2.6823    0.0000 C   0  0  0  0  0  0  0  0  0  0  0  0
   -1.4458   -1.0270    0.0000 O   0  0  0  0  0  0  0  0  0  0  0  0
   -2.1537    1.0270    0.0000 O   0  0  0  0  0  0  0  0  0  0  0  0
   -2.8717   -0.2093    0.0000 N   0  0  0  0  0  0  0  0  0  0  0  0
    2.8418   -0.2093    0.0000 C   0  0  1  0  0  0  0  0  0  0  0  0
    2.1239   -1.4458    0.0000 C   0  0  0  0  0  0  0  0  0  0  0  0
    2.8418   -1.0270    0.0000 C   0  0  0  0  0  0  0  0  0  0  0  0
    3.5598   -1.4458    0.0000 C   0  0  0  0  0  0  0  0  0  0  0  0
    3.5598    0.2093    0.0000 C   0  0  0  0  0  0  0  0  0  0  0  0
    3.5598    1.0270    0.0000 O   0  0  0  0  0  0  0  0  0  0  0  0
    4.2677   -0.2093    0.0000 N   0  0  0  0  0  0  0  0  0  0  0  0
    4.9857    0.2093    0.0000 C   0  0  0  0  0  0  0  0  0  0  0  0
   -3.5897    0.2093    0.0000 C   0  0  2  0  0  0  0  0  0  0  0  0
   -4.9159    0.2891    0.0000 C   0  0  0  0  0  0  0  0  0  0  0  0
   -4.2777   -0.2393    0.0000 C   0  0  1  0  0  0  0  0  0  0  0  0
   -4.3275   -1.0669    0.0000 O   0  0  0  0  0  0  0  0  0  0  0  0
   -4.6167    1.0569    0.0000 C   0  0  0  0  0  0  0  0  0  0  0  0
   -3.7094    2.4330    0.0000 C   0  0  0  0  0  0  0  0  0  0  0  0
   -4.5270    2.4828    0.0000 C   0  0  0  0  0  0  0  0  0  0  0  0
   -4.9857    1.7948    0.0000 C   0  0  0  0  0  0  0  0  0  0  0  0
   -3.7891    1.0071    0.0000 C   0  0  0  0  0  0  0  0  0  0  0  0
   -3.3403    1.6951    0.0000 C   0  0  0  0  0  0  0  0  0  0  0  0
   -2.3752   -0.7395    0.0000 H   0  0  0  0  0  0  0  0  0  0  0  0
   -1.6557    0.7423    0.0000 H   0  0  0  0  0  0  0  0  0  0  0  0
   -0.9378   -0.7423    0.0000 H   0  0  0  0  0  0  0  0  0  0  0  0
   -0.2314    0.7395    0.0000 H   0  0  0  0  0  0  0  0  0  0  0  0
    2.1209    1.1938    0.0000 H   0  0  0  0  0  0  0  0  0  0  0  0
    2.3437    0.9129    0.0000 H   0  0  0  0  0  0  0  0  0  0  0  0
    2.3419    1.9818    0.0000 H   0  0  0  0  0  0  0  0  0  0  0  0
    1.4190    4.9507    0.0000 H   0  0  0  0  0  0  0  0  0  0  0  0
   -0.1969    4.0139    0.0000 H   0  0  0  0  0  0  0  0  0  0  0  0
   -0.1969    2.1683    0.0000 H   0  0  0  0  0  0  0  0  0  0  0  0
    3.0204    2.1710    0.0000 H   0  0  0  0  0  0  0  0  0  0  0  0
    3.0204    4.0112    0.0000 H   0  0  0  0  0  0  0  0  0  0  0  0
   -0.8500   -1.5120    0.0000 H   0  0  0  0  0  0  0  0  0  0  0  0
    0.1121    1.5120    0.0000 H   0  0  0  0  0  0  0  0  0  0  0  0
   -3.0832   -0.9157    0.0000 H   0  0  0  0  0  0  0  0  0  0  0  0
   -3.0789   -1.9833    0.0000 H   0  0  0  0  0  0  0  0  0  0  0  0
   -3.7639   -2.1637    0.0000 H   0  0  0  0  0  0  0  0  0  0  0  0
   -3.7639   -4.0286    0.0000 H   0  0  0  0  0  0  0  0  0  0  0  0
   -2.1505   -4.9507    0.0000 H   0  0  0  0  0  0  0  0  0  0  0  0
   -0.5520   -4.0259    0.0000 H   0  0  0  0  0  0  0  0  0  0  0  0
   -0.5520   -2.1664    0.0000 H   0  0  0  0  0  0  0  0  0  0  0  0
   -2.8717   -1.1938    0.0000 H   0  0  0  0  0  0  0  0  0  0  0  0
    1.9140   -0.7423    0.0000 H   0  0  0  0  0  0  0  0  0  0  0  0
    1.1949   -0.9150    0.0000 H   0  0  0  0  0  0  0  0  0  0  0  0
    2.1287   -2.5158    0.0000 H   0  0  0  0  0  0  0  0  0  0  0  0
    1.1997   -1.9850    0.0000 H   0  0  0  0  0  0  0  0  0  0  0  0
    2.8418   -2.0970    0.0000 H   0  0  0  0  0  0  0  0  0  0  0  0
    3.5550   -2.5158    0.0000 H   0  0  0  0  0  0  0  0  0  0  0  0
    4.4888   -0.9149    0.0000 H   0  0  0  0  0  0  0  0  0  0  0  0
    4.4841   -1.9849    0.0000 H   0  0  0  0  0  0  0  0  0  0  0  0
    4.2647   -1.1938    0.0000 H   0  0  0  0  0  0  0  0  0  0  0  0
    5.9146   -0.3218    0.0000 H   0  0  0  0  0  0  0  0  0  0  0  0
    4.9812    1.2793    0.0000 H   0  0  0  0  0  0  0  0  0  0  0  0
    5.9101    0.7482    0.0000 H   0  0  0  0  0  0  0  0  0  0  0  0
   -3.5630   -0.8604    0.0000 H   0  0  0  0  0  0  0  0  0  0  0  0
   -5.9516    0.0204    0.0000 H   0  0  0  0  0  0  0  0  0  0  0  0
   -5.1482   -0.7554    0.0000 H   0  0  0  0  0  0  0  0  0  0  0  0
   -3.3526   -0.7770    0.0000 H   0  0  0  0  0  0  0  0  0  0  0  0
   -5.1952   -1.5006    0.0000 H   0  0  0  0  0  0  0  0  0  0  0  0
   -3.1405    3.2940    0.0000 H   0  0  0  0  0  0  0  0  0  0  0  0
   -4.9860    3.4071    0.0000 H   0  0  0  0  0  0  0  0  0  0  0  0
   -6.0157    1.8589    0.0000 H   0  0  0  0  0  0  0  0  0  0  0  0
   -2.3100    1.6362    0.0000 H   0  0  0  0  0  0  0  0  0  0  0  0
  1 28  1  0  0  0  0
  1  2  1  0  0  0  0
  1 27  2  0  0  0  0
  2  3  1  0  0  0  0
  2 26  1  0  0  0  0
  2 47  1  6  0  0  0
  3  4  1  0  0  0  0
  3 18  1  0  0  0  0
  3 48  1  1  0  0  0
  4  5  1  0  0  0  0
  4 17  1  0  0  0  0
  4 49  1  1  0  0  0
  5  6  1  0  0  0  0
  5  9  1  0  0  0  0
  5 50  1  6  0  0  0
  6  7  1  0  0  0  0
  6  8  2  0  0  0  0
  7 29  1  0  0  0  0
  7 51  1  0  0  0  0
  9 10  1  0  0  0  0
 10 11  1  0  0  0  0
 10 52  1  0  0  0  0
 10 53  1  0  0  0  0
 11 14  2  0  0  0  0
 11 15  1  0  0  0  0
 12 13  2  0  0  0  0
 12 16  1  0  0  0  0
 12 54  1  0  0  0  0
 13 14  1  0  0  0  0
 13 55  1  0  0  0  0
 14 56  1  0  0  0  0
 15 16  2  0  0  0  0
 15 57  1  0  0  0  0
 16 58  1  0  0  0  0
 17 59  1  0  0  0  0
 18 60  1  0  0  0  0
 19 26  1  0  0  0  0
 19 20  1  0  0  0  0
 19 61  1  0  0  0  0
 19 62  1  0  0  0  0
 20 21  2  0  0  0  0
 20 25  1  0  0  0  0
 21 22  1  0  0  0  0
 21 63  1  0  0  0  0
 22 23  2  0  0  0  0
 22 64  1  0  0  0  0
 23 24  1  0  0  0  0
 23 65  1  0  0  0  0
 24 25  2  0  0  0  0
 24 66  1  0  0  0  0
 25 67  1  0  0  0  0
 28 68  1  0  0  0  0
 29 33  1  0  0  0  0
 29 31  1  0  0  0  0
 29 69  1  1  0  0  0
 30 31  1  0  0  0  0
 30 70  1  0  0  0  0
 30 71  1  0  0  0  0
 30 72  1  0  0  0  0
 31 32  1  0  0  0  0
 31 73  1  0  0  0  0
 32 74  1  0  0  0  0
 32 75  1  0  0  0  0
 32 76  1  0  0  0  0
 33 35  1  0  0  0  0
 33 34  2  0  0  0  0
 35 36  1  0  0  0  0
 35 77  1  0  0  0  0
 36 78  1  0  0  0  0
 36 79  1  0  0  0  0
 36 80  1  0  0  0  0
 37 28  1  0  0  0  0
 37 39  1  0  0  0  0
 37 45  1  0  0  0  0
 37 81  1  1  0  0  0
 38 41  1  0  0  0  0
 38 39  1  0  0  0  0
 38 82  1  0  0  0  0
 38 83  1  0  0  0  0
 39 40  1  0  0  0  0
 39 84  1  1  0  0  0
 40 85  1  0  0  0  0
 41 44  2  0  0  0  0
 41 45  1  0  0  0  0
 42 43  2  0  0  0  0
 42 46  1  0  0  0  0
 42 86  1  0  0  0  0
 43 44  1  0  0  0  0
 43 87  1  0  0  0  0
 44 88  1  0  0  0  0
 45 46  2  0  0  0  0
 46 89  1  0  0  0  0
M  END
>  <DRUGBANK_ID>
DB04255

>  <SECONDARY_ACCESSION_NUMBERS>
EXPT00660

>  <COMMON_NAME>
Inhibitor BEA388

>  <SYNONYMS>
[5-(2-hydroxy-indan-1-ylcarbamoyl)-3,4-dihydroxy-2,5-[dibenzyl-oxy]-pentanoyl]-valinyl-amido-methane

$$$$
