
 OpenBabel10282417072D

 43 44  0  0  1  0  0  0  0  0999 V2000
    2.9358    0.3923    0.0000 N   0  0  0  0  0  0  0  0  0  0  0  0
    2.1476    0.1342    0.0000 C   0  0  2  0  0  0  0  0  0  0  0  0
    3.5587   -0.1583    0.0000 C   0  0  0  0  0  0  0  0  0  0  0  0
    3.1112    1.1977    0.0000 C   0  0  0  0  0  0  0  0  0  0  0  0
    1.5040    0.6057    0.0000 O   0  0  0  0  0  0  0  0  0  0  0  0
    1.9066   -0.6746    0.0000 C   0  0  0  0  0  0  0  0  0  0  0  0
    4.3469    0.0998    0.0000 N   0  0  0  0  0  0  0  0  0  0  0  0
    3.3935   -0.9671    0.0000 O   0  0  0  0  0  0  0  0  0  0  0  0
    3.8891    1.4627    0.0000 C   0  0  0  0  0  0  0  0  0  0  0  0
    0.8294    0.1136    0.0000 C   0  0  1  0  0  0  0  0  0  0  0  0
    1.0772   -0.6746    0.0000 C   0  0  1  0  0  0  0  0  0  0  0  0
    4.5154    0.9121    0.0000 C   0  0  0  0  0  0  0  0  0  0  0  0
    0.0447    0.3683    0.0000 C   0  0  0  0  0  0  0  0  0  0  0  0
    0.5886   -1.3388    0.0000 O   0  0  0  0  0  0  0  0  0  0  0  0
    5.3001    1.1668    0.0000 O   0  0  0  0  0  0  0  0  0  0  0  0
   -0.5404   -0.2065    0.0000 O   0  0  0  0  0  0  0  0  0  0  0  0
   -1.3629   -0.2065    0.0000 P   0  0  3  0  0  0  0  0  0  0  0  0
   -2.1855   -0.2065    0.0000 O   0  0  0  0  0  0  0  0  0  0  0  0
   -1.3664   -1.0290    0.0000 O   0  0  0  0  0  0  0  0  0  0  0  0
   -1.3664    0.6160    0.0000 O   0  0  0  0  0  0  0  0  0  0  0  0
   -3.0114   -0.2030    0.0000 P   0  0  3  0  0  0  0  0  0  0  0  0
   -3.8340   -0.2030    0.0000 O   0  0  0  0  0  0  0  0  0  0  0  0
   -3.0149   -1.0256    0.0000 O   0  0  0  0  0  0  0  0  0  0  0  0
   -3.0149    0.6195    0.0000 O   0  0  0  0  0  0  0  0  0  0  0  0
   -4.6566   -0.1996    0.0000 P   0  0  0  0  0  0  0  0  0  0  0  0
   -4.6601   -1.0221    0.0000 O   0  0  0  0  0  0  0  0  0  0  0  0
   -5.4792   -0.1962    0.0000 O   0  0  0  0  0  0  0  0  0  0  0  0
   -4.6601    0.6229    0.0000 O   0  0  0  0  0  0  0  0  0  0  0  0
    2.3159    1.1909    0.0000 H   0  0  0  0  0  0  0  0  0  0  0  0
    2.3411    1.8847    0.0000 H   0  0  0  0  0  0  0  0  0  0  0  0
    2.5461   -1.5325    0.0000 H   0  0  0  0  0  0  0  0  0  0  0  0
    1.4267   -1.6309    0.0000 H   0  0  0  0  0  0  0  0  0  0  0  0
    5.0809   -0.5563    0.0000 H   0  0  0  0  0  0  0  0  0  0  0  0
    4.0905    2.4749    0.0000 H   0  0  0  0  0  0  0  0  0  0  0  0
    0.6608    1.1702    0.0000 H   0  0  0  0  0  0  0  0  0  0  0  0
    1.5601   -1.6294    0.0000 H   0  0  0  0  0  0  0  0  0  0  0  0
   -0.2006    1.4098    0.0000 H   0  0  0  0  0  0  0  0  0  0  0  0
   -0.9832    0.6655    0.0000 H   0  0  0  0  0  0  0  0  0  0  0  0
   -0.3755   -1.2317    0.0000 H   0  0  0  0  0  0  0  0  0  0  0  0
   -2.2085   -1.5104    0.0000 H   0  0  0  0  0  0  0  0  0  0  0  0
   -3.8570   -1.5070    0.0000 H   0  0  0  0  0  0  0  0  0  0  0  0
   -5.5022   -1.5035    0.0000 H   0  0  0  0  0  0  0  0  0  0  0  0
   -5.9607    0.6458    0.0000 H   0  0  0  0  0  0  0  0  0  0  0  0
  1  3  1  0  0  0  0
  1  4  1  0  0  0  0
  2  1  1  0  0  0  0
  2  5  1  0  0  0  0
  2  6  1  0  0  0  0
  2 29  1  6  0  0  0
  3  7  1  0  0  0  0
  3  8  2  0  0  0  0
  4  9  2  0  0  0  0
  4 30  1  0  0  0  0
  5 10  1  0  0  0  0
  6 11  1  0  0  0  0
  6 31  1  0  0  0  0
  6 32  1  0  0  0  0
  7 12  1  0  0  0  0
  7 33  1  0  0  0  0
  9 12  1  0  0  0  0
  9 34  1  0  0  0  0
 10 13  1  0  0  0  0
 10 11  1  0  0  0  0
 10 35  1  6  0  0  0
 11 14  1  0  0  0  0
 11 36  1  1  0  0  0
 12 15  2  0  0  0  0
 13 16  1  0  0  0  0
 13 37  1  0  0  0  0
 13 38  1  0  0  0  0
 14 39  1  0  0  0  0
 16 17  1  0  0  0  0
 17 18  1  0  0  0  0
 17 19  1  0  0  0  0
 17 20  2  0  0  0  0
 18 21  1  0  0  0  0
 19 40  1  0  0  0  0
 21 22  1  0  0  0  0
 21 23  1  0  0  0  0
 21 24  2  0  0  0  0
 22 25  1  0  0  0  0
 23 41  1  0  0  0  0
 25 26  1  0  0  0  0
 25 27  1  0  0  0  0
 25 28  2  0  0  0  0
 26 42  1  0  0  0  0
 27 43  1  0  0  0  0
M  END
>  <DRUGBANK_ID>
DB02333

>  <SECONDARY_ACCESSION_NUMBERS>
EXPT01301

>  <COMMON_NAME>
Deoxyuridine-5'-Triphosphate

$$$$
