SB7
 OpenBabel10282417072D

 28 28  0  0  0  0  0  0  0  0999 V2000
   -1.8925    1.2044    0.0000 C   0  0  0  0  0  0  0  0  0  0  0  0
   -1.1780    0.7919    0.0000 C   0  0  0  0  0  0  0  0  0  0  0  0
   -1.1780   -0.0331    0.0000 C   0  0  0  0  0  0  0  0  0  0  0  0
   -1.8925   -0.4456    0.0000 C   0  0  0  0  0  0  0  0  0  0  0  0
   -2.6070   -0.0331    0.0000 C   0  0  0  0  0  0  0  0  0  0  0  0
   -2.6070    0.7919    0.0000 C   0  0  0  0  0  0  0  0  0  0  0  0
   -0.4636   -0.4456    0.0000 C   0  0  0  0  0  0  0  0  0  0  0  0
    0.2509   -0.0331    0.0000 C   0  0  0  0  0  0  0  0  0  0  0  0
    0.9654   -0.4456    0.0000 C   0  0  0  0  0  0  0  0  0  0  0  0
    1.6798   -0.0331    0.0000 N   0  0  0  0  0  0  0  0  0  0  0  0
    1.6798    0.7919    0.0000 O   0  0  0  0  0  0  0  0  0  0  0  0
    2.3943   -0.4456    0.0000 C   0  0  0  0  0  0  0  0  0  0  0  0
    3.1088   -0.0331    0.0000 O   0  0  0  0  0  0  0  0  0  0  0  0
   -1.8925    2.2364    0.0000 H   0  0  0  0  0  0  0  0  0  0  0  0
   -0.2843    1.3079    0.0000 H   0  0  0  0  0  0  0  0  0  0  0  0
   -1.8925   -1.4776    0.0000 H   0  0  0  0  0  0  0  0  0  0  0  0
   -3.5007   -0.5491    0.0000 H   0  0  0  0  0  0  0  0  0  0  0  0
   -3.5007    1.3079    0.0000 H   0  0  0  0  0  0  0  0  0  0  0  0
   -0.4636   -1.5156    0.0000 H   0  0  0  0  0  0  0  0  0  0  0  0
    0.4630   -0.9806    0.0000 H   0  0  0  0  0  0  0  0  0  0  0  0
    0.2509    1.0369    0.0000 H   0  0  0  0  0  0  0  0  0  0  0  0
    1.1775    0.5019    0.0000 H   0  0  0  0  0  0  0  0  0  0  0  0
    0.9654   -1.5156    0.0000 H   0  0  0  0  0  0  0  0  0  0  0  0
    1.8921   -0.9806    0.0000 H   0  0  0  0  0  0  0  0  0  0  0  0
    2.5198    1.2769    0.0000 H   0  0  0  0  0  0  0  0  0  0  0  0
    2.3943   -1.5156    0.0000 H   0  0  0  0  0  0  0  0  0  0  0  0
    3.3209   -0.9806    0.0000 H   0  0  0  0  0  0  0  0  0  0  0  0
    3.9488   -0.5181    0.0000 H   0  0  0  0  0  0  0  0  0  0  0  0
  1  2  2  0  0  0  0
  1  6  1  0  0  0  0
  1 14  1  0  0  0  0
  2  3  1  0  0  0  0
  2 15  1  0  0  0  0
  3  4  2  0  0  0  0
  3  7  1  0  0  0  0
  4  5  1  0  0  0  0
  4 16  1  0  0  0  0
  5  6  2  0  0  0  0
  5 17  1  0  0  0  0
  6 18  1  0  0  0  0
  7  8  1  0  0  0  0
  7 19  1  0  0  0  0
  7 20  1  0  0  0  0
  8  9  1  0  0  0  0
  8 21  1  0  0  0  0
  8 22  1  0  0  0  0
  9 10  1  0  0  0  0
  9 23  1  0  0  0  0
  9 24  1  0  0  0  0
 10 11  1  0  0  0  0
 10 12  1  0  0  0  0
 11 25  1  0  0  0  0
 12 13  1  0  0  0  0
 12 26  1  0  0  0  0
 12 27  1  0  0  0  0
 13 28  1  0  0  0  0
M  END
>  <DRUGBANK_ID>
DB08523

>  <COMMON_NAME>
[HYDROXY(3-PHENYLPROPYL)AMINO]METHANOL

$$$$
