
 OpenBabel10282417072D

 80 87  0  0  0  0  0  0  0  0999 V2000
    0.0236    0.5178    0.0000 Fe  0  0  3  0  0  0  0  0  0  0  0  0
    0.9723    1.2539    0.0000 N   0  0  0  0  0  0  0  0  0  0  0  0
    0.7225    2.0422    0.0000 C   0  0  0  0  0  0  0  0  0  0  0  0
    1.3948    2.5234    0.0000 C   0  0  3  0  0  0  0  0  0  0  0  0
    2.0603    2.0326    0.0000 C   0  0  0  0  0  0  0  0  0  0  0  0
    2.8445    2.2812    0.0000 O   0  0  0  0  0  0  0  0  0  0  0  0
    1.7992    1.2480    0.0000 C   0  0  0  0  0  0  0  0  0  0  0  0
    2.2128    0.5317    0.0000 C   0  0  0  0  0  0  0  0  0  0  0  0
    1.7952   -0.1817    0.0000 C   0  0  0  0  0  0  0  0  0  0  0  0
    0.9723   -0.1790    0.0000 N   0  0  0  0  0  0  0  0  0  0  0  0
    0.7155   -0.9607    0.0000 C   0  0  0  0  0  0  0  0  0  0  0  0
   -0.0057   -1.3755    0.0000 C   0  0  0  0  0  0  0  0  0  0  0  0
   -0.7224   -0.9611    0.0000 C   0  0  0  0  0  0  0  0  0  0  0  0
   -0.9754   -0.1732    0.0000 N   0  0  0  0  0  0  0  0  0  0  0  0
   -1.8029   -0.1706    0.0000 C   0  0  0  0  0  0  0  0  0  0  0  0
   -2.2097    0.5471    0.0000 C   0  0  0  0  0  0  0  0  0  0  0  0
   -1.7984    1.2624    0.0000 C   0  0  0  0  0  0  0  0  0  0  0  0
   -0.9715    1.2564    0.0000 N   0  0  0  0  0  0  0  0  0  0  0  0
   -0.7104    2.0409    0.0000 C   0  0  0  0  0  0  0  0  0  0  0  0
    0.0068    2.4615    0.0000 C   0  0  0  0  0  0  0  0  0  0  0  0
   -1.3758    2.5317    0.0000 C   0  0  0  0  0  0  0  0  0  0  0  0
   -2.0481    2.0504    0.0000 C   0  0  0  0  0  0  0  0  0  0  0  0
   -2.8287    2.3103    0.0000 C   0  0  0  0  0  0  0  0  0  0  0  0
   -1.3700    3.3544    0.0000 C   0  0  0  0  0  0  0  0  0  0  0  0
   -2.0796    3.7707    0.0000 C   0  0  0  0  0  0  0  0  0  0  0  0
   -2.0612   -0.9567    0.0000 C   0  0  0  0  0  0  0  0  0  0  0  0
   -1.3932   -1.4452    0.0000 C   0  0  0  0  0  0  0  0  0  0  0  0
   -1.3960   -2.2679    0.0000 C   0  0  0  0  0  0  0  0  0  0  0  0
   -0.6847   -2.6815    0.0000 C   0  0  0  0  0  0  0  0  0  0  0  0
   -0.6874   -3.5042    0.0000 C   0  0  0  0  0  0  0  0  0  0  0  0
   -1.4012   -3.9133    0.0000 O   0  0  0  0  0  0  0  0  0  0  0  0
    0.0238   -3.9178    0.0000 O   0  0  0  0  0  0  0  0  0  0  0  0
   -2.8445   -1.2083    0.0000 C   0  0  0  0  0  0  0  0  0  0  0  0
    1.3796   -1.4466    0.0000 C   0  0  0  0  0  0  0  0  0  0  0  0
    2.0468   -0.9651    0.0000 C   0  0  0  0  0  0  0  0  0  0  0  0
    2.8284   -1.2220    0.0000 C   0  0  0  0  0  0  0  0  0  0  0  0
    1.3770   -2.2692    0.0000 C   0  0  0  0  0  0  0  0  0  0  0  0
    2.0881   -2.6829    0.0000 C   0  0  0  0  0  0  0  0  0  0  0  0
    2.0854   -3.5056    0.0000 C   0  0  0  0  0  0  0  0  0  0  0  0
    1.3717   -3.9146    0.0000 O   0  0  0  0  0  0  0  0  0  0  0  0
    2.7966   -3.9193    0.0000 O   0  0  0  0  0  0  0  0  0  0  0  0
    0.8486    3.1387    0.0000 C   0  0  0  0  0  0  0  0  0  0  0  0
    1.1084    3.9193    0.0000 C   0  0  0  0  0  0  0  0  0  0  0  0
    1.9496    3.1309    0.0000 C   0  0  0  0  0  0  0  0  0  0  0  0
    3.2448    0.5286    0.0000 H   0  0  0  0  0  0  0  0  0  0  0  0
   -0.0069   -2.4075    0.0000 H   0  0  0  0  0  0  0  0  0  0  0  0
   -3.2417    0.5503    0.0000 H   0  0  0  0  0  0  0  0  0  0  0  0
    0.0066    3.4935    0.0000 H   0  0  0  0  0  0  0  0  0  0  0  0
   -3.0436    3.3585    0.0000 H   0  0  0  0  0  0  0  0  0  0  0  0
   -3.6290    1.6001    0.0000 H   0  0  0  0  0  0  0  0  0  0  0  0
   -3.8439    2.6483    0.0000 H   0  0  0  0  0  0  0  0  0  0  0  0
   -0.4396    3.8829    0.0000 H   0  0  0  0  0  0  0  0  0  0  0  0
   -1.3625    4.4244    0.0000 H   0  0  0  0  0  0  0  0  0  0  0  0
   -2.0722    4.8407    0.0000 H   0  0  0  0  0  0  0  0  0  0  0  0
   -3.0099    3.2422    0.0000 H   0  0  0  0  0  0  0  0  0  0  0  0
   -3.0025    4.3121    0.0000 H   0  0  0  0  0  0  0  0  0  0  0  0
   -2.3244   -2.7999    0.0000 H   0  0  0  0  0  0  0  0  0  0  0  0
   -1.3994   -3.3379    0.0000 H   0  0  0  0  0  0  0  0  0  0  0  0
    0.2436   -2.1495    0.0000 H   0  0  0  0  0  0  0  0  0  0  0  0
    0.2402   -3.2195    0.0000 H   0  0  0  0  0  0  0  0  0  0  0  0
    0.0209   -4.8548    0.0000 H   0  0  0  0  0  0  0  0  0  0  0  0
   -3.6373   -0.4897    0.0000 H   0  0  0  0  0  0  0  0  0  0  0  0
   -3.0705   -2.2542    0.0000 H   0  0  0  0  0  0  0  0  0  0  0  0
   -3.8632   -1.5355    0.0000 H   0  0  0  0  0  0  0  0  0  0  0  0
    3.0473   -2.2694    0.0000 H   0  0  0  0  0  0  0  0  0  0  0  0
    3.6260   -0.5087    0.0000 H   0  0  0  0  0  0  0  0  0  0  0  0
    3.8449   -1.5561    0.0000 H   0  0  0  0  0  0  0  0  0  0  0  0
    0.4486   -2.8012    0.0000 H   0  0  0  0  0  0  0  0  0  0  0  0
    1.3735   -3.3392    0.0000 H   0  0  0  0  0  0  0  0  0  0  0  0
    3.0165   -2.1510    0.0000 H   0  0  0  0  0  0  0  0  0  0  0  0
    3.0130   -3.2209    0.0000 H   0  0  0  0  0  0  0  0  0  0  0  0
    2.7936   -4.8563    0.0000 H   0  0  0  0  0  0  0  0  0  0  0  0
   -0.1996    2.9237    0.0000 H   0  0  0  0  0  0  0  0  0  0  0  0
    0.1383    3.9389    0.0000 H   0  0  0  0  0  0  0  0  0  0  0  0
    2.1566    4.1343    0.0000 H   0  0  0  0  0  0  0  0  0  0  0  0
    0.3981    4.7195    0.0000 H   0  0  0  0  0  0  0  0  0  0  0  0
    1.4463    4.9345    0.0000 H   0  0  0  0  0  0  0  0  0  0  0  0
    2.9946    2.9011    0.0000 H   0  0  0  0  0  0  0  0  0  0  0  0
    1.6261    4.1508    0.0000 H   0  0  0  0  0  0  0  0  0  0  0  0
    2.6712    3.9210    0.0000 H   0  0  0  0  0  0  0  0  0  0  0  0
  1  2  1  0  0  0  0
  1 10  1  0  0  0  0
  1 14  1  0  0  0  0
  1 18  1  0  0  0  0
  2  3  1  0  0  0  0
  2  7  1  0  0  0  0
  3  4  1  0  0  0  0
  3 20  2  0  0  0  0
  4  5  1  0  0  0  0
  4 42  1  0  0  0  0
  4 44  1  0  0  0  0
  5  6  2  0  0  0  0
  5  7  1  0  0  0  0
  7  8  2  0  0  0  0
  8  9  1  0  0  0  0
  8 45  1  0  0  0  0
  9 10  1  0  0  0  0
  9 35  2  0  0  0  0
 10 11  1  0  0  0  0
 11 12  1  0  0  0  0
 11 34  2  0  0  0  0
 12 13  2  0  0  0  0
 12 46  1  0  0  0  0
 13 14  1  0  0  0  0
 13 27  1  0  0  0  0
 14 15  1  0  0  0  0
 15 16  2  0  0  0  0
 15 26  1  0  0  0  0
 16 17  1  0  0  0  0
 16 47  1  0  0  0  0
 17 18  1  0  0  0  0
 17 22  2  0  0  0  0
 18 19  1  0  0  0  0
 19 20  1  0  0  0  0
 19 21  2  0  0  0  0
 20 48  1  0  0  0  0
 21 22  1  0  0  0  0
 21 24  1  0  0  0  0
 22 23  1  0  0  0  0
 23 49  1  0  0  0  0
 23 50  1  0  0  0  0
 23 51  1  0  0  0  0
 24 25  1  0  0  0  0
 24 52  1  0  0  0  0
 24 53  1  0  0  0  0
 25 54  1  0  0  0  0
 25 55  1  0  0  0  0
 25 56  1  0  0  0  0
 26 27  2  0  0  0  0
 26 33  1  0  0  0  0
 27 28  1  0  0  0  0
 28 29  1  0  0  0  0
 28 57  1  0  0  0  0
 28 58  1  0  0  0  0
 29 30  1  0  0  0  0
 29 59  1  0  0  0  0
 29 60  1  0  0  0  0
 30 31  2  0  0  0  0
 30 32  1  0  0  0  0
 32 61  1  0  0  0  0
 33 62  1  0  0  0  0
 33 63  1  0  0  0  0
 33 64  1  0  0  0  0
 34 35  1  0  0  0  0
 34 37  1  0  0  0  0
 35 36  1  0  0  0  0
 36 65  1  0  0  0  0
 36 66  1  0  0  0  0
 36 67  1  0  0  0  0
 37 38  1  0  0  0  0
 37 68  1  0  0  0  0
 37 69  1  0  0  0  0
 38 39  1  0  0  0  0
 38 70  1  0  0  0  0
 38 71  1  0  0  0  0
 39 40  2  0  0  0  0
 39 41  1  0  0  0  0
 41 72  1  0  0  0  0
 42 43  1  0  0  0  0
 42 73  1  0  0  0  0
 42 74  1  0  0  0  0
 43 75  1  0  0  0  0
 43 76  1  0  0  0  0
 43 77  1  0  0  0  0
 44 78  1  0  0  0  0
 44 79  1  0  0  0  0
 44 80  1  0  0  0  0
M  END
>  <DRUGBANK_ID>
DB04384

>  <SECONDARY_ACCESSION_NUMBERS>
EXPT01749

>  <COMMON_NAME>
Fe-Mesopone

$$$$
