
 OpenBabel10282417072D

 22 22  0  0  0  0  0  0  0  0999 V2000
   -0.3608    0.2062    0.0000 C   0  0  0  0  0  0  0  0  0  0  0  0
    0.3065    0.6912    0.0000 S   0  0  0  0  0  0  0  0  0  0  0  0
   -0.1059   -0.5783    0.0000 N   0  0  0  0  0  0  0  0  0  0  0  0
   -1.1455    0.4612    0.0000 N   0  0  0  0  0  0  0  0  0  0  0  0
    0.9739    0.2062    0.0000 C   0  0  0  0  0  0  0  0  0  0  0  0
    0.7190   -0.5783    0.0000 N   0  0  0  0  0  0  0  0  0  0  0  0
   -0.5908   -1.2457    0.0000 C   0  0  0  0  0  0  0  0  0  0  0  0
   -1.7585   -0.0908    0.0000 C   0  0  0  0  0  0  0  0  0  0  0  0
    1.7586    0.4612    0.0000 S   0  0  0  0  0  0  0  0  0  0  0  0
   -2.5432    0.1641    0.0000 C   0  0  0  0  0  0  0  0  0  0  0  0
   -1.5870   -0.8978    0.0000 O   0  0  0  0  0  0  0  0  0  0  0  0
    2.5432    0.7161    0.0000 N   0  0  0  0  0  0  0  0  0  0  0  0
    2.0135   -0.3233    0.0000 O   0  0  0  0  0  0  0  0  0  0  0  0
    1.5036    1.2458    0.0000 O   0  0  0  0  0  0  0  0  0  0  0  0
   -1.6549   -1.1338    0.0000 H   0  0  0  0  0  0  0  0  0  0  0  0
   -0.1556   -2.2232    0.0000 H   0  0  0  0  0  0  0  0  0  0  0  0
   -1.2197   -2.1113    0.0000 H   0  0  0  0  0  0  0  0  0  0  0  0
   -2.7657    1.2107    0.0000 H   0  0  0  0  0  0  0  0  0  0  0  0
   -3.3383   -0.5519    0.0000 H   0  0  0  0  0  0  0  0  0  0  0  0
   -3.5609    0.4947    0.0000 H   0  0  0  0  0  0  0  0  0  0  0  0
    3.3012    0.0336    0.0000 H   0  0  0  0  0  0  0  0  0  0  0  0
    2.7553    1.7138    0.0000 H   0  0  0  0  0  0  0  0  0  0  0  0
  1  2  1  0  0  0  0
  1  3  1  0  0  0  0
  1  4  2  0  0  0  0
  2  5  1  0  0  0  0
  3  6  1  0  0  0  0
  3  7  1  0  0  0  0
  4  8  1  0  0  0  0
  5  9  1  0  0  0  0
  5  6  2  0  0  0  0
  7 15  1  0  0  0  0
  7 16  1  0  0  0  0
  7 17  1  0  0  0  0
  8 10  1  0  0  0  0
  8 11  2  0  0  0  0
  9 12  1  0  0  0  0
  9 13  2  0  0  0  0
  9 14  2  0  0  0  0
 10 18  1  0  0  0  0
 10 19  1  0  0  0  0
 10 20  1  0  0  0  0
 12 21  1  0  0  0  0
 12 22  1  0  0  0  0
M  END
>  <DRUGBANK_ID>
DB00703

>  <SECONDARY_ACCESSION_NUMBERS>
APRD00740

>  <COMMON_NAME>
Methazolamide

>  <CAS_NUMBER>
554-57-4

>  <UNII>
W733B0S9SD

>  <SYNONYMS>
Metazolamida; Methazolamid; Methazolamide; MÃ©thazolamide; Methazolamidum; Methenamide; Neptazaneat

$$$$
