656
 OpenBabel10282417072D

 48 51  0  0  0  0  0  0  0  0999 V2000
    7.6412   -3.5820    0.0000 Cl  0  0  0  0  0  0  0  0  0  0  0  0
    4.1159    3.5820    0.0000 O   0  0  0  0  0  0  0  0  0  0  0  0
    6.8162    0.7049    0.0000 N   0  0  0  0  0  0  0  0  0  0  0  0
    7.6412   -0.7240    0.0000 N   0  0  0  0  0  0  0  0  0  0  0  0
    4.3412    2.1339    0.0000 N   0  0  0  0  0  0  0  0  0  0  0  0
    3.0791    2.5464    0.0000 N   0  0  0  0  0  0  0  0  0  0  0  0
    3.8597    1.4699    0.0000 N   0  0  0  0  0  0  0  0  0  0  0  0
    6.4037   -0.0096    0.0000 C   0  0  0  0  0  0  0  0  0  0  0  0
    7.6412    0.7049    0.0000 C   0  0  0  0  0  0  0  0  0  0  0  0
    6.8162   -0.7240    0.0000 C   0  0  0  0  0  0  0  0  0  0  0  0
    8.0537   -0.0096    0.0000 C   0  0  0  0  0  0  0  0  0  0  0  0
    6.4037    1.4194    0.0000 C   0  0  0  0  0  0  0  0  0  0  0  0
    5.5787    1.4194    0.0000 C   0  0  0  0  0  0  0  0  0  0  0  0
    5.1662    2.1339    0.0000 C   0  0  0  0  0  0  0  0  0  0  0  0
    8.0537   -1.4386    0.0000 C   0  0  0  0  0  0  0  0  0  0  0  0
    7.6412   -2.1530    0.0000 C   0  0  0  0  0  0  0  0  0  0  0  0
    8.8788   -1.4386    0.0000 C   0  0  0  0  0  0  0  0  0  0  0  0
    3.8597    2.7978    0.0000 C   0  0  0  0  0  0  0  0  0  0  0  0
    3.0791    1.7214    0.0000 C   0  0  0  0  0  0  0  0  0  0  0  0
    8.0537   -2.8675    0.0000 C   0  0  0  0  0  0  0  0  0  0  0  0
    9.2913   -2.1530    0.0000 C   0  0  0  0  0  0  0  0  0  0  0  0
    8.8788   -2.8675    0.0000 C   0  0  0  0  0  0  0  0  0  0  0  0
    2.3645    2.9589    0.0000 C   0  0  0  0  0  0  0  0  0  0  0  0
    2.3645    1.3089    0.0000 C   0  0  0  0  0  0  0  0  0  0  0  0
    1.6500    2.5464    0.0000 C   0  0  0  0  0  0  0  0  0  0  0  0
    1.6500    1.7214    0.0000 C   0  0  0  0  0  0  0  0  0  0  0  0
    5.3337   -0.0096    0.0000 H   0  0  0  0  0  0  0  0  0  0  0  0
    5.8687   -0.9363    0.0000 H   0  0  0  0  0  0  0  0  0  0  0  0
    8.1762    1.6315    0.0000 H   0  0  0  0  0  0  0  0  0  0  0  0
    8.7112    0.7049    0.0000 H   0  0  0  0  0  0  0  0  0  0  0  0
    6.2812   -1.6507    0.0000 H   0  0  0  0  0  0  0  0  0  0  0  0
    5.7462   -0.7240    0.0000 H   0  0  0  0  0  0  0  0  0  0  0  0
    9.1237   -0.0096    0.0000 H   0  0  0  0  0  0  0  0  0  0  0  0
    8.5887    0.9170    0.0000 H   0  0  0  0  0  0  0  0  0  0  0  0
    6.9387    2.3460    0.0000 H   0  0  0  0  0  0  0  0  0  0  0  0
    5.8687    2.3460    0.0000 H   0  0  0  0  0  0  0  0  0  0  0  0
    5.0437    0.4928    0.0000 H   0  0  0  0  0  0  0  0  0  0  0  0
    4.5087    1.4194    0.0000 H   0  0  0  0  0  0  0  0  0  0  0  0
    5.7012    3.0605    0.0000 H   0  0  0  0  0  0  0  0  0  0  0  0
    6.2362    2.1339    0.0000 H   0  0  0  0  0  0  0  0  0  0  0  0
    6.6092   -2.1530    0.0000 H   0  0  0  0  0  0  0  0  0  0  0  0
    9.3948   -0.5449    0.0000 H   0  0  0  0  0  0  0  0  0  0  0  0
   10.3233   -2.1530    0.0000 H   0  0  0  0  0  0  0  0  0  0  0  0
    9.3948   -3.7612    0.0000 H   0  0  0  0  0  0  0  0  0  0  0  0
    2.3645    3.9909    0.0000 H   0  0  0  0  0  0  0  0  0  0  0  0
    2.3645    0.2769    0.0000 H   0  0  0  0  0  0  0  0  0  0  0  0
    0.7563    3.0624    0.0000 H   0  0  0  0  0  0  0  0  0  0  0  0
    0.7563    1.2054    0.0000 H   0  0  0  0  0  0  0  0  0  0  0  0
  1 20  1  0  0  0  0
  2 18  2  0  0  0  0
  3  8  1  0  0  0  0
  3  9  1  0  0  0  0
  3 12  1  0  0  0  0
  4 10  1  0  0  0  0
  4 11  1  0  0  0  0
  4 15  1  0  0  0  0
  5  7  1  0  0  0  0
  5 14  1  0  0  0  0
  5 18  1  0  0  0  0
  6 18  1  0  0  0  0
  6 19  1  0  0  0  0
  6 23  1  0  0  0  0
  7 19  2  0  0  0  0
  8 10  1  0  0  0  0
  8 27  1  0  0  0  0
  8 28  1  0  0  0  0
  9 11  1  0  0  0  0
  9 29  1  0  0  0  0
  9 30  1  0  0  0  0
 10 31  1  0  0  0  0
 10 32  1  0  0  0  0
 11 33  1  0  0  0  0
 11 34  1  0  0  0  0
 12 13  1  0  0  0  0
 12 35  1  0  0  0  0
 12 36  1  0  0  0  0
 13 14  1  0  0  0  0
 13 37  1  0  0  0  0
 13 38  1  0  0  0  0
 14 39  1  0  0  0  0
 14 40  1  0  0  0  0
 15 16  2  0  0  0  0
 15 17  1  0  0  0  0
 16 20  1  0  0  0  0
 16 41  1  0  0  0  0
 17 21  2  0  0  0  0
 17 42  1  0  0  0  0
 19 24  1  0  0  0  0
 20 22  2  0  0  0  0
 21 22  1  0  0  0  0
 21 43  1  0  0  0  0
 22 44  1  0  0  0  0
 23 25  2  0  0  0  0
 23 45  1  0  0  0  0
 24 26  2  0  0  0  0
 24 46  1  0  0  0  0
 25 26  1  0  0  0  0
 25 47  1  0  0  0  0
 26 48  1  0  0  0  0
M  END
>  <DRUGBANK_ID>
DB00656

>  <SECONDARY_ACCESSION_NUMBERS>
APRD00533

>  <COMMON_NAME>
Trazodone

>  <CAS_NUMBER>
19794-93-5

>  <UNII>
YBK48BXK30

>  <SYNONYMS>
2-(3-[4-(3-chlorophenyl)-1-piperazinyl]propyl)[1,2,4]triazolo[4,3-a]pyridin-3(2H)-one; Trazodona; Trazodone; Trazodonum

$$$$
