1198
 OpenBabel10282417072D

 44 47  0  0  1  0  0  0  0  0999 V2000
    7.6412   -1.8754    0.0000 Cl  0  0  0  0  0  0  0  0  0  0  0  0
    4.1159   -0.4273    0.0000 O   0  0  0  0  0  0  0  0  0  0  0  0
    2.7577    0.0166    0.0000 O   0  0  0  0  0  0  0  0  0  0  0  0
    4.1159   -3.3235    0.0000 O   0  0  0  0  0  0  0  0  0  0  0  0
    3.8213    0.9710    0.0000 N   0  0  0  0  0  0  0  0  0  0  0  0
    4.3339    2.5393    0.0000 N   0  0  0  0  0  0  0  0  0  0  0  0
    4.3412   -1.8754    0.0000 N   0  0  0  0  0  0  0  0  0  0  0  0
    2.3645   -1.0504    0.0000 N   0  0  0  0  0  0  0  0  0  0  0  0
    2.3645   -2.7004    0.0000 N   0  0  0  0  0  0  0  0  0  0  0  0
    5.5787   -2.5899    0.0000 N   0  0  0  0  0  0  0  0  0  0  0  0
    3.2703    1.5850    0.0000 C   0  0  0  0  0  0  0  0  0  0  0  0
    4.6286    1.1411    0.0000 C   0  0  0  0  0  0  0  0  0  0  0  0
    3.5266    2.3692    0.0000 C   0  0  0  0  0  0  0  0  0  0  0  0
    4.8848    1.9253    0.0000 C   0  0  0  0  0  0  0  0  0  0  0  0
    3.8597   -1.2115    0.0000 C   0  0  3  0  0  0  0  0  0  0  0  0
    3.5650    0.1868    0.0000 C   0  0  0  0  0  0  0  0  0  0  0  0
    4.5902    3.3235    0.0000 C   0  0  0  0  0  0  0  0  0  0  0  0
    3.0791   -1.4629    0.0000 C   0  0  0  0  0  0  0  0  0  0  0  0
    3.0791   -2.2879    0.0000 C   0  0  0  0  0  0  0  0  0  0  0  0
    3.8597   -2.5393    0.0000 C   0  0  0  0  0  0  0  0  0  0  0  0
    5.1662   -1.8754    0.0000 C   0  0  0  0  0  0  0  0  0  0  0  0
    5.5787   -1.1610    0.0000 C   0  0  0  0  0  0  0  0  0  0  0  0
    1.6500   -1.4629    0.0000 C   0  0  0  0  0  0  0  0  0  0  0  0
    1.6500   -2.2879    0.0000 C   0  0  0  0  0  0  0  0  0  0  0  0
    6.4037   -1.1610    0.0000 C   0  0  0  0  0  0  0  0  0  0  0  0
    6.4037   -2.5899    0.0000 C   0  0  0  0  0  0  0  0  0  0  0  0
    6.8162   -1.8754    0.0000 C   0  0  0  0  0  0  0  0  0  0  0  0
    2.2233    1.3643    0.0000 H   0  0  0  0  0  0  0  0  0  0  0  0
    2.5557    2.3814    0.0000 H   0  0  0  0  0  0  0  0  0  0  0  0
    5.3432    0.3447    0.0000 H   0  0  0  0  0  0  0  0  0  0  0  0
    5.6756    1.3618    0.0000 H   0  0  0  0  0  0  0  0  0  0  0  0
    2.8120    3.1656    0.0000 H   0  0  0  0  0  0  0  0  0  0  0  0
    2.4796    2.1486    0.0000 H   0  0  0  0  0  0  0  0  0  0  0  0
    5.9318    2.1460    0.0000 H   0  0  0  0  0  0  0  0  0  0  0  0
    5.5995    1.1290    0.0000 H   0  0  0  0  0  0  0  0  0  0  0  0
    4.9167   -1.0454    0.0000 H   0  0  0  0  0  0  0  0  0  0  0  0
    5.6372    3.5442    0.0000 H   0  0  0  0  0  0  0  0  0  0  0  0
    3.8756    4.1199    0.0000 H   0  0  0  0  0  0  0  0  0  0  0  0
    4.9226    4.3406    0.0000 H   0  0  0  0  0  0  0  0  0  0  0  0
    5.0627   -0.2673    0.0000 H   0  0  0  0  0  0  0  0  0  0  0  0
    0.7563   -0.9469    0.0000 H   0  0  0  0  0  0  0  0  0  0  0  0
    0.7563   -2.8039    0.0000 H   0  0  0  0  0  0  0  0  0  0  0  0
    6.9197   -0.2673    0.0000 H   0  0  0  0  0  0  0  0  0  0  0  0
    6.9197   -3.4836    0.0000 H   0  0  0  0  0  0  0  0  0  0  0  0
  1 27  1  0  0  0  0
  2 15  1  0  0  0  0
  2 16  1  0  0  0  0
  3 16  2  0  0  0  0
  4 20  2  0  0  0  0
  5 11  1  0  0  0  0
  5 12  1  0  0  0  0
  5 16  1  0  0  0  0
  6 13  1  0  0  0  0
  6 14  1  0  0  0  0
  6 17  1  0  0  0  0
  7 15  1  0  0  0  0
  7 20  1  0  0  0  0
  7 21  1  0  0  0  0
  8 18  2  0  0  0  0
  8 23  1  0  0  0  0
  9 19  2  0  0  0  0
  9 24  1  0  0  0  0
 10 21  2  0  0  0  0
 10 26  1  0  0  0  0
 11 13  1  0  0  0  0
 11 28  1  0  0  0  0
 11 29  1  0  0  0  0
 12 14  1  0  0  0  0
 12 30  1  0  0  0  0
 12 31  1  0  0  0  0
 13 32  1  0  0  0  0
 13 33  1  0  0  0  0
 14 34  1  0  0  0  0
 14 35  1  0  0  0  0
 15 18  1  0  0  0  0
 15 36  1  0  0  0  0
 17 37  1  0  0  0  0
 17 38  1  0  0  0  0
 17 39  1  0  0  0  0
 18 19  1  0  0  0  0
 19 20  1  0  0  0  0
 21 22  1  0  0  0  0
 22 25  2  0  0  0  0
 22 40  1  0  0  0  0
 23 24  2  0  0  0  0
 23 41  1  0  0  0  0
 24 42  1  0  0  0  0
 25 27  1  0  0  0  0
 25 43  1  0  0  0  0
 26 27  2  0  0  0  0
 26 44  1  0  0  0  0
M  END
>  <DRUGBANK_ID>
DB01198

>  <SECONDARY_ACCESSION_NUMBERS>
APRD00356

>  <COMMON_NAME>
Zopiclone

>  <CAS_NUMBER>
43200-80-2

>  <UNII>
03A5ORL08Q

>  <SYNONYMS>
(+-)-zopiclone; (Â±)-zopiclone; 6-(5-Chloro-2-pyridinyl)-7-oxo-6,7-dihydro-5H-pyrrolo[3,4-b]pyrazin-5-yl 4-methyl-1-piperazinecarboxylate; Zopiclona; Zopiclone; Zopiclonum

$$$$
