
 OpenBabel10282417072D

 57 60  0  0  1  0  0  0  0  0999 V2000
   -1.4289   -2.4750    0.0000 C   0  0  0  0  0  0  0  0  0  0  0  0
   -1.4289   -1.6500    0.0000 C   0  0  0  0  0  0  0  0  0  0  0  0
   -0.7145   -1.2375    0.0000 C   0  0  0  0  0  0  0  0  0  0  0  0
   -0.7145   -0.4125    0.0000 O   0  0  0  0  0  0  0  0  0  0  0  0
    0.0000   -1.6500    0.0000 O   0  0  0  0  0  0  0  0  0  0  0  0
    0.7145   -1.2375    0.0000 C   0  0  1  0  0  0  0  0  0  0  0  0
    1.4289   -1.6500    0.0000 C   0  0  0  0  0  0  0  0  0  0  0  0
    2.1434   -1.2375    0.0000 O   0  0  0  0  0  0  0  0  0  0  0  0
    1.4289   -2.4750    0.0000 N   0  0  0  0  0  0  0  0  0  0  0  0
    0.7615   -2.9599    0.0000 N   0  0  0  0  0  0  0  0  0  0  0  0
    1.0164   -3.7445    0.0000 C   0  0  0  0  0  0  0  0  0  0  0  0
    1.8414   -3.7445    0.0000 C   0  0  0  0  0  0  0  0  0  0  0  0
    2.0964   -2.9599    0.0000 C   0  0  1  0  0  0  0  0  0  0  0  0
    2.8810   -2.7050    0.0000 C   0  0  0  0  0  0  0  0  0  0  0  0
    3.4941   -3.2570    0.0000 O   0  0  0  0  0  0  0  0  0  0  0  0
    3.0525   -1.8980    0.0000 N   0  0  0  0  0  0  0  0  0  0  0  0
    3.8372   -1.6431    0.0000 C   0  0  0  0  0  0  0  0  0  0  0  0
    4.0087   -0.8361    0.0000 C   0  0  0  0  0  0  0  0  0  0  0  0
    4.7933   -0.5812    0.0000 C   0  0  0  0  0  0  0  0  0  0  0  0
    4.9648    0.2258    0.0000 C   0  0  0  0  0  0  0  0  0  0  0  0
    4.3517    0.7778    0.0000 C   0  0  0  0  0  0  0  0  0  0  0  0
    3.5671    0.5229    0.0000 C   0  0  0  0  0  0  0  0  0  0  0  0
    2.9540    1.0749    0.0000 Cl  0  0  0  0  0  0  0  0  0  0  0  0
    3.3956   -0.2841    0.0000 C   0  0  0  0  0  0  0  0  0  0  0  0
    5.4064   -1.1332    0.0000 N   0  0  0  0  0  0  0  0  0  0  0  0
    5.3202   -1.9537    0.0000 C   0  0  0  0  0  0  0  0  0  0  0  0
    6.0738   -2.2892    0.0000 N   0  0  0  0  0  0  0  0  0  0  0  0
    6.6259   -1.6761    0.0000 N   0  0  0  0  0  0  0  0  0  0  0  0
    6.2134   -0.9617    0.0000 N   0  0  0  0  0  0  0  0  0  0  0  0
    0.7145   -0.4125    0.0000 C   0  0  0  0  0  0  0  0  0  0  0  0
    0.0000   -0.0000    0.0000 C   0  0  0  0  0  0  0  0  0  0  0  0
    0.0000    0.8250    0.0000 C   0  0  0  0  0  0  0  0  0  0  0  0
    0.7145    1.2375    0.0000 C   0  0  0  0  0  0  0  0  0  0  0  0
    0.7145    2.0625    0.0000 F   0  0  0  0  0  0  0  0  0  0  0  0
    1.4289    0.8250    0.0000 C   0  0  0  0  0  0  0  0  0  0  0  0
    1.4289   -0.0000    0.0000 C   0  0  0  0  0  0  0  0  0  0  0  0
   -2.3555   -3.0100    0.0000 H   0  0  0  0  0  0  0  0  0  0  0  0
   -0.5023   -3.0100    0.0000 H   0  0  0  0  0  0  0  0  0  0  0  0
   -1.4289   -3.5450    0.0000 H   0  0  0  0  0  0  0  0  0  0  0  0
   -2.3556   -1.1150    0.0000 H   0  0  0  0  0  0  0  0  0  0  0  0
   -1.4289   -0.5800    0.0000 H   0  0  0  0  0  0  0  0  0  0  0  0
    0.7145   -2.3075    0.0000 H   0  0  0  0  0  0  0  0  0  0  0  0
    0.4098   -4.5794    0.0000 H   0  0  0  0  0  0  0  0  0  0  0  0
    2.4703   -4.6102    0.0000 H   0  0  0  0  0  0  0  0  0  0  0  0
    2.8982   -3.5772    0.0000 H   0  0  0  0  0  0  0  0  0  0  0  0
    2.8530   -3.7165    0.0000 H   0  0  0  0  0  0  0  0  0  0  0  0
    2.3209   -1.2392    0.0000 H   0  0  0  0  0  0  0  0  0  0  0  0
    4.6324   -2.3591    0.0000 H   0  0  0  0  0  0  0  0  0  0  0  0
    4.8548   -1.3124    0.0000 H   0  0  0  0  0  0  0  0  0  0  0  0
    5.9463    0.5447    0.0000 H   0  0  0  0  0  0  0  0  0  0  0  0
    4.5663    1.7872    0.0000 H   0  0  0  0  0  0  0  0  0  0  0  0
    2.4141   -0.6030    0.0000 H   0  0  0  0  0  0  0  0  0  0  0  0
    4.4265   -2.4697    0.0000 H   0  0  0  0  0  0  0  0  0  0  0  0
   -0.8937   -0.5160    0.0000 H   0  0  0  0  0  0  0  0  0  0  0  0
   -0.8937    1.3410    0.0000 H   0  0  0  0  0  0  0  0  0  0  0  0
    2.3226    1.3410    0.0000 H   0  0  0  0  0  0  0  0  0  0  0  0
    2.3226   -0.5160    0.0000 H   0  0  0  0  0  0  0  0  0  0  0  0
  1  2  1  0  0  0  0
  1 37  1  0  0  0  0
  1 38  1  0  0  0  0
  1 39  1  0  0  0  0
  2  3  1  0  0  0  0
  2 40  1  0  0  0  0
  2 41  1  0  0  0  0
  3  4  2  0  0  0  0
  3  5  1  0  0  0  0
  6  5  1  0  0  0  0
  6  7  1  0  0  0  0
  6 30  1  0  0  0  0
  6 42  1  1  0  0  0
  7  8  2  0  0  0  0
  7  9  1  0  0  0  0
  9 10  1  0  0  0  0
 10 11  2  0  0  0  0
 11 12  1  0  0  0  0
 11 43  1  0  0  0  0
 12 44  1  0  0  0  0
 12 45  1  0  0  0  0
 13 12  1  0  0  0  0
 13  9  1  0  0  0  0
 13 14  1  0  0  0  0
 13 46  1  1  0  0  0
 14 15  2  0  0  0  0
 14 16  1  0  0  0  0
 16 17  1  0  0  0  0
 16 47  1  0  0  0  0
 17 18  1  0  0  0  0
 17 48  1  0  0  0  0
 17 49  1  0  0  0  0
 18 19  2  0  0  0  0
 18 24  1  0  0  0  0
 19 20  1  0  0  0  0
 19 25  1  0  0  0  0
 20 21  2  0  0  0  0
 20 50  1  0  0  0  0
 21 22  1  0  0  0  0
 21 51  1  0  0  0  0
 22 23  1  0  0  0  0
 22 24  2  0  0  0  0
 24 52  1  0  0  0  0
 25 26  1  0  0  0  0
 25 29  1  0  0  0  0
 26 27  2  0  0  0  0
 26 53  1  0  0  0  0
 27 28  1  0  0  0  0
 28 29  2  0  0  0  0
 30 31  2  0  0  0  0
 30 36  1  0  0  0  0
 31 32  1  0  0  0  0
 31 54  1  0  0  0  0
 32 33  2  0  0  0  0
 32 55  1  0  0  0  0
 33 34  1  0  0  0  0
 33 35  1  0  0  0  0
 35 36  2  0  0  0  0
 35 56  1  0  0  0  0
 36 57  1  0  0  0  0
M  END
>  <DRUGBANK_ID>
DB15132

>  <COMMON_NAME>
AZD-8165

>  <CAS_NUMBER>
1201686-72-7

>  <UNII>
7WO8I5IY24

$$$$
