AL1
 OpenBabel10282417072D

 37 39  0  0  0  0  0  0  0  0999 V2000
   -2.7609   -0.4012    0.0000 C   0  0  0  0  0  0  0  0  0  0  0  0
   -0.0624   -0.8137    0.0000 C   0  0  0  0  0  0  0  0  0  0  0  0
   -0.7768   -1.2262    0.0000 C   0  0  0  0  0  0  0  0  0  0  0  0
    1.3666    1.6613    0.0000 C   0  0  0  0  0  0  0  0  0  0  0  0
    2.0810    1.2488    0.0000 C   0  0  0  0  0  0  0  0  0  0  0  0
    2.0810    0.4238    0.0000 C   0  0  0  0  0  0  0  0  0  0  0  0
    1.3666    0.0113    0.0000 C   0  0  0  0  0  0  0  0  0  0  0  0
    3.5100    0.4238    0.0000 C   0  0  0  0  0  0  0  0  0  0  0  0
   -4.4109   -0.4012    0.0000 N   0  0  0  0  0  0  0  0  0  0  0  0
   -3.5859   -0.4012    0.0000 S   0  0  0  0  0  0  0  0  0  0  0  0
   -3.5859    0.4238    0.0000 O   0  0  0  0  0  0  0  0  0  0  0  0
   -3.5859   -1.2262    0.0000 O   0  0  0  0  0  0  0  0  0  0  0  0
   -2.2759    0.2662    0.0000 S   0  0  0  0  0  0  0  0  0  0  0  0
   -1.4913    0.0113    0.0000 C   0  0  0  0  0  0  0  0  0  0  0  0
   -1.4913   -0.8137    0.0000 C   0  0  0  0  0  0  0  0  0  0  0  0
   -2.2759   -1.0687    0.0000 C   0  0  0  0  0  0  0  0  0  0  0  0
   -0.0624    0.0113    0.0000 N   0  0  0  0  0  0  0  0  0  0  0  0
   -0.7768    0.4238    0.0000 S   0  0  0  0  0  0  0  0  0  0  0  0
   -1.1642    1.1522    0.0000 O   0  0  0  0  0  0  0  0  0  0  0  0
   -0.3895    1.1522    0.0000 O   0  0  0  0  0  0  0  0  0  0  0  0
    0.6521    0.4238    0.0000 C   0  0  0  0  0  0  0  0  0  0  0  0
    0.6521    1.2488    0.0000 C   0  0  0  0  0  0  0  0  0  0  0  0
    2.7955    0.0113    0.0000 O   0  0  0  0  0  0  0  0  0  0  0  0
    0.8643   -1.3487    0.0000 H   0  0  0  0  0  0  0  0  0  0  0  0
    0.8642   -0.2787    0.0000 H   0  0  0  0  0  0  0  0  0  0  0  0
   -0.7768   -2.2962    0.0000 H   0  0  0  0  0  0  0  0  0  0  0  0
   -1.7034   -1.7612    0.0000 H   0  0  0  0  0  0  0  0  0  0  0  0
    1.3666    2.6933    0.0000 H   0  0  0  0  0  0  0  0  0  0  0  0
    2.9747    1.7648    0.0000 H   0  0  0  0  0  0  0  0  0  0  0  0
    1.3666   -1.0207    0.0000 H   0  0  0  0  0  0  0  0  0  0  0  0
    4.4366   -0.1112    0.0000 H   0  0  0  0  0  0  0  0  0  0  0  0
    3.5100    1.4938    0.0000 H   0  0  0  0  0  0  0  0  0  0  0  0
    4.4367    0.9588    0.0000 H   0  0  0  0  0  0  0  0  0  0  0  0
   -4.9209    0.4821    0.0000 H   0  0  0  0  0  0  0  0  0  0  0  0
   -4.9209   -1.2845    0.0000 H   0  0  0  0  0  0  0  0  0  0  0  0
   -2.5948   -2.0502    0.0000 H   0  0  0  0  0  0  0  0  0  0  0  0
   -0.2416    1.7648    0.0000 H   0  0  0  0  0  0  0  0  0  0  0  0
  1 10  1  0  0  0  0
  1 13  1  0  0  0  0
  1 16  2  0  0  0  0
  2  3  1  0  0  0  0
  2 17  1  0  0  0  0
  2 24  1  0  0  0  0
  2 25  1  0  0  0  0
  3 15  1  0  0  0  0
  3 26  1  0  0  0  0
  3 27  1  0  0  0  0
  4  5  2  0  0  0  0
  4 22  1  0  0  0  0
  4 28  1  0  0  0  0
  5  6  1  0  0  0  0
  5 29  1  0  0  0  0
  6  7  2  0  0  0  0
  6 23  1  0  0  0  0
  7 21  1  0  0  0  0
  7 30  1  0  0  0  0
  8 23  1  0  0  0  0
  8 31  1  0  0  0  0
  8 32  1  0  0  0  0
  8 33  1  0  0  0  0
  9 10  1  0  0  0  0
  9 34  1  0  0  0  0
  9 35  1  0  0  0  0
 10 11  2  0  0  0  0
 10 12  2  0  0  0  0
 13 14  1  0  0  0  0
 14 15  2  0  0  0  0
 14 18  1  0  0  0  0
 15 16  1  0  0  0  0
 16 36  1  0  0  0  0
 17 18  1  0  0  0  0
 17 21  1  0  0  0  0
 18 19  2  0  0  0  0
 18 20  2  0  0  0  0
 21 22  2  0  0  0  0
 22 37  1  0  0  0  0
M  END
>  <DRUGBANK_ID>
DB02602

>  <SECONDARY_ACCESSION_NUMBERS>
EXPT00486

>  <COMMON_NAME>
AL7182

$$$$
