
 OpenBabel10282417072D

 68 73  0  0  0  0  0  0  0  0999 V2000
    7.7825   -1.5253    0.0000 C   0  0  0  0  0  0  0  0  0  0  0  0
    6.9755   -1.6968    0.0000 C   0  0  0  0  0  0  0  0  0  0  0  0
    6.7206   -2.4814    0.0000 N   0  0  0  0  0  0  0  0  0  0  0  0
    6.4235   -1.0837    0.0000 N   0  0  0  0  0  0  0  0  0  0  0  0
    5.6165   -1.2553    0.0000 C   0  0  0  0  0  0  0  0  0  0  0  0
    5.0645   -0.6422    0.0000 C   0  0  0  0  0  0  0  0  0  0  0  0
    5.3194    0.1425    0.0000 C   0  0  0  0  0  0  0  0  0  0  0  0
    6.1264    0.3140    0.0000 C   0  0  0  0  0  0  0  0  0  0  0  0
    6.6784   -0.2991    0.0000 C   0  0  0  0  0  0  0  0  0  0  0  0
    4.7674    0.7556    0.0000 O   0  0  0  0  0  0  0  0  0  0  0  0
    3.9604    0.5840    0.0000 C   0  0  0  0  0  0  0  0  0  0  0  0
    3.7054   -0.2006    0.0000 C   0  0  0  0  0  0  0  0  0  0  0  0
    2.8985   -0.3721    0.0000 C   0  0  0  0  0  0  0  0  0  0  0  0
    2.3464    0.2410    0.0000 C   0  0  0  0  0  0  0  0  0  0  0  0
    2.6014    1.0256    0.0000 C   0  0  0  0  0  0  0  0  0  0  0  0
    3.4084    1.1971    0.0000 C   0  0  0  0  0  0  0  0  0  0  0  0
    1.9339    1.5105    0.0000 N   0  0  0  0  0  0  0  0  0  0  0  0
    1.9339    2.3355    0.0000 C   0  0  0  0  0  0  0  0  0  0  0  0
    1.2195    2.7480    0.0000 C   0  0  0  0  0  0  0  0  0  0  0  0
    0.5050    2.3355    0.0000 C   0  0  0  0  0  0  0  0  0  0  0  0
   -0.2095    2.7480    0.0000 C   0  0  0  0  0  0  0  0  0  0  0  0
   -0.2095    3.5730    0.0000 C   0  0  0  0  0  0  0  0  0  0  0  0
   -0.9239    3.9855    0.0000 C   0  0  0  0  0  0  0  0  0  0  0  0
   -0.9239    4.8105    0.0000 C   0  0  0  0  0  0  0  0  0  0  0  0
   -0.2095    5.2230    0.0000 C   0  0  0  0  0  0  0  0  0  0  0  0
    0.5050    4.8105    0.0000 C   0  0  0  0  0  0  0  0  0  0  0  0
    0.5050    3.9855    0.0000 C   0  0  0  0  0  0  0  0  0  0  0  0
    1.2195    3.5730    0.0000 C   0  0  0  0  0  0  0  0  0  0  0  0
   -0.2095    6.0480    0.0000 C   0  0  0  0  0  0  0  0  0  0  0  0
   -0.9239    6.4605    0.0000 N   0  0  0  0  0  0  0  0  0  0  0  0
    0.5050    6.4605    0.0000 N   0  0  0  0  0  0  0  0  0  0  0  0
    1.2665    1.0256    0.0000 C   0  0  0  0  0  0  0  0  0  0  0  0
    1.5214    0.2410    0.0000 C   0  0  0  0  0  0  0  0  0  0  0  0
    0.9694   -0.3721    0.0000 C   0  0  0  0  0  0  0  0  0  0  0  0
    0.1624   -0.2006    0.0000 C   0  0  0  0  0  0  0  0  0  0  0  0
   -0.0925    0.5840    0.0000 C   0  0  0  0  0  0  0  0  0  0  0  0
    0.4595    1.1971    0.0000 C   0  0  0  0  0  0  0  0  0  0  0  0
    8.4984   -2.3205    0.0000 H   0  0  0  0  0  0  0  0  0  0  0  0
    8.1132   -0.5077    0.0000 H   0  0  0  0  0  0  0  0  0  0  0  0
    8.8291   -1.3029    0.0000 H   0  0  0  0  0  0  0  0  0  0  0  0
    5.7576   -2.6861    0.0000 H   0  0  0  0  0  0  0  0  0  0  0  0
    5.2859   -2.2729    0.0000 H   0  0  0  0  0  0  0  0  0  0  0  0
    4.5699   -1.4778    0.0000 H   0  0  0  0  0  0  0  0  0  0  0  0
    4.0179   -0.8647    0.0000 H   0  0  0  0  0  0  0  0  0  0  0  0
    4.3485    0.1529    0.0000 H   0  0  0  0  0  0  0  0  0  0  0  0
    5.6501    1.1601    0.0000 H   0  0  0  0  0  0  0  0  0  0  0  0
    6.4571    1.3316    0.0000 H   0  0  0  0  0  0  0  0  0  0  0  0
    7.1730    0.5364    0.0000 H   0  0  0  0  0  0  0  0  0  0  0  0
    7.7250   -0.0766    0.0000 H   0  0  0  0  0  0  0  0  0  0  0  0
    7.3944   -1.0943    0.0000 H   0  0  0  0  0  0  0  0  0  0  0  0
    4.3959   -0.9676    0.0000 H   0  0  0  0  0  0  0  0  0  0  0  0
    2.5796   -1.3536    0.0000 H   0  0  0  0  0  0  0  0  0  0  0  0
    3.7273    2.1786    0.0000 H   0  0  0  0  0  0  0  0  0  0  0  0
    2.8606    2.8705    0.0000 H   0  0  0  0  0  0  0  0  0  0  0  0
    1.9339    3.4055    0.0000 H   0  0  0  0  0  0  0  0  0  0  0  0
    0.5050    1.3035    0.0000 H   0  0  0  0  0  0  0  0  0  0  0  0
   -1.1032    2.2320    0.0000 H   0  0  0  0  0  0  0  0  0  0  0  0
   -1.8176    3.4695    0.0000 H   0  0  0  0  0  0  0  0  0  0  0  0
   -1.8176    5.3265    0.0000 H   0  0  0  0  0  0  0  0  0  0  0  0
    1.3987    5.3265    0.0000 H   0  0  0  0  0  0  0  0  0  0  0  0
    2.1132    4.0890    0.0000 H   0  0  0  0  0  0  0  0  0  0  0  0
   -0.9239    7.4450    0.0000 H   0  0  0  0  0  0  0  0  0  0  0  0
   -1.7765    5.9683    0.0000 H   0  0  0  0  0  0  0  0  0  0  0  0
    1.3576    5.9682    0.0000 H   0  0  0  0  0  0  0  0  0  0  0  0
    1.2883   -1.3536    0.0000 H   0  0  0  0  0  0  0  0  0  0  0  0
   -0.5281   -0.9675    0.0000 H   0  0  0  0  0  0  0  0  0  0  0  0
   -1.1019    0.7986    0.0000 H   0  0  0  0  0  0  0  0  0  0  0  0
    0.1406    2.1786    0.0000 H   0  0  0  0  0  0  0  0  0  0  0  0
  1  2  1  0  0  0  0
  1 38  1  0  0  0  0
  1 39  1  0  0  0  0
  1 40  1  0  0  0  0
  2  3  2  0  0  0  0
  2  4  1  0  0  0  0
  3 41  1  0  0  0  0
  4  5  1  0  0  0  0
  4  9  1  0  0  0  0
  5  6  1  0  0  0  0
  5 42  1  0  0  0  0
  5 43  1  0  0  0  0
  6  7  1  0  0  0  0
  6 44  1  0  0  0  0
  6 45  1  0  0  0  0
  7  8  1  0  0  0  0
  7 10  1  0  0  0  0
  7 46  1  0  0  0  0
  8  9  1  0  0  0  0
  8 47  1  0  0  0  0
  8 48  1  0  0  0  0
  9 49  1  0  0  0  0
  9 50  1  0  0  0  0
 10 11  1  0  0  0  0
 11 12  2  0  0  0  0
 11 16  1  0  0  0  0
 12 13  1  0  0  0  0
 12 51  1  0  0  0  0
 13 14  2  0  0  0  0
 13 52  1  0  0  0  0
 14 15  1  0  0  0  0
 14 33  1  0  0  0  0
 15 16  2  0  0  0  0
 15 17  1  0  0  0  0
 16 53  1  0  0  0  0
 17 18  1  0  0  0  0
 17 32  1  0  0  0  0
 18 19  1  0  0  0  0
 18 54  1  0  0  0  0
 18 55  1  0  0  0  0
 19 20  2  0  0  0  0
 19 28  1  0  0  0  0
 20 21  1  0  0  0  0
 20 56  1  0  0  0  0
 21 22  2  0  0  0  0
 21 57  1  0  0  0  0
 22 23  1  0  0  0  0
 22 27  1  0  0  0  0
 23 24  2  0  0  0  0
 23 58  1  0  0  0  0
 24 25  1  0  0  0  0
 24 59  1  0  0  0  0
 25 26  2  0  0  0  0
 25 29  1  0  0  0  0
 26 27  1  0  0  0  0
 26 60  1  0  0  0  0
 27 28  2  0  0  0  0
 28 61  1  0  0  0  0
 29 30  1  0  0  0  0
 29 31  2  0  0  0  0
 30 62  1  0  0  0  0
 30 63  1  0  0  0  0
 31 64  1  0  0  0  0
 32 33  2  0  0  0  0
 32 37  1  0  0  0  0
 33 34  1  0  0  0  0
 34 35  2  0  0  0  0
 34 65  1  0  0  0  0
 35 36  1  0  0  0  0
 35 66  1  0  0  0  0
 36 37  2  0  0  0  0
 36 67  1  0  0  0  0
 37 68  1  0  0  0  0
M  END
>  <DRUGBANK_ID>
DB02112

>  <SECONDARY_ACCESSION_NUMBERS>
EXPT00320

>  <COMMON_NAME>
Zk-806450

$$$$
