
 OpenBabel10282417072D

 63 68  0  0  0  0  0  0  0  0999 V2000
   -0.6668    2.7186    0.0000 C   0  0  0  0  0  0  0  0  0  0  0  0
    0.6668    2.7186    0.0000 C   0  0  0  0  0  0  0  0  0  0  0  0
    0.0000    3.2060    0.0000 N   0  0  0  0  0  0  0  0  0  0  0  0
   -1.4554    2.9751    0.0000 O   0  0  0  0  0  0  0  0  0  0  0  0
    1.4491    2.9751    0.0000 O   0  0  0  0  0  0  0  0  0  0  0  0
   -0.4103    1.9364    0.0000 C   0  0  0  0  0  0  0  0  0  0  0  0
    0.4104    1.9364    0.0000 C   0  0  0  0  0  0  0  0  0  0  0  0
    0.4104    0.5065    0.0000 C   0  0  0  0  0  0  0  0  0  0  0  0
    0.8271    1.2182    0.0000 C   0  0  0  0  0  0  0  0  0  0  0  0
   -0.8271    1.2182    0.0000 C   0  0  0  0  0  0  0  0  0  0  0  0
   -0.4103    0.5065    0.0000 C   0  0  0  0  0  0  0  0  0  0  0  0
    1.7184    0.2308    0.0000 C   0  0  0  0  0  0  0  0  0  0  0  0
    1.6350    1.0515    0.0000 C   0  0  0  0  0  0  0  0  0  0  0  0
    2.3019    1.5324    0.0000 C   0  0  0  0  0  0  0  0  0  0  0  0
    2.4750   -0.1089    0.0000 C   0  0  0  0  0  0  0  0  0  0  0  0
    3.1418    0.3782    0.0000 C   0  0  0  0  0  0  0  0  0  0  0  0
    3.0521    1.1990    0.0000 C   0  0  0  0  0  0  0  0  0  0  0  0
   -1.6350    1.0515    0.0000 C   0  0  0  0  0  0  0  0  0  0  0  0
   -1.7184    0.2308    0.0000 C   0  0  0  0  0  0  0  0  0  0  0  0
   -2.3018    1.5324    0.0000 C   0  0  0  0  0  0  0  0  0  0  0  0
   -3.0584    1.1990    0.0000 C   0  0  0  0  0  0  0  0  0  0  0  0
   -3.1418    0.3782    0.0000 C   0  0  0  0  0  0  0  0  0  0  0  0
   -2.4750   -0.1089    0.0000 C   0  0  0  0  0  0  0  0  0  0  0  0
   -0.9681   -0.1089    0.0000 N   0  0  0  0  0  0  0  0  0  0  0  0
    0.9617   -0.1089    0.0000 N   0  0  0  0  0  0  0  0  0  0  0  0
   -0.3847   -0.6925    0.0000 C   0  0  0  0  0  0  0  0  0  0  0  0
    0.3782   -0.6925    0.0000 C   0  0  0  0  0  0  0  0  0  0  0  0
    0.7950   -1.4042    0.0000 C   0  0  0  0  0  0  0  0  0  0  0  0
   -0.7950   -1.4042    0.0000 C   0  0  0  0  0  0  0  0  0  0  0  0
   -0.3847   -2.1224    0.0000 O   0  0  0  0  0  0  0  0  0  0  0  0
    0.3782   -2.1224    0.0000 C   0  0  2  0  0  0  0  0  0  0  0  0
    0.7950   -2.8341    0.0000 C   0  0  0  0  0  0  0  0  0  0  0  0
    2.1737   -3.2060    0.0000 C   0  0  0  0  0  0  0  0  0  0  0  0
    1.8017   -1.8275    0.0000 C   0  0  0  0  0  0  0  0  0  0  0  0
    1.5902   -2.6225    0.0000 N   0  0  0  0  0  0  0  0  0  0  0  0
    0.0000    4.1905    0.0000 H   0  0  0  0  0  0  0  0  0  0  0  0
   -0.6164    0.4030    0.0000 H   0  0  0  0  0  0  0  0  0  0  0  0
    0.6162    0.4001    0.0000 H   0  0  0  0  0  0  0  0  0  0  0  0
    2.1955    2.5589    0.0000 H   0  0  0  0  0  0  0  0  0  0  0  0
    2.5826   -1.1353    0.0000 H   0  0  0  0  0  0  0  0  0  0  0  0
    4.0860   -0.0384    0.0000 H   0  0  0  0  0  0  0  0  0  0  0  0
    3.8855    1.8076    0.0000 H   0  0  0  0  0  0  0  0  0  0  0  0
   -2.1938    2.5587    0.0000 H   0  0  0  0  0  0  0  0  0  0  0  0
   -3.8932    1.8057    0.0000 H   0  0  0  0  0  0  0  0  0  0  0  0
   -4.0844   -0.0420    0.0000 H   0  0  0  0  0  0  0  0  0  0  0  0
   -2.5826   -1.1353    0.0000 H   0  0  0  0  0  0  0  0  0  0  0  0
    0.6761   -0.5526    0.0000 H   0  0  0  0  0  0  0  0  0  0  0  0
    0.2101   -1.5819    0.0000 H   0  0  0  0  0  0  0  0  0  0  0  0
   -0.6831   -0.5562    0.0000 H   0  0  0  0  0  0  0  0  0  0  0  0
   -0.2121   -1.5849    0.0000 H   0  0  0  0  0  0  0  0  0  0  0  0
    1.8650   -1.4021    0.0000 H   0  0  0  0  0  0  0  0  0  0  0  0
    1.3299   -2.3309    0.0000 H   0  0  0  0  0  0  0  0  0  0  0  0
   -1.8650   -1.4021    0.0000 H   0  0  0  0  0  0  0  0  0  0  0  0
   -1.3330   -2.3291    0.0000 H   0  0  0  0  0  0  0  0  0  0  0  0
    1.4482   -2.1203    0.0000 H   0  0  0  0  0  0  0  0  0  0  0  0
    0.3877   -3.8236    0.0000 H   0  0  0  0  0  0  0  0  0  0  0  0
    1.5007   -3.6384    0.0000 H   0  0  0  0  0  0  0  0  0  0  0  0
    1.8968   -4.2395    0.0000 H   0  0  0  0  0  0  0  0  0  0  0  0
    3.2072   -2.9291    0.0000 H   0  0  0  0  0  0  0  0  0  0  0  0
    2.9303   -3.9626    0.0000 H   0  0  0  0  0  0  0  0  0  0  0  0
    2.8347   -1.5487    0.0000 H   0  0  0  0  0  0  0  0  0  0  0  0
    1.0437   -1.0722    0.0000 H   0  0  0  0  0  0  0  0  0  0  0  0
    2.0768   -0.7935    0.0000 H   0  0  0  0  0  0  0  0  0  0  0  0
  1  3  1  0  0  0  0
  1  6  1  0  0  0  0
  1  4  2  0  0  0  0
  2  3  1  0  0  0  0
  2  7  1  0  0  0  0
  2  5  2  0  0  0  0
  3 36  1  0  0  0  0
  6 10  1  0  0  0  0
  6  7  2  0  0  0  0
  7  9  1  0  0  0  0
  8 25  1  0  0  0  0
  8  9  2  0  0  0  0
  8 37  1  0  0  0  0
  9 13  1  0  0  0  0
 10 18  1  0  0  0  0
 10 11  2  0  0  0  0
 11 24  1  0  0  0  0
 11 38  1  0  0  0  0
 12 25  1  0  0  0  0
 12 15  1  0  0  0  0
 12 13  2  0  0  0  0
 13 14  1  0  0  0  0
 14 17  2  0  0  0  0
 14 39  1  0  0  0  0
 15 16  2  0  0  0  0
 15 40  1  0  0  0  0
 16 17  1  0  0  0  0
 16 41  1  0  0  0  0
 17 42  1  0  0  0  0
 18 20  1  0  0  0  0
 18 19  2  0  0  0  0
 19 24  1  0  0  0  0
 19 23  1  0  0  0  0
 20 21  2  0  0  0  0
 20 43  1  0  0  0  0
 21 22  1  0  0  0  0
 21 44  1  0  0  0  0
 22 23  2  0  0  0  0
 22 45  1  0  0  0  0
 23 46  1  0  0  0  0
 24 26  1  0  0  0  0
 25 27  1  0  0  0  0
 26 29  1  0  0  0  0
 26 47  1  0  0  0  0
 26 48  1  0  0  0  0
 27 28  1  0  0  0  0
 27 49  1  0  0  0  0
 27 50  1  0  0  0  0
 28 31  1  0  0  0  0
 28 51  1  0  0  0  0
 28 52  1  0  0  0  0
 29 30  1  0  0  0  0
 29 53  1  0  0  0  0
 29 54  1  0  0  0  0
 30 31  1  0  0  0  0
 31 32  1  0  0  0  0
 31 55  1  6  0  0  0
 32 35  1  0  0  0  0
 32 56  1  0  0  0  0
 32 57  1  0  0  0  0
 33 35  1  0  0  0  0
 33 58  1  0  0  0  0
 33 59  1  0  0  0  0
 33 60  1  0  0  0  0
 34 35  1  0  0  0  0
 34 61  1  0  0  0  0
 34 62  1  0  0  0  0
 34 63  1  0  0  0  0
M  END
>  <DRUGBANK_ID>
DB11829

>  <COMMON_NAME>
Ruboxistaurin

>  <CAS_NUMBER>
169939-94-0

>  <UNII>
721809WQCP

>  <SYNONYMS>
Ruboxistaurin

$$$$
