
 OpenBabel10282417072D

 16 15  0  0  0  0  0  0  0  0999 V2000
   -0.6039   -2.4750    0.0000 N   0  0  0  0  0  0  0  0  0  0  0  0
    0.1105   -2.0625    0.0000 C   0  0  0  0  0  0  0  0  0  0  0  0
    0.1105   -1.2375    0.0000 C   0  0  0  0  0  0  0  0  0  0  0  0
    0.8250   -0.8250    0.0000 S   0  0  0  0  0  0  0  0  0  0  0  0
    0.8250    0.0000    0.0000 P   0  0  0  0  0  0  0  0  0  0  0  0
    0.8250    0.8250    0.0000 O   0  0  0  0  0  0  0  0  0  0  0  0
    1.6500   -0.0000    0.0000 O   0  0  0  0  0  0  0  0  0  0  0  0
    0.0000    0.0000    0.0000 O   0  0  0  0  0  0  0  0  0  0  0  0
   -1.4873   -1.9650    0.0000 H   0  0  0  0  0  0  0  0  0  0  0  0
   -0.6039   -3.4950    0.0000 H   0  0  0  0  0  0  0  0  0  0  0  0
    1.0372   -2.5975    0.0000 H   0  0  0  0  0  0  0  0  0  0  0  0
    1.0371   -1.5275    0.0000 H   0  0  0  0  0  0  0  0  0  0  0  0
   -0.8161   -0.7025    0.0000 H   0  0  0  0  0  0  0  0  0  0  0  0
    0.1105   -0.1675    0.0000 H   0  0  0  0  0  0  0  0  0  0  0  0
    1.6650    1.3100    0.0000 H   0  0  0  0  0  0  0  0  0  0  0  0
    2.1350   -0.8400    0.0000 H   0  0  0  0  0  0  0  0  0  0  0  0
  1  2  1  0  0  0  0
  1  9  1  0  0  0  0
  1 10  1  0  0  0  0
  2  3  1  0  0  0  0
  2 11  1  0  0  0  0
  2 12  1  0  0  0  0
  3  4  1  0  0  0  0
  3 13  1  0  0  0  0
  3 14  1  0  0  0  0
  4  5  1  0  0  0  0
  5  6  1  0  0  0  0
  5  7  1  0  0  0  0
  5  8  2  0  0  0  0
  6 15  1  0  0  0  0
  7 16  1  0  0  0  0
M  END
>  <DRUGBANK_ID>
DB17640

>  <COMMON_NAME>
Phosphocysteamine

>  <CAS_NUMBER>
5746-40-7

>  <UNII>
WFH6A9S0V4

>  <SYNONYMS>
Cysteamine s-phosphate; Cysteamine-s-phosphate; Ethanethiol, 2-amino-, 1-(dihydrogen phosphate); Ethanethiol, 2-amino-, dihydrogen phosphate (ester); Ethanethiol, 2-amino-, s-ester with phosphorothioic acid; Phosphocysteamine; Phosphorothioic acid, s-(2-aminoethyl) ester; S-(2-aminoethyl) dihydrogen phosphorothioate; S-(2-aminoethyl) phosphorothioate

$$$$
