
 OpenBabel10282417072D

 18 19  0  0  0  0  0  0  0  0999 V2000
    3.3523    1.1104    0.0000 C   0  0  0  0  0  0  0  0  0  0  0  0
    3.3523    1.9354    0.0000 C   0  0  0  0  0  0  0  0  0  0  0  0
    2.6378    0.6979    0.0000 C   0  0  0  0  0  0  0  0  0  0  0  0
    2.6378    2.3479    0.0000 C   0  0  0  0  0  0  0  0  0  0  0  0
    1.9233    1.1104    0.0000 C   0  0  0  0  0  0  0  0  0  0  0  0
    1.9233    1.9354    0.0000 C   0  0  0  0  0  0  0  0  0  0  0  0
    0.6538    1.5229    0.0000 C   0  0  0  0  0  0  0  0  0  0  0  0
   -0.1712    1.5229    0.0000 C   0  0  0  0  0  0  0  0  0  0  0  0
    1.1387    0.8555    0.0000 N   0  0  0  0  0  0  0  0  0  0  0  0
    1.1387    2.1904    0.0000 N   0  0  0  0  0  0  0  0  0  0  0  0
   -0.5837    0.8085    0.0000 O   0  0  0  0  0  0  0  0  0  0  0  0
   -0.5837    2.2374    0.0000 O   0  0  0  0  0  0  0  0  0  0  0  0
    4.2460    0.5944    0.0000 H   0  0  0  0  0  0  0  0  0  0  0  0
    4.2460    2.4514    0.0000 H   0  0  0  0  0  0  0  0  0  0  0  0
    2.6378   -0.3341    0.0000 H   0  0  0  0  0  0  0  0  0  0  0  0
    2.6378    3.3799    0.0000 H   0  0  0  0  0  0  0  0  0  0  0  0
    0.8345   -0.0808    0.0000 H   0  0  0  0  0  0  0  0  0  0  0  0
   -1.5207    0.8085    0.0000 H   0  0  0  0  0  0  0  0  0  0  0  0
  1 13  1  0  0  0  0
  2  1  2  0  0  0  0
  2 14  1  0  0  0  0
  3  1  1  0  0  0  0
  3 15  1  0  0  0  0
  4  2  1  0  0  0  0
  4 16  1  0  0  0  0
  5  3  2  0  0  0  0
  6  4  2  0  0  0  0
  6  5  1  0  0  0  0
  8  7  1  0  0  0  0
  9  5  1  0  0  0  0
  9  7  1  0  0  0  0
  9 17  1  0  0  0  0
 10  6  1  0  0  0  0
 10  7  2  0  0  0  0
 11  8  1  0  0  0  0
 11 18  1  0  0  0  0
 12  8  2  0  0  0  0
M  END
>  <DRUGBANK_ID>
DB03028

>  <SECONDARY_ACCESSION_NUMBERS>
EXPT03110

>  <COMMON_NAME>
1h-Benoximidazole-2-Carboxylic Acid

>  <UNII>
C59S3E32RV

$$$$
