
 OpenBabel10282417072D

 87 90  0  0  1  0  0  0  0  0999 V2000
   -0.7144   -0.2062    0.0000 S   0  0  0  0  0  0  0  0  0  0  0  0
    2.8579   -1.4437    0.0000 O   0  0  0  0  0  0  0  0  0  0  0  0
    5.0014    0.6187    0.0000 O   0  0  0  0  0  0  0  0  0  0  0  0
   -0.3019    0.5082    0.0000 O   0  0  0  0  0  0  0  0  0  0  0  0
   -1.1269   -0.9207    0.0000 O   0  0  0  0  0  0  0  0  0  0  0  0
   -2.1434   -0.2062    0.0000 O   0  0  0  0  0  0  0  0  0  0  0  0
    4.2868    1.8562    0.0000 N   0  0  0  0  0  0  0  0  0  0  0  0
    4.2868    3.5063    0.0000 N   0  0  0  0  0  0  0  0  0  0  0  0
    2.1434   -0.2062    0.0000 N   0  0  0  0  0  0  0  0  0  0  0  0
    3.5724    0.6187    0.0000 N   0  0  0  0  0  0  0  0  0  0  0  0
   -1.4290    0.2062    0.0000 N   0  0  0  0  0  0  0  0  0  0  0  0
    1.4289   -0.6187    0.0000 C   0  0  2  0  0  0  0  0  0  0  0  0
    0.7144   -0.2062    0.0000 C   0  0  0  0  0  0  0  0  0  0  0  0
    1.4289   -1.4437    0.0000 C   0  0  0  0  0  0  0  0  0  0  0  0
    3.5724    2.2687    0.0000 C   0  0  0  0  0  0  0  0  0  0  0  0
    5.0014    2.2687    0.0000 C   0  0  0  0  0  0  0  0  0  0  0  0
    3.5724    3.0938    0.0000 C   0  0  0  0  0  0  0  0  0  0  0  0
    5.0014    3.0938    0.0000 C   0  0  0  0  0  0  0  0  0  0  0  0
    3.5724   -0.2062    0.0000 C   0  0  2  0  0  0  0  0  0  0  0  0
    0.0000   -0.6187    0.0000 C   0  0  0  0  0  0  0  0  0  0  0  0
    0.7144   -1.8562    0.0000 C   0  0  0  0  0  0  0  0  0  0  0  0
    2.8579   -0.6187    0.0000 C   0  0  0  0  0  0  0  0  0  0  0  0
    4.2868    1.0312    0.0000 C   0  0  0  0  0  0  0  0  0  0  0  0
    4.2868   -0.6187    0.0000 C   0  0  0  0  0  0  0  0  0  0  0  0
    4.2868    4.3313    0.0000 C   0  0  0  0  0  0  0  0  0  0  0  0
    0.7144   -2.6813    0.0000 C   0  0  0  0  0  0  0  0  0  0  0  0
    4.2868   -1.4437    0.0000 C   0  0  0  0  0  0  0  0  0  0  0  0
    1.4289   -3.0938    0.0000 C   0  0  0  0  0  0  0  0  0  0  0  0
    0.0000   -3.0938    0.0000 C   0  0  0  0  0  0  0  0  0  0  0  0
    5.0014   -1.8562    0.0000 C   0  0  0  0  0  0  0  0  0  0  0  0
    3.5724   -1.8562    0.0000 C   0  0  0  0  0  0  0  0  0  0  0  0
    1.4289   -3.9188    0.0000 C   0  0  0  0  0  0  0  0  0  0  0  0
    0.0000   -3.9188    0.0000 C   0  0  0  0  0  0  0  0  0  0  0  0
    5.0014   -2.6813    0.0000 C   0  0  0  0  0  0  0  0  0  0  0  0
    3.5724   -2.6813    0.0000 C   0  0  0  0  0  0  0  0  0  0  0  0
    0.7144   -4.3313    0.0000 C   0  0  0  0  0  0  0  0  0  0  0  0
    4.2868   -3.0938    0.0000 C   0  0  0  0  0  0  0  0  0  0  0  0
   -2.8579    0.2062    0.0000 C   0  0  0  0  0  0  0  0  0  0  0  0
   -3.5724   -0.2062    0.0000 C   0  0  0  0  0  0  0  0  0  0  0  0
   -3.5724   -1.0312    0.0000 C   0  0  0  0  0  0  0  0  0  0  0  0
   -4.2869    0.2062    0.0000 C   0  0  0  0  0  0  0  0  0  0  0  0
   -4.2869   -1.4437    0.0000 C   0  0  0  0  0  0  0  0  0  0  0  0
   -5.0014   -0.2062    0.0000 C   0  0  0  0  0  0  0  0  0  0  0  0
   -5.0014   -1.0312    0.0000 C   0  0  0  0  0  0  0  0  0  0  0  0
    2.1434    0.3052    0.0000 H   0  0  0  0  0  0  0  0  0  0  0  0
    3.1294    0.8745    0.0000 H   0  0  0  0  0  0  0  0  0  0  0  0
   -1.4290    0.7177    0.0000 H   0  0  0  0  0  0  0  0  0  0  0  0
    1.4289    0.4513    0.0000 H   0  0  0  0  0  0  0  0  0  0  0  0
    0.7144    0.8638    0.0000 H   0  0  0  0  0  0  0  0  0  0  0  0
   -0.2123    0.3288    0.0000 H   0  0  0  0  0  0  0  0  0  0  0  0
    2.3555   -1.9787    0.0000 H   0  0  0  0  0  0  0  0  0  0  0  0
    1.4289   -2.5137    0.0000 H   0  0  0  0  0  0  0  0  0  0  0  0
    2.6457    1.7337    0.0000 H   0  0  0  0  0  0  0  0  0  0  0  0
    2.6458    2.8037    0.0000 H   0  0  0  0  0  0  0  0  0  0  0  0
    5.9280    1.7337    0.0000 H   0  0  0  0  0  0  0  0  0  0  0  0
    5.9281    2.8037    0.0000 H   0  0  0  0  0  0  0  0  0  0  0  0
    2.6457    3.6288    0.0000 H   0  0  0  0  0  0  0  0  0  0  0  0
    2.6458    2.5588    0.0000 H   0  0  0  0  0  0  0  0  0  0  0  0
    5.9280    3.6288    0.0000 H   0  0  0  0  0  0  0  0  0  0  0  0
    5.9281    2.5588    0.0000 H   0  0  0  0  0  0  0  0  0  0  0  0
    2.6458    0.3288    0.0000 H   0  0  0  0  0  0  0  0  0  0  0  0
    0.0000   -1.6887    0.0000 H   0  0  0  0  0  0  0  0  0  0  0  0
    0.9267   -1.1537    0.0000 H   0  0  0  0  0  0  0  0  0  0  0  0
   -0.2122   -1.3212    0.0000 H   0  0  0  0  0  0  0  0  0  0  0  0
   -0.2122   -2.3912    0.0000 H   0  0  0  0  0  0  0  0  0  0  0  0
    5.2135   -0.0837    0.0000 H   0  0  0  0  0  0  0  0  0  0  0  0
    5.2134   -1.1537    0.0000 H   0  0  0  0  0  0  0  0  0  0  0  0
    5.2134    4.8663    0.0000 H   0  0  0  0  0  0  0  0  0  0  0  0
    3.3602    4.8663    0.0000 H   0  0  0  0  0  0  0  0  0  0  0  0
    4.2868    5.4013    0.0000 H   0  0  0  0  0  0  0  0  0  0  0  0
    2.3226   -2.5778    0.0000 H   0  0  0  0  0  0  0  0  0  0  0  0
   -0.8937   -2.5778    0.0000 H   0  0  0  0  0  0  0  0  0  0  0  0
    5.8951   -1.3402    0.0000 H   0  0  0  0  0  0  0  0  0  0  0  0
    2.6787   -1.3402    0.0000 H   0  0  0  0  0  0  0  0  0  0  0  0
    2.3226   -4.4348    0.0000 H   0  0  0  0  0  0  0  0  0  0  0  0
   -0.8937   -4.4348    0.0000 H   0  0  0  0  0  0  0  0  0  0  0  0
    5.8951   -3.1973    0.0000 H   0  0  0  0  0  0  0  0  0  0  0  0
    2.6787   -3.1973    0.0000 H   0  0  0  0  0  0  0  0  0  0  0  0
    0.7144   -5.3633    0.0000 H   0  0  0  0  0  0  0  0  0  0  0  0
    4.2867   -4.1258    0.0000 H   0  0  0  0  0  0  0  0  0  0  0  0
   -2.8579    1.2762    0.0000 H   0  0  0  0  0  0  0  0  0  0  0  0
   -3.7845    0.7413    0.0000 H   0  0  0  0  0  0  0  0  0  0  0  0
   -2.6787   -1.5472    0.0000 H   0  0  0  0  0  0  0  0  0  0  0  0
   -4.2869    1.2382    0.0000 H   0  0  0  0  0  0  0  0  0  0  0  0
   -4.2869   -2.4757    0.0000 H   0  0  0  0  0  0  0  0  0  0  0  0
   -5.8951    0.3099    0.0000 H   0  0  0  0  0  0  0  0  0  0  0  0
   -5.8951   -1.5472    0.0000 H   0  0  0  0  0  0  0  0  0  0  0  0
  1  4  2  0  0  0  0
  1  5  2  0  0  0  0
  1 11  1  0  0  0  0
  1 20  1  0  0  0  0
  2 22  2  0  0  0  0
  3 23  2  0  0  0  0
  6 11  1  0  0  0  0
  6 38  1  0  0  0  0
  7 15  1  0  0  0  0
  7 16  1  0  0  0  0
  7 23  1  0  0  0  0
  8 17  1  0  0  0  0
  8 18  1  0  0  0  0
  8 25  1  0  0  0  0
  9 22  1  0  0  0  0
  9 45  1  0  0  0  0
 10 23  1  0  0  0  0
 10 46  1  0  0  0  0
 11 47  1  0  0  0  0
 12  9  1  0  0  0  0
 12 13  1  0  0  0  0
 12 14  1  0  0  0  0
 12 48  1  6  0  0  0
 13 20  1  0  0  0  0
 13 49  1  0  0  0  0
 13 50  1  0  0  0  0
 14 21  1  0  0  0  0
 14 51  1  0  0  0  0
 14 52  1  0  0  0  0
 15 17  1  0  0  0  0
 15 53  1  0  0  0  0
 15 54  1  0  0  0  0
 16 18  1  0  0  0  0
 16 55  1  0  0  0  0
 16 56  1  0  0  0  0
 17 57  1  0  0  0  0
 17 58  1  0  0  0  0
 18 59  1  0  0  0  0
 18 60  1  0  0  0  0
 19 10  1  0  0  0  0
 19 22  1  0  0  0  0
 19 24  1  0  0  0  0
 19 61  1  6  0  0  0
 20 62  1  0  0  0  0
 20 63  1  0  0  0  0
 21 26  1  0  0  0  0
 21 64  1  0  0  0  0
 21 65  1  0  0  0  0
 24 27  1  0  0  0  0
 24 66  1  0  0  0  0
 24 67  1  0  0  0  0
 25 68  1  0  0  0  0
 25 69  1  0  0  0  0
 25 70  1  0  0  0  0
 26 28  2  0  0  0  0
 26 29  1  0  0  0  0
 27 30  2  0  0  0  0
 27 31  1  0  0  0  0
 28 32  1  0  0  0  0
 28 71  1  0  0  0  0
 29 33  2  0  0  0  0
 29 72  1  0  0  0  0
 30 34  1  0  0  0  0
 30 73  1  0  0  0  0
 31 35  2  0  0  0  0
 31 74  1  0  0  0  0
 32 36  2  0  0  0  0
 32 75  1  0  0  0  0
 33 36  1  0  0  0  0
 33 76  1  0  0  0  0
 34 37  2  0  0  0  0
 34 77  1  0  0  0  0
 35 37  1  0  0  0  0
 35 78  1  0  0  0  0
 36 79  1  0  0  0  0
 37 80  1  0  0  0  0
 38 39  1  0  0  0  0
 38 81  1  0  0  0  0
 38 82  1  0  0  0  0
 39 40  2  0  0  0  0
 39 41  1  0  0  0  0
 40 42  1  0  0  0  0
 40 83  1  0  0  0  0
 41 43  2  0  0  0  0
 41 84  1  0  0  0  0
 42 44  2  0  0  0  0
 42 85  1  0  0  0  0
 43 44  1  0  0  0  0
 43 86  1  0  0  0  0
 44 87  1  0  0  0  0
M  END
>  <DRUGBANK_ID>
DB04427

>  <SECONDARY_ACCESSION_NUMBERS>
EXPT03234

>  <COMMON_NAME>
N-{(3S)-1-[(Benzyloxy)sulfamoyl]-5-phenyl-3-pentanyl}-NÎ±-[(4-methyl-1-piperazinyl)carbonyl]-L-phenylalaninamide

$$$$
