12H
 OpenBabel10282417072D

 39 38  0  0  0  0  0  0  0  0999 V2000
   -3.7259    0.2274    0.0000 C   0  0  0  0  0  0  0  0  0  0  0  0
   -3.0113   -0.1851    0.0000 C   0  0  0  0  0  0  0  0  0  0  0  0
   -2.2969    0.2274    0.0000 C   0  0  0  0  0  0  0  0  0  0  0  0
   -1.5823   -0.1851    0.0000 C   0  0  0  0  0  0  0  0  0  0  0  0
   -0.8678    0.2274    0.0000 C   0  0  0  0  0  0  0  0  0  0  0  0
   -0.1533   -0.1851    0.0000 C   0  0  0  0  0  0  0  0  0  0  0  0
    0.5612    0.2274    0.0000 C   0  0  0  0  0  0  0  0  0  0  0  0
    1.2758   -0.1851    0.0000 C   0  0  0  0  0  0  0  0  0  0  0  0
    1.9903    0.2274    0.0000 C   0  0  0  0  0  0  0  0  0  0  0  0
    2.7048   -0.1851    0.0000 C   0  0  0  0  0  0  0  0  0  0  0  0
    3.4194    0.2274    0.0000 C   0  0  0  0  0  0  0  0  0  0  0  0
    4.1339   -0.1851    0.0000 C   0  0  0  0  0  0  0  0  0  0  0  0
   -4.4404   -0.1851    0.0000 O   0  0  0  0  0  0  0  0  0  0  0  0
    4.8484    0.2274    0.0000 O   0  0  0  0  0  0  0  0  0  0  0  0
    4.1339   -1.0102    0.0000 O   0  0  0  0  0  0  0  0  0  0  0  0
   -3.7259    1.2974    0.0000 H   0  0  0  0  0  0  0  0  0  0  0  0
   -4.6526    0.7624    0.0000 H   0  0  0  0  0  0  0  0  0  0  0  0
   -3.0112   -1.2551    0.0000 H   0  0  0  0  0  0  0  0  0  0  0  0
   -2.0846   -0.7201    0.0000 H   0  0  0  0  0  0  0  0  0  0  0  0
   -2.2970    1.2974    0.0000 H   0  0  0  0  0  0  0  0  0  0  0  0
   -1.3703    0.7625    0.0000 H   0  0  0  0  0  0  0  0  0  0  0  0
   -1.5823   -1.2551    0.0000 H   0  0  0  0  0  0  0  0  0  0  0  0
   -0.6556   -0.7201    0.0000 H   0  0  0  0  0  0  0  0  0  0  0  0
   -0.8678    1.2974    0.0000 H   0  0  0  0  0  0  0  0  0  0  0  0
    0.0588    0.7624    0.0000 H   0  0  0  0  0  0  0  0  0  0  0  0
   -0.1533   -1.2551    0.0000 H   0  0  0  0  0  0  0  0  0  0  0  0
    0.7733   -0.7201    0.0000 H   0  0  0  0  0  0  0  0  0  0  0  0
    0.5612    1.2974    0.0000 H   0  0  0  0  0  0  0  0  0  0  0  0
    1.4878    0.7625    0.0000 H   0  0  0  0  0  0  0  0  0  0  0  0
    1.2758   -1.2551    0.0000 H   0  0  0  0  0  0  0  0  0  0  0  0
    2.2025   -0.7201    0.0000 H   0  0  0  0  0  0  0  0  0  0  0  0
    1.9903    1.2974    0.0000 H   0  0  0  0  0  0  0  0  0  0  0  0
    2.9169    0.7624    0.0000 H   0  0  0  0  0  0  0  0  0  0  0  0
    2.7048   -1.2551    0.0000 H   0  0  0  0  0  0  0  0  0  0  0  0
    3.6314   -0.7202    0.0000 H   0  0  0  0  0  0  0  0  0  0  0  0
    3.4194    1.2974    0.0000 H   0  0  0  0  0  0  0  0  0  0  0  0
    4.3461    0.7624    0.0000 H   0  0  0  0  0  0  0  0  0  0  0  0
   -5.2804    0.2999    0.0000 H   0  0  0  0  0  0  0  0  0  0  0  0
    3.3224   -1.4787    0.0000 H   0  0  0  0  0  0  0  0  0  0  0  0
  1  2  1  0  0  0  0
  1 13  1  0  0  0  0
  1 16  1  0  0  0  0
  1 17  1  0  0  0  0
  2  3  1  0  0  0  0
  2 18  1  0  0  0  0
  2 19  1  0  0  0  0
  3  4  1  0  0  0  0
  3 20  1  0  0  0  0
  3 21  1  0  0  0  0
  4  5  1  0  0  0  0
  4 22  1  0  0  0  0
  4 23  1  0  0  0  0
  5  6  1  0  0  0  0
  5 24  1  0  0  0  0
  5 25  1  0  0  0  0
  6  7  1  0  0  0  0
  6 26  1  0  0  0  0
  6 27  1  0  0  0  0
  7  8  1  0  0  0  0
  7 28  1  0  0  0  0
  7 29  1  0  0  0  0
  8  9  1  0  0  0  0
  8 30  1  0  0  0  0
  8 31  1  0  0  0  0
  9 10  1  0  0  0  0
  9 32  1  0  0  0  0
  9 33  1  0  0  0  0
 10 11  1  0  0  0  0
 10 34  1  0  0  0  0
 10 35  1  0  0  0  0
 11 12  1  0  0  0  0
 11 36  1  0  0  0  0
 11 37  1  0  0  0  0
 12 14  2  0  0  0  0
 12 15  1  0  0  0  0
 13 38  1  0  0  0  0
 15 39  1  0  0  0  0
M  END
>  <DRUGBANK_ID>
DB03704

>  <SECONDARY_ACCESSION_NUMBERS>
EXPT00021

>  <COMMON_NAME>
12-Hydroxydodecanoic Acid

>  <CAS_NUMBER>
505-95-3

>  <UNII>
SUH3LR2K9D

$$$$
