1016
 OpenBabel10282417072D

 61 63  0  0  0  0  0  0  0  0999 V2000
    5.2224   -5.5689    0.0000 Cl  0  0  0  0  0  0  0  0  0  0  0  0
    5.2224    1.8563    0.0000 S   0  0  0  0  0  0  0  0  0  0  0  0
    6.6515    2.6813    0.0000 O   0  0  0  0  0  0  0  0  0  0  0  0
    4.3974    1.8563    0.0000 O   0  0  0  0  0  0  0  0  0  0  0  0
    6.0475    1.8563    0.0000 O   0  0  0  0  0  0  0  0  0  0  0  0
    3.0791   -2.6813    0.0000 O   0  0  0  0  0  0  0  0  0  0  0  0
    2.3645   -3.9188    0.0000 O   0  0  0  0  0  0  0  0  0  0  0  0
    5.9370    3.9188    0.0000 N   0  0  0  0  0  0  0  0  0  0  0  0
    5.2224    2.6813    0.0000 N   0  0  0  0  0  0  0  0  0  0  0  0
    4.5080   -2.6813    0.0000 N   0  0  0  0  0  0  0  0  0  0  0  0
    6.6515    4.3313    0.0000 C   0  0  0  0  0  0  0  0  0  0  0  0
    7.3659    3.9188    0.0000 C   0  0  0  0  0  0  0  0  0  0  0  0
    6.6515    5.1564    0.0000 C   0  0  0  0  0  0  0  0  0  0  0  0
    8.0804    4.3313    0.0000 C   0  0  0  0  0  0  0  0  0  0  0  0
    7.3659    5.5689    0.0000 C   0  0  0  0  0  0  0  0  0  0  0  0
    8.0804    5.1564    0.0000 C   0  0  0  0  0  0  0  0  0  0  0  0
    5.9370    3.0938    0.0000 C   0  0  0  0  0  0  0  0  0  0  0  0
    5.2224    1.0313    0.0000 C   0  0  0  0  0  0  0  0  0  0  0  0
    5.2224   -0.6188    0.0000 C   0  0  0  0  0  0  0  0  0  0  0  0
    5.2224   -1.4438    0.0000 C   0  0  0  0  0  0  0  0  0  0  0  0
    4.5080    0.6188    0.0000 C   0  0  0  0  0  0  0  0  0  0  0  0
    5.9370    0.6188    0.0000 C   0  0  0  0  0  0  0  0  0  0  0  0
    4.5080   -0.2063    0.0000 C   0  0  0  0  0  0  0  0  0  0  0  0
    5.9370   -0.2063    0.0000 C   0  0  0  0  0  0  0  0  0  0  0  0
    4.5080   -1.8563    0.0000 C   0  0  0  0  0  0  0  0  0  0  0  0
    3.7935   -3.0938    0.0000 C   0  0  0  0  0  0  0  0  0  0  0  0
    3.7935   -3.9188    0.0000 C   0  0  0  0  0  0  0  0  0  0  0  0
    3.0791   -4.3313    0.0000 C   0  0  0  0  0  0  0  0  0  0  0  0
    4.5080   -4.3313    0.0000 C   0  0  0  0  0  0  0  0  0  0  0  0
    3.0791   -5.1564    0.0000 C   0  0  0  0  0  0  0  0  0  0  0  0
    4.5080   -5.1564    0.0000 C   0  0  0  0  0  0  0  0  0  0  0  0
    3.7935   -5.5689    0.0000 C   0  0  0  0  0  0  0  0  0  0  0  0
    1.6500   -4.3313    0.0000 C   0  0  0  0  0  0  0  0  0  0  0  0
    5.0844    4.4111    0.0000 H   0  0  0  0  0  0  0  0  0  0  0  0
    4.3698    3.1736    0.0000 H   0  0  0  0  0  0  0  0  0  0  0  0
    5.3606   -3.1736    0.0000 H   0  0  0  0  0  0  0  0  0  0  0  0
    7.5782    4.8663    0.0000 H   0  0  0  0  0  0  0  0  0  0  0  0
    7.3659    2.8488    0.0000 H   0  0  0  0  0  0  0  0  0  0  0  0
    8.2925    3.3838    0.0000 H   0  0  0  0  0  0  0  0  0  0  0  0
    5.7248    5.6914    0.0000 H   0  0  0  0  0  0  0  0  0  0  0  0
    6.6515    6.2264    0.0000 H   0  0  0  0  0  0  0  0  0  0  0  0
    9.0070    3.7963    0.0000 H   0  0  0  0  0  0  0  0  0  0  0  0
    9.0070    4.8663    0.0000 H   0  0  0  0  0  0  0  0  0  0  0  0
    7.3659    6.6389    0.0000 H   0  0  0  0  0  0  0  0  0  0  0  0
    8.2925    6.1039    0.0000 H   0  0  0  0  0  0  0  0  0  0  0  0
    9.0070    5.6914    0.0000 H   0  0  0  0  0  0  0  0  0  0  0  0
    8.0804    6.2264    0.0000 H   0  0  0  0  0  0  0  0  0  0  0  0
    6.1491   -1.9788    0.0000 H   0  0  0  0  0  0  0  0  0  0  0  0
    5.2224   -2.5138    0.0000 H   0  0  0  0  0  0  0  0  0  0  0  0
    3.6143    1.1348    0.0000 H   0  0  0  0  0  0  0  0  0  0  0  0
    6.8307    1.1348    0.0000 H   0  0  0  0  0  0  0  0  0  0  0  0
    3.6143   -0.7223    0.0000 H   0  0  0  0  0  0  0  0  0  0  0  0
    6.8307   -0.7223    0.0000 H   0  0  0  0  0  0  0  0  0  0  0  0
    3.5813   -1.3213    0.0000 H   0  0  0  0  0  0  0  0  0  0  0  0
    4.5080   -0.7863    0.0000 H   0  0  0  0  0  0  0  0  0  0  0  0
    5.4017   -3.8153    0.0000 H   0  0  0  0  0  0  0  0  0  0  0  0
    2.1854   -5.6724    0.0000 H   0  0  0  0  0  0  0  0  0  0  0  0
    3.7935   -6.6009    0.0000 H   0  0  0  0  0  0  0  0  0  0  0  0
    0.7234   -3.7963    0.0000 H   0  0  0  0  0  0  0  0  0  0  0  0
    1.6500   -5.4013    0.0000 H   0  0  0  0  0  0  0  0  0  0  0  0
    0.7233   -4.8663    0.0000 H   0  0  0  0  0  0  0  0  0  0  0  0
  1 31  1  0  0  0  0
  2  4  2  0  0  0  0
  2  5  2  0  0  0  0
  2  9  1  0  0  0  0
  2 18  1  0  0  0  0
  3 17  2  0  0  0  0
  6 26  2  0  0  0  0
  7 28  1  0  0  0  0
  7 33  1  0  0  0  0
  8 11  1  0  0  0  0
  8 17  1  0  0  0  0
  8 34  1  0  0  0  0
  9 17  1  0  0  0  0
  9 35  1  0  0  0  0
 10 25  1  0  0  0  0
 10 26  1  0  0  0  0
 10 36  1  0  0  0  0
 11 12  1  0  0  0  0
 11 13  1  0  0  0  0
 11 37  1  0  0  0  0
 12 14  1  0  0  0  0
 12 38  1  0  0  0  0
 12 39  1  0  0  0  0
 13 15  1  0  0  0  0
 13 40  1  0  0  0  0
 13 41  1  0  0  0  0
 14 16  1  0  0  0  0
 14 42  1  0  0  0  0
 14 43  1  0  0  0  0
 15 16  1  0  0  0  0
 15 44  1  0  0  0  0
 15 45  1  0  0  0  0
 16 46  1  0  0  0  0
 16 47  1  0  0  0  0
 18 21  2  0  0  0  0
 18 22  1  0  0  0  0
 19 20  1  0  0  0  0
 19 23  2  0  0  0  0
 19 24  1  0  0  0  0
 20 25  1  0  0  0  0
 20 48  1  0  0  0  0
 20 49  1  0  0  0  0
 21 23  1  0  0  0  0
 21 50  1  0  0  0  0
 22 24  2  0  0  0  0
 22 51  1  0  0  0  0
 23 52  1  0  0  0  0
 24 53  1  0  0  0  0
 25 54  1  0  0  0  0
 25 55  1  0  0  0  0
 26 27  1  0  0  0  0
 27 28  2  0  0  0  0
 27 29  1  0  0  0  0
 28 30  1  0  0  0  0
 29 31  2  0  0  0  0
 29 56  1  0  0  0  0
 30 32  2  0  0  0  0
 30 57  1  0  0  0  0
 31 32  1  0  0  0  0
 32 58  1  0  0  0  0
 33 59  1  0  0  0  0
 33 60  1  0  0  0  0
 33 61  1  0  0  0  0
M  END
>  <DRUGBANK_ID>
DB01016

>  <SECONDARY_ACCESSION_NUMBERS>
APRD00233

>  <COMMON_NAME>
Glyburide

>  <CAS_NUMBER>
10238-21-8

>  <UNII>
SX6K58TVWC

>  <SYNONYMS>
1-((p-(2-(5-chloro-o-anisamido)ethyl)phenyl)sulfonyl)-3-cyclohexylurea; 1-(p-(2-(5-chloro-2-methoxybenzamido)ethyl)benzenesulfonyl)-3-cyclohexylurea; 5-chloro-N-(2-(4-((((cyclohexylamino)carbonyl)amino)sulfonyl)phenyl)ethyl)-2-methoxybenzamide; Glibenclamida; Glibenclamide; Glibenclamidum; Glyburide

$$$$
