
 OpenBabel10282417072D

 23 24  0  0  1  0  0  0  0  0999 V2000
    0.0771    0.5898    0.0000 C   0  0  0  0  0  0  0  0  0  0  0  0
    0.4987   -0.1170    0.0000 N   0  0  0  0  0  0  0  0  0  0  0  0
    1.0579   -0.5558    0.0000 C   0  0  1  0  0  0  0  0  0  0  0  0
    0.7382   -1.2627    0.0000 C   0  0  0  0  0  0  0  0  0  0  0  0
    0.1194   -1.6387    0.0000 C   0  0  0  0  0  0  0  0  0  0  0  0
    0.6380   -0.9281    0.0000 C   0  0  2  0  0  0  0  0  0  0  0  0
    1.6074   -0.9281    0.0000 C   0  0  0  0  0  0  0  0  0  0  0  0
    2.1223   -1.3558    0.0000 C   0  0  0  0  0  0  0  0  0  0  0  0
    2.5331   -2.0690    0.0000 O   0  0  0  0  0  0  0  0  0  0  0  0
    1.9845   -0.5404    0.0000 C   0  0  0  0  0  0  0  0  0  0  0  0
    0.5989    1.5240    0.0000 H   0  0  0  0  0  0  0  0  0  0  0  0
   -0.9928    0.5746    0.0000 H   0  0  0  0  0  0  0  0  0  0  0  0
   -0.4710    1.5087    0.0000 H   0  0  0  0  0  0  0  0  0  0  0  0
    0.0187   -0.8105    0.0000 H   0  0  0  0  0  0  0  0  0  0  0  0
    1.5393   -1.9721    0.0000 H   0  0  0  0  0  0  0  0  0  0  0  0
    0.6427   -2.3284    0.0000 H   0  0  0  0  0  0  0  0  0  0  0  0
   -0.6685   -2.3627    0.0000 H   0  0  0  0  0  0  0  0  0  0  0  0
   -0.6786   -0.9259    0.0000 H   0  0  0  0  0  0  0  0  0  0  0  0
   -0.4038   -0.6840    0.0000 H   0  0  0  0  0  0  0  0  0  0  0  0
    1.9709    0.0783    0.0000 H   0  0  0  0  0  0  0  0  0  0  0  0
    2.6399   -0.6473    0.0000 H   0  0  0  0  0  0  0  0  0  0  0  0
    2.6684    0.2825    0.0000 H   0  0  0  0  0  0  0  0  0  0  0  0
    1.5220    0.4245    0.0000 H   0  0  0  0  0  0  0  0  0  0  0  0
  1  2  1  0  0  0  0
  1 11  1  0  0  0  0
  1 12  1  0  0  0  0
  1 13  1  0  0  0  0
  3  2  1  0  0  0  0
  3  4  1  0  0  0  0
  3 10  1  0  0  0  0
  3 14  1  1  0  0  0
  4  5  1  0  0  0  0
  4 15  1  0  0  0  0
  4 16  1  0  0  0  0
  5  6  1  0  0  0  0
  5 17  1  0  0  0  0
  5 18  1  0  0  0  0
  6  2  1  0  0  0  0
  6  7  1  0  0  0  0
  6 19  1  6  0  0  0
  7  8  1  0  0  0  0
  7 20  1  0  0  0  0
  7 21  1  0  0  0  0
  8  9  2  0  0  0  0
  8 10  1  0  0  0  0
 10 22  1  0  0  0  0
 10 23  1  0  0  0  0
M  END
>  <DRUGBANK_ID>
DB01874

>  <SECONDARY_ACCESSION_NUMBERS>
EXPT03077

>  <COMMON_NAME>
Tropinone

>  <CAS_NUMBER>
532-24-1

>  <UNII>
2A8CC8KA5F

$$$$
