
 OpenBabel10282417072D

 53 54  0  0  0  0  0  0  0  0999 V2000
   -2.5559    4.5529    0.0000 C   0  0  0  0  0  0  0  0  0  0  0  0
   -1.8414    4.1404    0.0000 C   0  0  0  0  0  0  0  0  0  0  0  0
   -1.8414    3.3154    0.0000 N   0  3  0  0  0  0  0  0  0  0  0  0
   -2.6664    3.3154    0.0000 C   0  0  0  0  0  0  0  0  0  0  0  0
   -1.0164    3.3154    0.0000 C   0  0  0  0  0  0  0  0  0  0  0  0
   -0.6039    2.6010    0.0000 C   0  0  0  0  0  0  0  0  0  0  0  0
   -1.8414    2.4904    0.0000 C   0  0  0  0  0  0  0  0  0  0  0  0
   -1.1270    2.0779    0.0000 C   0  0  0  0  0  0  0  0  0  0  0  0
   -1.1270    1.2529    0.0000 O   0  0  0  0  0  0  0  0  0  0  0  0
   -0.4125    0.8404    0.0000 C   0  0  0  0  0  0  0  0  0  0  0  0
    0.3020    1.2529    0.0000 O   0  0  0  0  0  0  0  0  0  0  0  0
   -0.4125    0.0154    0.0000 C   0  0  3  0  0  0  0  0  0  0  0  0
   -0.4125   -0.8096    0.0000 C   0  0  0  0  0  0  0  0  0  0  0  0
    0.2549   -1.2945    0.0000 C   0  0  0  0  0  0  0  0  0  0  0  0
   -0.0000   -2.0791    0.0000 C   0  0  0  0  0  0  0  0  0  0  0  0
   -0.8250   -2.0791    0.0000 C   0  0  0  0  0  0  0  0  0  0  0  0
   -1.0799   -1.2945    0.0000 S   0  0  0  0  0  0  0  0  0  0  0  0
   -1.2375    0.0154    0.0000 C   0  0  0  0  0  0  0  0  0  0  0  0
   -1.7224   -0.6520    0.0000 C   0  0  0  0  0  0  0  0  0  0  0  0
   -2.5070   -0.3971    0.0000 C   0  0  0  0  0  0  0  0  0  0  0  0
   -2.5070    0.4279    0.0000 C   0  0  0  0  0  0  0  0  0  0  0  0
   -1.7224    0.6829    0.0000 C   0  0  0  0  0  0  0  0  0  0  0  0
    0.4125    0.0154    0.0000 O   0  0  0  0  0  0  0  0  0  0  0  0
   -2.5559    5.6229    0.0000 H   0  0  0  0  0  0  0  0  0  0  0  0
   -3.4825    4.0179    0.0000 H   0  0  0  0  0  0  0  0  0  0  0  0
   -3.4826    5.0879    0.0000 H   0  0  0  0  0  0  0  0  0  0  0  0
   -0.9148    4.6754    0.0000 H   0  0  0  0  0  0  0  0  0  0  0  0
   -0.9148    3.6054    0.0000 H   0  0  0  0  0  0  0  0  0  0  0  0
   -3.2014    4.2420    0.0000 H   0  0  0  0  0  0  0  0  0  0  0  0
   -3.2014    2.3888    0.0000 H   0  0  0  0  0  0  0  0  0  0  0  0
   -3.7364    3.3154    0.0000 H   0  0  0  0  0  0  0  0  0  0  0  0
   -0.4814    4.2421    0.0000 H   0  0  0  0  0  0  0  0  0  0  0  0
    0.0536    3.3154    0.0000 H   0  0  0  0  0  0  0  0  0  0  0  0
   -1.1389    1.6743    0.0000 H   0  0  0  0  0  0  0  0  0  0  0  0
    0.4661    2.6010    0.0000 H   0  0  0  0  0  0  0  0  0  0  0  0
   -0.0689    1.6744    0.0000 H   0  0  0  0  0  0  0  0  0  0  0  0
   -2.7681    1.9554    0.0000 H   0  0  0  0  0  0  0  0  0  0  0  0
   -1.8414    1.4204    0.0000 H   0  0  0  0  0  0  0  0  0  0  0  0
   -0.2003    2.6129    0.0000 H   0  0  0  0  0  0  0  0  0  0  0  0
   -0.2004    1.5429    0.0000 H   0  0  0  0  0  0  0  0  0  0  0  0
    1.2364   -0.9756    0.0000 H   0  0  0  0  0  0  0  0  0  0  0  0
    0.6066   -2.9140    0.0000 H   0  0  0  0  0  0  0  0  0  0  0  0
   -1.4316   -2.9140    0.0000 H   0  0  0  0  0  0  0  0  0  0  0  0
   -2.3075    0.0154    0.0000 H   0  0  0  0  0  0  0  0  0  0  0  0
   -1.3917   -1.6696    0.0000 H   0  0  0  0  0  0  0  0  0  0  0  0
   -2.4790   -1.4086    0.0000 H   0  0  0  0  0  0  0  0  0  0  0  0
   -3.3726   -1.0260    0.0000 H   0  0  0  0  0  0  0  0  0  0  0  0
   -3.4604    0.0887    0.0000 H   0  0  0  0  0  0  0  0  0  0  0  0
   -3.3727    1.0568    0.0000 H   0  0  0  0  0  0  0  0  0  0  0  0
   -2.3397    1.4847    0.0000 H   0  0  0  0  0  0  0  0  0  0  0  0
   -1.3918    1.7005    0.0000 H   0  0  0  0  0  0  0  0  0  0  0  0
   -0.6656    0.8503    0.0000 H   0  0  0  0  0  0  0  0  0  0  0  0
    0.8975   -0.8246    0.0000 H   0  0  0  0  0  0  0  0  0  0  0  0
  1  2  1  0  0  0  0
  1 24  1  0  0  0  0
  1 25  1  0  0  0  0
  1 26  1  0  0  0  0
  2  3  1  0  0  0  0
  2 27  1  0  0  0  0
  2 28  1  0  0  0  0
  3  4  1  0  0  0  0
  3  5  1  0  0  0  0
  3  7  1  0  0  0  0
  4 29  1  0  0  0  0
  4 30  1  0  0  0  0
  4 31  1  0  0  0  0
  5  6  1  0  0  0  0
  5 32  1  0  0  0  0
  5 33  1  0  0  0  0
  6 34  1  0  0  0  0
  6 35  1  0  0  0  0
  6 36  1  0  0  0  0
  7  8  1  0  0  0  0
  7 37  1  0  0  0  0
  7 38  1  0  0  0  0
  8  9  1  0  0  0  0
  8 39  1  0  0  0  0
  8 40  1  0  0  0  0
  9 10  1  0  0  0  0
 10 11  2  0  0  0  0
 10 12  1  0  0  0  0
 12 13  1  0  0  0  0
 12 18  1  0  0  0  0
 12 23  1  0  0  0  0
 13 14  2  0  0  0  0
 13 17  1  0  0  0  0
 14 15  1  0  0  0  0
 14 41  1  0  0  0  0
 15 16  2  0  0  0  0
 15 42  1  0  0  0  0
 16 17  1  0  0  0  0
 16 43  1  0  0  0  0
 18 19  1  0  0  0  0
 18 22  1  0  0  0  0
 18 44  1  0  0  0  0
 19 20  1  0  0  0  0
 19 45  1  0  0  0  0
 19 46  1  0  0  0  0
 20 21  1  0  0  0  0
 20 47  1  0  0  0  0
 20 48  1  0  0  0  0
 21 22  1  0  0  0  0
 21 49  1  0  0  0  0
 21 50  1  0  0  0  0
 22 51  1  0  0  0  0
 22 52  1  0  0  0  0
 23 53  1  0  0  0  0
M  CHG  1   3   1
M  END
>  <DRUGBANK_ID>
DB13695

>  <COMMON_NAME>
Penthienate

>  <CAS_NUMBER>
22064-27-3

>  <UNII>
6LCT38OJV9

$$$$
