
 OpenBabel10282417072D

 13 14  0  0  0  0  0  0  0  0999 V2000
   -1.7030   -1.2377    0.0000 Br  0  0  0  0  0  0  0  0  0  0  0  0
   -0.2737    1.2377    0.0000 Cl  0  0  0  0  0  0  0  0  0  0  0  0
    1.2215    0.2513    0.0000 N   0  0  0  0  0  0  0  0  0  0  0  0
    1.2215   -1.0766    0.0000 N   0  0  0  0  0  0  0  0  0  0  0  0
   -0.2737   -1.2377    0.0000 N   0  0  0  0  0  0  0  0  0  0  0  0
   -0.9885    0.0000    0.0000 N   0  0  0  0  0  0  0  0  0  0  0  0
    0.4407    0.0000    0.0000 C   0  0  0  0  0  0  0  0  0  0  0  0
    0.4407   -0.8251    0.0000 C   0  0  0  0  0  0  0  0  0  0  0  0
   -0.2737    0.4126    0.0000 C   0  0  0  0  0  0  0  0  0  0  0  0
    1.7030   -0.4126    0.0000 C   0  0  0  0  0  0  0  0  0  0  0  0
   -0.9885   -0.8251    0.0000 C   0  0  0  0  0  0  0  0  0  0  0  0
    1.3804    0.7377    0.0000 H   0  0  0  0  0  0  0  0  0  0  0  0
    2.7350   -0.4126    0.0000 H   0  0  0  0  0  0  0  0  0  0  0  0
  1 11  1  0  0  0  0
  2  9  1  0  0  0  0
  3  7  1  0  0  0  0
  3 10  1  0  0  0  0
  3 12  1  0  0  0  0
  4  8  1  0  0  0  0
  4 10  2  0  0  0  0
  5  8  1  0  0  0  0
  5 11  2  0  0  0  0
  6  9  2  0  0  0  0
  6 11  1  0  0  0  0
  7  8  2  0  0  0  0
  7  9  1  0  0  0  0
 10 13  1  0  0  0  0
M  END
>  <DRUGBANK_ID>
DB01706

>  <SECONDARY_ACCESSION_NUMBERS>
EXPT00642

>  <COMMON_NAME>
2-Bromo-6-chloro-purine

>  <CAS_NUMBER>
500797-85-3

>  <SYNONYMS>
2-Bromo-6-chloro-7H-purine

$$$$
