GAS
 OpenBabel10282417072D

 49 51  0  0  0  0  0  0  0  0999 V2000
    1.5574   -0.7211    0.0000 C   0  0  0  0  0  0  0  0  0  0  0  0
    2.2718   -1.1336    0.0000 C   0  0  0  0  0  0  0  0  0  0  0  0
    2.2718   -1.9586    0.0000 C   0  0  0  0  0  0  0  0  0  0  0  0
    1.5574   -2.3711    0.0000 C   0  0  0  0  0  0  0  0  0  0  0  0
    0.8429   -1.9586    0.0000 C   0  0  0  0  0  0  0  0  0  0  0  0
    0.8429   -1.1336    0.0000 C   0  0  0  0  0  0  0  0  0  0  0  0
    0.1284   -0.7211    0.0000 C   0  0  0  0  0  0  0  0  0  0  0  0
    0.1284    0.1039    0.0000 N   0  0  0  0  0  0  0  0  0  0  0  0
   -0.5860   -1.1336    0.0000 C   0  0  0  0  0  0  0  0  0  0  0  0
   -0.5860   -1.9586    0.0000 C   0  0  0  0  0  0  0  0  0  0  0  0
   -1.3005   -2.3711    0.0000 C   0  0  0  0  0  0  0  0  0  0  0  0
   -2.0150   -1.9586    0.0000 C   0  0  0  0  0  0  0  0  0  0  0  0
   -2.0150   -1.1336    0.0000 C   0  0  0  0  0  0  0  0  0  0  0  0
   -1.3005   -0.7211    0.0000 C   0  0  0  0  0  0  0  0  0  0  0  0
   -0.5860    0.5164    0.0000 C   0  0  0  0  0  0  0  0  0  0  0  0
   -1.3005    0.1039    0.0000 N   0  0  0  0  0  0  0  0  0  0  0  0
   -2.0150    0.5164    0.0000 C   0  0  0  0  0  0  0  0  0  0  0  0
   -2.7295    0.1039    0.0000 C   0  0  0  0  0  0  0  0  0  0  0  0
   -2.7295   -0.7211    0.0000 O   0  0  0  0  0  0  0  0  0  0  0  0
   -3.4439    0.5164    0.0000 O   0  0  0  0  0  0  0  0  0  0  0  0
   -0.5860    1.3414    0.0000 N   0  0  0  0  0  0  0  0  0  0  0  0
    0.1284    1.7539    0.0000 C   0  0  0  0  0  0  0  0  0  0  0  0
    0.1284    2.5789    0.0000 C   0  0  0  0  0  0  0  0  0  0  0  0
    0.8429    2.9914    0.0000 C   0  0  0  0  0  0  0  0  0  0  0  0
    1.5574    2.5789    0.0000 C   0  0  0  0  0  0  0  0  0  0  0  0
    2.2718    2.9914    0.0000 C   0  0  0  0  0  0  0  0  0  0  0  0
    2.9863    3.4039    0.0000 N   0  0  0  0  0  0  0  0  0  0  0  0
    1.5574    1.7539    0.0000 C   0  0  0  0  0  0  0  0  0  0  0  0
    0.8429    1.3414    0.0000 C   0  0  0  0  0  0  0  0  0  0  0  0
    1.5574    0.3109    0.0000 H   0  0  0  0  0  0  0  0  0  0  0  0
    3.1655   -0.6176    0.0000 H   0  0  0  0  0  0  0  0  0  0  0  0
    3.1655   -2.4746    0.0000 H   0  0  0  0  0  0  0  0  0  0  0  0
    1.5574   -3.4031    0.0000 H   0  0  0  0  0  0  0  0  0  0  0  0
   -0.0508   -2.4746    0.0000 H   0  0  0  0  0  0  0  0  0  0  0  0
   -0.7983   -0.1861    0.0000 H   0  0  0  0  0  0  0  0  0  0  0  0
    0.9810    0.5961    0.0000 H   0  0  0  0  0  0  0  0  0  0  0  0
    0.3077   -2.4746    0.0000 H   0  0  0  0  0  0  0  0  0  0  0  0
   -1.3005   -3.4031    0.0000 H   0  0  0  0  0  0  0  0  0  0  0  0
   -2.9087   -2.4746    0.0000 H   0  0  0  0  0  0  0  0  0  0  0  0
   -2.9087   -0.6176    0.0000 H   0  0  0  0  0  0  0  0  0  0  0  0
   -1.3005    0.3109    0.0000 H   0  0  0  0  0  0  0  0  0  0  0  0
   -2.0150    1.5864    0.0000 H   0  0  0  0  0  0  0  0  0  0  0  0
   -2.9416    1.0514    0.0000 H   0  0  0  0  0  0  0  0  0  0  0  0
   -3.4439    1.4534    0.0000 H   0  0  0  0  0  0  0  0  0  0  0  0
   -1.4386    1.8336    0.0000 H   0  0  0  0  0  0  0  0  0  0  0  0
   -0.7653    3.0949    0.0000 H   0  0  0  0  0  0  0  0  0  0  0  0
    0.8429    4.0234    0.0000 H   0  0  0  0  0  0  0  0  0  0  0  0
    2.4511    1.2379    0.0000 H   0  0  0  0  0  0  0  0  0  0  0  0
    0.8429    0.3094    0.0000 H   0  0  0  0  0  0  0  0  0  0  0  0
  1  2  1  0  0  0  0
  1  6  2  0  0  0  0
  1 30  1  0  0  0  0
  2  3  2  0  0  0  0
  2 31  1  0  0  0  0
  3  4  1  0  0  0  0
  3 32  1  0  0  0  0
  4  5  2  0  0  0  0
  4 33  1  0  0  0  0
  5  6  1  0  0  0  0
  5 34  1  0  0  0  0
  6  7  1  0  0  0  0
  7  8  1  0  0  0  0
  7  9  1  0  0  0  0
  7 35  1  0  0  0  0
  8 15  1  0  0  0  0
  8 36  1  0  0  0  0
  9 10  2  0  0  0  0
  9 14  1  0  0  0  0
 10 11  1  0  0  0  0
 10 37  1  0  0  0  0
 11 12  2  0  0  0  0
 11 38  1  0  0  0  0
 12 13  1  0  0  0  0
 12 39  1  0  0  0  0
 13 14  2  0  0  0  0
 13 40  1  0  0  0  0
 14 41  1  0  0  0  0
 15 16  2  0  0  0  0
 15 21  1  0  0  0  0
 16 17  1  0  0  0  0
 17 18  1  0  0  0  0
 17 42  1  0  0  0  0
 17 43  1  0  0  0  0
 18 19  2  0  0  0  0
 18 20  1  0  0  0  0
 20 44  1  0  0  0  0
 21 22  1  0  0  0  0
 21 45  1  0  0  0  0
 22 23  1  0  0  0  0
 22 29  2  0  0  0  0
 23 24  2  0  0  0  0
 23 46  1  0  0  0  0
 24 25  1  0  0  0  0
 24 47  1  0  0  0  0
 25 26  1  0  0  0  0
 25 28  2  0  0  0  0
 26 27  3  0  0  0  0
 28 29  1  0  0  0  0
 28 48  1  0  0  0  0
 29 49  1  0  0  0  0
M  END
>  <DRUGBANK_ID>
DB07816

>  <COMMON_NAME>
N-(P-CYANOPHENYL)-N'-DIPHENYLMETHYL-GUANIDINE-ACETIC ACID

>  <UNII>
MW7J9SU4JQ

$$$$
