
 OpenBabel10282417072D

 16 16  0  0  1  0  0  0  0  0999 V2000
   14.4136  -10.0946    0.0000 C   0  0  1  0  0  0  0  0  0  0  0  0
   13.7020  -10.5071    0.0000 N   0  0  0  0  0  0  0  0  0  0  0  0
   14.4136   -9.2696    0.0000 C   0  0  0  0  0  0  0  0  0  0  0  0
   15.1288  -10.5071    0.0000 C   0  0  0  0  0  0  0  0  0  0  0  0
   12.9944  -10.0946    0.0000 C   0  0  0  0  0  0  0  0  0  0  0  0
   12.9944   -9.2696    0.0000 C   0  0  0  0  0  0  0  0  0  0  0  0
   15.1251  -11.5508    0.0000 O   0  0  0  0  0  0  0  0  0  0  0  0
   15.8403  -10.0908    0.0000 O   0  0  0  0  0  0  0  0  0  0  0  0
   12.2791  -10.5034    0.0000 O   0  0  0  0  0  0  0  0  0  0  0  0
   14.4148  -11.1646    0.0000 H   0  0  0  0  0  0  0  0  0  0  0  0
   13.7008  -11.4916    0.0000 H   0  0  0  0  0  0  0  0  0  0  0  0
   15.1702   -8.5130    0.0000 H   0  0  0  0  0  0  0  0  0  0  0  0
   14.0041   -8.2810    0.0000 H   0  0  0  0  0  0  0  0  0  0  0  0
   12.2378   -8.5130    0.0000 H   0  0  0  0  0  0  0  0  0  0  0  0
   12.0058   -9.6791    0.0000 H   0  0  0  0  0  0  0  0  0  0  0  0
   14.3120  -12.0164    0.0000 H   0  0  0  0  0  0  0  0  0  0  0  0
  1  2  1  0  0  0  0
  1  3  1  0  0  0  0
  1  4  1  0  0  0  0
  1 10  1  6  0  0  0
  2  5  1  0  0  0  0
  2 11  1  0  0  0  0
  3  6  1  0  0  0  0
  3 12  1  0  0  0  0
  3 13  1  0  0  0  0
  4  7  1  0  0  0  0
  4  8  2  0  0  0  0
  5  9  2  0  0  0  0
  5  6  1  0  0  0  0
  6 14  1  0  0  0  0
  6 15  1  0  0  0  0
  7 16  1  0  0  0  0
M  END
>  <DRUGBANK_ID>
DB03088

>  <SECONDARY_ACCESSION_NUMBERS>
EXPT00247

>  <COMMON_NAME>
Pidolic acid

>  <CAS_NUMBER>
98-79-3

>  <UNII>
SZB83O1W42

>  <SYNONYMS>
(−)-2-pyrrolidone-5-carboxylic acid; (S)-(−)-2-pyrrolidone-5-carboxylic acid; (S)-pyroglutamic acid; 5-L-oxoproline; 5-oxo-2-pyrrolidinecarboxylic acid; 5-oxo-L-proline; 5-Pyrrolidone-2-carboxylic acid; Glutimic acid; L-5-Pyrrolidone-2-carboxylic acid; L-pyroglutamic acid; L-pyrrolidone carboxylic acid; PCA; Pidolic acid; Pyroglutamic acid

$$$$
