
 OpenBabel10282417072D

 68 73  0  0  0  0  0  0  0  0999 V2000
    3.9176   -0.8605    0.0000 C   0  0  0  0  0  0  0  0  0  0  0  0
   -3.4814   -2.7495    0.0000 C   0  0  0  0  0  0  0  0  0  0  0  0
    1.5133   -1.5549    0.0000 C   0  0  0  0  0  0  0  0  0  0  0  0
   -1.3666    2.7495    0.0000 C   0  0  0  0  0  0  0  0  0  0  0  0
   -0.3619   -2.3118    0.0000 C   0  0  0  0  0  0  0  0  0  0  0  0
    3.1668   -0.5779    0.0000 C   0  0  0  0  0  0  0  0  0  0  0  0
   -2.7957    0.4429    0.0000 C   0  0  0  0  0  0  0  0  0  0  0  0
   -2.9835   -0.3584    0.0000 C   0  0  0  0  0  0  0  0  0  0  0  0
    2.5467   -1.0868    0.0000 C   0  0  0  0  0  0  0  0  0  0  0  0
    0.1501    0.1720    0.0000 C   0  0  0  0  0  0  0  0  0  0  0  0
    0.4851   -0.4437    0.0000 C   0  0  0  0  0  0  0  0  0  0  0  0
   -0.2073    1.2519    0.0000 C   0  0  0  0  0  0  0  0  0  0  0  0
   -0.0128    2.0632    0.0000 C   0  0  0  0  0  0  0  0  0  0  0  0
   -1.5633    1.3776    0.0000 C   0  0  0  0  0  0  0  0  0  0  0  0
    0.8965    0.3657    0.0000 C   0  0  0  0  0  0  0  0  0  0  0  0
   -3.3186   -1.9639    0.0000 C   0  0  0  0  0  0  0  0  0  0  0  0
   -1.9941    0.6717    0.0000 C   0  0  0  0  0  0  0  0  0  0  0  0
   -2.3943   -0.9266    0.0000 C   0  0  0  0  0  0  0  0  0  0  0  0
    1.0452   -0.5216    0.0000 C   0  0  2  0  0  0  0  0  0  0  0  0
   -0.7300    1.3362    0.0000 C   0  0  2  0  0  0  0  0  0  0  0  0
   -1.3407    0.1548    0.0000 C   0  0  0  0  0  0  0  0  0  0  0  0
   -1.6249   -0.6382    0.0000 C   0  0  0  0  0  0  0  0  0  0  0  0
   -0.3695   -0.5432    0.0000 C   0  0  2  0  0  0  0  0  0  0  0  0
    1.7959   -0.8041    0.0000 C   0  0  1  0  0  0  0  0  0  0  0  0
    0.1473    0.8799    0.0000 C   0  0  1  0  0  0  0  0  0  0  0  0
   -0.5125    0.3739    0.0000 C   0  0  2  0  0  0  0  0  0  0  0  0
    0.3289   -1.1064    0.0000 C   0  0  1  0  0  0  0  0  0  0  0  0
   -0.8105    2.1713    0.0000 N   0  0  0  0  0  0  0  0  0  0  0  0
   -3.9176   -1.4303    0.0000 O   0  0  0  0  0  0  0  0  0  0  0  0
    2.0785   -0.0534    0.0000 O   0  0  0  0  0  0  0  0  0  0  0  0
    0.3315   -1.9086    0.0000 O   0  0  0  0  0  0  0  0  0  0  0  0
   -2.5570   -1.7121    0.0000 O   0  0  0  0  0  0  0  0  0  0  0  0
   -0.9586   -1.1116    0.0000 O   0  0  0  0  0  0  0  0  0  0  0  0
    1.1749   -1.3132    0.0000 H   0  0  0  0  0  0  0  0  0  0  0  0
   -0.9398    0.5619    0.0000 H   0  0  0  0  0  0  0  0  0  0  0  0
   -1.1299   -0.2875    0.0000 H   0  0  0  0  0  0  0  0  0  0  0  0
    4.0919   -1.9162    0.0000 H   0  0  0  0  0  0  0  0  0  0  0  0
    4.7447   -0.1817    0.0000 H   0  0  0  0  0  0  0  0  0  0  0  0
    4.9190   -1.2374    0.0000 H   0  0  0  0  0  0  0  0  0  0  0  0
   -4.4973   -3.0853    0.0000 H   0  0  0  0  0  0  0  0  0  0  0  0
   -2.6826   -3.4614    0.0000 H   0  0  0  0  0  0  0  0  0  0  0  0
   -3.6985   -3.7972    0.0000 H   0  0  0  0  0  0  0  0  0  0  0  0
    0.4576   -1.7292    0.0000 H   0  0  0  0  0  0  0  0  0  0  0  0
    2.1921   -2.3820    0.0000 H   0  0  0  0  0  0  0  0  0  0  0  0
    1.1364   -2.5563    0.0000 H   0  0  0  0  0  0  0  0  0  0  0  0
   -1.0696    3.7774    0.0000 H   0  0  0  0  0  0  0  0  0  0  0  0
   -2.4053    2.4927    0.0000 H   0  0  0  0  0  0  0  0  0  0  0  0
   -2.1083    3.5207    0.0000 H   0  0  0  0  0  0  0  0  0  0  0  0
   -1.2902   -1.7797    0.0000 H   0  0  0  0  0  0  0  0  0  0  0  0
   -0.3586   -3.3818    0.0000 H   0  0  0  0  0  0  0  0  0  0  0  0
   -1.2869   -2.8497    0.0000 H   0  0  0  0  0  0  0  0  0  0  0  0
    2.9925    0.4778    0.0000 H   0  0  0  0  0  0  0  0  0  0  0  0
    2.1654   -0.2010    0.0000 H   0  0  0  0  0  0  0  0  0  0  0  0
   -3.5427    1.1550    0.0000 H   0  0  0  0  0  0  0  0  0  0  0  0
   -3.9734   -0.6502    0.0000 H   0  0  0  0  0  0  0  0  0  0  0  0
    2.7209   -2.1425    0.0000 H   0  0  0  0  0  0  0  0  0  0  0  0
    1.7195   -1.7655    0.0000 H   0  0  0  0  0  0  0  0  0  0  0  0
   -0.8495   -0.0844    0.0000 H   0  0  0  0  0  0  0  0  0  0  0  0
    1.5079   -0.3064    0.0000 H   0  0  0  0  0  0  0  0  0  0  0  0
    0.8196    0.9511    0.0000 H   0  0  0  0  0  0  0  0  0  0  0  0
    0.2827    0.3007    0.0000 H   0  0  0  0  0  0  0  0  0  0  0  0
    0.8701    2.6677    0.0000 H   0  0  0  0  0  0  0  0  0  0  0  0
   -0.2597    3.1043    0.0000 H   0  0  0  0  0  0  0  0  0  0  0  0
   -2.0637    2.3234    0.0000 H   0  0  0  0  0  0  0  0  0  0  0  0
   -0.9887    2.2802    0.0000 H   0  0  0  0  0  0  0  0  0  0  0  0
    1.7987    0.9410    0.0000 H   0  0  0  0  0  0  0  0  0  0  0  0
    0.9146    1.4355    0.0000 H   0  0  0  0  0  0  0  0  0  0  0  0
    3.0356    0.1045    0.0000 H   0  0  0  0  0  0  0  0  0  0  0  0
  1 37  1  0  0  0  0
  1 38  1  0  0  0  0
  1 39  1  0  0  0  0
  2 40  1  0  0  0  0
  2 41  1  0  0  0  0
  2 42  1  0  0  0  0
  3 43  1  0  0  0  0
  3 44  1  0  0  0  0
  3 45  1  0  0  0  0
  4 46  1  0  0  0  0
  4 47  1  0  0  0  0
  4 48  1  0  0  0  0
  5 49  1  0  0  0  0
  5 50  1  0  0  0  0
  5 51  1  0  0  0  0
  6  1  1  0  0  0  0
  6 52  1  0  0  0  0
  6 53  1  0  0  0  0
  7 54  1  0  0  0  0
  8  7  2  0  0  0  0
  8 55  1  0  0  0  0
  9  6  1  0  0  0  0
  9 56  1  0  0  0  0
  9 57  1  0  0  0  0
 10 58  1  0  0  0  0
 11 10  2  0  0  0  0
 11 59  1  0  0  0  0
 12 60  1  0  0  0  0
 12 61  1  0  0  0  0
 13 12  1  0  0  0  0
 13 62  1  0  0  0  0
 13 63  1  0  0  0  0
 14 64  1  0  0  0  0
 14 65  1  0  0  0  0
 15 66  1  0  0  0  0
 15 67  1  0  0  0  0
 16  2  1  0  0  0  0
 17  7  1  0  0  0  0
 17 14  1  0  0  0  0
 18  8  1  0  0  0  0
 19 15  1  0  0  0  0
 19 24  1  0  0  0  0
 19 34  1  1  0  0  0
 20 14  1  0  0  0  0
 20 35  1  6  0  0  0
 21 17  2  0  0  0  0
 22 18  2  0  0  0  0
 22 21  1  0  0  0  0
 23 36  1  1  0  0  0
 24  3  1  0  0  0  0
 24  9  1  0  0  0  0
 24 30  1  1  0  0  0
 25 10  1  6  0  0  0
 25 15  1  0  0  0  0
 25 20  1  0  0  0  0
 26 12  1  0  0  0  0
 26 21  1  6  0  0  0
 26 23  1  0  0  0  0
 26 25  1  0  0  0  0
 27 11  1  0  0  0  0
 27 19  1  0  0  0  0
 27 23  1  0  0  0  0
 27 31  1  6  0  0  0
 28  4  1  0  0  0  0
 28 13  1  0  0  0  0
 28 20  1  0  0  0  0
 29 16  2  0  0  0  0
 30 68  1  0  0  0  0
 31  5  1  0  0  0  0
 32 16  1  0  0  0  0
 32 18  1  0  0  0  0
 33 22  1  0  0  0  0
 33 23  1  0  0  0  0
M  END
>  <DRUGBANK_ID>
DB01469

>  <COMMON_NAME>
Acetorphine

>  <CAS_NUMBER>
25333-77-1

>  <UNII>
2OGQ81529L

>  <SYNONYMS>
7alpha-etorphine 3-acetate; Acetorfina; Acetorphine; Acetylpropylorvinol

$$$$
