PR3
 OpenBabel10282417072D

 23 22  0  0  0  0  0  0  0  0999 V2000
   -1.9120    0.7722    0.0000 N   0  0  0  0  0  0  0  0  0  0  0  0
   -1.9120   -0.0529    0.0000 C   0  0  2  0  0  0  0  0  0  0  0  0
   -2.6266   -0.4654    0.0000 C   0  0  0  0  0  0  0  0  0  0  0  0
   -3.3410   -0.0529    0.0000 O   0  0  0  0  0  0  0  0  0  0  0  0
   -1.1975   -0.4654    0.0000 C   0  0  0  0  0  0  0  0  0  0  0  0
   -0.4830   -0.0529    0.0000 S   0  0  0  0  0  0  0  0  0  0  0  0
    0.2315   -0.4654    0.0000 S   0  0  0  0  0  0  0  0  0  0  0  0
    0.9461   -0.0529    0.0000 C   0  0  0  0  0  0  0  0  0  0  0  0
    1.6606   -0.4654    0.0000 C   0  0  0  0  0  0  0  0  0  0  0  0
    2.3751   -0.0529    0.0000 C   0  0  0  0  0  0  0  0  0  0  0  0
   -2.4178    0.2391    0.0000 H   0  0  0  0  0  0  0  0  0  0  0  0
   -1.0287    1.2822    0.0000 H   0  0  0  0  0  0  0  0  0  0  0  0
   -2.7953    1.2822    0.0000 H   0  0  0  0  0  0  0  0  0  0  0  0
   -2.6267   -1.4974    0.0000 H   0  0  0  0  0  0  0  0  0  0  0  0
   -1.1975   -1.5354    0.0000 H   0  0  0  0  0  0  0  0  0  0  0  0
   -0.2709   -1.0004    0.0000 H   0  0  0  0  0  0  0  0  0  0  0  0
    0.9461    1.0171    0.0000 H   0  0  0  0  0  0  0  0  0  0  0  0
    1.8728    0.4821    0.0000 H   0  0  0  0  0  0  0  0  0  0  0  0
    1.6606   -1.5354    0.0000 H   0  0  0  0  0  0  0  0  0  0  0  0
    2.5872   -1.0004    0.0000 H   0  0  0  0  0  0  0  0  0  0  0  0
    3.3017   -0.5879    0.0000 H   0  0  0  0  0  0  0  0  0  0  0  0
    2.3751    1.0171    0.0000 H   0  0  0  0  0  0  0  0  0  0  0  0
    3.3018    0.4821    0.0000 H   0  0  0  0  0  0  0  0  0  0  0  0
  1 12  1  0  0  0  0
  1 13  1  0  0  0  0
  2  1  1  0  0  0  0
  2  3  1  0  0  0  0
  2  5  1  0  0  0  0
  2 11  1  6  0  0  0
  3  4  2  0  0  0  0
  3 14  1  0  0  0  0
  5  6  1  0  0  0  0
  5 15  1  0  0  0  0
  5 16  1  0  0  0  0
  6  7  1  0  0  0  0
  7  8  1  0  0  0  0
  8  9  1  0  0  0  0
  8 17  1  0  0  0  0
  8 18  1  0  0  0  0
  9 10  1  0  0  0  0
  9 19  1  0  0  0  0
  9 20  1  0  0  0  0
 10 21  1  0  0  0  0
 10 22  1  0  0  0  0
 10 23  1  0  0  0  0
M  END
>  <DRUGBANK_ID>
DB03654

>  <SECONDARY_ACCESSION_NUMBERS>
EXPT02654

>  <COMMON_NAME>
S,S-Propylthiocysteine

$$$$
