
 OpenBabel10282417072D

 93 96  0  0  1  0  0  0  0  0999 V2000
   17.1582    4.2327    0.0000 O   0  0  0  0  0  0  0  0  0  0  0  0
   11.6718    0.6788    0.0000 O   0  0  0  0  0  0  0  0  0  0  0  0
   10.9622    1.9191    0.0000 O   0  0  0  0  0  0  0  0  0  0  0  0
   16.1212    2.3721    0.0000 C   0  0  2  0  0  0  0  0  0  0  0  0
   16.1212    3.1971    0.0000 C   0  0  2  0  0  0  0  0  0  0  0  0
   15.4068    1.9596    0.0000 C   0  0  1  0  0  0  0  0  0  0  0  0
   14.6922    2.3721    0.0000 C   0  0  2  0  0  0  0  0  0  0  0  0
   15.4068    3.6096    0.0000 C   0  0  0  0  0  0  0  0  0  0  0  0
   16.9019    2.1206    0.0000 C   0  0  0  0  0  0  0  0  0  0  0  0
   14.6922    3.1971    0.0000 C   0  0  0  0  0  0  0  0  0  0  0  0
   15.4200    1.1002    0.0000 C   0  0  0  0  0  0  0  0  0  0  0  0
   16.9019    3.4485    0.0000 C   0  0  0  0  0  0  0  0  0  0  0  0
   17.3833    2.7846    0.0000 C   0  0  0  0  0  0  0  0  0  0  0  0
   16.1212    4.0221    0.0000 C   0  0  0  0  0  0  0  0  0  0  0  0
   13.9414    1.9539    0.0000 C   0  0  0  0  0  0  0  0  0  0  0  0
   14.6791    0.6649    0.0000 C   0  0  0  0  0  0  0  0  0  0  0  0
   13.9348    1.0945    0.0000 C   0  0  0  0  0  0  0  0  0  0  0  0
   13.1768    2.4193    0.0000 C   0  0  0  0  0  0  0  0  0  0  0  0
   13.1631    0.6410    0.0000 C   0  0  0  0  0  0  0  0  0  0  0  0
   12.3948    1.9837    0.0000 C   0  0  0  0  0  0  0  0  0  0  0  0
   12.3879    1.0886    0.0000 C   0  0  0  0  0  0  0  0  0  0  0  0
   10.9589    1.0941    0.0000 C   0  0  0  0  0  0  0  0  0  0  0  0
   10.2429    0.6844    0.0000 C   0  0  0  0  0  0  0  0  0  0  0  0
    9.5300    1.0996    0.0000 C   0  0  0  0  0  0  0  0  0  0  0  0
    8.8139    0.6899    0.0000 C   0  0  0  0  0  0  0  0  0  0  0  0
    8.1010    1.1051    0.0000 C   0  0  0  0  0  0  0  0  0  0  0  0
    7.3850    0.6953    0.0000 C   0  0  0  0  0  0  0  0  0  0  0  0
    6.6721    1.1106    0.0000 C   0  0  0  0  0  0  0  0  0  0  0  0
    5.9560    0.7009    0.0000 C   0  0  0  0  0  0  0  0  0  0  0  0
    3.8046   -1.3534    0.0000 C   0  0  0  0  0  0  0  0  0  0  0  0
    3.0885   -1.7631    0.0000 C   0  0  0  0  0  0  0  0  0  0  0  0
    3.8078   -0.5284    0.0000 C   0  0  0  0  0  0  0  0  0  0  0  0
    3.0853   -2.5882    0.0000 C   0  0  0  0  0  0  0  0  0  0  0  0
    4.5238   -0.1186    0.0000 C   0  0  0  0  0  0  0  0  0  0  0  0
    5.2431    1.1162    0.0000 C   0  0  0  0  0  0  0  0  0  0  0  0
    2.3693   -2.9979    0.0000 C   0  0  0  0  0  0  0  0  0  0  0  0
    4.5270    0.7064    0.0000 C   0  0  0  0  0  0  0  0  0  0  0  0
    2.3661   -3.8229    0.0000 C   0  0  0  0  0  0  0  0  0  0  0  0
    1.6500   -4.2327    0.0000 C   0  0  0  0  0  0  0  0  0  0  0  0
   16.1910    1.7157    0.0000 H   0  0  0  0  0  0  0  0  0  0  0  0
   15.9808    1.6339    0.0000 H   0  0  0  0  0  0  0  0  0  0  0  0
   15.2638    2.7021    0.0000 H   0  0  0  0  0  0  0  0  0  0  0  0
   15.4069    4.6796    0.0000 H   0  0  0  0  0  0  0  0  0  0  0  0
   14.4802    4.1447    0.0000 H   0  0  0  0  0  0  0  0  0  0  0  0
   17.2343    1.1036    0.0000 H   0  0  0  0  0  0  0  0  0  0  0  0
   17.9590    1.9547    0.0000 H   0  0  0  0  0  0  0  0  0  0  0  0
   13.7656    3.7321    0.0000 H   0  0  0  0  0  0  0  0  0  0  0  0
   14.6923    4.2671    0.0000 H   0  0  0  0  0  0  0  0  0  0  0  0
   16.3527    0.5759    0.0000 H   0  0  0  0  0  0  0  0  0  0  0  0
   15.4302    0.0302    0.0000 H   0  0  0  0  0  0  0  0  0  0  0  0
   18.4533    2.7846    0.0000 H   0  0  0  0  0  0  0  0  0  0  0  0
   17.8695    3.7378    0.0000 H   0  0  0  0  0  0  0  0  0  0  0  0
   17.0478    4.5571    0.0000 H   0  0  0  0  0  0  0  0  0  0  0  0
   15.1946    4.5571    0.0000 H   0  0  0  0  0  0  0  0  0  0  0  0
   16.1212    5.0921    0.0000 H   0  0  0  0  0  0  0  0  0  0  0  0
   14.6832   -0.4051    0.0000 H   0  0  0  0  0  0  0  0  0  0  0  0
   13.7535    0.1281    0.0000 H   0  0  0  0  0  0  0  0  0  0  0  0
   13.1967    3.4511    0.0000 H   0  0  0  0  0  0  0  0  0  0  0  0
   13.1671   -0.3910    0.0000 H   0  0  0  0  0  0  0  0  0  0  0  0
   11.5071    2.5100    0.0000 H   0  0  0  0  0  0  0  0  0  0  0  0
   10.2388   -0.3856    0.0000 H   0  0  0  0  0  0  0  0  0  0  0  0
    9.3142    0.1529    0.0000 H   0  0  0  0  0  0  0  0  0  0  0  0
    9.5341    2.1696    0.0000 H   0  0  0  0  0  0  0  0  0  0  0  0
    8.6054    1.6382    0.0000 H   0  0  0  0  0  0  0  0  0  0  0  0
    8.8098   -0.3801    0.0000 H   0  0  0  0  0  0  0  0  0  0  0  0
    7.8852    0.1584    0.0000 H   0  0  0  0  0  0  0  0  0  0  0  0
    8.1050    2.1751    0.0000 H   0  0  0  0  0  0  0  0  0  0  0  0
    7.1764    1.6436    0.0000 H   0  0  0  0  0  0  0  0  0  0  0  0
    7.3809   -0.3747    0.0000 H   0  0  0  0  0  0  0  0  0  0  0  0
    6.4563    0.1639    0.0000 H   0  0  0  0  0  0  0  0  0  0  0  0
    6.6763    2.1806    0.0000 H   0  0  0  0  0  0  0  0  0  0  0  0
    5.7476    1.6492    0.0000 H   0  0  0  0  0  0  0  0  0  0  0  0
    5.9518   -0.3691    0.0000 H   0  0  0  0  0  0  0  0  0  0  0  0
    5.0273    0.1695    0.0000 H   0  0  0  0  0  0  0  0  0  0  0  0
    4.7292   -1.8920    0.0000 H   0  0  0  0  0  0  0  0  0  0  0  0
    4.7333   -0.8220    0.0000 H   0  0  0  0  0  0  0  0  0  0  0  0
    2.1639   -1.2245    0.0000 H   0  0  0  0  0  0  0  0  0  0  0  0
    2.1598   -2.2945    0.0000 H   0  0  0  0  0  0  0  0  0  0  0  0
    2.8832    0.0101    0.0000 H   0  0  0  0  0  0  0  0  0  0  0  0
    3.8119    0.5416    0.0000 H   0  0  0  0  0  0  0  0  0  0  0  0
    4.0099   -3.1268    0.0000 H   0  0  0  0  0  0  0  0  0  0  0  0
    3.0812   -3.6582    0.0000 H   0  0  0  0  0  0  0  0  0  0  0  0
    5.4484   -0.6571    0.0000 H   0  0  0  0  0  0  0  0  0  0  0  0
    5.4525    0.4128    0.0000 H   0  0  0  0  0  0  0  0  0  0  0  0
    5.2471    2.1482    0.0000 H   0  0  0  0  0  0  0  0  0  0  0  0
    1.4447   -2.4593    0.0000 H   0  0  0  0  0  0  0  0  0  0  0  0
    1.4406   -3.5293    0.0000 H   0  0  0  0  0  0  0  0  0  0  0  0
    3.6353    1.2258    0.0000 H   0  0  0  0  0  0  0  0  0  0  0  0
    3.2907   -4.3615    0.0000 H   0  0  0  0  0  0  0  0  0  0  0  0
    2.3620   -4.8929    0.0000 H   0  0  0  0  0  0  0  0  0  0  0  0
    0.7254   -3.6942    0.0000 H   0  0  0  0  0  0  0  0  0  0  0  0
    1.6459   -5.3027    0.0000 H   0  0  0  0  0  0  0  0  0  0  0  0
    0.7213   -4.7642    0.0000 H   0  0  0  0  0  0  0  0  0  0  0  0
  1 12  2  0  0  0  0
  2 21  1  0  0  0  0
  2 22  1  0  0  0  0
  3 22  2  0  0  0  0
  4  5  1  0  0  0  0
  4  6  1  0  0  0  0
  4  9  1  0  0  0  0
  4 40  1  6  0  0  0
  5  8  1  0  0  0  0
  5 12  1  0  0  0  0
  5 14  1  1  0  0  0
  6  7  1  0  0  0  0
  6 11  1  0  0  0  0
  6 41  1  1  0  0  0
  7 10  1  0  0  0  0
  7 15  1  0  0  0  0
  7 42  1  6  0  0  0
  8 10  1  0  0  0  0
  8 43  1  0  0  0  0
  8 44  1  0  0  0  0
  9 13  1  0  0  0  0
  9 45  1  0  0  0  0
  9 46  1  0  0  0  0
 10 47  1  0  0  0  0
 10 48  1  0  0  0  0
 11 16  1  0  0  0  0
 11 49  1  0  0  0  0
 11 50  1  0  0  0  0
 12 13  1  0  0  0  0
 13 51  1  0  0  0  0
 13 52  1  0  0  0  0
 14 53  1  0  0  0  0
 14 54  1  0  0  0  0
 14 55  1  0  0  0  0
 15 17  2  0  0  0  0
 15 18  1  0  0  0  0
 16 17  1  0  0  0  0
 16 56  1  0  0  0  0
 16 57  1  0  0  0  0
 17 19  1  0  0  0  0
 18 20  2  0  0  0  0
 18 58  1  0  0  0  0
 19 21  2  0  0  0  0
 19 59  1  0  0  0  0
 20 21  1  0  0  0  0
 20 60  1  0  0  0  0
 22 23  1  0  0  0  0
 23 24  1  0  0  0  0
 23 61  1  0  0  0  0
 23 62  1  0  0  0  0
 24 25  1  0  0  0  0
 24 63  1  0  0  0  0
 24 64  1  0  0  0  0
 25 26  1  0  0  0  0
 25 65  1  0  0  0  0
 25 66  1  0  0  0  0
 26 27  1  0  0  0  0
 26 67  1  0  0  0  0
 26 68  1  0  0  0  0
 27 28  1  0  0  0  0
 27 69  1  0  0  0  0
 27 70  1  0  0  0  0
 28 29  1  0  0  0  0
 28 71  1  0  0  0  0
 28 72  1  0  0  0  0
 29 35  1  0  0  0  0
 29 73  1  0  0  0  0
 29 74  1  0  0  0  0
 30 31  1  0  0  0  0
 30 32  1  0  0  0  0
 30 75  1  0  0  0  0
 30 76  1  0  0  0  0
 31 33  1  0  0  0  0
 31 77  1  0  0  0  0
 31 78  1  0  0  0  0
 32 34  1  0  0  0  0
 32 79  1  0  0  0  0
 32 80  1  0  0  0  0
 33 36  1  0  0  0  0
 33 81  1  0  0  0  0
 33 82  1  0  0  0  0
 34 37  1  0  0  0  0
 34 83  1  0  0  0  0
 34 84  1  0  0  0  0
 35 37  2  0  0  0  0
 35 85  1  0  0  0  0
 36 38  1  0  0  0  0
 36 86  1  0  0  0  0
 36 87  1  0  0  0  0
 37 88  1  0  0  0  0
 38 39  1  0  0  0  0
 38 89  1  0  0  0  0
 38 90  1  0  0  0  0
 39 91  1  0  0  0  0
 39 92  1  0  0  0  0
 39 93  1  0  0  0  0
M  END
>  <DRUGBANK_ID>
DB04870

>  <COMMON_NAME>
Oleoyl-estrone

>  <CAS_NUMBER>
180003-17-2

>  <UNII>
64R56KMG1Z

>  <SYNONYMS>
Estrone 3-oleate; Estrone monooleate; Estrone oleic acid ester; OE; Oleoyl estrone; Oleoylestrone

$$$$
