M1N
 OpenBabel10282417072D

 64 66  0  0  0  0  0  0  0  0999 V2000
   -1.1504   -1.3054    0.0000 O   0  0  0  0  0  0  0  0  0  0  0  0
   -0.7379   -0.5910    0.0000 C   0  0  0  0  0  0  0  0  0  0  0  0
   -1.1504    0.1235    0.0000 N   0  0  0  0  0  0  0  0  0  0  0  0
   -1.9754    0.1235    0.0000 C   0  0  2  0  0  0  0  0  0  0  0  0
   -2.3879   -0.5910    0.0000 B   0  0  0  0  0  0  0  0  0  0  0  0
   -3.2129   -0.5910    0.0000 O   0  0  0  0  0  0  0  0  0  0  0  0
   -1.9754   -1.3054    0.0000 O   0  0  0  0  0  0  0  0  0  0  0  0
   -2.3879    0.8380    0.0000 C   0  0  0  0  0  0  0  0  0  0  0  0
   -3.2129    0.8380    0.0000 C   0  0  0  0  0  0  0  0  0  0  0  0
   -3.6254    1.5525    0.0000 C   0  0  0  0  0  0  0  0  0  0  0  0
   -3.6254    0.1235    0.0000 C   0  0  0  0  0  0  0  0  0  0  0  0
    0.0871   -0.5910    0.0000 C   0  0  2  0  0  0  0  0  0  0  0  0
    0.4996    0.1235    0.0000 N   0  0  0  0  0  0  0  0  0  0  0  0
    0.0871    0.8380    0.0000 C   0  0  0  0  0  0  0  0  0  0  0  0
    0.4996    1.5525    0.0000 N   0  0  0  0  0  0  0  0  0  0  0  0
    0.0871    2.2669    0.0000 C   0  0  0  0  0  0  0  0  0  0  0  0
    0.4996    2.9814    0.0000 C   0  0  0  0  0  0  0  0  0  0  0  0
    1.3246    2.9814    0.0000 O   0  0  0  0  0  0  0  0  0  0  0  0
    1.7371    2.2669    0.0000 C   0  0  0  0  0  0  0  0  0  0  0  0
    1.3246    1.5525    0.0000 C   0  0  0  0  0  0  0  0  0  0  0  0
   -0.7379    0.8380    0.0000 O   0  0  0  0  0  0  0  0  0  0  0  0
    0.4996   -1.3054    0.0000 C   0  0  0  0  0  0  0  0  0  0  0  0
    1.3246   -1.3054    0.0000 C   0  0  0  0  0  0  0  0  0  0  0  0
    1.7371   -0.5910    0.0000 C   0  0  0  0  0  0  0  0  0  0  0  0
    2.5621   -0.5910    0.0000 C   0  0  0  0  0  0  0  0  0  0  0  0
    2.9746   -1.3054    0.0000 C   0  0  0  0  0  0  0  0  0  0  0  0
    2.5621   -2.0199    0.0000 C   0  0  0  0  0  0  0  0  0  0  0  0
    2.9746   -2.7344    0.0000 C   0  0  0  0  0  0  0  0  0  0  0  0
    2.5621   -3.4488    0.0000 C   0  0  0  0  0  0  0  0  0  0  0  0
    1.7371   -3.4488    0.0000 C   0  0  0  0  0  0  0  0  0  0  0  0
    1.3246   -2.7344    0.0000 C   0  0  0  0  0  0  0  0  0  0  0  0
    1.7371   -2.0199    0.0000 C   0  0  0  0  0  0  0  0  0  0  0  0
   -1.6834   -0.3822    0.0000 H   0  0  0  0  0  0  0  0  0  0  0  0
   -0.2048   -0.0853    0.0000 H   0  0  0  0  0  0  0  0  0  0  0  0
   -0.6581    0.9761    0.0000 H   0  0  0  0  0  0  0  0  0  0  0  0
   -3.6979    0.2490    0.0000 H   0  0  0  0  0  0  0  0  0  0  0  0
   -2.4604   -2.1455    0.0000 H   0  0  0  0  0  0  0  0  0  0  0  0
   -1.8529    1.7646    0.0000 H   0  0  0  0  0  0  0  0  0  0  0  0
   -2.9229    1.7646    0.0000 H   0  0  0  0  0  0  0  0  0  0  0  0
   -4.2829    0.8380    0.0000 H   0  0  0  0  0  0  0  0  0  0  0  0
   -3.0904    2.4791    0.0000 H   0  0  0  0  0  0  0  0  0  0  0  0
   -4.6954    1.5525    0.0000 H   0  0  0  0  0  0  0  0  0  0  0  0
   -4.1604    2.4792    0.0000 H   0  0  0  0  0  0  0  0  0  0  0  0
   -4.6954    0.1235    0.0000 H   0  0  0  0  0  0  0  0  0  0  0  0
   -3.0904   -0.8031    0.0000 H   0  0  0  0  0  0  0  0  0  0  0  0
   -4.1604   -0.8032    0.0000 H   0  0  0  0  0  0  0  0  0  0  0  0
    1.4841    0.1235    0.0000 H   0  0  0  0  0  0  0  0  0  0  0  0
   -0.9829    2.2669    0.0000 H   0  0  0  0  0  0  0  0  0  0  0  0
   -0.4479    3.1935    0.0000 H   0  0  0  0  0  0  0  0  0  0  0  0
   -0.0354    3.9080    0.0000 H   0  0  0  0  0  0  0  0  0  0  0  0
    1.0346    3.9080    0.0000 H   0  0  0  0  0  0  0  0  0  0  0  0
    2.8071    2.2669    0.0000 H   0  0  0  0  0  0  0  0  0  0  0  0
    2.2721    1.3402    0.0000 H   0  0  0  0  0  0  0  0  0  0  0  0
    1.8596    0.6258    0.0000 H   0  0  0  0  0  0  0  0  0  0  0  0
    2.3946    1.5525    0.0000 H   0  0  0  0  0  0  0  0  0  0  0  0
   -0.0354   -2.2321    0.0000 H   0  0  0  0  0  0  0  0  0  0  0  0
    1.0346   -2.2320    0.0000 H   0  0  0  0  0  0  0  0  0  0  0  0
    1.2211    0.3027    0.0000 H   0  0  0  0  0  0  0  0  0  0  0  0
    3.0781    0.3027    0.0000 H   0  0  0  0  0  0  0  0  0  0  0  0
    4.0066   -1.3054    0.0000 H   0  0  0  0  0  0  0  0  0  0  0  0
    4.0066   -2.7344    0.0000 H   0  0  0  0  0  0  0  0  0  0  0  0
    3.0781   -4.3425    0.0000 H   0  0  0  0  0  0  0  0  0  0  0  0
    1.2211   -4.3425    0.0000 H   0  0  0  0  0  0  0  0  0  0  0  0
    0.2926   -2.7344    0.0000 H   0  0  0  0  0  0  0  0  0  0  0  0
  1  2  2  0  0  0  0
  2  3  1  0  0  0  0
  2 12  1  0  0  0  0
  3  4  1  0  0  0  0
  3 35  1  0  0  0  0
  4  5  1  0  0  0  0
  4  8  1  0  0  0  0
  4 33  1  1  0  0  0
  5  6  1  0  0  0  0
  5  7  1  0  0  0  0
  6 36  1  0  0  0  0
  7 37  1  0  0  0  0
  8  9  1  0  0  0  0
  8 38  1  0  0  0  0
  8 39  1  0  0  0  0
  9 10  1  0  0  0  0
  9 11  1  0  0  0  0
  9 40  1  0  0  0  0
 10 41  1  0  0  0  0
 10 42  1  0  0  0  0
 10 43  1  0  0  0  0
 11 44  1  0  0  0  0
 11 45  1  0  0  0  0
 11 46  1  0  0  0  0
 12 13  1  0  0  0  0
 12 22  1  0  0  0  0
 12 34  1  1  0  0  0
 13 14  1  0  0  0  0
 13 47  1  0  0  0  0
 14 15  1  0  0  0  0
 14 21  2  0  0  0  0
 15 16  1  0  0  0  0
 15 20  1  0  0  0  0
 16 17  1  0  0  0  0
 16 48  1  0  0  0  0
 16 49  1  0  0  0  0
 17 18  1  0  0  0  0
 17 50  1  0  0  0  0
 17 51  1  0  0  0  0
 18 19  1  0  0  0  0
 19 20  1  0  0  0  0
 19 52  1  0  0  0  0
 19 53  1  0  0  0  0
 20 54  1  0  0  0  0
 20 55  1  0  0  0  0
 22 23  1  0  0  0  0
 22 56  1  0  0  0  0
 22 57  1  0  0  0  0
 23 24  1  0  0  0  0
 23 32  2  0  0  0  0
 24 25  2  0  0  0  0
 24 58  1  0  0  0  0
 25 26  1  0  0  0  0
 25 59  1  0  0  0  0
 26 27  2  0  0  0  0
 26 60  1  0  0  0  0
 27 28  1  0  0  0  0
 27 32  1  0  0  0  0
 28 29  2  0  0  0  0
 28 61  1  0  0  0  0
 29 30  1  0  0  0  0
 29 62  1  0  0  0  0
 30 31  2  0  0  0  0
 30 63  1  0  0  0  0
 31 32  1  0  0  0  0
 31 64  1  0  0  0  0
M  END
>  <DRUGBANK_ID>
DB04732

>  <COMMON_NAME>
N-(4-MORPHOLINE)CARBONYL-B-(1-NAPHTHYL)-L-ALANINE-L-LEUCINE BORONIC ACID

$$$$
