
 OpenBabel10282417072D

 58 63  0  0  0  0  0  0  0  0999 V2000
    5.0013    1.2375    0.0000 C   0  0  0  0  0  0  0  0  0  0  0  0
    0.7145    1.2375    0.0000 C   0  0  0  0  0  0  0  0  0  0  0  0
    5.0013    2.0625    0.0000 C   0  0  0  0  0  0  0  0  0  0  0  0
    0.7145    2.0625    0.0000 C   0  0  0  0  0  0  0  0  0  0  0  0
    4.2868    0.8250    0.0000 C   0  0  0  0  0  0  0  0  0  0  0  0
    1.4289    0.8250    0.0000 C   0  0  0  0  0  0  0  0  0  0  0  0
    4.2868    2.4750    0.0000 C   0  0  0  0  0  0  0  0  0  0  0  0
    1.4289    2.4750    0.0000 C   0  0  0  0  0  0  0  0  0  0  0  0
    2.1434   -3.7125    0.0000 C   0  0  0  0  0  0  0  0  0  0  0  0
    1.4289   -4.1250    0.0000 C   0  0  0  0  0  0  0  0  0  0  0  0
    4.2868   -2.4750    0.0000 C   0  0  0  0  0  0  0  0  0  0  0  0
    2.8579   -2.4750    0.0000 C   0  0  0  0  0  0  0  0  0  0  0  0
    4.2868   -1.6500    0.0000 C   0  0  0  0  0  0  0  0  0  0  0  0
    2.8579   -1.6500    0.0000 C   0  0  0  0  0  0  0  0  0  0  0  0
    2.8579   -4.9500    0.0000 C   0  0  0  0  0  0  0  0  0  0  0  0
    3.5724   -3.7125    0.0000 C   0  0  0  0  0  0  0  0  0  0  0  0
    3.5724   -0.4125    0.0000 C   0  0  0  0  0  0  0  0  0  0  0  0
    1.1514   -6.2557    0.0000 C   0  0  0  0  0  0  0  0  0  0  0  0
    2.8579   -4.1250    0.0000 C   0  0  0  0  0  0  0  0  0  0  0  0
    3.5724    1.2375    0.0000 C   0  0  0  0  0  0  0  0  0  0  0  0
    2.1434    1.2375    0.0000 C   0  0  0  0  0  0  0  0  0  0  0  0
    1.4289   -4.9500    0.0000 C   0  0  0  0  0  0  0  0  0  0  0  0
    2.1434   -5.3625    0.0000 C   0  0  0  0  0  0  0  0  0  0  0  0
    3.5724    2.0625    0.0000 C   0  0  0  0  0  0  0  0  0  0  0  0
    2.1434    2.0625    0.0000 C   0  0  0  0  0  0  0  0  0  0  0  0
    2.8579    0.0000    0.0000 C   0  0  0  0  0  0  0  0  0  0  0  0
    3.5724   -2.8875    0.0000 N   0  0  0  0  0  0  0  0  0  0  0  0
    3.5724   -1.2375    0.0000 N   0  0  0  0  0  0  0  0  0  0  0  0
    2.8579    0.8250    0.0000 N   0  0  0  0  0  0  0  0  0  0  0  0
    2.1434   -0.4125    0.0000 O   0  0  0  0  0  0  0  0  0  0  0  0
    0.8158   -5.5020    0.0000 O   0  0  0  0  0  0  0  0  0  0  0  0
    1.9719   -6.1695    0.0000 O   0  0  0  0  0  0  0  0  0  0  0  0
    2.8579    2.4750    0.0000 S   0  0  0  0  0  0  0  0  0  0  0  0
    5.8950    0.7215    0.0000 H   0  0  0  0  0  0  0  0  0  0  0  0
   -0.1792    0.7215    0.0000 H   0  0  0  0  0  0  0  0  0  0  0  0
    5.8950    2.5785    0.0000 H   0  0  0  0  0  0  0  0  0  0  0  0
   -0.1792    2.5785    0.0000 H   0  0  0  0  0  0  0  0  0  0  0  0
    4.2868   -0.2070    0.0000 H   0  0  0  0  0  0  0  0  0  0  0  0
    1.4289   -0.2070    0.0000 H   0  0  0  0  0  0  0  0  0  0  0  0
    4.2868    3.5070    0.0000 H   0  0  0  0  0  0  0  0  0  0  0  0
    1.4289    3.5070    0.0000 H   0  0  0  0  0  0  0  0  0  0  0  0
    2.1434   -2.6805    0.0000 H   0  0  0  0  0  0  0  0  0  0  0  0
    0.5352   -3.6090    0.0000 H   0  0  0  0  0  0  0  0  0  0  0  0
    5.2135   -3.0100    0.0000 H   0  0  0  0  0  0  0  0  0  0  0  0
    4.2868   -3.5450    0.0000 H   0  0  0  0  0  0  0  0  0  0  0  0
    1.9313   -3.0100    0.0000 H   0  0  0  0  0  0  0  0  0  0  0  0
    2.8579   -3.5450    0.0000 H   0  0  0  0  0  0  0  0  0  0  0  0
    5.2135   -1.1150    0.0000 H   0  0  0  0  0  0  0  0  0  0  0  0
    4.2868   -0.5800    0.0000 H   0  0  0  0  0  0  0  0  0  0  0  0
    1.9313   -1.1150    0.0000 H   0  0  0  0  0  0  0  0  0  0  0  0
    2.8579   -0.5800    0.0000 H   0  0  0  0  0  0  0  0  0  0  0  0
    3.7516   -5.4660    0.0000 H   0  0  0  0  0  0  0  0  0  0  0  0
    4.4990   -4.2475    0.0000 H   0  0  0  0  0  0  0  0  0  0  0  0
    4.4990   -3.1775    0.0000 H   0  0  0  0  0  0  0  0  0  0  0  0
    4.4990    0.1225    0.0000 H   0  0  0  0  0  0  0  0  0  0  0  0
    4.4990   -0.9475    0.0000 H   0  0  0  0  0  0  0  0  0  0  0  0
    0.6164   -7.1823    0.0000 H   0  0  0  0  0  0  0  0  0  0  0  0
    1.7341   -7.1531    0.0000 H   0  0  0  0  0  0  0  0  0  0  0  0
  1 34  1  0  0  0  0
  2 35  1  0  0  0  0
  3  1  2  0  0  0  0
  3 36  1  0  0  0  0
  4  2  2  0  0  0  0
  4 37  1  0  0  0  0
  5  1  1  0  0  0  0
  5 38  1  0  0  0  0
  6  2  1  0  0  0  0
  6 39  1  0  0  0  0
  7  3  1  0  0  0  0
  7 40  1  0  0  0  0
  8  4  1  0  0  0  0
  8 41  1  0  0  0  0
  9 42  1  0  0  0  0
 10  9  2  0  0  0  0
 10 43  1  0  0  0  0
 11 44  1  0  0  0  0
 11 45  1  0  0  0  0
 12 46  1  0  0  0  0
 12 47  1  0  0  0  0
 13 11  1  0  0  0  0
 13 48  1  0  0  0  0
 13 49  1  0  0  0  0
 14 12  1  0  0  0  0
 14 50  1  0  0  0  0
 14 51  1  0  0  0  0
 15 52  1  0  0  0  0
 16 53  1  0  0  0  0
 16 54  1  0  0  0  0
 17 55  1  0  0  0  0
 17 56  1  0  0  0  0
 18 57  1  0  0  0  0
 18 58  1  0  0  0  0
 19  9  1  0  0  0  0
 19 15  2  0  0  0  0
 19 16  1  0  0  0  0
 20  5  2  0  0  0  0
 21  6  2  0  0  0  0
 22 10  1  0  0  0  0
 23 15  1  0  0  0  0
 23 22  2  0  0  0  0
 24  7  2  0  0  0  0
 24 20  1  0  0  0  0
 25  8  2  0  0  0  0
 25 21  1  0  0  0  0
 26 17  1  0  0  0  0
 27 11  1  0  0  0  0
 27 12  1  0  0  0  0
 27 16  1  0  0  0  0
 28 13  1  0  0  0  0
 28 14  1  0  0  0  0
 28 17  1  0  0  0  0
 29 20  1  0  0  0  0
 29 21  1  0  0  0  0
 29 26  1  0  0  0  0
 30 26  2  0  0  0  0
 31 18  1  0  0  0  0
 31 22  1  0  0  0  0
 32 18  1  0  0  0  0
 32 23  1  0  0  0  0
 33 24  1  0  0  0  0
 33 25  1  0  0  0  0
M  END
>  <DRUGBANK_ID>
DB13042

>  <COMMON_NAME>
Fenoverine

>  <CAS_NUMBER>
37561-27-6

>  <UNII>
N274ZQ6PZJ

>  <SYNONYMS>
Fenoverine

$$$$
