620
 OpenBabel10282417072D

 55 58  0  0  1  0  0  0  0  0999 V2000
    4.1400   -0.1892    0.0000 F   0  0  0  0  0  0  0  0  0  0  0  0
    6.6263    1.0402    0.0000 O   0  0  0  0  0  0  0  0  0  0  0  0
    3.9559    0.4163    0.0000 O   0  0  0  0  0  0  0  0  0  0  0  0
    8.1864   -0.4087    0.0000 O   0  0  0  0  0  0  0  0  0  0  0  0
    8.3013    0.4021    0.0000 O   0  0  0  0  0  0  0  0  0  0  0  0
    8.1317    2.0434    0.0000 O   0  0  0  0  0  0  0  0  0  0  0  0
    1.6500   -2.5144    0.0000 O   0  0  0  0  0  0  0  0  0  0  0  0
    6.0993    0.0038    0.0000 C   0  0  1  0  0  0  0  0  0  0  0  0
    6.0993   -0.8212    0.0000 C   0  0  2  0  0  0  0  0  0  0  0  0
    5.3849   -1.2337    0.0000 C   0  0  1  0  0  0  0  0  0  0  0  0
    4.6703   -0.8212    0.0000 C   0  0  1  0  0  0  0  0  0  0  0  0
    6.8799    0.2553    0.0000 C   0  0  1  0  0  0  0  0  0  0  0  0
    5.3849    0.4163    0.0000 C   0  0  0  0  0  0  0  0  0  0  0  0
    6.8799   -1.0726    0.0000 C   0  0  0  0  0  0  0  0  0  0  0  0
    4.6703    0.0038    0.0000 C   0  0  2  0  0  0  0  0  0  0  0  0
    7.3614   -0.4087    0.0000 C   0  0  1  0  0  0  0  0  0  0  0  0
    3.9196   -1.2393    0.0000 C   0  0  1  0  0  0  0  0  0  0  0  0
    5.3981   -2.0929    0.0000 C   0  0  0  0  0  0  0  0  0  0  0  0
    6.0993    0.8288    0.0000 C   0  0  0  0  0  0  0  0  0  0  0  0
    4.6572   -2.5283    0.0000 C   0  0  0  0  0  0  0  0  0  0  0  0
    3.9130   -2.0986    0.0000 C   0  0  0  0  0  0  0  0  0  0  0  0
    7.5482    0.7390    0.0000 C   0  0  0  0  0  0  0  0  0  0  0  0
    3.6435   -0.4619    0.0000 C   0  0  0  0  0  0  0  0  0  0  0  0
    3.1550   -0.7739    0.0000 C   0  0  0  0  0  0  0  0  0  0  0  0
    3.1413   -2.5521    0.0000 C   0  0  0  0  0  0  0  0  0  0  0  0
    7.4634    1.5596    0.0000 C   0  0  0  0  0  0  0  0  0  0  0  0
    2.3730   -1.2095    0.0000 C   0  0  0  0  0  0  0  0  0  0  0  0
    2.3660   -2.1046    0.0000 C   0  0  0  0  0  0  0  0  0  0  0  0
    6.1691   -1.4775    0.0000 H   0  0  0  0  0  0  0  0  0  0  0  0
    5.9589   -1.5593    0.0000 H   0  0  0  0  0  0  0  0  0  0  0  0
    7.2765    1.7600    0.0000 H   0  0  0  0  0  0  0  0  0  0  0  0
    3.9559    1.3863    0.0000 H   0  0  0  0  0  0  0  0  0  0  0  0
    8.6714   -1.2487    0.0000 H   0  0  0  0  0  0  0  0  0  0  0  0
    9.0172    1.6473    0.0000 H   0  0  0  0  0  0  0  0  0  0  0  0
    5.3850    1.4863    0.0000 H   0  0  0  0  0  0  0  0  0  0  0  0
    4.4583    0.9514    0.0000 H   0  0  0  0  0  0  0  0  0  0  0  0
    7.2123   -2.0897    0.0000 H   0  0  0  0  0  0  0  0  0  0  0  0
    7.9369   -1.2386    0.0000 H   0  0  0  0  0  0  0  0  0  0  0  0
    3.7436   -0.5312    0.0000 H   0  0  0  0  0  0  0  0  0  0  0  0
    7.8476    0.5445    0.0000 H   0  0  0  0  0  0  0  0  0  0  0  0
    6.3309   -2.6172    0.0000 H   0  0  0  0  0  0  0  0  0  0  0  0
    5.4084   -3.1629    0.0000 H   0  0  0  0  0  0  0  0  0  0  0  0
    7.0259    1.3638    0.0000 H   0  0  0  0  0  0  0  0  0  0  0  0
    5.1727    1.3638    0.0000 H   0  0  0  0  0  0  0  0  0  0  0  0
    6.0993    1.8988    0.0000 H   0  0  0  0  0  0  0  0  0  0  0  0
    4.6613   -3.5983    0.0000 H   0  0  0  0  0  0  0  0  0  0  0  0
    3.7316   -3.0651    0.0000 H   0  0  0  0  0  0  0  0  0  0  0  0
    4.3377    0.3524    0.0000 H   0  0  0  0  0  0  0  0  0  0  0  0
    2.5912   -0.2679    0.0000 H   0  0  0  0  0  0  0  0  0  0  0  0
    3.2854    0.5464    0.0000 H   0  0  0  0  0  0  0  0  0  0  0  0
    3.1749    0.2579    0.0000 H   0  0  0  0  0  0  0  0  0  0  0  0
    3.1453   -3.5841    0.0000 H   0  0  0  0  0  0  0  0  0  0  0  0
    6.4867    1.9965    0.0000 H   0  0  0  0  0  0  0  0  0  0  0  0
    6.5967    0.9322    0.0000 H   0  0  0  0  0  0  0  0  0  0  0  0
    1.4853   -0.6832    0.0000 H   0  0  0  0  0  0  0  0  0  0  0  0
  2 31  1  0  0  0  0
  3 32  1  0  0  0  0
  4 33  1  0  0  0  0
  5 22  2  0  0  0  0
  6 26  1  0  0  0  0
  6 34  1  0  0  0  0
  7 28  2  0  0  0  0
  8  9  1  0  0  0  0
  8 12  1  0  0  0  0
  8 13  1  0  0  0  0
  8 19  1  1  0  0  0
  9 10  1  0  0  0  0
  9 14  1  0  0  0  0
  9 29  1  6  0  0  0
 10 11  1  0  0  0  0
 10 18  1  0  0  0  0
 10 30  1  1  0  0  0
 11  1  1  6  0  0  0
 11 15  1  0  0  0  0
 11 17  1  0  0  0  0
 12  2  1  6  0  0  0
 12 16  1  0  0  0  0
 12 22  1  0  0  0  0
 13 15  1  0  0  0  0
 13 35  1  0  0  0  0
 13 36  1  0  0  0  0
 14 16  1  0  0  0  0
 14 37  1  0  0  0  0
 14 38  1  0  0  0  0
 15  3  1  0  0  0  0
 15 39  1  6  0  0  0
 16  4  1  0  0  0  0
 16 40  1  1  0  0  0
 17 21  1  0  0  0  0
 17 23  1  1  0  0  0
 17 24  1  0  0  0  0
 18 20  1  0  0  0  0
 18 41  1  0  0  0  0
 18 42  1  0  0  0  0
 19 43  1  0  0  0  0
 19 44  1  0  0  0  0
 19 45  1  0  0  0  0
 20 21  1  0  0  0  0
 20 46  1  0  0  0  0
 20 47  1  0  0  0  0
 21 25  2  0  0  0  0
 22 26  1  0  0  0  0
 23 48  1  0  0  0  0
 23 49  1  0  0  0  0
 23 50  1  0  0  0  0
 24 27  2  0  0  0  0
 24 51  1  0  0  0  0
 25 28  1  0  0  0  0
 25 52  1  0  0  0  0
 26 53  1  0  0  0  0
 26 54  1  0  0  0  0
 27 28  1  0  0  0  0
 27 55  1  0  0  0  0
M  END
>  <DRUGBANK_ID>
DB00620

>  <SECONDARY_ACCESSION_NUMBERS>
APRD00422

>  <COMMON_NAME>
Triamcinolone

>  <CAS_NUMBER>
124-94-7

>  <UNII>
1ZK20VI6TY

>  <SYNONYMS>
11β,16α,17α,21-tetrahydroxy-9α-fluoro-1,4-pregnadiene-3,20-dione; 9-fluoro-11β,16α,17,21-tetrahydroxypregna-1,4-diene-3,20-dione; 9α-fluoro-11β,16α,17,21-tetrahydroxypregna-1,4-diene-3,20-dione; 9α-fluoro-11β,16α,17α,21-tetrahydroxypregna-1,4-diene-3,20-dione; 9α-fluoro-16α-hydroxyprednisolone; Fluoxyprednisolone; Tiamcinolonum; Triamcinolona; Triamcinolone; Triamcinolonum

$$$$
