
 OpenBabel10282417072D

 49 51  0  0  1  0  0  0  0  0999 V2000
    4.7079    3.7125    0.0000 C   0  0  0  0  0  0  0  0  0  0  0  0
    3.9934    3.3000    0.0000 C   0  0  0  0  0  0  0  0  0  0  0  0
    3.9934    2.4750    0.0000 C   0  0  1  0  0  0  0  0  0  0  0  0
    4.7079    2.0625    0.0000 C   0  0  0  0  0  0  0  0  0  0  0  0
    3.2789    2.0625    0.0000 N   0  0  0  0  0  0  0  0  0  0  0  0
    3.2789    1.2375    0.0000 C   0  0  0  0  0  0  0  0  0  0  0  0
    3.9934    0.8250    0.0000 N   0  0  0  0  0  0  0  0  0  0  0  0
    3.9934    0.0000    0.0000 C   0  0  0  0  0  0  0  0  0  0  0  0
    3.2789   -0.4125    0.0000 N   0  0  0  0  0  0  0  0  0  0  0  0
    2.5645    0.0000    0.0000 C   0  0  0  0  0  0  0  0  0  0  0  0
    2.5645    0.8250    0.0000 N   0  0  0  0  0  0  0  0  0  0  0  0
    1.7798    1.0799    0.0000 N   0  0  0  0  0  0  0  0  0  0  0  0
    1.2949    0.4125    0.0000 C   0  0  0  0  0  0  0  0  0  0  0  0
    1.7798   -0.2549    0.0000 C   0  0  0  0  0  0  0  0  0  0  0  0
    1.5249   -1.0396    0.0000 C   0  0  0  0  0  0  0  0  0  0  0  0
    2.0769   -1.6527    0.0000 C   0  0  0  0  0  0  0  0  0  0  0  0
    1.8220   -2.4373    0.0000 C   0  0  0  0  0  0  0  0  0  0  0  0
    1.0150   -2.6088    0.0000 C   0  0  0  0  0  0  0  0  0  0  0  0
    0.4630   -1.9957    0.0000 N   0  0  0  0  0  0  0  0  0  0  0  0
    0.7179   -1.2111    0.0000 C   0  0  0  0  0  0  0  0  0  0  0  0
    0.1659   -0.5980    0.0000 C   0  0  0  0  0  0  0  0  0  0  0  0
    0.7601   -3.3934    0.0000 O   0  0  0  0  0  0  0  0  0  0  0  0
    1.3121   -4.0065    0.0000 C   0  0  0  0  0  0  0  0  0  0  0  0
    0.4699    0.4125    0.0000 C   0  0  0  0  0  0  0  0  0  0  0  0
    4.7079   -0.4125    0.0000 C   0  0  0  0  0  0  0  0  0  0  0  0
    5.6345    3.1775    0.0000 H   0  0  0  0  0  0  0  0  0  0  0  0
    4.7079    4.7825    0.0000 H   0  0  0  0  0  0  0  0  0  0  0  0
    5.6346    4.2475    0.0000 H   0  0  0  0  0  0  0  0  0  0  0  0
    3.0668    3.8350    0.0000 H   0  0  0  0  0  0  0  0  0  0  0  0
    3.0668    2.7650    0.0000 H   0  0  0  0  0  0  0  0  0  0  0  0
    4.9200    3.0100    0.0000 H   0  0  0  0  0  0  0  0  0  0  0  0
    4.7079    0.9925    0.0000 H   0  0  0  0  0  0  0  0  0  0  0  0
    5.6345    2.5975    0.0000 H   0  0  0  0  0  0  0  0  0  0  0  0
    5.6346    1.5275    0.0000 H   0  0  0  0  0  0  0  0  0  0  0  0
    2.4263    2.5548    0.0000 H   0  0  0  0  0  0  0  0  0  0  0  0
    3.0863   -1.4381    0.0000 H   0  0  0  0  0  0  0  0  0  0  0  0
    2.5125   -3.2042    0.0000 H   0  0  0  0  0  0  0  0  0  0  0  0
    0.4966    0.4196    0.0000 H   0  0  0  0  0  0  0  0  0  0  0  0
   -0.8807   -0.8204    0.0000 H   0  0  0  0  0  0  0  0  0  0  0  0
   -0.5500    0.1972    0.0000 H   0  0  0  0  0  0  0  0  0  0  0  0
    0.9814   -5.0241    0.0000 H   0  0  0  0  0  0  0  0  0  0  0  0
    2.3587   -3.7841    0.0000 H   0  0  0  0  0  0  0  0  0  0  0  0
    2.0280   -4.8017    0.0000 H   0  0  0  0  0  0  0  0  0  0  0  0
   -0.0651    1.3391    0.0000 H   0  0  0  0  0  0  0  0  0  0  0  0
   -0.0651   -0.5141    0.0000 H   0  0  0  0  0  0  0  0  0  0  0  0
   -0.6001    0.4125    0.0000 H   0  0  0  0  0  0  0  0  0  0  0  0
    4.7079   -1.4825    0.0000 H   0  0  0  0  0  0  0  0  0  0  0  0
    5.6345    0.1225    0.0000 H   0  0  0  0  0  0  0  0  0  0  0  0
    5.6346   -0.9475    0.0000 H   0  0  0  0  0  0  0  0  0  0  0  0
  1  2  1  0  0  0  0
  1 26  1  0  0  0  0
  1 27  1  0  0  0  0
  1 28  1  0  0  0  0
  2  3  1  0  0  0  0
  2 29  1  0  0  0  0
  2 30  1  0  0  0  0
  3  4  1  0  0  0  0
  3  5  1  0  0  0  0
  3 31  1  6  0  0  0
  4 32  1  0  0  0  0
  4 33  1  0  0  0  0
  4 34  1  0  0  0  0
  5  6  1  0  0  0  0
  5 35  1  0  0  0  0
  6  7  2  0  0  0  0
  6 11  1  0  0  0  0
  7  8  1  0  0  0  0
  8  9  2  0  0  0  0
  8 25  1  0  0  0  0
  9 10  1  0  0  0  0
 10 11  1  0  0  0  0
 10 14  2  0  0  0  0
 11 12  1  0  0  0  0
 12 13  2  0  0  0  0
 13 14  1  0  0  0  0
 13 24  1  0  0  0  0
 14 15  1  0  0  0  0
 15 16  2  0  0  0  0
 15 20  1  0  0  0  0
 16 17  1  0  0  0  0
 16 36  1  0  0  0  0
 17 18  2  0  0  0  0
 17 37  1  0  0  0  0
 18 19  1  0  0  0  0
 18 22  1  0  0  0  0
 19 20  2  0  0  0  0
 20 21  1  0  0  0  0
 21 38  1  0  0  0  0
 21 39  1  0  0  0  0
 21 40  1  0  0  0  0
 22 23  1  0  0  0  0
 23 41  1  0  0  0  0
 23 42  1  0  0  0  0
 23 43  1  0  0  0  0
 24 44  1  0  0  0  0
 24 45  1  0  0  0  0
 24 46  1  0  0  0  0
 25 47  1  0  0  0  0
 25 48  1  0  0  0  0
 25 49  1  0  0  0  0
M  END
>  <DRUGBANK_ID>
DB12572

>  <COMMON_NAME>
Pexacerfont

>  <CAS_NUMBER>
459856-18-9

>  <UNII>
LF1VBG4ZUK

>  <SYNONYMS>
Pexacerfont

$$$$
