
 OpenBabel10282417072D

 35 37  0  0  0  0  0  0  0  0999 V2000
    2.7858    5.0869    0.0000 C   0  0  0  0  0  0  0  0  0  0  0  0
    2.7858    4.2619    0.0000 C   0  0  0  0  0  0  0  0  0  0  0  0
    3.5003    3.8494    0.0000 C   0  0  0  0  0  0  0  0  0  0  0  0
    3.5003    3.0244    0.0000 N   0  0  0  0  0  0  0  0  0  0  0  0
    4.2436    2.6664    0.0000 C   0  0  0  0  0  0  0  0  0  0  0  0
    4.4272    1.8621    0.0000 C   0  0  0  0  0  0  0  0  0  0  0  0
    5.2430    1.7392    0.0000 C   0  0  0  0  0  0  0  0  0  0  0  0
    5.5444    0.9712    0.0000 C   0  0  0  0  0  0  0  0  0  0  0  0
    5.0300    0.3262    0.0000 C   0  0  0  0  0  0  0  0  0  0  0  0
    4.2142    0.4491    0.0000 C   0  0  0  0  0  0  0  0  0  0  0  0
    3.9128    1.2171    0.0000 C   0  0  0  0  0  0  0  0  0  0  0  0
    3.0878    1.2171    0.0000 C   0  0  0  0  0  0  0  0  0  0  0  0
    2.7864    0.4491    0.0000 C   0  0  0  0  0  0  0  0  0  0  0  0
    1.9706    0.3262    0.0000 C   0  0  0  0  0  0  0  0  0  0  0  0
    1.4562    0.9712    0.0000 C   0  0  0  0  0  0  0  0  0  0  0  0
    1.7576    1.7392    0.0000 C   0  0  0  0  0  0  0  0  0  0  0  0
    2.5734    1.8621    0.0000 C   0  0  0  0  0  0  0  0  0  0  0  0
    2.7570    2.6664    0.0000 C   0  0  0  0  0  0  0  0  0  0  0  0
    3.6795    5.6029    0.0000 H   0  0  0  0  0  0  0  0  0  0  0  0
    1.8921    5.6029    0.0000 H   0  0  0  0  0  0  0  0  0  0  0  0
    1.8921    3.7459    0.0000 H   0  0  0  0  0  0  0  0  0  0  0  0
    4.4269    4.3844    0.0000 H   0  0  0  0  0  0  0  0  0  0  0  0
    4.4269    3.3144    0.0000 H   0  0  0  0  0  0  0  0  0  0  0  0
    5.0802    3.3335    0.0000 H   0  0  0  0  0  0  0  0  0  0  0  0
    5.2536    2.3130    0.0000 H   0  0  0  0  0  0  0  0  0  0  0  0
    5.8864    2.5461    0.0000 H   0  0  0  0  0  0  0  0  0  0  0  0
    6.5649    0.8174    0.0000 H   0  0  0  0  0  0  0  0  0  0  0  0
    5.4071   -0.6345    0.0000 H   0  0  0  0  0  0  0  0  0  0  0  0
    3.5708   -0.3578    0.0000 H   0  0  0  0  0  0  0  0  0  0  0  0
    3.4298   -0.3578    0.0000 H   0  0  0  0  0  0  0  0  0  0  0  0
    1.5935   -0.6345    0.0000 H   0  0  0  0  0  0  0  0  0  0  0  0
    0.4357    0.8174    0.0000 H   0  0  0  0  0  0  0  0  0  0  0  0
    1.1142    2.5461    0.0000 H   0  0  0  0  0  0  0  0  0  0  0  0
    1.9204    3.3335    0.0000 H   0  0  0  0  0  0  0  0  0  0  0  0
    2.8768    3.7297    0.0000 H   0  0  0  0  0  0  0  0  0  0  0  0
  1  2  2  0  0  0  0
  1 19  1  0  0  0  0
  1 20  1  0  0  0  0
  2  3  1  0  0  0  0
  2 21  1  0  0  0  0
  3  4  1  0  0  0  0
  3 22  1  0  0  0  0
  3 23  1  0  0  0  0
  4  5  1  0  0  0  0
  4 18  1  0  0  0  0
  5  6  1  0  0  0  0
  5 24  1  0  0  0  0
  5 25  1  0  0  0  0
  6  7  2  0  0  0  0
  6 11  1  0  0  0  0
  7  8  1  0  0  0  0
  7 26  1  0  0  0  0
  8  9  2  0  0  0  0
  8 27  1  0  0  0  0
  9 10  1  0  0  0  0
  9 28  1  0  0  0  0
 10 11  2  0  0  0  0
 10 29  1  0  0  0  0
 11 12  1  0  0  0  0
 12 13  2  0  0  0  0
 12 17  1  0  0  0  0
 13 14  1  0  0  0  0
 13 30  1  0  0  0  0
 14 15  2  0  0  0  0
 14 31  1  0  0  0  0
 15 16  1  0  0  0  0
 15 32  1  0  0  0  0
 16 17  2  0  0  0  0
 16 33  1  0  0  0  0
 17 18  1  0  0  0  0
 18 34  1  0  0  0  0
 18 35  1  0  0  0  0
M  END
>  <DRUGBANK_ID>
DB13727

>  <COMMON_NAME>
Azapetine

>  <CAS_NUMBER>
146-36-1

>  <UNII>
9TTR0UA2KC

$$$$
