3CA
 OpenBabel10282417072D

 26 27  0  0  0  0  0  0  0  0999 V2000
    1.7306    2.0187    0.0000 O   0  0  0  0  0  0  0  0  0  0  0  0
    1.0162    1.6062    0.0000 C   0  0  0  0  0  0  0  0  0  0  0  0
    0.3017    2.0187    0.0000 O   0  0  0  0  0  0  0  0  0  0  0  0
    1.0162    0.7812    0.0000 C   0  0  0  0  0  0  0  0  0  0  0  0
    1.7306    0.3687    0.0000 C   0  0  0  0  0  0  0  0  0  0  0  0
    2.4451    0.7812    0.0000 O   0  0  0  0  0  0  0  0  0  0  0  0
    1.7306   -0.4563    0.0000 C   0  0  0  0  0  0  0  0  0  0  0  0
    1.0162   -0.8688    0.0000 C   0  0  0  0  0  0  0  0  0  0  0  0
    0.3017   -0.4563    0.0000 C   0  0  0  0  0  0  0  0  0  0  0  0
    0.3017    0.3687    0.0000 C   0  0  0  0  0  0  0  0  0  0  0  0
   -0.4128   -0.8688    0.0000 C   0  0  0  0  0  0  0  0  0  0  0  0
   -0.4128   -1.6938    0.0000 C   0  0  0  0  0  0  0  0  0  0  0  0
   -1.1272   -0.4563    0.0000 C   0  0  0  0  0  0  0  0  0  0  0  0
   -1.1272    0.3687    0.0000 Cl  0  0  0  0  0  0  0  0  0  0  0  0
   -1.8417   -0.8688    0.0000 C   0  0  0  0  0  0  0  0  0  0  0  0
   -1.8417   -1.6938    0.0000 C   0  0  0  0  0  0  0  0  0  0  0  0
   -2.5562   -2.1063    0.0000 Cl  0  0  0  0  0  0  0  0  0  0  0  0
   -1.1272   -2.1063    0.0000 C   0  0  0  0  0  0  0  0  0  0  0  0
    0.3017    2.9557    0.0000 H   0  0  0  0  0  0  0  0  0  0  0  0
    3.2566    0.3127    0.0000 H   0  0  0  0  0  0  0  0  0  0  0  0
    2.6243   -0.9723    0.0000 H   0  0  0  0  0  0  0  0  0  0  0  0
    1.0162   -1.9008    0.0000 H   0  0  0  0  0  0  0  0  0  0  0  0
   -0.5920    0.8847    0.0000 H   0  0  0  0  0  0  0  0  0  0  0  0
    0.4809   -2.2098    0.0000 H   0  0  0  0  0  0  0  0  0  0  0  0
   -2.7354   -0.3528    0.0000 H   0  0  0  0  0  0  0  0  0  0  0  0
   -1.1272   -3.1383    0.0000 H   0  0  0  0  0  0  0  0  0  0  0  0
  1  2  2  0  0  0  0
  2  3  1  0  0  0  0
  2  4  1  0  0  0  0
  3 19  1  0  0  0  0
  4  5  1  0  0  0  0
  4 10  2  0  0  0  0
  5  6  1  0  0  0  0
  5  7  2  0  0  0  0
  6 20  1  0  0  0  0
  7  8  1  0  0  0  0
  7 21  1  0  0  0  0
  8  9  2  0  0  0  0
  8 22  1  0  0  0  0
  9 10  1  0  0  0  0
  9 11  1  0  0  0  0
 10 23  1  0  0  0  0
 11 12  1  0  0  0  0
 11 13  2  0  0  0  0
 12 18  2  0  0  0  0
 12 24  1  0  0  0  0
 13 14  1  0  0  0  0
 13 15  1  0  0  0  0
 15 16  2  0  0  0  0
 15 25  1  0  0  0  0
 16 17  1  0  0  0  0
 16 18  1  0  0  0  0
 18 26  1  0  0  0  0
M  END
>  <DRUGBANK_ID>
DB07047

>  <COMMON_NAME>
2',4'-DICHLORO-4-HYDROXY-1,1'-BIPHENYL-3-CARBOXYLIC ACID

$$$$
