
 OpenBabel10282417072D

 24 24  0  0  0  0  0  0  0  0999 V2000
   -2.5006   -1.6500    0.0000 C   0  0  0  0  0  0  0  0  0  0  0  0
   -0.3571   -0.4124    0.0000 C   0  0  0  0  0  0  0  0  0  0  0  0
    0.3573    0.8250    0.0000 C   0  0  0  0  0  0  0  0  0  0  0  0
   -1.0716   -0.8249    0.0000 C   0  0  0  0  0  0  0  0  0  0  0  0
    1.0717    0.4124    0.0000 C   0  0  0  0  0  0  0  0  0  0  0  0
   -1.0716    0.8250    0.0000 C   0  0  0  0  0  0  0  0  0  0  0  0
   -0.3571    0.4124    0.0000 C   0  0  0  0  0  0  0  0  0  0  0  0
   -1.7861    0.4124    0.0000 C   0  0  0  0  0  0  0  0  0  0  0  0
   -1.7861   -0.4124    0.0000 C   0  0  0  0  0  0  0  0  0  0  0  0
    1.7862    0.8250    0.0000 C   0  0  0  0  0  0  0  0  0  0  0  0
   -2.5006    0.8250    0.0000 O   0  0  0  0  0  0  0  0  0  0  0  0
    1.7862    1.6500    0.0000 O   0  0  0  0  0  0  0  0  0  0  0  0
    2.5007    0.4124    0.0000 O   0  0  0  0  0  0  0  0  0  0  0  0
   -2.5006   -0.8249    0.0000 O   0  0  0  0  0  0  0  0  0  0  0  0
   -3.4272   -2.1850    0.0000 H   0  0  0  0  0  0  0  0  0  0  0  0
   -1.5740   -2.1850    0.0000 H   0  0  0  0  0  0  0  0  0  0  0  0
   -2.5006   -2.7200    0.0000 H   0  0  0  0  0  0  0  0  0  0  0  0
    0.5366   -0.9284    0.0000 H   0  0  0  0  0  0  0  0  0  0  0  0
    0.3573    1.8570    0.0000 H   0  0  0  0  0  0  0  0  0  0  0  0
   -1.0716   -1.8569    0.0000 H   0  0  0  0  0  0  0  0  0  0  0  0
    1.0717   -0.6196    0.0000 H   0  0  0  0  0  0  0  0  0  0  0  0
   -1.0716    1.8570    0.0000 H   0  0  0  0  0  0  0  0  0  0  0  0
   -2.5005    1.7620    0.0000 H   0  0  0  0  0  0  0  0  0  0  0  0
    2.5006   -0.5246    0.0000 H   0  0  0  0  0  0  0  0  0  0  0  0
  1 14  1  0  0  0  0
  1 15  1  0  0  0  0
  1 16  1  0  0  0  0
  1 17  1  0  0  0  0
  2  4  2  0  0  0  0
  2  7  1  0  0  0  0
  2 18  1  0  0  0  0
  3  7  1  0  0  0  0
  3  5  2  0  0  0  0
  3 19  1  0  0  0  0
  4  9  1  0  0  0  0
  4 20  1  0  0  0  0
  5 10  1  0  0  0  0
  5 21  1  0  0  0  0
  6  7  2  0  0  0  0
  6  8  1  0  0  0  0
  6 22  1  0  0  0  0
  8  9  2  0  0  0  0
  8 11  1  0  0  0  0
  9 14  1  0  0  0  0
 10 12  2  0  0  0  0
 10 13  1  0  0  0  0
 11 23  1  0  0  0  0
 13 24  1  0  0  0  0
M  END
>  <DRUGBANK_ID>
DB07109

>  <COMMON_NAME>
Isoferulic acid

>  <CAS_NUMBER>
537-73-5

>  <UNII>
XSQ2K2G7MC

>  <SYNONYMS>
Hesperetic acid; Isoferulic acid

$$$$
