
 OpenBabel10282417072D

 52 54  0  0  0  0  0  0  0  0999 V2000
   -0.5361   -0.3299    0.0000 C   0  0  0  0  0  0  0  0  0  0  0  0
   -0.5361    0.4537    0.0000 C   0  0  0  0  0  0  0  0  0  0  0  0
    0.1649    0.9075    0.0000 C   0  0  0  0  0  0  0  0  0  0  0  0
    0.9075    0.4537    0.0000 C   0  0  0  0  0  0  0  0  0  0  0  0
    0.9075   -0.3299    0.0000 C   0  0  0  0  0  0  0  0  0  0  0  0
    0.1649   -0.7425    0.0000 C   0  0  0  0  0  0  0  0  0  0  0  0
   -1.2375    0.9075    0.0000 C   0  0  0  0  0  0  0  0  0  0  0  0
   -1.9799    0.4537    0.0000 C   0  0  0  0  0  0  0  0  0  0  0  0
   -2.6812    0.9075    0.0000 C   0  0  0  0  0  0  0  0  0  0  0  0
   -3.4649    0.6599    0.0000 C   0  0  0  0  0  0  0  0  0  0  0  0
   -3.9598    1.3199    0.0000 C   0  0  0  0  0  0  0  0  0  0  0  0
   -3.4649    1.9799    0.0000 N   0  0  0  0  0  0  0  0  0  0  0  0
   -2.6812    1.7325    0.0000 C   0  0  0  0  0  0  0  0  0  0  0  0
   -3.8361   -0.1238    0.0000 C   0  0  0  0  0  0  0  0  0  0  0  0
   -4.6611   -0.1235    0.0000 N   0  0  0  0  0  0  0  0  0  0  0  0
   -5.0736    0.5361    0.0000 C   0  0  0  0  0  0  0  0  0  0  0  0
   -4.7848    1.2786    0.0000 N   0  0  0  0  0  0  0  0  0  0  0  0
   -5.8986    0.4949    0.0000 N   0  0  0  0  0  0  0  0  0  0  0  0
    1.6086   -0.7425    0.0000 C   0  0  0  0  0  0  0  0  0  0  0  0
    2.3512   -0.3299    0.0000 N   0  0  0  0  0  0  0  0  0  0  0  0
    3.0524   -0.7425    0.0000 C   0  0  1  0  0  0  0  0  0  0  0  0
    3.7537   -0.3299    0.0000 C   0  0  0  0  0  0  0  0  0  0  0  0
    4.4961   -0.7425    0.0000 C   0  0  0  0  0  0  0  0  0  0  0  0
    5.1975   -0.3299    0.0000 C   0  0  0  0  0  0  0  0  0  0  0  0
    5.8986   -0.7425    0.0000 O   0  0  0  0  0  0  0  0  0  0  0  0
    1.6086   -1.5675    0.0000 O   0  0  0  0  0  0  0  0  0  0  0  0
    3.0524   -1.5675    0.0000 C   0  0  0  0  0  0  0  0  0  0  0  0
    3.7537   -1.9799    0.0000 O   0  0  0  0  0  0  0  0  0  0  0  0
    2.3512   -1.9799    0.0000 O   0  0  0  0  0  0  0  0  0  0  0  0
    5.1975    0.4537    0.0000 O   0  0  0  0  0  0  0  0  0  0  0  0
   -3.3824   -0.7425    0.0000 O   0  0  0  0  0  0  0  0  0  0  0  0
   -1.4320   -0.8421    0.0000 H   0  0  0  0  0  0  0  0  0  0  0  0
    0.1515    1.9394    0.0000 H   0  0  0  0  0  0  0  0  0  0  0  0
    1.8076    0.9585    0.0000 H   0  0  0  0  0  0  0  0  0  0  0  0
    0.1521   -1.7744    0.0000 H   0  0  0  0  0  0  0  0  0  0  0  0
   -1.2238    1.9774    0.0000 H   0  0  0  0  0  0  0  0  0  0  0  0
   -2.1674    1.4368    0.0000 H   0  0  0  0  0  0  0  0  0  0  0  0
   -1.9936   -0.6162    0.0000 H   0  0  0  0  0  0  0  0  0  0  0  0
   -2.9231   -0.0516    0.0000 H   0  0  0  0  0  0  0  0  0  0  0  0
   -3.7660    2.9172    0.0000 H   0  0  0  0  0  0  0  0  0  0  0  0
   -1.8488    2.3426    0.0000 H   0  0  0  0  0  0  0  0  0  0  0  0
   -5.3608    2.0770    0.0000 H   0  0  0  0  0  0  0  0  0  0  0  0
   -6.4328    1.3219    0.0000 H   0  0  0  0  0  0  0  0  0  0  0  0
   -6.3477   -0.3812    0.0000 H   0  0  0  0  0  0  0  0  0  0  0  0
    2.3634    0.6545    0.0000 H   0  0  0  0  0  0  0  0  0  0  0  0
    2.1236   -1.2737    0.0000 H   0  0  0  0  0  0  0  0  0  0  0  0
    3.7406    0.7400    0.0000 H   0  0  0  0  0  0  0  0  0  0  0  0
    4.6726    0.2183    0.0000 H   0  0  0  0  0  0  0  0  0  0  0  0
    4.5092   -1.8124    0.0000 H   0  0  0  0  0  0  0  0  0  0  0  0
    5.4281   -1.2680    0.0000 H   0  0  0  0  0  0  0  0  0  0  0  0
    5.8908   -1.6795    0.0000 H   0  0  0  0  0  0  0  0  0  0  0  0
    3.7462   -2.9169    0.0000 H   0  0  0  0  0  0  0  0  0  0  0  0
  1  2  2  0  0  0  0
  1  6  1  0  0  0  0
  1 32  1  0  0  0  0
  2  3  1  0  0  0  0
  2  7  1  0  0  0  0
  3  4  2  0  0  0  0
  3 33  1  0  0  0  0
  4  5  1  0  0  0  0
  4 34  1  0  0  0  0
  5  6  2  0  0  0  0
  5 19  1  0  0  0  0
  6 35  1  0  0  0  0
  7  8  1  0  0  0  0
  7 36  1  0  0  0  0
  7 37  1  0  0  0  0
  8  9  1  0  0  0  0
  8 38  1  0  0  0  0
  8 39  1  0  0  0  0
  9 10  1  0  0  0  0
  9 13  2  0  0  0  0
 10 11  2  0  0  0  0
 10 14  1  0  0  0  0
 11 12  1  0  0  0  0
 11 17  1  0  0  0  0
 12 13  1  0  0  0  0
 12 40  1  0  0  0  0
 13 41  1  0  0  0  0
 14 15  1  0  0  0  0
 14 31  2  0  0  0  0
 15 16  2  0  0  0  0
 16 17  1  0  0  0  0
 16 18  1  0  0  0  0
 17 42  1  0  0  0  0
 18 43  1  0  0  0  0
 18 44  1  0  0  0  0
 19 20  1  0  0  0  0
 19 26  2  0  0  0  0
 20 21  1  0  0  0  0
 20 45  1  0  0  0  0
 21 22  1  0  0  0  0
 21 27  1  0  0  0  0
 21 46  1  6  0  0  0
 22 23  1  0  0  0  0
 22 47  1  0  0  0  0
 22 48  1  0  0  0  0
 23 24  1  0  0  0  0
 23 49  1  0  0  0  0
 23 50  1  0  0  0  0
 24 25  1  0  0  0  0
 24 30  2  0  0  0  0
 25 51  1  0  0  0  0
 27 28  1  0  0  0  0
 27 29  2  0  0  0  0
 28 52  1  0  0  0  0
M  END
>  <DRUGBANK_ID>
DB00642

>  <SECONDARY_ACCESSION_NUMBERS>
APRD00573; EXPT02075

>  <COMMON_NAME>
Pemetrexed

>  <CAS_NUMBER>
137281-23-3

>  <UNII>
04Q9AIZ7NO

>  <SYNONYMS>
Pemetrexed

$$$$
