
 OpenBabel10282417072D

 44 46  0  0  0  0  0  0  0  0999 V2000
   -3.1024   -0.2124    0.0000 C   0  0  0  0  0  0  0  0  0  0  0  0
   -3.8169    0.2000    0.0000 C   0  0  0  0  0  0  0  0  0  0  0  0
   -4.5314   -0.2125    0.0000 C   0  0  0  0  0  0  0  0  0  0  0  0
   -4.5315   -1.0374    0.0000 C   0  0  0  0  0  0  0  0  0  0  0  0
   -3.8170   -1.4500    0.0000 C   0  0  0  0  0  0  0  0  0  0  0  0
   -3.1024   -1.0374    0.0000 C   0  0  0  0  0  0  0  0  0  0  0  0
   -2.3878   -1.4499    0.0000 S   0  0  0  0  0  0  0  0  0  0  0  0
   -2.3880    0.2001    0.0000 N   0  0  0  0  0  0  0  0  0  0  0  0
   -0.9590    0.2001    0.0000 C   0  0  0  0  0  0  0  0  0  0  0  0
   -1.6734   -0.2123    0.0000 C   0  0  0  0  0  0  0  0  0  0  0  0
   -1.6734   -1.0374    0.0000 C   0  0  0  0  0  0  0  0  0  0  0  0
   -0.9590   -1.4499    0.0000 C   0  0  0  0  0  0  0  0  0  0  0  0
   -0.2445   -1.0374    0.0000 C   0  0  0  0  0  0  0  0  0  0  0  0
   -0.2445   -0.2123    0.0000 C   0  0  0  0  0  0  0  0  0  0  0  0
   -2.3880    1.0251    0.0000 C   0  0  0  0  0  0  0  0  0  0  0  0
   -3.1025    1.4375    0.0000 C   0  0  3  0  0  0  0  0  0  0  0  0
   -3.8170    1.0250    0.0000 C   0  0  0  0  0  0  0  0  0  0  0  0
   -3.1026    2.2625    0.0000 N   0  3  0  0  0  0  0  0  0  0  0  0
   -3.8171    2.6750    0.0000 C   0  0  0  0  0  0  0  0  0  0  0  0
   -2.3881    2.6751    0.0000 C   0  0  0  0  0  0  0  0  0  0  0  0
   -3.1026    3.0875    0.0000 C   0  0  0  0  0  0  0  0  0  0  0  0
   -3.8170    1.2320    0.0000 H   0  0  0  0  0  0  0  0  0  0  0  0
   -5.4251    0.3036    0.0000 H   0  0  0  0  0  0  0  0  0  0  0  0
   -5.4253   -1.5533    0.0000 H   0  0  0  0  0  0  0  0  0  0  0  0
   -3.8170   -2.4820    0.0000 H   0  0  0  0  0  0  0  0  0  0  0  0
   -0.9590    1.2321    0.0000 H   0  0  0  0  0  0  0  0  0  0  0  0
   -0.9590   -2.4819    0.0000 H   0  0  0  0  0  0  0  0  0  0  0  0
    0.6492   -1.5534    0.0000 H   0  0  0  0  0  0  0  0  0  0  0  0
    0.6492    0.3038    0.0000 H   0  0  0  0  0  0  0  0  0  0  0  0
   -1.4614    1.5602    0.0000 H   0  0  0  0  0  0  0  0  0  0  0  0
   -2.3881    2.0951    0.0000 H   0  0  0  0  0  0  0  0  0  0  0  0
   -3.1024    0.3675    0.0000 H   0  0  0  0  0  0  0  0  0  0  0  0
   -4.7436    1.5600    0.0000 H   0  0  0  0  0  0  0  0  0  0  0  0
   -3.8170   -0.0450    0.0000 H   0  0  0  0  0  0  0  0  0  0  0  0
   -4.7437    0.4900    0.0000 H   0  0  0  0  0  0  0  0  0  0  0  0
   -3.8171    3.7450    0.0000 H   0  0  0  0  0  0  0  0  0  0  0  0
   -4.7437    2.1400    0.0000 H   0  0  0  0  0  0  0  0  0  0  0  0
   -4.7438    3.2100    0.0000 H   0  0  0  0  0  0  0  0  0  0  0  0
   -1.4614    2.1402    0.0000 H   0  0  0  0  0  0  0  0  0  0  0  0
   -2.3882    3.7451    0.0000 H   0  0  0  0  0  0  0  0  0  0  0  0
   -1.4615    3.2102    0.0000 H   0  0  0  0  0  0  0  0  0  0  0  0
   -2.1760    3.6225    0.0000 H   0  0  0  0  0  0  0  0  0  0  0  0
   -4.0292    3.6225    0.0000 H   0  0  0  0  0  0  0  0  0  0  0  0
   -3.1026    4.1575    0.0000 H   0  0  0  0  0  0  0  0  0  0  0  0
  1  2  2  0  0  0  0
  1  8  1  0  0  0  0
  2  3  1  0  0  0  0
  2 22  1  0  0  0  0
  3  4  2  0  0  0  0
  3 23  1  0  0  0  0
  4  5  1  0  0  0  0
  4 24  1  0  0  0  0
  5  6  2  0  0  0  0
  5 25  1  0  0  0  0
  6  1  1  0  0  0  0
  6  7  1  0  0  0  0
  7 11  1  0  0  0  0
  8 15  1  0  0  0  0
  9 10  2  0  0  0  0
  9 26  1  0  0  0  0
 10 11  1  0  0  0  0
 10  8  1  0  0  0  0
 11 12  2  0  0  0  0
 12 13  1  0  0  0  0
 12 27  1  0  0  0  0
 13 14  2  0  0  0  0
 13 28  1  0  0  0  0
 14  9  1  0  0  0  0
 14 29  1  0  0  0  0
 15 16  1  0  0  0  0
 15 30  1  0  0  0  0
 15 31  1  0  0  0  0
 16 17  1  0  0  0  0
 16 18  1  0  0  0  0
 16 32  1  0  0  0  0
 17 33  1  0  0  0  0
 17 34  1  0  0  0  0
 17 35  1  0  0  0  0
 18 19  1  0  0  0  0
 18 20  1  0  0  0  0
 18 21  1  0  0  0  0
 19 36  1  0  0  0  0
 19 37  1  0  0  0  0
 19 38  1  0  0  0  0
 20 39  1  0  0  0  0
 20 40  1  0  0  0  0
 20 41  1  0  0  0  0
 21 42  1  0  0  0  0
 21 43  1  0  0  0  0
 21 44  1  0  0  0  0
M  CHG  1  18   1
M  END
>  <DRUGBANK_ID>
DB13420

>  <COMMON_NAME>
Thiazinam

>  <CAS_NUMBER>
2338-21-8

>  <UNII>
666W2P28N2

>  <SYNONYMS>
Thiazinamium

$$$$
