
 OpenBabel10282417072D

102103  0  0  0  0  0  0  0  0999 V2000
   17.1473   -1.6500    0.0000 C   0  0  0  0  0  0  0  0  0  0  0  0
   -4.2868    4.9500    0.0000 C   0  0  0  0  0  0  0  0  0  0  0  0
   16.4328   -1.2375    0.0000 C   0  0  0  0  0  0  0  0  0  0  0  0
   -3.5724    4.5375    0.0000 C   0  0  0  0  0  0  0  0  0  0  0  0
   15.7184   -1.6500    0.0000 C   0  0  0  0  0  0  0  0  0  0  0  0
   -3.5724    3.7125    0.0000 C   0  0  0  0  0  0  0  0  0  0  0  0
   15.0039   -1.2375    0.0000 C   0  0  0  0  0  0  0  0  0  0  0  0
   -2.8579    3.3000    0.0000 C   0  0  0  0  0  0  0  0  0  0  0  0
   14.2894   -1.6500    0.0000 C   0  0  0  0  0  0  0  0  0  0  0  0
   -2.8579    2.4750    0.0000 C   0  0  0  0  0  0  0  0  0  0  0  0
    5.7158    0.0000    0.0000 C   0  0  0  0  0  0  0  0  0  0  0  0
    5.0013   -0.4125    0.0000 C   0  0  0  0  0  0  0  0  0  0  0  0
    6.4302   -0.4125    0.0000 C   0  0  0  0  0  0  0  0  0  0  0  0
    4.2868    0.0000    0.0000 C   0  0  0  0  0  0  0  0  0  0  0  0
   13.5749   -1.2375    0.0000 C   0  0  0  0  0  0  0  0  0  0  0  0
   -2.1434    2.0625    0.0000 C   0  0  0  0  0  0  0  0  0  0  0  0
    7.1447    0.0000    0.0000 C   0  0  0  0  0  0  0  0  0  0  0  0
    3.5724   -0.4125    0.0000 C   0  0  0  0  0  0  0  0  0  0  0  0
   12.8605   -1.6500    0.0000 C   0  0  0  0  0  0  0  0  0  0  0  0
   -2.1434    1.2375    0.0000 C   0  0  0  0  0  0  0  0  0  0  0  0
    7.8592   -0.4125    0.0000 C   0  0  0  0  0  0  0  0  0  0  0  0
    2.8579    0.0000    0.0000 C   0  0  0  0  0  0  0  0  0  0  0  0
   10.7171   -0.4125    0.0000 C   0  0  0  0  0  0  0  0  0  0  0  0
   10.0026   -1.6500    0.0000 C   0  0  0  0  0  0  0  0  0  0  0  0
   -0.0000    0.0000    0.0000 C   0  0  0  0  0  0  0  0  0  0  0  0
    0.7145    1.2375    0.0000 C   0  0  0  0  0  0  0  0  0  0  0  0
   12.1460   -1.2375    0.0000 C   0  0  0  0  0  0  0  0  0  0  0  0
   -1.4289    0.8250    0.0000 C   0  0  0  0  0  0  0  0  0  0  0  0
    8.5737    0.0000    0.0000 C   0  0  0  0  0  0  0  0  0  0  0  0
    2.1434   -0.4125    0.0000 C   0  0  0  0  0  0  0  0  0  0  0  0
   10.0026    0.0000    0.0000 C   0  0  0  0  0  0  0  0  0  0  0  0
    9.2881   -1.2375    0.0000 C   0  0  0  0  0  0  0  0  0  0  0  0
    0.7145   -0.4125    0.0000 C   0  0  0  0  0  0  0  0  0  0  0  0
    1.4289    0.8250    0.0000 C   0  0  0  0  0  0  0  0  0  0  0  0
   10.7171   -1.2375    0.0000 C   0  0  0  0  0  0  0  0  0  0  0  0
    0.0000    0.8250    0.0000 C   0  0  0  0  0  0  0  0  0  0  0  0
   11.4315   -1.6500    0.0000 N   0  0  0  0  0  0  0  0  0  0  0  0
   -0.7145    1.2375    0.0000 N   0  0  0  0  0  0  0  0  0  0  0  0
    9.2881   -0.4125    0.0000 N   0  0  0  0  0  0  0  0  0  0  0  0
    1.4289    0.0000    0.0000 N   0  0  0  0  0  0  0  0  0  0  0  0
   17.1473   -2.7200    0.0000 H   0  0  0  0  0  0  0  0  0  0  0  0
   18.0739   -1.1150    0.0000 H   0  0  0  0  0  0  0  0  0  0  0  0
   18.0740   -2.1850    0.0000 H   0  0  0  0  0  0  0  0  0  0  0  0
   -4.2868    6.0200    0.0000 H   0  0  0  0  0  0  0  0  0  0  0  0
   -5.2135    4.4150    0.0000 H   0  0  0  0  0  0  0  0  0  0  0  0
   -5.2134    5.4850    0.0000 H   0  0  0  0  0  0  0  0  0  0  0  0
   16.4328   -0.1675    0.0000 H   0  0  0  0  0  0  0  0  0  0  0  0
   15.5061   -0.7025    0.0000 H   0  0  0  0  0  0  0  0  0  0  0  0
   -2.6457    5.0725    0.0000 H   0  0  0  0  0  0  0  0  0  0  0  0
   -2.6458    4.0025    0.0000 H   0  0  0  0  0  0  0  0  0  0  0  0
   15.7184   -2.7200    0.0000 H   0  0  0  0  0  0  0  0  0  0  0  0
   14.7918   -2.1850    0.0000 H   0  0  0  0  0  0  0  0  0  0  0  0
   -4.4990    3.1775    0.0000 H   0  0  0  0  0  0  0  0  0  0  0  0
   -3.5724    2.6425    0.0000 H   0  0  0  0  0  0  0  0  0  0  0  0
   15.0039   -0.1675    0.0000 H   0  0  0  0  0  0  0  0  0  0  0  0
   14.0773   -0.7025    0.0000 H   0  0  0  0  0  0  0  0  0  0  0  0
   -1.9313    3.8350    0.0000 H   0  0  0  0  0  0  0  0  0  0  0  0
   -1.9313    2.7650    0.0000 H   0  0  0  0  0  0  0  0  0  0  0  0
   14.2894   -2.7200    0.0000 H   0  0  0  0  0  0  0  0  0  0  0  0
   13.3628   -2.1850    0.0000 H   0  0  0  0  0  0  0  0  0  0  0  0
   -3.7845    1.9400    0.0000 H   0  0  0  0  0  0  0  0  0  0  0  0
   -2.8579    1.4050    0.0000 H   0  0  0  0  0  0  0  0  0  0  0  0
    5.7158    1.0700    0.0000 H   0  0  0  0  0  0  0  0  0  0  0  0
    6.6425    0.5350    0.0000 H   0  0  0  0  0  0  0  0  0  0  0  0
    5.0013   -1.4825    0.0000 H   0  0  0  0  0  0  0  0  0  0  0  0
    4.0747   -0.9475    0.0000 H   0  0  0  0  0  0  0  0  0  0  0  0
    6.4302   -1.4825    0.0000 H   0  0  0  0  0  0  0  0  0  0  0  0
    7.3568   -0.9475    0.0000 H   0  0  0  0  0  0  0  0  0  0  0  0
    4.2868    1.0700    0.0000 H   0  0  0  0  0  0  0  0  0  0  0  0
    3.3601    0.5350    0.0000 H   0  0  0  0  0  0  0  0  0  0  0  0
   13.5749   -0.1675    0.0000 H   0  0  0  0  0  0  0  0  0  0  0  0
   12.6482   -0.7025    0.0000 H   0  0  0  0  0  0  0  0  0  0  0  0
   -1.2168    2.5975    0.0000 H   0  0  0  0  0  0  0  0  0  0  0  0
   -1.2168    1.5275    0.0000 H   0  0  0  0  0  0  0  0  0  0  0  0
    7.1447    1.0700    0.0000 H   0  0  0  0  0  0  0  0  0  0  0  0
    8.0713    0.5350    0.0000 H   0  0  0  0  0  0  0  0  0  0  0  0
    3.5724   -1.4825    0.0000 H   0  0  0  0  0  0  0  0  0  0  0  0
    2.6458   -0.9475    0.0000 H   0  0  0  0  0  0  0  0  0  0  0  0
   12.8605   -2.7200    0.0000 H   0  0  0  0  0  0  0  0  0  0  0  0
   11.9339   -2.1850    0.0000 H   0  0  0  0  0  0  0  0  0  0  0  0
   -3.0700    0.7025    0.0000 H   0  0  0  0  0  0  0  0  0  0  0  0
   -2.1434    0.1675    0.0000 H   0  0  0  0  0  0  0  0  0  0  0  0
    7.8592   -1.4825    0.0000 H   0  0  0  0  0  0  0  0  0  0  0  0
    8.7858   -0.9475    0.0000 H   0  0  0  0  0  0  0  0  0  0  0  0
    2.8579    1.0700    0.0000 H   0  0  0  0  0  0  0  0  0  0  0  0
    1.9313    0.5350    0.0000 H   0  0  0  0  0  0  0  0  0  0  0  0
   11.6108    0.1035    0.0000 H   0  0  0  0  0  0  0  0  0  0  0  0
   10.0026   -2.6820    0.0000 H   0  0  0  0  0  0  0  0  0  0  0  0
   -0.8937   -0.5160    0.0000 H   0  0  0  0  0  0  0  0  0  0  0  0
    0.7145    2.2695    0.0000 H   0  0  0  0  0  0  0  0  0  0  0  0
   12.1460   -0.1675    0.0000 H   0  0  0  0  0  0  0  0  0  0  0  0
   11.2194   -0.7025    0.0000 H   0  0  0  0  0  0  0  0  0  0  0  0
   -1.4289   -0.2450    0.0000 H   0  0  0  0  0  0  0  0  0  0  0  0
   -0.5022    0.2900    0.0000 H   0  0  0  0  0  0  0  0  0  0  0  0
    8.5737    1.0700    0.0000 H   0  0  0  0  0  0  0  0  0  0  0  0
    9.5004    0.5350    0.0000 H   0  0  0  0  0  0  0  0  0  0  0  0
    2.1434   -1.4825    0.0000 H   0  0  0  0  0  0  0  0  0  0  0  0
    1.2168   -0.9475    0.0000 H   0  0  0  0  0  0  0  0  0  0  0  0
   10.0026    1.0320    0.0000 H   0  0  0  0  0  0  0  0  0  0  0  0
    8.3944   -1.7535    0.0000 H   0  0  0  0  0  0  0  0  0  0  0  0
    0.7145   -1.4445    0.0000 H   0  0  0  0  0  0  0  0  0  0  0  0
    2.3226    1.3410    0.0000 H   0  0  0  0  0  0  0  0  0  0  0  0
  1 41  1  0  0  0  0
  1 42  1  0  0  0  0
  1 43  1  0  0  0  0
  2 44  1  0  0  0  0
  2 45  1  0  0  0  0
  2 46  1  0  0  0  0
  3  1  1  0  0  0  0
  3 47  1  0  0  0  0
  3 48  1  0  0  0  0
  4  2  1  0  0  0  0
  4 49  1  0  0  0  0
  4 50  1  0  0  0  0
  5  3  1  0  0  0  0
  5 51  1  0  0  0  0
  5 52  1  0  0  0  0
  6  4  1  0  0  0  0
  6 53  1  0  0  0  0
  6 54  1  0  0  0  0
  7  5  1  0  0  0  0
  7 55  1  0  0  0  0
  7 56  1  0  0  0  0
  8  6  1  0  0  0  0
  8 57  1  0  0  0  0
  8 58  1  0  0  0  0
  9  7  1  0  0  0  0
  9 59  1  0  0  0  0
  9 60  1  0  0  0  0
 10  8  1  0  0  0  0
 10 61  1  0  0  0  0
 10 62  1  0  0  0  0
 11 63  1  0  0  0  0
 11 64  1  0  0  0  0
 12 11  1  0  0  0  0
 12 65  1  0  0  0  0
 12 66  1  0  0  0  0
 13 11  1  0  0  0  0
 13 67  1  0  0  0  0
 13 68  1  0  0  0  0
 14 12  1  0  0  0  0
 14 69  1  0  0  0  0
 14 70  1  0  0  0  0
 15  9  1  0  0  0  0
 15 71  1  0  0  0  0
 15 72  1  0  0  0  0
 16 10  1  0  0  0  0
 16 73  1  0  0  0  0
 16 74  1  0  0  0  0
 17 13  1  0  0  0  0
 17 75  1  0  0  0  0
 17 76  1  0  0  0  0
 18 14  1  0  0  0  0
 18 77  1  0  0  0  0
 18 78  1  0  0  0  0
 19 15  1  0  0  0  0
 19 79  1  0  0  0  0
 19 80  1  0  0  0  0
 20 16  1  0  0  0  0
 20 81  1  0  0  0  0
 20 82  1  0  0  0  0
 21 17  1  0  0  0  0
 21 83  1  0  0  0  0
 21 84  1  0  0  0  0
 22 18  1  0  0  0  0
 22 85  1  0  0  0  0
 22 86  1  0  0  0  0
 23 87  1  0  0  0  0
 24 88  1  0  0  0  0
 25 89  1  0  0  0  0
 26 90  1  0  0  0  0
 27 19  1  0  0  0  0
 27 91  1  0  0  0  0
 27 92  1  0  0  0  0
 28 20  1  0  0  0  0
 28 93  1  0  0  0  0
 28 94  1  0  0  0  0
 29 21  1  0  0  0  0
 29 95  1  0  0  0  0
 29 96  1  0  0  0  0
 30 22  1  0  0  0  0
 30 97  1  0  0  0  0
 30 98  1  0  0  0  0
 31 23  2  0  0  0  0
 31 99  1  0  0  0  0
 32 24  2  0  0  0  0
 32100  1  0  0  0  0
 33 25  2  0  0  0  0
 33101  1  0  0  0  0
 34 26  2  0  0  0  0
 34102  1  0  0  0  0
 35 23  1  0  0  0  0
 35 24  1  0  0  0  0
 36 25  1  0  0  0  0
 36 26  1  0  0  0  0
 37 27  1  0  0  0  0
 37 35  2  0  0  0  0
 38 28  1  0  0  0  0
 38 36  2  0  0  0  0
 39 29  1  0  0  0  0
 39 31  1  0  0  0  0
 39 32  1  0  0  0  0
 40 30  1  0  0  0  0
 40 33  1  0  0  0  0
 40 34  1  0  0  0  0
M  END
>  <DRUGBANK_ID>
DB12624

>  <COMMON_NAME>
Octenidine

>  <CAS_NUMBER>
71251-02-0

>  <UNII>
OZE0372S5A

>  <SYNONYMS>
Octenidine

$$$$
