
 OpenBabel10282417072D

 61 62  0  0  1  0  0  0  0  0999 V2000
    2.4751    4.5680    0.0000 Cl  0  0  0  0  0  0  0  0  0  0  0  0
    0.0000    3.5112    0.0000 Cl  0  0  0  0  0  0  0  0  0  0  0  0
    6.0475    1.6805    0.0000 N   0  0  0  0  0  0  0  0  0  0  0  0
    6.7620    2.0930    0.0000 C   0  0  0  0  0  0  0  0  0  0  0  0
    7.4765    1.6805    0.0000 C   0  0  0  0  0  0  0  0  0  0  0  0
    6.7620    2.9180    0.0000 C   0  0  0  0  0  0  0  0  0  0  0  0
    8.1909    2.0930    0.0000 C   0  0  0  0  0  0  0  0  0  0  0  0
    7.4765    3.3305    0.0000 C   0  0  0  0  0  0  0  0  0  0  0  0
    8.1909    2.9180    0.0000 C   0  0  0  0  0  0  0  0  0  0  0  0
    3.9041    5.3931    0.0000 C   0  0  0  0  0  0  0  0  0  0  0  0
    3.1895    5.8056    0.0000 C   0  0  0  0  0  0  0  0  0  0  0  0
    4.6185    5.8056    0.0000 C   0  0  0  0  0  0  0  0  0  0  0  0
    3.1895    6.6306    0.0000 C   0  0  0  0  0  0  0  0  0  0  0  0
    4.6185    6.6306    0.0000 C   0  0  0  0  0  0  0  0  0  0  0  0
    3.9041    7.0431    0.0000 C   0  0  0  0  0  0  0  0  0  0  0  0
    5.3330    2.0930    0.0000 C   0  0  0  0  0  0  0  0  0  0  0  0
    3.9041    4.5680    0.0000 C   0  0  0  0  0  0  0  0  0  0  0  0
    6.0475    0.8555    0.0000 C   0  0  0  0  0  0  0  0  0  0  0  0
    4.6185    1.6805    0.0000 C   0  0  0  0  0  0  0  0  0  0  0  0
    3.1895    4.1555    0.0000 C   0  0  0  0  0  0  0  0  0  0  0  0
    4.6185    4.1555    0.0000 C   0  0  0  0  0  0  0  0  0  0  0  0
    6.7620    0.4430    0.0000 C   0  0  0  0  0  0  0  0  0  0  0  0
    3.9041    2.9180    0.0000 C   0  0  0  0  0  0  0  0  0  0  0  0
    3.1895    3.3305    0.0000 C   0  0  0  0  0  0  0  0  0  0  0  0
    4.6185    3.3305    0.0000 C   0  0  0  0  0  0  0  0  0  0  0  0
    3.9041    2.0930    0.0000 C   0  0  0  0  0  0  0  0  0  0  0  0
    1.2280    3.5112    0.0000 H   0  0  0  0  0  0  0  0  0  0  0  0
    7.6886    2.6280    0.0000 H   0  0  0  0  0  0  0  0  0  0  0  0
    7.4765    0.6105    0.0000 H   0  0  0  0  0  0  0  0  0  0  0  0
    8.4032    1.1455    0.0000 H   0  0  0  0  0  0  0  0  0  0  0  0
    5.8354    3.4530    0.0000 H   0  0  0  0  0  0  0  0  0  0  0  0
    6.7620    3.9880    0.0000 H   0  0  0  0  0  0  0  0  0  0  0  0
    9.1176    1.5580    0.0000 H   0  0  0  0  0  0  0  0  0  0  0  0
    9.1175    2.6280    0.0000 H   0  0  0  0  0  0  0  0  0  0  0  0
    7.4765    4.4005    0.0000 H   0  0  0  0  0  0  0  0  0  0  0  0
    8.4032    3.8655    0.0000 H   0  0  0  0  0  0  0  0  0  0  0  0
    9.1176    3.4530    0.0000 H   0  0  0  0  0  0  0  0  0  0  0  0
    8.1909    3.9880    0.0000 H   0  0  0  0  0  0  0  0  0  0  0  0
    4.8308    4.8581    0.0000 H   0  0  0  0  0  0  0  0  0  0  0  0
    2.2629    5.2706    0.0000 H   0  0  0  0  0  0  0  0  0  0  0  0
    2.2628    6.3406    0.0000 H   0  0  0  0  0  0  0  0  0  0  0  0
    5.5452    5.2706    0.0000 H   0  0  0  0  0  0  0  0  0  0  0  0
    5.5451    6.3406    0.0000 H   0  0  0  0  0  0  0  0  0  0  0  0
    2.2629    7.1656    0.0000 H   0  0  0  0  0  0  0  0  0  0  0  0
    3.1896    7.7006    0.0000 H   0  0  0  0  0  0  0  0  0  0  0  0
    5.5452    7.1656    0.0000 H   0  0  0  0  0  0  0  0  0  0  0  0
    4.6185    7.7006    0.0000 H   0  0  0  0  0  0  0  0  0  0  0  0
    3.9042    8.1131    0.0000 H   0  0  0  0  0  0  0  0  0  0  0  0
    4.8308    7.5781    0.0000 H   0  0  0  0  0  0  0  0  0  0  0  0
    5.3330    3.1630    0.0000 H   0  0  0  0  0  0  0  0  0  0  0  0
    4.4064    2.6280    0.0000 H   0  0  0  0  0  0  0  0  0  0  0  0
    5.1209    0.3205    0.0000 H   0  0  0  0  0  0  0  0  0  0  0  0
    6.0475   -0.2145    0.0000 H   0  0  0  0  0  0  0  0  0  0  0  0
    4.6185    0.6485    0.0000 H   0  0  0  0  0  0  0  0  0  0  0  0
    5.5122    4.6715    0.0000 H   0  0  0  0  0  0  0  0  0  0  0  0
    6.7620   -0.6270    0.0000 H   0  0  0  0  0  0  0  0  0  0  0  0
    7.6886    0.9780    0.0000 H   0  0  0  0  0  0  0  0  0  0  0  0
    7.6887   -0.0920    0.0000 H   0  0  0  0  0  0  0  0  0  0  0  0
    2.2958    2.8145    0.0000 H   0  0  0  0  0  0  0  0  0  0  0  0
    5.5122    2.8145    0.0000 H   0  0  0  0  0  0  0  0  0  0  0  0
    3.0104    1.5770    0.0000 H   0  0  0  0  0  0  0  0  0  0  0  0
  1 20  1  0  0  0  0
  2 27  1  0  0  0  0
  3  4  1  0  0  0  0
  3 16  1  0  0  0  0
  3 18  1  0  0  0  0
  4  5  1  0  0  0  0
  4  6  1  0  0  0  0
  4 28  1  0  0  0  0
  5  7  1  0  0  0  0
  5 29  1  0  0  0  0
  5 30  1  0  0  0  0
  6  8  1  0  0  0  0
  6 31  1  0  0  0  0
  6 32  1  0  0  0  0
  7  9  1  0  0  0  0
  7 33  1  0  0  0  0
  7 34  1  0  0  0  0
  8  9  1  0  0  0  0
  8 35  1  0  0  0  0
  8 36  1  0  0  0  0
  9 37  1  0  0  0  0
  9 38  1  0  0  0  0
 10 11  1  0  0  0  0
 10 12  1  0  0  0  0
 10 17  1  0  0  0  0
 10 39  1  0  0  0  0
 11 13  1  0  0  0  0
 11 40  1  0  0  0  0
 11 41  1  0  0  0  0
 12 14  1  0  0  0  0
 12 42  1  0  0  0  0
 12 43  1  0  0  0  0
 13 15  1  0  0  0  0
 13 44  1  0  0  0  0
 13 45  1  0  0  0  0
 14 15  1  0  0  0  0
 14 46  1  0  0  0  0
 14 47  1  0  0  0  0
 15 48  1  0  0  0  0
 15 49  1  0  0  0  0
 16 19  1  0  0  0  0
 16 50  1  0  0  0  0
 16 51  1  0  0  0  0
 17 20  2  0  0  0  0
 17 21  1  0  0  0  0
 18 22  1  0  0  0  0
 18 52  1  0  0  0  0
 18 53  1  0  0  0  0
 19 26  2  0  0  0  0
 19 54  1  0  0  0  0
 20 24  1  0  0  0  0
 21 25  2  0  0  0  0
 21 55  1  0  0  0  0
 22 56  1  0  0  0  0
 22 57  1  0  0  0  0
 22 58  1  0  0  0  0
 23 24  2  0  0  0  0
 23 25  1  0  0  0  0
 23 26  1  0  0  0  0
 24 59  1  0  0  0  0
 25 60  1  0  0  0  0
 26 61  1  0  0  0  0
M  END
>  <DRUGBANK_ID>
DB05792

>  <COMMON_NAME>
Arylacenamide

>  <CAS_NUMBER>
132173-07-0

>  <UNII>
9K6U3I1UR0

$$$$
