
 OpenBabel10282417072D

 11 10  0  0  0  0  0  0  0  0999 V2000
    0.3572   -0.2062    0.0000 C   0  0  0  0  0  0  0  0  0  0  0  0
    1.0718   -0.6187    0.0000 N   0  0  0  0  0  0  0  0  0  0  0  0
    0.3572    0.6187    0.0000 O   0  0  0  0  0  0  0  0  0  0  0  0
   -0.3572   -0.6187    0.0000 C   0  0  0  0  0  0  0  0  0  0  0  0
   -1.0717   -0.2062    0.0000 N   0  0  0  0  0  0  0  0  0  0  0  0
    1.0719   -1.6032    0.0000 H   0  0  0  0  0  0  0  0  0  0  0  0
    1.9244   -0.1264    0.0000 H   0  0  0  0  0  0  0  0  0  0  0  0
   -0.3572   -1.6887    0.0000 H   0  0  0  0  0  0  0  0  0  0  0  0
   -1.2838   -1.1537    0.0000 H   0  0  0  0  0  0  0  0  0  0  0  0
   -1.0717    0.8138    0.0000 H   0  0  0  0  0  0  0  0  0  0  0  0
   -1.9550   -0.7162    0.0000 H   0  0  0  0  0  0  0  0  0  0  0  0
  1  2  1  0  0  0  0
  2  6  1  0  0  0  0
  2  7  1  0  0  0  0
  3  1  2  0  0  0  0
  4  1  1  0  0  0  0
  4  5  1  0  0  0  0
  4  8  1  0  0  0  0
  4  9  1  0  0  0  0
  5 10  1  0  0  0  0
  5 11  1  0  0  0  0
M  END
>  <DRUGBANK_ID>
DB03636

>  <SECONDARY_ACCESSION_NUMBERS>
EXPT01617

>  <COMMON_NAME>
Glycinamide

>  <CAS_NUMBER>
598-41-4

>  <UNII>
4JDT453NWO

>  <SYNONYMS>
Aminomethylamide; Glycine amide

$$$$
