
 OpenBabel10282417072D

 78 83  0  0  0  0  0  0  0  0999 V2000
    2.7117    2.8038    0.0000 O   0  0  0  0  0  0  0  0  0  0  0  0
   -2.7117   -2.8038    0.0000 O   0  0  0  0  0  0  0  0  0  0  0  0
    0.6767    0.7999    0.0000 N   0  0  0  0  0  0  0  0  0  0  0  0
   -0.6767   -0.7999    0.0000 N   0  0  0  0  0  0  0  0  0  0  0  0
    1.3397    2.7880    0.0000 N   0  0  0  0  0  0  0  0  0  0  0  0
   -1.3397   -2.7880    0.0000 N   0  0  0  0  0  0  0  0  0  0  0  0
    3.4060    4.0115    0.0000 N   0  0  0  0  0  0  0  0  0  0  0  0
   -3.4061   -4.0115    0.0000 N   0  0  0  0  0  0  0  0  0  0  0  0
    3.4060    5.5957    0.0000 N   0  0  0  0  0  0  0  0  0  0  0  0
   -3.4061   -5.5957    0.0000 N   0  0  0  0  0  0  0  0  0  0  0  0
   -0.0045    0.3960    0.0000 C   0  0  0  0  0  0  0  0  0  0  0  0
    0.0045   -0.3960    0.0000 C   0  0  0  0  0  0  0  0  0  0  0  0
    0.6675    1.5920    0.0000 C   0  0  0  0  0  0  0  0  0  0  0  0
   -0.6676   -1.5920    0.0000 C   0  0  0  0  0  0  0  0  0  0  0  0
    1.3489    1.9959    0.0000 C   0  0  0  0  0  0  0  0  0  0  0  0
   -1.3489   -1.9959    0.0000 C   0  0  0  0  0  0  0  0  0  0  0  0
    2.7200    4.4075    0.0000 C   0  0  0  0  0  0  0  0  0  0  0  0
   -2.7200   -4.4075    0.0000 C   0  0  0  0  0  0  0  0  0  0  0  0
    2.0120    3.9840    0.0000 C   0  0  0  0  0  0  0  0  0  0  0  0
   -2.0120   -3.9840    0.0000 C   0  0  0  0  0  0  0  0  0  0  0  0
    2.7200    5.1996    0.0000 C   0  0  0  0  0  0  0  0  0  0  0  0
   -2.7200   -5.1996    0.0000 C   0  0  0  0  0  0  0  0  0  0  0  0
    4.0920    4.4075    0.0000 C   0  0  0  0  0  0  0  0  0  0  0  0
   -4.0920   -4.4075    0.0000 C   0  0  0  0  0  0  0  0  0  0  0  0
    2.0211    3.1919    0.0000 C   0  0  0  0  0  0  0  0  0  0  0  0
   -2.0212   -3.1919    0.0000 C   0  0  0  0  0  0  0  0  0  0  0  0
    4.0920    5.1996    0.0000 C   0  0  0  0  0  0  0  0  0  0  0  0
   -4.0920   -5.1996    0.0000 C   0  0  0  0  0  0  0  0  0  0  0  0
    4.8001    3.9840    0.0000 C   0  0  0  0  0  0  0  0  0  0  0  0
   -4.8001   -3.9840    0.0000 C   0  0  0  0  0  0  0  0  0  0  0  0
    1.2942    4.3910    0.0000 C   0  0  0  0  0  0  0  0  0  0  0  0
   -1.2942   -4.3910    0.0000 C   0  0  0  0  0  0  0  0  0  0  0  0
    2.0120    5.6230    0.0000 C   0  0  0  0  0  0  0  0  0  0  0  0
   -2.0120   -5.6230    0.0000 C   0  0  0  0  0  0  0  0  0  0  0  0
    1.2942    5.2161    0.0000 C   0  0  0  0  0  0  0  0  0  0  0  0
   -1.2942   -5.2161    0.0000 C   0  0  0  0  0  0  0  0  0  0  0  0
    4.8001    5.6230    0.0000 C   0  0  0  0  0  0  0  0  0  0  0  0
   -4.8001   -5.6230    0.0000 C   0  0  0  0  0  0  0  0  0  0  0  0
    5.5178    4.3910    0.0000 C   0  0  0  0  0  0  0  0  0  0  0  0
   -5.5178   -4.3910    0.0000 C   0  0  0  0  0  0  0  0  0  0  0  0
    5.5178    5.2161    0.0000 C   0  0  0  0  0  0  0  0  0  0  0  0
   -5.5178   -5.2161    0.0000 C   0  0  0  0  0  0  0  0  0  0  0  0
    4.7908    3.1919    0.0000 C   0  0  0  0  0  0  0  0  0  0  0  0
   -4.7909   -3.1919    0.0000 C   0  0  0  0  0  0  0  0  0  0  0  0
    1.1049    0.5593    0.0000 H   0  0  0  0  0  0  0  0  0  0  0  0
   -1.1049   -0.5593    0.0000 H   0  0  0  0  0  0  0  0  0  0  0  0
    0.9117    3.0286    0.0000 H   0  0  0  0  0  0  0  0  0  0  0  0
   -0.9117   -3.0286    0.0000 H   0  0  0  0  0  0  0  0  0  0  0  0
   -0.9372    0.9203    0.0000 H   0  0  0  0  0  0  0  0  0  0  0  0
   -0.9250   -0.1495    0.0000 H   0  0  0  0  0  0  0  0  0  0  0  0
    0.9372   -0.9203    0.0000 H   0  0  0  0  0  0  0  0  0  0  0  0
    0.9250    0.1495    0.0000 H   0  0  0  0  0  0  0  0  0  0  0  0
   -0.2653    2.1163    0.0000 H   0  0  0  0  0  0  0  0  0  0  0  0
    0.6552    2.6619    0.0000 H   0  0  0  0  0  0  0  0  0  0  0  0
    0.2651   -2.1163    0.0000 H   0  0  0  0  0  0  0  0  0  0  0  0
   -0.6553   -2.6619    0.0000 H   0  0  0  0  0  0  0  0  0  0  0  0
    2.2817    1.4716    0.0000 H   0  0  0  0  0  0  0  0  0  0  0  0
    1.3612    0.9260    0.0000 H   0  0  0  0  0  0  0  0  0  0  0  0
   -2.2817   -1.4717    0.0000 H   0  0  0  0  0  0  0  0  0  0  0  0
   -1.3613   -0.9260    0.0000 H   0  0  0  0  0  0  0  0  0  0  0  0
    0.4025    3.8715    0.0000 H   0  0  0  0  0  0  0  0  0  0  0  0
   -0.4025   -3.8715    0.0000 H   0  0  0  0  0  0  0  0  0  0  0  0
    2.0240    6.6549    0.0000 H   0  0  0  0  0  0  0  0  0  0  0  0
   -2.0240   -6.6549    0.0000 H   0  0  0  0  0  0  0  0  0  0  0  0
    0.4025    5.7356    0.0000 H   0  0  0  0  0  0  0  0  0  0  0  0
   -0.4025   -5.7356    0.0000 H   0  0  0  0  0  0  0  0  0  0  0  0
    4.7882    6.6549    0.0000 H   0  0  0  0  0  0  0  0  0  0  0  0
   -4.7882   -6.6549    0.0000 H   0  0  0  0  0  0  0  0  0  0  0  0
    6.4095    3.8715    0.0000 H   0  0  0  0  0  0  0  0  0  0  0  0
   -6.4095   -3.8715    0.0000 H   0  0  0  0  0  0  0  0  0  0  0  0
    6.4095    5.7356    0.0000 H   0  0  0  0  0  0  0  0  0  0  0  0
   -6.4095   -5.7356    0.0000 H   0  0  0  0  0  0  0  0  0  0  0  0
    3.8579    2.6678    0.0000 H   0  0  0  0  0  0  0  0  0  0  0  0
    5.7111    2.6461    0.0000 H   0  0  0  0  0  0  0  0  0  0  0  0
    4.7782    2.1220    0.0000 H   0  0  0  0  0  0  0  0  0  0  0  0
   -3.8581   -2.6677    0.0000 H   0  0  0  0  0  0  0  0  0  0  0  0
   -5.7113   -2.6462    0.0000 H   0  0  0  0  0  0  0  0  0  0  0  0
   -4.7785   -2.1220    0.0000 H   0  0  0  0  0  0  0  0  0  0  0  0
  1 25  2  0  0  0  0
  2 26  2  0  0  0  0
  3 11  1  0  0  0  0
  3 13  1  0  0  0  0
  3 45  1  0  0  0  0
  4 12  1  0  0  0  0
  4 14  1  0  0  0  0
  4 46  1  0  0  0  0
  5 15  1  0  0  0  0
  5 25  1  0  0  0  0
  5 47  1  0  0  0  0
  6 16  1  0  0  0  0
  6 26  1  0  0  0  0
  6 48  1  0  0  0  0
  7 17  2  0  0  0  0
  7 23  1  0  0  0  0
  8 18  2  0  0  0  0
  8 24  1  0  0  0  0
  9 21  2  0  0  0  0
  9 27  1  0  0  0  0
 10 22  2  0  0  0  0
 10 28  1  0  0  0  0
 11 12  1  0  0  0  0
 11 49  1  0  0  0  0
 11 50  1  0  0  0  0
 12 51  1  0  0  0  0
 12 52  1  0  0  0  0
 13 15  1  0  0  0  0
 13 53  1  0  0  0  0
 13 54  1  0  0  0  0
 14 16  1  0  0  0  0
 14 55  1  0  0  0  0
 14 56  1  0  0  0  0
 15 57  1  0  0  0  0
 15 58  1  0  0  0  0
 16 59  1  0  0  0  0
 16 60  1  0  0  0  0
 17 19  1  0  0  0  0
 17 21  1  0  0  0  0
 18 20  1  0  0  0  0
 18 22  1  0  0  0  0
 19 25  1  0  0  0  0
 19 31  2  0  0  0  0
 20 26  1  0  0  0  0
 20 32  2  0  0  0  0
 21 33  1  0  0  0  0
 22 34  1  0  0  0  0
 23 27  1  0  0  0  0
 23 29  2  0  0  0  0
 24 28  1  0  0  0  0
 24 30  2  0  0  0  0
 27 37  2  0  0  0  0
 28 38  2  0  0  0  0
 29 39  1  0  0  0  0
 29 43  1  0  0  0  0
 30 40  1  0  0  0  0
 30 44  1  0  0  0  0
 31 35  1  0  0  0  0
 31 61  1  0  0  0  0
 32 36  1  0  0  0  0
 32 62  1  0  0  0  0
 33 35  2  0  0  0  0
 33 63  1  0  0  0  0
 34 36  2  0  0  0  0
 34 64  1  0  0  0  0
 35 65  1  0  0  0  0
 36 66  1  0  0  0  0
 37 41  1  0  0  0  0
 37 67  1  0  0  0  0
 38 42  1  0  0  0  0
 38 68  1  0  0  0  0
 39 41  2  0  0  0  0
 39 69  1  0  0  0  0
 40 42  2  0  0  0  0
 40 70  1  0  0  0  0
 41 71  1  0  0  0  0
 42 72  1  0  0  0  0
 43 73  1  0  0  0  0
 43 74  1  0  0  0  0
 43 75  1  0  0  0  0
 44 76  1  0  0  0  0
 44 77  1  0  0  0  0
 44 78  1  0  0  0  0
M  END
>  <DRUGBANK_ID>
DB06364

>  <COMMON_NAME>
XR5944

>  <CAS_NUMBER>
343247-32-5

>  <UNII>
LJH9XG66Q9

$$$$
