
 OpenBabel10282417072D

 62 67  0  0  1  0  0  0  0  0999 V2000
    1.8226   -0.6406    0.0000 O   0  0  0  0  0  0  0  0  0  0  0  0
    1.3377    0.0269    0.0000 C   0  0  0  0  0  0  0  0  0  0  0  0
    0.5127    0.0269    0.0000 N   0  0  0  0  0  0  0  0  0  0  0  0
    0.0278   -0.6406    0.0000 C   0  0  1  0  0  0  0  0  0  0  0  0
    0.3633   -1.3942    0.0000 C   0  0  0  0  0  0  0  0  0  0  0  0
   -0.1216   -2.0617    0.0000 C   0  0  0  0  0  0  0  0  0  0  0  0
   -0.9421   -1.9754    0.0000 C   0  0  0  0  0  0  0  0  0  0  0  0
   -1.4270   -2.6429    0.0000 O   0  0  0  0  0  0  0  0  0  0  0  0
   -1.2776   -1.2218    0.0000 N   0  0  0  0  0  0  0  0  0  0  0  0
   -0.7927   -0.5543    0.0000 C   0  0  0  0  0  0  0  0  0  0  0  0
   -1.1283    0.1993    0.0000 O   0  0  0  0  0  0  0  0  0  0  0  0
    0.2578    0.8115    0.0000 C   0  0  0  0  0  0  0  0  0  0  0  0
   -0.4959    1.1470    0.0000 C   0  0  0  0  0  0  0  0  0  0  0  0
   -0.5821    1.9675    0.0000 C   0  0  0  0  0  0  0  0  0  0  0  0
    0.0853    2.4525    0.0000 C   0  0  0  0  0  0  0  0  0  0  0  0
   -0.0009    3.2729    0.0000 C   0  0  0  0  0  0  0  0  0  0  0  0
    0.6665    3.7579    0.0000 C   0  0  0  0  0  0  0  0  0  0  0  0
    0.5803    4.5783    0.0000 C   0  0  0  0  0  0  0  0  0  0  0  0
    1.2477    5.0633    0.0000 C   0  0  0  0  0  0  0  0  0  0  0  0
    2.0014    4.7277    0.0000 C   0  0  0  0  0  0  0  0  0  0  0  0
    2.6688    5.2126    0.0000 C   0  0  0  0  0  0  0  0  0  0  0  0
    3.4225    4.8771    0.0000 N   0  0  0  0  0  0  0  0  0  0  0  0
    4.0899    5.3620    0.0000 C   0  0  0  0  0  0  0  0  0  0  0  0
    4.8436    5.0264    0.0000 C   0  0  0  0  0  0  0  0  0  0  0  0
    4.9298    4.2060    0.0000 O   0  0  0  0  0  0  0  0  0  0  0  0
    4.2624    3.7210    0.0000 C   0  0  0  0  0  0  0  0  0  0  0  0
    3.5087    4.0566    0.0000 C   0  0  0  0  0  0  0  0  0  0  0  0
    2.0876    3.9072    0.0000 C   0  0  0  0  0  0  0  0  0  0  0  0
    1.4202    3.4223    0.0000 C   0  0  0  0  0  0  0  0  0  0  0  0
    0.8390    2.1169    0.0000 C   0  0  0  0  0  0  0  0  0  0  0  0
    1.7651    2.4525    0.0000 C   0  0  0  0  0  0  0  0  0  0  0  0
    2.4326    1.9675    0.0000 C   0  0  0  0  0  0  0  0  0  0  0  0
    2.3463    1.1470    0.0000 C   0  0  0  0  0  0  0  0  0  0  0  0
    1.5926    0.8115    0.0000 C   0  0  0  0  0  0  0  0  0  0  0  0
    0.9252    1.2964    0.0000 C   0  0  0  0  0  0  0  0  0  0  0  0
    1.0919   -0.7524    0.0000 H   0  0  0  0  0  0  0  0  0  0  0  0
    1.4274   -1.5060    0.0000 H   0  0  0  0  0  0  0  0  0  0  0  0
    0.7985   -2.3717    0.0000 H   0  0  0  0  0  0  0  0  0  0  0  0
    0.3136   -3.0392    0.0000 H   0  0  0  0  0  0  0  0  0  0  0  0
   -0.7506   -2.9273    0.0000 H   0  0  0  0  0  0  0  0  0  0  0  0
   -2.2567   -1.1189    0.0000 H   0  0  0  0  0  0  0  0  0  0  0  0
   -1.3308    0.5404    0.0000 H   0  0  0  0  0  0  0  0  0  0  0  0
   -1.5249    2.3872    0.0000 H   0  0  0  0  0  0  0  0  0  0  0  0
   -0.9784    3.7081    0.0000 H   0  0  0  0  0  0  0  0  0  0  0  0
   -0.1128    4.3370    0.0000 H   0  0  0  0  0  0  0  0  0  0  0  0
   -0.3625    4.9980    0.0000 H   0  0  0  0  0  0  0  0  0  0  0  0
    1.1398    6.0896    0.0000 H   0  0  0  0  0  0  0  0  0  0  0  0
    2.5569    6.2767    0.0000 H   0  0  0  0  0  0  0  0  0  0  0  0
    3.5344    5.8416    0.0000 H   0  0  0  0  0  0  0  0  0  0  0  0
    3.9781    6.4261    0.0000 H   0  0  0  0  0  0  0  0  0  0  0  0
    4.9556    5.9909    0.0000 H   0  0  0  0  0  0  0  0  0  0  0  0
    5.7093    5.6553    0.0000 H   0  0  0  0  0  0  0  0  0  0  0  0
    5.8211    4.5912    0.0000 H   0  0  0  0  0  0  0  0  0  0  0  0
    4.3743    2.6569    0.0000 H   0  0  0  0  0  0  0  0  0  0  0  0
    3.3968    3.0921    0.0000 H   0  0  0  0  0  0  0  0  0  0  0  0
    2.6430    3.4277    0.0000 H   0  0  0  0  0  0  0  0  0  0  0  0
    2.5312    4.4919    0.0000 H   0  0  0  0  0  0  0  0  0  0  0  0
    3.0304    3.4874    0.0000 H   0  0  0  0  0  0  0  0  0  0  0  0
    1.5281    2.3960    0.0000 H   0  0  0  0  0  0  0  0  0  0  0  0
    1.9095    3.4744    0.0000 H   0  0  0  0  0  0  0  0  0  0  0  0
    3.3754    2.3872    0.0000 H   0  0  0  0  0  0  0  0  0  0  0  0
    3.1812    0.5403    0.0000 H   0  0  0  0  0  0  0  0  0  0  0  0
  1  2  2  0  0  0  0
  2  3  1  0  0  0  0
  2 34  1  0  0  0  0
  3 12  1  0  0  0  0
  4  3  1  0  0  0  0
  4  5  1  0  0  0  0
  4 10  1  0  0  0  0
  4 36  1  6  0  0  0
  5  6  1  0  0  0  0
  5 37  1  0  0  0  0
  5 38  1  0  0  0  0
  6  7  1  0  0  0  0
  6 39  1  0  0  0  0
  6 40  1  0  0  0  0
  7  8  2  0  0  0  0
  7  9  1  0  0  0  0
  9 10  1  0  0  0  0
  9 41  1  0  0  0  0
 10 11  2  0  0  0  0
 12 13  2  0  0  0  0
 12 35  1  0  0  0  0
 13 14  1  0  0  0  0
 13 42  1  0  0  0  0
 14 15  2  0  0  0  0
 14 43  1  0  0  0  0
 15 16  1  0  0  0  0
 15 30  1  0  0  0  0
 16 17  1  0  0  0  0
 16 44  1  0  0  0  0
 16 45  1  0  0  0  0
 17 18  2  0  0  0  0
 17 29  1  0  0  0  0
 18 19  1  0  0  0  0
 18 46  1  0  0  0  0
 19 20  2  0  0  0  0
 19 47  1  0  0  0  0
 20 21  1  0  0  0  0
 20 28  1  0  0  0  0
 21 22  1  0  0  0  0
 21 48  1  0  0  0  0
 21 49  1  0  0  0  0
 22 23  1  0  0  0  0
 22 27  1  0  0  0  0
 23 24  1  0  0  0  0
 23 50  1  0  0  0  0
 23 51  1  0  0  0  0
 24 25  1  0  0  0  0
 24 52  1  0  0  0  0
 24 53  1  0  0  0  0
 25 26  1  0  0  0  0
 26 27  1  0  0  0  0
 26 54  1  0  0  0  0
 26 55  1  0  0  0  0
 27 56  1  0  0  0  0
 27 57  1  0  0  0  0
 28 29  2  0  0  0  0
 28 58  1  0  0  0  0
 29 59  1  0  0  0  0
 30 31  2  0  0  0  0
 30 35  1  0  0  0  0
 31 32  1  0  0  0  0
 31 60  1  0  0  0  0
 32 33  2  0  0  0  0
 32 61  1  0  0  0  0
 33 34  1  0  0  0  0
 33 62  1  0  0  0  0
 34 35  2  0  0  0  0
M  END
>  <DRUGBANK_ID>
DB18400

>  <COMMON_NAME>
Cemsidomide

>  <CAS_NUMBER>
2504235-67-8

>  <UNII>
D86MF5H9WJ

>  <SYNONYMS>
(3s)-3-(6-((4-(morpholin-4-ylmethyl)phenyl)methyl)-2-oxobenzo(cd)indol-1-yl)piperidine-2,6-dione; 2,6-piperidinedione, 3-(6-((4-(4-morpholinylmethyl)phenyl)methyl)-2-oxobenz(cd)indol-1(2h)-yl)-, (3s)-

$$$$
