
 OpenBabel10282417072D

 27 28  0  0  1  0  0  0  0  0999 V2000
    3.3523    1.1104    0.0000 C   0  0  0  0  0  0  0  0  0  0  0  0
    3.3523    1.9354    0.0000 C   0  0  0  0  0  0  0  0  0  0  0  0
    2.6378    0.6979    0.0000 C   0  0  0  0  0  0  0  0  0  0  0  0
    2.6378    2.3479    0.0000 C   0  0  0  0  0  0  0  0  0  0  0  0
    1.1387    0.8555    0.0000 C   0  0  0  0  0  0  0  0  0  0  0  0
    1.1387    2.1904    0.0000 C   0  0  0  0  0  0  0  0  0  0  0  0
    1.9233    1.1104    0.0000 C   0  0  0  0  0  0  0  0  0  0  0  0
    1.9233    1.9354    0.0000 C   0  0  0  0  0  0  0  0  0  0  0  0
    0.6538    1.5229    0.0000 C   0  0  0  0  0  0  0  0  0  0  0  0
   -0.1712    1.5229    0.0000 C   0  0  2  0  0  0  0  0  0  0  0  0
   -0.5837    2.2374    0.0000 C   0  0  0  0  0  0  0  0  0  0  0  0
   -0.5837    0.8085    0.0000 N   0  0  0  0  0  0  0  0  0  0  0  0
   -1.4087    2.2374    0.0000 O   0  0  0  0  0  0  0  0  0  0  0  0
   -0.1712    2.9519    0.0000 O   0  0  0  0  0  0  0  0  0  0  0  0
    0.2413    2.2374    0.0000 H   0  0  0  0  0  0  0  0  0  0  0  0
    4.2460    0.5944    0.0000 H   0  0  0  0  0  0  0  0  0  0  0  0
    4.2460    2.4514    0.0000 H   0  0  0  0  0  0  0  0  0  0  0  0
    2.6378   -0.3341    0.0000 H   0  0  0  0  0  0  0  0  0  0  0  0
    2.6378    3.3799    0.0000 H   0  0  0  0  0  0  0  0  0  0  0  0
    0.8080   -0.1621    0.0000 H   0  0  0  0  0  0  0  0  0  0  0  0
    0.0819    0.6881    0.0000 H   0  0  0  0  0  0  0  0  0  0  0  0
    0.8081    3.2080    0.0000 H   0  0  0  0  0  0  0  0  0  0  0  0
    0.0819    2.3578    0.0000 H   0  0  0  0  0  0  0  0  0  0  0  0
    0.1680    2.4763    0.0000 H   0  0  0  0  0  0  0  0  0  0  0  0
   -1.6037    0.8085    0.0000 H   0  0  0  0  0  0  0  0  0  0  0  0
   -0.0737   -0.0749    0.0000 H   0  0  0  0  0  0  0  0  0  0  0  0
    0.7658    2.9519    0.0000 H   0  0  0  0  0  0  0  0  0  0  0  0
  1 16  1  0  0  0  0
  2  1  2  0  0  0  0
  2 17  1  0  0  0  0
  3  1  1  0  0  0  0
  3 18  1  0  0  0  0
  4  2  1  0  0  0  0
  4 19  1  0  0  0  0
  5 20  1  0  0  0  0
  5 21  1  0  0  0  0
  6 22  1  0  0  0  0
  6 23  1  0  0  0  0
  7  3  2  0  0  0  0
  7  5  1  0  0  0  0
  8  4  2  0  0  0  0
  8  6  1  0  0  0  0
  8  7  1  0  0  0  0
  9  5  1  0  0  0  0
  9  6  1  0  0  0  0
  9 24  1  0  0  0  0
 10  9  1  0  0  0  0
 10 12  1  0  0  0  0
 10 15  1  6  0  0  0
 11 10  1  0  0  0  0
 12 25  1  0  0  0  0
 12 26  1  0  0  0  0
 13 11  2  0  0  0  0
 14 11  1  0  0  0  0
 14 27  1  0  0  0  0
M  END
>  <DRUGBANK_ID>
DB04061

>  <SECONDARY_ACCESSION_NUMBERS>
EXPT01849

>  <COMMON_NAME>
Alpha-Amino-2-Indanacetic Acid

$$$$
