
 OpenBabel10282417072D

  1  0  0  0  0  0  0  0  0  0999 V2000
    1.5395    0.4125    0.0000 Se  0  0  0  0  0 15  0  0  0  0  0  0
M  END
>  <DRUGBANK_ID>
DB11135

>  <COMMON_NAME>
Selenium

>  <CAS_NUMBER>
7782-49-2

>  <UNII>
H6241UJ22B

>  <SYNONYMS>
Selen; Selenio; Sélénium; Selenium elemental; Selenium metallicum; Selenium, elemental

$$$$
