
 OpenBabel10282417072D

 50 52  0  0  0  0  0  0  0  0999 V2000
   -1.4141    0.6230    0.0000 C   0  0  0  0  0  0  0  0  0  0  0  0
   -0.7004    0.2095    0.0000 C   0  0  0  0  0  0  0  0  0  0  0  0
    0.0132    0.6229    0.0000 C   0  0  0  0  0  0  0  0  0  0  0  0
    0.0149    1.4441    0.0000 C   0  0  0  0  0  0  0  0  0  0  0  0
   -0.6988    1.8576    0.0000 C   0  0  0  0  0  0  0  0  0  0  0  0
   -1.4141    1.4498    0.0000 C   0  0  0  0  0  0  0  0  0  0  0  0
    0.7274    1.8565    0.0000 C   0  0  0  0  0  0  0  0  0  0  0  0
    1.4425    1.4480    0.0000 C   0  0  0  0  0  0  0  0  0  0  0  0
    2.1552    1.8603    0.0000 C   0  0  0  0  0  0  0  0  0  0  0  0
    2.1516    2.6824    0.0000 C   0  0  0  0  0  0  0  0  0  0  0  0
    2.8685    3.0989    0.0000 C   0  0  0  0  0  0  0  0  0  0  0  0
    3.5834    2.6864    0.0000 C   0  0  0  0  0  0  0  0  0  0  0  0
    3.5857    1.8614    0.0000 C   0  0  0  0  0  0  0  0  0  0  0  0
    2.8731    1.4491    0.0000 C   0  0  0  0  0  0  0  0  0  0  0  0
   -2.1273    1.8644    0.0000 O   0  0  0  0  0  0  0  0  0  0  0  0
    4.2960    3.1027    0.0000 O   0  0  0  0  0  0  0  0  0  0  0  0
   -1.4187   -1.0327    0.0000 C   0  0  2  0  0  0  0  0  0  0  0  0
   -2.1393   -0.6134    0.0000 O   0  0  0  0  0  0  0  0  0  0  0  0
   -1.4187   -1.8596    0.0000 C   0  0  1  0  0  0  0  0  0  0  0  0
   -2.8594   -1.0327    0.0000 C   0  0  1  0  0  0  0  0  0  0  0  0
   -2.1393   -2.2753    0.0000 C   0  0  2  0  0  0  0  0  0  0  0  0
   -0.6987   -2.2719    0.0000 O   0  0  0  0  0  0  0  0  0  0  0  0
   -2.8594   -1.8596    0.0000 C   0  0  2  0  0  0  0  0  0  0  0  0
   -3.5761   -0.6168    0.0000 C   0  0  0  0  0  0  0  0  0  0  0  0
   -2.1359   -3.1027    0.0000 O   0  0  0  0  0  0  0  0  0  0  0  0
   -3.5761   -2.2753    0.0000 O   0  0  0  0  0  0  0  0  0  0  0  0
   -4.2960   -1.0321    0.0000 O   0  0  0  0  0  0  0  0  0  0  0  0
   -0.7004   -0.6155    0.0000 O   0  0  0  0  0  0  0  0  0  0  0  0
   -2.3082    0.1077    0.0000 H   0  0  0  0  0  0  0  0  0  0  0  0
    0.9068    0.1066    0.0000 H   0  0  0  0  0  0  0  0  0  0  0  0
   -0.6952    2.8896    0.0000 H   0  0  0  0  0  0  0  0  0  0  0  0
    0.7245    2.8885    0.0000 H   0  0  0  0  0  0  0  0  0  0  0  0
    1.4453    0.4160    0.0000 H   0  0  0  0  0  0  0  0  0  0  0  0
    1.2560    3.1952    0.0000 H   0  0  0  0  0  0  0  0  0  0  0  0
    2.8670    4.1309    0.0000 H   0  0  0  0  0  0  0  0  0  0  0  0
    4.4804    1.3471    0.0000 H   0  0  0  0  0  0  0  0  0  0  0  0
    2.8753    0.4171    0.0000 H   0  0  0  0  0  0  0  0  0  0  0  0
   -2.1245    2.8014    0.0000 H   0  0  0  0  0  0  0  0  0  0  0  0
    5.1099    2.6384    0.0000 H   0  0  0  0  0  0  0  0  0  0  0  0
   -1.4183    0.0373    0.0000 H   0  0  0  0  0  0  0  0  0  0  0  0
   -0.4930   -1.3230    0.0000 H   0  0  0  0  0  0  0  0  0  0  0  0
   -2.8602    0.0373    0.0000 H   0  0  0  0  0  0  0  0  0  0  0  0
   -1.2116   -2.8086    0.0000 H   0  0  0  0  0  0  0  0  0  0  0  0
   -0.6953   -3.2419    0.0000 H   0  0  0  0  0  0  0  0  0  0  0  0
   -3.7866   -1.3255    0.0000 H   0  0  0  0  0  0  0  0  0  0  0  0
   -3.5747    0.4532    0.0000 H   0  0  0  0  0  0  0  0  0  0  0  0
   -4.5023   -0.0810    0.0000 H   0  0  0  0  0  0  0  0  0  0  0  0
   -2.9739   -3.5911    0.0000 H   0  0  0  0  0  0  0  0  0  0  0  0
   -4.4171   -1.7920    0.0000 H   0  0  0  0  0  0  0  0  0  0  0  0
   -5.1359   -0.5468    0.0000 H   0  0  0  0  0  0  0  0  0  0  0  0
  1  2  1  0  0  0  0
  1 29  1  0  0  0  0
  2  3  2  0  0  0  0
  2 28  1  0  0  0  0
  3  4  1  0  0  0  0
  3 30  1  0  0  0  0
  4  7  1  0  0  0  0
  4  5  2  0  0  0  0
  5  6  1  0  0  0  0
  5 31  1  0  0  0  0
  6 15  1  0  0  0  0
  6  1  2  0  0  0  0
  7  8  2  0  0  0  0
  7 32  1  0  0  0  0
  8  9  1  0  0  0  0
  8 33  1  0  0  0  0
  9 10  2  0  0  0  0
 10 11  1  0  0  0  0
 10 34  1  0  0  0  0
 11 12  2  0  0  0  0
 11 35  1  0  0  0  0
 12 16  1  0  0  0  0
 12 13  1  0  0  0  0
 13 14  2  0  0  0  0
 13 36  1  0  0  0  0
 14  9  1  0  0  0  0
 14 37  1  0  0  0  0
 15 38  1  0  0  0  0
 16 39  1  0  0  0  0
 17 28  1  0  0  0  0
 17 18  1  0  0  0  0
 17 19  1  0  0  0  0
 17 40  1  6  0  0  0
 18 20  1  0  0  0  0
 19 21  1  0  0  0  0
 19 22  1  0  0  0  0
 19 41  1  1  0  0  0
 20 23  1  0  0  0  0
 20 24  1  0  0  0  0
 20 42  1  6  0  0  0
 21 25  1  0  0  0  0
 21 23  1  0  0  0  0
 21 43  1  6  0  0  0
 22 44  1  0  0  0  0
 23 26  1  0  0  0  0
 23 45  1  1  0  0  0
 24 27  1  0  0  0  0
 24 46  1  0  0  0  0
 24 47  1  0  0  0  0
 25 48  1  0  0  0  0
 26 49  1  0  0  0  0
 27 50  1  0  0  0  0
M  END
>  <DRUGBANK_ID>
DB11263

>  <COMMON_NAME>
Polydatin

>  <CAS_NUMBER>
27208-80-6

>  <UNII>
XM261C37CQ

>  <SYNONYMS>
3,4,5-Trihydroxystilbene-3-beta-monoglucoside; 3,4',5-trihydroxystilbene-3-β-d-glucoside; Piceid; Polydatin (E)-isomer; Resveratrol 3-O-beta-glucopyranoside; resveratrol-3-O-b-mono-D-glucoside; trans-piceid; trans-resveratrol 3-O-β-D-glucoside; trans-resveratrol 3-β-D-glucoside; trans-resveratrol 3-β-glucoside

$$$$
