
 OpenBabel10282417072D

 57 61  0  0  0  0  0  0  0  0999 V2000
    6.6645   -2.6411    0.0000 C   0  0  0  0  0  0  0  0  0  0  0  0
    6.0514   -3.1931    0.0000 N   0  0  0  0  0  0  0  0  0  0  0  0
    6.2229   -4.0001    0.0000 C   0  0  0  0  0  0  0  0  0  0  0  0
    5.6098   -4.5521    0.0000 C   0  0  0  0  0  0  0  0  0  0  0  0
    4.8252   -4.2972    0.0000 N   0  0  0  0  0  0  0  0  0  0  0  0
    4.2121   -4.8492    0.0000 C   0  0  0  0  0  0  0  0  0  0  0  0
    3.4275   -4.5943    0.0000 C   0  0  0  0  0  0  0  0  0  0  0  0
    2.8144   -5.1463    0.0000 C   0  0  0  0  0  0  0  0  0  0  0  0
    2.0298   -4.8914    0.0000 C   0  0  0  0  0  0  0  0  0  0  0  0
    1.8582   -4.0844    0.0000 C   0  0  0  0  0  0  0  0  0  0  0  0
    1.0736   -3.8295    0.0000 N   0  0  0  0  0  0  0  0  0  0  0  0
    0.9021   -3.0225    0.0000 C   0  0  0  0  0  0  0  0  0  0  0  0
    0.1175   -2.7676    0.0000 O   0  0  0  0  0  0  0  0  0  0  0  0
    1.5152   -2.4705    0.0000 C   0  0  0  0  0  0  0  0  0  0  0  0
    2.3221   -2.6420    0.0000 N   0  0  0  0  0  0  0  0  0  0  0  0
    2.7346   -1.9275    0.0000 N   0  0  0  0  0  0  0  0  0  0  0  0
    2.1826   -1.3144    0.0000 C   0  0  0  0  0  0  0  0  0  0  0  0
    1.4289   -1.6500    0.0000 C   0  0  0  0  0  0  0  0  0  0  0  0
    0.7145   -1.2375    0.0000 N   0  0  0  0  0  0  0  0  0  0  0  0
    0.7145   -0.4125    0.0000 C   0  0  0  0  0  0  0  0  0  0  0  0
    0.0000    0.0000    0.0000 C   0  0  0  0  0  0  0  0  0  0  0  0
   -0.7846   -0.2549    0.0000 C   0  0  0  0  0  0  0  0  0  0  0  0
   -1.2695    0.4125    0.0000 C   0  0  0  0  0  0  0  0  0  0  0  0
   -0.7846    1.0799    0.0000 N   0  0  0  0  0  0  0  0  0  0  0  0
    0.0000    0.8250    0.0000 C   0  0  0  0  0  0  0  0  0  0  0  0
    0.7145    1.2375    0.0000 N   0  0  0  0  0  0  0  0  0  0  0  0
    1.4289    0.8250    0.0000 C   0  0  0  0  0  0  0  0  0  0  0  0
    1.4289    0.0000    0.0000 N   0  0  0  0  0  0  0  0  0  0  0  0
    2.4713   -3.5324    0.0000 C   0  0  0  0  0  0  0  0  0  0  0  0
    3.2559   -3.7873    0.0000 C   0  0  0  0  0  0  0  0  0  0  0  0
    4.6537   -3.4902    0.0000 C   0  0  0  0  0  0  0  0  0  0  0  0
    5.2668   -2.9382    0.0000 C   0  0  0  0  0  0  0  0  0  0  0  0
    7.6821   -2.9718    0.0000 H   0  0  0  0  0  0  0  0  0  0  0  0
    6.4421   -1.5945    0.0000 H   0  0  0  0  0  0  0  0  0  0  0  0
    7.4597   -1.9252    0.0000 H   0  0  0  0  0  0  0  0  0  0  0  0
    7.2405   -4.3308    0.0000 H   0  0  0  0  0  0  0  0  0  0  0  0
    6.4453   -5.0467    0.0000 H   0  0  0  0  0  0  0  0  0  0  0  0
    5.8323   -5.5987    0.0000 H   0  0  0  0  0  0  0  0  0  0  0  0
    4.8146   -5.2681    0.0000 H   0  0  0  0  0  0  0  0  0  0  0  0
    4.4346   -5.8958    0.0000 H   0  0  0  0  0  0  0  0  0  0  0  0
    3.4169   -5.5652    0.0000 H   0  0  0  0  0  0  0  0  0  0  0  0
    3.0290   -6.1557    0.0000 H   0  0  0  0  0  0  0  0  0  0  0  0
    1.2629   -5.5820    0.0000 H   0  0  0  0  0  0  0  0  0  0  0  0
    0.3420   -4.4883    0.0000 H   0  0  0  0  0  0  0  0  0  0  0  0
    3.7137   -1.8246    0.0000 H   0  0  0  0  0  0  0  0  0  0  0  0
    2.3972   -0.3050    0.0000 H   0  0  0  0  0  0  0  0  0  0  0  0
   -0.1381   -1.7297    0.0000 H   0  0  0  0  0  0  0  0  0  0  0  0
   -1.1035   -1.2364    0.0000 H   0  0  0  0  0  0  0  0  0  0  0  0
   -2.3015    0.4125    0.0000 H   0  0  0  0  0  0  0  0  0  0  0  0
   -1.0888    2.0162    0.0000 H   0  0  0  0  0  0  0  0  0  0  0  0
    2.3226    1.3410    0.0000 H   0  0  0  0  0  0  0  0  0  0  0  0
    2.2567   -2.5230    0.0000 H   0  0  0  0  0  0  0  0  0  0  0  0
    4.0228   -3.0967    0.0000 H   0  0  0  0  0  0  0  0  0  0  0  0
    3.6361   -3.1595    0.0000 H   0  0  0  0  0  0  0  0  0  0  0  0
    4.4313   -2.4436    0.0000 H   0  0  0  0  0  0  0  0  0  0  0  0
    5.0443   -1.8916    0.0000 H   0  0  0  0  0  0  0  0  0  0  0  0
    6.0620   -2.2222    0.0000 H   0  0  0  0  0  0  0  0  0  0  0  0
  1  2  1  0  0  0  0
  1 33  1  0  0  0  0
  1 34  1  0  0  0  0
  1 35  1  0  0  0  0
  2  3  1  0  0  0  0
  2 32  1  0  0  0  0
  3  4  1  0  0  0  0
  3 36  1  0  0  0  0
  3 37  1  0  0  0  0
  4  5  1  0  0  0  0
  4 38  1  0  0  0  0
  4 39  1  0  0  0  0
  5  6  1  0  0  0  0
  5 31  1  0  0  0  0
  6  7  1  0  0  0  0
  6 40  1  0  0  0  0
  6 41  1  0  0  0  0
  7  8  2  0  0  0  0
  7 30  1  0  0  0  0
  8  9  1  0  0  0  0
  8 42  1  0  0  0  0
  9 10  2  0  0  0  0
  9 43  1  0  0  0  0
 10 11  1  0  0  0  0
 10 29  1  0  0  0  0
 11 12  1  0  0  0  0
 11 44  1  0  0  0  0
 12 13  2  0  0  0  0
 12 14  1  0  0  0  0
 14 15  2  0  0  0  0
 14 18  1  0  0  0  0
 15 16  1  0  0  0  0
 16 17  1  0  0  0  0
 16 45  1  0  0  0  0
 17 18  2  0  0  0  0
 17 46  1  0  0  0  0
 18 19  1  0  0  0  0
 19 20  1  0  0  0  0
 19 47  1  0  0  0  0
 20 21  2  0  0  0  0
 20 28  1  0  0  0  0
 21 22  1  0  0  0  0
 21 25  1  0  0  0  0
 22 23  2  0  0  0  0
 22 48  1  0  0  0  0
 23 24  1  0  0  0  0
 23 49  1  0  0  0  0
 24 25  1  0  0  0  0
 24 50  1  0  0  0  0
 25 26  2  0  0  0  0
 26 27  1  0  0  0  0
 27 28  2  0  0  0  0
 27 51  1  0  0  0  0
 29 30  2  0  0  0  0
 29 52  1  0  0  0  0
 30 53  1  0  0  0  0
 31 32  1  0  0  0  0
 31 54  1  0  0  0  0
 31 55  1  0  0  0  0
 32 56  1  0  0  0  0
 32 57  1  0  0  0  0
M  END
>  <DRUGBANK_ID>
DB17383

>  <COMMON_NAME>
FN-1501

>  <CAS_NUMBER>
1429515-59-2

>  <UNII>
6MC966B505

>  <SYNONYMS>
4-((7h-pyrrolo (2,3-d)pyrimidin-4-yl)amino)-n-(4-((4-methylpiperazin-1-yl)methyl)phenyl)-1h-pyrazole-3-carboxamide

$$$$
