524
 OpenBabel10282417072D

 40 42  0  0  1  0  0  0  0  0999 V2000
    7.4202    1.2079    0.0000 Cl  0  0  0  0  0  0  0  0  0  0  0  0
    7.4202   -0.4819    0.0000 S   0  0  0  0  0  0  0  0  0  0  0  0
    4.5079   -1.2870    0.0000 O   0  0  0  0  0  0  0  0  0  0  0  0
    7.8355    0.2309    0.0000 O   0  0  0  0  0  0  0  0  0  0  0  0
    7.0050   -1.1948    0.0000 O   0  0  0  0  0  0  0  0  0  0  0  0
    3.7934   -0.0495    0.0000 N   0  0  0  0  0  0  0  0  0  0  0  0
    4.5079    1.1880    0.0000 N   0  0  0  0  0  0  0  0  0  0  0  0
    8.1331   -0.8972    0.0000 N   0  0  0  0  0  0  0  0  0  0  0  0
    3.7934    0.7755    0.0000 C   0  0  3  0  0  0  0  0  0  0  0  0
    5.2223    0.7755    0.0000 C   0  0  0  0  0  0  0  0  0  0  0  0
    5.2223   -0.0495    0.0000 C   0  0  0  0  0  0  0  0  0  0  0  0
    4.5079   -0.4620    0.0000 C   0  0  0  0  0  0  0  0  0  0  0  0
    3.0790   -0.4620    0.0000 C   0  0  0  0  0  0  0  0  0  0  0  0
    3.0790    1.1880    0.0000 C   0  0  0  0  0  0  0  0  0  0  0  0
    5.9599   -0.4906    0.0000 C   0  0  0  0  0  0  0  0  0  0  0  0
    5.9599    1.2166    0.0000 C   0  0  0  0  0  0  0  0  0  0  0  0
    6.7073   -0.0667    0.0000 C   0  0  0  0  0  0  0  0  0  0  0  0
    2.3644   -0.0495    0.0000 C   0  0  0  0  0  0  0  0  0  0  0  0
    6.7073    0.7927    0.0000 C   0  0  0  0  0  0  0  0  0  0  0  0
    3.0790   -1.2870    0.0000 C   0  0  0  0  0  0  0  0  0  0  0  0
    1.6500   -0.4620    0.0000 C   0  0  0  0  0  0  0  0  0  0  0  0
    2.3644    0.7755    0.0000 C   0  0  0  0  0  0  0  0  0  0  0  0
    2.3644   -1.6995    0.0000 C   0  0  0  0  0  0  0  0  0  0  0  0
    1.6500   -1.2870    0.0000 C   0  0  0  0  0  0  0  0  0  0  0  0
    4.5079    2.1725    0.0000 H   0  0  0  0  0  0  0  0  0  0  0  0
    8.1291   -1.9172    0.0000 H   0  0  0  0  0  0  0  0  0  0  0  0
    9.0184   -0.3906    0.0000 H   0  0  0  0  0  0  0  0  0  0  0  0
    4.7200    0.2405    0.0000 H   0  0  0  0  0  0  0  0  0  0  0  0
    3.0790    2.2580    0.0000 H   0  0  0  0  0  0  0  0  0  0  0  0
    2.1523    0.6530    0.0000 H   0  0  0  0  0  0  0  0  0  0  0  0
    2.1524    1.7230    0.0000 H   0  0  0  0  0  0  0  0  0  0  0  0
    5.9480   -1.5225    0.0000 H   0  0  0  0  0  0  0  0  0  0  0  0
    5.9480    2.2485    0.0000 H   0  0  0  0  0  0  0  0  0  0  0  0
    3.9727   -1.8030    0.0000 H   0  0  0  0  0  0  0  0  0  0  0  0
    0.7563    0.0540    0.0000 H   0  0  0  0  0  0  0  0  0  0  0  0
    3.2910    1.3105    0.0000 H   0  0  0  0  0  0  0  0  0  0  0  0
    1.4378    1.3105    0.0000 H   0  0  0  0  0  0  0  0  0  0  0  0
    2.3644    1.8455    0.0000 H   0  0  0  0  0  0  0  0  0  0  0  0
    2.3643   -2.7315    0.0000 H   0  0  0  0  0  0  0  0  0  0  0  0
    0.7563   -1.8030    0.0000 H   0  0  0  0  0  0  0  0  0  0  0  0
  1 19  1  0  0  0  0
  2  4  2  0  0  0  0
  2  5  2  0  0  0  0
  2  8  1  0  0  0  0
  2 17  1  0  0  0  0
  3 12  2  0  0  0  0
  6  9  1  0  0  0  0
  6 12  1  0  0  0  0
  6 13  1  0  0  0  0
  7  9  1  0  0  0  0
  7 10  1  0  0  0  0
  7 25  1  0  0  0  0
  8 26  1  0  0  0  0
  8 27  1  0  0  0  0
  9 14  1  0  0  0  0
  9 28  1  0  0  0  0
 10 11  1  0  0  0  0
 10 16  2  0  0  0  0
 11 12  1  0  0  0  0
 11 15  2  0  0  0  0
 13 18  1  0  0  0  0
 13 20  2  0  0  0  0
 14 29  1  0  0  0  0
 14 30  1  0  0  0  0
 14 31  1  0  0  0  0
 15 17  1  0  0  0  0
 15 32  1  0  0  0  0
 16 19  1  0  0  0  0
 16 33  1  0  0  0  0
 17 19  2  0  0  0  0
 18 21  2  0  0  0  0
 18 22  1  0  0  0  0
 20 23  1  0  0  0  0
 20 34  1  0  0  0  0
 21 24  1  0  0  0  0
 21 35  1  0  0  0  0
 22 36  1  0  0  0  0
 22 37  1  0  0  0  0
 22 38  1  0  0  0  0
 23 24  2  0  0  0  0
 23 39  1  0  0  0  0
 24 40  1  0  0  0  0
M  END
>  <DRUGBANK_ID>
DB00524

>  <SECONDARY_ACCESSION_NUMBERS>
APRD01109

>  <COMMON_NAME>
Metolazone

>  <CAS_NUMBER>
17560-51-9

>  <UNII>
TZ7V40X7VX

>  <SYNONYMS>
2-Methyl-3-o-tolyl-6-sulfamyl-7-chloro-1,2,3,4-tetrahydro-4-quinazolinone; 7-Chloro-1,2,3,4-tetrahydro-2-methyl-3-(2-methylphenyl)-4-oxo-6-quinazolinesulfonamide; 7-Chloro-1,2,3,4-tetrahydro-2-methyl-4-oxo-3-o-tolyl-6-quinazolinesulfonamide; Metolazon; Metolazona; MÃ©tolazone; Metolazone; Metolazonum

$$$$
