
 OpenBabel10282417072D

 65 66  0  0  1  0  0  0  0  0999 V2000
    0.1105   -2.6664    0.0000 H   0  0  0  0  0  0  0  0  0  0  0  0
   -0.7145   -2.6664    0.0000 C   0  0  2  0  0  0  0  0  0  0  0  0
   -0.3020   -1.9520    0.0000 O   0  0  0  0  0  0  0  0  0  0  0  0
   -0.7145   -1.2375    0.0000 C   0  0  1  0  0  0  0  0  0  0  0  0
   -1.5395   -1.2375    0.0000 C   0  0  0  0  0  0  0  0  0  0  0  0
   -1.9520   -1.9520    0.0000 O   0  0  0  0  0  0  0  0  0  0  0  0
   -0.3020   -0.5230    0.0000 C   0  0  1  0  0  0  0  0  0  0  0  0
   -0.7145    0.1914    0.0000 O   0  0  0  0  0  0  0  0  0  0  0  0
   -1.5395    0.1914    0.0000 C   0  0  1  0  0  0  0  0  0  0  0  0
   -1.1270    0.9059    0.0000 H   0  0  0  0  0  0  0  0  0  0  0  0
   -1.9520   -0.5230    0.0000 O   0  0  0  0  0  0  0  0  0  0  0  0
   -2.7770   -0.5230    0.0000 C   0  0  2  0  0  0  0  0  0  0  0  0
   -3.1895   -1.2375    0.0000 C   0  0  0  0  0  0  0  0  0  0  0  0
   -4.0145   -1.2375    0.0000 O   0  0  0  0  0  0  0  0  0  0  0  0
   -3.1895    0.1914    0.0000 C   0  0  2  0  0  0  0  0  0  0  0  0
   -4.0145    0.1914    0.0000 O   0  0  0  0  0  0  0  0  0  0  0  0
   -2.7770    0.9059    0.0000 C   0  0  2  0  0  0  0  0  0  0  0  0
   -3.1895    1.6204    0.0000 O   0  0  0  0  0  0  0  0  0  0  0  0
   -1.9520    0.9059    0.0000 C   0  0  1  0  0  0  0  0  0  0  0  0
   -1.5395    1.6204    0.0000 O   0  0  0  0  0  0  0  0  0  0  0  0
    0.5230   -0.5230    0.0000 C   0  0  1  0  0  0  0  0  0  0  0  0
    0.9355    0.1914    0.0000 O   0  0  0  0  0  0  0  0  0  0  0  0
    0.9355   -1.2375    0.0000 C   0  0  2  0  0  0  0  0  0  0  0  0
    0.5230   -1.9520    0.0000 O   0  0  0  0  0  0  0  0  0  0  0  0
    1.7605   -1.2375    0.0000 C   0  0  0  0  0  0  0  0  0  0  0  0
    2.1730   -0.5230    0.0000 O   0  0  0  0  0  0  0  0  0  0  0  0
   -1.5395   -2.6664    0.0000 O   0  0  0  0  0  0  0  0  0  0  0  0
   -1.9520   -3.3809    0.0000 C   0  0  1  0  0  0  0  0  0  0  0  0
   -2.7770   -3.3809    0.0000 C   0  0  0  0  0  0  0  0  0  0  0  0
   -1.5395   -4.0954    0.0000 C   0  0  1  0  0  0  0  0  0  0  0  0
   -1.9520   -4.8099    0.0000 O   0  0  0  0  0  0  0  0  0  0  0  0
   -0.7145   -4.0954    0.0000 C   0  0  1  0  0  0  0  0  0  0  0  0
   -0.3020   -4.8099    0.0000 O   0  0  0  0  0  0  0  0  0  0  0  0
   -0.3020   -3.3809    0.0000 C   0  0  2  0  0  0  0  0  0  0  0  0
    0.5230   -3.3809    0.0000 O   0  0  0  0  0  0  0  0  0  0  0  0
   -1.2495   -2.1641    0.0000 H   0  0  0  0  0  0  0  0  0  0  0  0
   -2.0555   -0.3438    0.0000 H   0  0  0  0  0  0  0  0  0  0  0  0
   -1.3720   -0.5230    0.0000 H   0  0  0  0  0  0  0  0  0  0  0  0
   -2.2420   -1.4496    0.0000 H   0  0  0  0  0  0  0  0  0  0  0  0
   -2.6545   -2.1641    0.0000 H   0  0  0  0  0  0  0  0  0  0  0  0
   -3.7245   -2.1641    0.0000 H   0  0  0  0  0  0  0  0  0  0  0  0
   -4.4995   -0.3975    0.0000 H   0  0  0  0  0  0  0  0  0  0  0  0
   -3.7245   -0.7353    0.0000 H   0  0  0  0  0  0  0  0  0  0  0  0
   -4.4995    1.0314    0.0000 H   0  0  0  0  0  0  0  0  0  0  0  0
   -3.8470    0.9059    0.0000 H   0  0  0  0  0  0  0  0  0  0  0  0
   -2.7045    2.4604    0.0000 H   0  0  0  0  0  0  0  0  0  0  0  0
   -2.4870    1.8325    0.0000 H   0  0  0  0  0  0  0  0  0  0  0  0
   -0.5695    1.6204    0.0000 H   0  0  0  0  0  0  0  0  0  0  0  0
   -0.0120    0.4037    0.0000 H   0  0  0  0  0  0  0  0  0  0  0  0
    1.9055    0.1914    0.0000 H   0  0  0  0  0  0  0  0  0  0  0  0
   -0.1345   -1.2375    0.0000 H   0  0  0  0  0  0  0  0  0  0  0  0
   -0.4470   -1.9520    0.0000 H   0  0  0  0  0  0  0  0  0  0  0  0
    2.2955   -2.1641    0.0000 H   0  0  0  0  0  0  0  0  0  0  0  0
    2.8305   -1.2375    0.0000 H   0  0  0  0  0  0  0  0  0  0  0  0
    3.1430   -0.5230    0.0000 H   0  0  0  0  0  0  0  0  0  0  0  0
   -2.4870   -2.4543    0.0000 H   0  0  0  0  0  0  0  0  0  0  0  0
   -3.3120   -2.4543    0.0000 H   0  0  0  0  0  0  0  0  0  0  0  0
   -3.3120   -4.3075    0.0000 H   0  0  0  0  0  0  0  0  0  0  0  0
   -3.8470   -3.3809    0.0000 H   0  0  0  0  0  0  0  0  0  0  0  0
   -2.6095   -4.0954    0.0000 H   0  0  0  0  0  0  0  0  0  0  0  0
   -2.9220   -4.8099    0.0000 H   0  0  0  0  0  0  0  0  0  0  0  0
   -1.2495   -5.0220    0.0000 H   0  0  0  0  0  0  0  0  0  0  0  0
   -0.7870   -5.6499    0.0000 H   0  0  0  0  0  0  0  0  0  0  0  0
    0.2330   -4.3075    0.0000 H   0  0  0  0  0  0  0  0  0  0  0  0
    1.0080   -4.2209    0.0000 H   0  0  0  0  0  0  0  0  0  0  0  0
  2  1  1  6  0  0  0
  2  3  1  0  0  0  0
  2 27  1  0  0  0  0
  4  3  1  0  0  0  0
  4  5  1  0  0  0  0
  4 36  1  6  0  0  0
  5  6  2  0  0  0  0
  5 37  1  0  0  0  0
  7  4  1  0  0  0  0
  7  8  1  0  0  0  0
  7 21  1  0  0  0  0
  7 38  1  6  0  0  0
  9  8  1  0  0  0  0
  9 10  1  6  0  0  0
  9 11  1  0  0  0  0
 12 11  1  0  0  0  0
 12 13  1  0  0  0  0
 12 39  1  1  0  0  0
 13 14  1  0  0  0  0
 13 40  1  0  0  0  0
 13 41  1  0  0  0  0
 14 42  1  0  0  0  0
 15 12  1  0  0  0  0
 15 16  1  0  0  0  0
 15 17  1  0  0  0  0
 15 43  1  1  0  0  0
 16 44  1  0  0  0  0
 17 18  1  0  0  0  0
 17 19  1  0  0  0  0
 17 45  1  1  0  0  0
 18 46  1  0  0  0  0
 19  9  1  0  0  0  0
 19 20  1  0  0  0  0
 19 47  1  6  0  0  0
 20 48  1  0  0  0  0
 21 22  1  0  0  0  0
 21 23  1  0  0  0  0
 21 49  1  6  0  0  0
 22 50  1  0  0  0  0
 23 24  1  0  0  0  0
 23 25  1  0  0  0  0
 23 51  1  6  0  0  0
 24 52  1  0  0  0  0
 25 26  1  0  0  0  0
 25 53  1  0  0  0  0
 25 54  1  0  0  0  0
 26 55  1  0  0  0  0
 28 27  1  0  0  0  0
 28 29  1  0  0  0  0
 28 56  1  1  0  0  0
 29 57  1  0  0  0  0
 29 58  1  0  0  0  0
 29 59  1  0  0  0  0
 30 28  1  0  0  0  0
 30 31  1  0  0  0  0
 30 32  1  0  0  0  0
 30 60  1  1  0  0  0
 31 61  1  0  0  0  0
 32 33  1  0  0  0  0
 32 34  1  0  0  0  0
 32 62  1  1  0  0  0
 33 63  1  0  0  0  0
 34  2  1  0  0  0  0
 34 35  1  0  0  0  0
 34 64  1  6  0  0  0
 35 65  1  0  0  0  0
M  END
>  <DRUGBANK_ID>
DB17690

>  <COMMON_NAME>
Trisaccharide B

>  <CAS_NUMBER>
49777-14-2

>  <UNII>
2P888H42QS

>  <SYNONYMS>
.alpha.-d-gal-(1->3)-(.alpha.-l-fuc-(1->2))-d-gal; 3-o-(.alpha.-d-galactopyranosyl)-2-o-(.alpha.-l-fucopyranosyl)-d-galactose; B trisaccharide; B-trisaccharide; Blood group b trisaccharide

$$$$
