155
 OpenBabel10282417072D

 53 56  0  0  0  0  0  0  0  0999 V2000
   -4.1295   -2.8509    0.0000 N   0  0  0  0  0  0  0  0  0  0  0  0
   -4.1295   -2.0259    0.0000 C   0  0  0  0  0  0  0  0  0  0  0  0
   -4.8439   -1.6134    0.0000 N   0  0  0  0  0  0  0  0  0  0  0  0
   -3.4150   -1.6134    0.0000 C   0  0  0  0  0  0  0  0  0  0  0  0
   -3.4150   -0.7884    0.0000 C   0  0  0  0  0  0  0  0  0  0  0  0
   -2.7005   -0.3759    0.0000 C   0  0  0  0  0  0  0  0  0  0  0  0
   -2.7005    0.4491    0.0000 C   0  0  0  0  0  0  0  0  0  0  0  0
   -1.9861    0.8616    0.0000 C   0  0  0  0  0  0  0  0  0  0  0  0
   -1.2716    0.4491    0.0000 C   0  0  0  0  0  0  0  0  0  0  0  0
   -1.2716   -0.3759    0.0000 C   0  0  0  0  0  0  0  0  0  0  0  0
   -1.9861   -0.7884    0.0000 C   0  0  0  0  0  0  0  0  0  0  0  0
   -1.9861   -1.6134    0.0000 C   0  0  0  0  0  0  0  0  0  0  0  0
   -2.7005   -2.0259    0.0000 C   0  0  0  0  0  0  0  0  0  0  0  0
   -0.5571    0.8616    0.0000 C   0  0  0  0  0  0  0  0  0  0  0  0
   -0.5571    1.6866    0.0000 O   0  0  0  0  0  0  0  0  0  0  0  0
    0.1574    0.4491    0.0000 N   0  0  0  0  0  0  0  0  0  0  0  0
    0.8718    0.8616    0.0000 C   0  0  0  0  0  0  0  0  0  0  0  0
    1.5863    0.4491    0.0000 C   0  0  0  0  0  0  0  0  0  0  0  0
    2.3008    0.8616    0.0000 C   0  0  0  0  0  0  0  0  0  0  0  0
    2.3008    1.6866    0.0000 C   0  0  0  0  0  0  0  0  0  0  0  0
    1.5863    2.0991    0.0000 C   0  0  0  0  0  0  0  0  0  0  0  0
    0.8718    1.6866    0.0000 C   0  0  0  0  0  0  0  0  0  0  0  0
    3.0152    2.0991    0.0000 C   0  0  0  0  0  0  0  0  0  0  0  0
    3.7297    1.6866    0.0000 C   0  0  0  0  0  0  0  0  0  0  0  0
    3.7297    0.8616    0.0000 N   0  0  0  0  0  0  0  0  0  0  0  0
    3.0152    0.4491    0.0000 C   0  0  0  0  0  0  0  0  0  0  0  0
    3.0152   -0.3759    0.0000 C   0  0  0  0  0  0  0  0  0  0  0  0
    3.7297   -0.7884    0.0000 C   0  0  0  0  0  0  0  0  0  0  0  0
    2.3008   -0.7884    0.0000 C   0  0  0  0  0  0  0  0  0  0  0  0
   -4.9821   -3.3432    0.0000 H   0  0  0  0  0  0  0  0  0  0  0  0
   -4.8439   -0.6289    0.0000 H   0  0  0  0  0  0  0  0  0  0  0  0
   -5.6965   -2.1056    0.0000 H   0  0  0  0  0  0  0  0  0  0  0  0
   -4.3087   -0.2724    0.0000 H   0  0  0  0  0  0  0  0  0  0  0  0
   -3.5942    0.9651    0.0000 H   0  0  0  0  0  0  0  0  0  0  0  0
   -1.9861    1.8936    0.0000 H   0  0  0  0  0  0  0  0  0  0  0  0
   -0.3779   -0.8919    0.0000 H   0  0  0  0  0  0  0  0  0  0  0  0
   -1.0924   -2.1294    0.0000 H   0  0  0  0  0  0  0  0  0  0  0  0
   -2.7005   -3.0579    0.0000 H   0  0  0  0  0  0  0  0  0  0  0  0
    0.1574   -0.5354    0.0000 H   0  0  0  0  0  0  0  0  0  0  0  0
    1.5863   -0.5829    0.0000 H   0  0  0  0  0  0  0  0  0  0  0  0
    1.5863    3.1311    0.0000 H   0  0  0  0  0  0  0  0  0  0  0  0
   -0.0219    2.2026    0.0000 H   0  0  0  0  0  0  0  0  0  0  0  0
    3.0152    3.1691    0.0000 H   0  0  0  0  0  0  0  0  0  0  0  0
    3.9418    2.6341    0.0000 H   0  0  0  0  0  0  0  0  0  0  0  0
    4.6563    2.2216    0.0000 H   0  0  0  0  0  0  0  0  0  0  0  0
    4.6563    1.1516    0.0000 H   0  0  0  0  0  0  0  0  0  0  0  0
    3.0152   -1.4459    0.0000 H   0  0  0  0  0  0  0  0  0  0  0  0
    3.7297   -1.8584    0.0000 H   0  0  0  0  0  0  0  0  0  0  0  0
    4.6563   -0.2534    0.0000 H   0  0  0  0  0  0  0  0  0  0  0  0
    4.6564   -1.3234    0.0000 H   0  0  0  0  0  0  0  0  0  0  0  0
    1.3741   -0.2534    0.0000 H   0  0  0  0  0  0  0  0  0  0  0  0
    2.3008   -1.8584    0.0000 H   0  0  0  0  0  0  0  0  0  0  0  0
    1.3742   -1.3234    0.0000 H   0  0  0  0  0  0  0  0  0  0  0  0
  1  2  2  0  0  0  0
  1 30  1  0  0  0  0
  2  3  1  0  0  0  0
  2  4  1  0  0  0  0
  3 31  1  0  0  0  0
  3 32  1  0  0  0  0
  4  5  2  0  0  0  0
  4 13  1  0  0  0  0
  5  6  1  0  0  0  0
  5 33  1  0  0  0  0
  6  7  2  0  0  0  0
  6 11  1  0  0  0  0
  7  8  1  0  0  0  0
  7 34  1  0  0  0  0
  8  9  2  0  0  0  0
  8 35  1  0  0  0  0
  9 10  1  0  0  0  0
  9 14  1  0  0  0  0
 10 11  2  0  0  0  0
 10 36  1  0  0  0  0
 11 12  1  0  0  0  0
 12 13  2  0  0  0  0
 12 37  1  0  0  0  0
 13 38  1  0  0  0  0
 14 15  2  0  0  0  0
 14 16  1  0  0  0  0
 16 17  1  0  0  0  0
 16 39  1  0  0  0  0
 17 18  2  0  0  0  0
 17 22  1  0  0  0  0
 18 19  1  0  0  0  0
 18 40  1  0  0  0  0
 19 20  2  0  0  0  0
 19 26  1  0  0  0  0
 20 21  1  0  0  0  0
 20 23  1  0  0  0  0
 21 22  2  0  0  0  0
 21 41  1  0  0  0  0
 22 42  1  0  0  0  0
 23 24  1  0  0  0  0
 23 43  1  0  0  0  0
 23 44  1  0  0  0  0
 24 25  1  0  0  0  0
 24 45  1  0  0  0  0
 24 46  1  0  0  0  0
 25 26  2  0  0  0  0
 26 27  1  0  0  0  0
 27 28  1  0  0  0  0
 27 29  1  0  0  0  0
 27 47  1  0  0  0  0
 28 48  1  0  0  0  0
 28 49  1  0  0  0  0
 28 50  1  0  0  0  0
 29 51  1  0  0  0  0
 29 52  1  0  0  0  0
 29 53  1  0  0  0  0
M  END
>  <DRUGBANK_ID>
DB02473

>  <SECONDARY_ACCESSION_NUMBERS>
EXPT00041

>  <COMMON_NAME>
6-[N-(1-Isopropyl-3,4-Dihydro-7-Isoquinolinyl)Carbamyl]-2-Naphthalenecarboxamidine

$$$$
