SAV
 OpenBabel10282417072D

 52 55  0  0  0  0  0  0  0  0999 V2000
    1.4597   -0.3352    0.0000 N   0  0  0  0  0  0  0  0  0  0  0  0
    0.0307    2.1398    0.0000 N   0  0  0  0  0  0  0  0  0  0  0  0
    1.4597   -1.1602    0.0000 C   0  0  0  0  0  0  0  0  0  0  0  0
    0.7452    0.0773    0.0000 C   0  0  0  0  0  0  0  0  0  0  0  0
   -0.6837    0.0773    0.0000 C   0  0  0  0  0  0  0  0  0  0  0  0
   -0.6837    0.9023    0.0000 C   0  0  0  0  0  0  0  0  0  0  0  0
    0.0307    1.3148    0.0000 C   0  0  0  0  0  0  0  0  0  0  0  0
   -0.6837    3.3773    0.0000 C   0  0  0  0  0  0  0  0  0  0  0  0
   -2.8973    3.6323    0.0000 C   0  0  0  0  0  0  0  0  0  0  0  0
   -2.1127    2.5523    0.0000 C   0  0  0  0  0  0  0  0  0  0  0  0
    2.1741   -1.5727    0.0000 C   0  0  0  0  0  0  0  0  0  0  0  0
    1.4597   -2.8102    0.0000 C   0  0  0  0  0  0  0  0  0  0  0  0
    2.1741   -4.0477    0.0000 C   0  0  0  0  0  0  0  0  0  0  0  0
   -0.6837   -2.3977    0.0000 C   0  0  0  0  0  0  0  0  0  0  0  0
    0.0307   -2.8102    0.0000 O   0  0  0  0  0  0  0  0  0  0  0  0
    0.7452   -2.3977    0.0000 C   0  0  0  0  0  0  0  0  0  0  0  0
    0.7452   -1.5727    0.0000 C   0  0  0  0  0  0  0  0  0  0  0  0
    0.0307   -0.3352    0.0000 N   0  0  0  0  0  0  0  0  0  0  0  0
   -0.6837    2.5523    0.0000 C   0  0  0  0  0  0  0  0  0  0  0  0
   -1.3982    3.7898    0.0000 C   0  0  0  0  0  0  0  0  0  0  0  0
   -2.1127    3.3773    0.0000 C   0  0  0  0  0  0  0  0  0  0  0  0
   -3.1522    4.4169    0.0000 C   0  0  0  0  0  0  0  0  0  0  0  0
   -3.3822    2.9648    0.0000 N   0  0  0  0  0  0  0  0  0  0  0  0
   -2.8973    2.2974    0.0000 N   0  0  0  0  0  0  0  0  0  0  0  0
   -1.3982    2.1398    0.0000 C   0  0  0  0  0  0  0  0  0  0  0  0
    0.7452    0.9023    0.0000 N   0  0  0  0  0  0  0  0  0  0  0  0
    2.1741   -2.3977    0.0000 C   0  0  0  0  0  0  0  0  0  0  0  0
    2.8886   -2.8102    0.0000 O   0  0  0  0  0  0  0  0  0  0  0  0
    2.8886   -3.6352    0.0000 C   0  0  0  0  0  0  0  0  0  0  0  0
    1.4597   -3.6352    0.0000 O   0  0  0  0  0  0  0  0  0  0  0  0
    2.3123    0.1571    0.0000 H   0  0  0  0  0  0  0  0  0  0  0  0
    0.8833    2.6320    0.0000 H   0  0  0  0  0  0  0  0  0  0  0  0
   -1.5774   -0.4387    0.0000 H   0  0  0  0  0  0  0  0  0  0  0  0
   -1.5774    1.4183    0.0000 H   0  0  0  0  0  0  0  0  0  0  0  0
    0.2100    3.8933    0.0000 H   0  0  0  0  0  0  0  0  0  0  0  0
    3.0678   -1.0567    0.0000 H   0  0  0  0  0  0  0  0  0  0  0  0
    2.1741   -5.1177    0.0000 H   0  0  0  0  0  0  0  0  0  0  0  0
    3.1008   -3.5127    0.0000 H   0  0  0  0  0  0  0  0  0  0  0  0
    3.1007   -4.5827    0.0000 H   0  0  0  0  0  0  0  0  0  0  0  0
   -0.6837   -1.3277    0.0000 H   0  0  0  0  0  0  0  0  0  0  0  0
   -1.6104   -2.9327    0.0000 H   0  0  0  0  0  0  0  0  0  0  0  0
   -1.6103   -1.8627    0.0000 H   0  0  0  0  0  0  0  0  0  0  0  0
   -0.1485   -1.0567    0.0000 H   0  0  0  0  0  0  0  0  0  0  0  0
   -1.3982    4.8218    0.0000 H   0  0  0  0  0  0  0  0  0  0  0  0
   -2.4362    5.2120    0.0000 H   0  0  0  0  0  0  0  0  0  0  0  0
   -4.1988    4.6394    0.0000 H   0  0  0  0  0  0  0  0  0  0  0  0
   -3.4828    5.4345    0.0000 H   0  0  0  0  0  0  0  0  0  0  0  0
   -3.2015    1.3611    0.0000 H   0  0  0  0  0  0  0  0  0  0  0  0
   -1.3982    1.1078    0.0000 H   0  0  0  0  0  0  0  0  0  0  0  0
    1.9620   -4.1702    0.0000 H   0  0  0  0  0  0  0  0  0  0  0  0
    3.8152   -4.1702    0.0000 H   0  0  0  0  0  0  0  0  0  0  0  0
    2.8886   -4.7052    0.0000 H   0  0  0  0  0  0  0  0  0  0  0  0
  1  3  1  0  0  0  0
  1  4  1  0  0  0  0
  1 31  1  0  0  0  0
  2  7  1  0  0  0  0
  2 19  1  0  0  0  0
  2 32  1  0  0  0  0
  3 11  2  0  0  0  0
  3 17  1  0  0  0  0
  4 18  2  0  0  0  0
  4 26  1  0  0  0  0
  5  6  2  0  0  0  0
  5 18  1  0  0  0  0
  5 33  1  0  0  0  0
  6  7  1  0  0  0  0
  6 34  1  0  0  0  0
  7 26  2  0  0  0  0
  8 19  2  0  0  0  0
  8 20  1  0  0  0  0
  8 35  1  0  0  0  0
  9 21  1  0  0  0  0
  9 22  1  0  0  0  0
  9 23  2  0  0  0  0
 10 21  1  0  0  0  0
 10 24  1  0  0  0  0
 10 25  2  0  0  0  0
 11 27  1  0  0  0  0
 11 36  1  0  0  0  0
 12 16  1  0  0  0  0
 12 27  2  0  0  0  0
 12 30  1  0  0  0  0
 13 30  1  0  0  0  0
 13 37  1  0  0  0  0
 13 38  1  0  0  0  0
 13 39  1  0  0  0  0
 14 15  1  0  0  0  0
 14 40  1  0  0  0  0
 14 41  1  0  0  0  0
 14 42  1  0  0  0  0
 15 16  1  0  0  0  0
 16 17  2  0  0  0  0
 17 43  1  0  0  0  0
 19 25  1  0  0  0  0
 20 21  2  0  0  0  0
 20 44  1  0  0  0  0
 22 45  1  0  0  0  0
 22 46  1  0  0  0  0
 22 47  1  0  0  0  0
 23 24  1  0  0  0  0
 24 48  1  0  0  0  0
 25 49  1  0  0  0  0
 27 28  1  0  0  0  0
 28 29  1  0  0  0  0
 29 50  1  0  0  0  0
 29 51  1  0  0  0  0
 29 52  1  0  0  0  0
M  END
>  <DRUGBANK_ID>
DB08519

>  <COMMON_NAME>
N~4~-(3-methyl-1H-indazol-6-yl)-N~2~-(3,4,5-trimethoxyphenyl)pyrimidine-2,4-diamine

$$$$
