
 OpenBabel10282417072D

101103  0  0  1  0  0  0  0  0999 V2000
   22.2740  -12.4108    0.0000 C   0  0  2  0  0  0  0  0  0  0  0  0
   22.2740  -13.2452    0.0000 C   0  0  1  0  0  0  0  0  0  0  0  0
   21.5505  -11.9996    0.0000 O   0  0  0  0  0  0  0  0  0  0  0  0
   22.9851  -11.9996    0.0000 O   0  0  0  0  0  0  0  0  0  0  0  0
   21.5505  -13.6685    0.0000 C   0  0  2  0  0  0  0  0  0  0  0  0
   23.0756  -13.9933    0.0000 N   0  0  0  0  0  0  0  0  0  0  0  0
   20.8353  -12.4108    0.0000 C   0  0  1  0  0  0  0  0  0  0  0  0
   23.8114  -11.9996    0.0000 P   0  0  3  0  0  0  0  0  0  0  0  0
   20.8353  -13.2452    0.0000 C   0  0  1  0  0  0  0  0  0  0  0  0
   21.5505  -14.4865    0.0000 O   0  0  0  0  0  0  0  0  0  0  0  0
   23.0838  -14.8195    0.0000 C   0  0  0  0  0  0  0  0  0  0  0  0
   20.1283  -11.9996    0.0000 C   0  0  0  0  0  0  0  0  0  0  0  0
   24.6376  -11.9996    0.0000 O   0  0  0  0  0  0  0  0  0  0  0  0
   23.8114  -11.1776    0.0000 O   0  0  0  0  0  0  0  0  0  0  0  0
   23.8114  -12.8218    0.0000 O   0  0  0  0  0  0  0  0  0  0  0  0
   20.1200  -13.6521    0.0000 O   0  0  0  0  0  0  0  0  0  0  0  0
   20.8353  -14.8977    0.0000 C   0  0  1  0  0  0  0  0  0  0  0  0
   23.7908  -15.2264    0.0000 C   0  0  0  0  0  0  0  0  0  0  0  0
   22.3685  -15.2306    0.0000 O   0  0  0  0  0  0  0  0  0  0  0  0
   20.1160  -11.1734    0.0000 O   0  0  0  0  0  0  0  0  0  0  0  0
   25.4556  -11.9996    0.0000 P   0  0  3  0  0  0  0  0  0  0  0  0
   20.8312  -15.7239    0.0000 C   0  0  0  0  0  0  0  0  0  0  0  0
   20.1200  -14.4865    0.0000 C   0  0  0  0  0  0  0  0  0  0  0  0
   26.2819  -11.9996    0.0000 O   0  0  0  0  0  0  0  0  0  0  0  0
   25.4556  -11.1776    0.0000 O   0  0  0  0  0  0  0  0  0  0  0  0
   25.4556  -12.8218    0.0000 O   0  0  0  0  0  0  0  0  0  0  0  0
   19.9186  -16.4267    0.0000 N   0  0  0  0  0  0  0  0  0  0  0  0
   21.5465  -16.1349    0.0000 O   0  0  0  0  0  0  0  0  0  0  0  0
   26.4544  -12.8054    0.0000 C   0  0  0  0  0  0  0  0  0  0  0  0
   19.9104  -17.2407    0.0000 C   0  0  2  0  0  0  0  0  0  0  0  0
   27.2395  -13.0561    0.0000 C   0  0  1  0  0  0  0  0  0  0  0  0
   19.1212  -17.5120    0.0000 C   0  0  0  0  0  0  0  0  0  0  0  0
   20.6092  -17.7051    0.0000 C   0  0  0  0  0  0  0  0  0  0  0  0
   27.9014  -12.5834    0.0000 O   0  0  0  0  0  0  0  0  0  0  0  0
   27.5109  -13.8412    0.0000 C   0  0  2  0  0  0  0  0  0  0  0  0
   18.4511  -17.0270    0.0000 N   0  0  0  0  0  0  0  0  0  0  0  0
   19.1212  -18.3300    0.0000 O   0  0  0  0  0  0  0  0  0  0  0  0
   28.5755  -13.0725    0.0000 C   0  0  2  0  0  0  0  0  0  0  0  0
   28.3331  -13.8412    0.0000 C   0  0  2  0  0  0  0  0  0  0  0  0
   27.0258  -14.5154    0.0000 O   0  0  0  0  0  0  0  0  0  0  0  0
   18.1347  -16.1760    0.0000 C   0  0  2  0  0  0  0  0  0  0  0  0
   29.2169  -11.7365    0.0000 N   0  0  0  0  0  0  0  0  0  0  0  0
   28.8181  -14.5072    0.0000 O   0  0  0  0  0  0  0  0  0  0  0  0
   17.3371  -15.9788    0.0000 C   0  0  0  0  0  0  0  0  0  0  0  0
   18.7553  -15.6459    0.0000 C   0  0  0  0  0  0  0  0  0  0  0  0
   28.5098  -11.3091    0.0000 C   0  0  0  0  0  0  0  0  0  0  0  0
   29.9444  -11.3091    0.0000 C   0  0  0  0  0  0  0  0  0  0  0  0
   16.7164  -16.5090    0.0000 C   0  0  0  0  0  0  0  0  0  0  0  0
   19.5569  -15.6436    0.0000 O   0  0  0  0  0  0  0  0  0  0  0  0
   18.4718  -14.8853    0.0000 O   0  0  0  0  0  0  0  0  0  0  0  0
   28.5098  -10.4788    0.0000 N   0  0  0  0  0  0  0  0  0  0  0  0
   27.7946  -11.7202    0.0000 O   0  0  0  0  0  0  0  0  0  0  0  0
   29.9444  -10.4788    0.0000 C   0  0  0  0  0  0  0  0  0  0  0  0
   16.0095  -16.0898    0.0000 C   0  0  0  0  0  0  0  0  0  0  0  0
   29.2209  -10.0636    0.0000 C   0  0  0  0  0  0  0  0  0  0  0  0
   15.3106  -16.5049    0.0000 O   0  0  0  0  0  0  0  0  0  0  0  0
   16.0053  -15.2593    0.0000 O   0  0  0  0  0  0  0  0  0  0  0  0
   29.2209   -9.2414    0.0000 O   0  0  0  0  0  0  0  0  0  0  0  0
   23.2008  -12.9455    0.0000 H   0  0  0  0  0  0  0  0  0  0  0  0
   23.2553  -12.8187    0.0000 H   0  0  0  0  0  0  0  0  0  0  0  0
   22.4787  -14.2008    0.0000 H   0  0  0  0  0  0  0  0  0  0  0  0
   23.9766  -13.5964    0.0000 H   0  0  0  0  0  0  0  0  0  0  0  0
   20.8380  -11.3408    0.0000 H   0  0  0  0  0  0  0  0  0  0  0  0
   20.8261  -14.3152    0.0000 H   0  0  0  0  0  0  0  0  0  0  0  0
   19.2048  -12.5400    0.0000 H   0  0  0  0  0  0  0  0  0  0  0  0
   19.1962  -11.4742    0.0000 H   0  0  0  0  0  0  0  0  0  0  0  0
   24.6514  -10.6926    0.0000 H   0  0  0  0  0  0  0  0  0  0  0  0
   19.2831  -13.1617    0.0000 H   0  0  0  0  0  0  0  0  0  0  0  0
   20.8353  -13.8277    0.0000 H   0  0  0  0  0  0  0  0  0  0  0  0
   23.7923  -16.2964    0.0000 H   0  0  0  0  0  0  0  0  0  0  0  0
   24.7167  -14.6901    0.0000 H   0  0  0  0  0  0  0  0  0  0  0  0
   24.7182  -15.7601    0.0000 H   0  0  0  0  0  0  0  0  0  0  0  0
   20.9487  -10.6759    0.0000 H   0  0  0  0  0  0  0  0  0  0  0  0
   20.1180  -13.4165    0.0000 H   0  0  0  0  0  0  0  0  0  0  0  0
   19.1944  -15.0232    0.0000 H   0  0  0  0  0  0  0  0  0  0  0  0
   19.1924  -13.9532    0.0000 H   0  0  0  0  0  0  0  0  0  0  0  0
   26.2956  -10.6926    0.0000 H   0  0  0  0  0  0  0  0  0  0  0  0
   19.0374  -15.9876    0.0000 H   0  0  0  0  0  0  0  0  0  0  0  0
   25.6616  -13.5240    0.0000 H   0  0  0  0  0  0  0  0  0  0  0  0
   26.6812  -13.8511    0.0000 H   0  0  0  0  0  0  0  0  0  0  0  0
   19.0426  -16.6148    0.0000 H   0  0  0  0  0  0  0  0  0  0  0  0
   27.0737  -11.9990    0.0000 H   0  0  0  0  0  0  0  0  0  0  0  0
   20.5419  -18.7730    0.0000 H   0  0  0  0  0  0  0  0  0  0  0  0
   21.5677  -17.2295    0.0000 H   0  0  0  0  0  0  0  0  0  0  0  0
   21.5004  -18.2973    0.0000 H   0  0  0  0  0  0  0  0  0  0  0  0
   26.4522  -13.6861    0.0000 H   0  0  0  0  0  0  0  0  0  0  0  0
   17.6674  -17.6229    0.0000 H   0  0  0  0  0  0  0  0  0  0  0  0
   28.3131  -12.0352    0.0000 H   0  0  0  0  0  0  0  0  0  0  0  0
   27.8479  -14.7948    0.0000 H   0  0  0  0  0  0  0  0  0  0  0  0
   26.0607  -14.4185    0.0000 H   0  0  0  0  0  0  0  0  0  0  0  0
   17.4223  -16.9743    0.0000 H   0  0  0  0  0  0  0  0  0  0  0  0
   28.4245  -15.3938    0.0000 H   0  0  0  0  0  0  0  0  0  0  0  0
   17.0908  -14.9375    0.0000 H   0  0  0  0  0  0  0  0  0  0  0  0
   16.3200  -15.6465    0.0000 H   0  0  0  0  0  0  0  0  0  0  0  0
   30.8401  -11.8217    0.0000 H   0  0  0  0  0  0  0  0  0  0  0  0
   16.8081  -17.5751    0.0000 H   0  0  0  0  0  0  0  0  0  0  0  0
   15.8102  -17.0780    0.0000 H   0  0  0  0  0  0  0  0  0  0  0  0
   20.0277  -16.4537    0.0000 H   0  0  0  0  0  0  0  0  0  0  0  0
   27.6560   -9.9886    0.0000 H   0  0  0  0  0  0  0  0  0  0  0  0
   30.8375   -9.9616    0.0000 H   0  0  0  0  0  0  0  0  0  0  0  0
   14.4934  -16.0465    0.0000 H   0  0  0  0  0  0  0  0  0  0  0  0
  1  2  1  0  0  0  0
  1  3  1  0  0  0  0
  1  4  1  0  0  0  0
  1 59  1  1  0  0  0
  2  5  1  0  0  0  0
  2  6  1  0  0  0  0
  2 60  1  1  0  0  0
  3  7  1  0  0  0  0
  4  8  1  0  0  0  0
  5  9  1  0  0  0  0
  5 10  1  0  0  0  0
  5 61  1  6  0  0  0
  6 11  1  0  0  0  0
  6 62  1  0  0  0  0
  7 12  1  0  0  0  0
  7  9  1  0  0  0  0
  7 63  1  6  0  0  0
  8 13  1  0  0  0  0
  8 14  1  0  0  0  0
  8 15  2  0  0  0  0
  9 16  1  0  0  0  0
  9 64  1  1  0  0  0
 10 17  1  0  0  0  0
 11 18  1  0  0  0  0
 11 19  2  0  0  0  0
 12 20  1  0  0  0  0
 12 65  1  0  0  0  0
 12 66  1  0  0  0  0
 13 21  1  0  0  0  0
 14 67  1  0  0  0  0
 16 68  1  0  0  0  0
 17 22  1  0  0  0  0
 17 23  1  0  0  0  0
 17 69  1  6  0  0  0
 18 70  1  0  0  0  0
 18 71  1  0  0  0  0
 18 72  1  0  0  0  0
 20 73  1  0  0  0  0
 21 24  1  0  0  0  0
 21 25  1  0  0  0  0
 21 26  2  0  0  0  0
 22 27  1  0  0  0  0
 22 28  2  0  0  0  0
 23 74  1  0  0  0  0
 23 75  1  0  0  0  0
 23 76  1  0  0  0  0
 24 29  1  0  0  0  0
 25 77  1  0  0  0  0
 27 78  1  0  0  0  0
 29 79  1  0  0  0  0
 29 80  1  0  0  0  0
 30 27  1  0  0  0  0
 30 32  1  0  0  0  0
 30 33  1  0  0  0  0
 30 81  1  6  0  0  0
 31 29  1  0  0  0  0
 31 34  1  0  0  0  0
 31 35  1  0  0  0  0
 31 82  1  6  0  0  0
 32 36  1  0  0  0  0
 32 37  2  0  0  0  0
 33 83  1  0  0  0  0
 33 84  1  0  0  0  0
 33 85  1  0  0  0  0
 34 38  1  0  0  0  0
 35 39  1  0  0  0  0
 35 40  1  0  0  0  0
 35 86  1  1  0  0  0
 36 87  1  0  0  0  0
 38 42  1  0  0  0  0
 38 39  1  0  0  0  0
 38 88  1  6  0  0  0
 39 43  1  0  0  0  0
 39 89  1  1  0  0  0
 40 90  1  0  0  0  0
 41 36  1  0  0  0  0
 41 44  1  0  0  0  0
 41 45  1  0  0  0  0
 41 91  1  1  0  0  0
 42 46  1  0  0  0  0
 42 47  1  0  0  0  0
 43 92  1  0  0  0  0
 44 48  1  0  0  0  0
 44 93  1  0  0  0  0
 44 94  1  0  0  0  0
 45 49  1  0  0  0  0
 45 50  2  0  0  0  0
 46 51  1  0  0  0  0
 46 52  2  0  0  0  0
 47 53  2  0  0  0  0
 47 95  1  0  0  0  0
 48 54  1  0  0  0  0
 48 96  1  0  0  0  0
 48 97  1  0  0  0  0
 49 98  1  0  0  0  0
 51 55  1  0  0  0  0
 51 99  1  0  0  0  0
 53 55  1  0  0  0  0
 53100  1  0  0  0  0
 54 56  1  0  0  0  0
 54 57  2  0  0  0  0
 55 58  2  0  0  0  0
 56101  1  0  0  0  0
M  END
>  <DRUGBANK_ID>
DB02314

>  <SECONDARY_ACCESSION_NUMBERS>
EXPT03165

>  <COMMON_NAME>
Uridine-5'-Diphosphate-N-Acetylmuramoyl-L-Alanine-D-Glutamate

$$$$
