LT5
 OpenBabel10282417072D

 24 24  0  0  0  0  0  0  0  0999 V2000
    3.1234    0.6322    0.0000 F   0  0  0  0  0  0  0  0  0  0  0  0
    2.4090    0.2197    0.0000 C   0  0  0  0  0  0  0  0  0  0  0  0
    1.9965    0.9341    0.0000 F   0  0  0  0  0  0  0  0  0  0  0  0
    2.8215   -0.4948    0.0000 F   0  0  0  0  0  0  0  0  0  0  0  0
    1.6945   -0.1928    0.0000 C   0  0  0  0  0  0  0  0  0  0  0  0
    0.9800    0.2197    0.0000 C   0  0  0  0  0  0  0  0  0  0  0  0
    1.6945   -1.0178    0.0000 C   0  0  0  0  0  0  0  0  0  0  0  0
    0.9800   -1.4303    0.0000 C   0  0  0  0  0  0  0  0  0  0  0  0
    0.2656   -1.0178    0.0000 C   0  0  0  0  0  0  0  0  0  0  0  0
    0.2656   -0.1928    0.0000 C   0  0  0  0  0  0  0  0  0  0  0  0
   -0.4489    0.2197    0.0000 C   0  0  1  0  0  0  0  0  0  0  0  0
   -1.1634   -0.1928    0.0000 O   0  0  0  0  0  0  0  0  0  0  0  0
   -0.4489    1.0447    0.0000 C   0  0  0  0  0  0  0  0  0  0  0  0
   -1.1634    1.4572    0.0000 N   0  0  0  0  0  0  0  0  0  0  0  0
   -0.4489   -0.3643    0.0000 H   0  0  0  0  0  0  0  0  0  0  0  0
    0.9800    1.2517    0.0000 H   0  0  0  0  0  0  0  0  0  0  0  0
    2.5882   -1.5338    0.0000 H   0  0  0  0  0  0  0  0  0  0  0  0
    0.9800   -2.4623    0.0000 H   0  0  0  0  0  0  0  0  0  0  0  0
   -0.6281   -1.5338    0.0000 H   0  0  0  0  0  0  0  0  0  0  0  0
   -2.0034    0.2922    0.0000 H   0  0  0  0  0  0  0  0  0  0  0  0
    0.4777    1.5797    0.0000 H   0  0  0  0  0  0  0  0  0  0  0  0
   -0.4489    2.1147    0.0000 H   0  0  0  0  0  0  0  0  0  0  0  0
   -1.1634    2.4772    0.0000 H   0  0  0  0  0  0  0  0  0  0  0  0
   -2.0467    0.9472    0.0000 H   0  0  0  0  0  0  0  0  0  0  0  0
  1  2  1  0  0  0  0
  2  3  1  0  0  0  0
  4  2  1  0  0  0  0
  5  2  1  0  0  0  0
  5  7  1  0  0  0  0
  6  5  2  0  0  0  0
  6 16  1  0  0  0  0
  7 17  1  0  0  0  0
  8  7  2  0  0  0  0
  8 18  1  0  0  0  0
  9  8  1  0  0  0  0
  9 19  1  0  0  0  0
 10  6  1  0  0  0  0
 10  9  2  0  0  0  0
 11 10  1  0  0  0  0
 11 12  1  0  0  0  0
 11 15  1  6  0  0  0
 12 20  1  0  0  0  0
 13 11  1  0  0  0  0
 13 21  1  0  0  0  0
 13 22  1  0  0  0  0
 14 13  1  0  0  0  0
 14 23  1  0  0  0  0
 14 24  1  0  0  0  0
M  END
>  <DRUGBANK_ID>
DB08129

>  <COMMON_NAME>
(1R)-2-amino-1-[3-(trifluoromethyl)phenyl]ethanol

$$$$
