
 OpenBabel10282417072D

121123  0  0  1  0  0  0  0  0999 V2000
   -1.4289    5.7750    0.0000 C   0  0  0  0  0  0  0  0  0  0  0  0
   -0.7145    5.3625    0.0000 C   0  0  0  0  0  0  0  0  0  0  0  0
   -0.0000    5.7750    0.0000 C   0  0  2  0  0  0  0  0  0  0  0  0
   -0.0000    6.6000    0.0000 C   0  0  0  0  0  0  0  0  0  0  0  0
    0.7145    5.3625    0.0000 C   0  0  1  0  0  0  0  0  0  0  0  0
    0.7145    6.1875    0.0000 C   0  0  0  0  0  0  0  0  0  0  0  0
    0.3789    6.9412    0.0000 O   0  0  0  0  0  0  0  0  0  0  0  0
    1.4289    6.6000    0.0000 N   0  0  0  0  0  0  0  0  0  0  0  0
    2.1434    6.1875    0.0000 C   0  0  2  0  0  0  0  0  0  0  0  0
    2.1434    5.3625    0.0000 C   0  0  0  0  0  0  0  0  0  0  0  0
    1.4289    4.9500    0.0000 O   0  0  0  0  0  0  0  0  0  0  0  0
    2.8579    4.9500    0.0000 N   0  0  0  0  0  0  0  0  0  0  0  0
    2.8579    4.1250    0.0000 C   0  0  2  0  0  0  0  0  0  0  0  0
    3.5724    3.7125    0.0000 C   0  0  0  0  0  0  0  0  0  0  0  0
    4.2868    4.1250    0.0000 O   0  0  0  0  0  0  0  0  0  0  0  0
    3.5724    2.8875    0.0000 N   0  0  0  0  0  0  0  0  0  0  0  0
    4.2868    2.4750    0.0000 C   0  0  1  0  0  0  0  0  0  0  0  0
    4.2868    1.6500    0.0000 C   0  0  0  0  0  0  0  0  0  0  0  0
    3.5724    1.2375    0.0000 C   0  0  0  0  0  0  0  0  0  0  0  0
    2.8579    1.6500    0.0000 S   0  0  0  0  0  0  0  0  0  0  0  0
    2.1434    1.2375    0.0000 C   0  0  0  0  0  0  0  0  0  0  0  0
    1.4289    1.6500    0.0000 C   0  0  0  0  0  0  0  0  0  0  0  0
    1.4289    2.4750    0.0000 C   0  0  0  0  0  0  0  0  0  0  0  0
    2.1434    2.8875    0.0000 O   0  0  0  0  0  0  0  0  0  0  0  0
    0.7145    2.8875    0.0000 N   0  0  0  0  0  0  0  0  0  0  0  0
    0.7145    3.7125    0.0000 C   0  0  1  0  0  0  0  0  0  0  0  0
   -0.0000    4.1250    0.0000 C   0  0  0  0  0  0  0  0  0  0  0  0
   -0.7145    3.7125    0.0000 O   0  0  0  0  0  0  0  0  0  0  0  0
   -0.0000    4.9500    0.0000 N   0  0  0  0  0  0  0  0  0  0  0  0
   -0.0000    3.3000    0.0000 C   0  0  0  0  0  0  0  0  0  0  0  0
   -0.0000    2.4750    0.0000 C   0  0  0  0  0  0  0  0  0  0  0  0
    0.6674    1.9901    0.0000 C   0  0  0  0  0  0  0  0  0  0  0  0
    0.4125    1.2055    0.0000 N   0  0  0  0  0  0  0  0  0  0  0  0
   -0.4125    1.2055    0.0000 C   0  0  0  0  0  0  0  0  0  0  0  0
   -0.6674    1.9901    0.0000 C   0  0  0  0  0  0  0  0  0  0  0  0
   -1.4744    2.1616    0.0000 C   0  0  0  0  0  0  0  0  0  0  0  0
   -2.0264    1.5485    0.0000 C   0  0  0  0  0  0  0  0  0  0  0  0
   -1.7715    0.7639    0.0000 C   0  0  0  0  0  0  0  0  0  0  0  0
   -0.9645    0.5924    0.0000 C   0  0  0  0  0  0  0  0  0  0  0  0
    5.0013    2.8875    0.0000 C   0  0  0  0  0  0  0  0  0  0  0  0
    5.0013    3.7125    0.0000 O   0  0  0  0  0  0  0  0  0  0  0  0
    5.7158    2.4750    0.0000 N   0  0  0  0  0  0  0  0  0  0  0  0
    5.7158    1.6500    0.0000 C   0  0  0  0  0  0  0  0  0  0  0  0
    6.4302    2.8875    0.0000 C   0  0  1  0  0  0  0  0  0  0  0  0
    7.1447    2.4750    0.0000 C   0  0  0  0  0  0  0  0  0  0  0  0
    7.8592    2.8875    0.0000 C   0  0  0  0  0  0  0  0  0  0  0  0
    8.5737    2.4750    0.0000 C   0  0  0  0  0  0  0  0  0  0  0  0
    9.2881    2.8875    0.0000 N   0  0  0  0  0  0  0  0  0  0  0  0
    6.4302    3.7125    0.0000 C   0  0  0  0  0  0  0  0  0  0  0  0
    7.1447    4.1250    0.0000 O   0  0  0  0  0  0  0  0  0  0  0  0
    3.5724    4.5375    0.0000 C   0  0  0  0  0  0  0  0  0  0  0  0
    3.5724    5.3625    0.0000 C   0  0  0  0  0  0  0  0  0  0  0  0
    2.8579    5.7750    0.0000 O   0  0  0  0  0  0  0  0  0  0  0  0
    4.2868    5.7750    0.0000 N   0  0  0  0  0  0  0  0  0  0  0  0
    2.8579    6.6000    0.0000 C   0  0  2  0  0  0  0  0  0  0  0  0
    3.5724    6.1875    0.0000 C   0  0  0  0  0  0  0  0  0  0  0  0
    2.8579    7.4250    0.0000 C   0  0  0  0  0  0  0  0  0  0  0  0
    3.5724    7.8375    0.0000 C   0  0  0  0  0  0  0  0  0  0  0  0
   -1.4289    6.8450    0.0000 H   0  0  0  0  0  0  0  0  0  0  0  0
   -2.3556    5.2400    0.0000 H   0  0  0  0  0  0  0  0  0  0  0  0
   -2.3555    6.3100    0.0000 H   0  0  0  0  0  0  0  0  0  0  0  0
   -0.7145    4.2925    0.0000 H   0  0  0  0  0  0  0  0  0  0  0  0
    0.2121    4.8275    0.0000 H   0  0  0  0  0  0  0  0  0  0  0  0
   -0.0000    4.7050    0.0000 H   0  0  0  0  0  0  0  0  0  0  0  0
    0.9266    7.1350    0.0000 H   0  0  0  0  0  0  0  0  0  0  0  0
   -0.9266    7.1350    0.0000 H   0  0  0  0  0  0  0  0  0  0  0  0
   -0.0000    7.6700    0.0000 H   0  0  0  0  0  0  0  0  0  0  0  0
    0.1795    6.2891    0.0000 H   0  0  0  0  0  0  0  0  0  0  0  0
    1.4289    7.5845    0.0000 H   0  0  0  0  0  0  0  0  0  0  0  0
    2.1434    7.2575    0.0000 H   0  0  0  0  0  0  0  0  0  0  0  0
    3.7105    5.4423    0.0000 H   0  0  0  0  0  0  0  0  0  0  0  0
    3.3929    5.0516    0.0000 H   0  0  0  0  0  0  0  0  0  0  0  0
    2.7198    2.3953    0.0000 H   0  0  0  0  0  0  0  0  0  0  0  0
    4.2868    3.5450    0.0000 H   0  0  0  0  0  0  0  0  0  0  0  0
    5.2135    1.1150    0.0000 H   0  0  0  0  0  0  0  0  0  0  0  0
    4.2868    0.5800    0.0000 H   0  0  0  0  0  0  0  0  0  0  0  0
    3.5724    0.1675    0.0000 H   0  0  0  0  0  0  0  0  0  0  0  0
    2.6458    0.7025    0.0000 H   0  0  0  0  0  0  0  0  0  0  0  0
    2.1434    0.1675    0.0000 H   0  0  0  0  0  0  0  0  0  0  0  0
    1.2168    0.7025    0.0000 H   0  0  0  0  0  0  0  0  0  0  0  0
    0.5023    1.1150    0.0000 H   0  0  0  0  0  0  0  0  0  0  0  0
    0.5023    2.1850    0.0000 H   0  0  0  0  0  0  0  0  0  0  0  0
   -0.1381    2.3953    0.0000 H   0  0  0  0  0  0  0  0  0  0  0  0
    0.1795    2.7859    0.0000 H   0  0  0  0  0  0  0  0  0  0  0  0
   -0.8526    5.4423    0.0000 H   0  0  0  0  0  0  0  0  0  0  0  0
   -0.9266    3.8350    0.0000 H   0  0  0  0  0  0  0  0  0  0  0  0
   -0.9266    2.7650    0.0000 H   0  0  0  0  0  0  0  0  0  0  0  0
    1.6489    2.3090    0.0000 H   0  0  0  0  0  0  0  0  0  0  0  0
    0.9912    0.4090    0.0000 H   0  0  0  0  0  0  0  0  0  0  0  0
   -1.7933    3.1431    0.0000 H   0  0  0  0  0  0  0  0  0  0  0  0
   -3.0358    1.7631    0.0000 H   0  0  0  0  0  0  0  0  0  0  0  0
   -2.4620   -0.0030    0.0000 H   0  0  0  0  0  0  0  0  0  0  0  0
   -0.6456   -0.3891    0.0000 H   0  0  0  0  0  0  0  0  0  0  0  0
    4.7892    1.1150    0.0000 H   0  0  0  0  0  0  0  0  0  0  0  0
    6.6424    1.1150    0.0000 H   0  0  0  0  0  0  0  0  0  0  0  0
    5.7158    0.5800    0.0000 H   0  0  0  0  0  0  0  0  0  0  0  0
    6.4302    1.8175    0.0000 H   0  0  0  0  0  0  0  0  0  0  0  0
    7.1447    1.4050    0.0000 H   0  0  0  0  0  0  0  0  0  0  0  0
    8.0713    1.9400    0.0000 H   0  0  0  0  0  0  0  0  0  0  0  0
    7.8592    3.9575    0.0000 H   0  0  0  0  0  0  0  0  0  0  0  0
    8.7858    3.4225    0.0000 H   0  0  0  0  0  0  0  0  0  0  0  0
    8.5737    1.4050    0.0000 H   0  0  0  0  0  0  0  0  0  0  0  0
    9.5004    1.9400    0.0000 H   0  0  0  0  0  0  0  0  0  0  0  0
   10.1715    2.3775    0.0000 H   0  0  0  0  0  0  0  0  0  0  0  0
    9.2881    3.9075    0.0000 H   0  0  0  0  0  0  0  0  0  0  0  0
    5.5036    4.2475    0.0000 H   0  0  0  0  0  0  0  0  0  0  0  0
    6.4302    4.7825    0.0000 H   0  0  0  0  0  0  0  0  0  0  0  0
    7.9847    3.6400    0.0000 H   0  0  0  0  0  0  0  0  0  0  0  0
    4.4990    4.0025    0.0000 H   0  0  0  0  0  0  0  0  0  0  0  0
    4.4990    5.0725    0.0000 H   0  0  0  0  0  0  0  0  0  0  0  0
    5.1394    5.2828    0.0000 H   0  0  0  0  0  0  0  0  0  0  0  0
    4.2868    6.7595    0.0000 H   0  0  0  0  0  0  0  0  0  0  0  0
    3.7845    7.1350    0.0000 H   0  0  0  0  0  0  0  0  0  0  0  0
    3.5724    5.1175    0.0000 H   0  0  0  0  0  0  0  0  0  0  0  0
    4.4990    6.7225    0.0000 H   0  0  0  0  0  0  0  0  0  0  0  0
    4.4991    5.6525    0.0000 H   0  0  0  0  0  0  0  0  0  0  0  0
    1.9313    7.9600    0.0000 H   0  0  0  0  0  0  0  0  0  0  0  0
    2.8579    8.4950    0.0000 H   0  0  0  0  0  0  0  0  0  0  0  0
    4.4990    7.3025    0.0000 H   0  0  0  0  0  0  0  0  0  0  0  0
    3.5724    8.9075    0.0000 H   0  0  0  0  0  0  0  0  0  0  0  0
    4.4991    8.3725    0.0000 H   0  0  0  0  0  0  0  0  0  0  0  0
  1  2  1  0  0  0  0
  1 59  1  0  0  0  0
  1 60  1  0  0  0  0
  1 61  1  0  0  0  0
  2  3  1  0  0  0  0
  2 62  1  0  0  0  0
  2 63  1  0  0  0  0
  3  4  1  0  0  0  0
  3 64  1  1  0  0  0
  4 65  1  0  0  0  0
  4 66  1  0  0  0  0
  4 67  1  0  0  0  0
  5  3  1  0  0  0  0
  5  6  1  0  0  0  0
  5 29  1  0  0  0  0
  5 68  1  6  0  0  0
  6  7  2  0  0  0  0
  6  8  1  0  0  0  0
  8  9  1  0  0  0  0
  8 69  1  0  0  0  0
  9 10  1  0  0  0  0
  9 55  1  0  0  0  0
  9 70  1  6  0  0  0
 10 11  2  0  0  0  0
 10 12  1  0  0  0  0
 12 13  1  0  0  0  0
 12 71  1  0  0  0  0
 13 14  1  0  0  0  0
 13 51  1  0  0  0  0
 13 72  1  6  0  0  0
 14 15  2  0  0  0  0
 14 16  1  0  0  0  0
 16 17  1  0  0  0  0
 16 73  1  0  0  0  0
 17 18  1  0  0  0  0
 17 40  1  0  0  0  0
 17 74  1  1  0  0  0
 18 19  1  0  0  0  0
 18 75  1  0  0  0  0
 18 76  1  0  0  0  0
 19 20  1  0  0  0  0
 19 77  1  0  0  0  0
 19 78  1  0  0  0  0
 20 21  1  0  0  0  0
 21 22  1  0  0  0  0
 21 79  1  0  0  0  0
 21 80  1  0  0  0  0
 22 23  1  0  0  0  0
 22 81  1  0  0  0  0
 22 82  1  0  0  0  0
 23 24  2  0  0  0  0
 23 25  1  0  0  0  0
 25 26  1  0  0  0  0
 25 83  1  0  0  0  0
 26 27  1  0  0  0  0
 26 30  1  0  0  0  0
 26 84  1  1  0  0  0
 27 28  2  0  0  0  0
 27 29  1  0  0  0  0
 29 85  1  0  0  0  0
 30 31  1  0  0  0  0
 30 86  1  0  0  0  0
 30 87  1  0  0  0  0
 31 32  2  0  0  0  0
 31 35  1  0  0  0  0
 32 33  1  0  0  0  0
 32 88  1  0  0  0  0
 33 34  1  0  0  0  0
 33 89  1  0  0  0  0
 34 35  1  0  0  0  0
 34 39  2  0  0  0  0
 35 36  2  0  0  0  0
 36 37  1  0  0  0  0
 36 90  1  0  0  0  0
 37 38  2  0  0  0  0
 37 91  1  0  0  0  0
 38 39  1  0  0  0  0
 38 92  1  0  0  0  0
 39 93  1  0  0  0  0
 40 41  2  0  0  0  0
 40 42  1  0  0  0  0
 42 43  1  0  0  0  0
 43 94  1  0  0  0  0
 43 95  1  0  0  0  0
 43 96  1  0  0  0  0
 44 42  1  0  0  0  0
 44 45  1  0  0  0  0
 44 49  1  0  0  0  0
 44 97  1  1  0  0  0
 45 46  1  0  0  0  0
 45 98  1  0  0  0  0
 45 99  1  0  0  0  0
 46 47  1  0  0  0  0
 46100  1  0  0  0  0
 46101  1  0  0  0  0
 47 48  1  0  0  0  0
 47102  1  0  0  0  0
 47103  1  0  0  0  0
 48104  1  0  0  0  0
 48105  1  0  0  0  0
 49 50  1  0  0  0  0
 49106  1  0  0  0  0
 49107  1  0  0  0  0
 50108  1  0  0  0  0
 51 52  1  0  0  0  0
 51109  1  0  0  0  0
 51110  1  0  0  0  0
 52 53  2  0  0  0  0
 52 54  1  0  0  0  0
 54111  1  0  0  0  0
 54112  1  0  0  0  0
 55 56  1  0  0  0  0
 55 57  1  0  0  0  0
 55113  1  6  0  0  0
 56114  1  0  0  0  0
 56115  1  0  0  0  0
 56116  1  0  0  0  0
 57 58  1  0  0  0  0
 57117  1  0  0  0  0
 57118  1  0  0  0  0
 58119  1  0  0  0  0
 58120  1  0  0  0  0
 58121  1  0  0  0  0
M  END
>  <DRUGBANK_ID>
DB12292

>  <COMMON_NAME>
Barusiban

>  <CAS_NUMBER>
285571-64-4

>  <UNII>
UX33I93GLS

>  <SYNONYMS>
Barusiban

$$$$
