
 OpenBabel10282417072D

 81 88  0  0  1  0  0  0  0  0999 V2000
   -6.3216   -0.9279    0.0000 C   0  0  0  0  0  0  0  0  0  0  0  0
   -5.6240   -0.4875    0.0000 O   0  0  0  0  0  0  0  0  0  0  0  0
   -4.8938   -0.8715    0.0000 C   0  0  0  0  0  0  0  0  0  0  0  0
   -4.8612   -1.6958    0.0000 O   0  0  0  0  0  0  0  0  0  0  0  0
   -4.1962   -0.4311    0.0000 C   0  0  0  0  0  0  0  0  0  0  0  0
   -3.4660   -0.8150    0.0000 C   0  0  0  0  0  0  0  0  0  0  0  0
   -2.7684   -0.3746    0.0000 C   0  0  0  0  0  0  0  0  0  0  0  0
   -2.7146    0.4486    0.0000 C   0  0  0  0  0  0  0  0  0  0  0  0
   -3.3490    0.9760    0.0000 C   0  0  0  0  0  0  0  0  0  0  0  0
   -1.9151    0.6519    0.0000 C   0  0  0  0  0  0  0  0  0  0  0  0
   -1.3945    1.5893    0.0000 C   0  0  0  0  0  0  0  0  0  0  0  0
   -0.6802    2.0020    0.0000 C   0  0  0  0  0  0  0  0  0  0  0  0
   -0.3746    2.7684    0.0000 C   0  0  0  0  0  0  0  0  0  0  0  0
   -0.8150    3.4660    0.0000 C   0  0  0  0  0  0  0  0  0  0  0  0
   -0.4311    4.1962    0.0000 C   0  0  0  0  0  0  0  0  0  0  0  0
    0.4486    2.7146    0.0000 C   0  0  0  0  0  0  0  0  0  0  0  0
    0.9760    3.3490    0.0000 C   0  0  0  0  0  0  0  0  0  0  0  0
    0.6519    1.9151    0.0000 C   0  0  0  0  0  0  0  0  0  0  0  0
    1.5893    1.3945    0.0000 C   0  0  0  0  0  0  0  0  0  0  0  0
    2.0020    0.6802    0.0000 C   0  0  0  0  0  0  0  0  0  0  0  0
    1.4746    0.0457    0.0000 N   0  0  0  0  0  0  0  0  0  0  0  0
    1.9151   -0.6519    0.0000 C   0  0  0  0  0  0  0  0  0  0  0  0
    1.3945   -1.5893    0.0000 C   0  0  0  0  0  0  0  0  0  0  0  0
    0.6802   -2.0020    0.0000 C   0  0  0  0  0  0  0  0  0  0  0  0
    0.3746   -2.7684    0.0000 C   0  0  0  0  0  0  0  0  0  0  0  0
    0.8150   -3.4660    0.0000 C   0  0  0  0  0  0  0  0  0  0  0  0
   -0.4486   -2.7146    0.0000 C   0  0  0  0  0  0  0  0  0  0  0  0
   -0.9760   -3.3490    0.0000 C   0  0  0  0  0  0  0  0  0  0  0  0
   -1.7891   -3.2095    0.0000 C   0  0  0  0  0  0  0  0  0  0  0  0
   -2.3165   -3.8440    0.0000 C   0  0  0  0  0  0  0  0  0  0  0  0
   -3.1296   -3.7044    0.0000 O   0  0  0  0  0  0  0  0  0  0  0  0
   -2.0308   -4.6179    0.0000 O   0  0  0  0  0  0  0  0  0  0  0  0
   -1.2176   -4.7574    0.0000 C   0  0  0  0  0  0  0  0  0  0  0  0
   -0.6519   -1.9151    0.0000 C   0  0  0  0  0  0  0  0  0  0  0  0
   -1.5893   -1.3945    0.0000 C   0  0  0  0  0  0  0  0  0  0  0  0
   -2.0020   -0.6802    0.0000 C   0  0  0  0  0  0  0  0  0  0  0  0
   -1.4746   -0.0457    0.0000 N   0  0  0  0  0  0  0  0  0  0  0  0
    0.0000    0.0000    0.0000 Fe  0  0  2  0  0  0  0  0  0  0  0  0
    0.0457   -1.4746    0.0000 N   0  0  0  0  0  0  0  0  0  0  0  0
   -0.0457    1.4746    0.0000 N   0  0  0  0  0  0  0  0  0  0  0  0
    2.7146   -0.4486    0.0000 C   0  0  0  0  0  0  0  0  0  0  0  0
    3.3490   -0.9760    0.0000 C   0  0  0  0  0  0  0  0  0  0  0  0
    2.7684    0.3746    0.0000 C   0  0  0  0  0  0  0  0  0  0  0  0
    3.4660    0.8150    0.0000 C   0  0  0  0  0  0  0  0  0  0  0  0
    3.4334    1.6394    0.0000 C   0  0  0  0  0  0  0  0  0  0  0  0
   -7.2687   -0.4299    0.0000 H   0  0  0  0  0  0  0  0  0  0  0  0
   -6.2793   -1.9971    0.0000 H   0  0  0  0  0  0  0  0  0  0  0  0
   -7.2264   -1.4991    0.0000 H   0  0  0  0  0  0  0  0  0  0  0  0
   -4.2385    0.6381    0.0000 H   0  0  0  0  0  0  0  0  0  0  0  0
   -3.2914    0.1401    0.0000 H   0  0  0  0  0  0  0  0  0  0  0  0
   -3.4237   -1.8842    0.0000 H   0  0  0  0  0  0  0  0  0  0  0  0
   -2.5189   -1.3130    0.0000 H   0  0  0  0  0  0  0  0  0  0  0  0
   -3.1680    2.0306    0.0000 H   0  0  0  0  0  0  0  0  0  0  0  0
   -4.3528    0.6054    0.0000 H   0  0  0  0  0  0  0  0  0  0  0  0
   -4.1718    1.6600    0.0000 H   0  0  0  0  0  0  0  0  0  0  0  0
   -2.1304    2.3128    0.0000 H   0  0  0  0  0  0  0  0  0  0  0  0
   -1.8462    3.4252    0.0000 H   0  0  0  0  0  0  0  0  0  0  0  0
    0.6001    4.2370    0.0000 H   0  0  0  0  0  0  0  0  0  0  0  0
   -0.9820    5.0688    0.0000 H   0  0  0  0  0  0  0  0  0  0  0  0
    2.0306    3.1680    0.0000 H   0  0  0  0  0  0  0  0  0  0  0  0
    0.6054    4.3528    0.0000 H   0  0  0  0  0  0  0  0  0  0  0  0
    1.6600    4.1718    0.0000 H   0  0  0  0  0  0  0  0  0  0  0  0
    2.3128    2.1304    0.0000 H   0  0  0  0  0  0  0  0  0  0  0  0
    2.1304   -2.3128    0.0000 H   0  0  0  0  0  0  0  0  0  0  0  0
    0.3170   -4.4131    0.0000 H   0  0  0  0  0  0  0  0  0  0  0  0
    1.8842   -3.4237    0.0000 H   0  0  0  0  0  0  0  0  0  0  0  0
    1.3862   -4.3708    0.0000 H   0  0  0  0  0  0  0  0  0  0  0  0
   -0.6054   -4.3528    0.0000 H   0  0  0  0  0  0  0  0  0  0  0  0
   -1.6600   -4.1718    0.0000 H   0  0  0  0  0  0  0  0  0  0  0  0
   -2.1597   -2.2057    0.0000 H   0  0  0  0  0  0  0  0  0  0  0  0
   -2.8437   -3.0286    0.0000 H   0  0  0  0  0  0  0  0  0  0  0  0
   -0.8470   -5.7612    0.0000 H   0  0  0  0  0  0  0  0  0  0  0  0
   -0.5336   -3.9345    0.0000 H   0  0  0  0  0  0  0  0  0  0  0  0
   -0.1630   -4.9383    0.0000 H   0  0  0  0  0  0  0  0  0  0  0  0
   -2.3128   -2.1304    0.0000 H   0  0  0  0  0  0  0  0  0  0  0  0
    3.1680   -2.0306    0.0000 H   0  0  0  0  0  0  0  0  0  0  0  0
    4.3528   -0.6054    0.0000 H   0  0  0  0  0  0  0  0  0  0  0  0
    4.1718   -1.6600    0.0000 H   0  0  0  0  0  0  0  0  0  0  0  0
    4.3794    0.3347    0.0000 H   0  0  0  0  0  0  0  0  0  0  0  0
    4.3061    2.1903    0.0000 H   0  0  0  0  0  0  0  0  0  0  0  0
    2.5200    2.1197    0.0000 H   0  0  0  0  0  0  0  0  0  0  0  0
  1  2  1  0  0  0  0
  1 46  1  0  0  0  0
  1 47  1  0  0  0  0
  1 48  1  0  0  0  0
  2  3  1  0  0  0  0
  3  4  2  0  0  0  0
  3  5  1  0  0  0  0
  5  6  1  0  0  0  0
  5 49  1  0  0  0  0
  5 50  1  0  0  0  0
  6  7  1  0  0  0  0
  6 51  1  0  0  0  0
  6 52  1  0  0  0  0
  7  8  2  0  0  0  0
  7 36  1  0  0  0  0
  8  9  1  0  0  0  0
  8 10  1  0  0  0  0
  9 53  1  0  0  0  0
  9 54  1  0  0  0  0
  9 55  1  0  0  0  0
 10 11  2  0  0  0  0
 10 37  1  0  0  0  0
 11 12  1  0  0  0  0
 11 56  1  0  0  0  0
 12 13  2  0  0  0  0
 12 40  1  0  0  0  0
 13 14  1  0  0  0  0
 13 16  1  0  0  0  0
 14 15  2  0  0  0  0
 14 57  1  0  0  0  0
 15 58  1  0  0  0  0
 15 59  1  0  0  0  0
 16 17  1  0  0  0  0
 16 18  2  0  0  0  0
 17 60  1  0  0  0  0
 17 61  1  0  0  0  0
 17 62  1  0  0  0  0
 18 19  1  0  0  0  0
 18 40  1  0  0  0  0
 19 20  2  0  0  0  0
 19 63  1  0  0  0  0
 20 21  1  0  0  0  0
 20 43  1  0  0  0  0
 21 22  1  0  0  0  0
 21 38  1  0  0  0  0
 22 23  2  0  0  0  0
 22 41  1  0  0  0  0
 23 24  1  0  0  0  0
 23 64  1  0  0  0  0
 24 25  2  0  0  0  0
 24 39  1  0  0  0  0
 25 26  1  0  0  0  0
 25 27  1  0  0  0  0
 26 65  1  0  0  0  0
 26 66  1  0  0  0  0
 26 67  1  0  0  0  0
 27 28  1  0  0  0  0
 27 34  2  0  0  0  0
 28 29  1  0  0  0  0
 28 68  1  0  0  0  0
 28 69  1  0  0  0  0
 29 30  1  0  0  0  0
 29 70  1  0  0  0  0
 29 71  1  0  0  0  0
 30 31  2  0  0  0  0
 30 32  1  0  0  0  0
 32 33  1  0  0  0  0
 33 72  1  0  0  0  0
 33 73  1  0  0  0  0
 33 74  1  0  0  0  0
 34 35  1  0  0  0  0
 34 39  1  0  0  0  0
 35 36  2  0  0  0  0
 35 75  1  0  0  0  0
 36 37  1  0  0  0  0
 38 37  1  1  0  0  0
 38 39  1  0  0  0  0
 38 40  1  0  0  0  0
 41 42  1  0  0  0  0
 41 43  2  0  0  0  0
 42 76  1  0  0  0  0
 42 77  1  0  0  0  0
 42 78  1  0  0  0  0
 43 44  1  0  0  0  0
 44 45  2  0  0  0  0
 44 79  1  0  0  0  0
 45 80  1  0  0  0  0
 45 81  1  0  0  0  0
M  END
>  <DRUGBANK_ID>
DB04009

>  <SECONDARY_ACCESSION_NUMBERS>
EXPT01714

>  <COMMON_NAME>
Dimethyl Propionate Ester Heme

$$$$
