N4D
 OpenBabel10282417072D

 45 48  0  0  0  0  0  0  0  0999 V2000
    0.2127   -2.2465    0.0000 C   0  0  0  0  0  0  0  0  0  0  0  0
    2.3561   -1.0090    0.0000 C   0  0  0  0  0  0  0  0  0  0  0  0
   -0.5018   -0.1840    0.0000 C   0  0  0  0  0  0  0  0  0  0  0  0
   -1.2162    1.0535    0.0000 C   0  0  0  0  0  0  0  0  0  0  0  0
    0.2127   -1.4215    0.0000 C   0  0  0  0  0  0  0  0  0  0  0  0
   -0.5018   -2.6590    0.0000 C   0  0  0  0  0  0  0  0  0  0  0  0
    3.7851   -1.0090    0.0000 C   0  0  0  0  0  0  0  0  0  0  0  0
   -1.2162    0.2285    0.0000 C   0  0  0  0  0  0  0  0  0  0  0  0
    1.6416   -1.4215    0.0000 C   0  0  0  0  0  0  0  0  0  0  0  0
   -2.7657    3.6623    0.0000 C   0  0  0  0  0  0  0  0  0  0  0  0
   -1.9587    3.4908    0.0000 C   0  0  0  0  0  0  0  0  0  0  0  0
   -3.3177    3.0492    0.0000 C   0  0  0  0  0  0  0  0  0  0  0  0
    1.6416   -2.2465    0.0000 C   0  0  0  0  0  0  0  0  0  0  0  0
    0.9272   -2.6590    0.0000 C   0  0  0  0  0  0  0  0  0  0  0  0
   -1.7038    2.7062    0.0000 C   0  0  0  0  0  0  0  0  0  0  0  0
   -3.0628    2.2646    0.0000 C   0  0  0  0  0  0  0  0  0  0  0  0
    0.9272   -1.0090    0.0000 C   0  0  0  0  0  0  0  0  0  0  0  0
   -2.0009   -0.0264    0.0000 C   0  0  0  0  0  0  0  0  0  0  0  0
    0.2127    1.0535    0.0000 C   0  0  0  0  0  0  0  0  0  0  0  0
   -2.2558    2.0931    0.0000 C   0  0  0  0  0  0  0  0  0  0  0  0
   -2.4858    0.6410    0.0000 N   0  0  0  0  0  0  0  0  0  0  0  0
   -0.5018    1.4660    0.0000 N   0  0  0  0  0  0  0  0  0  0  0  0
    0.2127    0.2285    0.0000 N   0  0  0  0  0  0  0  0  0  0  0  0
   -2.0009    1.3084    0.0000 N   0  0  0  0  0  0  0  0  0  0  0  0
   -0.5018   -1.0090    0.0000 N   0  0  0  0  0  0  0  0  0  0  0  0
    3.0706   -1.4215    0.0000 N   0  0  0  0  0  0  0  0  0  0  0  0
    2.3561   -0.1840    0.0000 O   0  0  0  0  0  0  0  0  0  0  0  0
   -1.4284   -2.1240    0.0000 H   0  0  0  0  0  0  0  0  0  0  0  0
   -0.5018   -3.7290    0.0000 H   0  0  0  0  0  0  0  0  0  0  0  0
   -1.4285   -3.1940    0.0000 H   0  0  0  0  0  0  0  0  0  0  0  0
    4.7117   -1.5440    0.0000 H   0  0  0  0  0  0  0  0  0  0  0  0
    3.7851    0.0610    0.0000 H   0  0  0  0  0  0  0  0  0  0  0  0
    4.7118   -0.4740    0.0000 H   0  0  0  0  0  0  0  0  0  0  0  0
   -3.0846    4.6438    0.0000 H   0  0  0  0  0  0  0  0  0  0  0  0
   -1.2682    4.2577    0.0000 H   0  0  0  0  0  0  0  0  0  0  0  0
   -4.3271    3.2638    0.0000 H   0  0  0  0  0  0  0  0  0  0  0  0
    2.5353   -2.7625    0.0000 H   0  0  0  0  0  0  0  0  0  0  0  0
    0.9272   -3.6910    0.0000 H   0  0  0  0  0  0  0  0  0  0  0  0
   -0.6944    2.4916    0.0000 H   0  0  0  0  0  0  0  0  0  0  0  0
   -3.7533    1.4977    0.0000 H   0  0  0  0  0  0  0  0  0  0  0  0
    0.9272    0.0230    0.0000 H   0  0  0  0  0  0  0  0  0  0  0  0
   -2.3198   -1.0079    0.0000 H   0  0  0  0  0  0  0  0  0  0  0  0
    1.1064    1.5695    0.0000 H   0  0  0  0  0  0  0  0  0  0  0  0
   -1.3544   -1.5013    0.0000 H   0  0  0  0  0  0  0  0  0  0  0  0
    3.0706   -2.4060    0.0000 H   0  0  0  0  0  0  0  0  0  0  0  0
  1  5  2  0  0  0  0
  1  6  1  0  0  0  0
  1 14  1  0  0  0  0
  2  9  1  0  0  0  0
  2 26  1  0  0  0  0
  2 27  2  0  0  0  0
  3  8  2  0  0  0  0
  3 23  1  0  0  0  0
  3 25  1  0  0  0  0
  4  8  1  0  0  0  0
  4 22  2  0  0  0  0
  4 24  1  0  0  0  0
  5 17  1  0  0  0  0
  5 25  1  0  0  0  0
  6 28  1  0  0  0  0
  6 29  1  0  0  0  0
  6 30  1  0  0  0  0
  7 26  1  0  0  0  0
  7 31  1  0  0  0  0
  7 32  1  0  0  0  0
  7 33  1  0  0  0  0
  8 18  1  0  0  0  0
  9 13  1  0  0  0  0
  9 17  2  0  0  0  0
 10 11  2  0  0  0  0
 10 12  1  0  0  0  0
 10 34  1  0  0  0  0
 11 15  1  0  0  0  0
 11 35  1  0  0  0  0
 12 16  2  0  0  0  0
 12 36  1  0  0  0  0
 13 14  2  0  0  0  0
 13 37  1  0  0  0  0
 14 38  1  0  0  0  0
 15 20  2  0  0  0  0
 15 39  1  0  0  0  0
 16 20  1  0  0  0  0
 16 40  1  0  0  0  0
 17 41  1  0  0  0  0
 18 21  2  0  0  0  0
 18 42  1  0  0  0  0
 19 22  1  0  0  0  0
 19 23  2  0  0  0  0
 19 43  1  0  0  0  0
 20 24  1  0  0  0  0
 21 24  1  0  0  0  0
 25 44  1  0  0  0  0
 26 45  1  0  0  0  0
M  END
>  <DRUGBANK_ID>
DB08242

>  <COMMON_NAME>
N,4-dimethyl-3-[(1-phenyl-1H-pyrazolo[3,4-d]pyrimidin-4-yl)amino]benzamide

$$$$
