
 OpenBabel10282417072D

 43 36  0  0  0  0  0  0  0  0999 V2000
   -3.7861    1.8398    0.0000 O   0  0  0  0  0  0  0  0  0  0  0  0
   -3.0717    1.4273    0.0000 C   0  0  0  0  0  0  0  0  0  0  0  0
   -2.3572    1.8398    0.0000 C   0  0  0  0  0  0  0  0  0  0  0  0
   -1.6427    1.4273    0.0000 C   0  0  1  0  0  0  0  0  0  0  0  0
   -0.9282    1.8398    0.0000 C   0  0  0  0  0  0  0  0  0  0  0  0
   -0.2138    1.4273    0.0000 O   0  5  0  0  0  0  0  0  0  0  0  0
   -0.9282    2.6648    0.0000 O   0  0  0  0  0  0  0  0  0  0  0  0
   -3.0717    0.6023    0.0000 O   0  0  0  0  0  0  0  0  0  0  0  0
   -1.6427    0.6023    0.0000 N   0  0  0  0  0  0  0  0  0  0  0  0
   -3.2254   -1.4273    0.0000 O   0  0  0  0  0  0  0  0  0  0  0  0
   -2.5109   -1.8398    0.0000 C   0  0  0  0  0  0  0  0  0  0  0  0
   -1.7964   -1.4273    0.0000 C   0  0  0  0  0  0  0  0  0  0  0  0
   -1.0820   -1.8398    0.0000 C   0  0  1  0  0  0  0  0  0  0  0  0
   -0.3675   -1.4273    0.0000 C   0  0  0  0  0  0  0  0  0  0  0  0
    0.3469   -1.8398    0.0000 O   0  5  0  0  0  0  0  0  0  0  0  0
   -0.3675   -0.6023    0.0000 O   0  0  0  0  0  0  0  0  0  0  0  0
   -2.5109   -2.6648    0.0000 O   0  0  0  0  0  0  0  0  0  0  0  0
   -1.0820   -2.6648    0.0000 N   0  0  0  0  0  0  0  0  0  0  0  0
    3.7272    0.4321    0.0000 O   0  0  0  0  0  0  0  0  0  0  0  0
    3.7861   -0.3633    0.0000 O   0  0  0  0  0  0  0  0  0  0  0  0
    1.6647    0.1669    0.0000 Mg  0  2  0  0  0  0  0  0  0  0  0  0
    3.6977    1.1098    0.0000 O   0  0  0  0  0  0  0  0  0  0  0  0
    3.6093    1.7285    0.0000 O   0  0  0  0  0  0  0  0  0  0  0  0
   -2.3572    2.9098    0.0000 H   0  0  0  0  0  0  0  0  0  0  0  0
   -1.4306    2.3748    0.0000 H   0  0  0  0  0  0  0  0  0  0  0  0
   -2.5693    0.8923    0.0000 H   0  0  0  0  0  0  0  0  0  0  0  0
   -3.8832    0.1338    0.0000 H   0  0  0  0  0  0  0  0  0  0  0  0
   -2.5260    0.0923    0.0000 H   0  0  0  0  0  0  0  0  0  0  0  0
   -0.7594    0.0923    0.0000 H   0  0  0  0  0  0  0  0  0  0  0  0
   -1.7964   -0.3573    0.0000 H   0  0  0  0  0  0  0  0  0  0  0  0
   -0.8697   -0.8923    0.0000 H   0  0  0  0  0  0  0  0  0  0  0  0
   -2.0087   -2.3748    0.0000 H   0  0  0  0  0  0  0  0  0  0  0  0
   -3.3224   -3.1333    0.0000 H   0  0  0  0  0  0  0  0  0  0  0  0
   -1.9653   -3.1748    0.0000 H   0  0  0  0  0  0  0  0  0  0  0  0
   -0.1987   -3.1748    0.0000 H   0  0  0  0  0  0  0  0  0  0  0  0
    4.6972    0.4321    0.0000 H   0  0  0  0  0  0  0  0  0  0  0  0
    3.2422    1.2721    0.0000 H   0  0  0  0  0  0  0  0  0  0  0  0
    4.7561   -0.3633    0.0000 H   0  0  0  0  0  0  0  0  0  0  0  0
    3.3011    0.4767    0.0000 H   0  0  0  0  0  0  0  0  0  0  0  0
    4.6677    1.1098    0.0000 H   0  0  0  0  0  0  0  0  0  0  0  0
    3.2127    1.9498    0.0000 H   0  0  0  0  0  0  0  0  0  0  0  0
    4.5793    1.7285    0.0000 H   0  0  0  0  0  0  0  0  0  0  0  0
    3.1243    2.5685    0.0000 H   0  0  0  0  0  0  0  0  0  0  0  0
  1  2  2  0  0  0  0
  2  3  1  0  0  0  0
  2  8  1  0  0  0  0
  3  4  1  0  0  0  0
  3 24  1  0  0  0  0
  3 25  1  0  0  0  0
  4  5  1  0  0  0  0
  4  9  1  0  0  0  0
  4 26  1  6  0  0  0
  5  6  1  0  0  0  0
  5  7  2  0  0  0  0
  8 27  1  0  0  0  0
  9 28  1  0  0  0  0
  9 29  1  0  0  0  0
 10 11  2  0  0  0  0
 11 12  1  0  0  0  0
 11 17  1  0  0  0  0
 12 13  1  0  0  0  0
 12 30  1  0  0  0  0
 12 31  1  0  0  0  0
 13 14  1  0  0  0  0
 13 18  1  0  0  0  0
 13 32  1  6  0  0  0
 14 15  1  0  0  0  0
 14 16  2  0  0  0  0
 17 33  1  0  0  0  0
 18 34  1  0  0  0  0
 18 35  1  0  0  0  0
 19 36  1  0  0  0  0
 19 37  1  0  0  0  0
 20 38  1  0  0  0  0
 20 39  1  0  0  0  0
 22 40  1  0  0  0  0
 22 41  1  0  0  0  0
 23 42  1  0  0  0  0
 23 43  1  0  0  0  0
M  CHG  3   6  -1  15  -1  21   2
M  END
>  <DRUGBANK_ID>
DB13359

>  <COMMON_NAME>
Magnesium aspartate

>  <CAS_NUMBER>
7018-07-7

>  <UNII>
R17X820ROL

>  <SYNONYMS>
(+)-magnesium aspartate tetrahydrate; Aspartic acid, magnesium salt; Magnesium aspartate; Magnesium aspartate tetrahydrate

$$$$
