
 OpenBabel10282417072D

  5  4  0  0  0  0  0  0  0  0999 V2000
    1.2375    0.7145    0.0000 Br  0  0  0  0  0  0  0  0  0  0  0  0
    0.8250    0.0000    0.0000 C   0  0  0  0  0  0  0  0  0  0  0  0
    1.2375   -0.7145    0.0000 Br  0  0  0  0  0  0  0  0  0  0  0  0
    0.0000    0.0000    0.0000 Br  0  0  0  0  0  0  0  0  0  0  0  0
    0.2900   -0.9266    0.0000 H   0  0  0  0  0  0  0  0  0  0  0  0
  1  2  1  0  0  0  0
  2  3  1  0  0  0  0
  2  4  1  0  0  0  0
  2  5  1  0  0  0  0
M  END
>  <DRUGBANK_ID>
DB03054

>  <SECONDARY_ACCESSION_NUMBERS>
EXPT02127

>  <COMMON_NAME>
Bromoform

>  <CAS_NUMBER>
75-25-2

>  <UNII>
TUT9J99IMU

>  <SYNONYMS>
Tribrommethan; Tribromomethane

$$$$
