BPG
 OpenBabel10282417072D

 39 41  0  0  0  0  0  0  0  0999 V2000
   -3.8205   -0.9068    0.0000 C   0  0  0  0  0  0  0  0  0  0  0  0
   -4.5350   -0.4943    0.0000 O   0  0  0  0  0  0  0  0  0  0  0  0
   -3.1060   -0.4943    0.0000 C   0  0  0  0  0  0  0  0  0  0  0  0
   -2.3916   -0.9068    0.0000 C   0  0  0  0  0  0  0  0  0  0  0  0
   -1.6771   -0.4943    0.0000 C   0  0  0  0  0  0  0  0  0  0  0  0
   -0.9626   -0.9068    0.0000 N   0  0  0  0  0  0  0  0  0  0  0  0
   -0.2089   -0.5712    0.0000 C   0  0  0  0  0  0  0  0  0  0  0  0
    0.0460    0.2134    0.0000 N   0  0  0  0  0  0  0  0  0  0  0  0
    0.8530    0.3849    0.0000 C   0  0  0  0  0  0  0  0  0  0  0  0
    1.1079    1.1695    0.0000 N   0  0  0  0  0  0  0  0  0  0  0  0
    1.4050   -0.2282    0.0000 N   0  0  0  0  0  0  0  0  0  0  0  0
    1.1501   -1.0128    0.0000 C   0  0  0  0  0  0  0  0  0  0  0  0
    1.7021   -1.6259    0.0000 O   0  0  0  0  0  0  0  0  0  0  0  0
    0.3431   -1.1843    0.0000 C   0  0  0  0  0  0  0  0  0  0  0  0
   -0.0694   -1.8988    0.0000 N   0  0  0  0  0  0  0  0  0  0  0  0
   -0.8764   -1.7273    0.0000 C   0  0  0  0  0  0  0  0  0  0  0  0
    3.5288    1.6841    0.0000 C   0  0  0  0  0  0  0  0  0  0  0  0
    3.2739    0.8995    0.0000 C   0  0  0  0  0  0  0  0  0  0  0  0
    2.4669    0.7280    0.0000 C   0  0  0  0  0  0  0  0  0  0  0  0
    1.9149    1.3411    0.0000 C   0  0  0  0  0  0  0  0  0  0  0  0
    2.1698    2.1257    0.0000 C   0  0  0  0  0  0  0  0  0  0  0  0
    2.9768    2.2972    0.0000 C   0  0  0  0  0  0  0  0  0  0  0  0
   -3.8205   -1.9768    0.0000 H   0  0  0  0  0  0  0  0  0  0  0  0
   -2.8939   -1.4418    0.0000 H   0  0  0  0  0  0  0  0  0  0  0  0
   -4.5350    0.4757    0.0000 H   0  0  0  0  0  0  0  0  0  0  0  0
   -3.1060    0.5757    0.0000 H   0  0  0  0  0  0  0  0  0  0  0  0
   -2.1793    0.0407    0.0000 H   0  0  0  0  0  0  0  0  0  0  0  0
   -2.3916   -1.9768    0.0000 H   0  0  0  0  0  0  0  0  0  0  0  0
   -1.4650   -1.4418    0.0000 H   0  0  0  0  0  0  0  0  0  0  0  0
   -1.6771    0.5757    0.0000 H   0  0  0  0  0  0  0  0  0  0  0  0
   -0.7505    0.0407    0.0000 H   0  0  0  0  0  0  0  0  0  0  0  0
    0.4491    1.9011    0.0000 H   0  0  0  0  0  0  0  0  0  0  0  0
    2.3680   -0.0235    0.0000 H   0  0  0  0  0  0  0  0  0  0  0  0
   -1.6433   -2.4178    0.0000 H   0  0  0  0  0  0  0  0  0  0  0  0
    4.5382    1.8987    0.0000 H   0  0  0  0  0  0  0  0  0  0  0  0
    3.9644    0.1326    0.0000 H   0  0  0  0  0  0  0  0  0  0  0  0
    2.1480   -0.2535    0.0000 H   0  0  0  0  0  0  0  0  0  0  0  0
    1.4793    2.8926    0.0000 H   0  0  0  0  0  0  0  0  0  0  0  0
    3.2957    3.2787    0.0000 H   0  0  0  0  0  0  0  0  0  0  0  0
  1  2  1  0  0  0  0
  1  3  1  0  0  0  0
  1 23  1  0  0  0  0
  1 24  1  0  0  0  0
  2 25  1  0  0  0  0
  3  4  1  0  0  0  0
  3 26  1  0  0  0  0
  3 27  1  0  0  0  0
  4  5  1  0  0  0  0
  4 28  1  0  0  0  0
  4 29  1  0  0  0  0
  5  6  1  0  0  0  0
  5 30  1  0  0  0  0
  5 31  1  0  0  0  0
  6  7  1  0  0  0  0
  6 16  1  0  0  0  0
  7  8  1  0  0  0  0
  7 14  2  0  0  0  0
  8  9  2  0  0  0  0
  9 10  1  0  0  0  0
  9 11  1  0  0  0  0
 10 20  1  0  0  0  0
 10 32  1  0  0  0  0
 11 12  1  0  0  0  0
 11 33  1  0  0  0  0
 12 13  2  0  0  0  0
 12 14  1  0  0  0  0
 14 15  1  0  0  0  0
 15 16  2  0  0  0  0
 16 34  1  0  0  0  0
 17 18  2  0  0  0  0
 17 22  1  0  0  0  0
 17 35  1  0  0  0  0
 18 19  1  0  0  0  0
 18 36  1  0  0  0  0
 19 20  2  0  0  0  0
 19 37  1  0  0  0  0
 20 21  1  0  0  0  0
 21 22  2  0  0  0  0
 21 38  1  0  0  0  0
 22 39  1  0  0  0  0
M  END
>  <DRUGBANK_ID>
DB02495

>  <SECONDARY_ACCESSION_NUMBERS>
EXPT00745

>  <COMMON_NAME>
9-(4-hydroxybutyl)-N2-phenylguanine

>  <SYNONYMS>
HBPG

$$$$
