
 OpenBabel10282417072D

 53 56  0  0  1  0  0  0  0  0999 V2000
   13.7004  -18.7316    0.0000 S   0  0  0  0  0  0  0  0  0  0  0  0
   12.9859  -19.1441    0.0000 C   0  0  1  0  0  0  0  0  0  0  0  0
   12.9859  -19.9691    0.0000 N   0  0  0  0  0  0  0  0  0  0  0  0
   13.7004  -20.3816    0.0000 C   0  0  0  0  0  0  0  0  0  0  0  0
   14.4148  -19.9691    0.0000 C   0  0  0  0  0  0  0  0  0  0  0  0
   14.4148  -19.1441    0.0000 C   0  0  0  0  0  0  0  0  0  0  0  0
   12.1609  -19.1441    0.0000 C   0  0  1  0  0  0  0  0  0  0  0  0
   12.1609  -19.9691    0.0000 C   0  0  0  0  0  0  0  0  0  0  0  0
   13.7004  -21.2066    0.0000 C   0  0  0  0  0  0  0  0  0  0  0  0
   12.9859  -21.6191    0.0000 O   0  0  0  0  0  0  0  0  0  0  0  0
   14.4148  -21.6191    0.0000 O   0  0  0  0  0  0  0  0  0  0  0  0
   11.5775  -20.5525    0.0000 O   0  0  0  0  0  0  0  0  0  0  0  0
   11.4464  -18.7316    0.0000 N   0  0  0  0  0  0  0  0  0  0  0  0
   10.7319  -19.1441    0.0000 C   0  0  0  0  0  0  0  0  0  0  0  0
   10.0175  -18.7316    0.0000 C   0  0  1  0  0  0  0  0  0  0  0  0
    9.3030  -19.1441    0.0000 C   0  0  0  0  0  0  0  0  0  0  0  0
   10.7319  -19.9691    0.0000 O   0  0  0  0  0  0  0  0  0  0  0  0
   12.9859  -18.3191    0.0000 H   0  0  0  0  0  0  0  0  0  0  0  0
   15.1293  -20.3816    0.0000 C   0  0  0  0  0  0  0  0  0  0  0  0
   15.8438  -19.9691    0.0000 S   0  0  0  0  0  0  0  0  0  0  0  0
   17.5112  -21.3163    0.0000 N   0  0  0  0  0  0  0  0  0  0  0  0
   17.8786  -20.5776    0.0000 N   0  0  0  0  0  0  0  0  0  0  0  0
   17.2897  -20.0000    0.0000 N   0  0  0  0  0  0  0  0  0  0  0  0
   16.5582  -20.3816    0.0000 C   0  0  0  0  0  0  0  0  0  0  0  0
   16.6951  -21.1951    0.0000 N   0  0  0  0  0  0  0  0  0  0  0  0
   17.3971  -19.1750    0.0000 C   0  0  0  0  0  0  0  0  0  0  0  0
    8.5885  -18.7316    0.0000 C   0  0  0  0  0  0  0  0  0  0  0  0
    7.8741  -19.1441    0.0000 C   0  0  0  0  0  0  0  0  0  0  0  0
    7.8741  -19.9691    0.0000 C   0  0  0  0  0  0  0  0  0  0  0  0
    8.5885  -20.3816    0.0000 C   0  0  0  0  0  0  0  0  0  0  0  0
    9.3030  -19.9691    0.0000 C   0  0  0  0  0  0  0  0  0  0  0  0
   10.0175  -17.9066    0.0000 O   0  0  0  0  0  0  0  0  0  0  0  0
   18.1116  -18.7625    0.0000 S   0  0  0  0  0  0  0  0  0  0  0  0
   18.8260  -18.3500    0.0000 O   0  0  0  0  0  0  0  0  0  0  0  0
   17.6991  -18.0480    0.0000 O   0  0  0  0  0  0  0  0  0  0  0  0
   18.5241  -19.4770    0.0000 O   0  0  0  0  0  0  0  0  0  0  0  0
   15.3415  -18.6091    0.0000 H   0  0  0  0  0  0  0  0  0  0  0  0
   14.4148  -18.0741    0.0000 H   0  0  0  0  0  0  0  0  0  0  0  0
   12.4378  -18.1106    0.0000 H   0  0  0  0  0  0  0  0  0  0  0  0
   14.4148  -22.5561    0.0000 H   0  0  0  0  0  0  0  0  0  0  0  0
   11.4464  -17.7471    0.0000 H   0  0  0  0  0  0  0  0  0  0  0  0
   10.9442  -18.1966    0.0000 H   0  0  0  0  0  0  0  0  0  0  0  0
   15.1293  -21.4516    0.0000 H   0  0  0  0  0  0  0  0  0  0  0  0
   16.0559  -20.9166    0.0000 H   0  0  0  0  0  0  0  0  0  0  0  0
   16.5070  -18.5812    0.0000 H   0  0  0  0  0  0  0  0  0  0  0  0
   17.4317  -18.1056    0.0000 H   0  0  0  0  0  0  0  0  0  0  0  0
    8.5885  -17.6996    0.0000 H   0  0  0  0  0  0  0  0  0  0  0  0
    6.9804  -18.6281    0.0000 H   0  0  0  0  0  0  0  0  0  0  0  0
    6.9804  -20.4851    0.0000 H   0  0  0  0  0  0  0  0  0  0  0  0
    8.5885  -21.4136    0.0000 H   0  0  0  0  0  0  0  0  0  0  0  0
   10.1967  -20.4851    0.0000 H   0  0  0  0  0  0  0  0  0  0  0  0
   10.8575  -17.4216    0.0000 H   0  0  0  0  0  0  0  0  0  0  0  0
   19.6661  -18.8350    0.0000 H   0  0  0  0  0  0  0  0  0  0  0  0
  1  2  1  0  0  0  0
  1  6  1  0  0  0  0
  2  3  1  0  0  0  0
  2  7  1  0  0  0  0
  2 18  1  6  0  0  0
  3  4  1  0  0  0  0
  3  8  1  0  0  0  0
  4  5  2  0  0  0  0
  4  9  1  0  0  0  0
  5  6  1  0  0  0  0
  5 19  1  0  0  0  0
  6 37  1  0  0  0  0
  6 38  1  0  0  0  0
  7  8  1  0  0  0  0
  7 13  1  0  0  0  0
  7 39  1  6  0  0  0
  8 12  2  0  0  0  0
  9 10  2  0  0  0  0
  9 11  1  0  0  0  0
 11 40  1  0  0  0  0
 13 14  1  0  0  0  0
 13 41  1  0  0  0  0
 14 15  1  0  0  0  0
 14 17  2  0  0  0  0
 15 16  1  0  0  0  0
 15 32  1  0  0  0  0
 15 42  1  6  0  0  0
 19 20  1  0  0  0  0
 19 43  1  0  0  0  0
 19 44  1  0  0  0  0
 20 24  1  0  0  0  0
 21 22  2  0  0  0  0
 21 25  1  0  0  0  0
 22 23  1  0  0  0  0
 23 24  1  0  0  0  0
 23 26  1  0  0  0  0
 24 25  2  0  0  0  0
 26 33  1  0  0  0  0
 26 45  1  0  0  0  0
 26 46  1  0  0  0  0
 27 16  1  0  0  0  0
 27 28  2  0  0  0  0
 27 47  1  0  0  0  0
 28 29  1  0  0  0  0
 28 48  1  0  0  0  0
 29 30  2  0  0  0  0
 29 49  1  0  0  0  0
 30 31  1  0  0  0  0
 30 50  1  0  0  0  0
 31 16  2  0  0  0  0
 31 51  1  0  0  0  0
 32 52  1  0  0  0  0
 33 34  1  0  0  0  0
 33 35  2  0  0  0  0
 33 36  2  0  0  0  0
 34 53  1  0  0  0  0
M  END
>  <DRUGBANK_ID>
DB01328

>  <COMMON_NAME>
Cefonicid

>  <CAS_NUMBER>
61270-58-4

>  <UNII>
6532B86WFG

>  <SYNONYMS>
(6R,7R)-7-{[(2R)-2-hydroxy-2-phenylacetyl]amino}-8-oxo-3-({[1-(sulfomethyl)-1H-tetrazol-5-yl]sulfanyl}methyl)-5-thia-1-azabicyclo[4.2.0]oct-2-ene-2-carboxylic acid; Cefonicid; Cefonicido; Cefonicidum

$$$$
