
 OpenBabel10282417072D

 66 70  0  0  0  0  0  0  0  0999 V2000
    3.0695    0.8008    0.0000 O   0  0  0  0  0  0  0  0  0  0  0  0
    2.0930   -3.9286    0.0000 O   0  0  0  0  0  0  0  0  0  0  0  0
    8.7987   -3.1036    0.0000 O   0  0  0  0  0  0  0  0  0  0  0  0
    3.0311    2.9833    0.0000 N   0  0  0  0  0  0  0  0  0  0  0  0
    5.0171   -2.4397    0.0000 N   0  0  0  0  0  0  0  0  0  0  0  0
    2.4802    3.5973    0.0000 C   0  0  0  0  0  0  0  0  0  0  0  0
    3.8384    3.1534    0.0000 C   0  0  0  0  0  0  0  0  0  0  0  0
    2.7364    4.3815    0.0000 C   0  0  0  0  0  0  0  0  0  0  0  0
    4.0947    3.9376    0.0000 C   0  0  0  0  0  0  0  0  0  0  0  0
    3.5437    4.5516    0.0000 C   0  0  0  0  0  0  0  0  0  0  0  0
    2.7748    2.1991    0.0000 C   0  0  0  0  0  0  0  0  0  0  0  0
    3.3258    1.5850    0.0000 C   0  0  0  0  0  0  0  0  0  0  0  0
    5.4986   -3.1036    0.0000 C   0  0  0  0  0  0  0  0  0  0  0  0
    4.2365   -2.6910    0.0000 C   0  0  0  0  0  0  0  0  0  0  0  0
    5.0171   -3.7674    0.0000 C   0  0  0  0  0  0  0  0  0  0  0  0
    4.2365   -3.5161    0.0000 C   0  0  0  0  0  0  0  0  0  0  0  0
    5.2734   -1.6554    0.0000 C   0  0  0  0  0  0  0  0  0  0  0  0
    4.7225   -1.0413    0.0000 C   0  0  0  0  0  0  0  0  0  0  0  0
    6.3236   -3.1036    0.0000 C   0  0  0  0  0  0  0  0  0  0  0  0
    3.5220   -2.2785    0.0000 C   0  0  0  0  0  0  0  0  0  0  0  0
    3.5220   -3.9286    0.0000 C   0  0  0  0  0  0  0  0  0  0  0  0
    5.2734   -4.5516    0.0000 C   0  0  0  0  0  0  0  0  0  0  0  0
    3.6205    0.1868    0.0000 C   0  0  0  0  0  0  0  0  0  0  0  0
    3.9151   -1.2115    0.0000 C   0  0  0  0  0  0  0  0  0  0  0  0
    4.9787   -0.2572    0.0000 C   0  0  0  0  0  0  0  0  0  0  0  0
    2.8075   -3.5161    0.0000 C   0  0  0  0  0  0  0  0  0  0  0  0
    2.8075   -2.6910    0.0000 C   0  0  0  0  0  0  0  0  0  0  0  0
    3.3642   -0.5975    0.0000 C   0  0  0  0  0  0  0  0  0  0  0  0
    4.4278    0.3569    0.0000 C   0  0  0  0  0  0  0  0  0  0  0  0
    6.7361   -2.3891    0.0000 C   0  0  0  0  0  0  0  0  0  0  0  0
    6.7361   -3.8180    0.0000 C   0  0  0  0  0  0  0  0  0  0  0  0
    7.5611   -2.3891    0.0000 C   0  0  0  0  0  0  0  0  0  0  0  0
    7.5611   -3.8180    0.0000 C   0  0  0  0  0  0  0  0  0  0  0  0
    7.9736   -3.1036    0.0000 C   0  0  0  0  0  0  0  0  0  0  0  0
    1.2815   -3.4601    0.0000 H   0  0  0  0  0  0  0  0  0  0  0  0
    9.2672   -3.9151    0.0000 H   0  0  0  0  0  0  0  0  0  0  0  0
    1.4332    3.3766    0.0000 H   0  0  0  0  0  0  0  0  0  0  0  0
    1.7655    4.3936    0.0000 H   0  0  0  0  0  0  0  0  0  0  0  0
    4.5530    2.3570    0.0000 H   0  0  0  0  0  0  0  0  0  0  0  0
    4.8854    3.3740    0.0000 H   0  0  0  0  0  0  0  0  0  0  0  0
    2.0218    5.1779    0.0000 H   0  0  0  0  0  0  0  0  0  0  0  0
    3.0688    5.3986    0.0000 H   0  0  0  0  0  0  0  0  0  0  0  0
    5.1417    4.1583    0.0000 H   0  0  0  0  0  0  0  0  0  0  0  0
    4.4271    4.9547    0.0000 H   0  0  0  0  0  0  0  0  0  0  0  0
    3.8761    5.5687    0.0000 H   0  0  0  0  0  0  0  0  0  0  0  0
    4.5907    4.7723    0.0000 H   0  0  0  0  0  0  0  0  0  0  0  0
    1.7278    1.9785    0.0000 H   0  0  0  0  0  0  0  0  0  0  0  0
    2.4424    1.1820    0.0000 H   0  0  0  0  0  0  0  0  0  0  0  0
    4.3728    1.8056    0.0000 H   0  0  0  0  0  0  0  0  0  0  0  0
    3.6582    2.6021    0.0000 H   0  0  0  0  0  0  0  0  0  0  0  0
    6.3204   -1.4348    0.0000 H   0  0  0  0  0  0  0  0  0  0  0  0
    5.6059   -0.6384    0.0000 H   0  0  0  0  0  0  0  0  0  0  0  0
    3.5220   -1.2465    0.0000 H   0  0  0  0  0  0  0  0  0  0  0  0
    3.5220   -4.9606    0.0000 H   0  0  0  0  0  0  0  0  0  0  0  0
    4.5588   -5.3480    0.0000 H   0  0  0  0  0  0  0  0  0  0  0  0
    6.3204   -4.7723    0.0000 H   0  0  0  0  0  0  0  0  0  0  0  0
    5.6058   -5.5687    0.0000 H   0  0  0  0  0  0  0  0  0  0  0  0
    3.5945   -2.1924    0.0000 H   0  0  0  0  0  0  0  0  0  0  0  0
    5.9885   -0.0444    0.0000 H   0  0  0  0  0  0  0  0  0  0  0  0
    1.9138   -2.1750    0.0000 H   0  0  0  0  0  0  0  0  0  0  0  0
    2.3544   -0.8103    0.0000 H   0  0  0  0  0  0  0  0  0  0  0  0
    4.7485    1.3378    0.0000 H   0  0  0  0  0  0  0  0  0  0  0  0
    6.2201   -1.4954    0.0000 H   0  0  0  0  0  0  0  0  0  0  0  0
    6.2201   -4.7117    0.0000 H   0  0  0  0  0  0  0  0  0  0  0  0
    8.0771   -1.4954    0.0000 H   0  0  0  0  0  0  0  0  0  0  0  0
    8.0771   -4.7117    0.0000 H   0  0  0  0  0  0  0  0  0  0  0  0
  1 12  1  0  0  0  0
  1 23  1  0  0  0  0
  2 26  1  0  0  0  0
  2 35  1  0  0  0  0
  3 34  1  0  0  0  0
  3 36  1  0  0  0  0
  4  6  1  0  0  0  0
  4  7  1  0  0  0  0
  4 11  1  0  0  0  0
  5 13  1  0  0  0  0
  5 14  1  0  0  0  0
  5 17  1  0  0  0  0
  6  8  1  0  0  0  0
  6 37  1  0  0  0  0
  6 38  1  0  0  0  0
  7  9  1  0  0  0  0
  7 39  1  0  0  0  0
  7 40  1  0  0  0  0
  8 10  1  0  0  0  0
  8 41  1  0  0  0  0
  8 42  1  0  0  0  0
  9 10  1  0  0  0  0
  9 43  1  0  0  0  0
  9 44  1  0  0  0  0
 10 45  1  0  0  0  0
 10 46  1  0  0  0  0
 11 12  1  0  0  0  0
 11 47  1  0  0  0  0
 11 48  1  0  0  0  0
 12 49  1  0  0  0  0
 12 50  1  0  0  0  0
 13 15  2  0  0  0  0
 13 19  1  0  0  0  0
 14 16  2  0  0  0  0
 14 20  1  0  0  0  0
 15 16  1  0  0  0  0
 15 22  1  0  0  0  0
 16 21  1  0  0  0  0
 17 18  1  0  0  0  0
 17 51  1  0  0  0  0
 17 52  1  0  0  0  0
 18 24  2  0  0  0  0
 18 25  1  0  0  0  0
 19 30  2  0  0  0  0
 19 31  1  0  0  0  0
 20 27  2  0  0  0  0
 20 53  1  0  0  0  0
 21 26  2  0  0  0  0
 21 54  1  0  0  0  0
 22 55  1  0  0  0  0
 22 56  1  0  0  0  0
 22 57  1  0  0  0  0
 23 28  2  0  0  0  0
 23 29  1  0  0  0  0
 24 28  1  0  0  0  0
 24 58  1  0  0  0  0
 25 29  2  0  0  0  0
 25 59  1  0  0  0  0
 26 27  1  0  0  0  0
 27 60  1  0  0  0  0
 28 61  1  0  0  0  0
 29 62  1  0  0  0  0
 30 32  1  0  0  0  0
 30 63  1  0  0  0  0
 31 33  2  0  0  0  0
 31 64  1  0  0  0  0
 32 34  2  0  0  0  0
 32 65  1  0  0  0  0
 33 34  1  0  0  0  0
 33 66  1  0  0  0  0
M  END
>  <DRUGBANK_ID>
DB05414

>  <COMMON_NAME>
Pipendoxifene

>  <CAS_NUMBER>
198480-55-6

>  <UNII>
TPC5Q8496G

>  <SYNONYMS>
Pipendoxifene

$$$$
