1537
 OpenBabel10282417072D

 28 28  0  0  0  0  0  0  0  0999 V2000
    3.7935   -2.3967    0.0000 Br  0  0  0  0  0  0  0  0  0  0  0  0
    2.3645    0.0784    0.0000 O   0  0  0  0  0  0  0  0  0  0  0  0
    5.2224   -1.5717    0.0000 O   0  0  0  0  0  0  0  0  0  0  0  0
    4.5080    2.1409    0.0000 N   0  0  0  0  0  0  0  0  0  0  0  0
    3.7935    0.0784    0.0000 C   0  0  0  0  0  0  0  0  0  0  0  0
    3.7935    0.9034    0.0000 C   0  0  0  0  0  0  0  0  0  0  0  0
    3.0791   -0.3341    0.0000 C   0  0  0  0  0  0  0  0  0  0  0  0
    4.5080    1.3159    0.0000 C   0  0  0  0  0  0  0  0  0  0  0  0
    4.5080   -0.3341    0.0000 C   0  0  0  0  0  0  0  0  0  0  0  0
    4.5080   -1.1592    0.0000 C   0  0  0  0  0  0  0  0  0  0  0  0
    3.0791   -1.1592    0.0000 C   0  0  0  0  0  0  0  0  0  0  0  0
    3.7935   -1.5717    0.0000 C   0  0  0  0  0  0  0  0  0  0  0  0
    1.6500   -0.3341    0.0000 C   0  0  0  0  0  0  0  0  0  0  0  0
    5.9370   -1.1592    0.0000 C   0  0  0  0  0  0  0  0  0  0  0  0
    5.3913    2.6509    0.0000 H   0  0  0  0  0  0  0  0  0  0  0  0
    3.6247    2.6509    0.0000 H   0  0  0  0  0  0  0  0  0  0  0  0
    2.8669    1.4384    0.0000 H   0  0  0  0  0  0  0  0  0  0  0  0
    3.7935    1.9734    0.0000 H   0  0  0  0  0  0  0  0  0  0  0  0
    5.4346    0.7809    0.0000 H   0  0  0  0  0  0  0  0  0  0  0  0
    4.5080    0.2459    0.0000 H   0  0  0  0  0  0  0  0  0  0  0  0
    5.4017    0.1819    0.0000 H   0  0  0  0  0  0  0  0  0  0  0  0
    2.1854   -1.6752    0.0000 H   0  0  0  0  0  0  0  0  0  0  0  0
    0.7234    0.2009    0.0000 H   0  0  0  0  0  0  0  0  0  0  0  0
    1.6500   -1.4041    0.0000 H   0  0  0  0  0  0  0  0  0  0  0  0
    0.7233   -0.8691    0.0000 H   0  0  0  0  0  0  0  0  0  0  0  0
    6.8636   -1.6943    0.0000 H   0  0  0  0  0  0  0  0  0  0  0  0
    5.9371   -0.0892    0.0000 H   0  0  0  0  0  0  0  0  0  0  0  0
    6.8637   -0.6243    0.0000 H   0  0  0  0  0  0  0  0  0  0  0  0
  1 12  1  0  0  0  0
  2  7  1  0  0  0  0
  2 13  1  0  0  0  0
  3 10  1  0  0  0  0
  3 14  1  0  0  0  0
  4  8  1  0  0  0  0
  4 15  1  0  0  0  0
  4 16  1  0  0  0  0
  5  6  1  0  0  0  0
  5  7  1  0  0  0  0
  5  9  2  0  0  0  0
  6  8  1  0  0  0  0
  6 17  1  0  0  0  0
  6 18  1  0  0  0  0
  7 11  2  0  0  0  0
  8 19  1  0  0  0  0
  8 20  1  0  0  0  0
  9 10  1  0  0  0  0
  9 21  1  0  0  0  0
 10 12  2  0  0  0  0
 11 12  1  0  0  0  0
 11 22  1  0  0  0  0
 13 23  1  0  0  0  0
 13 24  1  0  0  0  0
 13 25  1  0  0  0  0
 14 26  1  0  0  0  0
 14 27  1  0  0  0  0
 14 28  1  0  0  0  0
M  END
>  <DRUGBANK_ID>
DB01537

>  <COMMON_NAME>
4-Bromo-2,5-dimethoxyphenethylamine

>  <CAS_NUMBER>
66142-81-2

>  <UNII>
V77772N32H

>  <SYNONYMS>
2C-B

$$$$
