
 OpenBabel10282417072D

 45 46  0  0  1  0  0  0  0  0999 V2000
   16.2167   -8.6591    0.0000 C   0  0  2  0  0  0  0  0  0  0  0  0
   15.6048   -9.2056    0.0000 O   0  0  0  0  0  0  0  0  0  0  0  0
   16.9042   -8.1641    0.0000 O   0  0  0  0  0  0  0  0  0  0  0  0
   16.4676   -9.4256    0.0000 C   0  0  2  0  0  0  0  0  0  0  0  0
   15.6393   -8.0713    0.0000 C   0  0  0  0  0  0  0  0  0  0  0  0
   14.8933   -9.6181    0.0000 C   0  0  1  0  0  0  0  0  0  0  0  0
   17.5677   -8.6453    0.0000 C   0  0  1  0  0  0  0  0  0  0  0  0
   17.3030   -9.4256    0.0000 C   0  0  1  0  0  0  0  0  0  0  0  0
   15.9830  -10.0959    0.0000 O   0  0  0  0  0  0  0  0  0  0  0  0
   14.8864   -8.4149    0.0000 O   0  0  0  0  0  0  0  0  0  0  0  0
   14.1715   -9.2056    0.0000 O   0  0  0  0  0  0  0  0  0  0  0  0
   14.8933  -10.4431    0.0000 C   0  0  1  0  0  0  0  0  0  0  0  0
   18.3548   -8.3978    0.0000 C   0  0  0  0  0  0  0  0  0  0  0  0
   17.7809  -10.0994    0.0000 O   0  0  0  0  0  0  0  0  0  0  0  0
   13.4633   -9.6216    0.0000 C   0  0  1  0  0  0  0  0  0  0  0  0
   14.1715  -10.8556    0.0000 C   0  0  2  0  0  0  0  0  0  0  0  0
   15.6014  -10.8556    0.0000 O   0  0  0  0  0  0  0  0  0  0  0  0
   18.8498   -9.0612    0.0000 O   0  0  0  0  0  0  0  0  0  0  0  0
   13.4633  -10.4431    0.0000 C   0  0  2  0  0  0  0  0  0  0  0  0
   12.7484   -9.2056    0.0000 C   0  0  0  0  0  0  0  0  0  0  0  0
   14.1715  -11.6806    0.0000 O   0  0  0  0  0  0  0  0  0  0  0  0
   12.7484  -10.8556    0.0000 O   0  0  0  0  0  0  0  0  0  0  0  0
   12.1192   -9.7419    0.0000 O   0  0  0  0  0  0  0  0  0  0  0  0
   15.4104   -9.2606    0.0000 H   0  0  0  0  0  0  0  0  0  0  0  0
   15.8341   -7.0192    0.0000 H   0  0  0  0  0  0  0  0  0  0  0  0
   14.7959   -7.4128    0.0000 H   0  0  0  0  0  0  0  0  0  0  0  0
   14.8900   -8.5481    0.0000 H   0  0  0  0  0  0  0  0  0  0  0  0
   17.7397   -7.5892    0.0000 H   0  0  0  0  0  0  0  0  0  0  0  0
   16.8118  -10.3762    0.0000 H   0  0  0  0  0  0  0  0  0  0  0  0
   15.0181   -9.9968    0.0000 H   0  0  0  0  0  0  0  0  0  0  0  0
   14.0964   -7.8520    0.0000 H   0  0  0  0  0  0  0  0  0  0  0  0
   15.8210   -9.9099    0.0000 H   0  0  0  0  0  0  0  0  0  0  0  0
   18.6838   -7.3796    0.0000 H   0  0  0  0  0  0  0  0  0  0  0  0
   19.4104   -8.2228    0.0000 H   0  0  0  0  0  0  0  0  0  0  0  0
   17.3763  -10.9810    0.0000 H   0  0  0  0  0  0  0  0  0  0  0  0
   13.4611   -8.5516    0.0000 H   0  0  0  0  0  0  0  0  0  0  0  0
   15.0970  -11.3926    0.0000 H   0  0  0  0  0  0  0  0  0  0  0  0
   15.5976  -11.8256    0.0000 H   0  0  0  0  0  0  0  0  0  0  0  0
   18.4666   -9.9523    0.0000 H   0  0  0  0  0  0  0  0  0  0  0  0
   12.5367   -9.9080    0.0000 H   0  0  0  0  0  0  0  0  0  0  0  0
   12.6528   -8.1399    0.0000 H   0  0  0  0  0  0  0  0  0  0  0  0
   11.7578   -8.8010    0.0000 H   0  0  0  0  0  0  0  0  0  0  0  0
   13.3315  -12.1656    0.0000 H   0  0  0  0  0  0  0  0  0  0  0  0
   11.9085  -10.3704    0.0000 H   0  0  0  0  0  0  0  0  0  0  0  0
   11.2052   -9.4172    0.0000 H   0  0  0  0  0  0  0  0  0  0  0  0
  1  2  1  6  0  0  0
  1  3  1  0  0  0  0
  1  4  1  0  0  0  0
  1  5  1  0  0  0  0
  3  7  1  0  0  0  0
  4  8  1  0  0  0  0
  4  9  1  0  0  0  0
  4 24  1  1  0  0  0
  5 10  1  0  0  0  0
  5 25  1  0  0  0  0
  5 26  1  0  0  0  0
  6  2  1  0  0  0  0
  6 11  1  0  0  0  0
  6 12  1  0  0  0  0
  6 27  1  1  0  0  0
  7 13  1  0  0  0  0
  7  8  1  0  0  0  0
  7 28  1  1  0  0  0
  8 14  1  0  0  0  0
  8 29  1  6  0  0  0
  9 30  1  0  0  0  0
 10 31  1  0  0  0  0
 11 15  1  0  0  0  0
 12 16  1  0  0  0  0
 12 17  1  0  0  0  0
 12 32  1  1  0  0  0
 13 18  1  0  0  0  0
 13 33  1  0  0  0  0
 13 34  1  0  0  0  0
 14 35  1  0  0  0  0
 15 19  1  0  0  0  0
 15 20  1  0  0  0  0
 15 36  1  6  0  0  0
 16 21  1  0  0  0  0
 16 19  1  0  0  0  0
 16 37  1  6  0  0  0
 17 38  1  0  0  0  0
 18 39  1  0  0  0  0
 19 22  1  0  0  0  0
 19 40  1  1  0  0  0
 20 23  1  0  0  0  0
 20 41  1  0  0  0  0
 20 42  1  0  0  0  0
 21 43  1  0  0  0  0
 22 44  1  0  0  0  0
 23 45  1  0  0  0  0
M  END
>  <DRUGBANK_ID>
DB02772

>  <SECONDARY_ACCESSION_NUMBERS>
EXPT02977

>  <COMMON_NAME>
Sucrose

>  <CAS_NUMBER>
57-50-1

>  <UNII>
C151H8M554

>  <SYNONYMS>
1-alpha-D-Glucopyranosyl-2-beta-D-fructofuranoside; Beet sugar; Cane sugar; Sacarosa; Saccharose; Sacharose; Sucraloxum; Sucrose; Table sugar; White sugar

$$$$
