
 OpenBabel10282417072D

 42 41  0  0  0  0  0  0  0  0999 V2000
    4.1539   -0.9908    0.0000 C   0  0  0  0  0  0  0  0  0  0  0  0
    3.4394    0.2467    0.0000 N   0  0  0  0  0  0  0  0  0  0  0  0
    3.4394   -0.5783    0.0000 C   0  0  1  0  0  0  0  0  0  0  0  0
    2.7250   -0.9908    0.0000 C   0  0  0  0  0  0  0  0  0  0  0  0
    2.0105   -0.5783    0.0000 C   0  0  0  0  0  0  0  0  0  0  0  0
    1.2960   -0.9908    0.0000 C   0  0  0  0  0  0  0  0  0  0  0  0
    0.5815   -0.5783    0.0000 N   0  0  0  0  0  0  0  0  0  0  0  0
   -0.1329   -0.9908    0.0000 C   0  0  0  0  0  0  0  0  0  0  0  0
   -0.1329   -1.8158    0.0000 N   0  0  0  0  0  0  0  0  0  0  0  0
   -0.8474   -0.5783    0.0000 N   0  0  0  0  0  0  0  0  0  0  0  0
    4.1539   -1.8158    0.0000 O   0  0  0  0  0  0  0  0  0  0  0  0
    4.8684   -0.5783    0.0000 O   0  0  0  0  0  0  0  0  0  0  0  0
   -2.1063    0.9183    0.0000 C   0  0  0  0  0  0  0  0  0  0  0  0
   -3.4163    1.5858    0.0000 N   0  0  0  0  0  0  0  0  0  0  0  0
   -2.9313    0.9183    0.0000 C   0  0  1  0  0  0  0  0  0  0  0  0
   -3.4163    0.2509    0.0000 C   0  0  0  0  0  0  0  0  0  0  0  0
   -4.2009    0.5058    0.0000 C   0  0  0  0  0  0  0  0  0  0  0  0
   -4.2009    1.3308    0.0000 C   0  0  0  0  0  0  0  0  0  0  0  0
   -1.6938    0.2038    0.0000 O   0  0  0  0  0  0  0  0  0  0  0  0
   -1.6938    1.6328    0.0000 O   0  0  0  0  0  0  0  0  0  0  0  0
   -4.8684    1.8158    0.0000 O   0  0  0  0  0  0  0  0  0  0  0  0
    4.3227    0.7567    0.0000 H   0  0  0  0  0  0  0  0  0  0  0  0
    2.5561    0.7567    0.0000 H   0  0  0  0  0  0  0  0  0  0  0  0
    4.3660   -0.0433    0.0000 H   0  0  0  0  0  0  0  0  0  0  0  0
    2.7250   -2.0608    0.0000 H   0  0  0  0  0  0  0  0  0  0  0  0
    3.6517   -1.5258    0.0000 H   0  0  0  0  0  0  0  0  0  0  0  0
    2.0105    0.4917    0.0000 H   0  0  0  0  0  0  0  0  0  0  0  0
    1.0839   -0.0433    0.0000 H   0  0  0  0  0  0  0  0  0  0  0  0
    1.2960   -2.0608    0.0000 H   0  0  0  0  0  0  0  0  0  0  0  0
    0.3694   -1.5258    0.0000 H   0  0  0  0  0  0  0  0  0  0  0  0
    0.5815    0.4062    0.0000 H   0  0  0  0  0  0  0  0  0  0  0  0
   -0.9855   -2.3081    0.0000 H   0  0  0  0  0  0  0  0  0  0  0  0
   -0.8474    0.4062    0.0000 H   0  0  0  0  0  0  0  0  0  0  0  0
   -1.7000   -1.0706    0.0000 H   0  0  0  0  0  0  0  0  0  0  0  0
    5.6799   -1.0468    0.0000 H   0  0  0  0  0  0  0  0  0  0  0  0
   -3.1121    2.5221    0.0000 H   0  0  0  0  0  0  0  0  0  0  0  0
   -2.4455    1.8717    0.0000 H   0  0  0  0  0  0  0  0  0  0  0  0
   -3.0857   -0.7667    0.0000 H   0  0  0  0  0  0  0  0  0  0  0  0
   -4.1729   -0.5057    0.0000 H   0  0  0  0  0  0  0  0  0  0  0  0
   -5.0665   -0.1231    0.0000 H   0  0  0  0  0  0  0  0  0  0  0  0
   -5.1543    0.9916    0.0000 H   0  0  0  0  0  0  0  0  0  0  0  0
   -0.7568    1.6328    0.0000 H   0  0  0  0  0  0  0  0  0  0  0  0
  1 11  2  0  0  0  0
  1 12  1  0  0  0  0
  1  3  1  0  0  0  0
  2 22  1  0  0  0  0
  2 23  1  0  0  0  0
  3  2  1  0  0  0  0
  3  4  1  0  0  0  0
  3 24  1  1  0  0  0
  4  5  1  0  0  0  0
  4 25  1  0  0  0  0
  4 26  1  0  0  0  0
  5  6  1  0  0  0  0
  5 27  1  0  0  0  0
  5 28  1  0  0  0  0
  6  7  1  0  0  0  0
  6 29  1  0  0  0  0
  6 30  1  0  0  0  0
  7  8  1  0  0  0  0
  7 31  1  0  0  0  0
  8  9  2  0  0  0  0
  8 10  1  0  0  0  0
  9 32  1  0  0  0  0
 10 33  1  0  0  0  0
 10 34  1  0  0  0  0
 12 35  1  0  0  0  0
 13 19  2  0  0  0  0
 13 20  1  0  0  0  0
 14 15  1  0  0  0  0
 14 18  1  0  0  0  0
 14 36  1  0  0  0  0
 15 13  1  0  0  0  0
 15 16  1  0  0  0  0
 15 37  1  1  0  0  0
 16 17  1  0  0  0  0
 16 38  1  0  0  0  0
 16 39  1  0  0  0  0
 17 18  1  0  0  0  0
 17 40  1  0  0  0  0
 17 41  1  0  0  0  0
 18 21  2  0  0  0  0
 20 42  1  0  0  0  0
M  END
>  <DRUGBANK_ID>
DB16025

>  <COMMON_NAME>
Arginine PCA

>  <CAS_NUMBER>
56265-06-6

>  <UNII>
808T94CEU6

>  <SYNONYMS>
Arginine pidolate; Arginine pyroglutamate; L-arginine L-2-pyrrolidone-5-carboxylate

$$$$
