17M
 OpenBabel10282417072D

 43 46  0  0  0  0  0  0  0  0999 V2000
   -1.0267    1.0529    0.0000 C   0  0  0  0  0  0  0  0  0  0  0  0
   -0.6668    0.3105    0.0000 C   0  0  2  0  0  0  0  0  0  0  0  0
   -0.1350    0.9412    0.0000 C   0  0  0  0  0  0  0  0  0  0  0  0
    0.6771    0.7960    0.0000 C   0  0  0  0  0  0  0  0  0  0  0  0
    0.9574    0.0201    0.0000 C   0  0  0  0  0  0  0  0  0  0  0  0
    1.7696   -0.1251    0.0000 C   0  0  0  0  0  0  0  0  0  0  0  0
    2.3014    0.5056    0.0000 C   0  0  0  0  0  0  0  0  0  0  0  0
    3.1135    0.3603    0.0000 C   0  0  0  0  0  0  0  0  0  0  0  0
    3.3938   -0.4156    0.0000 C   0  0  0  0  0  0  0  0  0  0  0  0
    4.2059   -0.5608    0.0000 O   0  0  0  0  0  0  0  0  0  0  0  0
    2.8620   -1.0463    0.0000 C   0  0  0  0  0  0  0  0  0  0  0  0
    2.0499   -0.9011    0.0000 C   0  0  0  0  0  0  0  0  0  0  0  0
    1.5180   -1.5318    0.0000 C   0  0  0  0  0  0  0  0  0  0  0  0
    0.7059   -1.3866    0.0000 C   0  0  0  0  0  0  0  0  0  0  0  0
    0.4256   -0.6106    0.0000 C   0  0  0  0  0  0  0  0  0  0  0  0
   -0.3865   -0.4654    0.0000 C   0  0  2  0  0  0  0  0  0  0  0  0
   -1.0378   -0.9718    0.0000 C   0  0  0  0  0  0  0  0  0  0  0  0
   -1.7207   -0.5088    0.0000 C   0  0  0  0  0  0  0  0  0  0  0  0
   -1.4914    0.2837    0.0000 C   0  0  2  0  0  0  0  0  0  0  0  0
   -1.6128    1.0997    0.0000 C   0  0  0  0  0  0  0  0  0  0  0  0
   -2.2522    0.6026    0.0000 O   0  0  0  0  0  0  0  0  0  0  0  0
   -0.2466   -1.0323    0.0000 H   0  0  0  0  0  0  0  0  0  0  0  0
   -0.4262    1.9385    0.0000 H   0  0  0  0  0  0  0  0  0  0  0  0
   -2.0939    1.1301    0.0000 H   0  0  0  0  0  0  0  0  0  0  0  0
   -1.4935    2.0157    0.0000 H   0  0  0  0  0  0  0  0  0  0  0  0
   -0.4986    1.9475    0.0000 H   0  0  0  0  0  0  0  0  0  0  0  0
    0.5547    1.7592    0.0000 H   0  0  0  0  0  0  0  0  0  0  0  0
    1.3668    1.6140    0.0000 H   0  0  0  0  0  0  0  0  0  0  0  0
    1.7304    0.6077    0.0000 H   0  0  0  0  0  0  0  0  0  0  0  0
    1.9508    1.4762    0.0000 H   0  0  0  0  0  0  0  0  0  0  0  0
    3.7788    1.1492    0.0000 H   0  0  0  0  0  0  0  0  0  0  0  0
    4.5243   -1.4421    0.0000 H   0  0  0  0  0  0  0  0  0  0  0  0
    3.2126   -2.0169    0.0000 H   0  0  0  0  0  0  0  0  0  0  0  0
    1.8686   -2.5024    0.0000 H   0  0  0  0  0  0  0  0  0  0  0  0
    0.0406   -2.1756    0.0000 H   0  0  0  0  0  0  0  0  0  0  0  0
   -1.0030   -2.0412    0.0000 H   0  0  0  0  0  0  0  0  0  0  0  0
   -1.9749   -1.4883    0.0000 H   0  0  0  0  0  0  0  0  0  0  0  0
   -2.7270   -0.8724    0.0000 H   0  0  0  0  0  0  0  0  0  0  0  0
   -2.5015    0.2228    0.0000 H   0  0  0  0  0  0  0  0  0  0  0  0
   -0.7750    1.7652    0.0000 H   0  0  0  0  0  0  0  0  0  0  0  0
   -2.6081    1.4925    0.0000 H   0  0  0  0  0  0  0  0  0  0  0  0
   -1.7703    2.1581    0.0000 H   0  0  0  0  0  0  0  0  0  0  0  0
   -2.3748    1.5648    0.0000 H   0  0  0  0  0  0  0  0  0  0  0  0
  1 23  1  0  0  0  0
  1 24  1  0  0  0  0
  1 25  1  0  0  0  0
  2  1  1  6  0  0  0
  2  3  1  0  0  0  0
  2 16  1  0  0  0  0
  2 19  1  0  0  0  0
  3  4  1  0  0  0  0
  3 26  1  0  0  0  0
  3 27  1  0  0  0  0
  4  5  1  0  0  0  0
  4 28  1  0  0  0  0
  4 29  1  0  0  0  0
  5  6  1  0  0  0  0
  5 15  2  0  0  0  0
  6  7  2  0  0  0  0
  6 12  1  0  0  0  0
  7  8  1  0  0  0  0
  7 30  1  0  0  0  0
  8  9  2  0  0  0  0
  8 31  1  0  0  0  0
  9 10  1  0  0  0  0
  9 11  1  0  0  0  0
 10 32  1  0  0  0  0
 11 12  2  0  0  0  0
 11 33  1  0  0  0  0
 12 13  1  0  0  0  0
 13 14  2  0  0  0  0
 13 34  1  0  0  0  0
 14 15  1  0  0  0  0
 14 35  1  0  0  0  0
 15 16  1  0  0  0  0
 16 17  1  0  0  0  0
 16 22  1  1  0  0  0
 17 18  1  0  0  0  0
 17 36  1  0  0  0  0
 17 37  1  0  0  0  0
 18 19  1  0  0  0  0
 18 38  1  0  0  0  0
 18 39  1  0  0  0  0
 19 20  1  0  0  0  0
 19 21  1  1  0  0  0
 20 40  1  0  0  0  0
 20 41  1  0  0  0  0
 20 42  1  0  0  0  0
 21 43  1  0  0  0  0
M  END
>  <DRUGBANK_ID>
DB06871

>  <COMMON_NAME>
17-METHYL-17-ALPHA-DIHYDROEQUILENIN

>  <UNII>
ZP488KVU9Q

$$$$
