272
 OpenBabel10282417072D

 17 17  0  0  0  0  0  0  0  0999 V2000
    2.3174   -0.3790    0.0000 N   0  0  0  0  0  0  0  0  0  0  0  0
    5.1672    0.1481    0.0000 N   0  0  0  0  0  0  0  0  0  0  0  0
    1.6500    0.1059    0.0000 N   0  0  0  0  0  0  0  0  0  0  0  0
    3.7695   -0.1491    0.0000 C   0  0  0  0  0  0  0  0  0  0  0  0
    2.9849    0.1059    0.0000 C   0  0  0  0  0  0  0  0  0  0  0  0
    4.3826    0.4030    0.0000 C   0  0  0  0  0  0  0  0  0  0  0  0
    2.7299    0.8905    0.0000 C   0  0  0  0  0  0  0  0  0  0  0  0
    1.9049    0.8905    0.0000 C   0  0  0  0  0  0  0  0  0  0  0  0
    2.3174   -1.3635    0.0000 H   0  0  0  0  0  0  0  0  0  0  0  0
    5.3793   -0.8496    0.0000 H   0  0  0  0  0  0  0  0  0  0  0  0
    5.9252    0.8306    0.0000 H   0  0  0  0  0  0  0  0  0  0  0  0
    3.9920   -1.1957    0.0000 H   0  0  0  0  0  0  0  0  0  0  0  0
    4.7871   -0.4797    0.0000 H   0  0  0  0  0  0  0  0  0  0  0  0
    4.1601    1.4496    0.0000 H   0  0  0  0  0  0  0  0  0  0  0  0
    3.3650    0.7336    0.0000 H   0  0  0  0  0  0  0  0  0  0  0  0
    3.3365    1.7254    0.0000 H   0  0  0  0  0  0  0  0  0  0  0  0
    1.2983    1.7254    0.0000 H   0  0  0  0  0  0  0  0  0  0  0  0
  1  3  1  0  0  0  0
  1  5  1  0  0  0  0
  1  9  1  0  0  0  0
  2  6  1  0  0  0  0
  2 10  1  0  0  0  0
  2 11  1  0  0  0  0
  3  8  2  0  0  0  0
  4  5  1  0  0  0  0
  4  6  1  0  0  0  0
  4 12  1  0  0  0  0
  4 13  1  0  0  0  0
  5  7  2  0  0  0  0
  6 14  1  0  0  0  0
  6 15  1  0  0  0  0
  7  8  1  0  0  0  0
  7 16  1  0  0  0  0
  8 17  1  0  0  0  0
M  END
>  <DRUGBANK_ID>
DB00272

>  <SECONDARY_ACCESSION_NUMBERS>
APRD00714

>  <COMMON_NAME>
Betazole

>  <CAS_NUMBER>
105-20-4

>  <UNII>
1C065P542O

>  <SYNONYMS>
1H-pyrazole-3-ethanamine; 2-(1H-pyrazol-5-yl)ethanamine; 2-(3-pyrazolyl)ethylamine; 3-(2-aminoethyl)pyrazole; 3-(beta-aminoethyl)pyrazole; 3-(Î²-aminoethyl)pyrazole; Ametazole; Betazol; Betazole; Betazolum

$$$$
