
 OpenBabel10282417072D

 16 15  0  0  0  0  0  0  0  0999 V2000
   11.8291  -13.0248    0.0000 P   0  0  0  0  0  0  0  0  0  0  0  0
   12.5436  -12.6123    0.0000 O   0  0  0  0  0  0  0  0  0  0  0  0
   11.1146  -13.4373    0.0000 O   0  0  0  0  0  0  0  0  0  0  0  0
   11.4166  -12.3103    0.0000 O   0  0  0  0  0  0  0  0  0  0  0  0
   12.2416  -13.7393    0.0000 O   0  0  0  0  0  0  0  0  0  0  0  0
   14.6871  -13.0248    0.0000 N   0  0  0  0  0  0  0  0  0  0  0  0
   13.2581  -13.0248    0.0000 C   0  0  0  0  0  0  0  0  0  0  0  0
   13.9725  -12.6123    0.0000 C   0  0  0  0  0  0  0  0  0  0  0  0
   10.2746  -12.9523    0.0000 H   0  0  0  0  0  0  0  0  0  0  0  0
   11.9016  -11.4703    0.0000 H   0  0  0  0  0  0  0  0  0  0  0  0
   14.6872  -14.0448    0.0000 H   0  0  0  0  0  0  0  0  0  0  0  0
   15.5704  -12.5147    0.0000 H   0  0  0  0  0  0  0  0  0  0  0  0
   13.2581  -14.0948    0.0000 H   0  0  0  0  0  0  0  0  0  0  0  0
   14.1848  -13.5598    0.0000 H   0  0  0  0  0  0  0  0  0  0  0  0
   13.9724  -11.5423    0.0000 H   0  0  0  0  0  0  0  0  0  0  0  0
   13.0458  -12.0773    0.0000 H   0  0  0  0  0  0  0  0  0  0  0  0
  1  2  1  0  0  0  0
  1  3  1  0  0  0  0
  1  4  1  0  0  0  0
  1  5  2  0  0  0  0
  2  7  1  0  0  0  0
  3  9  1  0  0  0  0
  4 10  1  0  0  0  0
  6  8  1  0  0  0  0
  6 11  1  0  0  0  0
  6 12  1  0  0  0  0
  7  8  1  0  0  0  0
  7 13  1  0  0  0  0
  7 14  1  0  0  0  0
  8 15  1  0  0  0  0
  8 16  1  0  0  0  0
M  END
>  <DRUGBANK_ID>
DB01738

>  <SECONDARY_ACCESSION_NUMBERS>
EXPT02671; DB04403

>  <COMMON_NAME>
Phosphorylcolamine

>  <CAS_NUMBER>
1071-23-4

>  <UNII>
78A2BX7AEU

>  <SYNONYMS>
2-aminoethyl dihydrogen phosphate; Colamine phosphate; Colamine phosphoric acid; O-Phosphoethanolamine; Phosphorylethanolamine

$$$$
