IHU
 OpenBabel10282417072D

 35 36  0  0  0  0  0  0  0  0999 V2000
   -2.2887   -1.5923    0.0000 C   0  0  0  0  0  0  0  0  0  0  0  0
   -1.5742   -1.1798    0.0000 O   0  0  0  0  0  0  0  0  0  0  0  0
   -1.5742   -0.3548    0.0000 C   0  0  0  0  0  0  0  0  0  0  0  0
   -2.2887    0.0577    0.0000 C   0  0  0  0  0  0  0  0  0  0  0  0
   -2.2887    0.8827    0.0000 C   0  0  0  0  0  0  0  0  0  0  0  0
   -1.5742    1.2952    0.0000 C   0  0  0  0  0  0  0  0  0  0  0  0
   -1.5742    2.1202    0.0000 O   0  0  0  0  0  0  0  0  0  0  0  0
   -0.8598    0.8827    0.0000 C   0  0  0  0  0  0  0  0  0  0  0  0
   -0.8598    0.0577    0.0000 C   0  0  0  0  0  0  0  0  0  0  0  0
   -0.1453   -0.3548    0.0000 N   0  0  0  0  0  0  0  0  0  0  0  0
    0.5692    0.0577    0.0000 C   0  0  0  0  0  0  0  0  0  0  0  0
    0.5692    0.8827    0.0000 O   0  0  0  0  0  0  0  0  0  0  0  0
    1.2836   -0.3548    0.0000 N   0  0  0  0  0  0  0  0  0  0  0  0
    1.9981    0.0577    0.0000 C   0  0  0  0  0  0  0  0  0  0  0  0
    1.9981    0.8827    0.0000 O   0  0  0  0  0  0  0  0  0  0  0  0
    2.7126   -0.3548    0.0000 C   0  0  0  0  0  0  0  0  0  0  0  0
    3.4271    0.0577    0.0000 C   0  0  0  0  0  0  0  0  0  0  0  0
    4.1415   -0.3548    0.0000 C   0  0  0  0  0  0  0  0  0  0  0  0
    4.1415   -1.1798    0.0000 C   0  0  0  0  0  0  0  0  0  0  0  0
    4.8560   -1.5923    0.0000 F   0  0  0  0  0  0  0  0  0  0  0  0
    3.4271   -1.5923    0.0000 C   0  0  0  0  0  0  0  0  0  0  0  0
    2.7126   -1.1798    0.0000 C   0  0  0  0  0  0  0  0  0  0  0  0
    1.9981   -1.5923    0.0000 Cl  0  0  0  0  0  0  0  0  0  0  0  0
   -3.2153   -1.0573    0.0000 H   0  0  0  0  0  0  0  0  0  0  0  0
   -2.2887   -2.6623    0.0000 H   0  0  0  0  0  0  0  0  0  0  0  0
   -3.2154   -2.1273    0.0000 H   0  0  0  0  0  0  0  0  0  0  0  0
   -3.1824   -0.4583    0.0000 H   0  0  0  0  0  0  0  0  0  0  0  0
   -3.1824    1.3987    0.0000 H   0  0  0  0  0  0  0  0  0  0  0  0
   -0.7627    2.5887    0.0000 H   0  0  0  0  0  0  0  0  0  0  0  0
    0.0339    1.3987    0.0000 H   0  0  0  0  0  0  0  0  0  0  0  0
   -0.1453   -1.3393    0.0000 H   0  0  0  0  0  0  0  0  0  0  0  0
    1.2836   -1.3393    0.0000 H   0  0  0  0  0  0  0  0  0  0  0  0
    3.4271    1.0897    0.0000 H   0  0  0  0  0  0  0  0  0  0  0  0
    5.0352    0.1612    0.0000 H   0  0  0  0  0  0  0  0  0  0  0  0
    3.4271   -2.6243    0.0000 H   0  0  0  0  0  0  0  0  0  0  0  0
  1  2  1  0  0  0  0
  1 24  1  0  0  0  0
  1 25  1  0  0  0  0
  1 26  1  0  0  0  0
  2  3  1  0  0  0  0
  3  4  2  0  0  0  0
  3  9  1  0  0  0  0
  4  5  1  0  0  0  0
  4 27  1  0  0  0  0
  5  6  2  0  0  0  0
  5 28  1  0  0  0  0
  6  7  1  0  0  0  0
  6  8  1  0  0  0  0
  7 29  1  0  0  0  0
  8  9  2  0  0  0  0
  8 30  1  0  0  0  0
  9 10  1  0  0  0  0
 10 11  1  0  0  0  0
 10 31  1  0  0  0  0
 11 12  2  0  0  0  0
 11 13  1  0  0  0  0
 13 14  1  0  0  0  0
 13 32  1  0  0  0  0
 14 15  2  0  0  0  0
 14 16  1  0  0  0  0
 16 17  2  0  0  0  0
 16 22  1  0  0  0  0
 17 18  1  0  0  0  0
 17 33  1  0  0  0  0
 18 19  2  0  0  0  0
 18 34  1  0  0  0  0
 19 20  1  0  0  0  0
 19 21  1  0  0  0  0
 21 22  2  0  0  0  0
 21 35  1  0  0  0  0
 22 23  1  0  0  0  0
M  END
>  <DRUGBANK_ID>
DB07968

>  <COMMON_NAME>
N-(2-CHLORO-4-FLUOROBENZOYL)-N'-(5-HYDROXY-2-METHOXYPHENYL)UREA

$$$$
