
 OpenBabel10282417072D

 29 28  0  0  1  0  0  0  0  0999 V2000
    4.1250   -2.8579    0.0000 C   0  0  0  0  0  0  0  0  0  0  0  0
    3.7125   -2.1434    0.0000 C   0  0  2  0  0  0  0  0  0  0  0  0
    3.3000   -1.4289    0.0000 O   0  0  0  0  0  0  0  0  0  0  0  0
    2.9980   -2.5559    0.0000 C   0  0  0  0  0  0  0  0  0  0  0  0
    2.2836   -2.1434    0.0000 Br  0  0  0  0  0  0  0  0  0  0  0  0
    4.4270   -1.7309    0.0000 C   0  0  0  0  0  0  0  0  0  0  0  0
    5.1414   -2.1434    0.0000 C   0  0  0  0  0  0  0  0  0  0  0  0
    5.8559   -1.7309    0.0000 O   0  0  0  0  0  0  0  0  0  0  0  0
    6.5704   -2.1434    0.0000 P   0  0  2  0  0  0  0  0  0  0  0  0
    6.1579   -2.8579    0.0000 O   0  0  0  0  0  0  0  0  0  0  0  0
    6.9829   -1.4289    0.0000 O   0  0  0  0  0  0  0  0  0  0  0  0
    7.2849   -2.5559    0.0000 O   0  0  0  0  0  0  0  0  0  0  0  0
    7.9993   -2.1434    0.0000 P   0  0  0  0  0  0  0  0  0  0  0  0
    8.7138   -1.7309    0.0000 O   0  0  0  0  0  0  0  0  0  0  0  0
    8.4118   -2.8579    0.0000 O   0  0  0  0  0  0  0  0  0  0  0  0
    7.5868   -1.4289    0.0000 O   0  0  0  0  0  0  0  0  0  0  0  0
    3.5900   -3.7845    0.0000 H   0  0  0  0  0  0  0  0  0  0  0  0
    5.1950   -2.8579    0.0000 H   0  0  0  0  0  0  0  0  0  0  0  0
    4.6600   -3.7846    0.0000 H   0  0  0  0  0  0  0  0  0  0  0  0
    3.7850   -0.5889    0.0000 H   0  0  0  0  0  0  0  0  0  0  0  0
    2.9980   -3.6259    0.0000 H   0  0  0  0  0  0  0  0  0  0  0  0
    2.0713   -3.0909    0.0000 H   0  0  0  0  0  0  0  0  0  0  0  0
    4.4270   -0.6609    0.0000 H   0  0  0  0  0  0  0  0  0  0  0  0
    5.3537   -1.1959    0.0000 H   0  0  0  0  0  0  0  0  0  0  0  0
    5.1414   -3.2134    0.0000 H   0  0  0  0  0  0  0  0  0  0  0  0
    6.0680   -2.6784    0.0000 H   0  0  0  0  0  0  0  0  0  0  0  0
    5.1879   -2.8579    0.0000 H   0  0  0  0  0  0  0  0  0  0  0  0
    9.5538   -2.2159    0.0000 H   0  0  0  0  0  0  0  0  0  0  0  0
    7.9268   -3.6979    0.0000 H   0  0  0  0  0  0  0  0  0  0  0  0
  1 17  1  0  0  0  0
  1 18  1  0  0  0  0
  1 19  1  0  0  0  0
  2  1  1  0  0  0  0
  2  3  1  1  0  0  0
  2  4  1  0  0  0  0
  2  6  1  0  0  0  0
  3 20  1  0  0  0  0
  4  5  1  0  0  0  0
  4 21  1  0  0  0  0
  4 22  1  0  0  0  0
  6  7  1  0  0  0  0
  6 23  1  0  0  0  0
  6 24  1  0  0  0  0
  7  8  1  0  0  0  0
  7 25  1  0  0  0  0
  7 26  1  0  0  0  0
  9  8  1  0  0  0  0
  9 10  1  0  0  0  0
  9 11  2  1  0  0  0
  9 12  1  0  0  0  0
 10 27  1  0  0  0  0
 12 13  1  0  0  0  0
 13 14  1  0  0  0  0
 13 15  1  0  0  0  0
 13 16  2  0  0  0  0
 14 28  1  0  0  0  0
 15 29  1  0  0  0  0
M  END
>  <DRUGBANK_ID>
DB04170

>  <SECONDARY_ACCESSION_NUMBERS>
EXPT00699

>  <COMMON_NAME>
4-bromo-3-hydroxy-3-methyl butyl diphosphate

$$$$
