
 OpenBabel10282417072D

 24 24  0  0  0  0  0  0  0  0999 V2000
    1.7861    1.4437    0.0000 S   0  0  0  0  0  0  0  0  0  0  0  0
    1.0716   -1.4437    0.0000 N   0  0  0  0  0  0  0  0  0  0  0  0
    0.3572    1.4437    0.0000 N   0  0  0  0  0  0  0  0  0  0  0  0
    1.0716    0.2062    0.0000 C   0  0  0  0  0  0  0  0  0  0  0  0
    0.3572   -1.0312    0.0000 C   0  0  0  0  0  0  0  0  0  0  0  0
    0.3572   -0.2062    0.0000 C   0  0  0  0  0  0  0  0  0  0  0  0
    1.0716    1.0312    0.0000 C   0  0  0  0  0  0  0  0  0  0  0  0
    1.7861   -0.2062    0.0000 C   0  0  0  0  0  0  0  0  0  0  0  0
    1.7861   -1.0312    0.0000 C   0  0  0  0  0  0  0  0  0  0  0  0
   -0.3572   -1.4437    0.0000 C   0  0  0  0  0  0  0  0  0  0  0  0
   -1.0717   -1.0312    0.0000 C   0  0  0  0  0  0  0  0  0  0  0  0
   -1.7861   -1.4437    0.0000 C   0  0  0  0  0  0  0  0  0  0  0  0
    0.3572    2.4282    0.0000 H   0  0  0  0  0  0  0  0  0  0  0  0
   -0.4954    0.9515    0.0000 H   0  0  0  0  0  0  0  0  0  0  0  0
   -0.5365    0.3098    0.0000 H   0  0  0  0  0  0  0  0  0  0  0  0
    2.6798    0.3099    0.0000 H   0  0  0  0  0  0  0  0  0  0  0  0
    2.6798   -1.5472    0.0000 H   0  0  0  0  0  0  0  0  0  0  0  0
   -0.3572   -2.5137    0.0000 H   0  0  0  0  0  0  0  0  0  0  0  0
   -1.2838   -1.9787    0.0000 H   0  0  0  0  0  0  0  0  0  0  0  0
   -1.0717    0.0388    0.0000 H   0  0  0  0  0  0  0  0  0  0  0  0
   -1.9984   -0.4962    0.0000 H   0  0  0  0  0  0  0  0  0  0  0  0
   -2.7128   -0.9087    0.0000 H   0  0  0  0  0  0  0  0  0  0  0  0
   -1.7861   -2.5137    0.0000 H   0  0  0  0  0  0  0  0  0  0  0  0
   -2.7127   -1.9787    0.0000 H   0  0  0  0  0  0  0  0  0  0  0  0
  1  7  2  0  0  0  0
  2  5  1  0  0  0  0
  2  9  2  0  0  0  0
  3  7  1  0  0  0  0
  3 13  1  0  0  0  0
  3 14  1  0  0  0  0
  4  6  1  0  0  0  0
  4  7  1  0  0  0  0
  4  8  2  0  0  0  0
  5  6  2  0  0  0  0
  5 10  1  0  0  0  0
  6 15  1  0  0  0  0
  8  9  1  0  0  0  0
  8 16  1  0  0  0  0
  9 17  1  0  0  0  0
 10 11  1  0  0  0  0
 10 18  1  0  0  0  0
 10 19  1  0  0  0  0
 11 12  1  0  0  0  0
 11 20  1  0  0  0  0
 11 21  1  0  0  0  0
 12 22  1  0  0  0  0
 12 23  1  0  0  0  0
 12 24  1  0  0  0  0
M  END
>  <DRUGBANK_ID>
DB12667

>  <COMMON_NAME>
Protionamide

>  <CAS_NUMBER>
14222-60-7

>  <UNII>
76YOO33643

>  <SYNONYMS>
Prothionamide; Protionamida; Protionamide; Protionamidum

$$$$
