737
 OpenBabel10282417072D

 55 58  0  0  1  0  0  0  0  0999 V2000
    1.6500   -3.3001    0.0000 Cl  0  0  0  0  0  0  0  0  0  0  0  0
    4.5080   -0.8250    0.0000 N   0  0  0  0  0  0  0  0  0  0  0  0
    4.5080    0.8250    0.0000 N   0  0  0  0  0  0  0  0  0  0  0  0
    3.7935   -0.4125    0.0000 C   0  0  0  0  0  0  0  0  0  0  0  0
    5.2224   -0.4125    0.0000 C   0  0  0  0  0  0  0  0  0  0  0  0
    3.7935    0.4125    0.0000 C   0  0  0  0  0  0  0  0  0  0  0  0
    5.2224    0.4125    0.0000 C   0  0  0  0  0  0  0  0  0  0  0  0
    4.5080   -1.6500    0.0000 C   0  0  3  0  0  0  0  0  0  0  0  0
    4.5080    1.6500    0.0000 C   0  0  0  0  0  0  0  0  0  0  0  0
    3.7935   -2.0625    0.0000 C   0  0  0  0  0  0  0  0  0  0  0  0
    5.2224   -2.0625    0.0000 C   0  0  0  0  0  0  0  0  0  0  0  0
    5.2224    2.0625    0.0000 C   0  0  0  0  0  0  0  0  0  0  0  0
    3.7935   -2.8876    0.0000 C   0  0  0  0  0  0  0  0  0  0  0  0
    3.0791   -1.6500    0.0000 C   0  0  0  0  0  0  0  0  0  0  0  0
    5.9370   -1.6500    0.0000 C   0  0  0  0  0  0  0  0  0  0  0  0
    5.2224   -2.8876    0.0000 C   0  0  0  0  0  0  0  0  0  0  0  0
    5.9370    1.6500    0.0000 C   0  0  0  0  0  0  0  0  0  0  0  0
    5.2224    2.8876    0.0000 C   0  0  0  0  0  0  0  0  0  0  0  0
    3.0791   -3.3001    0.0000 C   0  0  0  0  0  0  0  0  0  0  0  0
    2.3645   -2.0625    0.0000 C   0  0  0  0  0  0  0  0  0  0  0  0
    6.6515   -2.0625    0.0000 C   0  0  0  0  0  0  0  0  0  0  0  0
    5.9370   -3.3001    0.0000 C   0  0  0  0  0  0  0  0  0  0  0  0
    6.6515    2.0625    0.0000 C   0  0  0  0  0  0  0  0  0  0  0  0
    2.3645   -2.8876    0.0000 C   0  0  0  0  0  0  0  0  0  0  0  0
    6.6515   -2.8876    0.0000 C   0  0  0  0  0  0  0  0  0  0  0  0
    5.9370    3.3001    0.0000 C   0  0  0  0  0  0  0  0  0  0  0  0
    6.6515    2.8876    0.0000 C   0  0  0  0  0  0  0  0  0  0  0  0
    7.3659    1.6500    0.0000 C   0  0  0  0  0  0  0  0  0  0  0  0
    2.8669   -0.9475    0.0000 H   0  0  0  0  0  0  0  0  0  0  0  0
    2.8669    0.1225    0.0000 H   0  0  0  0  0  0  0  0  0  0  0  0
    6.1491   -0.9475    0.0000 H   0  0  0  0  0  0  0  0  0  0  0  0
    6.1490    0.1225    0.0000 H   0  0  0  0  0  0  0  0  0  0  0  0
    2.8669    0.9475    0.0000 H   0  0  0  0  0  0  0  0  0  0  0  0
    2.8669   -0.1225    0.0000 H   0  0  0  0  0  0  0  0  0  0  0  0
    6.1491    0.9475    0.0000 H   0  0  0  0  0  0  0  0  0  0  0  0
    6.1490   -0.1225    0.0000 H   0  0  0  0  0  0  0  0  0  0  0  0
    3.5814   -1.1150    0.0000 H   0  0  0  0  0  0  0  0  0  0  0  0
    3.5813    2.1850    0.0000 H   0  0  0  0  0  0  0  0  0  0  0  0
    4.5080    2.7200    0.0000 H   0  0  0  0  0  0  0  0  0  0  0  0
    4.6872   -3.4036    0.0000 H   0  0  0  0  0  0  0  0  0  0  0  0
    3.0792   -0.6180    0.0000 H   0  0  0  0  0  0  0  0  0  0  0  0
    5.9370   -0.6180    0.0000 H   0  0  0  0  0  0  0  0  0  0  0  0
    4.3287   -3.4036    0.0000 H   0  0  0  0  0  0  0  0  0  0  0  0
    5.9370    0.6180    0.0000 H   0  0  0  0  0  0  0  0  0  0  0  0
    4.3287    3.4036    0.0000 H   0  0  0  0  0  0  0  0  0  0  0  0
    3.0792   -4.3321    0.0000 H   0  0  0  0  0  0  0  0  0  0  0  0
    1.4708   -1.5465    0.0000 H   0  0  0  0  0  0  0  0  0  0  0  0
    7.5452   -1.5465    0.0000 H   0  0  0  0  0  0  0  0  0  0  0  0
    5.9370   -4.3321    0.0000 H   0  0  0  0  0  0  0  0  0  0  0  0
    7.5452   -3.4036    0.0000 H   0  0  0  0  0  0  0  0  0  0  0  0
    5.9370    4.3321    0.0000 H   0  0  0  0  0  0  0  0  0  0  0  0
    7.5452    3.4036    0.0000 H   0  0  0  0  0  0  0  0  0  0  0  0
    7.3659    0.5800    0.0000 H   0  0  0  0  0  0  0  0  0  0  0  0
    8.2926    2.1850    0.0000 H   0  0  0  0  0  0  0  0  0  0  0  0
    8.2925    1.1150    0.0000 H   0  0  0  0  0  0  0  0  0  0  0  0
  1 24  1  0  0  0  0
  2  4  1  0  0  0  0
  2  5  1  0  0  0  0
  2  8  1  0  0  0  0
  3  6  1  0  0  0  0
  3  7  1  0  0  0  0
  3  9  1  0  0  0  0
  4  6  1  0  0  0  0
  4 29  1  0  0  0  0
  4 30  1  0  0  0  0
  5  7  1  0  0  0  0
  5 31  1  0  0  0  0
  5 32  1  0  0  0  0
  6 33  1  0  0  0  0
  6 34  1  0  0  0  0
  7 35  1  0  0  0  0
  7 36  1  0  0  0  0
  8 10  1  0  0  0  0
  8 11  1  0  0  0  0
  8 37  1  0  0  0  0
  9 12  1  0  0  0  0
  9 38  1  0  0  0  0
  9 39  1  0  0  0  0
 10 13  2  0  0  0  0
 10 14  1  0  0  0  0
 11 15  2  0  0  0  0
 11 16  1  0  0  0  0
 12 17  1  0  0  0  0
 12 18  2  0  0  0  0
 13 19  1  0  0  0  0
 13 40  1  0  0  0  0
 14 20  2  0  0  0  0
 14 41  1  0  0  0  0
 15 21  1  0  0  0  0
 15 42  1  0  0  0  0
 16 22  2  0  0  0  0
 16 43  1  0  0  0  0
 17 23  2  0  0  0  0
 17 44  1  0  0  0  0
 18 26  1  0  0  0  0
 18 45  1  0  0  0  0
 19 24  2  0  0  0  0
 19 46  1  0  0  0  0
 20 24  1  0  0  0  0
 20 47  1  0  0  0  0
 21 25  2  0  0  0  0
 21 48  1  0  0  0  0
 22 25  1  0  0  0  0
 22 49  1  0  0  0  0
 23 27  1  0  0  0  0
 23 28  1  0  0  0  0
 25 50  1  0  0  0  0
 26 27  2  0  0  0  0
 26 51  1  0  0  0  0
 27 52  1  0  0  0  0
 28 53  1  0  0  0  0
 28 54  1  0  0  0  0
 28 55  1  0  0  0  0
M  END
>  <DRUGBANK_ID>
DB00737

>  <SECONDARY_ACCESSION_NUMBERS>
APRD00354

>  <COMMON_NAME>
Meclizine

>  <CAS_NUMBER>
569-65-3

>  <UNII>
3L5TQ84570

>  <SYNONYMS>
Meclizine; Meclozina; Meclozine

$$$$
