
 OpenBabel10282417072D

181188  0  0  0  0  0  0  0  0999 V2000
    2.3831   -1.7304    0.0000 C   0  0  0  0  0  0  0  0  0  0  0  0
    2.2652   -0.9138    0.0000 C   0  0  2  0  0  0  0  0  0  0  0  0
    1.4992   -0.6076    0.0000 C   0  0  0  0  0  0  0  0  0  0  0  0
    0.8509   -1.1180    0.0000 N   0  0  0  0  0  0  0  0  0  0  0  0
    0.0849   -0.8118    0.0000 C   0  0  0  0  0  0  0  0  0  0  0  0
   -0.0329    0.0047    0.0000 O   0  0  0  0  0  0  0  0  0  0  0  0
   -0.5632   -1.3221    0.0000 C   0  0  0  0  0  0  0  0  0  0  0  0
   -1.3293   -1.0159    0.0000 C   0  0  0  0  0  0  0  0  0  0  0  0
   -1.4472   -0.1994    0.0000 C   0  0  2  0  0  0  0  0  0  0  0  0
   -0.6228   -0.1675    0.0000 C   0  0  0  0  0  0  0  0  0  0  0  0
   -1.3927    0.6237    0.0000 C   0  0  1  0  0  0  0  0  0  0  0  0
   -0.6947    1.0636    0.0000 C   0  0  0  0  0  0  0  0  0  0  0  0
    0.0351    0.6789    0.0000 C   0  0  0  0  0  0  0  0  0  0  0  0
    0.7331    1.1187    0.0000 N   0  0  0  0  0  0  0  0  0  0  0  0
    0.3201   -0.0952    0.0000 O   0  0  0  0  0  0  0  0  0  0  0  0
   -2.1588    0.9300    0.0000 C   0  0  1  0  0  0  0  0  0  0  0  0
   -2.6867    0.2961    0.0000 N   0  0  0  0  0  0  0  0  0  0  0  0
   -2.2469   -0.4019    0.0000 C   0  0  0  0  0  0  0  0  0  0  0  0
   -2.7933   -1.3143    0.0000 C   0  0  0  0  0  0  0  0  0  0  0  0
   -2.2343   -1.9211    0.0000 C   0  0  0  0  0  0  0  0  0  0  0  0
   -3.5334   -1.6787    0.0000 C   0  0  0  0  0  0  0  0  0  0  0  0
   -4.1087   -1.0874    0.0000 N   0  0  0  0  0  0  0  0  0  0  0  0
   -4.8489   -1.4518    0.0000 C   0  0  0  0  0  0  0  0  0  0  0  0
   -5.6992   -0.8131    0.0000 C   0  0  0  0  0  0  0  0  0  0  0  0
   -5.9842   -0.0388    0.0000 C   0  0  0  0  0  0  0  0  0  0  0  0
   -5.3360    0.4713    0.0000 N   0  0  0  0  0  0  0  0  0  0  0  0
   -5.6211    1.2456    0.0000 C   0  0  0  0  0  0  0  0  0  0  0  0
   -4.8969    2.0244    0.0000 C   0  0  0  0  0  0  0  0  0  0  0  0
   -5.3175    2.7342    0.0000 C   0  0  0  0  0  0  0  0  0  0  0  0
   -4.0972    2.2270    0.0000 C   0  0  0  0  0  0  0  0  0  0  0  0
   -3.5693    2.8610    0.0000 C   0  0  1  0  0  0  0  0  0  0  0  0
   -3.7718    3.6607    0.0000 C   0  0  0  0  0  0  0  0  0  0  0  0
   -4.5657    3.8852    0.0000 C   0  0  0  0  0  0  0  0  0  0  0  0
   -4.7683    4.6850    0.0000 C   0  0  0  0  0  0  0  0  0  0  0  0
   -4.1769    5.2603    0.0000 N   0  0  0  0  0  0  0  0  0  0  0  0
   -5.5621    4.9094    0.0000 O   0  0  0  0  0  0  0  0  0  0  0  0
   -2.8032    2.5547    0.0000 C   0  0  2  0  0  0  0  0  0  0  0  0
   -1.9902    2.4145    0.0000 C   0  0  0  0  0  0  0  0  0  0  0  0
   -2.5787    3.3487    0.0000 C   0  0  0  0  0  0  0  0  0  0  0  0
   -1.7790    3.5513    0.0000 C   0  0  0  0  0  0  0  0  0  0  0  0
   -1.5545    4.3452    0.0000 N   0  0  0  0  0  0  0  0  0  0  0  0
   -1.2037    2.9600    0.0000 O   0  0  0  0  0  0  0  0  0  0  0  0
   -2.8577    1.7316    0.0000 C   0  0  2  0  0  0  0  0  0  0  0  0
   -2.0760    1.9954    0.0000 C   0  0  0  0  0  0  0  0  0  0  0  0
   -3.6574    1.5291    0.0000 N   0  0  0  0  0  0  0  0  0  0  0  0
   -3.9636    0.7630    0.0000 Co  0  3  0  0  0  0  0  0  0  0  0  0
   -3.4533    0.1147    0.0000 C   0  0  0  0  0  0  0  0  0  0  0  0
   -2.9429   -0.5334    0.0000 N   0  0  0  0  0  0  0  0  0  0  0  0
   -6.4455    1.2138    0.0000 C   0  0  1  0  0  0  0  0  0  0  0  0
   -6.3910    2.0370    0.0000 C   0  0  0  0  0  0  0  0  0  0  0  0
   -7.2585    1.3540    0.0000 C   0  0  0  0  0  0  0  0  0  0  0  0
   -7.5435    2.1282    0.0000 C   0  0  0  0  0  0  0  0  0  0  0  0
   -8.3565    2.2684    0.0000 N   0  0  0  0  0  0  0  0  0  0  0  0
   -7.0156    2.7621    0.0000 O   0  0  0  0  0  0  0  0  0  0  0  0
   -6.6699    0.4199    0.0000 C   0  0  2  0  0  0  0  0  0  0  0  0
   -7.4441    0.1347    0.0000 C   0  0  0  0  0  0  0  0  0  0  0  0
   -7.5843   -0.6781    0.0000 C   0  0  0  0  0  0  0  0  0  0  0  0
   -8.3585   -0.9632    0.0000 C   0  0  0  0  0  0  0  0  0  0  0  0
   -8.4988   -1.7762    0.0000 N   0  0  0  0  0  0  0  0  0  0  0  0
   -8.9925   -0.4353    0.0000 O   0  0  0  0  0  0  0  0  0  0  0  0
   -4.7310   -2.2684    0.0000 C   0  0  0  0  0  0  0  0  0  0  0  0
   -4.7855   -3.0916    0.0000 C   0  0  0  0  0  0  0  0  0  0  0  0
   -5.5554   -2.3001    0.0000 C   0  0  0  0  0  0  0  0  0  0  0  0
   -3.9180   -2.4086    0.0000 C   0  0  2  0  0  0  0  0  0  0  0  0
   -3.5536   -3.1488    0.0000 C   0  0  0  0  0  0  0  0  0  0  0  0
   -4.0124   -3.8344    0.0000 C   0  0  0  0  0  0  0  0  0  0  0  0
   -3.6480   -4.5746    0.0000 C   0  0  0  0  0  0  0  0  0  0  0  0
   -2.8248   -4.6291    0.0000 N   0  0  0  0  0  0  0  0  0  0  0  0
   -4.1068   -5.2603    0.0000 O   0  0  0  0  0  0  0  0  0  0  0  0
    2.9134   -0.4035    0.0000 O   0  0  0  0  0  0  0  0  0  0  0  0
    3.6795   -0.7097    0.0000 P   0  0  3  0  0  0  0  0  0  0  0  0
    3.9857    0.0563    0.0000 O   0  5  0  0  0  0  0  0  0  0  0  0
    3.3733   -1.4758    0.0000 O   0  0  0  0  0  0  0  0  0  0  0  0
    4.4456   -1.0159    0.0000 O   0  0  0  0  0  0  0  0  0  0  0  0
    5.0938   -0.5056    0.0000 C   0  0  2  0  0  0  0  0  0  0  0  0
    5.8877   -0.7300    0.0000 C   0  0  1  0  0  0  0  0  0  0  0  0
    6.1727   -1.5042    0.0000 C   0  0  0  0  0  0  0  0  0  0  0  0
    6.9857   -1.6444    0.0000 O   0  0  0  0  0  0  0  0  0  0  0  0
    6.3465   -0.0443    0.0000 O   0  0  0  0  0  0  0  0  0  0  0  0
    5.8361    0.6038    0.0000 C   0  0  1  0  0  0  0  0  0  0  0  0
    5.0619    0.3187    0.0000 C   0  0  2  0  0  0  0  0  0  0  0  0
    4.3763    0.7776    0.0000 O   0  0  0  0  0  0  0  0  0  0  0  0
    6.0606    1.3978    0.0000 N   0  0  0  0  0  0  0  0  0  0  0  0
    5.5502    2.0460    0.0000 C   0  0  0  0  0  0  0  0  0  0  0  0
    6.0090    2.7316    0.0000 N   0  0  0  0  0  0  0  0  0  0  0  0
    6.8029    2.5071    0.0000 C   0  0  0  0  0  0  0  0  0  0  0  0
    7.5009    2.9469    0.0000 C   0  0  0  0  0  0  0  0  0  0  0  0
    8.2308    2.5623    0.0000 C   0  0  0  0  0  0  0  0  0  0  0  0
    8.9288    3.0022    0.0000 C   0  0  0  0  0  0  0  0  0  0  0  0
    8.2627    1.7380    0.0000 C   0  0  0  0  0  0  0  0  0  0  0  0
    8.9925    1.3534    0.0000 C   0  0  0  0  0  0  0  0  0  0  0  0
    7.5646    1.2982    0.0000 C   0  0  0  0  0  0  0  0  0  0  0  0
    6.8348    1.6827    0.0000 C   0  0  0  0  0  0  0  0  0  0  0  0
    1.5424   -2.3923    0.0000 H   0  0  0  0  0  0  0  0  0  0  0  0
    3.3767   -2.1275    0.0000 H   0  0  0  0  0  0  0  0  0  0  0  0
    2.5360   -2.7894    0.0000 H   0  0  0  0  0  0  0  0  0  0  0  0
    1.4245   -1.5757    0.0000 H   0  0  0  0  0  0  0  0  0  0  0  0
    1.3464    0.4514    0.0000 H   0  0  0  0  0  0  0  0  0  0  0  0
    0.5056   -0.2105    0.0000 H   0  0  0  0  0  0  0  0  0  0  0  0
    0.9915   -2.0924    0.0000 H   0  0  0  0  0  0  0  0  0  0  0  0
   -0.4103   -2.3811    0.0000 H   0  0  0  0  0  0  0  0  0  0  0  0
   -1.4039   -1.9840    0.0000 H   0  0  0  0  0  0  0  0  0  0  0  0
   -2.1700   -1.6778    0.0000 H   0  0  0  0  0  0  0  0  0  0  0  0
   -2.3229   -0.6188    0.0000 H   0  0  0  0  0  0  0  0  0  0  0  0
   -0.0524   -1.0728    0.0000 H   0  0  0  0  0  0  0  0  0  0  0  0
   -0.1240    0.7791    0.0000 H   0  0  0  0  0  0  0  0  0  0  0  0
    0.4464   -0.1261    0.0000 H   0  0  0  0  0  0  0  0  0  0  0  0
   -0.4735    0.0761    0.0000 H   0  0  0  0  0  0  0  0  0  0  0  0
   -0.7360    2.1328    0.0000 H   0  0  0  0  0  0  0  0  0  0  0  0
    0.2106    1.6339    0.0000 H   0  0  0  0  0  0  0  0  0  0  0  0
    1.6041    0.6598    0.0000 H   0  0  0  0  0  0  0  0  0  0  0  0
    0.6951    2.1025    0.0000 H   0  0  0  0  0  0  0  0  0  0  0  0
   -1.8961   -0.1073    0.0000 H   0  0  0  0  0  0  0  0  0  0  0  0
   -2.5533   -2.9424    0.0000 H   0  0  0  0  0  0  0  0  0  0  0  0
   -1.1903   -1.6867    0.0000 H   0  0  0  0  0  0  0  0  0  0  0  0
   -1.5093   -2.7081    0.0000 H   0  0  0  0  0  0  0  0  0  0  0  0
   -6.5272   -1.4291    0.0000 H   0  0  0  0  0  0  0  0  0  0  0  0
   -4.7930    3.6669    0.0000 H   0  0  0  0  0  0  0  0  0  0  0  0
   -6.3874    2.7221    0.0000 H   0  0  0  0  0  0  0  0  0  0  0  0
   -5.8630    3.6547    0.0000 H   0  0  0  0  0  0  0  0  0  0  0  0
   -4.6128    3.0978    0.0000 H   0  0  0  0  0  0  0  0  0  0  0  0
   -3.0048    4.4068    0.0000 H   0  0  0  0  0  0  0  0  0  0  0  0
   -4.0345    4.6980    0.0000 H   0  0  0  0  0  0  0  0  0  0  0  0
   -5.3326    3.1391    0.0000 H   0  0  0  0  0  0  0  0  0  0  0  0
   -5.5953    4.1763    0.0000 H   0  0  0  0  0  0  0  0  0  0  0  0
   -3.2296    4.9924    0.0000 H   0  0  0  0  0  0  0  0  0  0  0  0
   -4.4186    6.2147    0.0000 H   0  0  0  0  0  0  0  0  0  0  0  0
   -1.6205    1.4104    0.0000 H   0  0  0  0  0  0  0  0  0  0  0  0
   -1.3055    3.2368    0.0000 H   0  0  0  0  0  0  0  0  0  0  0  0
   -0.9358    2.2327    0.0000 H   0  0  0  0  0  0  0  0  0  0  0  0
   -3.3249    4.1156    0.0000 H   0  0  0  0  0  0  0  0  0  0  0  0
   -2.2876    4.3784    0.0000 H   0  0  0  0  0  0  0  0  0  0  0  0
   -0.6001    4.5869    0.0000 H   0  0  0  0  0  0  0  0  0  0  0  0
   -2.2410    5.0509    0.0000 H   0  0  0  0  0  0  0  0  0  0  0  0
   -1.2728    1.2885    0.0000 H   0  0  0  0  0  0  0  0  0  0  0  0
   -1.8654    3.0445    0.0000 H   0  0  0  0  0  0  0  0  0  0  0  0
   -1.0622    2.3375    0.0000 H   0  0  0  0  0  0  0  0  0  0  0  0
   -5.4310    2.5096    0.0000 H   0  0  0  0  0  0  0  0  0  0  0  0
   -7.2803    2.6320    0.0000 H   0  0  0  0  0  0  0  0  0  0  0  0
   -6.3203    3.1047    0.0000 H   0  0  0  0  0  0  0  0  0  0  0  0
   -7.9432    0.5318    0.0000 H   0  0  0  0  0  0  0  0  0  0  0  0
   -8.3129    1.5359    0.0000 H   0  0  0  0  0  0  0  0  0  0  0  0
   -8.6967    3.1923    0.0000 H   0  0  0  0  0  0  0  0  0  0  0  0
   -8.9865    1.5119    0.0000 H   0  0  0  0  0  0  0  0  0  0  0  0
   -7.4552    1.1466    0.0000 H   0  0  0  0  0  0  0  0  0  0  0  0
   -8.2664    0.8194    0.0000 H   0  0  0  0  0  0  0  0  0  0  0  0
   -8.4482   -0.2350    0.0000 H   0  0  0  0  0  0  0  0  0  0  0  0
   -6.7621   -1.3628    0.0000 H   0  0  0  0  0  0  0  0  0  0  0  0
   -7.7661   -1.7325    0.0000 H   0  0  0  0  0  0  0  0  0  0  0  0
   -9.4227   -2.1163    0.0000 H   0  0  0  0  0  0  0  0  0  0  0  0
   -7.7423   -2.4063    0.0000 H   0  0  0  0  0  0  0  0  0  0  0  0
   -5.7455   -3.5642    0.0000 H   0  0  0  0  0  0  0  0  0  0  0  0
   -3.8962   -3.6866    0.0000 H   0  0  0  0  0  0  0  0  0  0  0  0
   -4.8562   -4.1593    0.0000 H   0  0  0  0  0  0  0  0  0  0  0  0
   -6.1256   -1.3947    0.0000 H   0  0  0  0  0  0  0  0  0  0  0  0
   -6.0544   -3.2466    0.0000 H   0  0  0  0  0  0  0  0  0  0  0  0
   -6.6246   -2.3412    0.0000 H   0  0  0  0  0  0  0  0  0  0  0  0
   -4.5588   -3.2655    0.0000 H   0  0  0  0  0  0  0  0  0  0  0  0
   -2.4859   -3.2195    0.0000 H   0  0  0  0  0  0  0  0  0  0  0  0
   -3.0810   -4.1088    0.0000 H   0  0  0  0  0  0  0  0  0  0  0  0
   -5.0801   -3.7637    0.0000 H   0  0  0  0  0  0  0  0  0  0  0  0
   -4.6075   -4.7237    0.0000 H   0  0  0  0  0  0  0  0  0  0  0  0
   -2.3899   -5.5124    0.0000 H   0  0  0  0  0  0  0  0  0  0  0  0
   -2.2773   -3.8109    0.0000 H   0  0  0  0  0  0  0  0  0  0  0  0
    5.3019   -1.5552    0.0000 H   0  0  0  0  0  0  0  0  0  0  0  0
    5.1609   -1.5153    0.0000 H   0  0  0  0  0  0  0  0  0  0  0  0
    5.4880   -2.3264    0.0000 H   0  0  0  0  0  0  0  0  0  0  0  0
    6.5424   -2.5083    0.0000 H   0  0  0  0  0  0  0  0  0  0  0  0
    7.3209   -2.5546    0.0000 H   0  0  0  0  0  0  0  0  0  0  0  0
    6.8857    0.8119    0.0000 H   0  0  0  0  0  0  0  0  0  0  0  0
    5.1884    1.3812    0.0000 H   0  0  0  0  0  0  0  0  0  0  0  0
    4.4405    1.7455    0.0000 H   0  0  0  0  0  0  0  0  0  0  0  0
    4.5190    2.0061    0.0000 H   0  0  0  0  0  0  0  0  0  0  0  0
    7.4610    3.9781    0.0000 H   0  0  0  0  0  0  0  0  0  0  0  0
    9.8755    2.5035    0.0000 H   0  0  0  0  0  0  0  0  0  0  0  0
    8.8873    4.0714    0.0000 H   0  0  0  0  0  0  0  0  0  0  0  0
    9.8340    3.5727    0.0000 H   0  0  0  0  0  0  0  0  0  0  0  0
    9.0338    0.2842    0.0000 H   0  0  0  0  0  0  0  0  0  0  0  0
    9.8978    1.9238    0.0000 H   0  0  0  0  0  0  0  0  0  0  0  0
    9.9391    0.8545    0.0000 H   0  0  0  0  0  0  0  0  0  0  0  0
    7.6045    0.2670    0.0000 H   0  0  0  0  0  0  0  0  0  0  0  0
  1 94  1  0  0  0  0
  1 95  1  0  0  0  0
  1 96  1  0  0  0  0
  2  1  1  0  0  0  0
  2  3  1  0  0  0  0
  2 70  1  0  0  0  0
  2 97  1  1  0  0  0
  3  4  1  0  0  0  0
  3 98  1  0  0  0  0
  3 99  1  0  0  0  0
  4  5  1  0  0  0  0
  4100  1  0  0  0  0
  5  6  2  0  0  0  0
  5  7  1  0  0  0  0
  7  8  1  0  0  0  0
  7101  1  0  0  0  0
  7102  1  0  0  0  0
  8103  1  0  0  0  0
  8104  1  0  0  0  0
  9  8  1  1  0  0  0
  9 10  1  0  0  0  0
  9 11  1  0  0  0  0
  9 18  1  0  0  0  0
 10105  1  0  0  0  0
 10106  1  0  0  0  0
 10107  1  0  0  0  0
 11 12  1  0  0  0  0
 11 16  1  0  0  0  0
 11108  1  1  0  0  0
 12 13  1  0  0  0  0
 12109  1  0  0  0  0
 12110  1  0  0  0  0
 13 14  1  0  0  0  0
 13 15  2  0  0  0  0
 14111  1  0  0  0  0
 14112  1  0  0  0  0
 16 17  1  0  0  0  0
 16 43  1  0  0  0  0
 16113  1  6  0  0  0
 17 18  2  0  0  0  0
 18 19  1  0  0  0  0
 19 20  1  0  0  0  0
 19 21  2  0  0  0  0
 20114  1  0  0  0  0
 20115  1  0  0  0  0
 20116  1  0  0  0  0
 21 22  1  0  0  0  0
 21 64  1  0  0  0  0
 22 23  2  0  0  0  0
 23 24  1  0  0  0  0
 23 61  1  0  0  0  0
 24 25  2  0  0  0  0
 24117  1  0  0  0  0
 25 26  1  0  0  0  0
 25 55  1  0  0  0  0
 26 27  2  0  0  0  0
 27 28  1  0  0  0  0
 27 49  1  0  0  0  0
 28 29  1  0  0  0  0
 28 30  2  0  0  0  0
 29118  1  0  0  0  0
 29119  1  0  0  0  0
 29120  1  0  0  0  0
 30 31  1  0  0  0  0
 30 45  1  0  0  0  0
 31 32  1  0  0  0  0
 31 37  1  0  0  0  0
 31121  1  6  0  0  0
 32 33  1  0  0  0  0
 32122  1  0  0  0  0
 32123  1  0  0  0  0
 33 34  1  0  0  0  0
 33124  1  0  0  0  0
 33125  1  0  0  0  0
 34 35  1  0  0  0  0
 34 36  2  0  0  0  0
 35126  1  0  0  0  0
 35127  1  0  0  0  0
 37 38  1  1  0  0  0
 37 39  1  0  0  0  0
 37 43  1  0  0  0  0
 38128  1  0  0  0  0
 38129  1  0  0  0  0
 38130  1  0  0  0  0
 39 40  1  0  0  0  0
 39131  1  0  0  0  0
 39132  1  0  0  0  0
 40 41  1  0  0  0  0
 40 42  2  0  0  0  0
 41133  1  0  0  0  0
 41134  1  0  0  0  0
 43 44  1  1  0  0  0
 43 45  1  0  0  0  0
 44135  1  0  0  0  0
 44136  1  0  0  0  0
 44137  1  0  0  0  0
 45 46  1  0  0  0  0
 46 47  1  0  0  0  0
 47 48  3  0  0  0  0
 49 50  1  1  0  0  0
 49 51  1  0  0  0  0
 49 55  1  0  0  0  0
 50138  1  0  0  0  0
 50139  1  0  0  0  0
 50140  1  0  0  0  0
 51 52  1  0  0  0  0
 51141  1  0  0  0  0
 51142  1  0  0  0  0
 52 53  1  0  0  0  0
 52 54  2  0  0  0  0
 53143  1  0  0  0  0
 53144  1  0  0  0  0
 55 56  1  0  0  0  0
 55145  1  6  0  0  0
 56 57  1  0  0  0  0
 56146  1  0  0  0  0
 56147  1  0  0  0  0
 57 58  1  0  0  0  0
 57148  1  0  0  0  0
 57149  1  0  0  0  0
 58 59  1  0  0  0  0
 58 60  2  0  0  0  0
 59150  1  0  0  0  0
 59151  1  0  0  0  0
 61 62  1  0  0  0  0
 61 63  1  0  0  0  0
 61 64  1  0  0  0  0
 62152  1  0  0  0  0
 62153  1  0  0  0  0
 62154  1  0  0  0  0
 63155  1  0  0  0  0
 63156  1  0  0  0  0
 63157  1  0  0  0  0
 64 65  1  0  0  0  0
 64158  1  6  0  0  0
 65 66  1  0  0  0  0
 65159  1  0  0  0  0
 65160  1  0  0  0  0
 66 67  1  0  0  0  0
 66161  1  0  0  0  0
 66162  1  0  0  0  0
 67 68  1  0  0  0  0
 67 69  2  0  0  0  0
 68163  1  0  0  0  0
 68164  1  0  0  0  0
 70 71  1  0  0  0  0
 71 72  1  0  0  0  0
 71 73  2  0  0  0  0
 71 74  1  0  0  0  0
 75 74  1  0  0  0  0
 75 76  1  0  0  0  0
 75 81  1  0  0  0  0
 75165  1  6  0  0  0
 76 77  1  0  0  0  0
 76 79  1  0  0  0  0
 76166  1  1  0  0  0
 77 78  1  0  0  0  0
 77167  1  0  0  0  0
 77168  1  0  0  0  0
 78169  1  0  0  0  0
 79 80  1  0  0  0  0
 80 81  1  0  0  0  0
 80 83  1  0  0  0  0
 80170  1  6  0  0  0
 81 82  1  0  0  0  0
 81171  1  6  0  0  0
 82172  1  0  0  0  0
 83 84  1  0  0  0  0
 83 93  1  0  0  0  0
 84 85  2  0  0  0  0
 84173  1  0  0  0  0
 85 86  1  0  0  0  0
 86 87  1  0  0  0  0
 86 93  2  0  0  0  0
 87 88  2  0  0  0  0
 87174  1  0  0  0  0
 88 89  1  0  0  0  0
 88 90  1  0  0  0  0
 89175  1  0  0  0  0
 89176  1  0  0  0  0
 89177  1  0  0  0  0
 90 91  1  0  0  0  0
 90 92  2  0  0  0  0
 91178  1  0  0  0  0
 91179  1  0  0  0  0
 91180  1  0  0  0  0
 92 93  1  0  0  0  0
 92181  1  0  0  0  0
M  CHG  2  46   1  72  -1
M  END
>  <DRUGBANK_ID>
DB00115

>  <SECONDARY_ACCESSION_NUMBERS>
NUTR00004; APRD00326; EXPT00965

>  <COMMON_NAME>
Cyanocobalamin

>  <CAS_NUMBER>
68-19-9

>  <UNII>
P6YC3EG204

>  <SYNONYMS>
Cianocobalamina; Cyanocob(III)alamin; Cyanocobalamin; Cyanocobalamine; Cyanocobalaminum; Vitamin B12; Vitamin B12 complex; Vitamin B12 NOS

$$$$
