
 OpenBabel10282417072D

 50 52  0  0  1  0  0  0  0  0999 V2000
    5.6645   -1.0164    0.0000 H   0  0  0  0  0  0  0  0  0  0  0  0
    5.2520   -0.3020    0.0000 C   0  0  0  0  0  0  0  0  0  0  0  0
    6.0770   -0.3020    0.0000 H   0  0  0  0  0  0  0  0  0  0  0  0
    5.6645    0.4125    0.0000 H   0  0  0  0  0  0  0  0  0  0  0  0
    4.8395    0.4125    0.0000 O   0  0  0  0  0  0  0  0  0  0  0  0
    4.0145    0.4125    0.0000 C   0  0  0  0  0  0  0  0  0  0  0  0
    3.6020    1.1270    0.0000 C   0  0  0  0  0  0  0  0  0  0  0  0
    2.7770    1.1270    0.0000 C   0  0  0  0  0  0  0  0  0  0  0  0
    2.3645    0.4125    0.0000 C   0  0  0  0  0  0  0  0  0  0  0  0
    2.7770   -0.3020    0.0000 C   0  0  0  0  0  0  0  0  0  0  0  0
    3.6020   -0.3020    0.0000 C   0  0  0  0  0  0  0  0  0  0  0  0
    4.0145   -1.0164    0.0000 O   0  0  0  0  0  0  0  0  0  0  0  0
    4.8395   -1.0164    0.0000 C   0  0  0  0  0  0  0  0  0  0  0  0
    4.5573   -1.7917    0.0000 H   0  0  0  0  0  0  0  0  0  0  0  0
    5.1216   -1.7917    0.0000 H   0  0  0  0  0  0  0  0  0  0  0  0
    4.4270   -0.3020    0.0000 H   0  0  0  0  0  0  0  0  0  0  0  0
    1.5395    0.4125    0.0000 C   0  0  2  0  0  0  0  0  0  0  0  0
    1.1270   -0.3020    0.0000 C   0  0  0  0  0  0  0  0  0  0  0  0
    0.3020   -0.3020    0.0000 C   0  0  0  0  0  0  0  0  0  0  0  0
   -0.1105   -1.0164    0.0000 O   0  0  0  0  0  0  0  0  0  0  0  0
   -0.1105    0.4125    0.0000 C   0  0  2  0  0  0  0  0  0  0  0  0
    0.3020    1.1270    0.0000 C   0  0  0  0  0  0  0  0  0  0  0  0
    1.1270    1.1270    0.0000 N   0  0  3  0  0  0  0  0  0  0  0  0
    1.5395    1.8414    0.0000 C   0  0  0  0  0  0  0  0  0  0  0  0
    2.3645    1.8414    0.0000 C   0  0  0  0  0  0  0  0  0  0  0  0
   -0.9355    0.4125    0.0000 C   0  0  0  0  0  0  0  0  0  0  0  0
   -1.3480    1.1270    0.0000 C   0  0  0  0  0  0  0  0  0  0  0  0
   -2.1730    1.1270    0.0000 C   0  0  0  0  0  0  0  0  0  0  0  0
   -0.9355    1.8414    0.0000 C   0  0  0  0  0  0  0  0  0  0  0  0
    4.1180    2.0207    0.0000 H   0  0  0  0  0  0  0  0  0  0  0  0
    2.2610   -1.1957    0.0000 H   0  0  0  0  0  0  0  0  0  0  0  0
    2.0745    1.3391    0.0000 H   0  0  0  0  0  0  0  0  0  0  0  0
    1.6620   -1.2286    0.0000 H   0  0  0  0  0  0  0  0  0  0  0  0
    0.5920   -1.2286    0.0000 H   0  0  0  0  0  0  0  0  0  0  0  0
   -0.6455   -0.5141    0.0000 H   0  0  0  0  0  0  0  0  0  0  0  0
   -0.2330    2.0536    0.0000 H   0  0  0  0  0  0  0  0  0  0  0  0
    0.8370    2.0536    0.0000 H   0  0  0  0  0  0  0  0  0  0  0  0
    1.0045    2.7681    0.0000 H   0  0  0  0  0  0  0  0  0  0  0  0
    2.0745    2.7680    0.0000 H   0  0  0  0  0  0  0  0  0  0  0  0
    2.8995    2.7681    0.0000 H   0  0  0  0  0  0  0  0  0  0  0  0
    3.4345    1.8414    0.0000 H   0  0  0  0  0  0  0  0  0  0  0  0
   -1.4705   -0.5141    0.0000 H   0  0  0  0  0  0  0  0  0  0  0  0
   -2.0055    0.4125    0.0000 H   0  0  0  0  0  0  0  0  0  0  0  0
   -1.8830    2.0537    0.0000 H   0  0  0  0  0  0  0  0  0  0  0  0
   -2.7080    2.0536    0.0000 H   0  0  0  0  0  0  0  0  0  0  0  0
   -2.7080    0.2004    0.0000 H   0  0  0  0  0  0  0  0  0  0  0  0
   -3.2430    1.1270    0.0000 H   0  0  0  0  0  0  0  0  0  0  0  0
    0.1345    1.8414    0.0000 H   0  0  0  0  0  0  0  0  0  0  0  0
   -1.4705    2.7681    0.0000 H   0  0  0  0  0  0  0  0  0  0  0  0
   -0.4005    2.7680    0.0000 H   0  0  0  0  0  0  0  0  0  0  0  0
  1  2  1  0  0  0  0
  2  3  1  0  0  0  0
  2  4  1  0  0  0  0
  2  5  1  0  0  0  0
  5  6  1  0  0  0  0
  6  7  2  0  0  0  0
  6 11  1  0  0  0  0
  7  8  1  0  0  0  0
  7 30  1  0  0  0  0
  8  9  2  0  0  0  0
  8 25  1  0  0  0  0
  9 10  1  0  0  0  0
  9 17  1  0  0  0  0
 10 11  2  0  0  0  0
 10 31  1  0  0  0  0
 11 12  1  0  0  0  0
 12 13  1  0  0  0  0
 13 14  1  0  0  0  0
 13 15  1  0  0  0  0
 13 16  1  0  0  0  0
 17 18  1  0  0  0  0
 17 23  1  0  0  0  0
 17 32  1  1  0  0  0
 18 19  1  0  0  0  0
 18 33  1  0  0  0  0
 18 34  1  0  0  0  0
 19 20  2  0  0  0  0
 19 21  1  0  0  0  0
 21 22  1  0  0  0  0
 21 26  1  0  0  0  0
 21 35  1  6  0  0  0
 22 23  1  0  0  0  0
 22 36  1  0  0  0  0
 22 37  1  0  0  0  0
 23 24  1  0  0  0  0
 24 25  1  0  0  0  0
 24 38  1  0  0  0  0
 24 39  1  0  0  0  0
 25 40  1  0  0  0  0
 25 41  1  0  0  0  0
 26 27  1  0  0  0  0
 26 42  1  0  0  0  0
 26 43  1  0  0  0  0
 27 28  1  0  0  0  0
 27 29  1  0  0  0  0
 27 44  1  0  0  0  0
 28 45  1  0  0  0  0
 28 46  1  0  0  0  0
 28 47  1  0  0  0  0
 29 48  1  0  0  0  0
 29 49  1  0  0  0  0
 29 50  1  0  0  0  0
M  ISO  6   1   2   3   2   4   2  14   2  15   2  16   2
M  END
>  <DRUGBANK_ID>
DB12161

>  <COMMON_NAME>
Deutetrabenazine

>  <CAS_NUMBER>
1392826-25-3

>  <UNII>
P341G6W9NB

>  <SYNONYMS>
D6 tetrabenazine; D6-tetrabenazine; Deutetrabenazine; Tetrabenazine D6; Tetrabenazine-D6

$$$$
