APF
 OpenBabel10282417072D

 30 30  0  0  0  0  0  0  0  0999 V2000
   -1.7226   -1.7600    0.0000 C   0  0  0  0  0  0  0  0  0  0  0  0
   -1.0081   -1.3475    0.0000 C   0  0  0  0  0  0  0  0  0  0  0  0
   -0.2936   -1.7600    0.0000 O   0  0  0  0  0  0  0  0  0  0  0  0
   -1.0081   -0.5225    0.0000 N   0  0  0  0  0  0  0  0  0  0  0  0
   -0.2936   -0.1100    0.0000 C   0  0  2  0  0  0  0  0  0  0  0  0
    0.4208   -0.5225    0.0000 C   0  0  0  0  0  0  0  0  0  0  0  0
    0.4208   -1.3475    0.0000 C   0  0  0  0  0  0  0  0  0  0  0  0
   -0.2936    0.7150    0.0000 C   0  0  0  0  0  0  0  0  0  0  0  0
    1.1353   -0.1100    0.0000 O   0  0  0  0  0  0  0  0  0  0  0  0
   -0.4042   -1.3475    0.0000 F   0  0  0  0  0  0  0  0  0  0  0  0
    1.2458   -1.3475    0.0000 F   0  0  0  0  0  0  0  0  0  0  0  0
    0.4208   -2.1725    0.0000 F   0  0  0  0  0  0  0  0  0  0  0  0
    0.4208    1.1275    0.0000 C   0  0  0  0  0  0  0  0  0  0  0  0
    0.4208    1.9525    0.0000 C   0  0  0  0  0  0  0  0  0  0  0  0
    1.1353    2.3650    0.0000 C   0  0  0  0  0  0  0  0  0  0  0  0
    1.8498    1.9525    0.0000 C   0  0  0  0  0  0  0  0  0  0  0  0
    1.8498    1.1275    0.0000 C   0  0  0  0  0  0  0  0  0  0  0  0
    1.1353    0.7150    0.0000 C   0  0  0  0  0  0  0  0  0  0  0  0
   -0.2936   -0.6939    0.0000 H   0  0  0  0  0  0  0  0  0  0  0  0
   -2.6492   -1.2250    0.0000 H   0  0  0  0  0  0  0  0  0  0  0  0
   -1.7226   -2.8300    0.0000 H   0  0  0  0  0  0  0  0  0  0  0  0
   -2.6493   -2.2950    0.0000 H   0  0  0  0  0  0  0  0  0  0  0  0
   -1.8607   -0.0302    0.0000 H   0  0  0  0  0  0  0  0  0  0  0  0
   -1.2203    1.2500    0.0000 H   0  0  0  0  0  0  0  0  0  0  0  0
   -0.2936    1.7850    0.0000 H   0  0  0  0  0  0  0  0  0  0  0  0
   -0.4729    2.4685    0.0000 H   0  0  0  0  0  0  0  0  0  0  0  0
    1.1353    3.3970    0.0000 H   0  0  0  0  0  0  0  0  0  0  0  0
    2.7435    2.4685    0.0000 H   0  0  0  0  0  0  0  0  0  0  0  0
    2.7435    0.6115    0.0000 H   0  0  0  0  0  0  0  0  0  0  0  0
    1.1353   -0.3170    0.0000 H   0  0  0  0  0  0  0  0  0  0  0  0
  1  2  1  0  0  0  0
  1 20  1  0  0  0  0
  1 21  1  0  0  0  0
  1 22  1  0  0  0  0
  2  3  2  0  0  0  0
  2  4  1  0  0  0  0
  4 23  1  0  0  0  0
  5  4  1  0  0  0  0
  5  6  1  0  0  0  0
  5  8  1  0  0  0  0
  5 19  1  6  0  0  0
  6  7  1  0  0  0  0
  6  9  2  0  0  0  0
  7 10  1  0  0  0  0
  7 11  1  0  0  0  0
  7 12  1  0  0  0  0
  8 13  1  0  0  0  0
  8 24  1  0  0  0  0
  8 25  1  0  0  0  0
 13 14  2  0  0  0  0
 13 18  1  0  0  0  0
 14 15  1  0  0  0  0
 14 26  1  0  0  0  0
 15 16  2  0  0  0  0
 15 27  1  0  0  0  0
 16 17  1  0  0  0  0
 16 28  1  0  0  0  0
 17 18  2  0  0  0  0
 17 29  1  0  0  0  0
 18 30  1  0  0  0  0
M  END
>  <DRUGBANK_ID>
DB07380

>  <COMMON_NAME>
1,1,1-TRIFLUORO-3-ACETAMIDO-4-PHENYL BUTAN-2-ONE(N-ACETYL-L-PHENYLALANYL TRIFLUOROMETHYL KETONE)

$$$$
