
 OpenBabel10282417072D

 57 60  0  0  1  0  0  0  0  0999 V2000
   16.4154  -12.1105    0.0000 C   0  0  0  0  0  0  0  0  0  0  0  0
   16.4154  -12.9355    0.0000 C   0  0  1  0  0  0  0  0  0  0  0  0
   17.1298  -13.3480    0.0000 C   0  0  0  0  0  0  0  0  0  0  0  0
   17.8443  -12.9355    0.0000 C   0  0  1  0  0  0  0  0  0  0  0  0
   17.8443  -12.1105    0.0000 C   0  0  2  0  0  0  0  0  0  0  0  0
   17.1298  -11.6980    0.0000 C   0  0  0  0  0  0  0  0  0  0  0  0
   18.5588  -13.3480    0.0000 C   0  0  0  0  0  0  0  0  0  0  0  0
   19.2733  -12.9355    0.0000 C   0  0  0  0  0  0  0  0  0  0  0  0
   19.2733  -12.1105    0.0000 C   0  0  2  0  0  0  0  0  0  0  0  0
   18.5588  -11.6980    0.0000 C   0  0  2  0  0  0  0  0  0  0  0  0
   19.9878  -11.6980    0.0000 C   0  0  1  0  0  0  0  0  0  0  0  0
   19.9878  -10.8730    0.0000 C   0  0  2  0  0  0  0  0  0  0  0  0
   19.2733  -10.4605    0.0000 C   0  0  0  0  0  0  0  0  0  0  0  0
   18.5588  -10.8730    0.0000 C   0  0  0  0  0  0  0  0  0  0  0  0
   20.7724  -11.9530    0.0000 C   0  0  0  0  0  0  0  0  0  0  0  0
   21.2573  -11.2855    0.0000 C   0  0  0  0  0  0  0  0  0  0  0  0
   20.7724  -10.6181    0.0000 C   0  0  2  0  0  0  0  0  0  0  0  0
   21.0273   -9.8334    0.0000 C   0  0  0  0  0  0  0  0  0  0  0  0
   21.8343   -9.6619    0.0000 O   0  0  0  0  0  0  0  0  0  0  0  0
   20.4752   -9.2203    0.0000 C   0  0  0  0  0  0  0  0  0  0  0  0
   20.0740  -10.0525    0.0000 C   0  0  0  0  0  0  0  0  0  0  0  0
   19.2733  -11.2855    0.0000 H   0  0  0  0  0  0  0  0  0  0  0  0
   17.8443  -13.7605    0.0000 H   0  0  0  0  0  0  0  0  0  0  0  0
   20.0740  -12.5185    0.0000 H   0  0  0  0  0  0  0  0  0  0  0  0
   17.8443  -11.2855    0.0000 C   0  0  0  0  0  0  0  0  0  0  0  0
   15.7009  -13.3480    0.0000 O   0  0  0  0  0  0  0  0  0  0  0  0
   18.5588  -12.5230    0.0000 H   0  0  0  0  0  0  0  0  0  0  0  0
   15.4887  -11.5755    0.0000 H   0  0  0  0  0  0  0  0  0  0  0  0
   16.4154  -11.0405    0.0000 H   0  0  0  0  0  0  0  0  0  0  0  0
   15.4888  -12.4005    0.0000 H   0  0  0  0  0  0  0  0  0  0  0  0
   17.1298  -14.4180    0.0000 H   0  0  0  0  0  0  0  0  0  0  0  0
   18.0564  -13.8830    0.0000 H   0  0  0  0  0  0  0  0  0  0  0  0
   17.1298  -10.6280    0.0000 H   0  0  0  0  0  0  0  0  0  0  0  0
   16.2031  -11.1630    0.0000 H   0  0  0  0  0  0  0  0  0  0  0  0
   18.5588  -14.4180    0.0000 H   0  0  0  0  0  0  0  0  0  0  0  0
   19.4854  -13.8830    0.0000 H   0  0  0  0  0  0  0  0  0  0  0  0
   20.1999  -13.4705    0.0000 H   0  0  0  0  0  0  0  0  0  0  0  0
   20.1999  -12.4005    0.0000 H   0  0  0  0  0  0  0  0  0  0  0  0
   19.2733   -9.3905    0.0000 H   0  0  0  0  0  0  0  0  0  0  0  0
   18.3467   -9.9255    0.0000 H   0  0  0  0  0  0  0  0  0  0  0  0
   17.6322  -10.3380    0.0000 H   0  0  0  0  0  0  0  0  0  0  0  0
   17.6322  -11.4080    0.0000 H   0  0  0  0  0  0  0  0  0  0  0  0
   21.1030  -12.9706    0.0000 H   0  0  0  0  0  0  0  0  0  0  0  0
   21.8292  -12.1204    0.0000 H   0  0  0  0  0  0  0  0  0  0  0  0
   22.3273  -11.2855    0.0000 H   0  0  0  0  0  0  0  0  0  0  0  0
   21.7431  -10.3321    0.0000 H   0  0  0  0  0  0  0  0  0  0  0  0
   21.8292  -10.4507    0.0000 H   0  0  0  0  0  0  0  0  0  0  0  0
   20.8058   -8.2027    0.0000 H   0  0  0  0  0  0  0  0  0  0  0  0
   19.4286   -9.4428    0.0000 H   0  0  0  0  0  0  0  0  0  0  0  0
   19.7592   -8.4252    0.0000 H   0  0  0  0  0  0  0  0  0  0  0  0
   21.0515   -9.6172    0.0000 H   0  0  0  0  0  0  0  0  0  0  0  0
   19.2083   -9.4236    0.0000 H   0  0  0  0  0  0  0  0  0  0  0  0
   20.1858   -8.9884    0.0000 H   0  0  0  0  0  0  0  0  0  0  0  0
   18.7709  -10.7505    0.0000 H   0  0  0  0  0  0  0  0  0  0  0  0
   16.9177  -10.7505    0.0000 H   0  0  0  0  0  0  0  0  0  0  0  0
   17.8443  -10.2155    0.0000 H   0  0  0  0  0  0  0  0  0  0  0  0
   14.8609  -12.8630    0.0000 H   0  0  0  0  0  0  0  0  0  0  0  0
  1  2  1  0  0  0  0
  1 28  1  0  0  0  0
  1 29  1  0  0  0  0
  2  3  1  0  0  0  0
  2 26  1  0  0  0  0
  2 30  1  6  0  0  0
  3  4  1  0  0  0  0
  3 31  1  0  0  0  0
  3 32  1  0  0  0  0
  4  5  1  0  0  0  0
  4  7  1  0  0  0  0
  4 23  1  6  0  0  0
  5  6  1  0  0  0  0
  5 25  1  1  0  0  0
  6  1  1  0  0  0  0
  6 33  1  0  0  0  0
  6 34  1  0  0  0  0
  7  8  1  0  0  0  0
  7 35  1  0  0  0  0
  7 36  1  0  0  0  0
  8  9  1  0  0  0  0
  8 37  1  0  0  0  0
  8 38  1  0  0  0  0
  9 10  1  0  0  0  0
  9 11  1  0  0  0  0
  9 22  1  1  0  0  0
 10  5  1  0  0  0  0
 10 27  1  6  0  0  0
 11 12  1  0  0  0  0
 11 15  1  0  0  0  0
 11 24  1  6  0  0  0
 12 13  1  0  0  0  0
 12 21  1  1  0  0  0
 13 14  1  0  0  0  0
 13 39  1  0  0  0  0
 13 40  1  0  0  0  0
 14 10  1  0  0  0  0
 14 41  1  0  0  0  0
 14 42  1  0  0  0  0
 15 16  1  0  0  0  0
 15 43  1  0  0  0  0
 15 44  1  0  0  0  0
 16 17  1  0  0  0  0
 16 45  1  0  0  0  0
 16 46  1  0  0  0  0
 17 12  1  0  0  0  0
 17 18  1  0  0  0  0
 17 47  1  6  0  0  0
 18 19  2  0  0  0  0
 18 20  1  0  0  0  0
 20 48  1  0  0  0  0
 20 49  1  0  0  0  0
 20 50  1  0  0  0  0
 21 51  1  0  0  0  0
 21 52  1  0  0  0  0
 21 53  1  0  0  0  0
 25 54  1  0  0  0  0
 25 55  1  0  0  0  0
 25 56  1  0  0  0  0
 26 57  1  0  0  0  0
M  END
>  <DRUGBANK_ID>
DB12972

>  <COMMON_NAME>
Sepranolone

>  <CAS_NUMBER>
516-55-2

>  <UNII>
3P8Z6V53MU

>  <SYNONYMS>
Sepranolone

$$$$
