2HC
 OpenBabel10282417072D

 20 20  0  0  0  0  0  0  0  0999 V2000
    0.5995    0.8655    0.0000 C   0  0  0  0  0  0  0  0  0  0  0  0
    1.3140    1.2780    0.0000 C   0  0  0  0  0  0  0  0  0  0  0  0
    1.3140    2.1030    0.0000 O   0  0  0  0  0  0  0  0  0  0  0  0
    2.0284    0.8655    0.0000 O   0  0  0  0  0  0  0  0  0  0  0  0
    0.5995    0.0405    0.0000 C   0  0  0  0  0  0  0  0  0  0  0  0
   -0.1150   -0.3720    0.0000 C   0  0  0  0  0  0  0  0  0  0  0  0
   -0.1150   -1.1970    0.0000 C   0  0  0  0  0  0  0  0  0  0  0  0
   -0.8295   -1.6095    0.0000 C   0  0  0  0  0  0  0  0  0  0  0  0
   -1.5439   -1.1970    0.0000 C   0  0  0  0  0  0  0  0  0  0  0  0
   -1.5439   -0.3720    0.0000 C   0  0  0  0  0  0  0  0  0  0  0  0
   -0.8295    0.0405    0.0000 C   0  0  0  0  0  0  0  0  0  0  0  0
   -0.8295    0.8655    0.0000 O   0  0  0  0  0  0  0  0  0  0  0  0
   -0.2942    1.3815    0.0000 H   0  0  0  0  0  0  0  0  0  0  0  0
    2.1255    2.5715    0.0000 H   0  0  0  0  0  0  0  0  0  0  0  0
    1.4932   -0.4755    0.0000 H   0  0  0  0  0  0  0  0  0  0  0  0
    0.7787   -1.7130    0.0000 H   0  0  0  0  0  0  0  0  0  0  0  0
   -0.8295   -2.6415    0.0000 H   0  0  0  0  0  0  0  0  0  0  0  0
   -2.4376   -1.7130    0.0000 H   0  0  0  0  0  0  0  0  0  0  0  0
   -2.4376    0.1440    0.0000 H   0  0  0  0  0  0  0  0  0  0  0  0
   -0.0180    1.3340    0.0000 H   0  0  0  0  0  0  0  0  0  0  0  0
  1  2  1  0  0  0  0
  1  5  2  0  0  0  0
  1 13  1  0  0  0  0
  2  3  1  0  0  0  0
  2  4  2  0  0  0  0
  3 14  1  0  0  0  0
  5  6  1  0  0  0  0
  5 15  1  0  0  0  0
  6  7  2  0  0  0  0
  6 11  1  0  0  0  0
  7  8  1  0  0  0  0
  7 16  1  0  0  0  0
  8  9  2  0  0  0  0
  8 17  1  0  0  0  0
  9 10  1  0  0  0  0
  9 18  1  0  0  0  0
 10 11  2  0  0  0  0
 10 19  1  0  0  0  0
 11 12  1  0  0  0  0
 12 20  1  0  0  0  0
M  END
>  <DRUGBANK_ID>
DB01650

>  <SECONDARY_ACCESSION_NUMBERS>
EXPT00123

>  <COMMON_NAME>
trans-2-hydroxycinnamic acid

>  <CAS_NUMBER>
614-60-8

>  <UNII>
23AU5FZB9C

>  <SYNONYMS>
(2E)-3-(2-hydroxyphenyl)-2-propenoic acid; (2E)-3-(2-hydroxyphenyl)prop-2-enoic acid; (E)-3-(2-Hydroxyphenyl)-2-propenoic acid; (E)-o-hydroxycinnamic acid; 2-Coumarate; 2-Coumaric acid; 2-Hydroxycinnamate; o-Coumaric acid; o-hydroxy-trans-cinnamic acid; trans-2-Hydroxycinnamate; trans-o-hydroxycinnamic acid

$$$$
