
 OpenBabel10282417072D

 67 68  0  0  0  0  0  0  0  0999 V2000
   -6.0147    0.8209    0.0000 C   0  0  0  0  0  0  0  0  0  0  0  0
   -6.0158   -0.0064    0.0000 C   0  0  0  0  0  0  0  0  0  0  0  0
   -5.3011   -0.4193    0.0000 C   0  0  0  0  0  0  0  0  0  0  0  0
   -4.5846   -0.0059    0.0000 C   0  0  0  0  0  0  0  0  0  0  0  0
   -4.5875    0.8245    0.0000 C   0  0  0  0  0  0  0  0  0  0  0  0
   -5.3029    1.2336    0.0000 C   0  0  0  0  0  0  0  0  0  0  0  0
   -5.3013   -1.2443    0.0000 C   0  0  0  0  0  0  0  0  0  0  0  0
   -5.3091   -2.0666    0.0000 C   0  0  0  0  0  0  0  0  0  0  0  0
   -4.4800   -1.2416    0.0000 C   0  0  0  0  0  0  0  0  0  0  0  0
   -6.1300   -1.2416    0.0000 C   0  0  0  0  0  0  0  0  0  0  0  0
   -3.8695   -0.4173    0.0000 N   0  0  0  0  0  0  0  0  0  0  0  0
   -3.1557   -0.0037    0.0000 C   0  0  0  0  0  0  0  0  0  0  0  0
   -2.4406   -0.4151    0.0000 C   0  0  0  0  0  0  0  0  0  0  0  0
   -1.7268   -0.0014    0.0000 N   0  0  0  0  0  0  0  0  0  0  0  0
   -1.0116   -0.4128    0.0000 C   0  0  2  0  0  0  0  0  0  0  0  0
   -0.2978    0.0007    0.0000 C   0  0  0  0  0  0  0  0  0  0  0  0
    0.4172   -0.4106    0.0000 N   0  0  0  0  0  0  0  0  0  0  0  0
    1.1311    0.0030    0.0000 C   0  0  2  0  0  0  0  0  0  0  0  0
    1.8462   -0.4083    0.0000 C   0  0  0  0  0  0  0  0  0  0  0  0
    2.5600    0.0052    0.0000 C   0  0  0  0  0  0  0  0  0  0  0  0
    3.2751   -0.4061    0.0000 O   0  0  0  0  0  0  0  0  0  0  0  0
    3.9890    0.0074    0.0000 C   0  0  0  0  0  0  0  0  0  0  0  0
    4.7017   -0.4083    0.0000 C   0  0  0  0  0  0  0  0  0  0  0  0
    5.4151    0.0045    0.0000 C   0  0  0  0  0  0  0  0  0  0  0  0
    5.4142    0.8304    0.0000 C   0  0  0  0  0  0  0  0  0  0  0  0
    4.6941    1.2416    0.0000 C   0  0  0  0  0  0  0  0  0  0  0  0
    3.9837    0.8263    0.0000 C   0  0  0  0  0  0  0  0  0  0  0  0
    6.1300   -0.4071    0.0000 F   0  0  0  0  0  0  0  0  0  0  0  0
    4.7002   -1.2333    0.0000 F   0  0  0  0  0  0  0  0  0  0  0  0
    4.6899    2.0666    0.0000 F   0  0  0  0  0  0  0  0  0  0  0  0
    3.2668    1.2345    0.0000 F   0  0  0  0  0  0  0  0  0  0  0  0
    1.8474   -1.2333    0.0000 O   0  0  0  0  0  0  0  0  0  0  0  0
    1.1297    0.8279    0.0000 C   0  0  0  0  0  0  0  0  0  0  0  0
    1.8436    1.2416    0.0000 C   0  0  0  0  0  0  0  0  0  0  0  0
   -0.2990    0.8257    0.0000 O   0  0  0  0  0  0  0  0  0  0  0  0
   -1.0103   -1.2378    0.0000 C   0  0  0  0  0  0  0  0  0  0  0  0
   -2.4393   -1.2401    0.0000 O   0  0  0  0  0  0  0  0  0  0  0  0
   -3.1570    0.8212    0.0000 O   0  0  0  0  0  0  0  0  0  0  0  0
    2.5587    0.8302    0.0000 O   0  0  0  0  0  0  0  0  0  0  0  0
    1.8424    2.0666    0.0000 O   0  0  0  0  0  0  0  0  0  0  0  0
   -6.9086    1.3367    0.0000 H   0  0  0  0  0  0  0  0  0  0  0  0
   -6.9100   -0.5217    0.0000 H   0  0  0  0  0  0  0  0  0  0  0  0
   -3.6957    1.3439    0.0000 H   0  0  0  0  0  0  0  0  0  0  0  0
   -5.3060    2.2656    0.0000 H   0  0  0  0  0  0  0  0  0  0  0  0
   -6.2408   -2.5928    0.0000 H   0  0  0  0  0  0  0  0  0  0  0  0
   -4.3876   -2.6104    0.0000 H   0  0  0  0  0  0  0  0  0  0  0  0
   -5.3192   -3.1366    0.0000 H   0  0  0  0  0  0  0  0  0  0  0  0
   -3.9420   -2.1665    0.0000 H   0  0  0  0  0  0  0  0  0  0  0  0
   -3.9480   -0.3132    0.0000 H   0  0  0  0  0  0  0  0  0  0  0  0
   -3.4100   -1.2381    0.0000 H   0  0  0  0  0  0  0  0  0  0  0  0
   -6.6620   -0.3132    0.0000 H   0  0  0  0  0  0  0  0  0  0  0  0
   -6.6680   -2.1665    0.0000 H   0  0  0  0  0  0  0  0  0  0  0  0
   -7.2000   -1.2381    0.0000 H   0  0  0  0  0  0  0  0  0  0  0  0
   -3.8680   -1.4018    0.0000 H   0  0  0  0  0  0  0  0  0  0  0  0
   -1.7284    0.9831    0.0000 H   0  0  0  0  0  0  0  0  0  0  0  0
   -1.9374   -0.9493    0.0000 H   0  0  0  0  0  0  0  0  0  0  0  0
    0.4187   -1.3951    0.0000 H   0  0  0  0  0  0  0  0  0  0  0  0
    0.2036    0.5365    0.0000 H   0  0  0  0  0  0  0  0  0  0  0  0
    2.5583    1.0752    0.0000 H   0  0  0  0  0  0  0  0  0  0  0  0
    3.4858    0.5417    0.0000 H   0  0  0  0  0  0  0  0  0  0  0  0
    6.3064    1.3490    0.0000 H   0  0  0  0  0  0  0  0  0  0  0  0
    0.2022    1.3614    0.0000 H   0  0  0  0  0  0  0  0  0  0  0  0
    1.1280    1.8979    0.0000 H   0  0  0  0  0  0  0  0  0  0  0  0
   -1.9361   -1.7743    0.0000 H   0  0  0  0  0  0  0  0  0  0  0  0
   -0.0828   -1.7713    0.0000 H   0  0  0  0  0  0  0  0  0  0  0  0
   -1.0086   -2.3078    0.0000 H   0  0  0  0  0  0  0  0  0  0  0  0
    2.5601   -0.1068    0.0000 H   0  0  0  0  0  0  0  0  0  0  0  0
  1  2  2  0  0  0  0
  1 41  1  0  0  0  0
  2  3  1  0  0  0  0
  2 42  1  0  0  0  0
  3  7  1  0  0  0  0
  3  4  2  0  0  0  0
  4 11  1  0  0  0  0
  4  5  1  0  0  0  0
  5  6  2  0  0  0  0
  5 43  1  0  0  0  0
  6  1  1  0  0  0  0
  6 44  1  0  0  0  0
  7 10  1  0  0  0  0
  7  8  1  0  0  0  0
  7  9  1  0  0  0  0
  8 45  1  0  0  0  0
  8 46  1  0  0  0  0
  8 47  1  0  0  0  0
  9 48  1  0  0  0  0
  9 49  1  0  0  0  0
  9 50  1  0  0  0  0
 10 51  1  0  0  0  0
 10 52  1  0  0  0  0
 10 53  1  0  0  0  0
 11 12  1  0  0  0  0
 11 54  1  0  0  0  0
 12 13  1  0  0  0  0
 12 38  2  0  0  0  0
 13 14  1  0  0  0  0
 13 37  2  0  0  0  0
 14 15  1  0  0  0  0
 14 55  1  0  0  0  0
 15 16  1  0  0  0  0
 15 36  1  0  0  0  0
 15 56  1  1  0  0  0
 16 17  1  0  0  0  0
 16 35  2  0  0  0  0
 17 18  1  0  0  0  0
 17 57  1  0  0  0  0
 18 33  1  0  0  0  0
 18 19  1  0  0  0  0
 18 58  1  6  0  0  0
 19 20  1  0  0  0  0
 19 32  2  0  0  0  0
 20 21  1  0  0  0  0
 20 59  1  0  0  0  0
 20 60  1  0  0  0  0
 21 22  1  0  0  0  0
 22 23  2  0  0  0  0
 23 24  1  0  0  0  0
 23 29  1  0  0  0  0
 24 25  2  0  0  0  0
 24 28  1  0  0  0  0
 25 26  1  0  0  0  0
 25 61  1  0  0  0  0
 26 27  2  0  0  0  0
 26 30  1  0  0  0  0
 27 22  1  0  0  0  0
 27 31  1  0  0  0  0
 33 34  1  0  0  0  0
 33 62  1  0  0  0  0
 33 63  1  0  0  0  0
 34 39  1  0  0  0  0
 34 40  2  0  0  0  0
 36 64  1  0  0  0  0
 36 65  1  0  0  0  0
 36 66  1  0  0  0  0
 39 67  1  0  0  0  0
M  END
>  <DRUGBANK_ID>
DB05408

>  <COMMON_NAME>
Emricasan

>  <CAS_NUMBER>
254750-02-2

>  <UNII>
P0GMS9N47Q

>  <SYNONYMS>
Emricasan; EmricasÃ¡n; Emricasanum

$$$$
