
 OpenBabel10282417072D

 69 73  0  0  0  0  0  0  0  0999 V2000
   -2.4386   -2.3422    0.0000 C   0  0  0  0  0  0  0  0  0  0  0  0
   -1.8691   -2.9391    0.0000 C   0  0  0  0  0  0  0  0  0  0  0  0
   -2.4660   -3.5086    0.0000 N   0  0  0  0  0  0  0  0  0  0  0  0
   -2.2712   -4.3103    0.0000 C   0  0  0  0  0  0  0  0  0  0  0  0
   -2.8681   -4.8798    0.0000 C   0  0  0  0  0  0  0  0  0  0  0  0
   -3.6598   -4.6477    0.0000 N   0  0  0  0  0  0  0  0  0  0  0  0
   -3.8545   -3.8460    0.0000 C   0  0  0  0  0  0  0  0  0  0  0  0
   -3.2577   -3.2765    0.0000 C   0  0  0  0  0  0  0  0  0  0  0  0
   -4.2566   -5.2172    0.0000 C   0  0  0  0  0  0  0  0  0  0  0  0
   -4.0619   -6.0189    0.0000 N   0  0  0  0  0  0  0  0  0  0  0  0
   -4.6587   -6.5884    0.0000 C   0  0  0  0  0  0  0  0  0  0  0  0
   -5.4504   -6.3563    0.0000 C   0  0  0  0  0  0  0  0  0  0  0  0
   -5.6452   -5.5546    0.0000 C   0  0  0  0  0  0  0  0  0  0  0  0
   -5.0483   -4.9851    0.0000 C   0  0  0  0  0  0  0  0  0  0  0  0
   -6.0473   -6.9258    0.0000 C   0  0  0  0  0  0  0  0  0  0  0  0
   -6.6442   -7.4953    0.0000 F   0  0  0  0  0  0  0  0  0  0  0  0
   -5.4777   -7.5227    0.0000 F   0  0  0  0  0  0  0  0  0  0  0  0
   -6.6168   -6.3289    0.0000 F   0  0  0  0  0  0  0  0  0  0  0  0
   -1.2722   -2.3696    0.0000 C   0  0  0  0  0  0  0  0  0  0  0  0
   -1.4670   -1.5679    0.0000 O   0  0  0  0  0  0  0  0  0  0  0  0
   -0.4806   -2.6017    0.0000 N   0  0  0  0  0  0  0  0  0  0  0  0
    0.1163   -2.0322    0.0000 C   0  0  1  0  0  0  0  0  0  0  0  0
    0.8517   -1.6585    0.0000 C   0  0  3  0  0  0  0  0  0  0  0  0
    0.8517   -0.9111    0.0000 C   0  0  0  0  0  0  0  0  0  0  0  0
    1.3012   -0.1208    0.0000 C   0  0  1  0  0  0  0  0  0  0  0  0
    0.5657   -0.4945    0.0000 C   0  0  0  0  0  0  0  0  0  0  0  0
    0.5657   -1.2419    0.0000 C   0  0  3  0  0  0  0  0  0  0  0  0
    1.3012   -1.6156    0.0000 C   0  0  0  0  0  0  0  0  0  0  0  0
    2.0368   -1.2419    0.0000 C   0  0  3  0  0  0  0  0  0  0  0  0
    1.5873   -2.0322    0.0000 C   0  0  0  0  0  0  0  0  0  0  0  0
    2.0368   -0.4945    0.0000 C   0  0  0  0  0  0  0  0  0  0  0  0
    1.3012    0.7042    0.0000 C   0  0  0  0  0  0  0  0  0  0  0  0
    0.5867    1.1167    0.0000 O   0  0  0  0  0  0  0  0  0  0  0  0
    2.0156    1.1167    0.0000 N   0  0  0  0  0  0  0  0  0  0  0  0
   -1.2996   -3.5360    0.0000 C   0  0  0  0  0  0  0  0  0  0  0  0
   -2.1375   -1.3154    0.0000 H   0  0  0  0  0  0  0  0  0  0  0  0
   -3.4784   -2.5948    0.0000 H   0  0  0  0  0  0  0  0  0  0  0  0
   -3.1772   -1.5680    0.0000 H   0  0  0  0  0  0  0  0  0  0  0  0
   -1.2444   -4.6114    0.0000 H   0  0  0  0  0  0  0  0  0  0  0  0
   -2.0186   -5.3501    0.0000 H   0  0  0  0  0  0  0  0  0  0  0  0
   -2.6155   -5.9195    0.0000 H   0  0  0  0  0  0  0  0  0  0  0  0
   -3.6422   -5.6185    0.0000 H   0  0  0  0  0  0  0  0  0  0  0  0
   -4.8813   -3.5449    0.0000 H   0  0  0  0  0  0  0  0  0  0  0  0
   -4.1071   -2.8063    0.0000 H   0  0  0  0  0  0  0  0  0  0  0  0
   -3.5104   -2.2368    0.0000 H   0  0  0  0  0  0  0  0  0  0  0  0
   -2.4836   -2.5378    0.0000 H   0  0  0  0  0  0  0  0  0  0  0  0
   -4.4150   -7.5912    0.0000 H   0  0  0  0  0  0  0  0  0  0  0  0
   -6.6355   -5.2642    0.0000 H   0  0  0  0  0  0  0  0  0  0  0  0
   -5.2920   -3.9823    0.0000 H   0  0  0  0  0  0  0  0  0  0  0  0
   -0.2482   -3.5584    0.0000 H   0  0  0  0  0  0  0  0  0  0  0  0
    0.7345   -2.9055    0.0000 H   0  0  0  0  0  0  0  0  0  0  0  0
    0.8518   -2.7285    0.0000 H   0  0  0  0  0  0  0  0  0  0  0  0
   -0.1827   -0.6375    0.0000 H   0  0  0  0  0  0  0  0  0  0  0  0
    0.0039   -1.5638    0.0000 H   0  0  0  0  0  0  0  0  0  0  0  0
   -0.3463    0.0651    0.0000 H   0  0  0  0  0  0  0  0  0  0  0  0
   -0.3680   -1.0171    0.0000 H   0  0  0  0  0  0  0  0  0  0  0  0
    0.8735   -2.2667    0.0000 H   0  0  0  0  0  0  0  0  0  0  0  0
    1.3012   -2.6856    0.0000 H   0  0  0  0  0  0  0  0  0  0  0  0
    2.2132   -2.1752    0.0000 H   0  0  0  0  0  0  0  0  0  0  0  0
    1.2626   -1.9805    0.0000 H   0  0  0  0  0  0  0  0  0  0  0  0
    1.8951   -3.0570    0.0000 H   0  0  0  0  0  0  0  0  0  0  0  0
    2.6505   -2.1525    0.0000 H   0  0  0  0  0  0  0  0  0  0  0  0
    2.9488    0.0651    0.0000 H   0  0  0  0  0  0  0  0  0  0  0  0
    2.9705   -1.0170    0.0000 H   0  0  0  0  0  0  0  0  0  0  0  0
    2.8682    0.6245    0.0000 H   0  0  0  0  0  0  0  0  0  0  0  0
    2.0156    2.1012    0.0000 H   0  0  0  0  0  0  0  0  0  0  0  0
   -1.6007   -4.5628    0.0000 H   0  0  0  0  0  0  0  0  0  0  0  0
   -0.2598   -3.2834    0.0000 H   0  0  0  0  0  0  0  0  0  0  0  0
   -0.5610   -4.3102    0.0000 H   0  0  0  0  0  0  0  0  0  0  0  0
  1  2  1  0  0  0  0
  1 36  1  0  0  0  0
  1 37  1  0  0  0  0
  1 38  1  0  0  0  0
  2  3  1  0  0  0  0
  2 19  1  0  0  0  0
  2 35  1  0  0  0  0
  3  4  1  0  0  0  0
  3  8  1  0  0  0  0
  4  5  1  0  0  0  0
  4 39  1  0  0  0  0
  4 40  1  0  0  0  0
  5  6  1  0  0  0  0
  5 41  1  0  0  0  0
  5 42  1  0  0  0  0
  6  7  1  0  0  0  0
  6  9  1  0  0  0  0
  7  8  1  0  0  0  0
  7 43  1  0  0  0  0
  7 44  1  0  0  0  0
  8 45  1  0  0  0  0
  8 46  1  0  0  0  0
  9 10  2  0  0  0  0
  9 14  1  0  0  0  0
 10 11  1  0  0  0  0
 11 12  2  0  0  0  0
 11 47  1  0  0  0  0
 12 13  1  0  0  0  0
 12 15  1  0  0  0  0
 13 14  2  0  0  0  0
 13 48  1  0  0  0  0
 14 49  1  0  0  0  0
 15 16  1  0  0  0  0
 15 17  1  0  0  0  0
 15 18  1  0  0  0  0
 19 20  2  0  0  0  0
 19 21  1  0  0  0  0
 21 50  1  0  0  0  0
 22 21  1  0  0  0  0
 22 23  1  0  0  0  0
 22 27  1  0  0  0  0
 22 51  1  1  0  0  0
 23 30  1  0  0  0  0
 23 24  1  0  0  0  0
 23 52  1  0  0  0  0
 24 25  1  0  0  0  0
 24 53  1  0  0  0  0
 24 54  1  0  0  0  0
 25 31  1  0  0  0  0
 25 26  1  0  0  0  0
 25 32  1  6  0  0  0
 26 27  1  0  0  0  0
 26 55  1  0  0  0  0
 26 56  1  0  0  0  0
 27 28  1  0  0  0  0
 27 57  1  0  0  0  0
 28 29  1  0  0  0  0
 28 58  1  0  0  0  0
 28 59  1  0  0  0  0
 29 30  1  0  0  0  0
 29 31  1  0  0  0  0
 29 60  1  0  0  0  0
 30 61  1  0  0  0  0
 30 62  1  0  0  0  0
 31 63  1  0  0  0  0
 31 64  1  0  0  0  0
 32 33  2  0  0  0  0
 32 34  1  0  0  0  0
 34 65  1  0  0  0  0
 34 66  1  0  0  0  0
 35 67  1  0  0  0  0
 35 68  1  0  0  0  0
 35 69  1  0  0  0  0
M  END
>  <DRUGBANK_ID>
DB12501

>  <COMMON_NAME>
ABT-384

>  <CAS_NUMBER>
868623-40-9

>  <UNII>
R5TH77F919

$$$$
