
 OpenBabel10282417072D

 35 36  0  0  0  0  0  0  0  0999 V2000
   -0.8891   -1.1069    0.0000 O   0  0  0  0  0  0  0  0  0  0  0  0
   -0.3591   -0.4747    0.0000 S   0  0  0  0  0  0  0  0  0  0  0  0
    0.1708   -1.1069    0.0000 O   0  0  0  0  0  0  0  0  0  0  0  0
   -1.0712   -0.0593    0.0000 C   0  0  0  0  0  0  0  0  0  0  0  0
    0.3529   -0.0593    0.0000 N   0  0  0  0  0  0  0  0  0  0  0  0
   -1.0712    0.7713    0.0000 C   0  0  0  0  0  0  0  0  0  0  0  0
   -1.7833   -0.4747    0.0000 C   0  0  0  0  0  0  0  0  0  0  0  0
    0.3529    0.7713    0.0000 C   0  0  3  0  0  0  0  0  0  0  0  0
   -0.3591    1.1867    0.0000 N   0  0  0  0  0  0  0  0  0  0  0  0
   -1.7833    1.1867    0.0000 C   0  0  0  0  0  0  0  0  0  0  0  0
   -2.4952   -0.0593    0.0000 C   0  0  0  0  0  0  0  0  0  0  0  0
    1.0670    1.1846    0.0000 C   0  0  0  0  0  0  0  0  0  0  0  0
   -2.4952    0.7713    0.0000 C   0  0  0  0  0  0  0  0  0  0  0  0
   -3.2094   -0.4727    0.0000 S   0  0  0  0  0  0  0  0  0  0  0  0
    1.7812    0.7713    0.0000 S   0  0  0  0  0  0  0  0  0  0  0  0
   -3.2094    1.1846    0.0000 Cl  0  0  0  0  0  0  0  0  0  0  0  0
   -3.9235   -0.0593    0.0000 N   0  0  0  0  0  0  0  0  0  0  0  0
   -3.6228   -1.1867    0.0000 O   0  0  0  0  0  0  0  0  0  0  0  0
   -2.7982   -1.1867    0.0000 O   0  0  0  0  0  0  0  0  0  0  0  0
    2.4952    1.1846    0.0000 C   0  0  0  0  0  0  0  0  0  0  0  0
    3.2093    0.7713    0.0000 C   0  0  0  0  0  0  0  0  0  0  0  0
    3.9235    1.1846    0.0000 F   0  0  0  0  0  0  0  0  0  0  0  0
    3.6227    0.0572    0.0000 F   0  0  0  0  0  0  0  0  0  0  0  0
    2.7981    0.0572    0.0000 F   0  0  0  0  0  0  0  0  0  0  0  0
    1.2374   -0.5673    0.0000 H   0  0  0  0  0  0  0  0  0  0  0  0
   -1.7834   -1.5067    0.0000 H   0  0  0  0  0  0  0  0  0  0  0  0
   -0.5750    0.2384    0.0000 H   0  0  0  0  0  0  0  0  0  0  0  0
   -0.3591    2.1712    0.0000 H   0  0  0  0  0  0  0  0  0  0  0  0
   -1.7834    2.2187    0.0000 H   0  0  0  0  0  0  0  0  0  0  0  0
    1.0670    2.2546    0.0000 H   0  0  0  0  0  0  0  0  0  0  0  0
    1.9939    1.7191    0.0000 H   0  0  0  0  0  0  0  0  0  0  0  0
   -3.9223    0.9607    0.0000 H   0  0  0  0  0  0  0  0  0  0  0  0
   -4.8074   -0.5683    0.0000 H   0  0  0  0  0  0  0  0  0  0  0  0
    2.4952    2.2546    0.0000 H   0  0  0  0  0  0  0  0  0  0  0  0
    3.4221    1.7191    0.0000 H   0  0  0  0  0  0  0  0  0  0  0  0
  1  2  2  0  0  0  0
  2  3  2  0  0  0  0
  2  4  1  0  0  0  0
  2  5  1  0  0  0  0
  4  6  2  0  0  0  0
  4  7  1  0  0  0  0
  5 25  1  0  0  0  0
  6  9  1  0  0  0  0
  6 10  1  0  0  0  0
  7 11  2  0  0  0  0
  7 26  1  0  0  0  0
  8  5  1  0  0  0  0
  8  9  1  0  0  0  0
  8 12  1  0  0  0  0
  8 27  1  0  0  0  0
  9 28  1  0  0  0  0
 10 13  2  0  0  0  0
 10 29  1  0  0  0  0
 11 13  1  0  0  0  0
 11 14  1  0  0  0  0
 12 15  1  0  0  0  0
 12 30  1  0  0  0  0
 12 31  1  0  0  0  0
 13 16  1  0  0  0  0
 14 17  1  0  0  0  0
 14 18  2  0  0  0  0
 14 19  2  0  0  0  0
 15 20  1  0  0  0  0
 17 32  1  0  0  0  0
 17 33  1  0  0  0  0
 20 21  1  0  0  0  0
 20 34  1  0  0  0  0
 20 35  1  0  0  0  0
 21 22  1  0  0  0  0
 21 23  1  0  0  0  0
 21 24  1  0  0  0  0
M  END
>  <DRUGBANK_ID>
DB13989

>  <COMMON_NAME>
Epitizide

>  <CAS_NUMBER>
1764-85-8

>  <UNII>
5B266B85J1

>  <SYNONYMS>
Epithiazide; Epitizide; Epitizidum; Eptizida

$$$$
