
 OpenBabel10282417072D

 96101  0  0  1  0  0  0  0  0999 V2000
    1.7767   -3.8091    0.0000 C   0  0  0  0  0  0  0  0  0  0  0  0
    0.9522   -3.8379    0.0000 C   0  0  1  0  0  0  0  0  0  0  0  0
    0.5150   -3.1382    0.0000 C   0  0  2  0  0  0  0  0  0  0  0  0
   -0.3095   -3.1670    0.0000 C   0  0  2  0  0  0  0  0  0  0  0  0
   -0.6968   -3.8954    0.0000 C   0  0  0  0  0  0  0  0  0  0  0  0
   -0.2596   -4.5951    0.0000 C   0  0  1  0  0  0  0  0  0  0  0  0
    0.5649   -4.5663    0.0000 O   0  0  0  0  0  0  0  0  0  0  0  0
   -0.6469   -5.3235    0.0000 O   0  0  0  0  0  0  0  0  0  0  0  0
   -0.2098   -6.0232    0.0000 C   0  0  1  0  0  0  0  0  0  0  0  0
    0.6147   -5.9944    0.0000 C   0  0  0  0  0  0  0  0  0  0  0  0
    1.0519   -6.6940    0.0000 C   0  0  1  0  0  0  0  0  0  0  0  0
    0.6646   -7.4224    0.0000 C   0  0  0  0  0  0  0  0  0  0  0  0
   -0.1599   -7.4512    0.0000 C   0  0  0  0  0  0  0  0  0  0  0  0
   -0.5971   -6.7516    0.0000 C   0  0  0  0  0  0  0  0  0  0  0  0
   -1.4216   -6.7804    0.0000 C   0  0  0  0  0  0  0  0  0  0  0  0
   -1.8089   -7.5088    0.0000 C   0  0  0  0  0  0  0  0  0  0  0  0
   -1.3717   -8.2085    0.0000 C   0  0  0  0  0  0  0  0  0  0  0  0
   -0.5472   -8.1797    0.0000 C   0  0  0  0  0  0  0  0  0  0  0  0
   -0.1100   -8.8793    0.0000 O   0  0  0  0  0  0  0  0  0  0  0  0
   -1.7590   -8.9369    0.0000 C   0  0  0  0  0  0  0  0  0  0  0  0
   -1.3218   -9.6365    0.0000 O   0  0  0  0  0  0  0  0  0  0  0  0
   -2.5835   -8.9657    0.0000 C   0  0  0  0  0  0  0  0  0  0  0  0
   -2.9708   -9.6941    0.0000 C   0  0  0  0  0  0  0  0  0  0  0  0
   -3.7953   -9.7229    0.0000 C   0  0  0  0  0  0  0  0  0  0  0  0
   -4.2325   -9.0233    0.0000 C   0  0  0  0  0  0  0  0  0  0  0  0
   -3.8452   -8.2948    0.0000 C   0  0  0  0  0  0  0  0  0  0  0  0
   -3.0207   -8.2660    0.0000 C   0  0  0  0  0  0  0  0  0  0  0  0
   -2.6334   -7.5376    0.0000 C   0  0  0  0  0  0  0  0  0  0  0  0
   -3.0706   -6.8380    0.0000 O   0  0  0  0  0  0  0  0  0  0  0  0
   -4.2824   -7.5952    0.0000 O   0  0  0  0  0  0  0  0  0  0  0  0
   -5.1069   -7.6240    0.0000 C   0  0  0  0  0  0  0  0  0  0  0  0
   -1.8588   -6.0807    0.0000 O   0  0  0  0  0  0  0  0  0  0  0  0
    1.7664   -6.2815    0.0000 C   0  0  0  0  0  0  0  0  0  0  0  0
    2.4809   -6.6940    0.0000 N   0  0  0  0  0  0  0  0  0  0  0  0
    3.1953   -6.2815    0.0000 N   0  0  0  0  0  0  0  0  0  0  0  0
    3.9098   -6.6940    0.0000 C   0  0  0  0  0  0  0  0  0  0  0  0
    3.9098   -7.5190    0.0000 O   0  0  0  0  0  0  0  0  0  0  0  0
    4.6243   -6.2815    0.0000 C   0  0  0  0  0  0  0  0  0  0  0  0
    5.3387   -6.6940    0.0000 C   0  0  0  0  0  0  0  0  0  0  0  0
    6.0532   -6.2815    0.0000 C   0  0  0  0  0  0  0  0  0  0  0  0
    6.7677   -6.6940    0.0000 C   0  0  0  0  0  0  0  0  0  0  0  0
    7.4822   -6.2815    0.0000 C   0  0  0  0  0  0  0  0  0  0  0  0
    8.1966   -6.6940    0.0000 N   0  0  0  0  0  0  0  0  0  0  0  0
    8.9503   -6.3584    0.0000 C   0  0  0  0  0  0  0  0  0  0  0  0
    9.1218   -5.5515    0.0000 O   0  0  0  0  0  0  0  0  0  0  0  0
    9.5023   -6.9715    0.0000 C   0  0  0  0  0  0  0  0  0  0  0  0
    9.0898   -7.6860    0.0000 C   0  0  0  0  0  0  0  0  0  0  0  0
    8.2829   -7.5145    0.0000 C   0  0  0  0  0  0  0  0  0  0  0  0
    7.6698   -8.0665    0.0000 O   0  0  0  0  0  0  0  0  0  0  0  0
    1.7664   -5.4565    0.0000 C   0  0  0  0  0  0  0  0  0  0  0  0
    1.0519   -5.0440    0.0000 O   0  0  0  0  0  0  0  0  0  0  0  0
    1.7934   -7.0557    0.0000 O   0  0  0  0  0  0  0  0  0  0  0  0
   -0.7467   -2.4674    0.0000 N   0  0  0  0  0  0  0  0  0  0  0  0
    0.9023   -2.4098    0.0000 O   0  0  0  0  0  0  0  0  0  0  0  0
    2.3437   -4.7165    0.0000 H   0  0  0  0  0  0  0  0  0  0  0  0
    2.2790   -2.8643    0.0000 H   0  0  0  0  0  0  0  0  0  0  0  0
    2.8460   -3.7717    0.0000 H   0  0  0  0  0  0  0  0  0  0  0  0
    1.4545   -2.8931    0.0000 H   0  0  0  0  0  0  0  0  0  0  0  0
    1.5843   -3.1009    0.0000 H   0  0  0  0  0  0  0  0  0  0  0  0
    0.1928   -2.2222    0.0000 H   0  0  0  0  0  0  0  0  0  0  0  0
   -1.7661   -3.9327    0.0000 H   0  0  0  0  0  0  0  0  0  0  0  0
   -1.1992   -4.8401    0.0000 H   0  0  0  0  0  0  0  0  0  0  0  0
   -1.3289   -4.6324    0.0000 H   0  0  0  0  0  0  0  0  0  0  0  0
    0.2926   -5.0785    0.0000 H   0  0  0  0  0  0  0  0  0  0  0  0
    1.1170   -5.0496    0.0000 H   0  0  0  0  0  0  0  0  0  0  0  0
    1.6840   -5.9570    0.0000 H   0  0  0  0  0  0  0  0  0  0  0  0
    1.2316   -8.3298    0.0000 H   0  0  0  0  0  0  0  0  0  0  0  0
    0.1623   -8.3672    0.0000 H   0  0  0  0  0  0  0  0  0  0  0  0
   -0.5499   -9.7066    0.0000 H   0  0  0  0  0  0  0  0  0  0  0  0
   -2.4239  -10.5693    0.0000 H   0  0  0  0  0  0  0  0  0  0  0  0
   -4.2798  -10.6341    0.0000 H   0  0  0  0  0  0  0  0  0  0  0  0
   -5.2639   -9.0594    0.0000 H   0  0  0  0  0  0  0  0  0  0  0  0
   -5.6739   -6.7166    0.0000 H   0  0  0  0  0  0  0  0  0  0  0  0
   -5.6092   -8.5688    0.0000 H   0  0  0  0  0  0  0  0  0  0  0  0
   -6.1762   -7.6614    0.0000 H   0  0  0  0  0  0  0  0  0  0  0  0
   -1.4189   -5.2534    0.0000 H   0  0  0  0  0  0  0  0  0  0  0  0
    3.1953   -5.2970    0.0000 H   0  0  0  0  0  0  0  0  0  0  0  0
    4.6243   -5.2115    0.0000 H   0  0  0  0  0  0  0  0  0  0  0  0
    5.5510   -5.7465    0.0000 H   0  0  0  0  0  0  0  0  0  0  0  0
    5.3387   -7.7640    0.0000 H   0  0  0  0  0  0  0  0  0  0  0  0
    6.2653   -7.2290    0.0000 H   0  0  0  0  0  0  0  0  0  0  0  0
    6.0532   -5.2115    0.0000 H   0  0  0  0  0  0  0  0  0  0  0  0
    6.9798   -5.7465    0.0000 H   0  0  0  0  0  0  0  0  0  0  0  0
    6.7677   -7.7640    0.0000 H   0  0  0  0  0  0  0  0  0  0  0  0
    7.6943   -7.2290    0.0000 H   0  0  0  0  0  0  0  0  0  0  0  0
    7.4822   -5.2115    0.0000 H   0  0  0  0  0  0  0  0  0  0  0  0
    8.4089   -5.7465    0.0000 H   0  0  0  0  0  0  0  0  0  0  0  0
   10.5286   -6.8636    0.0000 H   0  0  0  0  0  0  0  0  0  0  0  0
    9.5096   -8.6288    0.0000 H   0  0  0  0  0  0  0  0  0  0  0  0
    2.6930   -4.9215    0.0000 H   0  0  0  0  0  0  0  0  0  0  0  0
    1.7664   -4.3865    0.0000 H   0  0  0  0  0  0  0  0  0  0  0  0
    1.0519   -4.0740    0.0000 H   0  0  0  0  0  0  0  0  0  0  0  0
    1.8610   -8.0233    0.0000 H   0  0  0  0  0  0  0  0  0  0  0  0
   -0.2679   -1.5668    0.0000 H   0  0  0  0  0  0  0  0  0  0  0  0
   -1.7661   -2.5030    0.0000 H   0  0  0  0  0  0  0  0  0  0  0  0
    1.8717   -2.3760    0.0000 H   0  0  0  0  0  0  0  0  0  0  0  0
  1 55  1  0  0  0  0
  1 56  1  0  0  0  0
  1 57  1  0  0  0  0
  2  1  1  0  0  0  0
  2  7  1  0  0  0  0
  2 58  1  1  0  0  0
  3  2  1  0  0  0  0
  3  4  1  0  0  0  0
  3 54  1  0  0  0  0
  3 59  1  1  0  0  0
  4  5  1  0  0  0  0
  4 53  1  0  0  0  0
  4 60  1  1  0  0  0
  5 61  1  0  0  0  0
  5 62  1  0  0  0  0
  6  5  1  0  0  0  0
  6  7  1  0  0  0  0
  6  8  1  0  0  0  0
  6 63  1  6  0  0  0
  9  8  1  0  0  0  0
  9 10  1  0  0  0  0
  9 14  1  0  0  0  0
  9 64  1  6  0  0  0
 10 65  1  0  0  0  0
 10 66  1  0  0  0  0
 11 10  1  0  0  0  0
 11 12  1  0  0  0  0
 11 33  1  6  0  0  0
 11 52  1  0  0  0  0
 12 13  1  0  0  0  0
 12 67  1  0  0  0  0
 12 68  1  0  0  0  0
 13 14  2  0  0  0  0
 13 18  1  0  0  0  0
 14 15  1  0  0  0  0
 15 16  2  0  0  0  0
 15 32  1  0  0  0  0
 16 17  1  0  0  0  0
 16 28  1  0  0  0  0
 17 18  2  0  0  0  0
 17 20  1  0  0  0  0
 18 19  1  0  0  0  0
 19 69  1  0  0  0  0
 20 21  2  0  0  0  0
 20 22  1  0  0  0  0
 22 23  2  0  0  0  0
 22 27  1  0  0  0  0
 23 24  1  0  0  0  0
 23 70  1  0  0  0  0
 24 25  2  0  0  0  0
 24 71  1  0  0  0  0
 25 26  1  0  0  0  0
 25 72  1  0  0  0  0
 26 27  2  0  0  0  0
 26 30  1  0  0  0  0
 27 28  1  0  0  0  0
 28 29  2  0  0  0  0
 30 31  1  0  0  0  0
 31 73  1  0  0  0  0
 31 74  1  0  0  0  0
 31 75  1  0  0  0  0
 32 76  1  0  0  0  0
 33 34  2  0  0  0  0
 33 50  1  0  0  0  0
 34 35  1  0  0  0  0
 35 36  1  0  0  0  0
 35 77  1  0  0  0  0
 36 37  2  0  0  0  0
 36 38  1  0  0  0  0
 38 39  1  0  0  0  0
 38 78  1  0  0  0  0
 38 79  1  0  0  0  0
 39 40  1  0  0  0  0
 39 80  1  0  0  0  0
 39 81  1  0  0  0  0
 40 41  1  0  0  0  0
 40 82  1  0  0  0  0
 40 83  1  0  0  0  0
 41 42  1  0  0  0  0
 41 84  1  0  0  0  0
 41 85  1  0  0  0  0
 42 43  1  0  0  0  0
 42 86  1  0  0  0  0
 42 87  1  0  0  0  0
 43 44  1  0  0  0  0
 43 48  1  0  0  0  0
 44 45  2  0  0  0  0
 44 46  1  0  0  0  0
 46 47  2  0  0  0  0
 46 88  1  0  0  0  0
 47 48  1  0  0  0  0
 47 89  1  0  0  0  0
 48 49  2  0  0  0  0
 50 51  1  0  0  0  0
 50 90  1  0  0  0  0
 50 91  1  0  0  0  0
 51 92  1  0  0  0  0
 52 93  1  0  0  0  0
 53 94  1  0  0  0  0
 53 95  1  0  0  0  0
 54 96  1  0  0  0  0
M  END
>  <DRUGBANK_ID>
DB06013

>  <COMMON_NAME>
Aldoxorubicin

>  <CAS_NUMBER>
1361644-26-9

>  <UNII>
C28MV4IM0B

>  <SYNONYMS>
Aldoxorubicin

$$$$
