329
 OpenBabel10282417072D

 22 23  0  0  0  0  0  0  0  0999 V2000
   -1.8073    0.6103    0.0000 C   0  0  0  0  0  0  0  0  0  0  0  0
   -1.0226    0.3554    0.0000 C   0  0  0  0  0  0  0  0  0  0  0  0
   -0.3776    0.8698    0.0000 O   0  0  0  0  0  0  0  0  0  0  0  0
    0.4267    0.6862    0.0000 C   0  0  1  0  0  0  0  0  0  0  0  0
    0.9411    1.3312    0.0000 C   0  0  0  0  0  0  0  0  0  0  0  0
    0.4267   -0.8004    0.0000 N   0  0  0  0  0  0  0  0  0  0  0  0
   -0.3776   -0.9840    0.0000 C   0  0  0  0  0  0  0  0  0  0  0  0
   -0.5612   -1.7883    0.0000 N   0  0  0  0  0  0  0  0  0  0  0  0
   -1.0226   -0.4696    0.0000 C   0  0  0  0  0  0  0  0  0  0  0  0
   -1.8073   -0.7246    0.0000 S   0  0  0  0  0  0  0  0  0  0  0  0
   -2.2922   -0.0571    0.0000 C   0  0  0  0  0  0  0  0  0  0  0  0
    0.7846   -0.0571    0.0000 C   0  0  0  0  0  0  0  0  0  0  0  0
    0.2338    1.2373    0.0000 H   0  0  0  0  0  0  0  0  0  0  0  0
   -2.1262    1.5918    0.0000 H   0  0  0  0  0  0  0  0  0  0  0  0
    1.9991    1.1717    0.0000 H   0  0  0  0  0  0  0  0  0  0  0  0
    0.5502    2.3272    0.0000 H   0  0  0  0  0  0  0  0  0  0  0  0
    1.6083    2.1677    0.0000 H   0  0  0  0  0  0  0  0  0  0  0  0
   -1.5020   -2.0785    0.0000 H   0  0  0  0  0  0  0  0  0  0  0  0
    0.1605   -2.4580    0.0000 H   0  0  0  0  0  0  0  0  0  0  0  0
   -3.3242   -0.0571    0.0000 H   0  0  0  0  0  0  0  0  0  0  0  0
    1.8546   -0.0571    0.0000 H   0  0  0  0  0  0  0  0  0  0  0  0
    1.3539   -0.9631    0.0000 H   0  0  0  0  0  0  0  0  0  0  0  0
  1  2  1  0  0  0  0
  1 11  2  0  0  0  0
  1 14  1  0  0  0  0
  2  3  1  0  0  0  0
  2  9  2  0  0  0  0
  3  4  1  0  0  0  0
  4  5  1  0  0  0  0
  4 12  1  0  0  0  0
  4 13  1  6  0  0  0
  5 15  1  0  0  0  0
  5 16  1  0  0  0  0
  5 17  1  0  0  0  0
  6  7  2  0  0  0  0
  6 12  1  0  0  0  0
  7  8  1  0  0  0  0
  7  9  1  0  0  0  0
  8 18  1  0  0  0  0
  8 19  1  0  0  0  0
  9 10  1  0  0  0  0
 10 11  1  0  0  0  0
 11 20  1  0  0  0  0
 12 21  1  0  0  0  0
 12 22  1  0  0  0  0
M  END
>  <DRUGBANK_ID>
DB07003

>  <COMMON_NAME>
(2S)-2-methyl-2,3-dihydrothieno[2,3-f][1,4]oxazepin-5-amine

$$$$
