
 OpenBabel10282417072D

 34 29  0  0  0  0  0  0  0  0999 V2000
   -5.4022    2.3676    0.0000 O   0  0  0  0  0  0  0  0  0  0  0  0
   -4.6686    2.7443    0.0000 C   0  0  0  0  0  0  0  0  0  0  0  0
   -3.9727    2.2916    0.0000 C   0  0  3  0  0  0  0  0  0  0  0  0
   -4.0199    1.4671    0.0000 O   0  0  0  0  0  0  0  0  0  0  0  0
   -3.2389    2.6687    0.0000 C   0  0  3  0  0  0  0  0  0  0  0  0
   -3.2389    3.4935    0.0000 O   0  0  0  0  0  0  0  0  0  0  0  0
   -2.5435    2.2206    0.0000 C   0  0  3  0  0  0  0  0  0  0  0  0
   -2.5435    1.3958    0.0000 O   0  0  0  0  0  0  0  0  0  0  0  0
   -1.8097    2.5974    0.0000 C   0  0  3  0  0  0  0  0  0  0  0  0
   -1.8097    3.4222    0.0000 O   0  0  0  0  0  0  0  0  0  0  0  0
   -1.1141    2.1449    0.0000 C   0  0  0  0  0  0  0  0  0  0  0  0
   -0.3804    2.5218    0.0000 O   0  0  0  0  0  0  0  0  0  0  0  0
    5.8107    1.8018    0.0000 Na  0  3  0  0  0  0  0  0  0  0  0  0
    6.1376   -2.1515    0.0000 Al  0  1  0  0  0  0  0  0  0  0  0  0
   -0.2273   -2.1546    0.0000 O   0  5  0  0  0  0  0  0  0  0  0  0
    0.1833   -2.8684    0.0000 C   0  0  0  0  0  0  0  0  0  0  0  0
   -0.2273   -3.5827    0.0000 O   0  5  0  0  0  0  0  0  0  0  0  0
    1.0100   -2.8684    0.0000 O   0  0  0  0  0  0  0  0  0  0  0  0
   -5.6325   -2.6364    0.0000 O   0  5  0  0  0  0  0  0  0  0  0  0
   -6.2174    2.8933    0.0000 H   0  0  0  0  0  0  0  0  0  0  0  0
   -4.6139    3.8129    0.0000 H   0  0  0  0  0  0  0  0  0  0  0  0
   -3.7153    3.2303    0.0000 H   0  0  0  0  0  0  0  0  0  0  0  0
   -4.9274    1.8085    0.0000 H   0  0  0  0  0  0  0  0  0  0  0  0
   -4.8863    1.0309    0.0000 H   0  0  0  0  0  0  0  0  0  0  0  0
   -4.1522    3.2262    0.0000 H   0  0  0  0  0  0  0  0  0  0  0  0
   -2.3989    3.9785    0.0000 H   0  0  0  0  0  0  0  0  0  0  0  0
   -3.4829    1.7084    0.0000 H   0  0  0  0  0  0  0  0  0  0  0  0
   -3.3835    0.9108    0.0000 H   0  0  0  0  0  0  0  0  0  0  0  0
   -2.7229    3.1550    0.0000 H   0  0  0  0  0  0  0  0  0  0  0  0
   -0.9697    3.9072    0.0000 H   0  0  0  0  0  0  0  0  0  0  0  0
   -1.1687    1.0763    0.0000 H   0  0  0  0  0  0  0  0  0  0  0  0
   -0.2154    1.5642    0.0000 H   0  0  0  0  0  0  0  0  0  0  0  0
    0.4349    1.9962    0.0000 H   0  0  0  0  0  0  0  0  0  0  0  0
   -4.6625   -2.6364    0.0000 H   0  0  0  0  0  0  0  0  0  0  0  0
  1 20  1  0  0  0  0
  2  1  1  0  0  0  0
  2  3  1  0  0  0  0
  2 21  1  0  0  0  0
  2 22  1  0  0  0  0
  3  4  1  0  0  0  0
  3  5  1  0  0  0  0
  3 23  1  0  0  0  0
  4 24  1  0  0  0  0
  5  6  1  0  0  0  0
  5  7  1  0  0  0  0
  5 25  1  0  0  0  0
  6 26  1  0  0  0  0
  7  8  1  0  0  0  0
  7  9  1  0  0  0  0
  7 27  1  0  0  0  0
  8 28  1  0  0  0  0
  9 10  1  0  0  0  0
  9 11  1  0  0  0  0
  9 29  1  0  0  0  0
 10 30  1  0  0  0  0
 11 12  1  0  0  0  0
 11 31  1  0  0  0  0
 11 32  1  0  0  0  0
 12 33  1  0  0  0  0
 16 15  1  0  0  0  0
 16 17  1  0  0  0  0
 16 18  2  0  0  0  0
 19 34  1  0  0  0  0
M  CHG  5  13   1  14   3  15  -1  17  -1  19  -1
M  END
>  <DRUGBANK_ID>
DB15908

>  <COMMON_NAME>
Alexitol sodium

>  <CAS_NUMBER>
66813-51-2

>  <UNII>
JDN69ZV6XV

>  <SYNONYMS>
Alexitol sodium; Sodium polyhydroxyaluminium monocarbonate hexitol complex

$$$$
