B2F
 OpenBabel10282417072D

 24 24  0  0  0  0  0  0  0  0999 V2000
   -0.1554    1.2074    0.0000 N   0  0  0  0  0  0  0  0  0  0  0  0
    0.5591    0.7949    0.0000 C   0  0  1  0  0  0  0  0  0  0  0  0
    0.5591   -0.0301    0.0000 C   0  0  0  0  0  0  0  0  0  0  0  0
   -0.1554   -0.4426    0.0000 C   0  0  0  0  0  0  0  0  0  0  0  0
   -0.1554   -1.2676    0.0000 C   0  0  0  0  0  0  0  0  0  0  0  0
   -0.8699   -0.0301    0.0000 C   0  0  0  0  0  0  0  0  0  0  0  0
   -0.8699   -1.6801    0.0000 C   0  0  0  0  0  0  0  0  0  0  0  0
   -1.5843   -0.4426    0.0000 C   0  0  0  0  0  0  0  0  0  0  0  0
   -1.5843   -1.2676    0.0000 C   0  0  0  0  0  0  0  0  0  0  0  0
    1.2736    1.2074    0.0000 B   0  0  0  0  0  0  0  0  0  0  0  0
    1.2736    2.0324    0.0000 O   0  0  0  0  0  0  0  0  0  0  0  0
    1.9880    0.7949    0.0000 O   0  0  0  0  0  0  0  0  0  0  0  0
    0.0534    0.5030    0.0000 H   0  0  0  0  0  0  0  0  0  0  0  0
   -0.1554    2.2274    0.0000 H   0  0  0  0  0  0  0  0  0  0  0  0
   -1.0387    0.6974    0.0000 H   0  0  0  0  0  0  0  0  0  0  0  0
    1.4857   -0.5651    0.0000 H   0  0  0  0  0  0  0  0  0  0  0  0
    0.5591   -1.1001    0.0000 H   0  0  0  0  0  0  0  0  0  0  0  0
    0.7383   -1.7836    0.0000 H   0  0  0  0  0  0  0  0  0  0  0  0
   -0.8699    1.0019    0.0000 H   0  0  0  0  0  0  0  0  0  0  0  0
   -0.8699   -2.7121    0.0000 H   0  0  0  0  0  0  0  0  0  0  0  0
   -2.4780    0.0734    0.0000 H   0  0  0  0  0  0  0  0  0  0  0  0
   -2.4780   -1.7836    0.0000 H   0  0  0  0  0  0  0  0  0  0  0  0
    2.1136    2.5174    0.0000 H   0  0  0  0  0  0  0  0  0  0  0  0
    1.9880   -0.1751    0.0000 H   0  0  0  0  0  0  0  0  0  0  0  0
  1 14  1  0  0  0  0
  1 15  1  0  0  0  0
  2  1  1  0  0  0  0
  2  3  1  0  0  0  0
  2 10  1  0  0  0  0
  2 13  1  1  0  0  0
  3  4  1  0  0  0  0
  3 16  1  0  0  0  0
  3 17  1  0  0  0  0
  4  5  2  0  0  0  0
  4  6  1  0  0  0  0
  5  7  1  0  0  0  0
  5 18  1  0  0  0  0
  6  8  2  0  0  0  0
  6 19  1  0  0  0  0
  7  9  2  0  0  0  0
  7 20  1  0  0  0  0
  8  9  1  0  0  0  0
  8 21  1  0  0  0  0
  9 22  1  0  0  0  0
 10 11  1  0  0  0  0
 10 12  1  0  0  0  0
 11 23  1  0  0  0  0
 12 24  1  0  0  0  0
M  END
>  <DRUGBANK_ID>
DB07411

>  <COMMON_NAME>
PHENYLALANINE BORONIC ACID

$$$$
