PQA
 OpenBabel10282417072D

 49 52  0  0  0  0  0  0  0  0999 V2000
   -1.9872    0.2922    0.0000 N   0  0  0  0  0  0  0  0  0  0  0  0
   -1.9872   -0.5328    0.0000 C   0  0  0  0  0  0  0  0  0  0  0  0
   -1.3197   -1.0177    0.0000 C   0  0  0  0  0  0  0  0  0  0  0  0
   -1.5747   -1.8023    0.0000 C   0  0  0  0  0  0  0  0  0  0  0  0
   -2.3997   -1.8023    0.0000 N   0  0  0  0  0  0  0  0  0  0  0  0
   -2.6546   -1.0177    0.0000 N   0  0  0  0  0  0  0  0  0  0  0  0
   -3.4392   -0.7627    0.0000 C   0  0  0  0  0  0  0  0  0  0  0  0
   -4.0523   -1.3148    0.0000 C   0  0  0  0  0  0  0  0  0  0  0  0
   -4.8369   -1.0598    0.0000 C   0  0  0  0  0  0  0  0  0  0  0  0
   -5.0085   -0.2529    0.0000 C   0  0  0  0  0  0  0  0  0  0  0  0
   -5.7931    0.0021    0.0000 F   0  0  0  0  0  0  0  0  0  0  0  0
   -4.3954    0.2992    0.0000 C   0  0  0  0  0  0  0  0  0  0  0  0
   -3.6108    0.0442    0.0000 C   0  0  0  0  0  0  0  0  0  0  0  0
   -0.5351   -0.7627    0.0000 C   0  0  0  0  0  0  0  0  0  0  0  0
    0.0780   -1.3148    0.0000 O   0  0  0  0  0  0  0  0  0  0  0  0
   -0.3636    0.0442    0.0000 C   0  0  0  0  0  0  0  0  0  0  0  0
   -0.9767    0.5963    0.0000 C   0  0  0  0  0  0  0  0  0  0  0  0
   -0.8052    1.4032    0.0000 C   0  0  0  0  0  0  0  0  0  0  0  0
   -0.0205    1.6582    0.0000 C   0  0  0  0  0  0  0  0  0  0  0  0
    0.5926    1.1061    0.0000 C   0  0  0  0  0  0  0  0  0  0  0  0
    1.3772    1.3611    0.0000 O   0  0  0  0  0  0  0  0  0  0  0  0
    1.9903    0.8091    0.0000 C   0  0  0  0  0  0  0  0  0  0  0  0
    2.7749    1.0640    0.0000 C   0  0  0  0  0  0  0  0  0  0  0  0
    3.3880    0.5120    0.0000 C   0  0  0  0  0  0  0  0  0  0  0  0
    3.2165   -0.2950    0.0000 N   0  0  0  0  0  0  0  0  0  0  0  0
    2.4318   -0.5500    0.0000 C   0  0  0  0  0  0  0  0  0  0  0  0
    1.8188    0.0021    0.0000 C   0  0  0  0  0  0  0  0  0  0  0  0
    0.4210    0.2992    0.0000 C   0  0  0  0  0  0  0  0  0  0  0  0
   -1.1346    0.7845    0.0000 H   0  0  0  0  0  0  0  0  0  0  0  0
   -2.8398    0.7844    0.0000 H   0  0  0  0  0  0  0  0  0  0  0  0
   -0.9681   -2.6372    0.0000 H   0  0  0  0  0  0  0  0  0  0  0  0
   -3.8377   -2.3243    0.0000 H   0  0  0  0  0  0  0  0  0  0  0  0
   -5.6038   -1.7504    0.0000 H   0  0  0  0  0  0  0  0  0  0  0  0
   -4.6100    1.3087    0.0000 H   0  0  0  0  0  0  0  0  0  0  0  0
   -2.8439    0.7348    0.0000 H   0  0  0  0  0  0  0  0  0  0  0  0
   -1.9582    0.2774    0.0000 H   0  0  0  0  0  0  0  0  0  0  0  0
   -1.5721    2.0937    0.0000 H   0  0  0  0  0  0  0  0  0  0  0  0
    0.1941    2.6676    0.0000 H   0  0  0  0  0  0  0  0  0  0  0  0
    2.7855    0.0931    0.0000 H   0  0  0  0  0  0  0  0  0  0  0  0
    2.9974    2.1106    0.0000 H   0  0  0  0  0  0  0  0  0  0  0  0
    3.7925    1.3947    0.0000 H   0  0  0  0  0  0  0  0  0  0  0  0
    4.4056    0.8427    0.0000 H   0  0  0  0  0  0  0  0  0  0  0  0
    4.1832   -0.2039    0.0000 H   0  0  0  0  0  0  0  0  0  0  0  0
    3.9745   -0.9775    0.0000 H   0  0  0  0  0  0  0  0  0  0  0  0
    2.2093   -1.5966    0.0000 H   0  0  0  0  0  0  0  0  0  0  0  0
    1.4141   -0.8806    0.0000 H   0  0  0  0  0  0  0  0  0  0  0  0
    0.8012   -0.3285    0.0000 H   0  0  0  0  0  0  0  0  0  0  0  0
    1.5962   -1.0445    0.0000 H   0  0  0  0  0  0  0  0  0  0  0  0
    1.1879   -0.3914    0.0000 H   0  0  0  0  0  0  0  0  0  0  0  0
  1  2  1  0  0  0  0
  1 29  1  0  0  0  0
  1 30  1  0  0  0  0
  2  3  2  0  0  0  0
  2  6  1  0  0  0  0
  3  4  1  0  0  0  0
  3 14  1  0  0  0  0
  4  5  2  0  0  0  0
  4 31  1  0  0  0  0
  5  6  1  0  0  0  0
  6  7  1  0  0  0  0
  7  8  1  0  0  0  0
  7 13  2  0  0  0  0
  8  9  2  0  0  0  0
  8 32  1  0  0  0  0
  9 10  1  0  0  0  0
  9 33  1  0  0  0  0
 10 11  1  0  0  0  0
 10 12  2  0  0  0  0
 12 13  1  0  0  0  0
 12 34  1  0  0  0  0
 13 35  1  0  0  0  0
 14 15  2  0  0  0  0
 14 16  1  0  0  0  0
 16 17  1  0  0  0  0
 16 28  2  0  0  0  0
 17 18  2  0  0  0  0
 17 36  1  0  0  0  0
 18 19  1  0  0  0  0
 18 37  1  0  0  0  0
 19 20  2  0  0  0  0
 19 38  1  0  0  0  0
 20 21  1  0  0  0  0
 20 28  1  0  0  0  0
 21 22  1  0  0  0  0
 22 23  1  0  0  0  0
 22 27  1  0  0  0  0
 22 39  1  0  0  0  0
 23 24  1  0  0  0  0
 23 40  1  0  0  0  0
 23 41  1  0  0  0  0
 24 25  1  0  0  0  0
 24 42  1  0  0  0  0
 24 43  1  0  0  0  0
 25 26  1  0  0  0  0
 25 44  1  0  0  0  0
 26 27  1  0  0  0  0
 26 45  1  0  0  0  0
 26 46  1  0  0  0  0
 27 47  1  0  0  0  0
 27 48  1  0  0  0  0
 28 49  1  0  0  0  0
M  END
>  <DRUGBANK_ID>
DB08423

>  <COMMON_NAME>
[5-AMINO-1-(4-FLUOROPHENYL)-1H-PYRAZOL-4-YL][3-(PIPERIDIN-4-YLOXY)PHENYL]METHANONE

$$$$
