
 OpenBabel10282417072D

 31 31  0  0  0  0  0  0  0  0999 V2000
   -2.8652    0.0000    0.0000 C   0  0  0  0  0  0  0  0  0  0  0  0
   -2.8652   -0.8250    0.0000 C   0  0  0  0  0  0  0  0  0  0  0  0
   -2.1508   -1.2375    0.0000 C   0  0  0  0  0  0  0  0  0  0  0  0
   -1.4363   -0.8250    0.0000 C   0  0  0  0  0  0  0  0  0  0  0  0
   -1.4363    0.0000    0.0000 C   0  0  0  0  0  0  0  0  0  0  0  0
   -2.1508    0.4125    0.0000 C   0  0  0  0  0  0  0  0  0  0  0  0
   -0.7070    0.4125    0.0000 O   0  0  0  0  0  0  0  0  0  0  0  0
    0.0074    0.0000    0.0000 C   0  0  0  0  0  0  0  0  0  0  0  0
    0.7218    0.4125    0.0000 C   0  0  0  0  0  0  0  0  0  0  0  0
    1.4363    0.0000    0.0000 N   0  0  0  0  0  0  0  0  0  0  0  0
    2.1508    0.4125    0.0000 N   0  0  0  0  0  0  0  0  0  0  0  0
    2.8652    0.0000    0.0000 C   0  0  0  0  0  0  0  0  0  0  0  0
    3.5797    0.4125    0.0000 C   0  0  0  0  0  0  0  0  0  0  0  0
   -3.5797   -1.2375    0.0000 Cl  0  0  0  0  0  0  0  0  0  0  0  0
    0.7218    1.2375    0.0000 O   0  0  0  0  0  0  0  0  0  0  0  0
    2.8652   -0.8250    0.0000 C   0  0  0  0  0  0  0  0  0  0  0  0
   -3.7589    0.5160    0.0000 H   0  0  0  0  0  0  0  0  0  0  0  0
   -2.1508   -2.2695    0.0000 H   0  0  0  0  0  0  0  0  0  0  0  0
   -0.5426   -1.3410    0.0000 H   0  0  0  0  0  0  0  0  0  0  0  0
   -2.1508    1.4445    0.0000 H   0  0  0  0  0  0  0  0  0  0  0  0
    0.0074   -1.0700    0.0000 H   0  0  0  0  0  0  0  0  0  0  0  0
    0.9341   -0.5350    0.0000 H   0  0  0  0  0  0  0  0  0  0  0  0
    1.4363   -0.9845    0.0000 H   0  0  0  0  0  0  0  0  0  0  0  0
    2.1508    1.4325    0.0000 H   0  0  0  0  0  0  0  0  0  0  0  0
    3.7918   -0.5350    0.0000 H   0  0  0  0  0  0  0  0  0  0  0  0
    4.5063   -0.1225    0.0000 H   0  0  0  0  0  0  0  0  0  0  0  0
    3.5797    1.4825    0.0000 H   0  0  0  0  0  0  0  0  0  0  0  0
    4.5064    0.9475    0.0000 H   0  0  0  0  0  0  0  0  0  0  0  0
    1.9386   -1.3600    0.0000 H   0  0  0  0  0  0  0  0  0  0  0  0
    3.7918   -1.3600    0.0000 H   0  0  0  0  0  0  0  0  0  0  0  0
    2.8652   -1.8950    0.0000 H   0  0  0  0  0  0  0  0  0  0  0  0
  1  2  2  0  0  0  0
  1  6  1  0  0  0  0
  1 17  1  0  0  0  0
  2  3  1  0  0  0  0
  2 14  1  0  0  0  0
  3  4  2  0  0  0  0
  3 18  1  0  0  0  0
  4  5  1  0  0  0  0
  4 19  1  0  0  0  0
  5  6  2  0  0  0  0
  5  7  1  0  0  0  0
  6 20  1  0  0  0  0
  7  8  1  0  0  0  0
  8  9  1  0  0  0  0
  8 21  1  0  0  0  0
  8 22  1  0  0  0  0
  9 10  1  0  0  0  0
  9 15  2  0  0  0  0
 10 11  1  0  0  0  0
 10 23  1  0  0  0  0
 11 12  1  0  0  0  0
 11 24  1  0  0  0  0
 12 13  1  0  0  0  0
 12 16  1  0  0  0  0
 12 25  1  0  0  0  0
 13 26  1  0  0  0  0
 13 27  1  0  0  0  0
 13 28  1  0  0  0  0
 16 29  1  0  0  0  0
 16 30  1  0  0  0  0
 16 31  1  0  0  0  0
M  END
>  <DRUGBANK_ID>
DB09247

>  <COMMON_NAME>
Iproclozide

>  <CAS_NUMBER>
3544-35-2

>  <UNII>
1II9D6CB3J

>  <SYNONYMS>
Iproclozide

$$$$
