3DE
 OpenBabel10282417072D

 35 36  0  0  0  0  0  0  0  0999 V2000
    1.1583    0.9018    0.0000 C   0  0  0  0  0  0  0  0  0  0  0  0
    1.8728    1.3143    0.0000 O   0  0  0  0  0  0  0  0  0  0  0  0
    1.8728    2.1393    0.0000 C   0  0  0  0  0  0  0  0  0  0  0  0
    2.5873    2.5518    0.0000 C   0  0  0  0  0  0  0  0  0  0  0  0
    1.1583    0.0768    0.0000 C   0  0  0  0  0  0  0  0  0  0  0  0
    1.8258   -0.4081    0.0000 C   0  0  0  0  0  0  0  0  0  0  0  0
    1.5708   -1.1927    0.0000 N   0  3  0  0  0  0  0  0  0  0  0  0
    2.6104   -0.1532    0.0000 C   0  0  0  0  0  0  0  0  0  0  0  0
    0.4909   -0.4081    0.0000 C   0  0  0  0  0  0  0  0  0  0  0  0
   -0.2937   -0.1532    0.0000 C   0  0  0  0  0  0  0  0  0  0  0  0
    0.7458   -1.1927    0.0000 N   0  0  0  0  0  0  0  0  0  0  0  0
    0.2609   -1.8602    0.0000 C   0  0  0  0  0  0  0  0  0  0  0  0
    0.5965   -2.6138    0.0000 C   0  0  0  0  0  0  0  0  0  0  0  0
    0.1115   -3.2813    0.0000 C   0  0  0  0  0  0  0  0  0  0  0  0
   -0.7089   -3.1950    0.0000 C   0  0  0  0  0  0  0  0  0  0  0  0
   -1.0445   -2.4414    0.0000 C   0  0  0  0  0  0  0  0  0  0  0  0
   -0.5596   -1.7739    0.0000 C   0  0  0  0  0  0  0  0  0  0  0  0
    0.4438    1.3143    0.0000 O   0  0  0  0  0  0  0  0  0  0  0  0
    0.9462    2.6743    0.0000 H   0  0  0  0  0  0  0  0  0  0  0  0
    1.8728    3.2093    0.0000 H   0  0  0  0  0  0  0  0  0  0  0  0
    3.5139    2.0168    0.0000 H   0  0  0  0  0  0  0  0  0  0  0  0
    2.5873    3.6218    0.0000 H   0  0  0  0  0  0  0  0  0  0  0  0
    3.5140    3.0868    0.0000 H   0  0  0  0  0  0  0  0  0  0  0  0
    2.1494   -1.9892    0.0000 H   0  0  0  0  0  0  0  0  0  0  0  0
    3.4055   -0.8692    0.0000 H   0  0  0  0  0  0  0  0  0  0  0  0
    2.8329    0.8934    0.0000 H   0  0  0  0  0  0  0  0  0  0  0  0
    3.6280    0.1774    0.0000 H   0  0  0  0  0  0  0  0  0  0  0  0
   -0.5162    0.8934    0.0000 H   0  0  0  0  0  0  0  0  0  0  0  0
   -1.0888   -0.8692    0.0000 H   0  0  0  0  0  0  0  0  0  0  0  0
   -1.3113    0.1774    0.0000 H   0  0  0  0  0  0  0  0  0  0  0  0
    1.6228   -2.7216    0.0000 H   0  0  0  0  0  0  0  0  0  0  0  0
    0.5312   -4.2241    0.0000 H   0  0  0  0  0  0  0  0  0  0  0  0
   -1.3155   -4.0299    0.0000 H   0  0  0  0  0  0  0  0  0  0  0  0
   -2.0709   -2.3336    0.0000 H   0  0  0  0  0  0  0  0  0  0  0  0
   -0.9793   -0.8311    0.0000 H   0  0  0  0  0  0  0  0  0  0  0  0
  1  2  1  0  0  0  0
  1  5  1  0  0  0  0
  1 18  2  0  0  0  0
  2  3  1  0  0  0  0
  3  4  1  0  0  0  0
  3 19  1  0  0  0  0
  3 20  1  0  0  0  0
  4 21  1  0  0  0  0
  4 22  1  0  0  0  0
  4 23  1  0  0  0  0
  5  6  1  0  0  0  0
  5  9  2  0  0  0  0
  6  7  2  0  0  0  0
  6  8  1  0  0  0  0
  7 11  1  0  0  0  0
  7 24  1  0  0  0  0
  8 25  1  0  0  0  0
  8 26  1  0  0  0  0
  8 27  1  0  0  0  0
  9 10  1  0  0  0  0
  9 11  1  0  0  0  0
 10 28  1  0  0  0  0
 10 29  1  0  0  0  0
 10 30  1  0  0  0  0
 11 12  1  0  0  0  0
 12 13  2  0  0  0  0
 12 17  1  0  0  0  0
 13 14  1  0  0  0  0
 13 31  1  0  0  0  0
 14 15  2  0  0  0  0
 14 32  1  0  0  0  0
 15 16  1  0  0  0  0
 15 33  1  0  0  0  0
 16 17  2  0  0  0  0
 16 34  1  0  0  0  0
 17 35  1  0  0  0  0
M  CHG  1   7   1
M  END
>  <DRUGBANK_ID>
DB07051

>  <COMMON_NAME>
3,5-DIMETHYL-1-PHENYL-1H-PYRAZOLE-4-CARBOXYLIC ACID ETHYL ESTER

$$$$
