
 OpenBabel10282417072D

 25 25  0  0  0  0  0  0  0  0999 V2000
   -0.8958   -1.2375    0.0000 C   0  0  0  0  0  0  0  0  0  0  0  0
   -0.1813   -0.8250    0.0000 C   0  0  0  0  0  0  0  0  0  0  0  0
   -1.6102   -0.8250    0.0000 C   0  0  0  0  0  0  0  0  0  0  0  0
   -0.1813    0.0000    0.0000 C   0  0  0  0  0  0  0  0  0  0  0  0
   -1.6102    0.0000    0.0000 C   0  0  0  0  0  0  0  0  0  0  0  0
   -0.8958    0.4125    0.0000 C   0  0  0  0  0  0  0  0  0  0  0  0
   -2.3247    0.4125    0.0000 C   0  0  0  0  0  0  0  0  0  0  0  0
   -0.8958    1.2375    0.0000 O   0  0  0  0  0  0  0  0  0  0  0  0
   -3.0392    0.0000    0.0000 O   0  0  0  0  0  0  0  0  0  0  0  0
   -2.3247    1.2375    0.0000 O   0  0  0  0  0  0  0  0  0  0  0  0
    3.0392    0.2581    0.0000 C   0  0  0  0  0  0  0  0  0  0  0  0
    2.3717    0.7430    0.0000 C   0  0  0  0  0  0  0  0  0  0  0  0
    1.9592   -0.5265    0.0000 C   0  0  0  0  0  0  0  0  0  0  0  0
    2.7842   -0.5265    0.0000 N   0  0  0  0  0  0  0  0  0  0  0  0
    1.7043    0.2581    0.0000 N   0  0  0  0  0  0  0  0  0  0  0  0
   -0.8958   -2.2695    0.0000 H   0  0  0  0  0  0  0  0  0  0  0  0
    0.7124   -1.3410    0.0000 H   0  0  0  0  0  0  0  0  0  0  0  0
   -2.5039   -1.3410    0.0000 H   0  0  0  0  0  0  0  0  0  0  0  0
    0.7124    0.5160    0.0000 H   0  0  0  0  0  0  0  0  0  0  0  0
   -0.0843    1.7060    0.0000 H   0  0  0  0  0  0  0  0  0  0  0  0
   -1.5132    1.7060    0.0000 H   0  0  0  0  0  0  0  0  0  0  0  0
    4.0207    0.5770    0.0000 H   0  0  0  0  0  0  0  0  0  0  0  0
    2.3717    1.7750    0.0000 H   0  0  0  0  0  0  0  0  0  0  0  0
    1.3526   -1.3614    0.0000 H   0  0  0  0  0  0  0  0  0  0  0  0
    0.7680    0.5623    0.0000 H   0  0  0  0  0  0  0  0  0  0  0  0
  1 16  1  0  0  0  0
  2  1  2  0  0  0  0
  2 17  1  0  0  0  0
  3  1  1  0  0  0  0
  3 18  1  0  0  0  0
  4  2  1  0  0  0  0
  4 19  1  0  0  0  0
  5  3  2  0  0  0  0
  6  4  2  0  0  0  0
  6  5  1  0  0  0  0
  7  5  1  0  0  0  0
  8  6  1  0  0  0  0
  8 20  1  0  0  0  0
  9  7  2  0  0  0  0
 10  7  1  0  0  0  0
 10 21  1  0  0  0  0
 11 22  1  0  0  0  0
 12 11  2  0  0  0  0
 12 23  1  0  0  0  0
 13 24  1  0  0  0  0
 14 11  1  0  0  0  0
 14 13  2  0  0  0  0
 15 12  1  0  0  0  0
 15 13  1  0  0  0  0
 15 25  1  0  0  0  0
M  END
>  <DRUGBANK_ID>
DB13860

>  <COMMON_NAME>
Imidazole salicylate

>  <CAS_NUMBER>
36364-49-5

>  <UNII>
4JVD4X01MJ

>  <SYNONYMS>
Imidazole salicylate; Imidazole-2-hydroxybenzoate; Imidazoli salicylas; Imidazolsalicylat; Salicilato de imidazol

$$$$
