
 OpenBabel10282417072D

 27 27  0  0  0  0  0  0  0  0999 V2000
   -3.2151    0.4677    0.0000 C   0  0  0  0  0  0  0  0  0  0  0  0
   -2.5006    0.0552    0.0000 C   0  0  0  0  0  0  0  0  0  0  0  0
   -1.7861    0.4677    0.0000 C   0  0  0  0  0  0  0  0  0  0  0  0
   -1.0717    0.0552    0.0000 C   0  0  0  0  0  0  0  0  0  0  0  0
   -0.3572    0.4677    0.0000 N   0  0  0  0  0  0  0  0  0  0  0  0
    0.3572    0.0552    0.0000 C   0  0  0  0  0  0  0  0  0  0  0  0
    1.0717    0.4677    0.0000 C   0  0  0  0  0  0  0  0  0  0  0  0
    1.7861    0.0552    0.0000 C   0  0  0  0  0  0  0  0  0  0  0  0
    2.5006    0.4677    0.0000 C   0  0  0  0  0  0  0  0  0  0  0  0
    3.2151    0.8802    0.0000 F   0  0  0  0  0  0  0  0  0  0  0  0
    2.9131   -0.2467    0.0000 F   0  0  0  0  0  0  0  0  0  0  0  0
    2.0881    1.1822    0.0000 F   0  0  0  0  0  0  0  0  0  0  0  0
    1.7861   -0.7697    0.0000 C   0  0  0  0  0  0  0  0  0  0  0  0
    1.0717   -1.1822    0.0000 C   0  0  0  0  0  0  0  0  0  0  0  0
    0.3572   -0.7697    0.0000 C   0  0  0  0  0  0  0  0  0  0  0  0
    2.5006   -1.1822    0.0000 Cl  0  0  0  0  0  0  0  0  0  0  0  0
   -1.0717   -0.7697    0.0000 O   0  0  0  0  0  0  0  0  0  0  0  0
   -2.5006   -0.7697    0.0000 O   0  0  0  0  0  0  0  0  0  0  0  0
   -3.2151    1.5377    0.0000 H   0  0  0  0  0  0  0  0  0  0  0  0
   -4.1417   -0.0673    0.0000 H   0  0  0  0  0  0  0  0  0  0  0  0
   -4.1418    1.0027    0.0000 H   0  0  0  0  0  0  0  0  0  0  0  0
   -1.7861    1.5377    0.0000 H   0  0  0  0  0  0  0  0  0  0  0  0
   -0.8594    1.0027    0.0000 H   0  0  0  0  0  0  0  0  0  0  0  0
   -0.3572    1.4522    0.0000 H   0  0  0  0  0  0  0  0  0  0  0  0
    1.0717    1.4997    0.0000 H   0  0  0  0  0  0  0  0  0  0  0  0
    1.0717   -2.2142    0.0000 H   0  0  0  0  0  0  0  0  0  0  0  0
   -0.5365   -1.2857    0.0000 H   0  0  0  0  0  0  0  0  0  0  0  0
  1  2  1  0  0  0  0
  1 19  1  0  0  0  0
  1 20  1  0  0  0  0
  1 21  1  0  0  0  0
  2  3  1  0  0  0  0
  2 18  2  0  0  0  0
  3  4  1  0  0  0  0
  3 22  1  0  0  0  0
  3 23  1  0  0  0  0
  4  5  1  0  0  0  0
  4 17  2  0  0  0  0
  5  6  1  0  0  0  0
  5 24  1  0  0  0  0
  6  7  2  0  0  0  0
  6 15  1  0  0  0  0
  7  8  1  0  0  0  0
  7 25  1  0  0  0  0
  8  9  1  0  0  0  0
  8 13  2  0  0  0  0
  9 10  1  0  0  0  0
  9 11  1  0  0  0  0
  9 12  1  0  0  0  0
 13 14  1  0  0  0  0
 13 16  1  0  0  0  0
 14 15  2  0  0  0  0
 14 26  1  0  0  0  0
 15 27  1  0  0  0  0
M  END
>  <DRUGBANK_ID>
DB16759

>  <COMMON_NAME>
Fasentin

>  <CAS_NUMBER>
392721-37-8

$$$$
