FSB
 OpenBabel10282417072D

 34 35  0  0  0  0  0  0  0  0999 V2000
    0.7326   -0.6598    0.0000 C   0  0  0  0  0  0  0  0  0  0  0  0
    1.4471   -1.0723    0.0000 C   0  0  0  0  0  0  0  0  0  0  0  0
    1.4471   -1.8973    0.0000 C   0  0  0  0  0  0  0  0  0  0  0  0
    0.7326   -2.3098    0.0000 C   0  0  0  0  0  0  0  0  0  0  0  0
    0.0181   -1.8973    0.0000 C   0  0  0  0  0  0  0  0  0  0  0  0
    0.0181   -1.0723    0.0000 C   0  0  0  0  0  0  0  0  0  0  0  0
   -0.6963   -0.6598    0.0000 C   0  0  0  0  0  0  0  0  0  0  0  0
   -1.4108   -1.0723    0.0000 O   0  0  0  0  0  0  0  0  0  0  0  0
   -0.6963    0.1652    0.0000 N   0  0  0  0  0  0  0  0  0  0  0  0
   -1.4108    0.5777    0.0000 C   0  0  0  0  0  0  0  0  0  0  0  0
    2.1615   -2.3098    0.0000 S   0  0  0  0  0  0  0  0  0  0  0  0
    2.8760   -2.7223    0.0000 N   0  0  0  0  0  0  0  0  0  0  0  0
    2.5740   -1.5953    0.0000 O   0  0  0  0  0  0  0  0  0  0  0  0
    1.7490   -3.0242    0.0000 O   0  0  0  0  0  0  0  0  0  0  0  0
   -1.4108    1.4027    0.0000 C   0  0  0  0  0  0  0  0  0  0  0  0
   -2.1253    1.8152    0.0000 C   0  0  0  0  0  0  0  0  0  0  0  0
   -2.1253    2.6402    0.0000 C   0  0  0  0  0  0  0  0  0  0  0  0
   -1.4108    3.0527    0.0000 C   0  0  0  0  0  0  0  0  0  0  0  0
   -0.6963    2.6402    0.0000 C   0  0  0  0  0  0  0  0  0  0  0  0
   -0.6963    1.8152    0.0000 C   0  0  0  0  0  0  0  0  0  0  0  0
    0.0181    1.4027    0.0000 F   0  0  0  0  0  0  0  0  0  0  0  0
    0.7326    0.3722    0.0000 H   0  0  0  0  0  0  0  0  0  0  0  0
    2.3408   -0.5563    0.0000 H   0  0  0  0  0  0  0  0  0  0  0  0
    0.7326   -3.3418    0.0000 H   0  0  0  0  0  0  0  0  0  0  0  0
   -0.8756   -2.4133    0.0000 H   0  0  0  0  0  0  0  0  0  0  0  0
    0.1563    0.6575    0.0000 H   0  0  0  0  0  0  0  0  0  0  0  0
   -2.3374    0.0427    0.0000 H   0  0  0  0  0  0  0  0  0  0  0  0
   -2.3374    1.1127    0.0000 H   0  0  0  0  0  0  0  0  0  0  0  0
    2.8760   -3.7423    0.0000 H   0  0  0  0  0  0  0  0  0  0  0  0
    3.7593   -2.2123    0.0000 H   0  0  0  0  0  0  0  0  0  0  0  0
   -3.0190    1.2992    0.0000 H   0  0  0  0  0  0  0  0  0  0  0  0
   -3.0190    3.1562    0.0000 H   0  0  0  0  0  0  0  0  0  0  0  0
   -1.4108    4.0847    0.0000 H   0  0  0  0  0  0  0  0  0  0  0  0
    0.1974    3.1562    0.0000 H   0  0  0  0  0  0  0  0  0  0  0  0
  1  2  2  0  0  0  0
  1  6  1  0  0  0  0
  1 22  1  0  0  0  0
  2  3  1  0  0  0  0
  2 23  1  0  0  0  0
  3  4  2  0  0  0  0
  3 11  1  0  0  0  0
  4  5  1  0  0  0  0
  4 24  1  0  0  0  0
  5  6  2  0  0  0  0
  5 25  1  0  0  0  0
  6  7  1  0  0  0  0
  7  8  2  0  0  0  0
  7  9  1  0  0  0  0
  9 10  1  0  0  0  0
  9 26  1  0  0  0  0
 10 15  1  0  0  0  0
 10 27  1  0  0  0  0
 10 28  1  0  0  0  0
 11 12  1  0  0  0  0
 11 13  2  0  0  0  0
 11 14  2  0  0  0  0
 12 29  1  0  0  0  0
 12 30  1  0  0  0  0
 15 16  2  0  0  0  0
 15 20  1  0  0  0  0
 16 17  1  0  0  0  0
 16 31  1  0  0  0  0
 17 18  2  0  0  0  0
 17 32  1  0  0  0  0
 18 19  1  0  0  0  0
 18 33  1  0  0  0  0
 19 20  2  0  0  0  0
 19 34  1  0  0  0  0
 20 21  1  0  0  0  0
M  END
>  <DRUGBANK_ID>
DB02069

>  <SECONDARY_ACCESSION_NUMBERS>
EXPT01497

>  <COMMON_NAME>
N-(2-Flouro-Benzyl)-4-Sulfamoyl-Benzamide

$$$$
