
 OpenBabel10282417072D

 33 34  0  0  0  0  0  0  0  0999 V2000
    2.5007    2.6813    0.0000 Br  0  0  0  0  0  0  0  0  0  0  0  0
    0.3572   -2.6813    0.0000 F   0  0  0  0  0  0  0  0  0  0  0  0
   -1.7861    0.2062    0.0000 O   0  0  0  0  0  0  0  0  0  0  0  0
   -2.5007   -1.0312    0.0000 O   0  0  0  0  0  0  0  0  0  0  0  0
   -0.3572    0.2062    0.0000 N   0  0  0  0  0  0  0  0  0  0  0  0
   -0.3572    1.0312    0.0000 C   0  0  1  0  0  0  0  0  0  0  0  0
    0.3572    1.4437    0.0000 C   0  0  0  0  0  0  0  0  0  0  0  0
   -1.0716    1.4437    0.0000 C   0  0  0  0  0  0  0  0  0  0  0  0
    0.3572    2.2687    0.0000 C   0  0  0  0  0  0  0  0  0  0  0  0
    1.0717    1.0312    0.0000 C   0  0  0  0  0  0  0  0  0  0  0  0
   -1.0716   -0.2062    0.0000 C   0  0  0  0  0  0  0  0  0  0  0  0
   -1.0716   -1.0312    0.0000 C   0  0  0  0  0  0  0  0  0  0  0  0
    1.0717    2.6813    0.0000 C   0  0  0  0  0  0  0  0  0  0  0  0
    1.7862    1.4437    0.0000 C   0  0  0  0  0  0  0  0  0  0  0  0
   -1.7861   -1.4437    0.0000 C   0  0  0  0  0  0  0  0  0  0  0  0
    1.7862    2.2687    0.0000 C   0  0  0  0  0  0  0  0  0  0  0  0
   -0.3572   -1.4437    0.0000 C   0  0  0  0  0  0  0  0  0  0  0  0
   -1.7861   -2.2687    0.0000 C   0  0  0  0  0  0  0  0  0  0  0  0
   -0.3572   -2.2687    0.0000 C   0  0  0  0  0  0  0  0  0  0  0  0
   -1.0716   -2.6813    0.0000 C   0  0  0  0  0  0  0  0  0  0  0  0
    0.0857   -0.0495    0.0000 H   0  0  0  0  0  0  0  0  0  0  0  0
   -2.5008   -0.0942    0.0000 H   0  0  0  0  0  0  0  0  0  0  0  0
    0.5695    0.4962    0.0000 H   0  0  0  0  0  0  0  0  0  0  0  0
   -1.0716    2.5137    0.0000 H   0  0  0  0  0  0  0  0  0  0  0  0
   -1.9983    0.9087    0.0000 H   0  0  0  0  0  0  0  0  0  0  0  0
   -1.9982    1.9787    0.0000 H   0  0  0  0  0  0  0  0  0  0  0  0
   -0.5366    2.7847    0.0000 H   0  0  0  0  0  0  0  0  0  0  0  0
    1.0717   -0.0008    0.0000 H   0  0  0  0  0  0  0  0  0  0  0  0
    1.0717    3.7133    0.0000 H   0  0  0  0  0  0  0  0  0  0  0  0
    2.6799    0.9277    0.0000 H   0  0  0  0  0  0  0  0  0  0  0  0
    0.5365   -0.9277    0.0000 H   0  0  0  0  0  0  0  0  0  0  0  0
   -2.6799   -2.7847    0.0000 H   0  0  0  0  0  0  0  0  0  0  0  0
   -1.0716   -3.7133    0.0000 H   0  0  0  0  0  0  0  0  0  0  0  0
  1 16  1  0  0  0  0
  2 19  1  0  0  0  0
  3 11  2  0  0  0  0
  4 15  1  0  0  0  0
  4 22  1  0  0  0  0
  5 11  1  0  0  0  0
  5 21  1  0  0  0  0
  6  5  1  0  0  0  0
  6  7  1  0  0  0  0
  6  8  1  0  0  0  0
  6 23  1  1  0  0  0
  7  9  2  0  0  0  0
  7 10  1  0  0  0  0
  8 24  1  0  0  0  0
  8 25  1  0  0  0  0
  8 26  1  0  0  0  0
  9 13  1  0  0  0  0
  9 27  1  0  0  0  0
 10 14  2  0  0  0  0
 10 28  1  0  0  0  0
 11 12  1  0  0  0  0
 12 15  2  0  0  0  0
 12 17  1  0  0  0  0
 13 16  2  0  0  0  0
 13 29  1  0  0  0  0
 14 16  1  0  0  0  0
 14 30  1  0  0  0  0
 15 18  1  0  0  0  0
 17 19  2  0  0  0  0
 17 31  1  0  0  0  0
 18 20  2  0  0  0  0
 18 32  1  0  0  0  0
 19 20  1  0  0  0  0
 20 33  1  0  0  0  0
M  END
>  <DRUGBANK_ID>
DB02880

>  <SECONDARY_ACCESSION_NUMBERS>
EXPT00680

>  <COMMON_NAME>
N-[(1R)-1-(4-Bromophenyl)ethyl]-5-fluoro-2-hydroxybenzamide

>  <CAS_NUMBER>
163669-81-6

$$$$
