
 OpenBabel10282417072D

104110  0  0  0  0  0  0  0  0999 V2000
    1.4685   -1.7281    0.0000 C   0  0  1  0  0  0  0  0  0  0  0  0
    2.1571   -1.2978    0.0000 C   0  0  0  0  0  0  0  0  0  0  0  0
    2.8887   -1.7281    0.0000 N   0  0  0  0  0  0  0  0  0  0  0  0
    2.1571   -0.4370    0.0000 O   0  0  0  0  0  0  0  0  0  0  0  0
    1.0381   -2.4598    0.0000 C   0  0  0  0  0  0  0  0  0  0  0  0
    1.8559   -2.4598    0.0000 C   0  0  1  0  0  0  0  0  0  0  0  0
    3.6634   -1.2978    0.0000 S   0  0  0  0  0  0  0  0  0  0  0  0
    4.3949   -1.7281    0.0000 C   0  0  0  0  0  0  0  0  0  0  0  0
    4.0938   -0.5661    0.0000 O   0  0  0  0  0  0  0  0  0  0  0  0
    3.2331   -0.5661    0.0000 O   0  0  0  0  0  0  0  0  0  0  0  0
    4.8255   -2.4598    0.0000 C   0  0  0  0  0  0  0  0  0  0  0  0
    5.2558   -1.7281    0.0000 C   0  0  0  0  0  0  0  0  0  0  0  0
    2.6306   -2.8903    0.0000 C   0  0  0  0  0  0  0  0  0  0  0  0
    3.3191   -2.4598    0.0000 C   0  0  0  0  0  0  0  0  0  0  0  0
   -4.5413    2.5191    0.0000 C   0  0  1  0  0  0  0  0  0  0  0  0
   -3.6341    2.8902    0.0000 C   0  0  0  0  0  0  0  0  0  0  0  0
   -2.9198    2.4776    0.0000 C   0  0  0  0  0  0  0  0  0  0  0  0
   -2.2053    2.8902    0.0000 C   0  0  0  0  0  0  0  0  0  0  0  0
   -1.4910    2.4776    0.0000 C   0  0  0  0  0  0  0  0  0  0  0  0
   -0.7767    2.8902    0.0000 C   0  0  0  0  0  0  0  0  0  0  0  0
   -0.0625    2.4776    0.0000 C   0  0  0  0  0  0  0  0  0  0  0  0
   -0.0625    1.6531    0.0000 C   0  0  0  0  0  0  0  0  0  0  0  0
    0.6519    1.2407    0.0000 N   0  0  0  0  0  0  0  0  0  0  0  0
    1.3662    1.6531    0.0000 C   0  0  0  0  0  0  0  0  0  0  0  0
    1.3662    2.4777    0.0000 C   0  0  0  0  0  0  0  0  0  0  0  0
    0.6519    2.8902    0.0000 N   0  0  0  0  0  0  0  0  0  0  0  0
    2.0805    1.2408    0.0000 C   0  0  0  0  0  0  0  0  0  0  0  0
    2.7950    1.6532    0.0000 C   0  0  0  0  0  0  0  0  0  0  0  0
    2.7949    2.4777    0.0000 C   0  0  0  0  0  0  0  0  0  0  0  0
    2.0805    2.8903    0.0000 C   0  0  0  0  0  0  0  0  0  0  0  0
   -4.5413    1.6941    0.0000 C   0  0  1  0  0  0  0  0  0  0  0  0
   -5.2558    2.1065    0.0000 C   0  0  0  0  0  0  0  0  0  0  0  0
   -3.8271    1.2817    0.0000 O   0  0  0  0  0  0  0  0  0  0  0  0
   -3.8271    0.4569    0.0000 C   0  0  0  0  0  0  0  0  0  0  0  0
   -3.2437   -0.1263    0.0000 N   0  0  0  0  0  0  0  0  0  0  0  0
   -4.5413    0.0443    0.0000 O   0  0  0  0  0  0  0  0  0  0  0  0
   -3.2437   -0.9513    0.0000 C   0  0  2  0  0  0  0  0  0  0  0  0
   -0.8979    1.1565    0.0000 O   0  0  0  0  0  0  0  0  0  0  0  0
   -2.5294   -1.3636    0.0000 C   0  0  0  0  0  0  0  0  0  0  0  0
   -2.5294   -2.1884    0.0000 O   0  0  0  0  0  0  0  0  0  0  0  0
    3.5093    1.2408    0.0000 O   0  0  0  0  0  0  0  0  0  0  0  0
    3.5093    0.4159    0.0000 C   0  0  0  0  0  0  0  0  0  0  0  0
   -1.5775   -0.1221    0.0000 C   0  0  0  0  0  0  0  0  0  0  0  0
   -1.5775   -0.9634    0.0000 N   0  0  0  0  0  0  0  0  0  0  0  0
   -0.8699   -1.2541    0.0000 C   0  0  1  0  0  0  0  0  0  0  0  0
   -0.2831   -0.5427    0.0000 C   0  0  0  0  0  0  0  0  0  0  0  0
   -0.7775    0.1376    0.0000 C   0  0  1  0  0  0  0  0  0  0  0  0
   -0.0343   -1.7950    0.0000 C   0  0  0  0  0  0  0  0  0  0  0  0
    0.6799   -1.3826    0.0000 N   0  0  0  0  0  0  0  0  0  0  0  0
   -0.0343   -2.6361    0.0000 O   0  0  0  0  0  0  0  0  0  0  0  0
   -3.9784   -1.3754    0.0000 C   0  0  0  0  0  0  0  0  0  0  0  0
   -4.7130   -0.9514    0.0000 C   0  0  0  0  0  0  0  0  0  0  0  0
   -3.9784   -2.2237    0.0000 C   0  0  0  0  0  0  0  0  0  0  0  0
   -4.7130   -1.7996    0.0000 C   0  0  0  0  0  0  0  0  0  0  0  0
    2.8766   -2.7125    0.0000 H   0  0  0  0  0  0  0  0  0  0  0  0
    0.1093   -2.9910    0.0000 H   0  0  0  0  0  0  0  0  0  0  0  0
    1.3129   -3.4939    0.0000 H   0  0  0  0  0  0  0  0  0  0  0  0
    2.6201   -1.7109    0.0000 H   0  0  0  0  0  0  0  0  0  0  0  0
    5.3238   -2.2592    0.0000 H   0  0  0  0  0  0  0  0  0  0  0  0
    4.8257   -3.5298    0.0000 H   0  0  0  0  0  0  0  0  0  0  0  0
    5.8579   -2.7408    0.0000 H   0  0  0  0  0  0  0  0  0  0  0  0
    6.1846   -1.1968    0.0000 H   0  0  0  0  0  0  0  0  0  0  0  0
    6.0078   -2.4892    0.0000 H   0  0  0  0  0  0  0  0  0  0  0  0
    2.6572   -3.9220    0.0000 H   0  0  0  0  0  0  0  0  0  0  0  0
    4.2304   -2.9440    0.0000 H   0  0  0  0  0  0  0  0  0  0  0  0
    3.2828   -1.4284    0.0000 H   0  0  0  0  0  0  0  0  0  0  0  0
   -3.6529    1.9227    0.0000 H   0  0  0  0  0  0  0  0  0  0  0  0
   -3.5617    3.9577    0.0000 H   0  0  0  0  0  0  0  0  0  0  0  0
   -4.5017    3.5164    0.0000 H   0  0  0  0  0  0  0  0  0  0  0  0
   -2.9199    1.4076    0.0000 H   0  0  0  0  0  0  0  0  0  0  0  0
   -1.9931    1.9426    0.0000 H   0  0  0  0  0  0  0  0  0  0  0  0
   -2.2052    3.9602    0.0000 H   0  0  0  0  0  0  0  0  0  0  0  0
   -1.2786    3.4251    0.0000 H   0  0  0  0  0  0  0  0  0  0  0  0
   -1.4910    1.4076    0.0000 H   0  0  0  0  0  0  0  0  0  0  0  0
   -0.5643    1.9427    0.0000 H   0  0  0  0  0  0  0  0  0  0  0  0
   -0.7767    3.9602    0.0000 H   0  0  0  0  0  0  0  0  0  0  0  0
    0.1500    3.4251    0.0000 H   0  0  0  0  0  0  0  0  0  0  0  0
    2.0805    0.2088    0.0000 H   0  0  0  0  0  0  0  0  0  0  0  0
    3.6886    2.9937    0.0000 H   0  0  0  0  0  0  0  0  0  0  0  0
    2.0805    3.9223    0.0000 H   0  0  0  0  0  0  0  0  0  0  0  0
   -3.6146    2.2291    0.0000 H   0  0  0  0  0  0  0  0  0  0  0  0
   -6.3258    2.1064    0.0000 H   0  0  0  0  0  0  0  0  0  0  0  0
   -5.5326    1.0729    0.0000 H   0  0  0  0  0  0  0  0  0  0  0  0
   -2.3342    0.2505    0.0000 H   0  0  0  0  0  0  0  0  0  0  0  0
   -4.1703   -0.4163    0.0000 H   0  0  0  0  0  0  0  0  0  0  0  0
    2.5827   -0.1191    0.0000 H   0  0  0  0  0  0  0  0  0  0  0  0
    4.4359   -0.1191    0.0000 H   0  0  0  0  0  0  0  0  0  0  0  0
    3.5093   -0.6541    0.0000 H   0  0  0  0  0  0  0  0  0  0  0  0
   -2.4431    0.5069    0.0000 H   0  0  0  0  0  0  0  0  0  0  0  0
   -1.4099    0.9347    0.0000 H   0  0  0  0  0  0  0  0  0  0  0  0
   -1.3660   -2.2021    0.0000 H   0  0  0  0  0  0  0  0  0  0  0  0
    0.7864   -0.5755    0.0000 H   0  0  0  0  0  0  0  0  0  0  0  0
    0.2172    0.4032    0.0000 H   0  0  0  0  0  0  0  0  0  0  0  0
    0.2189    0.5276    0.0000 H   0  0  0  0  0  0  0  0  0  0  0  0
    0.6254   -0.3996    0.0000 H   0  0  0  0  0  0  0  0  0  0  0  0
   -4.7131    0.1186    0.0000 H   0  0  0  0  0  0  0  0  0  0  0  0
   -5.6396   -1.4865    0.0000 H   0  0  0  0  0  0  0  0  0  0  0  0
   -5.6397   -0.4165    0.0000 H   0  0  0  0  0  0  0  0  0  0  0  0
   -4.9050   -2.7587    0.0000 H   0  0  0  0  0  0  0  0  0  0  0  0
   -3.0518   -2.7587    0.0000 H   0  0  0  0  0  0  0  0  0  0  0  0
   -3.9784   -3.2937    0.0000 H   0  0  0  0  0  0  0  0  0  0  0  0
   -5.6397   -1.2647    0.0000 H   0  0  0  0  0  0  0  0  0  0  0  0
   -4.7129   -2.8696    0.0000 H   0  0  0  0  0  0  0  0  0  0  0  0
   -5.6396   -2.3347    0.0000 H   0  0  0  0  0  0  0  0  0  0  0  0
  1  2  1  6  0  0  0
  1  5  1  0  0  0  0
  1  6  1  0  0  0  0
  1 49  1  0  0  0  0
  2  3  1  0  0  0  0
  2  4  2  0  0  0  0
  3  7  1  0  0  0  0
  3 55  1  0  0  0  0
  5  6  1  0  0  0  0
  5 56  1  0  0  0  0
  5 57  1  0  0  0  0
  6 13  1  0  0  0  0
  6 58  1  1  0  0  0
  7  8  1  0  0  0  0
  7  9  2  0  0  0  0
  7 10  2  0  0  0  0
  8 11  1  0  0  0  0
  8 12  1  0  0  0  0
  8 59  1  0  0  0  0
 11 60  1  0  0  0  0
 11 61  1  0  0  0  0
 12 11  1  0  0  0  0
 12 62  1  0  0  0  0
 12 63  1  0  0  0  0
 13 14  2  0  0  0  0
 13 64  1  0  0  0  0
 14 65  1  0  0  0  0
 14 66  1  0  0  0  0
 15 16  1  0  0  0  0
 15 31  1  0  0  0  0
 15 32  1  0  0  0  0
 15 67  1  6  0  0  0
 16 17  1  0  0  0  0
 16 68  1  0  0  0  0
 16 69  1  0  0  0  0
 17 18  1  0  0  0  0
 17 70  1  0  0  0  0
 17 71  1  0  0  0  0
 18 19  1  0  0  0  0
 18 72  1  0  0  0  0
 18 73  1  0  0  0  0
 19 20  1  0  0  0  0
 19 74  1  0  0  0  0
 19 75  1  0  0  0  0
 20 21  1  0  0  0  0
 20 76  1  0  0  0  0
 20 77  1  0  0  0  0
 21 22  2  0  0  0  0
 21 26  1  0  0  0  0
 22 23  1  0  0  0  0
 22 38  1  0  0  0  0
 23 24  2  0  0  0  0
 24 25  1  0  0  0  0
 24 27  1  0  0  0  0
 25 26  2  0  0  0  0
 25 30  1  0  0  0  0
 27 28  2  0  0  0  0
 27 78  1  0  0  0  0
 28 29  1  0  0  0  0
 28 41  1  0  0  0  0
 29 30  2  0  0  0  0
 29 79  1  0  0  0  0
 30 80  1  0  0  0  0
 31 33  1  0  0  0  0
 31 81  1  1  0  0  0
 32 31  1  0  0  0  0
 32 82  1  0  0  0  0
 32 83  1  0  0  0  0
 33 34  1  0  0  0  0
 34 35  1  0  0  0  0
 34 36  2  0  0  0  0
 35 37  1  0  0  0  0
 35 84  1  0  0  0  0
 37 39  1  0  0  0  0
 37 51  1  0  0  0  0
 37 85  1  1  0  0  0
 39 40  2  0  0  0  0
 39 44  1  0  0  0  0
 41 42  1  0  0  0  0
 42 86  1  0  0  0  0
 42 87  1  0  0  0  0
 42 88  1  0  0  0  0
 43 44  1  0  0  0  0
 43 47  1  0  0  0  0
 43 89  1  0  0  0  0
 43 90  1  0  0  0  0
 44 45  1  0  0  0  0
 45 46  1  0  0  0  0
 45 48  1  0  0  0  0
 45 91  1  6  0  0  0
 46 47  1  0  0  0  0
 46 92  1  0  0  0  0
 46 93  1  0  0  0  0
 47 38  1  0  0  0  0
 47 94  1  1  0  0  0
 48 49  1  0  0  0  0
 48 50  2  0  0  0  0
 49 95  1  0  0  0  0
 51 52  1  0  0  0  0
 51 53  1  0  0  0  0
 51 54  1  0  0  0  0
 52 96  1  0  0  0  0
 52 97  1  0  0  0  0
 52 98  1  0  0  0  0
 53 99  1  0  0  0  0
 53100  1  0  0  0  0
 53101  1  0  0  0  0
 54102  1  0  0  0  0
 54103  1  0  0  0  0
 54104  1  0  0  0  0
M  END
>  <DRUGBANK_ID>
DB11575

>  <COMMON_NAME>
Grazoprevir

>  <CAS_NUMBER>
1350514-68-9

>  <UNII>
8YE81R1X1J

>  <SYNONYMS>
Grazoprevir; Grazoprevir anhydrous

$$$$
