BJI
 OpenBabel10282417072D

 32 32  0  0  0  0  0  0  0  0999 V2000
   -0.3829    0.1278    0.0000 C   0  0  0  0  0  0  0  0  0  0  0  0
   -0.3829   -0.6972    0.0000 C   0  0  2  0  0  0  0  0  0  0  0  0
   -1.0973   -1.1097    0.0000 N   0  0  0  0  0  0  0  0  0  0  0  0
   -1.0973   -1.9347    0.0000 C   0  0  0  0  0  0  0  0  0  0  0  0
   -1.8118   -2.3472    0.0000 C   0  0  0  0  0  0  0  0  0  0  0  0
   -0.3829   -2.3472    0.0000 O   0  0  0  0  0  0  0  0  0  0  0  0
    1.0461    2.6028    0.0000 C   0  0  0  0  0  0  0  0  0  0  0  0
    0.3316    3.0153    0.0000 O   0  0  0  0  0  0  0  0  0  0  0  0
    1.7605    3.0153    0.0000 O   0  0  0  0  0  0  0  0  0  0  0  0
    0.3316   -1.1097    0.0000 B   0  0  0  0  0  0  0  0  0  0  0  0
    1.0461   -0.6972    0.0000 O   0  0  0  0  0  0  0  0  0  0  0  0
    1.0461    0.1278    0.0000 C   0  0  0  0  0  0  0  0  0  0  0  0
    0.3316    0.5403    0.0000 C   0  0  0  0  0  0  0  0  0  0  0  0
    1.7605    0.5403    0.0000 C   0  0  0  0  0  0  0  0  0  0  0  0
    0.3316    1.3653    0.0000 C   0  0  0  0  0  0  0  0  0  0  0  0
    1.7605    1.3653    0.0000 C   0  0  0  0  0  0  0  0  0  0  0  0
    1.0461    1.7778    0.0000 C   0  0  0  0  0  0  0  0  0  0  0  0
    0.3316   -1.9347    0.0000 O   0  0  0  0  0  0  0  0  0  0  0  0
   -0.8886   -0.4052    0.0000 H   0  0  0  0  0  0  0  0  0  0  0  0
   -1.3095    0.6628    0.0000 H   0  0  0  0  0  0  0  0  0  0  0  0
   -0.3829    1.1978    0.0000 H   0  0  0  0  0  0  0  0  0  0  0  0
   -1.9499   -0.6175    0.0000 H   0  0  0  0  0  0  0  0  0  0  0  0
   -2.7384   -1.8122    0.0000 H   0  0  0  0  0  0  0  0  0  0  0  0
   -1.8118   -3.4172    0.0000 H   0  0  0  0  0  0  0  0  0  0  0  0
   -2.7385   -2.8822    0.0000 H   0  0  0  0  0  0  0  0  0  0  0  0
    0.3316    3.9523    0.0000 H   0  0  0  0  0  0  0  0  0  0  0  0
    1.8861   -1.1822    0.0000 H   0  0  0  0  0  0  0  0  0  0  0  0
    1.0461   -0.9042    0.0000 H   0  0  0  0  0  0  0  0  0  0  0  0
    2.6542    0.0243    0.0000 H   0  0  0  0  0  0  0  0  0  0  0  0
   -0.5621    1.8813    0.0000 H   0  0  0  0  0  0  0  0  0  0  0  0
    2.6542    1.8813    0.0000 H   0  0  0  0  0  0  0  0  0  0  0  0
   -0.5084   -2.4197    0.0000 H   0  0  0  0  0  0  0  0  0  0  0  0
  1  2  1  0  0  0  0
  1 13  1  0  0  0  0
  1 20  1  0  0  0  0
  1 21  1  0  0  0  0
  2  3  1  0  0  0  0
  2 10  1  0  0  0  0
  2 19  1  6  0  0  0
  3  4  1  0  0  0  0
  3 22  1  0  0  0  0
  4  5  1  0  0  0  0
  4  6  2  0  0  0  0
  5 23  1  0  0  0  0
  5 24  1  0  0  0  0
  5 25  1  0  0  0  0
  7  8  1  0  0  0  0
  7  9  2  0  0  0  0
  7 17  1  0  0  0  0
  8 26  1  0  0  0  0
 10 11  1  0  0  0  0
 10 18  1  0  0  0  0
 11 27  1  0  0  0  0
 12 13  2  0  0  0  0
 12 14  1  0  0  0  0
 12 28  1  0  0  0  0
 13 15  1  0  0  0  0
 14 16  2  0  0  0  0
 14 29  1  0  0  0  0
 15 17  2  0  0  0  0
 15 30  1  0  0  0  0
 16 17  1  0  0  0  0
 16 31  1  0  0  0  0
 18 32  1  0  0  0  0
M  END
>  <DRUGBANK_ID>
DB02614

>  <SECONDARY_ACCESSION_NUMBERS>
EXPT00712

>  <COMMON_NAME>
1(R)-1-Acetamido-2-(3-Carboxyphenyl)Ethyl Boronic Acid

$$$$
