
 OpenBabel10282417072D

 77 79  0  0  0  0  0  0  0  0999 V2000
   -0.9154   -2.9738    0.0000 C   0  0  0  0  0  0  0  0  0  0  0  0
   -0.8027   -2.1566    0.0000 C   0  0  0  0  0  0  0  0  0  0  0  0
   -0.0451   -1.7401    0.0000 C   0  0  0  0  0  0  0  0  0  0  0  0
    0.6904   -2.1436    0.0000 C   0  0  0  0  0  0  0  0  0  0  0  0
    1.3898   -1.7569    0.0000 C   0  0  0  0  0  0  0  0  0  0  0  0
    1.5293   -0.9651    0.0000 N   0  0  0  0  0  0  0  0  0  0  0  0
    2.3475   -0.7823    0.0000 C   0  0  0  0  0  0  0  0  0  0  0  0
    2.7219   -0.0763    0.0000 C   0  0  0  0  0  0  0  0  0  0  0  0
    2.3057    0.6520    0.0000 C   0  0  0  0  0  0  0  0  0  0  0  0
    2.7089    1.4168    0.0000 C   0  0  0  0  0  0  0  0  0  0  0  0
    2.1478    1.9682    0.0000 C   0  0  0  0  0  0  0  0  0  0  0  0
    1.3899    1.5810    0.0000 C   0  0  0  0  0  0  0  0  0  0  0  0
    1.5435    0.7625    0.0000 N   0  5  0  0  0  0  0  0  0  0  0  0
    0.6839    1.9554    0.0000 C   0  0  0  0  0  0  0  0  0  0  0  0
   -0.0447    1.5685    0.0000 C   0  0  0  0  0  0  0  0  0  0  0  0
   -0.2134    0.7764    0.0000 N   0  0  0  0  0  0  0  0  0  0  0  0
   -1.0026    0.6232    0.0000 C   0  0  0  0  0  0  0  0  0  0  0  0
   -1.3766   -0.1414    0.0000 C   0  0  0  0  0  0  0  0  0  0  0  0
   -0.9898   -0.8407    0.0000 C   0  0  0  0  0  0  0  0  0  0  0  0
   -1.3638   -1.6052    0.0000 C   0  0  0  0  0  0  0  0  0  0  0  0
   -2.1770   -1.7444    0.0000 C   0  0  0  0  0  0  0  0  0  0  0  0
   -2.7041   -1.1098    0.0000 C   0  0  0  0  0  0  0  0  0  0  0  0
   -3.5173   -1.2490    0.0000 C   0  0  0  0  0  0  0  0  0  0  0  0
   -4.0445   -0.6144    0.0000 O   0  0  0  0  0  0  0  0  0  0  0  0
   -3.8033   -2.0229    0.0000 O   0  0  0  0  0  0  0  0  0  0  0  0
   -0.1688   -0.9799    0.0000 N   0  5  0  0  0  0  0  0  0  0  0  0
   -1.3601    1.3227    0.0000 C   0  0  0  0  0  0  0  0  0  0  0  0
   -0.7796    1.9134    0.0000 C   0  0  0  0  0  0  0  0  0  0  0  0
   -0.9254    2.7254    0.0000 C   0  0  0  0  0  0  0  0  0  0  0  0
   -2.1756    1.4477    0.0000 C   0  0  0  0  0  0  0  0  0  0  0  0
   -2.4751    2.2165    0.0000 C   0  0  0  0  0  0  0  0  0  0  0  0
   -3.2905    2.3415    0.0000 C   0  0  0  0  0  0  0  0  0  0  0  0
   -3.8065    1.6977    0.0000 O   0  0  0  0  0  0  0  0  0  0  0  0
   -3.5900    3.1102    0.0000 O   0  0  0  0  0  0  0  0  0  0  0  0
    2.2728    2.7837    0.0000 C   0  0  0  0  0  0  0  0  0  0  0  0
    3.5241    1.5438    0.0000 C   0  0  0  0  0  0  0  0  0  0  0  0
    3.8217    2.3132    0.0000 C   0  0  0  0  0  0  0  0  0  0  0  0
    2.7350   -1.5694    0.0000 C   0  0  0  0  0  0  0  0  0  0  0  0
    2.1836   -2.1306    0.0000 C   0  0  0  0  0  0  0  0  0  0  0  0
    2.3289   -2.9427    0.0000 C   0  0  0  0  0  0  0  0  0  0  0  0
    1.6983   -3.4746    0.0000 C   0  0  0  0  0  0  0  0  0  0  0  0
    3.5495   -1.7005    0.0000 C   0  0  0  0  0  0  0  0  0  0  0  0
    7.1217    0.0000    0.0000 O   0  5  0  0  0  0  0  0  0  0  0  0
    6.2967    0.0000    0.0000 Fe  0  1  0  0  0  0  0  0  0  0  0  0
   -1.9064   -3.3772    0.0000 H   0  0  0  0  0  0  0  0  0  0  0  0
   -0.0705   -3.6304    0.0000 H   0  0  0  0  0  0  0  0  0  0  0  0
   -1.0616   -4.0338    0.0000 H   0  0  0  0  0  0  0  0  0  0  0  0
    0.6921   -3.1756    0.0000 H   0  0  0  0  0  0  0  0  0  0  0  0
    3.7538   -0.0600    0.0000 H   0  0  0  0  0  0  0  0  0  0  0  0
    0.6836    2.9874    0.0000 H   0  0  0  0  0  0  0  0  0  0  0  0
   -2.4083   -0.1674    0.0000 H   0  0  0  0  0  0  0  0  0  0  0  0
   -2.5480   -2.7480    0.0000 H   0  0  0  0  0  0  0  0  0  0  0  0
   -3.2317   -1.9249    0.0000 H   0  0  0  0  0  0  0  0  0  0  0  0
   -2.3331   -0.1062    0.0000 H   0  0  0  0  0  0  0  0  0  0  0  0
   -3.3878   -0.2867    0.0000 H   0  0  0  0  0  0  0  0  0  0  0  0
   -4.7269   -2.1811    0.0000 H   0  0  0  0  0  0  0  0  0  0  0  0
   -0.1079    3.4157    0.0000 H   0  0  0  0  0  0  0  0  0  0  0  0
   -1.9320    3.0882    0.0000 H   0  0  0  0  0  0  0  0  0  0  0  0
   -1.1145    3.7786    0.0000 H   0  0  0  0  0  0  0  0  0  0  0  0
   -2.8448    0.6128    0.0000 H   0  0  0  0  0  0  0  0  0  0  0  0
   -3.2332    1.6098    0.0000 H   0  0  0  0  0  0  0  0  0  0  0  0
   -1.8059    3.0514    0.0000 H   0  0  0  0  0  0  0  0  0  0  0  0
   -2.8635    3.2135    0.0000 H   0  0  0  0  0  0  0  0  0  0  0  0
   -3.0040    3.8413    0.0000 H   0  0  0  0  0  0  0  0  0  0  0  0
    3.2698    3.1721    0.0000 H   0  0  0  0  0  0  0  0  0  0  0  0
    1.4379    3.4529    0.0000 H   0  0  0  0  0  0  0  0  0  0  0  0
    2.4349    3.8413    0.0000 H   0  0  0  0  0  0  0  0  0  0  0  0
    4.1715    0.7401    0.0000 H   0  0  0  0  0  0  0  0  0  0  0  0
    4.8414    2.4720    0.0000 H   0  0  0  0  0  0  0  0  0  0  0  0
    3.1743    3.1169    0.0000 H   0  0  0  0  0  0  0  0  0  0  0  0
    3.2996   -3.2932    0.0000 H   0  0  0  0  0  0  0  0  0  0  0  0
    0.7276   -3.1241    0.0000 H   0  0  0  0  0  0  0  0  0  0  0  0
    1.8801   -4.4905    0.0000 H   0  0  0  0  0  0  0  0  0  0  0  0
    3.9304   -2.7004    0.0000 H   0  0  0  0  0  0  0  0  0  0  0  0
    4.2250   -0.8706    0.0000 H   0  0  0  0  0  0  0  0  0  0  0  0
    4.6059   -1.8705    0.0000 H   0  0  0  0  0  0  0  0  0  0  0  0
    8.0917    0.0000    0.0000 H   0  0  0  0  0  0  0  0  0  0  0  0
  1  2  1  0  0  0  0
  1 45  1  0  0  0  0
  1 46  1  0  0  0  0
  1 47  1  0  0  0  0
  2  3  2  0  0  0  0
  2 20  1  0  0  0  0
  3  4  1  0  0  0  0
  3 26  1  0  0  0  0
  4  5  2  0  0  0  0
  4 48  1  0  0  0  0
  5  6  1  0  0  0  0
  5 39  1  0  0  0  0
  6  7  2  0  0  0  0
  7  8  1  0  0  0  0
  7 38  1  0  0  0  0
  8  9  2  0  0  0  0
  8 49  1  0  0  0  0
  9 10  1  0  0  0  0
  9 13  1  0  0  0  0
 10 11  2  0  0  0  0
 10 36  1  0  0  0  0
 11 12  1  0  0  0  0
 11 35  1  0  0  0  0
 12 13  1  0  0  0  0
 12 14  2  0  0  0  0
 14 15  1  0  0  0  0
 14 50  1  0  0  0  0
 15 16  2  0  0  0  0
 15 28  1  0  0  0  0
 16 17  1  0  0  0  0
 17 18  2  0  0  0  0
 17 27  1  0  0  0  0
 18 19  1  0  0  0  0
 18 51  1  0  0  0  0
 19 20  2  0  0  0  0
 19 26  1  0  0  0  0
 20 21  1  0  0  0  0
 21 22  1  0  0  0  0
 21 52  1  0  0  0  0
 21 53  1  0  0  0  0
 22 23  1  0  0  0  0
 22 54  1  0  0  0  0
 22 55  1  0  0  0  0
 23 24  2  0  0  0  0
 23 25  1  0  0  0  0
 25 56  1  0  0  0  0
 27 28  2  0  0  0  0
 27 30  1  0  0  0  0
 28 29  1  0  0  0  0
 29 57  1  0  0  0  0
 29 58  1  0  0  0  0
 29 59  1  0  0  0  0
 30 31  1  0  0  0  0
 30 60  1  0  0  0  0
 30 61  1  0  0  0  0
 31 32  1  0  0  0  0
 31 62  1  0  0  0  0
 31 63  1  0  0  0  0
 32 33  2  0  0  0  0
 32 34  1  0  0  0  0
 34 64  1  0  0  0  0
 35 65  1  0  0  0  0
 35 66  1  0  0  0  0
 35 67  1  0  0  0  0
 36 37  2  0  0  0  0
 36 68  1  0  0  0  0
 37 69  1  0  0  0  0
 37 70  1  0  0  0  0
 38 39  2  0  0  0  0
 38 42  1  0  0  0  0
 39 40  1  0  0  0  0
 40 41  2  0  0  0  0
 40 71  1  0  0  0  0
 41 72  1  0  0  0  0
 41 73  1  0  0  0  0
 42 74  1  0  0  0  0
 42 75  1  0  0  0  0
 42 76  1  0  0  0  0
 43 77  1  0  0  0  0
M  CHG  4  13  -1  26  -1  43  -1  44   3
M  END
>  <DRUGBANK_ID>
DB13387

>  <COMMON_NAME>
Hematin

>  <CAS_NUMBER>
15489-90-4

>  <UNII>
0WP180G15G

$$$$
