793
 OpenBabel10282417072D

 37 39  0  0  0  0  0  0  0  0999 V2000
    1.3900   -0.2978    0.0000 C   0  0  0  0  0  0  0  0  0  0  0  0
    0.6755   -0.7103    0.0000 C   0  0  2  0  0  0  0  0  0  0  0  0
    0.6755   -1.5353    0.0000 C   0  0  0  0  0  0  0  0  0  0  0  0
    1.3900   -1.9478    0.0000 C   0  0  0  0  0  0  0  0  0  0  0  0
    1.3900   -2.7728    0.0000 C   0  0  0  0  0  0  0  0  0  0  0  0
    0.6755   -3.1853    0.0000 C   0  0  0  0  0  0  0  0  0  0  0  0
   -0.0390    1.6939    0.0000 C   0  0  0  0  0  0  0  0  0  0  0  0
    0.5444    1.1106    0.0000 C   0  0  0  0  0  0  0  0  0  0  0  0
   -1.8598    1.8250    0.0000 C   0  0  0  0  0  0  0  0  0  0  0  0
   -2.6848    1.8250    0.0000 C   0  0  0  0  0  0  0  0  0  0  0  0
   -3.0973    2.5395    0.0000 C   0  0  0  0  0  0  0  0  0  0  0  0
   -1.8598    3.2540    0.0000 C   0  0  0  0  0  0  0  0  0  0  0  0
   -1.4473    2.5395    0.0000 C   0  0  0  0  0  0  0  0  0  0  0  0
   -0.0390   -2.7728    0.0000 C   0  0  0  0  0  0  0  0  0  0  0  0
   -0.0390   -1.9478    0.0000 C   0  0  0  0  0  0  0  0  0  0  0  0
   -0.0390   -0.2978    0.0000 N   0  0  0  0  0  0  0  0  0  0  0  0
   -0.0390    0.5272    0.0000 C   0  0  0  0  0  0  0  0  0  0  0  0
   -0.6223    1.1106    0.0000 C   0  0  0  0  0  0  0  0  0  0  0  0
   -0.0390    2.5189    0.0000 O   0  0  0  0  0  0  0  0  0  0  0  0
    1.3694    1.1106    0.0000 O   0  0  0  0  0  0  0  0  0  0  0  0
   -1.4473    1.1106    0.0000 N   0  0  0  0  0  0  0  0  0  0  0  0
   -2.6848    3.2540    0.0000 N   0  0  0  0  0  0  0  0  0  0  0  0
    1.1812   -1.0023    0.0000 H   0  0  0  0  0  0  0  0  0  0  0  0
    2.3166   -0.8328    0.0000 H   0  0  0  0  0  0  0  0  0  0  0  0
    1.3900    0.7722    0.0000 H   0  0  0  0  0  0  0  0  0  0  0  0
    2.3167    0.2372    0.0000 H   0  0  0  0  0  0  0  0  0  0  0  0
    2.2837   -1.4318    0.0000 H   0  0  0  0  0  0  0  0  0  0  0  0
    2.2837   -3.2888    0.0000 H   0  0  0  0  0  0  0  0  0  0  0  0
    0.6755   -4.2173    0.0000 H   0  0  0  0  0  0  0  0  0  0  0  0
   -3.2008    0.9313    0.0000 H   0  0  0  0  0  0  0  0  0  0  0  0
   -4.1293    2.5395    0.0000 H   0  0  0  0  0  0  0  0  0  0  0  0
   -1.3438    4.1477    0.0000 H   0  0  0  0  0  0  0  0  0  0  0  0
   -0.4153    2.5395    0.0000 H   0  0  0  0  0  0  0  0  0  0  0  0
   -0.9327   -3.2888    0.0000 H   0  0  0  0  0  0  0  0  0  0  0  0
   -0.9327   -1.4318    0.0000 H   0  0  0  0  0  0  0  0  0  0  0  0
   -0.8916   -0.7901    0.0000 H   0  0  0  0  0  0  0  0  0  0  0  0
   -1.9395    0.2580    0.0000 H   0  0  0  0  0  0  0  0  0  0  0  0
  1 24  1  0  0  0  0
  1 25  1  0  0  0  0
  1 26  1  0  0  0  0
  2  1  1  0  0  0  0
  2  3  1  0  0  0  0
  2 16  1  0  0  0  0
  2 23  1  1  0  0  0
  3  4  2  0  0  0  0
  3 15  1  0  0  0  0
  4  5  1  0  0  0  0
  4 27  1  0  0  0  0
  5  6  2  0  0  0  0
  5 28  1  0  0  0  0
  6 14  1  0  0  0  0
  6 29  1  0  0  0  0
  7  8  1  0  0  0  0
  7 18  1  0  0  0  0
  7 19  2  0  0  0  0
  8 17  1  0  0  0  0
  8 20  2  0  0  0  0
  9 10  2  0  0  0  0
  9 13  1  0  0  0  0
  9 21  1  0  0  0  0
 10 11  1  0  0  0  0
 10 30  1  0  0  0  0
 11 22  2  0  0  0  0
 11 31  1  0  0  0  0
 12 13  2  0  0  0  0
 12 22  1  0  0  0  0
 12 32  1  0  0  0  0
 13 33  1  0  0  0  0
 14 15  2  0  0  0  0
 14 34  1  0  0  0  0
 15 35  1  0  0  0  0
 16 17  1  0  0  0  0
 16 36  1  0  0  0  0
 17 18  2  0  0  0  0
 18 21  1  0  0  0  0
 21 37  1  0  0  0  0
M  END
>  <DRUGBANK_ID>
DB07234

>  <COMMON_NAME>
3-{[(1R)-1-phenylethyl]amino}-4-(pyridin-4-ylamino)cyclobut-3-ene-1,2-dione

$$$$
