
 OpenBabel10282417072D

 50 52  0  0  1  0  0  0  0  0999 V2000
    0.5108   -7.3463    0.0000 C   0  0  0  0  0  0  0  0  0  0  0  0
   -0.1023   -6.7943    0.0000 C   0  0  0  0  0  0  0  0  0  0  0  0
   -0.9093   -6.9658    0.0000 C   0  0  0  0  0  0  0  0  0  0  0  0
   -1.3218   -6.2514    0.0000 C   0  0  0  0  0  0  0  0  0  0  0  0
   -0.7698   -5.6383    0.0000 S   0  0  0  0  0  0  0  0  0  0  0  0
   -0.0161   -5.9738    0.0000 C   0  0  0  0  0  0  0  0  0  0  0  0
    0.6984   -5.5613    0.0000 C   0  0  0  0  0  0  0  0  0  0  0  0
    0.6984   -4.7363    0.0000 O   0  0  0  0  0  0  0  0  0  0  0  0
    1.4128   -5.9738    0.0000 N   0  0  0  0  0  0  0  0  0  0  0  0
    2.1273   -5.5613    0.0000 C   0  0  0  0  0  0  0  0  0  0  0  0
    2.8418   -5.9738    0.0000 C   0  0  0  0  0  0  0  0  0  0  0  0
    2.8418   -6.7988    0.0000 O   0  0  0  0  0  0  0  0  0  0  0  0
    3.5563   -5.5613    0.0000 N   0  0  0  0  0  0  0  0  0  0  0  0
    4.2707   -5.9738    0.0000 C   0  0  0  0  0  0  0  0  0  0  0  0
    4.9852   -5.5613    0.0000 C   0  0  0  0  0  0  0  0  0  0  0  0
    5.6997   -5.1488    0.0000 F   0  0  0  0  0  0  0  0  0  0  0  0
    4.5727   -4.8469    0.0000 F   0  0  0  0  0  0  0  0  0  0  0  0
    5.3977   -6.2758    0.0000 F   0  0  0  0  0  0  0  0  0  0  0  0
   -2.1423   -6.1651    0.0000 C   0  0  0  0  0  0  0  0  0  0  0  0
   -2.6943   -6.7782    0.0000 N   0  0  0  0  0  0  0  0  0  0  0  0
   -3.4480   -6.4427    0.0000 O   0  0  0  0  0  0  0  0  0  0  0  0
   -3.3618   -5.6222    0.0000 C   0  0  1  0  0  0  0  0  0  0  0  0
   -2.5548   -5.4507    0.0000 C   0  0  0  0  0  0  0  0  0  0  0  0
   -4.1669   -5.4422    0.0000 C   0  0  0  0  0  0  0  0  0  0  0  0
   -4.7253   -6.0495    0.0000 C   0  0  0  0  0  0  0  0  0  0  0  0
   -5.5304   -5.8695    0.0000 C   0  0  0  0  0  0  0  0  0  0  0  0
   -6.0889   -6.4768    0.0000 Cl  0  0  0  0  0  0  0  0  0  0  0  0
   -5.7772   -5.0823    0.0000 C   0  0  0  0  0  0  0  0  0  0  0  0
   -6.5823   -4.9023    0.0000 Cl  0  0  0  0  0  0  0  0  0  0  0  0
   -5.2187   -4.4750    0.0000 C   0  0  0  0  0  0  0  0  0  0  0  0
   -5.4654   -3.6877    0.0000 Cl  0  0  0  0  0  0  0  0  0  0  0  0
   -4.4136   -4.6550    0.0000 C   0  0  0  0  0  0  0  0  0  0  0  0
   -3.6249   -4.8403    0.0000 C   0  0  0  0  0  0  0  0  0  0  0  0
   -3.8880   -4.0584    0.0000 F   0  0  0  0  0  0  0  0  0  0  0  0
   -2.8430   -4.5771    0.0000 F   0  0  0  0  0  0  0  0  0  0  0  0
   -4.2974   -4.3624    0.0000 F   0  0  0  0  0  0  0  0  0  0  0  0
    0.2884   -8.3929    0.0000 H   0  0  0  0  0  0  0  0  0  0  0  0
    1.5284   -7.0156    0.0000 H   0  0  0  0  0  0  0  0  0  0  0  0
    1.3060   -8.0622    0.0000 H   0  0  0  0  0  0  0  0  0  0  0  0
   -1.3291   -7.9086    0.0000 H   0  0  0  0  0  0  0  0  0  0  0  0
    1.4128   -6.9583    0.0000 H   0  0  0  0  0  0  0  0  0  0  0  0
    2.1273   -4.4913    0.0000 H   0  0  0  0  0  0  0  0  0  0  0  0
    3.0539   -5.0263    0.0000 H   0  0  0  0  0  0  0  0  0  0  0  0
    3.5563   -4.5768    0.0000 H   0  0  0  0  0  0  0  0  0  0  0  0
    4.2707   -7.0438    0.0000 H   0  0  0  0  0  0  0  0  0  0  0  0
    5.1973   -6.5088    0.0000 H   0  0  0  0  0  0  0  0  0  0  0  0
   -2.1196   -4.4732    0.0000 H   0  0  0  0  0  0  0  0  0  0  0  0
   -1.4863   -5.3947    0.0000 H   0  0  0  0  0  0  0  0  0  0  0  0
   -4.4167   -7.0343    0.0000 H   0  0  0  0  0  0  0  0  0  0  0  0
   -3.7150   -3.8954    0.0000 H   0  0  0  0  0  0  0  0  0  0  0  0
  1  2  1  0  0  0  0
  1 37  1  0  0  0  0
  1 38  1  0  0  0  0
  1 39  1  0  0  0  0
  2  3  1  0  0  0  0
  2  6  2  0  0  0  0
  3  4  2  0  0  0  0
  3 40  1  0  0  0  0
  4  5  1  0  0  0  0
  4 19  1  0  0  0  0
  5  6  1  0  0  0  0
  6  7  1  0  0  0  0
  7  8  2  0  0  0  0
  7  9  1  0  0  0  0
  9 10  1  0  0  0  0
  9 41  1  0  0  0  0
 10 11  1  0  0  0  0
 10 42  1  0  0  0  0
 10 43  1  0  0  0  0
 11 12  2  0  0  0  0
 11 13  1  0  0  0  0
 13 14  1  0  0  0  0
 13 44  1  0  0  0  0
 14 15  1  0  0  0  0
 14 45  1  0  0  0  0
 14 46  1  0  0  0  0
 15 16  1  0  0  0  0
 15 17  1  0  0  0  0
 15 18  1  0  0  0  0
 19 20  2  0  0  0  0
 19 23  1  0  0  0  0
 20 21  1  0  0  0  0
 22 21  1  0  0  0  0
 22 23  1  0  0  0  0
 22 24  1  0  0  0  0
 22 33  1  1  0  0  0
 23 47  1  0  0  0  0
 23 48  1  0  0  0  0
 24 25  2  0  0  0  0
 24 32  1  0  0  0  0
 25 26  1  0  0  0  0
 25 49  1  0  0  0  0
 26 27  1  0  0  0  0
 26 28  2  0  0  0  0
 28 29  1  0  0  0  0
 28 30  1  0  0  0  0
 30 31  1  0  0  0  0
 30 32  2  0  0  0  0
 32 50  1  0  0  0  0
 33 34  1  0  0  0  0
 33 35  1  0  0  0  0
 33 36  1  0  0  0  0
M  END
>  <DRUGBANK_ID>
DB17992

>  <COMMON_NAME>
Lotilaner

>  <CAS_NUMBER>
1369852-71-0

>  <UNII>
HEH4938D7K

>  <SYNONYMS>
2-thiophenecarboxamide, 5-((5s)-4,5-dihydro-5-(3,4,5-trichlorophenyl)-5-(trifluoromethyl)-3-isoxazolyl)-3-methyl-n-(2-oxo-2-((2,2,2-trifluoroethyl)amino)ethyl)-; 3-methyi-n-(2-oxo-2-((2,2,2-trifluoroethyl)amino)ethyl)-5-((55)-5-(3,4,5-trichlorophenyl)-5-(trifluoromethyl)-4,5-dihydro-1,2-oxazol-3-yl)thiophene-2-carboxamide; Credelio; Lotilaner (ema epar: veterinary)

$$$$
