
 OpenBabel10282417072D

 81 85  0  0  1  0  0  0  0  0999 V2000
   -0.7642    4.0408    0.0000 C   0  0  0  0  0  0  0  0  0  0  0  0
   -0.7642    3.2158    0.0000 C   0  0  0  0  0  0  0  0  0  0  0  0
   -0.0497    2.8033    0.0000 C   0  0  0  0  0  0  0  0  0  0  0  0
   -0.0497    1.9783    0.0000 C   0  0  1  0  0  0  0  0  0  0  0  0
    0.6647    1.5658    0.0000 N   0  0  0  0  0  0  0  0  0  0  0  0
    0.6647    0.7408    0.0000 C   0  0  0  0  0  0  0  0  0  0  0  0
   -0.0497    0.3283    0.0000 O   0  0  0  0  0  0  0  0  0  0  0  0
    1.3791    0.3283    0.0000 N   0  0  0  0  0  0  0  0  0  0  0  0
    1.5926   -0.4685    0.0000 C   0  0  1  0  0  0  0  0  0  0  0  0
    1.1801   -1.1829    0.0000 O   0  0  0  0  0  0  0  0  0  0  0  0
    0.3551   -1.1829    0.0000 C   0  0  0  0  0  0  0  0  0  0  0  0
   -0.0573   -1.8974    0.0000 C   0  0  0  0  0  0  0  0  0  0  0  0
   -0.8823   -1.8974    0.0000 C   0  0  0  0  0  0  0  0  0  0  0  0
   -1.2948   -1.1829    0.0000 C   0  0  0  0  0  0  0  0  0  0  0  0
   -0.8823   -0.4685    0.0000 C   0  0  0  0  0  0  0  0  0  0  0  0
   -0.0573   -0.4685    0.0000 C   0  0  0  0  0  0  0  0  0  0  0  0
   -2.1198   -1.1829    0.0000 C   0  0  0  0  0  0  0  0  0  0  0  0
   -2.5323   -0.4685    0.0000 O   0  0  0  0  0  0  0  0  0  0  0  0
   -2.5323   -1.8974    0.0000 N   0  0  0  0  0  0  0  0  0  0  0  0
   -2.1198   -2.6119    0.0000 C   0  0  0  0  0  0  0  0  0  0  0  0
   -2.5323   -3.3263    0.0000 C   0  0  0  0  0  0  0  0  0  0  0  0
   -3.3573   -3.3263    0.0000 N   0  0  0  0  0  0  0  0  0  0  0  0
   -3.7698   -4.0408    0.0000 C   0  0  0  0  0  0  0  0  0  0  0  0
   -3.7698   -2.6119    0.0000 C   0  0  0  0  0  0  0  0  0  0  0  0
   -3.3573   -1.8974    0.0000 C   0  0  0  0  0  0  0  0  0  0  0  0
    2.3895   -0.2549    0.0000 C   0  0  0  0  0  0  0  0  0  0  0  0
    2.6030   -1.0518    0.0000 C   0  0  0  0  0  0  0  0  0  0  0  0
    2.0197   -1.6352    0.0000 C   0  0  0  0  0  0  0  0  0  0  0  0
    3.1864   -0.0414    0.0000 C   0  0  0  0  0  0  0  0  0  0  0  0
    3.7698   -0.6248    0.0000 C   0  0  0  0  0  0  0  0  0  0  0  0
    2.1760    0.5419    0.0000 C   0  0  0  0  0  0  0  0  0  0  0  0
    2.5885    1.2563    0.0000 O   0  0  0  0  0  0  0  0  0  0  0  0
   -0.7642    1.5658    0.0000 C   0  0  0  0  0  0  0  0  0  0  0  0
   -0.7642    0.7408    0.0000 C   0  0  0  0  0  0  0  0  0  0  0  0
   -1.4787    0.3283    0.0000 C   0  0  0  0  0  0  0  0  0  0  0  0
   -2.1932    0.7408    0.0000 C   0  0  0  0  0  0  0  0  0  0  0  0
   -2.9778    0.4859    0.0000 O   0  0  0  0  0  0  0  0  0  0  0  0
   -3.4627    1.1533    0.0000 C   0  0  0  0  0  0  0  0  0  0  0  0
   -2.9778    1.8208    0.0000 O   0  0  0  0  0  0  0  0  0  0  0  0
   -2.1932    1.5658    0.0000 C   0  0  0  0  0  0  0  0  0  0  0  0
   -1.4787    1.9783    0.0000 C   0  0  0  0  0  0  0  0  0  0  0  0
    0.1624    4.5758    0.0000 H   0  0  0  0  0  0  0  0  0  0  0  0
   -1.6908    4.5758    0.0000 H   0  0  0  0  0  0  0  0  0  0  0  0
   -0.7642    5.1108    0.0000 H   0  0  0  0  0  0  0  0  0  0  0  0
   -1.6908    2.6808    0.0000 H   0  0  0  0  0  0  0  0  0  0  0  0
   -0.7642    2.1458    0.0000 H   0  0  0  0  0  0  0  0  0  0  0  0
    0.8769    3.3383    0.0000 H   0  0  0  0  0  0  0  0  0  0  0  0
    0.8769    2.2683    0.0000 H   0  0  0  0  0  0  0  0  0  0  0  0
    0.8770    2.5133    0.0000 H   0  0  0  0  0  0  0  0  0  0  0  0
    1.5173    2.0580    0.0000 H   0  0  0  0  0  0  0  0  0  0  0  0
    0.5318   -0.3288    0.0000 H   0  0  0  0  0  0  0  0  0  0  0  0
    0.4588   -2.7911    0.0000 H   0  0  0  0  0  0  0  0  0  0  0  0
   -1.3983   -2.7911    0.0000 H   0  0  0  0  0  0  0  0  0  0  0  0
   -1.3983    0.4252    0.0000 H   0  0  0  0  0  0  0  0  0  0  0  0
    0.4587    0.4252    0.0000 H   0  0  0  0  0  0  0  0  0  0  0  0
   -1.0498   -2.6119    0.0000 H   0  0  0  0  0  0  0  0  0  0  0  0
   -1.5848   -3.5386    0.0000 H   0  0  0  0  0  0  0  0  0  0  0  0
   -1.9973   -4.2530    0.0000 H   0  0  0  0  0  0  0  0  0  0  0  0
   -3.0673   -4.2529    0.0000 H   0  0  0  0  0  0  0  0  0  0  0  0
   -4.8398   -4.0408    0.0000 H   0  0  0  0  0  0  0  0  0  0  0  0
   -3.2348   -4.9674    0.0000 H   0  0  0  0  0  0  0  0  0  0  0  0
   -4.3048   -4.9675    0.0000 H   0  0  0  0  0  0  0  0  0  0  0  0
   -4.8398   -2.6119    0.0000 H   0  0  0  0  0  0  0  0  0  0  0  0
   -4.3048   -1.6853    0.0000 H   0  0  0  0  0  0  0  0  0  0  0  0
   -3.8923   -0.9708    0.0000 H   0  0  0  0  0  0  0  0  0  0  0  0
   -2.8223   -0.9708    0.0000 H   0  0  0  0  0  0  0  0  0  0  0  0
    3.6365   -1.3287    0.0000 H   0  0  0  0  0  0  0  0  0  0  0  0
    2.8800   -2.0853    0.0000 H   0  0  0  0  0  0  0  0  0  0  0  0
    0.9861   -1.3584    0.0000 H   0  0  0  0  0  0  0  0  0  0  0  0
    2.2967   -2.6687    0.0000 H   0  0  0  0  0  0  0  0  0  0  0  0
    1.2632   -2.3919    0.0000 H   0  0  0  0  0  0  0  0  0  0  0  0
    3.4634    0.9921    0.0000 H   0  0  0  0  0  0  0  0  0  0  0  0
    4.2199    0.2355    0.0000 H   0  0  0  0  0  0  0  0  0  0  0  0
    3.4929   -1.6583    0.0000 H   0  0  0  0  0  0  0  0  0  0  0  0
    4.8033   -0.3479    0.0000 H   0  0  0  0  0  0  0  0  0  0  0  0
    4.5264   -1.3814    0.0000 H   0  0  0  0  0  0  0  0  0  0  0  0
    0.1295    0.2248    0.0000 H   0  0  0  0  0  0  0  0  0  0  0  0
   -1.4787   -0.7037    0.0000 H   0  0  0  0  0  0  0  0  0  0  0  0
   -4.5327    1.1533    0.0000 H   0  0  0  0  0  0  0  0  0  0  0  0
   -3.9485    2.1067    0.0000 H   0  0  0  0  0  0  0  0  0  0  0  0
   -1.4787    3.0103    0.0000 H   0  0  0  0  0  0  0  0  0  0  0  0
  1  2  1  0  0  0  0
  1 42  1  0  0  0  0
  1 43  1  0  0  0  0
  1 44  1  0  0  0  0
  2  3  1  0  0  0  0
  2 45  1  0  0  0  0
  2 46  1  0  0  0  0
  3 47  1  0  0  0  0
  3 48  1  0  0  0  0
  4  3  1  0  0  0  0
  4  5  1  0  0  0  0
  4 33  1  0  0  0  0
  4 49  1  6  0  0  0
  5  6  1  0  0  0  0
  5 50  1  0  0  0  0
  6  7  2  0  0  0  0
  6  8  1  0  0  0  0
  8 31  1  0  0  0  0
  9  8  1  0  0  0  0
  9 10  1  0  0  0  0
  9 26  1  0  0  0  0
  9 51  1  1  0  0  0
 10 11  1  0  0  0  0
 11 12  2  0  0  0  0
 11 16  1  0  0  0  0
 12 13  1  0  0  0  0
 12 52  1  0  0  0  0
 13 14  2  0  0  0  0
 13 53  1  0  0  0  0
 14 15  1  0  0  0  0
 14 17  1  0  0  0  0
 15 16  2  0  0  0  0
 15 54  1  0  0  0  0
 16 55  1  0  0  0  0
 17 18  2  0  0  0  0
 17 19  1  0  0  0  0
 19 20  1  0  0  0  0
 19 25  1  0  0  0  0
 20 21  1  0  0  0  0
 20 56  1  0  0  0  0
 20 57  1  0  0  0  0
 21 22  1  0  0  0  0
 21 58  1  0  0  0  0
 21 59  1  0  0  0  0
 22 23  1  0  0  0  0
 22 24  1  0  0  0  0
 23 60  1  0  0  0  0
 23 61  1  0  0  0  0
 23 62  1  0  0  0  0
 24 25  1  0  0  0  0
 24 63  1  0  0  0  0
 24 64  1  0  0  0  0
 25 65  1  0  0  0  0
 25 66  1  0  0  0  0
 26 27  1  0  0  0  0
 26 29  1  0  0  0  0
 26 31  1  0  0  0  0
 27 28  1  0  0  0  0
 27 67  1  0  0  0  0
 27 68  1  0  0  0  0
 28 69  1  0  0  0  0
 28 70  1  0  0  0  0
 28 71  1  0  0  0  0
 29 30  1  0  0  0  0
 29 72  1  0  0  0  0
 29 73  1  0  0  0  0
 30 74  1  0  0  0  0
 30 75  1  0  0  0  0
 30 76  1  0  0  0  0
 31 32  2  0  0  0  0
 33 34  2  0  0  0  0
 33 41  1  0  0  0  0
 34 35  1  0  0  0  0
 34 77  1  0  0  0  0
 35 36  2  0  0  0  0
 35 78  1  0  0  0  0
 36 37  1  0  0  0  0
 36 40  1  0  0  0  0
 37 38  1  0  0  0  0
 38 39  1  0  0  0  0
 38 79  1  0  0  0  0
 38 80  1  0  0  0  0
 39 40  1  0  0  0  0
 40 41  2  0  0  0  0
 41 81  1  0  0  0  0
M  END
>  <DRUGBANK_ID>
DB18488

>  <COMMON_NAME>
DMP-777

>  <CAS_NUMBER>
157341-41-8

>  <UNII>
3Q0469283P

>  <SYNONYMS>
1-AZETIDINECARBOXAMIDE, N-((1R)-1-(1,3-BENZODIOXOL-5-YL)BUTYL)-3,3-DIETHYL-2-(4-((4-METHYL-1-PIPERAZINYL)CARBONYL)PHENOXY)-4-OXO-, (2S)-

$$$$
