
 OpenBabel10282417072D

 57 60  0  0  0  0  0  0  0  0999 V2000
    0.6078   11.7777    0.0000 C   0  0  0  0  0  0  0  0  0  0  0  0
    0.6078   10.9527    0.0000 C   0  0  0  0  0  0  0  0  0  0  0  0
   -0.1067   10.5402    0.0000 C   0  0  0  0  0  0  0  0  0  0  0  0
    1.3222   10.5402    0.0000 N   0  0  0  0  0  0  0  0  0  0  0  0
    1.3222    9.7152    0.0000 C   0  0  0  0  0  0  0  0  0  0  0  0
    2.0367    9.3027    0.0000 N   0  0  0  0  0  0  0  0  0  0  0  0
    2.0367    8.4777    0.0000 C   0  0  0  0  0  0  0  0  0  0  0  0
    1.3222    8.0652    0.0000 C   0  0  0  0  0  0  0  0  0  0  0  0
    1.3222    7.2402    0.0000 C   0  0  0  0  0  0  0  0  0  0  0  0
    2.0367    6.8277    0.0000 C   0  0  0  0  0  0  0  0  0  0  0  0
    2.0367    6.0027    0.0000 C   0  0  0  0  0  0  0  0  0  0  0  0
    1.3222    5.5902    0.0000 C   0  0  0  0  0  0  0  0  0  0  0  0
    1.3222    4.7652    0.0000 O   0  0  0  0  0  0  0  0  0  0  0  0
    2.0367    4.3527    0.0000 C   0  0  0  0  0  0  0  0  0  0  0  0
    2.7512    4.7652    0.0000 C   0  0  0  0  0  0  0  0  0  0  0  0
    3.4656    4.3527    0.0000 C   0  0  0  0  0  0  0  0  0  0  0  0
    3.4656    3.5277    0.0000 N   0  0  0  0  0  0  0  0  0  0  0  0
    2.7512    3.1152    0.0000 C   0  0  0  0  0  0  0  0  0  0  0  0
    2.0367    3.5277    0.0000 C   0  0  0  0  0  0  0  0  0  0  0  0
    2.7512    2.2902    0.0000 C   0  0  0  0  0  0  0  0  0  0  0  0
    3.4186    1.8053    0.0000 C   0  0  0  0  0  0  0  0  0  0  0  0
    3.1637    1.0206    0.0000 N   0  0  0  0  0  0  0  0  0  0  0  0
    2.3387    1.0206    0.0000 N   0  0  0  0  0  0  0  0  0  0  0  0
    1.8538    0.3532    0.0000 C   0  0  0  0  0  0  0  0  0  0  0  0
    2.0837    1.8053    0.0000 C   0  0  0  0  0  0  0  0  0  0  0  0
    0.6078    6.0027    0.0000 C   0  0  0  0  0  0  0  0  0  0  0  0
   -0.1067    5.5902    0.0000 C   0  0  0  0  0  0  0  0  0  0  0  0
    0.6078    6.8277    0.0000 N   0  0  0  0  0  0  0  0  0  0  0  0
    0.6078    8.4777    0.0000 C   0  0  0  0  0  0  0  0  0  0  0  0
   -0.1067    8.0652    0.0000 O   0  0  0  0  0  0  0  0  0  0  0  0
    0.6078    9.3027    0.0000 N   0  0  0  0  0  0  0  0  0  0  0  0
   -0.1067    9.7152    0.0000 C   0  0  0  0  0  0  0  0  0  0  0  0
    1.5344   12.3127    0.0000 H   0  0  0  0  0  0  0  0  0  0  0  0
   -0.3188   12.3127    0.0000 H   0  0  0  0  0  0  0  0  0  0  0  0
    0.6078   12.8477    0.0000 H   0  0  0  0  0  0  0  0  0  0  0  0
    0.6078    9.8827    0.0000 H   0  0  0  0  0  0  0  0  0  0  0  0
   -1.0333   11.0752    0.0000 H   0  0  0  0  0  0  0  0  0  0  0  0
   -0.1067    9.4702    0.0000 H   0  0  0  0  0  0  0  0  0  0  0  0
   -1.0334   10.0052    0.0000 H   0  0  0  0  0  0  0  0  0  0  0  0
    2.1748   11.0324    0.0000 H   0  0  0  0  0  0  0  0  0  0  0  0
    2.9304    7.9617    0.0000 H   0  0  0  0  0  0  0  0  0  0  0  0
    2.9304    7.3437    0.0000 H   0  0  0  0  0  0  0  0  0  0  0  0
    2.9304    5.4867    0.0000 H   0  0  0  0  0  0  0  0  0  0  0  0
    2.7512    5.7972    0.0000 H   0  0  0  0  0  0  0  0  0  0  0  0
    4.3593    4.8687    0.0000 H   0  0  0  0  0  0  0  0  0  0  0  0
    1.1430    3.0117    0.0000 H   0  0  0  0  0  0  0  0  0  0  0  0
    4.4001    2.1242    0.0000 H   0  0  0  0  0  0  0  0  0  0  0  0
    0.7897    0.4651    0.0000 H   0  0  0  0  0  0  0  0  0  0  0  0
    2.2890   -0.6243    0.0000 H   0  0  0  0  0  0  0  0  0  0  0  0
    1.2249   -0.5124    0.0000 H   0  0  0  0  0  0  0  0  0  0  0  0
    1.1022    2.1242    0.0000 H   0  0  0  0  0  0  0  0  0  0  0  0
   -1.0333    6.1252    0.0000 H   0  0  0  0  0  0  0  0  0  0  0  0
   -0.1067    4.5202    0.0000 H   0  0  0  0  0  0  0  0  0  0  0  0
   -1.0334    5.0552    0.0000 H   0  0  0  0  0  0  0  0  0  0  0  0
   -0.1067   10.7852    0.0000 H   0  0  0  0  0  0  0  0  0  0  0  0
   -1.0333    9.1802    0.0000 H   0  0  0  0  0  0  0  0  0  0  0  0
   -1.0334   10.2502    0.0000 H   0  0  0  0  0  0  0  0  0  0  0  0
  1  2  1  0  0  0  0
  1 33  1  0  0  0  0
  1 34  1  0  0  0  0
  1 35  1  0  0  0  0
  2  3  1  0  0  0  0
  2  4  1  0  0  0  0
  2 36  1  0  0  0  0
  3 37  1  0  0  0  0
  3 38  1  0  0  0  0
  3 39  1  0  0  0  0
  4  5  1  0  0  0  0
  4 40  1  0  0  0  0
  5  6  2  0  0  0  0
  5 31  1  0  0  0  0
  6  7  1  0  0  0  0
  7  8  2  0  0  0  0
  7 41  1  0  0  0  0
  8  9  1  0  0  0  0
  8 29  1  0  0  0  0
  9 10  2  0  0  0  0
  9 28  1  0  0  0  0
 10 11  1  0  0  0  0
 10 42  1  0  0  0  0
 11 12  2  0  0  0  0
 11 43  1  0  0  0  0
 12 13  1  0  0  0  0
 12 26  1  0  0  0  0
 13 14  1  0  0  0  0
 14 15  2  0  0  0  0
 14 19  1  0  0  0  0
 15 16  1  0  0  0  0
 15 44  1  0  0  0  0
 16 17  2  0  0  0  0
 16 45  1  0  0  0  0
 17 18  1  0  0  0  0
 18 19  2  0  0  0  0
 18 20  1  0  0  0  0
 19 46  1  0  0  0  0
 20 21  1  0  0  0  0
 20 25  2  0  0  0  0
 21 22  2  0  0  0  0
 21 47  1  0  0  0  0
 22 23  1  0  0  0  0
 23 24  1  0  0  0  0
 23 25  1  0  0  0  0
 24 48  1  0  0  0  0
 24 49  1  0  0  0  0
 24 50  1  0  0  0  0
 25 51  1  0  0  0  0
 26 27  1  0  0  0  0
 26 28  2  0  0  0  0
 27 52  1  0  0  0  0
 27 53  1  0  0  0  0
 27 54  1  0  0  0  0
 29 30  2  0  0  0  0
 29 31  1  0  0  0  0
 31 32  1  0  0  0  0
 32 55  1  0  0  0  0
 32 56  1  0  0  0  0
 32 57  1  0  0  0  0
M  END
>  <DRUGBANK_ID>
DB17520

>  <COMMON_NAME>
Vimseltinib

>  <CAS_NUMBER>
1628606-05-2

>  <UNII>
PX9FTM69BF

>  <SYNONYMS>
2-(isopropylamino)-3-methyl-5-(6-methyl-5-((2-(1-methyl-1h-pyrazol-4-yl)pyridin-4-yl)oxy)pyridin-2-yl)pyrimidin-4(3h)-one; 3-methyl-2-((1-methylethyl)amino)-5-(6-methyl-5-((2-(1-methyl-1h-pyrazol-4-yl)-4-pyridinyl)oxy)-2-pyridinyl)-4(3h)-pyrimidinone; 4(3h)-pyrimidinone, 3-methyl-2-((1-methylethyl)amino)-5-(6-methyl-5-((2-(1-methyl-1h-pyrazol-4-yl)-4-pyridinyl)oxy)-2-pyridinyl)-

$$$$
