
 OpenBabel10282417072D

 63 65  0  0  1  0  0  0  0  0999 V2000
    4.4656    8.0045    0.0000 C   0  0  0  0  0  0  0  0  0  0  0  0
    3.6586    7.8330    0.0000 C   0  0  0  0  0  0  0  0  0  0  0  0
    5.0013    2.0625    0.0000 C   0  0  0  0  0  0  0  0  0  0  0  0
    5.0013    2.8875    0.0000 C   0  0  0  0  0  0  0  0  0  0  0  0
    5.7158    0.8250    0.0000 C   0  0  0  0  0  0  0  0  0  0  0  0
    6.4302    0.4125    0.0000 C   0  0  0  0  0  0  0  0  0  0  0  0
    4.8781    7.2900    0.0000 C   0  0  0  0  0  0  0  0  0  0  0  0
    7.1447    1.6500    0.0000 C   0  0  0  0  0  0  0  0  0  0  0  0
    2.8579    6.6000    0.0000 C   0  0  0  0  0  0  0  0  0  0  0  0
   -0.0000    4.1250    0.0000 C   0  0  0  0  0  0  0  0  0  0  0  0
    3.5724    2.8875    0.0000 C   0  0  0  0  0  0  0  0  0  0  0  0
    5.7158    1.6500    0.0000 C   0  0  0  0  0  0  0  0  0  0  0  0
    4.2868    3.3000    0.0000 C   0  0  0  0  0  0  0  0  0  0  0  0
    7.1447    0.8250    0.0000 C   0  0  0  0  0  0  0  0  0  0  0  0
    3.5724    7.0125    0.0000 C   0  0  0  0  0  0  0  0  0  0  0  0
   -0.7145    4.5375    0.0000 C   0  0  1  0  0  0  0  0  0  0  0  0
    6.4302    2.0625    0.0000 C   0  0  0  0  0  0  0  0  0  0  0  0
    2.8579    5.7750    0.0000 C   0  0  0  0  0  0  0  0  0  0  0  0
    4.2868    4.1250    0.0000 C   0  0  0  0  0  0  0  0  0  0  0  0
    2.1434    4.5375    0.0000 C   0  0  1  0  0  0  0  0  0  0  0  0
    2.8579    4.1250    0.0000 C   0  0  2  0  0  0  0  0  0  0  0  0
   -1.4289    4.1250    0.0000 C   0  0  0  0  0  0  0  0  0  0  0  0
    5.0013    4.5375    0.0000 C   0  0  0  0  0  0  0  0  0  0  0  0
    1.4289    4.1250    0.0000 C   0  0  0  0  0  0  0  0  0  0  0  0
   -0.7145    5.3625    0.0000 N   0  0  0  0  0  0  0  0  0  0  0  0
    2.1434    5.3625    0.0000 N   0  0  0  0  0  0  0  0  0  0  0  0
    3.5724    4.5375    0.0000 N   0  0  0  0  0  0  0  0  0  0  0  0
    7.8592    0.4125    0.0000 N   0  0  0  0  0  0  0  0  0  0  0  0
    6.4302    2.8875    0.0000 N   0  0  0  0  0  0  0  0  0  0  0  0
    3.5724    5.3625    0.0000 O   0  5  0  0  0  0  0  0  0  0  0  0
   -1.4289    3.3000    0.0000 O   0  0  0  0  0  0  0  0  0  0  0  0
   -2.1434    4.5375    0.0000 O   0  5  0  0  0  0  0  0  0  0  0  0
    5.0013    5.3625    0.0000 O   0  0  0  0  0  0  0  0  0  0  0  0
    5.7158    4.1250    0.0000 O   0  0  0  0  0  0  0  0  0  0  0  0
    1.4289    3.3000    0.0000 O   0  0  0  0  0  0  0  0  0  0  0  0
    8.5737    0.8250    0.0000 O   0  0  0  0  0  0  0  0  0  0  0  0
    7.8592   -0.4125    0.0000 O   0  0  0  0  0  0  0  0  0  0  0  0
    5.7158    3.3000    0.0000 O   0  0  0  0  0  0  0  0  0  0  0  0
    7.1447    3.3000    0.0000 O   0  0  0  0  0  0  0  0  0  0  0  0
    0.7145    4.5375    0.0000 O   0  0  0  0  0  0  0  0  0  0  0  0
    4.3260    6.6769    0.0000 S   0  0  0  0  0  0  0  0  0  0  0  0
    2.8579    3.3000    0.0000 S   0  0  0  0  0  0  0  0  0  0  0  0
    4.2868    1.6500    0.0000 H   0  0  0  0  0  0  0  0  0  0  0  0
    5.5316    3.5195    0.0000 H   0  0  0  0  0  0  0  0  0  0  0  0
   -0.7145    3.7125    0.0000 H   0  0  0  0  0  0  0  0  0  0  0  0
    2.1434    3.7125    0.0000 H   0  0  0  0  0  0  0  0  0  0  0  0
    2.8579    4.9500    0.0000 H   0  0  0  0  0  0  0  0  0  0  0  0
    4.8854    8.9473    0.0000 H   0  0  0  0  0  0  0  0  0  0  0  0
    2.8917    8.5235    0.0000 H   0  0  0  0  0  0  0  0  0  0  0  0
    4.8221    0.3090    0.0000 H   0  0  0  0  0  0  0  0  0  0  0  0
    6.4302   -0.6195    0.0000 H   0  0  0  0  0  0  0  0  0  0  0  0
    5.9044    7.1821    0.0000 H   0  0  0  0  0  0  0  0  0  0  0  0
    8.0384    2.1660    0.0000 H   0  0  0  0  0  0  0  0  0  0  0  0
    1.9313    7.1350    0.0000 H   0  0  0  0  0  0  0  0  0  0  0  0
    1.9313    6.0650    0.0000 H   0  0  0  0  0  0  0  0  0  0  0  0
    0.0000    3.0550    0.0000 H   0  0  0  0  0  0  0  0  0  0  0  0
    0.9266    3.5900    0.0000 H   0  0  0  0  0  0  0  0  0  0  0  0
    3.5724    1.8175    0.0000 H   0  0  0  0  0  0  0  0  0  0  0  0
    2.6458    2.3525    0.0000 H   0  0  0  0  0  0  0  0  0  0  0  0
    0.1688    5.8725    0.0000 H   0  0  0  0  0  0  0  0  0  0  0  0
   -1.5978    5.8725    0.0000 H   0  0  0  0  0  0  0  0  0  0  0  0
    3.5724    5.5220    0.0000 H   0  0  0  0  0  0  0  0  0  0  0  0
    5.7158    3.1880    0.0000 H   0  0  0  0  0  0  0  0  0  0  0  0
  1 48  1  0  0  0  0
  2  1  1  0  0  0  0
  2 49  1  0  0  0  0
  4  3  2  0  0  0  0
  5 50  1  0  0  0  0
  6  5  2  0  0  0  0
  6 51  1  0  0  0  0
  7  1  2  0  0  0  0
  7 52  1  0  0  0  0
  8 53  1  0  0  0  0
  9 54  1  0  0  0  0
  9 55  1  0  0  0  0
 10 56  1  0  0  0  0
 10 57  1  0  0  0  0
 11 58  1  0  0  0  0
 11 59  1  0  0  0  0
 12  3  1  0  0  0  0
 12  5  1  0  0  0  0
 13  4  1  0  0  0  0
 13 11  1  0  0  0  0
 14  6  1  0  0  0  0
 14  8  2  0  0  0  0
 15  2  2  0  0  0  0
 15  9  1  0  0  0  0
 16 10  1  0  0  0  0
 16 25  1  0  0  0  0
 16 45  1  6  0  0  0
 17  8  1  0  0  0  0
 17 12  2  0  0  0  0
 18  9  1  0  0  0  0
 18 30  1  0  0  0  0
 19 13  2  0  0  0  0
 20 26  1  0  0  0  0
 20 46  1  6  0  0  0
 21 20  1  0  0  0  0
 21 47  1  1  0  0  0
 22 16  1  0  0  0  0
 23 19  1  0  0  0  0
 24 20  1  0  0  0  0
 25 60  1  0  0  0  0
 25 61  1  0  0  0  0
 26 18  2  3  0  0  0
 27 19  1  0  0  0  0
 27 21  1  0  0  0  0
 27 62  1  0  0  0  0
 28 14  1  0  0  0  0
 29 17  1  0  0  0  0
 31 22  2  0  0  0  0
 32 22  1  0  0  0  0
 33 23  2  0  0  0  0
 34 23  1  0  0  0  0
 34 63  1  0  0  0  0
 35 24  2  0  0  0  0
 36 28  2  0  0  0  0
 37 28  2  0  0  0  0
 38 29  2  0  0  0  0
 39 29  2  0  0  0  0
 40 10  1  0  0  0  0
 40 24  1  0  0  0  0
 41  7  1  0  0  0  0
 41 15  1  0  0  0  0
 42 11  1  0  0  0  0
 42 21  1  0  0  0  0
 43  3  1  0  0  0  0
 44  4  1  0  0  0  0
M  CHG  2  30  -1  32  -1
M  END
>  <DRUGBANK_ID>
DB04041

>  <SECONDARY_ACCESSION_NUMBERS>
EXPT02306

>  <COMMON_NAME>
Nitrocefin Acyl-Serine

$$$$
