
 OpenBabel10282417072D

122124  0  0  0  0  0  0  0  0999 V2000
    1.3649    0.3525    0.0000 O   0  0  0  0  0  0  0  0  0  0  0  0
   -0.0599   -1.2974    0.0000 O   0  0  0  0  0  0  0  0  0  0  0  0
   -2.0249   -1.3575    0.0000 O   0  0  0  0  0  0  0  0  0  0  0  0
    3.1950   -0.1125    0.0000 O   0  0  0  0  0  0  0  0  0  0  0  0
    4.6500    1.5375    0.0000 O   0  0  0  0  0  0  0  0  0  0  0  0
   -1.6650    0.2774    0.0000 O   0  0  0  0  0  0  0  0  0  0  0  0
    2.7899    2.2725    0.0000 O   0  0  0  0  0  0  0  0  0  0  0  0
   -4.5899   -0.8325    0.0000 O   0  0  0  0  0  0  0  0  0  0  0  0
   -3.2399   -2.4524    0.0000 O   0  0  0  0  0  0  0  0  0  0  0  0
    5.3548    0.3075    0.0000 O   0  0  0  0  0  0  0  0  0  0  0  0
   -6.0599   -2.4524    0.0000 O   0  0  0  0  0  0  0  0  0  0  0  0
   -4.6200    2.4524    0.0000 O   0  0  0  0  0  0  0  0  0  0  0  0
   -5.3399   -1.2374    0.0000 O   0  0  0  0  0  0  0  0  0  0  0  0
   -1.7999    1.6425    0.0000 O   0  0  0  0  0  0  0  0  0  0  0  0
   -0.0599    1.1774    0.0000 N   0  0  0  0  0  0  0  0  0  0  0  0
    0.6600   -0.0675    0.0000 C   0  0  1  0  0  0  0  0  0  0  0  0
   -0.0599    0.3525    0.0000 C   0  0  1  0  0  0  0  0  0  0  0  0
   -0.7649   -0.0675    0.0000 C   0  0  2  0  0  0  0  0  0  0  0  0
   -0.7649   -0.8924    0.0000 C   0  0  1  0  0  0  0  0  0  0  0  0
    3.1950    1.5375    0.0000 C   0  0  1  0  0  0  0  0  0  0  0  0
    0.6600   -0.8924    0.0000 C   0  0  1  0  0  0  0  0  0  0  0  0
    2.4899    0.3075    0.0000 C   0  0  2  0  0  0  0  0  0  0  0  0
    3.9299    1.1325    0.0000 C   0  0  2  0  0  0  0  0  0  0  0  0
    2.4899    1.1325    0.0000 C   0  0  0  0  0  0  0  0  0  0  0  0
    3.9299    0.3075    0.0000 C   0  0  2  0  0  0  0  0  0  0  0  0
   -3.2099   -0.8024    0.0000 C   0  0  2  0  0  0  0  0  0  0  0  0
   -3.8850   -1.2374    0.0000 C   0  0  2  0  0  0  0  0  0  0  0  0
   -3.2099    0.0524    0.0000 C   0  0  2  0  0  0  0  0  0  0  0  0
    3.6148    2.2725    0.0000 C   0  0  0  0  0  0  0  0  0  0  0  0
    1.3649   -1.2974    0.0000 C   0  0  0  0  0  0  0  0  0  0  0  0
   -3.8850   -2.0474    0.0000 C   0  0  1  0  0  0  0  0  0  0  0  0
    5.3548    1.1325    0.0000 C   0  0  0  0  0  0  0  0  0  0  0  0
    4.6500   -0.1125    0.0000 C   0  0  0  0  0  0  0  0  0  0  0  0
    0.6600    1.5975    0.0000 C   0  0  0  0  0  0  0  0  0  0  0  0
   -0.7649    1.5975    0.0000 C   0  0  0  0  0  0  0  0  0  0  0  0
   -3.9149    0.4424    0.0000 C   0  0  0  0  0  0  0  0  0  0  0  0
   -2.5200    0.4424    0.0000 C   0  0  0  0  0  0  0  0  0  0  0  0
   -3.9149    1.2374    0.0000 C   0  0  2  0  0  0  0  0  0  0  0  0
   -4.6200   -2.4524    0.0000 C   0  0  0  0  0  0  0  0  0  0  0  0
    6.0749    1.5375    0.0000 C   0  0  0  0  0  0  0  0  0  0  0  0
   -4.6200    1.6425    0.0000 C   0  0  2  0  0  0  0  0  0  0  0  0
   -5.3399   -2.0474    0.0000 C   0  0  0  0  0  0  0  0  0  0  0  0
   -2.5200    1.2825    0.0000 C   0  0  0  0  0  0  0  0  0  0  0  0
    6.7799    1.1325    0.0000 C   0  0  0  0  0  0  0  0  0  0  0  0
   -4.5899    0.0225    0.0000 C   0  0  0  0  0  0  0  0  0  0  0  0
   -3.2999    1.7324    0.0000 C   0  0  0  0  0  0  0  0  0  0  0  0
   -5.3399    1.2374    0.0000 C   0  0  0  0  0  0  0  0  0  0  0  0
   -6.7649   -2.0474    0.0000 C   0  0  1  0  0  0  0  0  0  0  0  0
    7.4999    1.5375    0.0000 C   0  0  0  0  0  0  0  0  0  0  0  0
    6.7799    0.3075    0.0000 C   0  0  0  0  0  0  0  0  0  0  0  0
   -5.3399    0.4424    0.0000 C   0  0  0  0  0  0  0  0  0  0  0  0
   -6.7649   -1.2374    0.0000 C   0  0  0  0  0  0  0  0  0  0  0  0
   -6.0599    0.0524    0.0000 C   0  0  0  0  0  0  0  0  0  0  0  0
   -6.0599   -0.8024    0.0000 C   0  0  0  0  0  0  0  0  0  0  0  0
   -7.4999   -2.4524    0.0000 C   0  0  0  0  0  0  0  0  0  0  0  0
   -1.8173    1.2354    0.0000 H   0  0  0  0  0  0  0  0  0  0  0  0
    3.2915    3.1027    0.0000 H   0  0  0  0  0  0  0  0  0  0  0  0
   -3.2758   -3.4217    0.0000 H   0  0  0  0  0  0  0  0  0  0  0  0
   -3.7800    2.9374    0.0000 H   0  0  0  0  0  0  0  0  0  0  0  0
    0.6551    1.0025    0.0000 H   0  0  0  0  0  0  0  0  0  0  0  0
    0.8680    0.8854    0.0000 H   0  0  0  0  0  0  0  0  0  0  0  0
   -0.8565    0.9986    0.0000 H   0  0  0  0  0  0  0  0  0  0  0  0
   -0.8546   -1.9586    0.0000 H   0  0  0  0  0  0  0  0  0  0  0  0
    0.6552   -1.9624    0.0000 H   0  0  0  0  0  0  0  0  0  0  0  0
    2.1854   -0.7182    0.0000 H   0  0  0  0  0  0  0  0  0  0  0  0
    3.9253    2.2025    0.0000 H   0  0  0  0  0  0  0  0  0  0  0  0
    1.5638    1.6685    0.0000 H   0  0  0  0  0  0  0  0  0  0  0  0
    1.5630    0.5980    0.0000 H   0  0  0  0  0  0  0  0  0  0  0  0
    3.9252   -0.7625    0.0000 H   0  0  0  0  0  0  0  0  0  0  0  0
   -3.1381   -1.8700    0.0000 H   0  0  0  0  0  0  0  0  0  0  0  0
   -3.9123   -0.1677    0.0000 H   0  0  0  0  0  0  0  0  0  0  0  0
   -2.2857   -0.4868    0.0000 H   0  0  0  0  0  0  0  0  0  0  0  0
    4.6848    2.2775    0.0000 H   0  0  0  0  0  0  0  0  0  0  0  0
    3.0755    3.1966    0.0000 H   0  0  0  0  0  0  0  0  0  0  0  0
    4.1455    3.2016    0.0000 H   0  0  0  0  0  0  0  0  0  0  0  0
    1.3672   -2.3674    0.0000 H   0  0  0  0  0  0  0  0  0  0  0  0
    2.2904   -0.7605    0.0000 H   0  0  0  0  0  0  0  0  0  0  0  0
    2.2927   -1.8305    0.0000 H   0  0  0  0  0  0  0  0  0  0  0  0
   -2.9486   -1.5296    0.0000 H   0  0  0  0  0  0  0  0  0  0  0  0
    4.6453   -1.1825    0.0000 H   0  0  0  0  0  0  0  0  0  0  0  0
    5.5790    0.4184    0.0000 H   0  0  0  0  0  0  0  0  0  0  0  0
    5.5743   -0.6516    0.0000 H   0  0  0  0  0  0  0  0  0  0  0  0
    1.5891    1.0668    0.0000 H   0  0  0  0  0  0  0  0  0  0  0  0
    0.6550    2.6675    0.0000 H   0  0  0  0  0  0  0  0  0  0  0  0
    1.5842    2.1368    0.0000 H   0  0  0  0  0  0  0  0  0  0  0  0
   -0.7501    2.6674    0.0000 H   0  0  0  0  0  0  0  0  0  0  0  0
   -1.6988    1.0753    0.0000 H   0  0  0  0  0  0  0  0  0  0  0  0
   -1.6841    2.1452    0.0000 H   0  0  0  0  0  0  0  0  0  0  0  0
   -4.8366   -0.1011    0.0000 H   0  0  0  0  0  0  0  0  0  0  0  0
   -4.8440    0.9732    0.0000 H   0  0  0  0  0  0  0  0  0  0  0  0
   -1.5958   -0.0968    0.0000 H   0  0  0  0  0  0  0  0  0  0  0  0
   -1.5921    0.9753    0.0000 H   0  0  0  0  0  0  0  0  0  0  0  0
   -2.9498    0.7753    0.0000 H   0  0  0  0  0  0  0  0  0  0  0  0
   -4.6247   -3.5224    0.0000 H   0  0  0  0  0  0  0  0  0  0  0  0
   -5.5448   -2.9905    0.0000 H   0  0  0  0  0  0  0  0  0  0  0  0
    6.0798    2.6075    0.0000 H   0  0  0  0  0  0  0  0  0  0  0  0
    7.0022    2.0714    0.0000 H   0  0  0  0  0  0  0  0  0  0  0  0
   -3.6939    2.1785    0.0000 H   0  0  0  0  0  0  0  0  0  0  0  0
   -3.3979    1.8251    0.0000 H   0  0  0  0  0  0  0  0  0  0  0  0
    7.7035    0.5923    0.0000 H   0  0  0  0  0  0  0  0  0  0  0  0
   -3.6633    0.5575    0.0000 H   0  0  0  0  0  0  0  0  0  0  0  0
   -5.5165    0.5575    0.0000 H   0  0  0  0  0  0  0  0  0  0  0  0
   -4.5899    1.0925    0.0000 H   0  0  0  0  0  0  0  0  0  0  0  0
   -2.3021    1.3460    0.0000 H   0  0  0  0  0  0  0  0  0  0  0  0
   -3.4641    2.7897    0.0000 H   0  0  0  0  0  0  0  0  0  0  0  0
   -2.4664    2.4033    0.0000 H   0  0  0  0  0  0  0  0  0  0  0  0
   -6.2308    1.7583    0.0000 H   0  0  0  0  0  0  0  0  0  0  0  0
   -6.7744   -3.1174    0.0000 H   0  0  0  0  0  0  0  0  0  0  0  0
    8.4205    0.9921    0.0000 H   0  0  0  0  0  0  0  0  0  0  0  0
    7.5119    2.6074    0.0000 H   0  0  0  0  0  0  0  0  0  0  0  0
    8.4325    2.0621    0.0000 H   0  0  0  0  0  0  0  0  0  0  0  0
    5.8533   -0.2275    0.0000 H   0  0  0  0  0  0  0  0  0  0  0  0
    7.7065   -0.2275    0.0000 H   0  0  0  0  0  0  0  0  0  0  0  0
    6.7799   -0.7625    0.0000 H   0  0  0  0  0  0  0  0  0  0  0  0
   -4.4533   -0.0857    0.0000 H   0  0  0  0  0  0  0  0  0  0  0  0
   -7.6993   -0.7160    0.0000 H   0  0  0  0  0  0  0  0  0  0  0  0
   -6.7884   -0.1677    0.0000 H   0  0  0  0  0  0  0  0  0  0  0  0
   -6.9465    0.5805    0.0000 H   0  0  0  0  0  0  0  0  0  0  0  0
   -5.1587   -1.3053    0.0000 H   0  0  0  0  0  0  0  0  0  0  0  0
   -8.4157   -1.8990    0.0000 H   0  0  0  0  0  0  0  0  0  0  0  0
   -7.5213   -3.5222    0.0000 H   0  0  0  0  0  0  0  0  0  0  0  0
   -8.4370   -2.9688    0.0000 H   0  0  0  0  0  0  0  0  0  0  0  0
  2 19  1  0  0  0  0
  2 21  1  0  0  0  0
  4 22  1  0  0  0  0
  4 25  1  0  0  0  0
  5 32  1  0  0  0  0
  6 56  1  0  0  0  0
  7 57  1  0  0  0  0
  8 45  1  0  0  0  0
  9 58  1  0  0  0  0
 10 32  2  0  0  0  0
 11 42  1  0  0  0  0
 11 48  1  0  0  0  0
 12 59  1  0  0  0  0
 13 42  2  0  0  0  0
 14 43  2  0  0  0  0
 15 34  1  0  0  0  0
 15 35  1  0  0  0  0
 16  1  1  0  0  0  0
 16 17  1  0  0  0  0
 16 21  1  0  0  0  0
 16 60  1  1  0  0  0
 17 15  1  0  0  0  0
 17 18  1  0  0  0  0
 17 61  1  6  0  0  0
 18  6  1  0  0  0  0
 18 19  1  0  0  0  0
 18 62  1  1  0  0  0
 19  3  1  0  0  0  0
 19 63  1  6  0  0  0
 20  7  1  1  0  0  0
 20 23  1  0  0  0  0
 20 24  1  0  0  0  0
 20 29  1  0  0  0  0
 21 30  1  0  0  0  0
 21 64  1  6  0  0  0
 22  1  1  0  0  0  0
 22 24  1  0  0  0  0
 22 65  1  6  0  0  0
 23  5  1  0  0  0  0
 23 25  1  0  0  0  0
 23 66  1  6  0  0  0
 24 67  1  0  0  0  0
 24 68  1  0  0  0  0
 25 33  1  0  0  0  0
 25 69  1  1  0  0  0
 26  3  1  0  0  0  0
 26 27  1  0  0  0  0
 26 28  1  0  0  0  0
 26 70  1  1  0  0  0
 27  8  1  0  0  0  0
 27 31  1  0  0  0  0
 27 71  1  1  0  0  0
 28 36  1  0  0  0  0
 28 37  1  0  0  0  0
 28 72  1  1  0  0  0
 29 73  1  0  0  0  0
 29 74  1  0  0  0  0
 29 75  1  0  0  0  0
 30 76  1  0  0  0  0
 30 77  1  0  0  0  0
 30 78  1  0  0  0  0
 31  9  1  0  0  0  0
 31 39  1  0  0  0  0
 31 79  1  1  0  0  0
 32 40  1  0  0  0  0
 33 80  1  0  0  0  0
 33 81  1  0  0  0  0
 33 82  1  0  0  0  0
 34 83  1  0  0  0  0
 34 84  1  0  0  0  0
 34 85  1  0  0  0  0
 35 86  1  0  0  0  0
 35 87  1  0  0  0  0
 35 88  1  0  0  0  0
 36 38  1  0  0  0  0
 36 89  1  0  0  0  0
 36 90  1  0  0  0  0
 37 43  1  0  0  0  0
 37 91  1  0  0  0  0
 37 92  1  0  0  0  0
 38 41  1  0  0  0  0
 38 46  1  0  0  0  0
 38 93  1  1  0  0  0
 39 42  1  0  0  0  0
 39 94  1  0  0  0  0
 39 95  1  0  0  0  0
 40 44  1  0  0  0  0
 40 96  1  0  0  0  0
 40 97  1  0  0  0  0
 41 12  1  0  0  0  0
 41 47  1  0  0  0  0
 41 98  1  1  0  0  0
 43 99  1  0  0  0  0
 44 49  1  0  0  0  0
 44 50  1  0  0  0  0
 44100  1  0  0  0  0
 45101  1  0  0  0  0
 45102  1  0  0  0  0
 45103  1  0  0  0  0
 46104  1  0  0  0  0
 46105  1  0  0  0  0
 46106  1  0  0  0  0
 47 51  2  0  0  0  0
 47107  1  0  0  0  0
 48 52  1  0  0  0  0
 48 55  1  0  0  0  0
 48108  1  1  0  0  0
 49109  1  0  0  0  0
 49110  1  0  0  0  0
 49111  1  0  0  0  0
 50112  1  0  0  0  0
 50113  1  0  0  0  0
 50114  1  0  0  0  0
 51 53  1  0  0  0  0
 51115  1  0  0  0  0
 52 54  1  0  0  0  0
 52116  1  0  0  0  0
 52117  1  0  0  0  0
 53 54  2  0  0  0  0
 53118  1  0  0  0  0
 54119  1  0  0  0  0
 55120  1  0  0  0  0
 55121  1  0  0  0  0
 55122  1  0  0  0  0
M  END
>  <DRUGBANK_ID>
DB09309

>  <COMMON_NAME>
Kitasamycin

>  <CAS_NUMBER>
1392-21-8

>  <UNII>
YX09Z4QW5Y

>  <SYNONYMS>
Leucomycin

$$$$
