
 OpenBabel10282417072D

 18 17  0  0  0  0  0  0  0  0999 V2000
   -1.2389    0.3567    0.0000 C   0  0  0  0  0  0  0  0  0  0  0  0
   -0.4138    0.3567    0.0000 C   0  0  1  0  0  0  0  0  0  0  0  0
    0.0000    1.0728    0.0000 O   0  0  0  0  0  0  0  0  0  0  0  0
    0.0000   -0.3567    0.0000 C   0  0  2  0  0  0  0  0  0  0  0  0
   -0.4138   -1.0728    0.0000 N   0  0  0  0  0  0  0  0  0  0  0  0
    0.8250   -0.3567    0.0000 C   0  0  0  0  0  0  0  0  0  0  0  0
    1.2389   -1.0728    0.0000 O   0  0  0  0  0  0  0  0  0  0  0  0
   -1.7739    1.2833    0.0000 H   0  0  0  0  0  0  0  0  0  0  0  0
   -1.7739   -0.5699    0.0000 H   0  0  0  0  0  0  0  0  0  0  0  0
   -2.3089    0.3567    0.0000 H   0  0  0  0  0  0  0  0  0  0  0  0
   -0.9486    1.2834    0.0000 H   0  0  0  0  0  0  0  0  0  0  0  0
    0.9700    1.0724    0.0000 H   0  0  0  0  0  0  0  0  0  0  0  0
   -1.0700   -0.3576    0.0000 H   0  0  0  0  0  0  0  0  0  0  0  0
   -1.4338   -1.0724    0.0000 H   0  0  0  0  0  0  0  0  0  0  0  0
    0.0959   -1.9563    0.0000 H   0  0  0  0  0  0  0  0  0  0  0  0
    1.3598    0.5701    0.0000 H   0  0  0  0  0  0  0  0  0  0  0  0
    1.8950   -0.3563    0.0000 H   0  0  0  0  0  0  0  0  0  0  0  0
    0.7543   -1.9131    0.0000 H   0  0  0  0  0  0  0  0  0  0  0  0
  1  2  1  0  0  0  0
  1  8  1  0  0  0  0
  1  9  1  0  0  0  0
  1 10  1  0  0  0  0
  2  3  1  0  0  0  0
  2  4  1  0  0  0  0
  2 11  1  6  0  0  0
  3 12  1  0  0  0  0
  4  5  1  0  0  0  0
  4  6  1  0  0  0  0
  4 13  1  6  0  0  0
  5 14  1  0  0  0  0
  5 15  1  0  0  0  0
  6  7  1  0  0  0  0
  6 16  1  0  0  0  0
  6 17  1  0  0  0  0
  7 18  1  0  0  0  0
M  END
>  <DRUGBANK_ID>
DB01724

>  <SECONDARY_ACCESSION_NUMBERS>
EXPT03054

>  <COMMON_NAME>
L-Threoninol

>  <CAS_NUMBER>
3228-51-1

>  <UNII>
A16V466XOD

$$$$
