
 OpenBabel10282417072D

 41 43  0  0  0  0  0  0  0  0999 V2000
   -2.5835    1.4766    0.0000 C   0  0  0  0  0  0  0  0  0  0  0  0
   -2.5835    2.3016    0.0000 C   0  0  0  0  0  0  0  0  0  0  0  0
   -1.8690    2.7141    0.0000 C   0  0  0  0  0  0  0  0  0  0  0  0
   -1.1545    2.3016    0.0000 C   0  0  0  0  0  0  0  0  0  0  0  0
   -1.1545    1.4766    0.0000 C   0  0  0  0  0  0  0  0  0  0  0  0
   -1.8690    1.0641    0.0000 C   0  0  0  0  0  0  0  0  0  0  0  0
   -1.8690    3.5391    0.0000 F   0  0  0  0  0  0  0  0  0  0  0  0
   -1.8690    0.2391    0.0000 C   0  0  1  0  0  0  0  0  0  0  0  0
   -2.5835   -0.1733    0.0000 C   0  0  0  0  0  0  0  0  0  0  0  0
   -2.5835   -0.9983    0.0000 O   0  0  0  0  0  0  0  0  0  0  0  0
   -3.2979    0.2391    0.0000 O   0  0  0  0  0  0  0  0  0  0  0  0
   -1.1545   -0.1733    0.0000 N   0  0  0  0  0  0  0  0  0  0  0  0
   -1.1545   -0.9983    0.0000 C   0  0  0  0  0  0  0  0  0  0  0  0
   -0.4871   -1.4832    0.0000 S   0  0  0  0  0  0  0  0  0  0  0  0
   -0.7420   -2.2678    0.0000 C   0  0  0  0  0  0  0  0  0  0  0  0
   -1.5670   -2.2678    0.0000 C   0  0  0  0  0  0  0  0  0  0  0  0
   -1.8220   -1.4832    0.0000 N   0  0  0  0  0  0  0  0  0  0  0  0
   -2.0520   -2.9353    0.0000 O   0  0  0  0  0  0  0  0  0  0  0  0
   -0.2571   -2.9353    0.0000 C   0  0  0  0  0  0  0  0  0  0  0  0
    0.5633   -2.8490    0.0000 C   0  0  0  0  0  0  0  0  0  0  0  0
    0.9758   -2.1346    0.0000 C   0  0  0  0  0  0  0  0  0  0  0  0
    1.7827   -2.3061    0.0000 C   0  0  0  0  0  0  0  0  0  0  0  0
    1.8690   -3.1266    0.0000 C   0  0  0  0  0  0  0  0  0  0  0  0
    1.1153   -3.4621    0.0000 O   0  0  0  0  0  0  0  0  0  0  0  0
    2.5834   -3.5391    0.0000 C   0  0  0  0  0  0  0  0  0  0  0  0
    3.2979   -3.1266    0.0000 C   0  0  0  0  0  0  0  0  0  0  0  0
   -3.4772    0.9606    0.0000 H   0  0  0  0  0  0  0  0  0  0  0  0
   -3.4772    2.8176    0.0000 H   0  0  0  0  0  0  0  0  0  0  0  0
   -0.2608    2.8176    0.0000 H   0  0  0  0  0  0  0  0  0  0  0  0
   -0.2608    0.9606    0.0000 H   0  0  0  0  0  0  0  0  0  0  0  0
   -0.9424    0.7742    0.0000 H   0  0  0  0  0  0  0  0  0  0  0  0
   -3.2980    1.1761    0.0000 H   0  0  0  0  0  0  0  0  0  0  0  0
   -0.3019    0.3190    0.0000 H   0  0  0  0  0  0  0  0  0  0  0  0
   -0.6768   -3.8781    0.0000 H   0  0  0  0  0  0  0  0  0  0  0  0
    0.5561   -1.1918    0.0000 H   0  0  0  0  0  0  0  0  0  0  0  0
    2.5496   -1.6155    0.0000 H   0  0  0  0  0  0  0  0  0  0  0  0
    2.5834   -4.6091    0.0000 H   0  0  0  0  0  0  0  0  0  0  0  0
    3.5100   -4.0741    0.0000 H   0  0  0  0  0  0  0  0  0  0  0  0
    4.2245   -3.6616    0.0000 H   0  0  0  0  0  0  0  0  0  0  0  0
    3.2979   -2.0566    0.0000 H   0  0  0  0  0  0  0  0  0  0  0  0
    4.2246   -2.5916    0.0000 H   0  0  0  0  0  0  0  0  0  0  0  0
  1  2  2  0  0  0  0
  1  6  1  0  0  0  0
  1 27  1  0  0  0  0
  2  3  1  0  0  0  0
  2 28  1  0  0  0  0
  3  4  2  0  0  0  0
  3  7  1  0  0  0  0
  4  5  1  0  0  0  0
  4 29  1  0  0  0  0
  5  6  2  0  0  0  0
  5 30  1  0  0  0  0
  6  8  1  0  0  0  0
  8 12  1  0  0  0  0
  8  9  1  0  0  0  0
  8 31  1  1  0  0  0
  9 10  2  0  0  0  0
  9 11  1  0  0  0  0
 11 32  1  0  0  0  0
 12 33  1  0  0  0  0
 13 12  1  0  0  0  0
 13 14  1  0  0  0  0
 13 17  2  0  0  0  0
 15 14  1  0  0  0  0
 15 19  2  0  0  0  0
 15 16  1  0  0  0  0
 16 17  1  0  0  0  0
 16 18  2  0  0  0  0
 19 20  1  0  0  0  0
 19 34  1  0  0  0  0
 20 21  2  0  0  0  0
 20 24  1  0  0  0  0
 21 22  1  0  0  0  0
 21 35  1  0  0  0  0
 22 23  2  0  0  0  0
 22 36  1  0  0  0  0
 23 25  1  0  0  0  0
 23 24  1  0  0  0  0
 25 26  1  0  0  0  0
 25 37  1  0  0  0  0
 25 38  1  0  0  0  0
 26 39  1  0  0  0  0
 26 40  1  0  0  0  0
 26 41  1  0  0  0  0
M  END
>  <DRUGBANK_ID>
DB08706

>  <COMMON_NAME>
(2S)-({(5Z)-5-[(5-Ethyl-2-furyl)methylene]-4-oxo-4,5-dihydro-1,3-thiazol-2-yl}amino)(4-fluorophenyl)acetic acid

$$$$
