ATE
 OpenBabel10282417072D

 50 53  0  0  0  0  0  0  0  0999 V2000
    3.2286    0.4743    0.0000 O   0  0  0  0  0  0  0  0  0  0  0  0
    2.4165    0.3291    0.0000 C   0  0  2  0  0  0  0  0  0  0  0  0
    2.1362   -0.4468    0.0000 C   0  0  0  0  0  0  0  0  0  0  0  0
    1.3241   -0.5920    0.0000 C   0  0  0  0  0  0  0  0  0  0  0  0
    1.8847    0.9598    0.0000 C   0  0  0  0  0  0  0  0  0  0  0  0
    1.0725    0.8146    0.0000 C   0  0  2  0  0  0  0  0  0  0  0  0
    0.5407    1.4453    0.0000 C   0  0  0  0  0  0  0  0  0  0  0  0
    0.7922    0.0387    0.0000 C   0  0  2  0  0  0  0  0  0  0  0  0
    0.5119   -0.7372    0.0000 C   0  0  0  0  0  0  0  0  0  0  0  0
   -0.0199   -0.1065    0.0000 C   0  0  1  0  0  0  0  0  0  0  0  0
   -0.3002   -0.8824    0.0000 C   0  0  0  0  0  0  0  0  0  0  0  0
   -0.5517    0.5242    0.0000 C   0  0  1  0  0  0  0  0  0  0  0  0
   -0.2714    1.3001    0.0000 C   0  0  0  0  0  0  0  0  0  0  0  0
   -1.3638    0.3790    0.0000 C   0  0  2  0  0  0  0  0  0  0  0  0
   -2.0151    0.8853    0.0000 C   0  0  0  0  0  0  0  0  0  0  0  0
   -1.6441   -0.3969    0.0000 C   0  0  1  0  0  0  0  0  0  0  0  0
   -1.1123   -1.0277    0.0000 C   0  0  0  0  0  0  0  0  0  0  0  0
   -2.0040   -1.1393    0.0000 C   0  0  0  0  0  0  0  0  0  0  0  0
   -2.4687   -0.3701    0.0000 C   0  0  0  0  0  0  0  0  0  0  0  0
   -2.6980    0.4223    0.0000 C   0  0  0  0  0  0  0  0  0  0  0  0
    2.7929   -0.1173    0.0000 H   0  0  0  0  0  0  0  0  0  0  0  0
    1.2709    1.3638    0.0000 H   0  0  0  0  0  0  0  0  0  0  0  0
    0.3565   -0.5529    0.0000 H   0  0  0  0  0  0  0  0  0  0  0  0
   -0.9281    0.9706    0.0000 H   0  0  0  0  0  0  0  0  0  0  0  0
   -1.2239    0.9459    0.0000 H   0  0  0  0  0  0  0  0  0  0  0  0
    3.8539   -0.2673    0.0000 H   0  0  0  0  0  0  0  0  0  0  0  0
    2.8259   -1.2648    0.0000 H   0  0  0  0  0  0  0  0  0  0  0  0
    1.7726   -1.4531    0.0000 H   0  0  0  0  0  0  0  0  0  0  0  0
    0.9606   -1.5984    0.0000 H   0  0  0  0  0  0  0  0  0  0  0  0
    0.2708   -0.7804    0.0000 H   0  0  0  0  0  0  0  0  0  0  0  0
    2.2483    1.9661    0.0000 H   0  0  0  0  0  0  0  0  0  0  0  0
    1.1950    1.7778    0.0000 H   0  0  0  0  0  0  0  0  0  0  0  0
    0.9043    2.4516    0.0000 H   0  0  0  0  0  0  0  0  0  0  0  0
   -0.1490    2.2633    0.0000 H   0  0  0  0  0  0  0  0  0  0  0  0
   -0.5414   -0.9255    0.0000 H   0  0  0  0  0  0  0  0  0  0  0  0
    1.2016   -1.5552    0.0000 H   0  0  0  0  0  0  0  0  0  0  0  0
    0.1483   -1.7435    0.0000 H   0  0  0  0  0  0  0  0  0  0  0  0
    0.3896   -1.7004    0.0000 H   0  0  0  0  0  0  0  0  0  0  0  0
   -0.6637   -1.8888    0.0000 H   0  0  0  0  0  0  0  0  0  0  0  0
   -0.9611    2.1181    0.0000 H   0  0  0  0  0  0  0  0  0  0  0  0
   -1.3247    1.1118    0.0000 H   0  0  0  0  0  0  0  0  0  0  0  0
   -1.9803    1.9547    0.0000 H   0  0  0  0  0  0  0  0  0  0  0  0
   -2.9522    1.4018    0.0000 H   0  0  0  0  0  0  0  0  0  0  0  0
   -1.4758   -2.0341    0.0000 H   0  0  0  0  0  0  0  0  0  0  0  0
   -2.1656   -1.2160    0.0000 H   0  0  0  0  0  0  0  0  0  0  0  0
   -3.0712   -1.2165    0.0000 H   0  0  0  0  0  0  0  0  0  0  0  0
   -1.4035   -2.0249    0.0000 H   0  0  0  0  0  0  0  0  0  0  0  0
   -2.4708   -2.1021    0.0000 H   0  0  0  0  0  0  0  0  0  0  0  0
   -3.1021   -1.1849    0.0000 H   0  0  0  0  0  0  0  0  0  0  0  0
   -3.6686    0.7729    0.0000 H   0  0  0  0  0  0  0  0  0  0  0  0
  1 26  1  0  0  0  0
  2  1  1  0  0  0  0
  2  3  1  0  0  0  0
  2  5  1  0  0  0  0
  2 21  1  1  0  0  0
  3  4  1  0  0  0  0
  3 27  1  0  0  0  0
  3 28  1  0  0  0  0
  4  8  1  0  0  0  0
  4 29  1  0  0  0  0
  4 30  1  0  0  0  0
  5  6  1  0  0  0  0
  5 31  1  0  0  0  0
  5 32  1  0  0  0  0
  6  7  1  0  0  0  0
  6  8  1  0  0  0  0
  6 22  1  6  0  0  0
  7 13  1  0  0  0  0
  7 33  1  0  0  0  0
  7 34  1  0  0  0  0
  8  9  1  1  0  0  0
  8 10  1  0  0  0  0
  9 35  1  0  0  0  0
  9 36  1  0  0  0  0
  9 37  1  0  0  0  0
 10 11  1  0  0  0  0
 10 12  1  0  0  0  0
 10 23  1  6  0  0  0
 11 17  1  0  0  0  0
 11 38  1  0  0  0  0
 11 39  1  0  0  0  0
 12 13  1  0  0  0  0
 12 14  1  0  0  0  0
 12 24  1  1  0  0  0
 13 40  1  0  0  0  0
 13 41  1  0  0  0  0
 14 15  1  0  0  0  0
 14 16  1  0  0  0  0
 14 25  1  6  0  0  0
 15 20  1  0  0  0  0
 15 42  1  0  0  0  0
 15 43  1  0  0  0  0
 16 17  1  0  0  0  0
 16 18  1  1  0  0  0
 16 19  1  0  0  0  0
 17 44  1  0  0  0  0
 17 45  1  0  0  0  0
 18 46  1  0  0  0  0
 18 47  1  0  0  0  0
 18 48  1  0  0  0  0
 19 20  2  0  0  0  0
 19 49  1  0  0  0  0
 20 50  1  0  0  0  0
M  END
>  <DRUGBANK_ID>
DB01889

>  <SECONDARY_ACCESSION_NUMBERS>
EXPT00580

>  <COMMON_NAME>
16,17-Androstene-3-Ol

>  <CAS_NUMBER>
7148-51-8

>  <UNII>
48K9VAM062

$$$$
