
 OpenBabel10282417072D

 70 76  0  0  1  0  0  0  0  0999 V2000
    5.3269    1.6109    0.0000 H   0  0  0  0  0  0  0  0  0  0  0  0
    6.1117    1.3564    0.0000 C   0  0  1  0  0  0  0  0  0  0  0  0
    6.8264    0.9442    0.0000 C   0  0  0  0  0  0  0  0  0  0  0  0
    6.6552    0.1371    0.0000 C   0  0  0  0  0  0  0  0  0  0  0  0
    7.2075   -0.4757    0.0000 O   0  0  0  0  0  0  0  0  0  0  0  0
    5.8348    0.0505    0.0000 O   0  0  0  0  0  0  0  0  0  0  0  0
    5.4989    0.8040    0.0000 C   0  0  1  0  0  0  0  0  0  0  0  0
    4.9471    0.1907    0.0000 H   0  0  0  0  0  0  0  0  0  0  0  0
    4.7141    1.0586    0.0000 C   0  0  0  0  0  0  0  0  0  0  0  0
    4.5422    1.8655    0.0000 C   0  0  0  0  0  0  0  0  0  0  0  0
    5.1550    2.4178    0.0000 C   0  0  2  0  0  0  0  0  0  0  0  0
    4.9831    3.2247    0.0000 C   0  0  0  0  0  0  0  0  0  0  0  0
    5.9398    2.1632    0.0000 O   0  0  0  0  0  0  0  0  0  0  0  0
    3.7575    2.1200    0.0000 C   0  0  0  0  0  0  0  0  0  0  0  0
    3.5855    2.9269    0.0000 O   0  0  0  0  0  0  0  0  0  0  0  0
    3.1446    1.5677    0.0000 C   0  0  0  0  0  0  0  0  0  0  0  0
    3.3165    0.7608    0.0000 C   0  0  0  0  0  0  0  0  0  0  0  0
    4.1013    0.5063    0.0000 C   0  0  0  0  0  0  0  0  0  0  0  0
    4.2732   -0.3006    0.0000 O   0  0  0  0  0  0  0  0  0  0  0  0
    2.7037    0.2085    0.0000 C   0  0  0  0  0  0  0  0  0  0  0  0
    2.8756   -0.5984    0.0000 O   0  0  0  0  0  0  0  0  0  0  0  0
    1.9190    0.4631    0.0000 C   0  0  0  0  0  0  0  0  0  0  0  0
    1.3061   -0.0893    0.0000 C   0  0  1  0  0  0  0  0  0  0  0  0
    0.5214    0.1653    0.0000 C   0  0  0  0  0  0  0  0  0  0  0  0
    0.3495    0.9722    0.0000 C   0  0  1  0  0  0  0  0  0  0  0  0
   -0.4353    1.2267    0.0000 O   0  0  0  0  0  0  0  0  0  0  0  0
   -1.0481    0.6744    0.0000 C   0  0  1  0  0  0  0  0  0  0  0  0
   -0.8762   -0.1325    0.0000 C   0  0  0  0  0  0  0  0  0  0  0  0
   -1.4890   -0.6848    0.0000 C   0  0  0  0  0  0  0  0  0  0  0  0
   -2.2738   -0.4302    0.0000 C   0  0  2  0  0  0  0  0  0  0  0  0
   -2.8866   -0.9826    0.0000 O   0  0  0  0  0  0  0  0  0  0  0  0
   -2.4457    0.3767    0.0000 C   0  0  2  0  0  0  0  0  0  0  0  0
   -3.2304    0.6312    0.0000 C   0  0  0  0  0  0  0  0  0  0  0  0
   -1.8328    0.9290    0.0000 O   0  0  0  0  0  0  0  0  0  0  0  0
    0.9623    1.5245    0.0000 C   0  0  1  0  0  0  0  0  0  0  0  0
    0.7904    2.3314    0.0000 O   0  0  0  0  0  0  0  0  0  0  0  0
    0.9424    0.9579    0.0000 C   0  0  1  0  0  0  0  0  0  0  0  0
    0.1831    0.6355    0.0000 C   0  0  0  0  0  0  0  0  0  0  0  0
    1.0570    0.4200    0.0000 O   0  0  0  0  0  0  0  0  0  0  0  0
    1.7471    1.2699    0.0000 C   0  0  0  0  0  0  0  0  0  0  0  0
    2.3599    1.8223    0.0000 C   0  0  0  0  0  0  0  0  0  0  0  0
    2.1880    2.6292    0.0000 O   0  0  0  0  0  0  0  0  0  0  0  0
    7.8037    1.3798    0.0000 H   0  0  0  0  0  0  0  0  0  0  0  0
    7.6582    0.2712    0.0000 H   0  0  0  0  0  0  0  0  0  0  0  0
    4.1372    2.7480    0.0000 H   0  0  0  0  0  0  0  0  0  0  0  0
    5.7779    3.9410    0.0000 H   0  0  0  0  0  0  0  0  0  0  0  0
    3.9653    3.5549    0.0000 H   0  0  0  0  0  0  0  0  0  0  0  0
    4.7602    4.2712    0.0000 H   0  0  0  0  0  0  0  0  0  0  0  0
    2.1796   -1.2257    0.0000 H   0  0  0  0  0  0  0  0  0  0  0  0
    1.5094    0.9612    0.0000 H   0  0  0  0  0  0  0  0  0  0  0  0
   -0.2734   -0.5510    0.0000 H   0  0  0  0  0  0  0  0  0  0  0  0
   -0.4964    0.4955    0.0000 H   0  0  0  0  0  0  0  0  0  0  0  0
   -0.4453    0.2558    0.0000 H   0  0  0  0  0  0  0  0  0  0  0  0
   -0.0303    0.3442    0.0000 H   0  0  0  0  0  0  0  0  0  0  0  0
    0.1416   -0.4627    0.0000 H   0  0  0  0  0  0  0  0  0  0  0  0
   -0.6532   -1.1790    0.0000 H   0  0  0  0  0  0  0  0  0  0  0  0
   -1.2660   -1.7313    0.0000 H   0  0  0  0  0  0  0  0  0  0  0  0
   -2.2838   -1.4011    0.0000 H   0  0  0  0  0  0  0  0  0  0  0  0
   -2.0508   -1.4767    0.0000 H   0  0  0  0  0  0  0  0  0  0  0  0
   -3.8093   -0.6834    0.0000 H   0  0  0  0  0  0  0  0  0  0  0  0
   -3.2405   -0.3397    0.0000 H   0  0  0  0  0  0  0  0  0  0  0  0
   -3.4534    1.6777    0.0000 H   0  0  0  0  0  0  0  0  0  0  0  0
   -4.0252   -0.0852    0.0000 H   0  0  0  0  0  0  0  0  0  0  0  0
   -4.2482    0.9613    0.0000 H   0  0  0  0  0  0  0  0  0  0  0  0
    1.5110    2.9808    0.0000 H   0  0  0  0  0  0  0  0  0  0  0  0
    0.0606    1.5640    0.0000 H   0  0  0  0  0  0  0  0  0  0  0  0
   -0.6715    1.2794    0.0000 H   0  0  0  0  0  0  0  0  0  0  0  0
    0.0528   -0.4265    0.0000 H   0  0  0  0  0  0  0  0  0  0  0  0
   -0.8018    0.2173    0.0000 H   0  0  0  0  0  0  0  0  0  0  0  0
    2.8840    3.2565    0.0000 H   0  0  0  0  0  0  0  0  0  0  0  0
  2  1  1  6  0  0  0
  2  3  1  0  0  0  0
  2  7  1  0  0  0  0
  2 13  1  0  0  0  0
  3  4  1  0  0  0  0
  3 43  1  0  0  0  0
  3 44  1  0  0  0  0
  4  5  2  0  0  0  0
  4  6  1  0  0  0  0
  7  6  1  0  0  0  0
  7  8  1  6  0  0  0
  7  9  1  0  0  0  0
  9 10  2  0  0  0  0
  9 18  1  0  0  0  0
 10 14  1  0  0  0  0
 11 10  1  0  0  0  0
 11 12  1  0  0  0  0
 11 13  1  0  0  0  0
 11 45  1  1  0  0  0
 12 46  1  0  0  0  0
 12 47  1  0  0  0  0
 12 48  1  0  0  0  0
 14 15  2  0  0  0  0
 14 16  1  0  0  0  0
 16 17  2  0  0  0  0
 16 41  1  0  0  0  0
 17 18  1  0  0  0  0
 17 20  1  0  0  0  0
 18 19  2  0  0  0  0
 20 21  1  0  0  0  0
 20 22  2  0  0  0  0
 21 49  1  0  0  0  0
 22 40  1  0  0  0  0
 23 22  1  0  0  0  0
 23 24  1  0  0  0  0
 23 39  1  0  0  0  0
 23 50  1  6  0  0  0
 24 51  1  0  0  0  0
 24 52  1  0  0  0  0
 25 24  1  0  0  0  0
 25 26  1  0  0  0  0
 25 53  1  6  0  0  0
 27 26  1  0  0  0  0
 27 28  1  0  0  0  0
 27 34  1  0  0  0  0
 27 54  1  6  0  0  0
 28 29  1  0  0  0  0
 28 55  1  0  0  0  0
 28 56  1  0  0  0  0
 29 57  1  0  0  0  0
 29 58  1  0  0  0  0
 30 29  1  0  0  0  0
 30 31  1  0  0  0  0
 30 32  1  0  0  0  0
 30 59  1  1  0  0  0
 31 60  1  0  0  0  0
 32 33  1  0  0  0  0
 32 34  1  0  0  0  0
 32 61  1  1  0  0  0
 33 62  1  0  0  0  0
 33 63  1  0  0  0  0
 33 64  1  0  0  0  0
 35 25  1  0  0  0  0
 35 36  1  1  0  0  0
 35 37  1  0  0  0  0
 35 40  1  0  0  0  0
 36 65  1  0  0  0  0
 37 38  1  0  0  0  0
 37 39  1  0  0  0  0
 37 66  1  1  0  0  0
 38 67  1  0  0  0  0
 38 68  1  0  0  0  0
 38 69  1  0  0  0  0
 40 41  2  0  0  0  0
 41 42  1  0  0  0  0
 42 70  1  0  0  0  0
M  END
>  <DRUGBANK_ID>
DB17273

>  <COMMON_NAME>
Granaticin B

>  <CAS_NUMBER>
19879-03-9

>  <UNII>
JS606MEA30

>  <SYNONYMS>
8,11-ethanofuro(2,3-e)naphtho(2,3-c:6,7-c')dipyran-2,6,13(9h)-trione, 3,3a,5,8,11,13b-hexahydro-7,8,12-trihydroxy-5,9-dimethyl-15-(((2s,5s,6s)-tetrahydro-5-hydroxy-6-methyl-2h-pyran-2-yl)oxy)-, (3as,5s,8s,9r,11r,13bs,15r)-

$$$$
