537
 OpenBabel10282417072D

 42 45  0  0  0  0  0  0  0  0999 V2000
    7.1488    1.2022    0.0000 F   0  0  0  0  0  0  0  0  0  0  0  0
    4.2364    2.0072    0.0000 O   0  0  0  0  0  0  0  0  0  0  0  0
    2.0930    0.7697    0.0000 O   0  0  0  0  0  0  0  0  0  0  0  0
    2.8075    2.0072    0.0000 O   0  0  0  0  0  0  0  0  0  0  0  0
    4.2364   -0.4678    0.0000 N   0  0  0  0  0  0  0  0  0  0  0  0
    7.1488   -0.4877    0.0000 N   0  0  0  0  0  0  0  0  0  0  0  0
    8.5746   -1.3182    0.0000 N   0  0  0  0  0  0  0  0  0  0  0  0
    4.2364   -1.2928    0.0000 C   0  0  0  0  0  0  0  0  0  0  0  0
    3.8239   -2.0072    0.0000 C   0  0  0  0  0  0  0  0  0  0  0  0
    4.6489   -2.0072    0.0000 C   0  0  0  0  0  0  0  0  0  0  0  0
    4.9509   -0.0553    0.0000 C   0  0  0  0  0  0  0  0  0  0  0  0
    3.5220   -0.0553    0.0000 C   0  0  0  0  0  0  0  0  0  0  0  0
    4.9509    0.7697    0.0000 C   0  0  0  0  0  0  0  0  0  0  0  0
    5.6884   -0.4963    0.0000 C   0  0  0  0  0  0  0  0  0  0  0  0
    6.4359   -0.0724    0.0000 C   0  0  0  0  0  0  0  0  0  0  0  0
    7.8649   -0.0780    0.0000 C   0  0  0  0  0  0  0  0  0  0  0  0
    7.1456   -1.3127    0.0000 C   0  0  0  0  0  0  0  0  0  0  0  0
    3.5220    0.7697    0.0000 C   0  0  0  0  0  0  0  0  0  0  0  0
    4.2364    1.1822    0.0000 C   0  0  0  0  0  0  0  0  0  0  0  0
    8.5778   -0.4932    0.0000 C   0  0  0  0  0  0  0  0  0  0  0  0
    7.8585   -1.7280    0.0000 C   0  0  0  0  0  0  0  0  0  0  0  0
    5.6884    1.2109    0.0000 C   0  0  0  0  0  0  0  0  0  0  0  0
    6.4359    0.7869    0.0000 C   0  0  0  0  0  0  0  0  0  0  0  0
    2.8075    1.1822    0.0000 C   0  0  0  0  0  0  0  0  0  0  0  0
    1.2815    1.2382    0.0000 H   0  0  0  0  0  0  0  0  0  0  0  0
    9.4560   -1.8316    0.0000 H   0  0  0  0  0  0  0  0  0  0  0  0
    4.2364   -2.3628    0.0000 H   0  0  0  0  0  0  0  0  0  0  0  0
    2.8972   -2.5422    0.0000 H   0  0  0  0  0  0  0  0  0  0  0  0
    4.1008   -3.0407    0.0000 H   0  0  0  0  0  0  0  0  0  0  0  0
    5.5756   -2.5422    0.0000 H   0  0  0  0  0  0  0  0  0  0  0  0
    4.3720   -3.0407    0.0000 H   0  0  0  0  0  0  0  0  0  0  0  0
    2.6283   -0.5713    0.0000 H   0  0  0  0  0  0  0  0  0  0  0  0
    5.6765   -1.5282    0.0000 H   0  0  0  0  0  0  0  0  0  0  0  0
    7.8690    0.9920    0.0000 H   0  0  0  0  0  0  0  0  0  0  0  0
    8.7936    0.4535    0.0000 H   0  0  0  0  0  0  0  0  0  0  0  0
    6.2169   -1.8441    0.0000 H   0  0  0  0  0  0  0  0  0  0  0  0
    7.1414   -2.3827    0.0000 H   0  0  0  0  0  0  0  0  0  0  0  0
    9.5065    0.0382    0.0000 H   0  0  0  0  0  0  0  0  0  0  0  0
    8.5819    0.5768    0.0000 H   0  0  0  0  0  0  0  0  0  0  0  0
    7.8544   -2.7980    0.0000 H   0  0  0  0  0  0  0  0  0  0  0  0
    6.9298   -2.2594    0.0000 H   0  0  0  0  0  0  0  0  0  0  0  0
    5.6765    2.2428    0.0000 H   0  0  0  0  0  0  0  0  0  0  0  0
  1 23  1  0  0  0  0
  2 19  2  0  0  0  0
  3 24  1  0  0  0  0
  3 25  1  0  0  0  0
  4 24  2  0  0  0  0
  5  8  1  0  0  0  0
  5 11  1  0  0  0  0
  5 12  1  0  0  0  0
  6 15  1  0  0  0  0
  6 16  1  0  0  0  0
  6 17  1  0  0  0  0
  7 20  1  0  0  0  0
  7 21  1  0  0  0  0
  7 26  1  0  0  0  0
  8  9  1  0  0  0  0
  8 10  1  0  0  0  0
  8 27  1  0  0  0  0
  9 10  1  0  0  0  0
  9 28  1  0  0  0  0
  9 29  1  0  0  0  0
 10 30  1  0  0  0  0
 10 31  1  0  0  0  0
 11 13  1  0  0  0  0
 11 14  2  0  0  0  0
 12 18  2  0  0  0  0
 12 32  1  0  0  0  0
 13 19  1  0  0  0  0
 13 22  2  0  0  0  0
 14 15  1  0  0  0  0
 14 33  1  0  0  0  0
 15 23  2  0  0  0  0
 16 20  1  0  0  0  0
 16 34  1  0  0  0  0
 16 35  1  0  0  0  0
 17 21  1  0  0  0  0
 17 36  1  0  0  0  0
 17 37  1  0  0  0  0
 18 19  1  0  0  0  0
 18 24  1  0  0  0  0
 20 38  1  0  0  0  0
 20 39  1  0  0  0  0
 21 40  1  0  0  0  0
 21 41  1  0  0  0  0
 22 23  1  0  0  0  0
 22 42  1  0  0  0  0
M  END
>  <DRUGBANK_ID>
DB00537

>  <SECONDARY_ACCESSION_NUMBERS>
APRD00424; EXPT00999

>  <COMMON_NAME>
Ciprofloxacin

>  <CAS_NUMBER>
85721-33-1

>  <UNII>
5E8K9I0O4U

>  <SYNONYMS>
1-cyclopropyl-6-fluoro-1,4-dihydro-4-oxo-7-(1-piperazinyl)-3-quinolinecarboxylic acid; 1-cyclopropyl-6-fluoro-4-oxo-7-(piperazin-1-yl)-1,4-dihydroquinoline-3-carboxylic acid; 1-Cyclopropyl-6-fluoro-4-oxo-7-piperazin-1-yl-1,4-dihydro-quinoline-3-carboxylic acid; 1-cyclopropyl-6-fluoro-4-oxo-7-piperazin-1-ylquinoline-3-carboxylic acid; 1-Cyclopropyl-6-fluoro-7-(4-methyl-piperazin-1-yl)-4-oxo-1,4-dihydro-quinoline-3-carboxylic acid; 1-cyclopropyl-6-fluoro-7-hexahydro-1-pyrazinyl-4-oxo-1,4-dihydro-3-quinolinecarboxylic acid; Ciprofloxacin; Ciprofloxacine; Ciprofloxacino; Ciprofloxacinum

$$$$
