
 OpenBabel10282417072D

 24 24  0  0  0  0  0  0  0  0999 V2000
    0.7145    0.4125    0.0000 C   0  0  2  0  0  0  0  0  0  0  0  0
    0.7145   -0.4125    0.0000 C   0  0  1  0  0  0  0  0  0  0  0  0
    0.0000   -0.8251    0.0000 C   0  0  1  0  0  0  0  0  0  0  0  0
   -0.7145   -0.4125    0.0000 C   0  0  2  0  0  0  0  0  0  0  0  0
   -0.7145    0.4125    0.0000 C   0  0  1  0  0  0  0  0  0  0  0  0
    0.0000    0.8251    0.0000 C   0  0  1  0  0  0  0  0  0  0  0  0
    1.4290    0.8251    0.0000 O   0  0  0  0  0  0  0  0  0  0  0  0
    1.4290   -0.8251    0.0000 O   0  0  0  0  0  0  0  0  0  0  0  0
    0.0000   -1.6501    0.0000 O   0  0  0  0  0  0  0  0  0  0  0  0
   -1.4290   -0.8251    0.0000 O   0  0  0  0  0  0  0  0  0  0  0  0
   -1.4290    0.8251    0.0000 O   0  0  0  0  0  0  0  0  0  0  0  0
    0.0000    1.6501    0.0000 O   0  0  0  0  0  0  0  0  0  0  0  0
    1.6412   -0.1225    0.0000 H   0  0  0  0  0  0  0  0  0  0  0  0
    1.6412    0.1225    0.0000 H   0  0  0  0  0  0  0  0  0  0  0  0
    0.9267   -1.3601    0.0000 H   0  0  0  0  0  0  0  0  0  0  0  0
   -0.7145   -1.4825    0.0000 H   0  0  0  0  0  0  0  0  0  0  0  0
   -1.6412   -0.1225    0.0000 H   0  0  0  0  0  0  0  0  0  0  0  0
    0.9267    1.3601    0.0000 H   0  0  0  0  0  0  0  0  0  0  0  0
    2.2691    0.3402    0.0000 H   0  0  0  0  0  0  0  0  0  0  0  0
    1.4289   -1.7951    0.0000 H   0  0  0  0  0  0  0  0  0  0  0  0
   -0.8400   -2.1351    0.0000 H   0  0  0  0  0  0  0  0  0  0  0  0
   -2.2691   -0.3402    0.0000 H   0  0  0  0  0  0  0  0  0  0  0  0
   -1.4289    1.7951    0.0000 H   0  0  0  0  0  0  0  0  0  0  0  0
    0.8400    2.1351    0.0000 H   0  0  0  0  0  0  0  0  0  0  0  0
  1  2  1  0  0  0  0
  1  6  1  0  0  0  0
  1  7  1  0  0  0  0
  1 13  1  1  0  0  0
  2  3  1  0  0  0  0
  2  8  1  0  0  0  0
  2 14  1  1  0  0  0
  3  4  1  0  0  0  0
  3  9  1  0  0  0  0
  3 15  1  1  0  0  0
  4  5  1  0  0  0  0
  4 10  1  0  0  0  0
  4 16  1  6  0  0  0
  5  6  1  0  0  0  0
  5 11  1  0  0  0  0
  5 17  1  1  0  0  0
  6 12  1  0  0  0  0
  6 18  1  6  0  0  0
  7 19  1  0  0  0  0
  8 20  1  0  0  0  0
  9 21  1  0  0  0  0
 10 22  1  0  0  0  0
 11 23  1  0  0  0  0
 12 24  1  0  0  0  0
M  END
>  <DRUGBANK_ID>
DB13178

>  <SECONDARY_ACCESSION_NUMBERS>
DB11196

>  <COMMON_NAME>
Inositol

>  <CAS_NUMBER>
87-89-8

>  <UNII>
4L6452S749

>  <SYNONYMS>
1,2,3,5/4,6-cyclohexanehexol; cis-1,2,3,5-trans-4,6-cyclohexanehexol; Inositol; L-myo-Inositol; Meat sugar; meso-Inositol; myo-inositol

$$$$
