
 OpenBabel10282417072D

 54 54  0  0  0  0  0  0  0  0999 V2000
    0.8321    2.8566    0.0000 C   0  0  0  0  0  0  0  0  0  0  0  0
    0.0000    2.8566    0.0000 O   0  0  0  0  0  0  0  0  0  0  0  0
    1.2555    2.1433    0.0000 C   0  0  1  0  0  0  0  0  0  0  0  0
    2.0578    2.1433    0.0000 C   0  0  1  0  0  0  0  0  0  0  0  0
    2.4888    2.8566    0.0000 O   0  0  0  0  0  0  0  0  0  0  0  0
    2.4888    1.4301    0.0000 C   0  0  2  0  0  0  0  0  0  0  0  0
    2.0578    0.7169    0.0000 O   0  0  0  0  0  0  0  0  0  0  0  0
    3.3135    1.4301    0.0000 C   0  0  2  0  0  0  0  0  0  0  0  0
    3.7147    2.1433    0.0000 O   0  0  0  0  0  0  0  0  0  0  0  0
    3.7147    0.7169    0.0000 C   0  0  0  0  0  0  0  0  0  0  0  0
    3.3135    0.0036    0.0000 O   0  0  0  0  0  0  0  0  0  0  0  0
    0.8321    1.4301    0.0000 N   0  0  0  0  0  0  0  0  0  0  0  0
    0.0000    1.4301    0.0000 C   0  0  0  0  0  0  0  0  0  0  0  0
   -0.4309    0.7169    0.0000 C   0  0  0  0  0  0  0  0  0  0  0  0
   -0.4309    2.1433    0.0000 O   0  0  0  0  0  0  0  0  0  0  0  0
   -1.2259    0.7169    0.0000 C   0  0  0  0  0  0  0  0  0  0  0  0
   -1.6567    0.0036    0.0000 C   0  0  0  0  0  0  0  0  0  0  0  0
   -1.2259   -0.7169    0.0000 C   0  0  0  0  0  0  0  0  0  0  0  0
   -0.4011   -0.7169    0.0000 C   0  0  0  0  0  0  0  0  0  0  0  0
    0.0000    0.0036    0.0000 C   0  0  0  0  0  0  0  0  0  0  0  0
   -2.4888   -0.0259    0.0000 N   0  0  0  0  0  0  0  0  0  0  0  0
   -2.8826   -0.7169    0.0000 C   0  0  0  0  0  0  0  0  0  0  0  0
   -3.7147   -0.7392    0.0000 O   0  0  0  0  0  0  0  0  0  0  0  0
   -2.4888   -1.4301    0.0000 C   0  0  0  0  0  0  0  0  0  0  0  0
   -1.6567    1.4301    0.0000 I   0  0  0  0  0  0  0  0  0  0  0  0
   -1.6567   -1.4598    0.0000 I   0  0  0  0  0  0  0  0  0  0  0  0
    0.8321    0.0036    0.0000 I   0  0  0  0  0  0  0  0  0  0  0  0
    0.0000   -1.4301    0.0000 N   0  0  0  0  0  0  0  0  0  0  0  0
   -0.4011   -2.1434    0.0000 C   0  0  0  0  0  0  0  0  0  0  0  0
   -1.2259   -2.1731    0.0000 O   0  0  0  0  0  0  0  0  0  0  0  0
    0.0000   -2.8566    0.0000 C   0  0  0  0  0  0  0  0  0  0  0  0
    0.8544   -1.4301    0.0000 C   0  0  0  0  0  0  0  0  0  0  0  0
    1.3427    3.7534    0.0000 H   0  0  0  0  0  0  0  0  0  0  0  0
    0.1855    2.1433    0.0000 H   0  0  0  0  0  0  0  0  0  0  0  0
    1.5321    3.0752    0.0000 H   0  0  0  0  0  0  0  0  0  0  0  0
    3.4586    2.8373    0.0000 H   0  0  0  0  0  0  0  0  0  0  0  0
    1.4188    1.4301    0.0000 H   0  0  0  0  0  0  0  0  0  0  0  0
    1.0880    0.7363    0.0000 H   0  0  0  0  0  0  0  0  0  0  0  0
    2.7733    2.3537    0.0000 H   0  0  0  0  0  0  0  0  0  0  0  0
    4.6846    2.1541    0.0000 H   0  0  0  0  0  0  0  0  0  0  0  0
    4.7847    0.7169    0.0000 H   0  0  0  0  0  0  0  0  0  0  0  0
    4.2549   -0.2067    0.0000 H   0  0  0  0  0  0  0  0  0  0  0  0
    2.3436   -0.0073    0.0000 H   0  0  0  0  0  0  0  0  0  0  0  0
    1.3192    0.5745    0.0000 H   0  0  0  0  0  0  0  0  0  0  0  0
   -2.9984    0.8164    0.0000 H   0  0  0  0  0  0  0  0  0  0  0  0
   -3.0414   -2.3464    0.0000 H   0  0  0  0  0  0  0  0  0  0  0  0
   -1.4190   -1.4505    0.0000 H   0  0  0  0  0  0  0  0  0  0  0  0
   -1.9716   -2.3668    0.0000 H   0  0  0  0  0  0  0  0  0  0  0  0
   -0.5454   -3.7771    0.0000 H   0  0  0  0  0  0  0  0  0  0  0  0
    1.0699   -2.8687    0.0000 H   0  0  0  0  0  0  0  0  0  0  0  0
    0.5245   -3.7892    0.0000 H   0  0  0  0  0  0  0  0  0  0  0  0
    1.3894   -2.3567    0.0000 H   0  0  0  0  0  0  0  0  0  0  0  0
    1.3894   -0.5035    0.0000 H   0  0  0  0  0  0  0  0  0  0  0  0
    1.9244   -1.4301    0.0000 H   0  0  0  0  0  0  0  0  0  0  0  0
  1  2  2  0  0  0  0
  1  3  1  0  0  0  0
  1 33  1  0  0  0  0
  3 12  1  0  0  0  0
  3  4  1  0  0  0  0
  3 34  1  6  0  0  0
  4  5  1  0  0  0  0
  4  6  1  0  0  0  0
  4 35  1  6  0  0  0
  5 36  1  0  0  0  0
  6  7  1  0  0  0  0
  6  8  1  0  0  0  0
  6 37  1  6  0  0  0
  7 38  1  0  0  0  0
  8  9  1  0  0  0  0
  8 10  1  0  0  0  0
  8 39  1  1  0  0  0
  9 40  1  0  0  0  0
 10 11  1  0  0  0  0
 10 41  1  0  0  0  0
 10 42  1  0  0  0  0
 11 43  1  0  0  0  0
 12 13  1  0  0  0  0
 12 44  1  0  0  0  0
 13 14  1  0  0  0  0
 13 15  2  0  0  0  0
 14 16  2  0  0  0  0
 14 20  1  0  0  0  0
 16 17  1  0  0  0  0
 16 25  1  0  0  0  0
 17 18  2  0  0  0  0
 17 21  1  0  0  0  0
 18 19  1  0  0  0  0
 18 26  1  0  0  0  0
 19 20  2  0  0  0  0
 19 28  1  0  0  0  0
 20 27  1  0  0  0  0
 21 22  1  0  0  0  0
 21 45  1  0  0  0  0
 22 23  2  0  0  0  0
 22 24  1  0  0  0  0
 24 46  1  0  0  0  0
 24 47  1  0  0  0  0
 24 48  1  0  0  0  0
 28 29  1  0  0  0  0
 28 32  1  0  0  0  0
 29 30  2  0  0  0  0
 29 31  1  0  0  0  0
 31 49  1  0  0  0  0
 31 50  1  0  0  0  0
 31 51  1  0  0  0  0
 32 52  1  0  0  0  0
 32 53  1  0  0  0  0
 32 54  1  0  0  0  0
M  END
>  <DRUGBANK_ID>
DB01578

>  <COMMON_NAME>
Metrizamide

>  <CAS_NUMBER>
31112-62-6

>  <UNII>
RHH3W8F1CO

>  <SYNONYMS>
Metrizamida; Metrizamide; Metrizamidum

$$$$
