IS2
 OpenBabel10282417072D

 27 27  0  0  0  0  0  0  0  0999 V2000
    1.2541    0.4213    0.0000 C   0  0  0  0  0  0  0  0  0  0  0  0
    1.2541   -0.4037    0.0000 C   0  0  0  0  0  0  0  0  0  0  0  0
    0.5397   -0.8162    0.0000 C   0  0  0  0  0  0  0  0  0  0  0  0
   -0.1748   -0.4037    0.0000 C   0  0  0  0  0  0  0  0  0  0  0  0
   -0.1748    0.4213    0.0000 C   0  0  0  0  0  0  0  0  0  0  0  0
    0.5397    0.8338    0.0000 C   0  0  0  0  0  0  0  0  0  0  0  0
   -0.8893   -0.8162    0.0000 N   0  0  0  0  0  0  0  0  0  0  0  0
   -1.6037   -0.4037    0.0000 C   0  0  0  0  0  0  0  0  0  0  0  0
   -1.6037    0.4213    0.0000 O   0  0  0  0  0  0  0  0  0  0  0  0
   -2.3182   -0.8162    0.0000 P   0  0  0  0  0  0  0  0  0  0  0  0
   -3.0327   -1.2287    0.0000 O   0  0  0  0  0  0  0  0  0  0  0  0
   -1.9057   -1.5307    0.0000 O   0  0  0  0  0  0  0  0  0  0  0  0
   -2.7307   -0.1017    0.0000 O   0  0  0  0  0  0  0  0  0  0  0  0
    1.9686    0.8338    0.0000 C   0  0  0  0  0  0  0  0  0  0  0  0
    1.9686    1.6588    0.0000 C   0  0  0  0  0  0  0  0  0  0  0  0
    2.1478   -0.9197    0.0000 H   0  0  0  0  0  0  0  0  0  0  0  0
    0.5397   -1.8482    0.0000 H   0  0  0  0  0  0  0  0  0  0  0  0
   -1.0685    0.9373    0.0000 H   0  0  0  0  0  0  0  0  0  0  0  0
    0.5397    1.8658    0.0000 H   0  0  0  0  0  0  0  0  0  0  0  0
   -0.8893   -1.8007    0.0000 H   0  0  0  0  0  0  0  0  0  0  0  0
   -3.8727   -0.7437    0.0000 H   0  0  0  0  0  0  0  0  0  0  0  0
   -2.3907   -2.3707    0.0000 H   0  0  0  0  0  0  0  0  0  0  0  0
    2.8952    0.2988    0.0000 H   0  0  0  0  0  0  0  0  0  0  0  0
    2.8952    1.3688    0.0000 H   0  0  0  0  0  0  0  0  0  0  0  0
    2.8952    2.1938    0.0000 H   0  0  0  0  0  0  0  0  0  0  0  0
    1.0420    2.1938    0.0000 H   0  0  0  0  0  0  0  0  0  0  0  0
    1.9686    2.7288    0.0000 H   0  0  0  0  0  0  0  0  0  0  0  0
  1  2  1  0  0  0  0
  1  6  2  0  0  0  0
  1 14  1  0  0  0  0
  2  3  2  0  0  0  0
  2 16  1  0  0  0  0
  3  4  1  0  0  0  0
  3 17  1  0  0  0  0
  4  5  2  0  0  0  0
  4  7  1  0  0  0  0
  5  6  1  0  0  0  0
  5 18  1  0  0  0  0
  6 19  1  0  0  0  0
  7  8  1  0  0  0  0
  7 20  1  0  0  0  0
  8  9  2  0  0  0  0
  8 10  1  0  0  0  0
 10 11  1  0  0  0  0
 10 12  1  0  0  0  0
 10 13  2  0  0  0  0
 11 21  1  0  0  0  0
 12 22  1  0  0  0  0
 14 15  1  0  0  0  0
 14 23  1  0  0  0  0
 14 24  1  0  0  0  0
 15 25  1  0  0  0  0
 15 26  1  0  0  0  0
 15 27  1  0  0  0  0
M  END
>  <DRUGBANK_ID>
DB03628

>  <SECONDARY_ACCESSION_NUMBERS>
EXPT01930

>  <COMMON_NAME>
ISO24

>  <UNII>
MM7HGA3EJM

$$$$
