
 OpenBabel10282417072D

 55 58  0  0  1  0  0  0  0  0999 V2000
   -1.4526   -6.8612    0.0000 C   0  0  0  0  0  0  0  0  0  0  0  0
   -1.2691   -6.0569    0.0000 C   0  0  0  0  0  0  0  0  0  0  0  0
   -1.8738   -5.4957    0.0000 O   0  0  0  0  0  0  0  0  0  0  0  0
   -1.6902   -4.6914    0.0000 C   0  0  0  0  0  0  0  0  0  0  0  0
   -2.2950   -4.1303    0.0000 C   0  0  0  0  0  0  0  0  0  0  0  0
   -2.1114   -3.3260    0.0000 C   0  0  0  0  0  0  0  0  0  0  0  0
   -1.3231   -3.0828    0.0000 C   0  0  0  0  0  0  0  0  0  0  0  0
   -0.7183   -3.6439    0.0000 C   0  0  0  0  0  0  0  0  0  0  0  0
   -0.9019   -4.4482    0.0000 C   0  0  0  0  0  0  0  0  0  0  0  0
   -0.2971   -5.0094    0.0000 F   0  0  0  0  0  0  0  0  0  0  0  0
   -1.1395   -2.2785    0.0000 C   0  0  0  0  0  0  0  0  0  0  0  0
   -0.3512   -2.0353    0.0000 C   0  0  0  0  0  0  0  0  0  0  0  0
   -0.1676   -1.2310    0.0000 C   0  0  0  0  0  0  0  0  0  0  0  0
    0.6208   -0.9878    0.0000 C   0  0  0  0  0  0  0  0  0  0  0  0
    1.2255   -1.5490    0.0000 C   0  0  0  0  0  0  0  0  0  0  0  0
    1.0420   -2.3533    0.0000 C   0  0  0  0  0  0  0  0  0  0  0  0
    0.2536   -2.5964    0.0000 C   0  0  0  0  0  0  0  0  0  0  0  0
    0.0700   -3.4008    0.0000 Cl  0  0  0  0  0  0  0  0  0  0  0  0
    0.8044   -0.1835    0.0000 C   0  0  2  0  0  0  0  0  0  0  0  0
    1.6087    0.0001    0.0000 C   0  0  1  0  0  0  0  0  0  0  0  0
    1.9666    0.7434    0.0000 C   0  0  2  0  0  0  0  0  0  0  0  0
    1.6087    1.4867    0.0000 C   0  0  1  0  0  0  0  0  0  0  0  0
    0.8044    1.6703    0.0000 C   0  0  2  0  0  0  0  0  0  0  0  0
    1.0361    0.7434    0.0000 O   0  0  0  0  0  0  0  0  0  0  0  0
    0.1593    1.1559    0.0000 C   0  0  0  0  0  0  0  0  0  0  0  0
    0.1593    0.3309    0.0000 O   0  0  0  0  0  0  0  0  0  0  0  0
    0.6208    2.4746    0.0000 C   0  0  0  0  0  0  0  0  0  0  0  0
   -0.1676    2.7178    0.0000 O   0  0  0  0  0  0  0  0  0  0  0  0
    2.1231    2.1317    0.0000 O   0  0  0  0  0  0  0  0  0  0  0  0
    2.7916    0.7434    0.0000 O   0  0  0  0  0  0  0  0  0  0  0  0
    2.1231   -0.6449    0.0000 O   0  0  0  0  0  0  0  0  0  0  0  0
   -2.4750   -7.1767    0.0000 H   0  0  0  0  0  0  0  0  0  0  0  0
   -0.6682   -7.5889    0.0000 H   0  0  0  0  0  0  0  0  0  0  0  0
   -1.6906   -7.9044    0.0000 H   0  0  0  0  0  0  0  0  0  0  0  0
   -0.2466   -5.7415    0.0000 H   0  0  0  0  0  0  0  0  0  0  0  0
   -1.0309   -5.0137    0.0000 H   0  0  0  0  0  0  0  0  0  0  0  0
   -3.2811   -4.4345    0.0000 H   0  0  0  0  0  0  0  0  0  0  0  0
   -2.8679   -2.6241    0.0000 H   0  0  0  0  0  0  0  0  0  0  0  0
    0.2678   -3.3397    0.0000 H   0  0  0  0  0  0  0  0  0  0  0  0
   -1.9239   -1.5507    0.0000 H   0  0  0  0  0  0  0  0  0  0  0  0
   -0.9014   -1.2353    0.0000 H   0  0  0  0  0  0  0  0  0  0  0  0
   -0.9241   -0.5291    0.0000 H   0  0  0  0  0  0  0  0  0  0  0  0
    2.2117   -1.2448    0.0000 H   0  0  0  0  0  0  0  0  0  0  0  0
    1.7985   -3.0552    0.0000 H   0  0  0  0  0  0  0  0  0  0  0  0
    1.2553   -1.0099    0.0000 H   0  0  0  0  0  0  0  0  0  0  0  0
    2.5359   -0.1626    0.0000 H   0  0  0  0  0  0  0  0  0  0  0  0
    2.6720    1.3669    0.0000 H   0  0  0  0  0  0  0  0  0  0  0  0
   -0.8047    1.6202    0.0000 H   0  0  0  0  0  0  0  0  0  0  0  0
   -0.7467    0.5866    0.0000 H   0  0  0  0  0  0  0  0  0  0  0  0
    1.4052    3.2024    0.0000 H   0  0  0  0  0  0  0  0  0  0  0  0
    0.3827    3.5178    0.0000 H   0  0  0  0  0  0  0  0  0  0  0  0
   -0.3834    3.6635    0.0000 H   0  0  0  0  0  0  0  0  0  0  0  0
    3.0823    1.9871    0.0000 H   0  0  0  0  0  0  0  0  0  0  0  0
    3.2766   -0.0966    0.0000 H   0  0  0  0  0  0  0  0  0  0  0  0
    1.7687   -1.5479    0.0000 H   0  0  0  0  0  0  0  0  0  0  0  0
  1  2  1  0  0  0  0
  1 32  1  0  0  0  0
  1 33  1  0  0  0  0
  1 34  1  0  0  0  0
  2  3  1  0  0  0  0
  2 35  1  0  0  0  0
  2 36  1  0  0  0  0
  3  4  1  0  0  0  0
  4  5  2  0  0  0  0
  4  9  1  0  0  0  0
  5  6  1  0  0  0  0
  5 37  1  0  0  0  0
  6  7  2  0  0  0  0
  6 38  1  0  0  0  0
  7  8  1  0  0  0  0
  7 11  1  0  0  0  0
  8  9  2  0  0  0  0
  8 39  1  0  0  0  0
  9 10  1  0  0  0  0
 11 12  1  0  0  0  0
 11 40  1  0  0  0  0
 11 41  1  0  0  0  0
 12 13  2  0  0  0  0
 12 17  1  0  0  0  0
 13 14  1  0  0  0  0
 13 42  1  0  0  0  0
 14 15  2  0  0  0  0
 15 16  1  0  0  0  0
 15 43  1  0  0  0  0
 16 17  2  0  0  0  0
 16 44  1  0  0  0  0
 17 18  1  0  0  0  0
 19 14  1  1  0  0  0
 19 20  1  0  0  0  0
 19 24  1  0  0  0  0
 19 26  1  0  0  0  0
 20 21  1  0  0  0  0
 20 31  1  0  0  0  0
 20 45  1  6  0  0  0
 21 22  1  0  0  0  0
 21 30  1  0  0  0  0
 21 46  1  1  0  0  0
 22 23  1  0  0  0  0
 22 29  1  0  0  0  0
 22 47  1  6  0  0  0
 23 24  1  0  0  0  0
 23 25  1  0  0  0  0
 23 27  1  1  0  0  0
 25 26  1  0  0  0  0
 25 48  1  0  0  0  0
 25 49  1  0  0  0  0
 27 28  1  0  0  0  0
 27 50  1  0  0  0  0
 27 51  1  0  0  0  0
 28 52  1  0  0  0  0
 29 53  1  0  0  0  0
 30 54  1  0  0  0  0
 31 55  1  0  0  0  0
M  END
>  <DRUGBANK_ID>
DB11939

>  <COMMON_NAME>
Henagliflozin

>  <CAS_NUMBER>
1623804-44-3

>  <UNII>
21P2M98388

$$$$
