5CB
 OpenBabel10282417072D

 55 58  0  0  0  0  0  0  0  0999 V2000
   -0.7960    0.1066    0.0000 O   0  0  0  0  0  0  0  0  0  0  0  0
    5.8698   -1.9912    0.0000 Cl  0  0  0  0  0  0  0  0  0  0  0  0
    1.9220    0.9897    0.0000 Cl  0  0  0  0  0  0  0  0  0  0  0  0
    5.1553   -3.2287    0.0000 C   0  0  0  0  0  0  0  0  0  0  0  0
    4.4408   -3.6412    0.0000 C   0  0  0  0  0  0  0  0  0  0  0  0
    5.1553   -2.4037    0.0000 C   0  0  0  0  0  0  0  0  0  0  0  0
    3.7264   -3.2287    0.0000 C   0  0  0  0  0  0  0  0  0  0  0  0
    4.4408   -1.9912    0.0000 C   0  0  0  0  0  0  0  0  0  0  0  0
    3.7264   -2.4037    0.0000 C   0  0  0  0  0  0  0  0  0  0  0  0
    2.9417   -3.4836    0.0000 S   0  0  0  0  0  0  0  0  0  0  0  0
    2.4568   -2.8162    0.0000 C   0  0  0  0  0  0  0  0  0  0  0  0
    2.9417   -2.1487    0.0000 C   0  0  0  0  0  0  0  0  0  0  0  0
    2.6868   -1.3641    0.0000 C   0  0  0  0  0  0  0  0  0  0  0  0
    1.8798   -1.1926    0.0000 N   0  0  0  0  0  0  0  0  0  0  0  0
    1.6249   -0.4080    0.0000 C   0  0  0  0  0  0  0  0  0  0  0  0
    0.8179   -0.2364    0.0000 C   0  0  0  0  0  0  0  0  0  0  0  0
    1.1150    1.1613    0.0000 C   0  0  1  0  0  0  0  0  0  0  0  0
    0.5630    0.5482    0.0000 N   0  0  0  0  0  0  0  0  0  0  0  0
    0.8601    1.9459    0.0000 C   0  0  0  0  0  0  0  0  0  0  0  0
   -0.2440    0.7197    0.0000 C   0  0  2  0  0  0  0  0  0  0  0  0
    0.0531    2.1174    0.0000 N   0  0  0  0  0  0  0  0  0  0  0  0
   -0.4989    1.5043    0.0000 C   0  0  0  0  0  0  0  0  0  0  0  0
   -1.3059    1.6759    0.0000 N   0  0  0  0  0  0  0  0  0  0  0  0
   -1.8579    1.0628    0.0000 C   0  0  0  0  0  0  0  0  0  0  0  0
   -2.6649    1.2343    0.0000 C   0  0  0  0  0  0  0  0  0  0  0  0
   -2.3678    2.6320    0.0000 C   0  0  0  0  0  0  0  0  0  0  0  0
   -2.9198    2.0189    0.0000 C   0  0  0  0  0  0  0  0  0  0  0  0
   -2.6228    3.4166    0.0000 C   0  0  0  0  0  0  0  0  0  0  0  0
   -3.7268    2.1904    0.0000 N   0  0  0  0  0  0  0  0  0  0  0  0
   -3.4297    3.5881    0.0000 C   0  0  0  0  0  0  0  0  0  0  0  0
   -3.9818    2.9751    0.0000 C   0  0  0  0  0  0  0  0  0  0  0  0
    2.1769    0.2051    0.0000 O   0  0  0  0  0  0  0  0  0  0  0  0
    1.2955    0.6059    0.0000 H   0  0  0  0  0  0  0  0  0  0  0  0
   -0.0635    0.1644    0.0000 H   0  0  0  0  0  0  0  0  0  0  0  0
   -1.7448    0.3082    0.0000 H   0  0  0  0  0  0  0  0  0  0  0  0
    6.0490   -3.7447    0.0000 H   0  0  0  0  0  0  0  0  0  0  0  0
    4.4408   -4.6732    0.0000 H   0  0  0  0  0  0  0  0  0  0  0  0
    4.4408   -0.9592    0.0000 H   0  0  0  0  0  0  0  0  0  0  0  0
    1.4248   -2.8162    0.0000 H   0  0  0  0  0  0  0  0  0  0  0  0
    3.4028   -0.5689    0.0000 H   0  0  0  0  0  0  0  0  0  0  0  0
    2.3561   -0.3465    0.0000 H   0  0  0  0  0  0  0  0  0  0  0  0
    1.2210   -1.9242    0.0000 H   0  0  0  0  0  0  0  0  0  0  0  0
    0.1019   -1.0315    0.0000 H   0  0  0  0  0  0  0  0  0  0  0  0
   -0.2287   -0.0139    0.0000 H   0  0  0  0  0  0  0  0  0  0  0  0
    1.5761    2.7411    0.0000 H   0  0  0  0  0  0  0  0  0  0  0  0
    0.5294    2.9635    0.0000 H   0  0  0  0  0  0  0  0  0  0  0  0
   -1.6101    2.6122    0.0000 H   0  0  0  0  0  0  0  0  0  0  0  0
   -1.5272    0.0452    0.0000 H   0  0  0  0  0  0  0  0  0  0  0  0
   -2.5738    0.2676    0.0000 H   0  0  0  0  0  0  0  0  0  0  0  0
   -3.3809    0.4391    0.0000 H   0  0  0  0  0  0  0  0  0  0  0  0
   -3.7115    1.4568    0.0000 H   0  0  0  0  0  0  0  0  0  0  0  0
   -1.3583    2.4175    0.0000 H   0  0  0  0  0  0  0  0  0  0  0  0
   -1.9323    4.1836    0.0000 H   0  0  0  0  0  0  0  0  0  0  0  0
   -3.7485    4.5696    0.0000 H   0  0  0  0  0  0  0  0  0  0  0  0
   -4.9912    3.1897    0.0000 H   0  0  0  0  0  0  0  0  0  0  0  0
  1 35  1  0  0  0  0
  2  6  1  0  0  0  0
  4  5  1  0  0  0  0
  4  6  2  0  0  0  0
  4 36  1  0  0  0  0
  5  7  2  0  0  0  0
  5 37  1  0  0  0  0
  6  8  1  0  0  0  0
  7  9  1  0  0  0  0
  7 10  1  0  0  0  0
  8  9  2  0  0  0  0
  8 38  1  0  0  0  0
  9 12  1  0  0  0  0
 10 11  1  0  0  0  0
 11 12  2  0  0  0  0
 11 39  1  0  0  0  0
 12 13  1  0  0  0  0
 13 14  1  0  0  0  0
 13 40  1  0  0  0  0
 13 41  1  0  0  0  0
 14 15  1  0  0  0  0
 14 42  1  0  0  0  0
 15 16  1  0  0  0  0
 15 32  2  0  0  0  0
 16 18  1  0  0  0  0
 16 43  1  0  0  0  0
 16 44  1  0  0  0  0
 17  3  1  0  0  0  0
 17 18  1  0  0  0  0
 17 19  1  0  0  0  0
 17 33  1  6  0  0  0
 18 20  1  0  0  0  0
 19 21  1  0  0  0  0
 19 45  1  0  0  0  0
 19 46  1  0  0  0  0
 20  1  1  0  0  0  0
 20 22  1  0  0  0  0
 20 34  1  6  0  0  0
 21 22  2  0  0  0  0
 22 23  1  0  0  0  0
 23 24  1  0  0  0  0
 23 47  1  0  0  0  0
 24 25  1  0  0  0  0
 24 48  1  0  0  0  0
 24 49  1  0  0  0  0
 25 27  1  0  0  0  0
 25 50  1  0  0  0  0
 25 51  1  0  0  0  0
 26 27  1  0  0  0  0
 26 28  2  0  0  0  0
 26 52  1  0  0  0  0
 27 29  2  0  0  0  0
 28 30  1  0  0  0  0
 28 53  1  0  0  0  0
 29 31  1  0  0  0  0
 30 31  2  0  0  0  0
 30 54  1  0  0  0  0
 31 55  1  0  0  0  0
M  END
>  <DRUGBANK_ID>
DB07165

>  <COMMON_NAME>
N-(5-CHLORO-BENZO[B]THIOPHEN-3-YLMETHYL)-2-[6-CHLORO-OXO-3-(2-PYRIDIN-2-YL-ETHYLAMINO)-2H-PYRAZIN-1-YL]-ACETAMIDE

$$$$
