
 OpenBabel10282417072D

 62 66  0  0  0  0  0  0  0  0999 V2000
   -3.4096   -2.0953    0.0000 C   0  0  0  0  0  0  0  0  0  0  0  0
   -3.4096   -2.9205    0.0000 C   0  0  0  0  0  0  0  0  0  0  0  0
   -2.6933   -3.3330    0.0000 C   0  0  0  0  0  0  0  0  0  0  0  0
   -1.9813   -2.9205    0.0000 C   0  0  0  0  0  0  0  0  0  0  0  0
   -1.9813   -2.0953    0.0000 C   0  0  0  0  0  0  0  0  0  0  0  0
   -2.6933   -1.6828    0.0000 C   0  0  0  0  0  0  0  0  0  0  0  0
   -1.2665   -1.6833    0.0000 C   0  0  0  0  0  0  0  0  0  0  0  0
   -0.5522   -2.0963    0.0000 C   0  0  0  0  0  0  0  0  0  0  0  0
   -1.2658   -0.8583    0.0000 N   0  0  0  0  0  0  0  0  0  0  0  0
   -0.5562   -2.9204    0.0000 C   0  0  0  0  0  0  0  0  0  0  0  0
    0.1579   -3.3334    0.0000 C   0  0  0  0  0  0  0  0  0  0  0  0
    0.8728   -2.9214    0.0000 C   0  0  0  0  0  0  0  0  0  0  0  0
    0.8734   -2.0963    0.0000 C   0  0  0  0  0  0  0  0  0  0  0  0
    0.1592   -1.6832    0.0000 C   0  0  0  0  0  0  0  0  0  0  0  0
   -0.5505   -0.4484    0.0000 C   0  0  0  0  0  0  0  0  0  0  0  0
   -0.5499    0.3765    0.0000 C   0  0  0  0  0  0  0  0  0  0  0  0
   -1.2641    0.7897    0.0000 N   0  0  0  0  0  0  0  0  0  0  0  0
   -1.9790    0.3776    0.0000 C   0  0  0  0  0  0  0  0  0  0  0  0
   -1.9795   -0.4473    0.0000 C   0  0  0  0  0  0  0  0  0  0  0  0
   -1.2634    1.6147    0.0000 C   0  0  0  0  0  0  0  0  0  0  0  0
   -0.5486    2.0267    0.0000 C   0  0  0  0  0  0  0  0  0  0  0  0
    0.1659    1.6133    0.0000 C   0  0  0  0  0  0  0  0  0  0  0  0
    0.8887    2.0302    0.0000 N   0  0  0  0  0  0  0  0  0  0  0  0
    0.8887    2.8545    0.0000 C   0  0  0  0  0  0  0  0  0  0  0  0
    1.6727    1.7754    0.0000 C   0  0  0  0  0  0  0  0  0  0  0  0
    2.1574    2.4423    0.0000 C   0  0  0  0  0  0  0  0  0  0  0  0
    1.6727    3.1094    0.0000 N   0  0  0  0  0  0  0  0  0  0  0  0
    0.2293    3.3334    0.0000 O   0  0  0  0  0  0  0  0  0  0  0  0
    2.9888    2.4425    0.0000 C   0  0  0  0  0  0  0  0  0  0  0  0
    3.4096    1.7144    0.0000 C   0  0  0  0  0  0  0  0  0  0  0  0
    2.9992    1.0029    0.0000 C   0  0  0  0  0  0  0  0  0  0  0  0
    2.1648    1.0023    0.0000 C   0  0  0  0  0  0  0  0  0  0  0  0
   -4.3031   -1.5788    0.0000 H   0  0  0  0  0  0  0  0  0  0  0  0
   -4.3031   -3.4370    0.0000 H   0  0  0  0  0  0  0  0  0  0  0  0
   -2.6920   -4.3650    0.0000 H   0  0  0  0  0  0  0  0  0  0  0  0
   -1.0872   -3.4358    0.0000 H   0  0  0  0  0  0  0  0  0  0  0  0
   -2.6920   -0.6508    0.0000 H   0  0  0  0  0  0  0  0  0  0  0  0
   -2.1927   -1.1476    0.0000 H   0  0  0  0  0  0  0  0  0  0  0  0
   -1.4514   -3.4339    0.0000 H   0  0  0  0  0  0  0  0  0  0  0  0
    0.1571   -4.3654    0.0000 H   0  0  0  0  0  0  0  0  0  0  0  0
    1.7661   -3.4381    0.0000 H   0  0  0  0  0  0  0  0  0  0  0  0
    1.7675   -1.5810    0.0000 H   0  0  0  0  0  0  0  0  0  0  0  0
    0.1583   -0.6512    0.0000 H   0  0  0  0  0  0  0  0  0  0  0  0
    0.3751   -0.9852    0.0000 H   0  0  0  0  0  0  0  0  0  0  0  0
    0.3769    0.0853    0.0000 H   0  0  0  0  0  0  0  0  0  0  0  0
    0.3772    0.9107    0.0000 H   0  0  0  0  0  0  0  0  0  0  0  0
   -0.5490    1.4465    0.0000 H   0  0  0  0  0  0  0  0  0  0  0  0
   -2.9053    0.9132    0.0000 H   0  0  0  0  0  0  0  0  0  0  0  0
   -2.9060   -0.1568    0.0000 H   0  0  0  0  0  0  0  0  0  0  0  0
   -2.9060   -0.9825    0.0000 H   0  0  0  0  0  0  0  0  0  0  0  0
   -1.9788   -1.5173    0.0000 H   0  0  0  0  0  0  0  0  0  0  0  0
   -2.1896    2.1504    0.0000 H   0  0  0  0  0  0  0  0  0  0  0  0
   -1.2626    2.6847    0.0000 H   0  0  0  0  0  0  0  0  0  0  0  0
   -0.5477    3.0967    0.0000 H   0  0  0  0  0  0  0  0  0  0  0  0
    0.3785    2.5609    0.0000 H   0  0  0  0  0  0  0  0  0  0  0  0
    0.1652    0.5433    0.0000 H   0  0  0  0  0  0  0  0  0  0  0  0
    1.0923    1.0778    0.0000 H   0  0  0  0  0  0  0  0  0  0  0  0
    1.9768    4.0457    0.0000 H   0  0  0  0  0  0  0  0  0  0  0  0
    3.5045    3.3364    0.0000 H   0  0  0  0  0  0  0  0  0  0  0  0
    4.4416    1.7148    0.0000 H   0  0  0  0  0  0  0  0  0  0  0  0
    3.5157    0.1095    0.0000 H   0  0  0  0  0  0  0  0  0  0  0  0
    1.6686    0.0974    0.0000 H   0  0  0  0  0  0  0  0  0  0  0  0
  1  2  2  0  0  0  0
  1 33  1  0  0  0  0
  2  3  1  0  0  0  0
  2 34  1  0  0  0  0
  3  4  2  0  0  0  0
  3 35  1  0  0  0  0
  4  5  1  0  0  0  0
  4 36  1  0  0  0  0
  5  6  2  0  0  0  0
  5  7  1  0  0  0  0
  6  1  1  0  0  0  0
  6 37  1  0  0  0  0
  7  8  1  0  0  0  0
  7  9  1  0  0  0  0
  7 38  1  0  0  0  0
  8 10  2  0  0  0  0
  9 15  1  0  0  0  0
 10 11  1  0  0  0  0
 10 39  1  0  0  0  0
 11 12  2  0  0  0  0
 11 40  1  0  0  0  0
 12 13  1  0  0  0  0
 12 41  1  0  0  0  0
 13 14  2  0  0  0  0
 13 42  1  0  0  0  0
 14  8  1  0  0  0  0
 14 43  1  0  0  0  0
 15 16  1  0  0  0  0
 15 44  1  0  0  0  0
 15 45  1  0  0  0  0
 16 17  1  0  0  0  0
 16 46  1  0  0  0  0
 16 47  1  0  0  0  0
 17 18  1  0  0  0  0
 17 20  1  0  0  0  0
 18 19  1  0  0  0  0
 18 48  1  0  0  0  0
 18 49  1  0  0  0  0
 19  9  1  0  0  0  0
 19 50  1  0  0  0  0
 19 51  1  0  0  0  0
 20 21  1  0  0  0  0
 20 52  1  0  0  0  0
 20 53  1  0  0  0  0
 21 22  1  0  0  0  0
 21 54  1  0  0  0  0
 21 55  1  0  0  0  0
 22 23  1  0  0  0  0
 22 56  1  0  0  0  0
 22 57  1  0  0  0  0
 23 24  1  0  0  0  0
 23 25  1  0  0  0  0
 24 27  1  0  0  0  0
 24 28  2  0  0  0  0
 25 26  2  0  0  0  0
 26 27  1  0  0  0  0
 26 29  1  0  0  0  0
 27 58  1  0  0  0  0
 29 30  2  0  0  0  0
 29 59  1  0  0  0  0
 30 31  1  0  0  0  0
 30 60  1  0  0  0  0
 31 32  2  0  0  0  0
 31 61  1  0  0  0  0
 32 25  1  0  0  0  0
 32 62  1  0  0  0  0
M  END
>  <DRUGBANK_ID>
DB12877

>  <COMMON_NAME>
Oxatomide

>  <CAS_NUMBER>
60607-34-3

>  <UNII>
J31IL9Z2EE

>  <SYNONYMS>
Oxatomida; Oxatomide; Oxatomidum

$$$$
