
 OpenBabel10282417072D

 27 27  0  0  0  0  0  0  0  0999 V2000
   14.9738   -9.4875    0.0000 C   0  0  0  0  0  0  0  0  0  0  0  0
   14.2725   -9.0750    0.0000 C   0  0  0  0  0  0  0  0  0  0  0  0
   14.9738  -10.3125    0.0000 C   0  0  0  0  0  0  0  0  0  0  0  0
   15.7163   -9.0750    0.0000 C   0  0  0  0  0  0  0  0  0  0  0  0
   13.5713   -9.4875    0.0000 C   0  0  3  0  0  0  0  0  0  0  0  0
   15.7163  -10.7250    0.0000 C   0  0  0  0  0  0  0  0  0  0  0  0
   16.4175   -9.4875    0.0000 C   0  0  0  0  0  0  0  0  0  0  0  0
   13.5713  -10.3125    0.0000 C   0  0  0  0  0  0  0  0  0  0  0  0
   12.8288   -9.0750    0.0000 N   0  0  0  0  0  0  0  0  0  0  0  0
   16.4175  -10.3125    0.0000 C   0  0  0  0  0  0  0  0  0  0  0  0
   12.1143   -9.4875    0.0000 C   0  0  0  0  0  0  0  0  0  0  0  0
   11.3997   -9.0750    0.0000 C   0  0  0  0  0  0  0  0  0  0  0  0
   10.6853   -9.4875    0.0000 Cl  0  0  0  0  0  0  0  0  0  0  0  0
   11.3997   -8.2500    0.0000 Cl  0  0  0  0  0  0  0  0  0  0  0  0
   11.3997   -9.9000    0.0000 Cl  0  0  0  0  0  0  0  0  0  0  0  0
   14.2725   -8.0050    0.0000 H   0  0  0  0  0  0  0  0  0  0  0  0
   13.3437   -8.5438    0.0000 H   0  0  0  0  0  0  0  0  0  0  0  0
   14.0843  -10.8359    0.0000 H   0  0  0  0  0  0  0  0  0  0  0  0
   15.7290   -8.0431    0.0000 H   0  0  0  0  0  0  0  0  0  0  0  0
   14.5001  -10.0187    0.0000 H   0  0  0  0  0  0  0  0  0  0  0  0
   15.7290  -11.7569    0.0000 H   0  0  0  0  0  0  0  0  0  0  0  0
   17.3133   -8.9751    0.0000 H   0  0  0  0  0  0  0  0  0  0  0  0
   12.6447  -10.8475    0.0000 H   0  0  0  0  0  0  0  0  0  0  0  0
   14.4979  -10.8475    0.0000 H   0  0  0  0  0  0  0  0  0  0  0  0
   13.5713  -11.3825    0.0000 H   0  0  0  0  0  0  0  0  0  0  0  0
   17.3133  -10.8249    0.0000 H   0  0  0  0  0  0  0  0  0  0  0  0
   12.1143  -10.5195    0.0000 H   0  0  0  0  0  0  0  0  0  0  0  0
  1  2  1  0  0  0  0
  1  3  2  0  0  0  0
  1  4  1  0  0  0  0
  2  5  1  0  0  0  0
  2 16  1  0  0  0  0
  2 17  1  0  0  0  0
  3  6  1  0  0  0  0
  3 18  1  0  0  0  0
  4  7  2  0  0  0  0
  4 19  1  0  0  0  0
  5  8  1  0  0  0  0
  5  9  1  0  0  0  0
  5 20  1  0  0  0  0
  6 10  2  0  0  0  0
  6 21  1  0  0  0  0
  7 10  1  0  0  0  0
  7 22  1  0  0  0  0
  8 23  1  0  0  0  0
  8 24  1  0  0  0  0
  8 25  1  0  0  0  0
  9 11  2  0  0  0  0
 10 26  1  0  0  0  0
 11 12  1  0  0  0  0
 11 27  1  0  0  0  0
 12 13  1  0  0  0  0
 12 14  1  0  0  0  0
 12 15  1  0  0  0  0
M  END
>  <DRUGBANK_ID>
DB08924

>  <COMMON_NAME>
Amfecloral

>  <CAS_NUMBER>
5581-35-1

>  <UNII>
6015XOA0BI

>  <SYNONYMS>
Amfecloral; Amphecloral

$$$$
