
 OpenBabel10282417072D

 50 51  0  0  1  0  0  0  0  0999 V2000
   -3.9808   -5.7568    0.0000 O   0  0  0  0  0  0  0  0  0  0  0  0
   -3.1603   -5.6706    0.0000 C   0  0  0  0  0  0  0  0  0  0  0  0
   -2.8248   -4.9169    0.0000 C   0  0  1  0  0  0  0  0  0  0  0  0
   -3.3097   -4.2495    0.0000 O   0  0  0  0  0  0  0  0  0  0  0  0
   -2.0043   -4.8307    0.0000 C   0  0  2  0  0  0  0  0  0  0  0  0
   -1.5194   -5.4981    0.0000 O   0  0  0  0  0  0  0  0  0  0  0  0
   -1.6687   -4.0770    0.0000 C   0  0  1  0  0  0  0  0  0  0  0  0
   -2.1537   -3.4095    0.0000 O   0  0  0  0  0  0  0  0  0  0  0  0
   -0.8483   -3.9907    0.0000 C   0  0  0  0  0  0  0  0  0  0  0  0
   -0.5127   -3.2371    0.0000 N   0  0  0  0  0  0  0  0  0  0  0  0
    0.2943   -3.0655    0.0000 C   0  0  0  0  0  0  0  0  0  0  0  0
    0.9074   -3.6176    0.0000 O   0  0  0  0  0  0  0  0  0  0  0  0
    0.3805   -2.2451    0.0000 N   0  0  0  0  0  0  0  0  0  0  0  0
    1.0950   -1.8326    0.0000 C   0  0  0  0  0  0  0  0  0  0  0  0
    1.8094   -2.2451    0.0000 C   0  0  0  0  0  0  0  0  0  0  0  0
    2.5239   -1.8326    0.0000 C   0  0  0  0  0  0  0  0  0  0  0  0
    3.2384   -2.2451    0.0000 O   0  0  0  0  0  0  0  0  0  0  0  0
    3.9529   -1.8326    0.0000 P   0  0  0  0  0  0  0  0  0  0  0  0
    4.6673   -1.4201    0.0000 O   0  0  0  0  0  0  0  0  0  0  0  0
    4.3654   -2.5470    0.0000 O   0  0  0  0  0  0  0  0  0  0  0  0
    3.5404   -1.1181    0.0000 O   0  0  0  0  0  0  0  0  0  0  0  0
   -0.3732   -1.9095    0.0000 C   0  0  0  0  0  0  0  0  0  0  0  0
   -0.9252   -2.5226    0.0000 C   0  0  0  0  0  0  0  0  0  0  0  0
   -1.7322   -2.3511    0.0000 N   0  0  0  0  0  0  0  0  0  0  0  0
   -1.9871   -1.5665    0.0000 C   0  0  0  0  0  0  0  0  0  0  0  0
   -2.7941   -1.3949    0.0000 O   0  0  0  0  0  0  0  0  0  0  0  0
   -1.4351   -0.9534    0.0000 N   0  0  0  0  0  0  0  0  0  0  0  0
   -0.6281   -1.1249    0.0000 C   0  0  0  0  0  0  0  0  0  0  0  0
   -0.0761   -0.5118    0.0000 O   0  0  0  0  0  0  0  0  0  0  0  0
   -4.5509   -4.9720    0.0000 H   0  0  0  0  0  0  0  0  0  0  0  0
   -2.5314   -6.5362    0.0000 H   0  0  0  0  0  0  0  0  0  0  0  0
   -2.0962   -5.5587    0.0000 H   0  0  0  0  0  0  0  0  0  0  0  0
   -3.8889   -5.0288    0.0000 H   0  0  0  0  0  0  0  0  0  0  0  0
   -2.9152   -3.3634    0.0000 H   0  0  0  0  0  0  0  0  0  0  0  0
   -2.4395   -5.8082    0.0000 H   0  0  0  0  0  0  0  0  0  0  0  0
   -1.9139   -6.3842    0.0000 H   0  0  0  0  0  0  0  0  0  0  0  0
   -2.7328   -4.1888    0.0000 H   0  0  0  0  0  0  0  0  0  0  0  0
   -1.7592   -2.5233    0.0000 H   0  0  0  0  0  0  0  0  0  0  0  0
   -0.2194   -4.8563    0.0000 H   0  0  0  0  0  0  0  0  0  0  0  0
    0.2158   -3.8789    0.0000 H   0  0  0  0  0  0  0  0  0  0  0  0
    1.0950   -0.7626    0.0000 H   0  0  0  0  0  0  0  0  0  0  0  0
    2.0217   -1.2976    0.0000 H   0  0  0  0  0  0  0  0  0  0  0  0
    1.8094   -3.3151    0.0000 H   0  0  0  0  0  0  0  0  0  0  0  0
    2.7360   -2.7801    0.0000 H   0  0  0  0  0  0  0  0  0  0  0  0
    2.5239   -0.7626    0.0000 H   0  0  0  0  0  0  0  0  0  0  0  0
    3.4505   -1.2976    0.0000 H   0  0  0  0  0  0  0  0  0  0  0  0
    5.5074   -1.9051    0.0000 H   0  0  0  0  0  0  0  0  0  0  0  0
    3.8804   -3.3871    0.0000 H   0  0  0  0  0  0  0  0  0  0  0  0
   -2.3910   -3.0827    0.0000 H   0  0  0  0  0  0  0  0  0  0  0  0
   -1.7394   -0.0171    0.0000 H   0  0  0  0  0  0  0  0  0  0  0  0
  1  2  1  0  0  0  0
  1 30  1  0  0  0  0
  2  3  1  0  0  0  0
  2 31  1  0  0  0  0
  2 32  1  0  0  0  0
  3  4  1  0  0  0  0
  3  5  1  0  0  0  0
  3 33  1  6  0  0  0
  4 34  1  0  0  0  0
  5  6  1  0  0  0  0
  5  7  1  0  0  0  0
  5 35  1  6  0  0  0
  6 36  1  0  0  0  0
  7  8  1  0  0  0  0
  7  9  1  0  0  0  0
  7 37  1  6  0  0  0
  8 38  1  0  0  0  0
  9 10  1  0  0  0  0
  9 39  1  0  0  0  0
  9 40  1  0  0  0  0
 10 11  1  0  0  0  0
 10 23  1  0  0  0  0
 11 12  2  0  0  0  0
 11 13  1  0  0  0  0
 13 14  1  0  0  0  0
 13 22  1  0  0  0  0
 14 15  1  0  0  0  0
 14 41  1  0  0  0  0
 14 42  1  0  0  0  0
 15 16  1  0  0  0  0
 15 43  1  0  0  0  0
 15 44  1  0  0  0  0
 16 17  1  0  0  0  0
 16 45  1  0  0  0  0
 16 46  1  0  0  0  0
 17 18  1  0  0  0  0
 18 19  1  0  0  0  0
 18 20  1  0  0  0  0
 18 21  2  0  0  0  0
 19 47  1  0  0  0  0
 20 48  1  0  0  0  0
 22 23  2  0  0  0  0
 22 28  1  0  0  0  0
 23 24  1  0  0  0  0
 24 25  1  0  0  0  0
 24 49  1  0  0  0  0
 25 26  2  0  0  0  0
 25 27  1  0  0  0  0
 27 28  1  0  0  0  0
 27 50  1  0  0  0  0
 28 29  2  0  0  0  0
M  END
>  <DRUGBANK_ID>
DB03812

>  <SECONDARY_ACCESSION_NUMBERS>
EXPT02992

>  <COMMON_NAME>
3-{2,6,8-trioxo-9-[(2S,3R,4R)-2,3,4,5-tetrahydroxypentyl]-1,2,3,6,8,9-hexahydro-7H-purin-7-Yl}propyl dihydrogen phosphate

$$$$
