
 OpenBabel10282417072D

 41 42  0  0  0  0  0  0  0  0999 V2000
    0.3572   -1.6500    0.0000 O   0  0  0  0  0  0  0  0  0  0  0  0
   -1.7862   -2.8875    0.0000 O   0  0  0  0  0  0  0  0  0  0  0  0
   -0.3572   -3.7125    0.0000 O   0  0  0  0  0  0  0  0  0  0  0  0
   -1.7862   -1.2375    0.0000 O   0  0  0  0  0  0  0  0  0  0  0  0
    1.7862   -2.4750    0.0000 O   0  0  0  0  0  0  0  0  0  0  0  0
    1.0716   -0.4125    0.0000 O   0  0  0  0  0  0  0  0  0  0  0  0
    1.7862    0.8250    0.0000 O   0  0  0  0  0  0  0  0  0  0  0  0
   -0.3572   -0.4125    0.0000 N   0  0  0  0  0  0  0  0  0  0  0  0
    0.3572    0.8250    0.0000 N   0  0  0  0  0  0  0  0  0  0  0  0
   -1.0716   -2.4750    0.0000 C   0  0  1  0  0  0  0  0  0  0  0  0
   -0.3572   -2.8875    0.0000 C   0  0  1  0  0  0  0  0  0  0  0  0
   -1.0716   -1.6500    0.0000 C   0  0  2  0  0  0  0  0  0  0  0  0
    0.3572   -2.4750    0.0000 C   0  0  1  0  0  0  0  0  0  0  0  0
   -0.3572   -1.2375    0.0000 C   0  0  1  0  0  0  0  0  0  0  0  0
    1.0716   -2.8875    0.0000 C   0  0  0  0  0  0  0  0  0  0  0  0
    0.3572    0.0000    0.0000 C   0  0  0  0  0  0  0  0  0  0  0  0
    1.0716    1.2375    0.0000 C   0  0  0  0  0  0  0  0  0  0  0  0
    1.0716    2.0625    0.0000 C   0  0  0  0  0  0  0  0  0  0  0  0
    0.3572    2.4750    0.0000 C   0  0  0  0  0  0  0  0  0  0  0  0
    1.7862    2.4750    0.0000 C   0  0  0  0  0  0  0  0  0  0  0  0
    0.3572    3.3000    0.0000 C   0  0  0  0  0  0  0  0  0  0  0  0
    1.7862    3.3000    0.0000 C   0  0  0  0  0  0  0  0  0  0  0  0
    1.0716    3.7125    0.0000 C   0  0  0  0  0  0  0  0  0  0  0  0
   -0.8001   -0.1567    0.0000 H   0  0  0  0  0  0  0  0  0  0  0  0
   -0.0857    1.0807    0.0000 H   0  0  0  0  0  0  0  0  0  0  0  0
   -2.6262   -2.4024    0.0000 H   0  0  0  0  0  0  0  0  0  0  0  0
   -1.1972   -4.1975    0.0000 H   0  0  0  0  0  0  0  0  0  0  0  0
   -1.7863   -0.2675    0.0000 H   0  0  0  0  0  0  0  0  0  0  0  0
    2.6262   -2.9601    0.0000 H   0  0  0  0  0  0  0  0  0  0  0  0
   -1.0717   -3.5450    0.0000 H   0  0  0  0  0  0  0  0  0  0  0  0
   -1.2839   -3.4225    0.0000 H   0  0  0  0  0  0  0  0  0  0  0  0
   -1.9982   -2.1850    0.0000 H   0  0  0  0  0  0  0  0  0  0  0  0
    1.2839   -1.9400    0.0000 H   0  0  0  0  0  0  0  0  0  0  0  0
    0.5695   -0.7025    0.0000 H   0  0  0  0  0  0  0  0  0  0  0  0
    1.0715   -3.9575    0.0000 H   0  0  0  0  0  0  0  0  0  0  0  0
    0.1449   -3.4225    0.0000 H   0  0  0  0  0  0  0  0  0  0  0  0
   -0.5365    1.9590    0.0000 H   0  0  0  0  0  0  0  0  0  0  0  0
    2.6799    1.9590    0.0000 H   0  0  0  0  0  0  0  0  0  0  0  0
   -0.5365    3.8160    0.0000 H   0  0  0  0  0  0  0  0  0  0  0  0
    2.6799    3.8160    0.0000 H   0  0  0  0  0  0  0  0  0  0  0  0
    1.0715    4.7445    0.0000 H   0  0  0  0  0  0  0  0  0  0  0  0
  1 13  1  0  0  0  0
  1 14  1  0  0  0  0
  2 26  1  0  0  0  0
  3 27  1  0  0  0  0
  4 28  1  0  0  0  0
  5 15  1  0  0  0  0
  5 29  1  0  0  0  0
  6 16  2  0  0  0  0
  7 17  2  0  0  0  0
  8 16  1  0  0  0  0
  8 24  1  0  0  0  0
  9 16  1  0  0  0  0
  9 17  1  0  0  0  0
  9 25  1  0  0  0  0
 10  2  1  0  0  0  0
 10 11  1  0  0  0  0
 10 12  1  0  0  0  0
 10 30  1  1  0  0  0
 11  3  1  0  0  0  0
 11 13  1  0  0  0  0
 11 31  1  6  0  0  0
 12  4  1  0  0  0  0
 12 14  1  0  0  0  0
 12 32  1  6  0  0  0
 13 15  1  0  0  0  0
 13 33  1  1  0  0  0
 14  8  1  0  0  0  0
 14 34  1  1  0  0  0
 15 35  1  0  0  0  0
 15 36  1  0  0  0  0
 17 18  1  0  0  0  0
 18 19  2  0  0  0  0
 18 20  1  0  0  0  0
 19 21  1  0  0  0  0
 19 37  1  0  0  0  0
 20 22  2  0  0  0  0
 20 38  1  0  0  0  0
 21 23  2  0  0  0  0
 21 39  1  0  0  0  0
 22 23  1  0  0  0  0
 22 40  1  0  0  0  0
 23 41  1  0  0  0  0
M  END
>  <DRUGBANK_ID>
DB04295

>  <SECONDARY_ACCESSION_NUMBERS>
EXPT00789

>  <COMMON_NAME>
N-(Benzoylcarbamoyl)-beta-D-glucopyranosylamine

>  <SYNONYMS>
N-benzoyl-N'-beta-D-glucopyranosyl urea

$$$$
