N4T
 OpenBabel10282417072D

 46 49  0  0  0  0  0  0  0  0999 V2000
    1.0624   -2.6877    0.0000 C   0  0  0  0  0  0  0  0  0  0  0  0
    0.7269   -1.9341    0.0000 C   0  0  0  0  0  0  0  0  0  0  0  0
    1.2118   -1.2666    0.0000 C   0  0  0  0  0  0  0  0  0  0  0  0
    2.0323   -1.3529    0.0000 C   0  0  0  0  0  0  0  0  0  0  0  0
    2.3678   -2.1065    0.0000 C   0  0  0  0  0  0  0  0  0  0  0  0
    1.8829   -2.7740    0.0000 C   0  0  0  0  0  0  0  0  0  0  0  0
    0.8763   -0.5129    0.0000 C   0  0  0  0  0  0  0  0  0  0  0  0
    0.0693   -0.3414    0.0000 C   0  0  0  0  0  0  0  0  0  0  0  0
   -0.0170    0.4791    0.0000 N   0  0  0  0  0  0  0  0  0  0  0  0
    0.7367    0.8146    0.0000 C   0  0  1  0  0  0  0  0  0  0  0  0
    1.2888    0.2015    0.0000 C   0  0  0  0  0  0  0  0  0  0  0  0
    0.9082    1.6216    0.0000 C   0  0  0  0  0  0  0  0  0  0  0  0
    0.2952    2.1736    0.0000 C   0  0  0  0  0  0  0  0  0  0  0  0
    0.4667    2.9806    0.0000 C   0  0  0  0  0  0  0  0  0  0  0  0
    1.2513    3.2355    0.0000 C   0  0  0  0  0  0  0  0  0  0  0  0
    1.8644    2.6835    0.0000 C   0  0  0  0  0  0  0  0  0  0  0  0
    1.6929    1.8765    0.0000 C   0  0  0  0  0  0  0  0  0  0  0  0
   -0.7314    0.8916    0.0000 C   0  0  0  0  0  0  0  0  0  0  0  0
   -1.4459    0.4791    0.0000 C   0  0  2  0  0  0  0  0  0  0  0  0
   -1.4459   -0.3459    0.0000 C   0  0  0  0  0  0  0  0  0  0  0  0
    2.5172   -0.6854    0.0000 F   0  0  0  0  0  0  0  0  0  0  0  0
    0.5775   -3.3552    0.0000 F   0  0  0  0  0  0  0  0  0  0  0  0
   -0.7314    1.7166    0.0000 O   0  0  0  0  0  0  0  0  0  0  0  0
   -1.0334   -1.0604    0.0000 C   0  0  0  0  0  0  0  0  0  0  0  0
   -2.1604    0.8916    0.0000 N   0  0  0  0  0  0  0  0  0  0  0  0
   -1.8584   -1.0604    0.0000 C   0  0  0  0  0  0  0  0  0  0  0  0
    0.2829    1.1821    0.0000 H   0  0  0  0  0  0  0  0  0  0  0  0
   -0.9402    0.1871    0.0000 H   0  0  0  0  0  0  0  0  0  0  0  0
   -0.2994   -1.8262    0.0000 H   0  0  0  0  0  0  0  0  0  0  0  0
    3.3941   -2.2144    0.0000 H   0  0  0  0  0  0  0  0  0  0  0  0
    2.3026   -3.7168    0.0000 H   0  0  0  0  0  0  0  0  0  0  0  0
   -0.7258   -1.0574    0.0000 H   0  0  0  0  0  0  0  0  0  0  0  0
   -0.9297    0.0420    0.0000 H   0  0  0  0  0  0  0  0  0  0  0  0
    2.3151    0.3094    0.0000 H   0  0  0  0  0  0  0  0  0  0  0  0
   -0.6863    1.8547    0.0000 H   0  0  0  0  0  0  0  0  0  0  0  0
   -0.3002    3.6711    0.0000 H   0  0  0  0  0  0  0  0  0  0  0  0
    1.4659    4.2449    0.0000 H   0  0  0  0  0  0  0  0  0  0  0  0
    2.8459    3.0024    0.0000 H   0  0  0  0  0  0  0  0  0  0  0  0
    2.4598    1.1859    0.0000 H   0  0  0  0  0  0  0  0  0  0  0  0
   -1.4459   -1.4159    0.0000 H   0  0  0  0  0  0  0  0  0  0  0  0
   -0.1068   -1.5954    0.0000 H   0  0  0  0  0  0  0  0  0  0  0  0
   -1.3103   -2.0939    0.0000 H   0  0  0  0  0  0  0  0  0  0  0  0
   -2.1604    1.9116    0.0000 H   0  0  0  0  0  0  0  0  0  0  0  0
   -3.0437    0.3816    0.0000 H   0  0  0  0  0  0  0  0  0  0  0  0
   -2.7850   -1.5954    0.0000 H   0  0  0  0  0  0  0  0  0  0  0  0
   -1.5815   -2.0939    0.0000 H   0  0  0  0  0  0  0  0  0  0  0  0
  1  2  1  0  0  0  0
  1  6  2  0  0  0  0
  1 22  1  0  0  0  0
  2  3  2  0  0  0  0
  2 29  1  0  0  0  0
  3  4  1  0  0  0  0
  3  7  1  0  0  0  0
  4  5  2  0  0  0  0
  4 21  1  0  0  0  0
  5  6  1  0  0  0  0
  5 30  1  0  0  0  0
  6 31  1  0  0  0  0
  7  8  1  0  0  0  0
  7 11  2  0  0  0  0
  8  9  1  0  0  0  0
  8 32  1  0  0  0  0
  8 33  1  0  0  0  0
  9 10  1  0  0  0  0
  9 18  1  0  0  0  0
 10 11  1  0  0  0  0
 10 12  1  0  0  0  0
 10 27  1  1  0  0  0
 11 34  1  0  0  0  0
 12 13  1  0  0  0  0
 12 17  2  0  0  0  0
 13 14  2  0  0  0  0
 13 35  1  0  0  0  0
 14 15  1  0  0  0  0
 14 36  1  0  0  0  0
 15 16  2  0  0  0  0
 15 37  1  0  0  0  0
 16 17  1  0  0  0  0
 16 38  1  0  0  0  0
 17 39  1  0  0  0  0
 18 19  1  0  0  0  0
 18 23  2  0  0  0  0
 19 20  1  0  0  0  0
 19 25  1  0  0  0  0
 19 28  1  1  0  0  0
 20 24  1  0  0  0  0
 20 26  1  0  0  0  0
 20 40  1  0  0  0  0
 24 26  1  0  0  0  0
 24 41  1  0  0  0  0
 24 42  1  0  0  0  0
 25 43  1  0  0  0  0
 25 44  1  0  0  0  0
 26 45  1  0  0  0  0
 26 46  1  0  0  0  0
M  END
>  <DRUGBANK_ID>
DB08244

>  <COMMON_NAME>
(1S)-1-CYCLOPROPYL-2-[(2S)-4-(2,5-DIFLUOROPHENYL)-2-PHENYL-2,5-DIHYDRO-1H-PYRROL-1-YL]-2-OXOETHANAMINE

$$$$
