
 OpenBabel10282417072D

  4  3  0  0  0  0  0  0  0  0999 V2000
    0.0000    0.2062    0.0000 P   0  0  0  0  0  0  0  0  0  0  0  0
    0.7145    0.6187    0.0000 H   0  0  0  0  0  0  0  0  0  0  0  0
   -0.7145    0.6187    0.0000 H   0  0  0  0  0  0  0  0  0  0  0  0
    0.0000   -0.6187    0.0000 H   0  0  0  0  0  0  0  0  0  0  0  0
  1  2  1  0  0  0  0
  1  3  1  0  0  0  0
  1  4  1  0  0  0  0
M  ISO  1   1  32
M  END
>  <DRUGBANK_ID>
DB14551

>  <COMMON_NAME>
Phosphorus P-32

>  <CAS_NUMBER>
14596-37-3

>  <UNII>
690284A407

>  <SYNONYMS>
P-32; Phosphorus-32; Phosphorus, P-32

$$$$
