
 OpenBabel10282417072D

 56 59  0  0  1  0  0  0  0  0999 V2000
   16.1182  -17.0335    0.0000 C   0  0  0  0  0  0  0  0  0  0  0  0
   16.1182  -17.8585    0.0000 C   0  0  0  0  0  0  0  0  0  0  0  0
   16.8327  -18.2710    0.0000 C   0  0  0  0  0  0  0  0  0  0  0  0
   17.5472  -17.8585    0.0000 C   0  0  0  0  0  0  0  0  0  0  0  0
   17.5472  -17.0335    0.0000 C   0  0  2  0  0  0  0  0  0  0  0  0
   16.8327  -16.6210    0.0000 C   0  0  0  0  0  0  0  0  0  0  0  0
   18.2616  -18.2710    0.0000 C   0  0  0  0  0  0  0  0  0  0  0  0
   18.9761  -17.8585    0.0000 C   0  0  0  0  0  0  0  0  0  0  0  0
   18.9761  -17.0335    0.0000 C   0  0  2  0  0  0  0  0  0  0  0  0
   18.2616  -16.6210    0.0000 C   0  0  2  0  0  0  0  0  0  0  0  0
   19.6907  -16.6210    0.0000 C   0  0  1  0  0  0  0  0  0  0  0  0
   19.6907  -15.7959    0.0000 C   0  0  2  0  0  0  0  0  0  0  0  0
   18.9761  -15.3834    0.0000 C   0  0  0  0  0  0  0  0  0  0  0  0
   18.2616  -15.7959    0.0000 C   0  0  2  0  0  0  0  0  0  0  0  0
   21.1196  -16.6210    0.0000 C   0  0  0  0  0  0  0  0  0  0  0  0
   21.1196  -15.7959    0.0000 C   0  0  0  0  0  0  0  0  0  0  0  0
   20.4051  -15.3834    0.0000 C   0  0  2  0  0  0  0  0  0  0  0  0
   15.4038  -18.2710    0.0000 O   0  0  0  0  0  0  0  0  0  0  0  0
   20.4051  -14.5584    0.0000 C   0  0  0  0  0  0  0  0  0  0  0  0
   21.1220  -14.1445    0.0000 C   0  0  0  0  0  0  0  0  0  0  0  0
   19.6930  -14.1472    0.0000 O   0  0  0  0  0  0  0  0  0  0  0  0
   21.8276  -14.5520    0.0000 S   0  0  0  0  0  0  0  0  0  0  0  0
   21.1196  -15.0534    0.0000 O   0  0  0  0  0  0  0  0  0  0  0  0
   17.5472  -15.3834    0.0000 O   0  0  0  0  0  0  0  0  0  0  0  0
   17.5472  -16.2084    0.0000 C   0  0  0  0  0  0  0  0  0  0  0  0
   18.9761  -16.2084    0.0000 H   0  0  0  0  0  0  0  0  0  0  0  0
   18.2616  -17.4460    0.0000 H   0  0  0  0  0  0  0  0  0  0  0  0
   19.6907  -17.4460    0.0000 H   0  0  0  0  0  0  0  0  0  0  0  0
   19.6907  -14.9530    0.0000 C   0  0  0  0  0  0  0  0  0  0  0  0
   15.1916  -16.4985    0.0000 H   0  0  0  0  0  0  0  0  0  0  0  0
   16.1182  -15.9635    0.0000 H   0  0  0  0  0  0  0  0  0  0  0  0
   16.8327  -19.3030    0.0000 H   0  0  0  0  0  0  0  0  0  0  0  0
   16.8327  -15.5510    0.0000 H   0  0  0  0  0  0  0  0  0  0  0  0
   15.9061  -16.0860    0.0000 H   0  0  0  0  0  0  0  0  0  0  0  0
   18.2616  -19.3410    0.0000 H   0  0  0  0  0  0  0  0  0  0  0  0
   19.1882  -18.8060    0.0000 H   0  0  0  0  0  0  0  0  0  0  0  0
   19.9027  -18.3935    0.0000 H   0  0  0  0  0  0  0  0  0  0  0  0
   19.9027  -17.3235    0.0000 H   0  0  0  0  0  0  0  0  0  0  0  0
   18.9761  -14.3134    0.0000 H   0  0  0  0  0  0  0  0  0  0  0  0
   18.0494  -14.8484    0.0000 H   0  0  0  0  0  0  0  0  0  0  0  0
   18.2616  -14.7259    0.0000 H   0  0  0  0  0  0  0  0  0  0  0  0
   21.8762  -17.3776    0.0000 H   0  0  0  0  0  0  0  0  0  0  0  0
   22.1082  -16.2115    0.0000 H   0  0  0  0  0  0  0  0  0  0  0  0
   22.0462  -15.2609    0.0000 H   0  0  0  0  0  0  0  0  0  0  0  0
   21.1196  -14.7259    0.0000 H   0  0  0  0  0  0  0  0  0  0  0  0
   21.1221  -13.0745    0.0000 H   0  0  0  0  0  0  0  0  0  0  0  0
   22.0487  -13.6096    0.0000 H   0  0  0  0  0  0  0  0  0  0  0  0
   21.8274  -15.9120    0.0000 H   0  0  0  0  0  0  0  0  0  0  0  0
   21.9121  -15.6127    0.0000 H   0  0  0  0  0  0  0  0  0  0  0  0
   17.5472  -14.4134    0.0000 H   0  0  0  0  0  0  0  0  0  0  0  0
   18.4738  -15.6734    0.0000 H   0  0  0  0  0  0  0  0  0  0  0  0
   16.6206  -15.6734    0.0000 H   0  0  0  0  0  0  0  0  0  0  0  0
   17.5472  -15.1384    0.0000 H   0  0  0  0  0  0  0  0  0  0  0  0
   20.6173  -14.4180    0.0000 H   0  0  0  0  0  0  0  0  0  0  0  0
   18.7641  -14.4180    0.0000 H   0  0  0  0  0  0  0  0  0  0  0  0
   19.6907  -13.8830    0.0000 H   0  0  0  0  0  0  0  0  0  0  0  0
  1  2  1  0  0  0  0
  1  6  1  0  0  0  0
  1 30  1  0  0  0  0
  1 31  1  0  0  0  0
  2  3  1  0  0  0  0
  2 18  2  0  0  0  0
  3  4  2  0  0  0  0
  3 32  1  0  0  0  0
  4  5  1  0  0  0  0
  4  7  1  0  0  0  0
  5  6  1  0  0  0  0
  5 10  1  0  0  0  0
  5 25  1  1  0  0  0
  6 33  1  0  0  0  0
  6 34  1  0  0  0  0
  7  8  1  0  0  0  0
  7 35  1  0  0  0  0
  7 36  1  0  0  0  0
  8  9  1  0  0  0  0
  8 37  1  0  0  0  0
  8 38  1  0  0  0  0
  9 10  1  0  0  0  0
  9 11  1  0  0  0  0
  9 26  1  1  0  0  0
 10 14  1  0  0  0  0
 10 27  1  6  0  0  0
 11 12  1  0  0  0  0
 11 15  1  0  0  0  0
 11 28  1  6  0  0  0
 12 13  1  0  0  0  0
 12 17  1  0  0  0  0
 12 29  1  1  0  0  0
 13 14  1  0  0  0  0
 13 39  1  0  0  0  0
 13 40  1  0  0  0  0
 14 24  1  0  0  0  0
 14 41  1  6  0  0  0
 15 16  1  0  0  0  0
 15 42  1  0  0  0  0
 15 43  1  0  0  0  0
 16 17  1  0  0  0  0
 16 44  1  0  0  0  0
 16 45  1  0  0  0  0
 17 19  1  1  0  0  0
 17 23  1  0  0  0  0
 19 20  1  0  0  0  0
 19 21  2  0  0  0  0
 20 22  1  0  0  0  0
 20 46  1  0  0  0  0
 20 47  1  0  0  0  0
 22 48  1  0  0  0  0
 23 49  1  0  0  0  0
 24 50  1  0  0  0  0
 25 51  1  0  0  0  0
 25 52  1  0  0  0  0
 25 53  1  0  0  0  0
 29 54  1  0  0  0  0
 29 55  1  0  0  0  0
 29 56  1  0  0  0  0
M  END
>  <DRUGBANK_ID>
DB09091

>  <COMMON_NAME>
Tixocortol

>  <CAS_NUMBER>
61951-99-3

>  <UNII>
ZX3KEK657Z

>  <SYNONYMS>
Tixocortol

$$$$
