
 OpenBabel10282417072D

 35 36  0  0  1  0  0  0  0  0999 V2000
   -0.3020    2.3007    0.0000 C   0  0  0  0  0  0  0  0  0  0  0  0
    0.4125    1.8882    0.0000 C   0  0  0  0  0  0  0  0  0  0  0  0
    0.4125    1.0632    0.0000 C   0  0  0  0  0  0  0  0  0  0  0  0
    1.1270    2.3007    0.0000 C   0  0  0  0  0  0  0  0  0  0  0  0
    1.1270    3.1257    0.0000 C   0  0  0  0  0  0  0  0  0  0  0  0
    1.8414    3.5382    0.0000 C   0  0  0  0  0  0  0  0  0  0  0  0
    2.5559    3.1257    0.0000 C   0  0  0  0  0  0  0  0  0  0  0  0
    2.5559    2.3007    0.0000 C   0  0  0  0  0  0  0  0  0  0  0  0
    3.2704    1.8882    0.0000 C   0  0  2  0  0  0  0  0  0  0  0  0
    3.9849    2.3007    0.0000 C   0  0  0  0  0  0  0  0  0  0  0  0
    3.2704    1.0632    0.0000 C   0  0  0  0  0  0  0  0  0  0  0  0
    3.6829    0.3487    0.0000 C   0  0  0  0  0  0  0  0  0  0  0  0
    2.8579    0.3487    0.0000 C   0  0  0  0  0  0  0  0  0  0  0  0
    1.8414    1.8882    0.0000 C   0  0  0  0  0  0  0  0  0  0  0  0
    1.8414    1.0632    0.0000 O   0  0  0  0  0  0  0  0  0  0  0  0
   -0.3020    3.3707    0.0000 H   0  0  0  0  0  0  0  0  0  0  0  0
   -1.2286    1.7657    0.0000 H   0  0  0  0  0  0  0  0  0  0  0  0
   -1.2287    2.8357    0.0000 H   0  0  0  0  0  0  0  0  0  0  0  0
    1.3391    1.3532    0.0000 H   0  0  0  0  0  0  0  0  0  0  0  0
   -0.5141    0.5282    0.0000 H   0  0  0  0  0  0  0  0  0  0  0  0
    1.3391    0.5282    0.0000 H   0  0  0  0  0  0  0  0  0  0  0  0
    0.4125   -0.0068    0.0000 H   0  0  0  0  0  0  0  0  0  0  0  0
    0.2333    3.6417    0.0000 H   0  0  0  0  0  0  0  0  0  0  0  0
    1.8414    4.5702    0.0000 H   0  0  0  0  0  0  0  0  0  0  0  0
    3.4496    3.6417    0.0000 H   0  0  0  0  0  0  0  0  0  0  0  0
    3.2704    2.9582    0.0000 H   0  0  0  0  0  0  0  0  0  0  0  0
    4.9115    1.7657    0.0000 H   0  0  0  0  0  0  0  0  0  0  0  0
    3.9849    3.3707    0.0000 H   0  0  0  0  0  0  0  0  0  0  0  0
    4.9116    2.8357    0.0000 H   0  0  0  0  0  0  0  0  0  0  0  0
    3.2704   -0.0068    0.0000 H   0  0  0  0  0  0  0  0  0  0  0  0
    4.6095   -0.1863    0.0000 H   0  0  0  0  0  0  0  0  0  0  0  0
    3.4060   -0.6848    0.0000 H   0  0  0  0  0  0  0  0  0  0  0  0
    1.9313   -0.1863    0.0000 H   0  0  0  0  0  0  0  0  0  0  0  0
    2.1013    1.1053    0.0000 H   0  0  0  0  0  0  0  0  0  0  0  0
    1.0299    0.5947    0.0000 H   0  0  0  0  0  0  0  0  0  0  0  0
  1  2  1  0  0  0  0
  1 16  1  0  0  0  0
  1 17  1  0  0  0  0
  1 18  1  0  0  0  0
  2  3  1  0  0  0  0
  2  4  1  0  0  0  0
  2 19  1  0  0  0  0
  3 20  1  0  0  0  0
  3 21  1  0  0  0  0
  3 22  1  0  0  0  0
  4  5  2  0  0  0  0
  4 14  1  0  0  0  0
  5  6  1  0  0  0  0
  5 23  1  0  0  0  0
  6  7  2  0  0  0  0
  6 24  1  0  0  0  0
  7  8  1  0  0  0  0
  7 25  1  0  0  0  0
  8 14  2  0  0  0  0
  9  8  1  0  0  0  0
  9 10  1  0  0  0  0
  9 11  1  0  0  0  0
  9 26  1  1  0  0  0
 10 27  1  0  0  0  0
 10 28  1  0  0  0  0
 10 29  1  0  0  0  0
 11 12  1  0  0  0  0
 11 13  1  0  0  0  0
 11 30  1  0  0  0  0
 12 13  1  0  0  0  0
 12 31  1  0  0  0  0
 12 32  1  0  0  0  0
 13 33  1  0  0  0  0
 13 34  1  0  0  0  0
 14 15  1  0  0  0  0
 15 35  1  0  0  0  0
M  END
>  <DRUGBANK_ID>
DB16295

>  <COMMON_NAME>
HSK-3486

>  <CAS_NUMBER>
1637741-58-2

>  <UNII>
M3WGS532VY

$$$$
