Indole-3-acetic acid.mol
 OpenBabel10282417072D

 21 21  0  0  0  0  0  0  0  0999 V2000
   -2.2687   -0.7145    0.0000 N   0  0  0  0  0  0  0  0  0  0  0  0
   -1.4438   -0.7145    0.0000 C   0  0  0  0  0  0  0  0  0  0  0  0
   -1.0312    0.0000    0.0000 C   0  0  0  0  0  0  0  0  0  0  0  0
   -0.2062    0.0000    0.0000 C   0  0  0  0  0  0  0  0  0  0  0  0
    0.2062    0.7145    0.0000 C   0  0  0  0  0  0  0  0  0  0  0  0
    1.0313    0.7145    0.0000 C   0  0  0  0  0  0  0  0  0  0  0  0
    1.4438    0.0000    0.0000 C   0  0  0  0  0  0  0  0  0  0  0  0
    2.2687    0.0000    0.0000 O   0  0  0  0  0  0  0  0  0  0  0  0
    1.0313   -0.7145    0.0000 C   0  0  0  0  0  0  0  0  0  0  0  0
    0.2062   -0.7145    0.0000 C   0  0  0  0  0  0  0  0  0  0  0  0
   -2.7787    0.1688    0.0000 H   0  0  0  0  0  0  0  0  0  0  0  0
   -2.7787   -1.5978    0.0000 H   0  0  0  0  0  0  0  0  0  0  0  0
   -0.9088   -1.6412    0.0000 H   0  0  0  0  0  0  0  0  0  0  0  0
   -0.3738   -0.7146    0.0000 H   0  0  0  0  0  0  0  0  0  0  0  0
   -1.5662    0.9267    0.0000 H   0  0  0  0  0  0  0  0  0  0  0  0
   -0.4962    0.9266    0.0000 H   0  0  0  0  0  0  0  0  0  0  0  0
   -0.3099    1.6082    0.0000 H   0  0  0  0  0  0  0  0  0  0  0  0
    1.5473    1.6082    0.0000 H   0  0  0  0  0  0  0  0  0  0  0  0
    2.7372   -0.8115    0.0000 H   0  0  0  0  0  0  0  0  0  0  0  0
    1.5473   -1.6082    0.0000 H   0  0  0  0  0  0  0  0  0  0  0  0
   -0.3099   -1.6082    0.0000 H   0  0  0  0  0  0  0  0  0  0  0  0
  1  2  1  0  0  0  0
  1 11  1  0  0  0  0
  1 12  1  0  0  0  0
  2  3  1  0  0  0  0
  2 13  1  0  0  0  0
  2 14  1  0  0  0  0
  3  4  1  0  0  0  0
  3 15  1  0  0  0  0
  3 16  1  0  0  0  0
  4  5  2  0  0  0  0
  4 10  1  0  0  0  0
  5  6  1  0  0  0  0
  5 17  1  0  0  0  0
  6  7  2  0  0  0  0
  6 18  1  0  0  0  0
  7  8  1  0  0  0  0
  7  9  1  0  0  0  0
  8 19  1  0  0  0  0
  9 10  2  0  0  0  0
  9 20  1  0  0  0  0
 10 21  1  0  0  0  0
M  END
>  <DRUGBANK_ID>
DB08841

>  <COMMON_NAME>
Tyramine

>  <CAS_NUMBER>
51-67-2

>  <UNII>
X8ZC7V0OX3

$$$$
