KIM
 OpenBabel10282417072D

 55 58  0  0  0  0  0  0  0  0999 V2000
    1.4110   -0.5631    0.0000 N   0  0  0  0  0  0  0  0  0  0  0  0
    0.6965    0.6744    0.0000 N   0  0  0  0  0  0  0  0  0  0  0  0
    1.4110   -1.3881    0.0000 C   0  0  0  0  0  0  0  0  0  0  0  0
    0.6965   -0.1506    0.0000 C   0  0  0  0  0  0  0  0  0  0  0  0
   -0.7324   -0.1506    0.0000 C   0  0  0  0  0  0  0  0  0  0  0  0
   -0.7324    0.6744    0.0000 C   0  0  0  0  0  0  0  0  0  0  0  0
   -0.0179    1.0869    0.0000 C   0  0  0  0  0  0  0  0  0  0  0  0
   -0.7324    2.3244    0.0000 C   0  0  0  0  0  0  0  0  0  0  0  0
   -2.1613    3.1494    0.0000 C   0  0  0  0  0  0  0  0  0  0  0  0
   -3.2009    4.1889    0.0000 C   0  0  0  0  0  0  0  0  0  0  0  0
   -1.4469    1.9119    0.0000 C   0  0  0  0  0  0  0  0  0  0  0  0
   -0.7324   -2.6256    0.0000 C   0  0  0  0  0  0  0  0  0  0  0  0
    1.4110   -3.0381    0.0000 C   0  0  0  0  0  0  0  0  0  0  0  0
    2.1255   -4.2756    0.0000 C   0  0  0  0  0  0  0  0  0  0  0  0
    3.5544   -2.6256    0.0000 C   0  0  0  0  0  0  0  0  0  0  0  0
    2.8400   -3.0381    0.0000 O   0  0  0  0  0  0  0  0  0  0  0  0
    2.1255   -2.6256    0.0000 C   0  0  0  0  0  0  0  0  0  0  0  0
    2.1255   -1.8006    0.0000 C   0  0  0  0  0  0  0  0  0  0  0  0
   -0.0179   -0.5631    0.0000 N   0  0  0  0  0  0  0  0  0  0  0  0
   -0.0179    1.9119    0.0000 N   0  0  0  0  0  0  0  0  0  0  0  0
    0.6965    2.3244    0.0000 C   0  0  0  0  0  0  0  0  0  0  0  0
   -0.7324    3.1494    0.0000 C   0  0  0  0  0  0  0  0  0  0  0  0
   -1.4469    3.5619    0.0000 C   0  0  0  0  0  0  0  0  0  0  0  0
   -2.9460    3.4043    0.0000 C   0  0  0  0  0  0  0  0  0  0  0  0
   -3.4309    2.7369    0.0000 N   0  0  0  0  0  0  0  0  0  0  0  0
   -2.9460    2.0694    0.0000 N   0  0  0  0  0  0  0  0  0  0  0  0
   -2.1613    2.3244    0.0000 C   0  0  0  0  0  0  0  0  0  0  0  0
    0.6965   -1.8006    0.0000 C   0  0  0  0  0  0  0  0  0  0  0  0
    0.6965   -2.6256    0.0000 C   0  0  0  0  0  0  0  0  0  0  0  0
   -0.0179   -3.0381    0.0000 O   0  0  0  0  0  0  0  0  0  0  0  0
    1.4110   -3.8631    0.0000 O   0  0  0  0  0  0  0  0  0  0  0  0
    2.2636   -0.0708    0.0000 H   0  0  0  0  0  0  0  0  0  0  0  0
   -1.6261   -0.6666    0.0000 H   0  0  0  0  0  0  0  0  0  0  0  0
   -1.6261    1.1904    0.0000 H   0  0  0  0  0  0  0  0  0  0  0  0
   -2.4849    4.9840    0.0000 H   0  0  0  0  0  0  0  0  0  0  0  0
   -4.2475    4.4114    0.0000 H   0  0  0  0  0  0  0  0  0  0  0  0
   -3.5315    5.2065    0.0000 H   0  0  0  0  0  0  0  0  0  0  0  0
   -1.4469    0.8799    0.0000 H   0  0  0  0  0  0  0  0  0  0  0  0
   -0.7324   -1.5556    0.0000 H   0  0  0  0  0  0  0  0  0  0  0  0
   -1.6590   -3.1606    0.0000 H   0  0  0  0  0  0  0  0  0  0  0  0
   -1.6591   -2.0906    0.0000 H   0  0  0  0  0  0  0  0  0  0  0  0
    2.1255   -5.3456    0.0000 H   0  0  0  0  0  0  0  0  0  0  0  0
    3.0521   -3.7406    0.0000 H   0  0  0  0  0  0  0  0  0  0  0  0
    3.0522   -4.8106    0.0000 H   0  0  0  0  0  0  0  0  0  0  0  0
    4.4811   -3.1606    0.0000 H   0  0  0  0  0  0  0  0  0  0  0  0
    3.5544   -1.5556    0.0000 H   0  0  0  0  0  0  0  0  0  0  0  0
    4.4810   -2.0906    0.0000 H   0  0  0  0  0  0  0  0  0  0  0  0
    3.0192   -1.2846    0.0000 H   0  0  0  0  0  0  0  0  0  0  0  0
    1.6232    1.7894    0.0000 H   0  0  0  0  0  0  0  0  0  0  0  0
    0.6965    3.3944    0.0000 H   0  0  0  0  0  0  0  0  0  0  0  0
    1.6231    2.8594    0.0000 H   0  0  0  0  0  0  0  0  0  0  0  0
    0.1613    3.6654    0.0000 H   0  0  0  0  0  0  0  0  0  0  0  0
   -1.4469    4.5939    0.0000 H   0  0  0  0  0  0  0  0  0  0  0  0
   -3.2502    1.1331    0.0000 H   0  0  0  0  0  0  0  0  0  0  0  0
   -0.1972   -1.2846    0.0000 H   0  0  0  0  0  0  0  0  0  0  0  0
  1  3  1  0  0  0  0
  1  4  1  0  0  0  0
  1 32  1  0  0  0  0
  2  4  2  0  0  0  0
  2  7  1  0  0  0  0
  3 18  2  0  0  0  0
  3 28  1  0  0  0  0
  4 19  1  0  0  0  0
  5  6  1  0  0  0  0
  5 19  2  0  0  0  0
  5 33  1  0  0  0  0
  6  7  2  0  0  0  0
  6 34  1  0  0  0  0
  7 20  1  0  0  0  0
  8 11  2  0  0  0  0
  8 20  1  0  0  0  0
  8 22  1  0  0  0  0
  9 23  1  0  0  0  0
  9 24  1  0  0  0  0
  9 27  2  0  0  0  0
 10 24  1  0  0  0  0
 10 35  1  0  0  0  0
 10 36  1  0  0  0  0
 10 37  1  0  0  0  0
 11 27  1  0  0  0  0
 11 38  1  0  0  0  0
 12 30  1  0  0  0  0
 12 39  1  0  0  0  0
 12 40  1  0  0  0  0
 12 41  1  0  0  0  0
 13 17  2  0  0  0  0
 13 29  1  0  0  0  0
 13 31  1  0  0  0  0
 14 31  1  0  0  0  0
 14 42  1  0  0  0  0
 14 43  1  0  0  0  0
 14 44  1  0  0  0  0
 15 16  1  0  0  0  0
 15 45  1  0  0  0  0
 15 46  1  0  0  0  0
 15 47  1  0  0  0  0
 16 17  1  0  0  0  0
 17 18  1  0  0  0  0
 18 48  1  0  0  0  0
 20 21  1  0  0  0  0
 21 49  1  0  0  0  0
 21 50  1  0  0  0  0
 21 51  1  0  0  0  0
 22 23  2  0  0  0  0
 22 52  1  0  0  0  0
 23 53  1  0  0  0  0
 24 25  2  0  0  0  0
 25 26  1  0  0  0  0
 26 27  1  0  0  0  0
 26 54  1  0  0  0  0
 28 29  2  0  0  0  0
 28 55  1  0  0  0  0
 29 30  1  0  0  0  0
M  END
>  <DRUGBANK_ID>
DB08042

>  <COMMON_NAME>
N~4~-methyl-N~4~-(3-methyl-1H-indazol-6-yl)-N~2~-(3,4,5-trimethoxyphenyl)pyrimidine-2,4-diamine

$$$$
