CMQ
 OpenBabel10282417072D

 63 64  0  0  0  0  0  0  0  0999 V2000
   -2.2798    0.8488    0.0000 O   0  0  0  0  0  0  0  0  0  0  0  0
   -2.2798    0.0238    0.0000 C   0  0  0  0  0  0  0  0  0  0  0  0
   -2.9943   -0.3887    0.0000 O   0  0  0  0  0  0  0  0  0  0  0  0
   -3.7087    0.0238    0.0000 C   0  0  0  0  0  0  0  0  0  0  0  0
   -3.7087    0.8488    0.0000 C   0  0  0  0  0  0  0  0  0  0  0  0
   -4.4232    1.2613    0.0000 C   0  0  0  0  0  0  0  0  0  0  0  0
   -4.4232    2.0863    0.0000 C   0  0  0  0  0  0  0  0  0  0  0  0
   -3.7087    2.4988    0.0000 C   0  0  0  0  0  0  0  0  0  0  0  0
   -2.9943    2.0863    0.0000 C   0  0  0  0  0  0  0  0  0  0  0  0
   -2.9943    1.2613    0.0000 C   0  0  0  0  0  0  0  0  0  0  0  0
   -1.5653   -0.3887    0.0000 N   0  0  0  0  0  0  0  0  0  0  0  0
   -0.8508    0.0238    0.0000 C   0  0  1  0  0  0  0  0  0  0  0  0
   -0.8508    0.8488    0.0000 C   0  0  0  0  0  0  0  0  0  0  0  0
   -0.1364    1.2613    0.0000 C   0  0  0  0  0  0  0  0  0  0  0  0
   -0.1364    2.0863    0.0000 C   0  0  0  0  0  0  0  0  0  0  0  0
    0.5781    0.8488    0.0000 C   0  0  0  0  0  0  0  0  0  0  0  0
   -0.1364   -0.3887    0.0000 C   0  0  0  0  0  0  0  0  0  0  0  0
   -0.1364   -1.2137    0.0000 O   0  0  0  0  0  0  0  0  0  0  0  0
    0.5781    0.0238    0.0000 N   0  0  0  0  0  0  0  0  0  0  0  0
    1.2926   -0.3887    0.0000 C   0  0  2  0  0  0  0  0  0  0  0  0
    1.2926   -1.2137    0.0000 C   0  0  1  0  0  0  0  0  0  0  0  0
    2.0070   -1.6262    0.0000 O   0  0  0  0  0  0  0  0  0  0  0  0
    0.5781   -1.6262    0.0000 C   0  0  0  0  0  0  0  0  0  0  0  0
    2.0070    0.0238    0.0000 C   0  0  0  0  0  0  0  0  0  0  0  0
    2.7215   -0.3887    0.0000 C   0  0  0  0  0  0  0  0  0  0  0  0
    3.4360    0.0238    0.0000 C   0  0  0  0  0  0  0  0  0  0  0  0
    4.1505   -0.3887    0.0000 C   0  0  0  0  0  0  0  0  0  0  0  0
    4.1505   -1.2137    0.0000 C   0  0  0  0  0  0  0  0  0  0  0  0
    4.8649   -1.6262    0.0000 O   0  0  0  0  0  0  0  0  0  0  0  0
    3.4360   -1.6262    0.0000 C   0  0  0  0  0  0  0  0  0  0  0  0
    2.7215   -1.2137    0.0000 C   0  0  0  0  0  0  0  0  0  0  0  0
   -1.3565    0.3157    0.0000 H   0  0  0  0  0  0  0  0  0  0  0  0
    0.7869   -0.6807    0.0000 H   0  0  0  0  0  0  0  0  0  0  0  0
    1.7983   -0.9218    0.0000 H   0  0  0  0  0  0  0  0  0  0  0  0
   -4.6354   -0.5112    0.0000 H   0  0  0  0  0  0  0  0  0  0  0  0
   -4.6353    0.5588    0.0000 H   0  0  0  0  0  0  0  0  0  0  0  0
   -5.3169    0.7453    0.0000 H   0  0  0  0  0  0  0  0  0  0  0  0
   -5.3169    2.6023    0.0000 H   0  0  0  0  0  0  0  0  0  0  0  0
   -3.7087    3.5308    0.0000 H   0  0  0  0  0  0  0  0  0  0  0  0
   -2.1006    2.6023    0.0000 H   0  0  0  0  0  0  0  0  0  0  0  0
   -2.1006    0.7453    0.0000 H   0  0  0  0  0  0  0  0  0  0  0  0
   -1.5653   -1.3732    0.0000 H   0  0  0  0  0  0  0  0  0  0  0  0
   -1.7775    1.3838    0.0000 H   0  0  0  0  0  0  0  0  0  0  0  0
   -0.8508    1.9188    0.0000 H   0  0  0  0  0  0  0  0  0  0  0  0
    0.7902    1.7963    0.0000 H   0  0  0  0  0  0  0  0  0  0  0  0
    0.7902    2.6213    0.0000 H   0  0  0  0  0  0  0  0  0  0  0  0
   -1.0630    2.6213    0.0000 H   0  0  0  0  0  0  0  0  0  0  0  0
   -0.1364    3.1563    0.0000 H   0  0  0  0  0  0  0  0  0  0  0  0
    0.5781   -0.2212    0.0000 H   0  0  0  0  0  0  0  0  0  0  0  0
    1.5047    1.3838    0.0000 H   0  0  0  0  0  0  0  0  0  0  0  0
    1.5048    0.3138    0.0000 H   0  0  0  0  0  0  0  0  0  0  0  0
    0.5781    1.0083    0.0000 H   0  0  0  0  0  0  0  0  0  0  0  0
    2.0070   -2.5962    0.0000 H   0  0  0  0  0  0  0  0  0  0  0  0
   -0.3485   -1.0912    0.0000 H   0  0  0  0  0  0  0  0  0  0  0  0
    0.5781   -2.6962    0.0000 H   0  0  0  0  0  0  0  0  0  0  0  0
   -0.3486   -2.1612    0.0000 H   0  0  0  0  0  0  0  0  0  0  0  0
    2.0070    1.0938    0.0000 H   0  0  0  0  0  0  0  0  0  0  0  0
    2.9336    0.5588    0.0000 H   0  0  0  0  0  0  0  0  0  0  0  0
    3.4360    1.0558    0.0000 H   0  0  0  0  0  0  0  0  0  0  0  0
    5.0442    0.1273    0.0000 H   0  0  0  0  0  0  0  0  0  0  0  0
    4.8649   -2.5632    0.0000 H   0  0  0  0  0  0  0  0  0  0  0  0
    3.4360   -2.6582    0.0000 H   0  0  0  0  0  0  0  0  0  0  0  0
    1.8278   -1.7297    0.0000 H   0  0  0  0  0  0  0  0  0  0  0  0
  1  2  2  0  0  0  0
  2  3  1  0  0  0  0
  2 11  1  0  0  0  0
  3  4  1  0  0  0  0
  4  5  1  0  0  0  0
  4 35  1  0  0  0  0
  4 36  1  0  0  0  0
  5  6  2  0  0  0  0
  5 10  1  0  0  0  0
  6  7  1  0  0  0  0
  6 37  1  0  0  0  0
  7  8  2  0  0  0  0
  7 38  1  0  0  0  0
  8  9  1  0  0  0  0
  8 39  1  0  0  0  0
  9 10  2  0  0  0  0
  9 40  1  0  0  0  0
 10 41  1  0  0  0  0
 11 42  1  0  0  0  0
 12 11  1  0  0  0  0
 12 13  1  0  0  0  0
 12 17  1  0  0  0  0
 12 32  1  6  0  0  0
 13 14  1  0  0  0  0
 13 43  1  0  0  0  0
 13 44  1  0  0  0  0
 14 15  1  0  0  0  0
 14 16  1  0  0  0  0
 14 45  1  0  0  0  0
 15 46  1  0  0  0  0
 15 47  1  0  0  0  0
 15 48  1  0  0  0  0
 16 49  1  0  0  0  0
 16 50  1  0  0  0  0
 16 51  1  0  0  0  0
 17 18  2  0  0  0  0
 17 19  1  0  0  0  0
 19 52  1  0  0  0  0
 20 19  1  0  0  0  0
 20 21  1  0  0  0  0
 20 24  1  0  0  0  0
 20 33  1  6  0  0  0
 21 22  1  0  0  0  0
 21 23  1  0  0  0  0
 21 34  1  6  0  0  0
 22 53  1  0  0  0  0
 23 54  1  0  0  0  0
 23 55  1  0  0  0  0
 23 56  1  0  0  0  0
 24 25  1  0  0  0  0
 24 57  1  0  0  0  0
 24 58  1  0  0  0  0
 25 26  1  0  0  0  0
 25 31  2  0  0  0  0
 26 27  2  0  0  0  0
 26 59  1  0  0  0  0
 27 28  1  0  0  0  0
 27 60  1  0  0  0  0
 28 29  1  0  0  0  0
 28 30  2  0  0  0  0
 29 61  1  0  0  0  0
 30 31  1  0  0  0  0
 30 62  1  0  0  0  0
 31 63  1  0  0  0  0
M  END
>  <DRUGBANK_ID>
DB07571

>  <COMMON_NAME>
N~2~-[(BENZYLOXY)CARBONYL]-N-[(1S,2S)-2-HYDROXY-1-(4-HYDROXYBENZYL)PROPYL]-L-LEUCINAMIDE

$$$$
