
 OpenBabel10282417072D

 77 79  0  0  0  0  0  0  0  0999 V2000
   13.2180  -12.2559    0.0000 O   0  0  0  0  0  0  0  0  0  0  0  0
   13.9291  -11.8377    0.0000 C   0  0  0  0  0  0  0  0  0  0  0  0
   14.6820  -12.2559    0.0000 C   0  0  0  0  0  0  0  0  0  0  0  0
   15.3931  -11.8377    0.0000 C   0  0  0  0  0  0  0  0  0  0  0  0
   16.1042  -12.2559    0.0000 O   0  0  0  0  0  0  0  0  0  0  0  0
   14.6820  -13.0925    0.0000 O   0  0  0  0  0  0  0  0  0  0  0  0
   16.8572  -11.8377    0.0000 C   0  0  0  0  0  0  0  0  0  0  0  0
   17.5682  -12.2559    0.0000 C   0  0  0  0  0  0  0  0  0  0  0  0
   16.8572  -11.0011    0.0000 O   0  0  0  0  0  0  0  0  0  0  0  0
   18.2793  -11.8377    0.0000 C   0  0  0  0  0  0  0  0  0  0  0  0
   18.9904  -12.2559    0.0000 C   0  0  0  0  0  0  0  0  0  0  0  0
   19.7015  -11.8377    0.0000 C   0  0  0  0  0  0  0  0  0  0  0  0
   20.4126  -12.2559    0.0000 C   0  0  0  0  0  0  0  0  0  0  0  0
   21.1656  -11.8377    0.0000 C   0  0  0  0  0  0  0  0  0  0  0  0
   21.1656  -10.9592    0.0000 C   0  0  0  0  0  0  0  0  0  0  0  0
   20.4126  -10.5828    0.0000 C   0  0  0  0  0  0  0  0  0  0  0  0
   19.7015  -11.0011    0.0000 C   0  0  0  0  0  0  0  0  0  0  0  0
   12.4651  -11.8377    0.0000 C   0  0  0  0  0  0  0  0  0  0  0  0
   12.4651  -11.0011    0.0000 O   0  0  0  0  0  0  0  0  0  0  0  0
   11.7540  -12.2559    0.0000 C   0  0  0  0  0  0  0  0  0  0  0  0
   11.0429  -11.8377    0.0000 C   0  0  0  0  0  0  0  0  0  0  0  0
   10.3318  -12.2559    0.0000 C   0  0  0  0  0  0  0  0  0  0  0  0
    9.6207  -11.8377    0.0000 C   0  0  0  0  0  0  0  0  0  0  0  0
    9.6207  -11.0011    0.0000 C   0  0  0  0  0  0  0  0  0  0  0  0
    8.9096  -10.5409    0.0000 C   0  0  0  0  0  0  0  0  0  0  0  0
    8.1567  -11.0011    0.0000 C   0  0  0  0  0  0  0  0  0  0  0  0
    8.1567  -11.8377    0.0000 C   0  0  0  0  0  0  0  0  0  0  0  0
    8.9096  -12.2559    0.0000 C   0  0  0  0  0  0  0  0  0  0  0  0
   15.3931  -13.5108    0.0000 C   0  0  0  0  0  0  0  0  0  0  0  0
   16.1461  -13.0925    0.0000 C   0  0  0  0  0  0  0  0  0  0  0  0
   15.3931  -14.3474    0.0000 O   0  0  0  0  0  0  0  0  0  0  0  0
   16.8572  -13.5108    0.0000 C   0  0  0  0  0  0  0  0  0  0  0  0
   17.5682  -13.0925    0.0000 C   0  0  0  0  0  0  0  0  0  0  0  0
   18.2793  -13.5108    0.0000 C   0  0  0  0  0  0  0  0  0  0  0  0
   18.2793  -14.3474    0.0000 C   0  0  0  0  0  0  0  0  0  0  0  0
   18.9904  -14.7657    0.0000 C   0  0  0  0  0  0  0  0  0  0  0  0
   19.7434  -14.3474    0.0000 C   0  0  0  0  0  0  0  0  0  0  0  0
   19.7434  -13.5108    0.0000 C   0  0  0  0  0  0  0  0  0  0  0  0
   18.9904  -13.0925    0.0000 C   0  0  0  0  0  0  0  0  0  0  0  0
   13.9159  -10.7678    0.0000 H   0  0  0  0  0  0  0  0  0  0  0  0
   14.8479  -11.2894    0.0000 H   0  0  0  0  0  0  0  0  0  0  0  0
   15.6108  -12.7872    0.0000 H   0  0  0  0  0  0  0  0  0  0  0  0
   15.3931  -10.7677    0.0000 H   0  0  0  0  0  0  0  0  0  0  0  0
   16.3219  -11.3064    0.0000 H   0  0  0  0  0  0  0  0  0  0  0  0
   17.5682  -13.3259    0.0000 H   0  0  0  0  0  0  0  0  0  0  0  0
   18.4970  -12.7872    0.0000 H   0  0  0  0  0  0  0  0  0  0  0  0
   18.2793  -10.7677    0.0000 H   0  0  0  0  0  0  0  0  0  0  0  0
   19.2081  -11.3064    0.0000 H   0  0  0  0  0  0  0  0  0  0  0  0
   18.9904  -13.3259    0.0000 H   0  0  0  0  0  0  0  0  0  0  0  0
   19.9192  -12.7872    0.0000 H   0  0  0  0  0  0  0  0  0  0  0  0
   20.3999  -13.2878    0.0000 H   0  0  0  0  0  0  0  0  0  0  0  0
   22.0550  -12.3611    0.0000 H   0  0  0  0  0  0  0  0  0  0  0  0
   22.0434  -10.4166    0.0000 H   0  0  0  0  0  0  0  0  0  0  0  0
   20.3774   -9.5514    0.0000 H   0  0  0  0  0  0  0  0  0  0  0  0
   18.8057  -10.4887    0.0000 H   0  0  0  0  0  0  0  0  0  0  0  0
   11.7540  -13.3259    0.0000 H   0  0  0  0  0  0  0  0  0  0  0  0
   10.8252  -12.7872    0.0000 H   0  0  0  0  0  0  0  0  0  0  0  0
   11.0429  -10.7677    0.0000 H   0  0  0  0  0  0  0  0  0  0  0  0
   10.1141  -11.3064    0.0000 H   0  0  0  0  0  0  0  0  0  0  0  0
   10.3318  -13.3259    0.0000 H   0  0  0  0  0  0  0  0  0  0  0  0
    9.4030  -12.7872    0.0000 H   0  0  0  0  0  0  0  0  0  0  0  0
   10.5273  -10.5080    0.0000 H   0  0  0  0  0  0  0  0  0  0  0  0
    8.9229   -9.5090    0.0000 H   0  0  0  0  0  0  0  0  0  0  0  0
    7.2566  -10.4963    0.0000 H   0  0  0  0  0  0  0  0  0  0  0  0
    7.2673  -12.3611    0.0000 H   0  0  0  0  0  0  0  0  0  0  0  0
    8.9223  -13.2878    0.0000 H   0  0  0  0  0  0  0  0  0  0  0  0
   16.1593  -12.0226    0.0000 H   0  0  0  0  0  0  0  0  0  0  0  0
   17.0782  -12.5670    0.0000 H   0  0  0  0  0  0  0  0  0  0  0  0
   16.8572  -14.5808    0.0000 H   0  0  0  0  0  0  0  0  0  0  0  0
   17.7860  -14.0420    0.0000 H   0  0  0  0  0  0  0  0  0  0  0  0
   17.5682  -12.0225    0.0000 H   0  0  0  0  0  0  0  0  0  0  0  0
   18.4970  -12.5613    0.0000 H   0  0  0  0  0  0  0  0  0  0  0  0
   17.3835  -14.8598    0.0000 H   0  0  0  0  0  0  0  0  0  0  0  0
   18.9777  -15.7976    0.0000 H   0  0  0  0  0  0  0  0  0  0  0  0
   20.6328  -14.8708    0.0000 H   0  0  0  0  0  0  0  0  0  0  0  0
   20.6328  -12.9874    0.0000 H   0  0  0  0  0  0  0  0  0  0  0  0
   18.9777  -12.0606    0.0000 H   0  0  0  0  0  0  0  0  0  0  0  0
  1  2  1  0  0  0  0
  1 18  1  0  0  0  0
  2  3  1  0  0  0  0
  2 40  1  0  0  0  0
  2 41  1  0  0  0  0
  3  4  1  0  0  0  0
  3  6  1  0  0  0  0
  3 42  1  0  0  0  0
  4  5  1  0  0  0  0
  4 43  1  0  0  0  0
  4 44  1  0  0  0  0
  5  7  1  0  0  0  0
  6 29  1  0  0  0  0
  7  8  1  0  0  0  0
  7  9  2  0  0  0  0
  8 10  1  0  0  0  0
  8 45  1  0  0  0  0
  8 46  1  0  0  0  0
 10 11  1  0  0  0  0
 10 47  1  0  0  0  0
 10 48  1  0  0  0  0
 11 12  1  0  0  0  0
 11 49  1  0  0  0  0
 11 50  1  0  0  0  0
 12 13  2  0  0  0  0
 12 17  1  0  0  0  0
 13 14  1  0  0  0  0
 13 51  1  0  0  0  0
 14 15  2  0  0  0  0
 14 52  1  0  0  0  0
 15 16  1  0  0  0  0
 15 53  1  0  0  0  0
 16 17  2  0  0  0  0
 16 54  1  0  0  0  0
 17 55  1  0  0  0  0
 18 19  2  0  0  0  0
 18 20  1  0  0  0  0
 20 21  1  0  0  0  0
 20 56  1  0  0  0  0
 20 57  1  0  0  0  0
 21 22  1  0  0  0  0
 21 58  1  0  0  0  0
 21 59  1  0  0  0  0
 22 23  1  0  0  0  0
 22 60  1  0  0  0  0
 22 61  1  0  0  0  0
 23 24  2  0  0  0  0
 23 28  1  0  0  0  0
 24 25  1  0  0  0  0
 24 62  1  0  0  0  0
 25 26  2  0  0  0  0
 25 63  1  0  0  0  0
 26 27  1  0  0  0  0
 26 64  1  0  0  0  0
 27 28  2  0  0  0  0
 27 65  1  0  0  0  0
 28 66  1  0  0  0  0
 29 30  1  0  0  0  0
 29 31  2  0  0  0  0
 30 32  1  0  0  0  0
 30 67  1  0  0  0  0
 30 68  1  0  0  0  0
 32 33  1  0  0  0  0
 32 69  1  0  0  0  0
 32 70  1  0  0  0  0
 33 34  1  0  0  0  0
 33 71  1  0  0  0  0
 33 72  1  0  0  0  0
 34 35  2  0  0  0  0
 34 39  1  0  0  0  0
 35 36  1  0  0  0  0
 35 73  1  0  0  0  0
 36 37  2  0  0  0  0
 36 74  1  0  0  0  0
 37 38  1  0  0  0  0
 37 75  1  0  0  0  0
 38 39  2  0  0  0  0
 38 76  1  0  0  0  0
 39 77  1  0  0  0  0
M  END
>  <DRUGBANK_ID>
DB08909

>  <SECONDARY_ACCESSION_NUMBERS>
DB06170

>  <COMMON_NAME>
Glycerol phenylbutyrate

>  <CAS_NUMBER>
611168-24-2

>  <UNII>
ZH6F1VCV7B

>  <SYNONYMS>
Glycerol phenylbutyrate; Glyceryl Tri-4-Phenylbutyrate; GPB; GT4P

$$$$
