
 OpenBabel10282417072D

 72 72  0  0  0  0  0  0  0  0999 V2000
   -2.1777   -3.5062    0.0000 N   0  3  0  0  0  0  0  0  0  0  0  0
   -1.4632   -3.0937    0.0000 C   0  0  0  0  0  0  0  0  0  0  0  0
   -1.4632   -2.2687    0.0000 C   0  0  0  0  0  0  0  0  0  0  0  0
   -2.8922   -3.9187    0.0000 C   0  0  0  0  0  0  0  0  0  0  0  0
   -0.7487   -1.8562    0.0000 C   0  0  0  0  0  0  0  0  0  0  0  0
   -2.5903   -2.7917    0.0000 C   0  0  0  0  0  0  0  0  0  0  0  0
   -1.7653   -4.2207    0.0000 C   0  0  0  0  0  0  0  0  0  0  0  0
   -0.7487   -1.0312    0.0000 C   0  0  0  0  0  0  0  0  0  0  0  0
   -0.0343   -0.6187    0.0000 C   0  0  0  0  0  0  0  0  0  0  0  0
   -0.0343    0.2062    0.0000 C   0  0  0  0  0  0  0  0  0  0  0  0
    0.6802    0.6187    0.0000 C   0  0  0  0  0  0  0  0  0  0  0  0
   -2.8922   -4.7437    0.0000 C   0  0  0  0  0  0  0  0  0  0  0  0
    0.6802    1.4437    0.0000 C   0  0  0  0  0  0  0  0  0  0  0  0
    1.3946    1.8562    0.0000 C   0  0  0  0  0  0  0  0  0  0  0  0
    1.3946    2.6812    0.0000 C   0  0  0  0  0  0  0  0  0  0  0  0
    2.1091    3.0937    0.0000 C   0  0  0  0  0  0  0  0  0  0  0  0
    2.1091    3.9187    0.0000 C   0  0  0  0  0  0  0  0  0  0  0  0
   -3.6066   -5.1562    0.0000 C   0  0  0  0  0  0  0  0  0  0  0  0
   -2.1777   -5.1562    0.0000 C   0  0  0  0  0  0  0  0  0  0  0  0
    2.8235    4.3312    0.0000 C   0  0  0  0  0  0  0  0  0  0  0  0
    2.8235    5.1562    0.0000 C   0  0  0  0  0  0  0  0  0  0  0  0
   -3.6066   -5.9812    0.0000 C   0  0  0  0  0  0  0  0  0  0  0  0
   -2.1777   -5.9812    0.0000 C   0  0  0  0  0  0  0  0  0  0  0  0
    3.5381    5.5687    0.0000 C   0  0  0  0  0  0  0  0  0  0  0  0
   -2.8922   -6.3937    0.0000 C   0  0  0  0  0  0  0  0  0  0  0  0
    3.5381    6.3937    0.0000 C   0  0  0  0  0  0  0  0  0  0  0  0
   -0.5366   -3.6287    0.0000 H   0  0  0  0  0  0  0  0  0  0  0  0
   -0.5366   -2.5587    0.0000 H   0  0  0  0  0  0  0  0  0  0  0  0
   -2.3898   -1.7337    0.0000 H   0  0  0  0  0  0  0  0  0  0  0  0
   -1.4632   -1.1987    0.0000 H   0  0  0  0  0  0  0  0  0  0  0  0
   -3.8188   -3.3837    0.0000 H   0  0  0  0  0  0  0  0  0  0  0  0
   -3.8188   -4.4537    0.0000 H   0  0  0  0  0  0  0  0  0  0  0  0
    0.1779   -2.3912    0.0000 H   0  0  0  0  0  0  0  0  0  0  0  0
    0.1779   -1.3212    0.0000 H   0  0  0  0  0  0  0  0  0  0  0  0
   -2.0554   -1.8650    0.0000 H   0  0  0  0  0  0  0  0  0  0  0  0
   -3.6603   -2.7918    0.0000 H   0  0  0  0  0  0  0  0  0  0  0  0
   -3.1254   -1.8651    0.0000 H   0  0  0  0  0  0  0  0  0  0  0  0
   -2.3004   -5.1473    0.0000 H   0  0  0  0  0  0  0  0  0  0  0  0
   -0.6953   -4.2208    0.0000 H   0  0  0  0  0  0  0  0  0  0  0  0
   -1.2304   -5.1474    0.0000 H   0  0  0  0  0  0  0  0  0  0  0  0
   -1.6754   -0.4962    0.0000 H   0  0  0  0  0  0  0  0  0  0  0  0
   -0.7487    0.0388    0.0000 H   0  0  0  0  0  0  0  0  0  0  0  0
    0.8924   -1.1537    0.0000 H   0  0  0  0  0  0  0  0  0  0  0  0
    0.8923   -0.0837    0.0000 H   0  0  0  0  0  0  0  0  0  0  0  0
   -0.9609    0.7412    0.0000 H   0  0  0  0  0  0  0  0  0  0  0  0
   -0.0343    1.2762    0.0000 H   0  0  0  0  0  0  0  0  0  0  0  0
    1.6068    0.0837    0.0000 H   0  0  0  0  0  0  0  0  0  0  0  0
    1.6068    1.1537    0.0000 H   0  0  0  0  0  0  0  0  0  0  0  0
   -0.2465    1.9787    0.0000 H   0  0  0  0  0  0  0  0  0  0  0  0
    0.6802    2.5137    0.0000 H   0  0  0  0  0  0  0  0  0  0  0  0
    2.3213    1.3212    0.0000 H   0  0  0  0  0  0  0  0  0  0  0  0
    2.3212    2.3912    0.0000 H   0  0  0  0  0  0  0  0  0  0  0  0
    0.4680    3.2162    0.0000 H   0  0  0  0  0  0  0  0  0  0  0  0
    1.3946    3.7512    0.0000 H   0  0  0  0  0  0  0  0  0  0  0  0
    3.0357    2.5587    0.0000 H   0  0  0  0  0  0  0  0  0  0  0  0
    3.0357    3.6287    0.0000 H   0  0  0  0  0  0  0  0  0  0  0  0
    1.1824    4.4537    0.0000 H   0  0  0  0  0  0  0  0  0  0  0  0
    2.1091    4.9887    0.0000 H   0  0  0  0  0  0  0  0  0  0  0  0
   -4.5003   -4.6402    0.0000 H   0  0  0  0  0  0  0  0  0  0  0  0
   -1.2840   -4.6402    0.0000 H   0  0  0  0  0  0  0  0  0  0  0  0
    3.7502    3.7962    0.0000 H   0  0  0  0  0  0  0  0  0  0  0  0
    3.7501    4.8662    0.0000 H   0  0  0  0  0  0  0  0  0  0  0  0
    1.8969    5.6912    0.0000 H   0  0  0  0  0  0  0  0  0  0  0  0
    2.8236    6.2262    0.0000 H   0  0  0  0  0  0  0  0  0  0  0  0
   -4.5003   -6.4972    0.0000 H   0  0  0  0  0  0  0  0  0  0  0  0
   -1.2840   -6.4972    0.0000 H   0  0  0  0  0  0  0  0  0  0  0  0
    4.4647    5.0337    0.0000 H   0  0  0  0  0  0  0  0  0  0  0  0
    4.4648    6.1037    0.0000 H   0  0  0  0  0  0  0  0  0  0  0  0
   -2.8922   -7.4257    0.0000 H   0  0  0  0  0  0  0  0  0  0  0  0
    4.4647    6.9287    0.0000 H   0  0  0  0  0  0  0  0  0  0  0  0
    2.6115    6.9287    0.0000 H   0  0  0  0  0  0  0  0  0  0  0  0
    3.5381    7.4637    0.0000 H   0  0  0  0  0  0  0  0  0  0  0  0
  1  2  1  0  0  0  0
  1  4  1  0  0  0  0
  1  6  1  0  0  0  0
  1  7  1  0  0  0  0
  2  3  1  0  0  0  0
  2 27  1  0  0  0  0
  2 28  1  0  0  0  0
  3  5  1  0  0  0  0
  3 29  1  0  0  0  0
  3 30  1  0  0  0  0
  4 12  1  0  0  0  0
  4 31  1  0  0  0  0
  4 32  1  0  0  0  0
  5  8  1  0  0  0  0
  5 33  1  0  0  0  0
  5 34  1  0  0  0  0
  6 35  1  0  0  0  0
  6 36  1  0  0  0  0
  6 37  1  0  0  0  0
  7 38  1  0  0  0  0
  7 39  1  0  0  0  0
  7 40  1  0  0  0  0
  8  9  1  0  0  0  0
  8 41  1  0  0  0  0
  8 42  1  0  0  0  0
  9 10  1  0  0  0  0
  9 43  1  0  0  0  0
  9 44  1  0  0  0  0
 10 11  1  0  0  0  0
 10 45  1  0  0  0  0
 10 46  1  0  0  0  0
 11 13  1  0  0  0  0
 11 47  1  0  0  0  0
 11 48  1  0  0  0  0
 12 18  2  0  0  0  0
 12 19  1  0  0  0  0
 13 14  1  0  0  0  0
 13 49  1  0  0  0  0
 13 50  1  0  0  0  0
 14 15  1  0  0  0  0
 14 51  1  0  0  0  0
 14 52  1  0  0  0  0
 15 16  1  0  0  0  0
 15 53  1  0  0  0  0
 15 54  1  0  0  0  0
 16 17  1  0  0  0  0
 16 55  1  0  0  0  0
 16 56  1  0  0  0  0
 17 20  1  0  0  0  0
 17 57  1  0  0  0  0
 17 58  1  0  0  0  0
 18 22  1  0  0  0  0
 18 59  1  0  0  0  0
 19 23  2  0  0  0  0
 19 60  1  0  0  0  0
 20 21  1  0  0  0  0
 20 61  1  0  0  0  0
 20 62  1  0  0  0  0
 21 24  1  0  0  0  0
 21 63  1  0  0  0  0
 21 64  1  0  0  0  0
 22 25  2  0  0  0  0
 22 65  1  0  0  0  0
 23 25  1  0  0  0  0
 23 66  1  0  0  0  0
 24 26  1  0  0  0  0
 24 67  1  0  0  0  0
 24 68  1  0  0  0  0
 25 69  1  0  0  0  0
 26 70  1  0  0  0  0
 26 71  1  0  0  0  0
 26 72  1  0  0  0  0
M  CHG  1   1   1
M  END
>  <DRUGBANK_ID>
DB11583

>  <COMMON_NAME>
Cetalkonium

>  <CAS_NUMBER>
10328-34-4

>  <UNII>
FHG725432Z

>  <SYNONYMS>
Benzylhexadecyldimethylammonium; Cetalkonium cation; Cetalkonium ion

$$$$
