
 OpenBabel10282417072D

 54 57  0  0  0  0  0  0  0  0999 V2000
   -3.5837    2.2688    0.0000 C   0  0  0  0  0  0  0  0  0  0  0  0
   -4.2969    1.8563    0.0000 C   0  0  0  0  0  0  0  0  0  0  0  0
   -4.2969    1.0312    0.0000 C   0  0  0  0  0  0  0  0  0  0  0  0
   -3.5837    0.6188    0.0000 C   0  0  0  0  0  0  0  0  0  0  0  0
   -2.8617    1.0312    0.0000 C   0  0  0  0  0  0  0  0  0  0  0  0
   -2.8617    1.8563    0.0000 C   0  0  0  0  0  0  0  0  0  0  0  0
   -3.5837    3.1023    0.0000 I   0  0  0  0  0  0  0  0  0  0  0  0
   -2.1484    0.6188    0.0000 C   0  0  0  0  0  0  0  0  0  0  0  0
   -1.4352    1.0312    0.0000 C   0  0  0  0  0  0  0  0  0  0  0  0
   -0.7132    2.2688    0.0000 C   0  0  0  0  0  0  0  0  0  0  0  0
   -1.4352    1.8563    0.0000 C   0  0  0  0  0  0  0  0  0  0  0  0
   -0.7132    0.6188    0.0000 C   0  0  0  0  0  0  0  0  0  0  0  0
    0.0000    1.0312    0.0000 C   0  0  0  0  0  0  0  0  0  0  0  0
    0.0000    1.8563    0.0000 C   0  0  0  0  0  0  0  0  0  0  0  0
   -2.1484    2.2688    0.0000 O   0  0  0  0  0  0  0  0  0  0  0  0
   -0.7132   -0.2062    0.0000 N   0  0  0  0  0  0  0  0  0  0  0  0
    0.0000   -0.6188    0.0000 C   0  0  0  0  0  0  0  0  0  0  0  0
    0.7132   -0.2062    0.0000 C   0  0  0  0  0  0  0  0  0  0  0  0
    0.0000   -1.4523    0.0000 C   0  0  0  0  0  0  0  0  0  0  0  0
    0.7132   -1.8648    0.0000 C   0  0  0  0  0  0  0  0  0  0  0  0
    1.4352   -1.4523    0.0000 C   0  0  0  0  0  0  0  0  0  0  0  0
    1.4352   -0.6188    0.0000 C   0  0  0  0  0  0  0  0  0  0  0  0
    2.1484   -1.8648    0.0000 C   0  0  0  0  0  0  0  0  0  0  0  0
    3.5837   -1.8648    0.0000 C   0  0  0  0  0  0  0  0  0  0  0  0
    2.8617   -1.4523    0.0000 C   0  0  1  0  0  0  0  0  0  0  0  0
    2.8617   -0.6188    0.0000 C   0  0  0  0  0  0  0  0  0  0  0  0
    3.5837   -2.6898    0.0000 C   0  0  0  0  0  0  0  0  0  0  0  0
    4.2969   -3.1023    0.0000 O   0  0  0  0  0  0  0  0  0  0  0  0
    2.1484   -2.6898    0.0000 N   0  0  0  0  0  0  0  0  0  0  0  0
    2.8617   -3.1023    0.0000 N   0  0  0  0  0  0  0  0  0  0  0  0
   -5.1908    2.3720    0.0000 H   0  0  0  0  0  0  0  0  0  0  0  0
   -5.1908    0.5155    0.0000 H   0  0  0  0  0  0  0  0  0  0  0  0
   -3.5864   -0.4132    0.0000 H   0  0  0  0  0  0  0  0  0  0  0  0
   -1.9691    2.3743    0.0000 H   0  0  0  0  0  0  0  0  0  0  0  0
   -2.1484   -0.4512    0.0000 H   0  0  0  0  0  0  0  0  0  0  0  0
   -1.2216    0.0841    0.0000 H   0  0  0  0  0  0  0  0  0  0  0  0
   -0.7104    3.3388    0.0000 H   0  0  0  0  0  0  0  0  0  0  0  0
    0.2144    2.8022    0.0000 H   0  0  0  0  0  0  0  0  0  0  0  0
    0.9268    0.4965    0.0000 H   0  0  0  0  0  0  0  0  0  0  0  0
    0.9266    1.5664    0.0000 H   0  0  0  0  0  0  0  0  0  0  0  0
    0.9269    2.3909    0.0000 H   0  0  0  0  0  0  0  0  0  0  0  0
    0.9265    1.3211    0.0000 H   0  0  0  0  0  0  0  0  0  0  0  0
   -1.5660   -0.6981    0.0000 H   0  0  0  0  0  0  0  0  0  0  0  0
    0.7105    0.8258    0.0000 H   0  0  0  0  0  0  0  0  0  0  0  0
   -0.8939   -1.9680    0.0000 H   0  0  0  0  0  0  0  0  0  0  0  0
    0.7105   -2.8968    0.0000 H   0  0  0  0  0  0  0  0  0  0  0  0
    2.3278   -0.1008    0.0000 H   0  0  0  0  0  0  0  0  0  0  0  0
    4.5091   -1.3277    0.0000 H   0  0  0  0  0  0  0  0  0  0  0  0
    4.5110   -2.3988    0.0000 H   0  0  0  0  0  0  0  0  0  0  0  0
    1.9349   -0.9176    0.0000 H   0  0  0  0  0  0  0  0  0  0  0  0
    3.7883   -0.0838    0.0000 H   0  0  0  0  0  0  0  0  0  0  0  0
    1.9351   -0.0838    0.0000 H   0  0  0  0  0  0  0  0  0  0  0  0
    2.8617    0.4512    0.0000 H   0  0  0  0  0  0  0  0  0  0  0  0
    2.8591   -4.0868    0.0000 H   0  0  0  0  0  0  0  0  0  0  0  0
  1  2  2  0  0  0  0
  1  6  1  0  0  0  0
  1  7  1  0  0  0  0
  2  3  1  0  0  0  0
  2 31  1  0  0  0  0
  3  4  2  0  0  0  0
  3 32  1  0  0  0  0
  4  5  1  0  0  0  0
  4 33  1  0  0  0  0
  5  6  2  0  0  0  0
  5  8  1  0  0  0  0
  6 34  1  0  0  0  0
  8  9  1  0  0  0  0
  8 35  1  0  0  0  0
  8 36  1  0  0  0  0
  9 11  1  0  0  0  0
  9 12  2  0  0  0  0
 10 11  1  0  0  0  0
 10 14  1  0  0  0  0
 10 37  1  0  0  0  0
 10 38  1  0  0  0  0
 11 15  2  0  0  0  0
 12 13  1  0  0  0  0
 12 16  1  0  0  0  0
 13 14  1  0  0  0  0
 13 39  1  0  0  0  0
 13 40  1  0  0  0  0
 14 41  1  0  0  0  0
 14 42  1  0  0  0  0
 16 17  1  0  0  0  0
 16 43  1  0  0  0  0
 17 18  2  0  0  0  0
 17 19  1  0  0  0  0
 18 22  1  0  0  0  0
 18 44  1  0  0  0  0
 19 20  2  0  0  0  0
 19 45  1  0  0  0  0
 20 21  1  0  0  0  0
 20 46  1  0  0  0  0
 21 22  2  0  0  0  0
 21 23  1  0  0  0  0
 22 47  1  0  0  0  0
 23 25  1  0  0  0  0
 23 29  2  0  0  0  0
 24 25  1  0  0  0  0
 24 27  1  0  0  0  0
 24 48  1  0  0  0  0
 24 49  1  0  0  0  0
 25 26  1  0  0  0  0
 25 50  1  1  0  0  0
 26 51  1  0  0  0  0
 26 52  1  0  0  0  0
 26 53  1  0  0  0  0
 27 30  1  0  0  0  0
 27 28  2  0  0  0  0
 29 30  1  0  0  0  0
 30 54  1  0  0  0  0
M  END
>  <DRUGBANK_ID>
DB01640

>  <SECONDARY_ACCESSION_NUMBERS>
EXPT00272

>  <COMMON_NAME>
6-(4-{[2-(3-iodobenzyl)-3-oxocyclohex-1-en-1-yl]amino}phenyl)-5-methyl-4,5-dihydropyridazin-3(2H)-one

>  <SYNONYMS>
(4R)-3-[4-[[2-[(3-Iodophenyl)methyl]-3-oxocyclohexen-1-yl]amino]phenyl]-4-methyl-4,5-dihydro-1H-pyridazin-6-one

$$$$
