
 OpenBabel10282417072D

 59 61  0  0  0  0  0  0  0  0999 V2000
   -0.6804    0.7050    0.0000 C   0  0  0  0  0  0  0  0  0  0  0  0
    0.0340    0.2925    0.0000 N   0  0  0  0  0  0  0  0  0  0  0  0
    0.7485    0.7050    0.0000 C   0  0  0  0  0  0  0  0  0  0  0  0
    0.0340   -0.5325    0.0000 C   0  0  0  0  0  0  0  0  0  0  0  0
    0.7485   -0.9450    0.0000 C   0  0  3  0  0  0  0  0  0  0  0  0
    0.7485   -1.7700    0.0000 C   0  0  0  0  0  0  0  0  0  0  0  0
    1.4630   -2.1825    0.0000 C   0  0  0  0  0  0  0  0  0  0  0  0
    1.4630   -3.0075    0.0000 C   0  0  0  0  0  0  0  0  0  0  0  0
    0.7485   -3.4200    0.0000 C   0  0  0  0  0  0  0  0  0  0  0  0
    0.7485   -4.2450    0.0000 O   0  0  0  0  0  0  0  0  0  0  0  0
    0.0340   -4.6575    0.0000 C   0  0  0  0  0  0  0  0  0  0  0  0
   -0.6804   -4.2450    0.0000 O   0  0  0  0  0  0  0  0  0  0  0  0
    0.0340   -5.4825    0.0000 C   0  0  0  0  0  0  0  0  0  0  0  0
    0.7485   -5.8950    0.0000 C   0  0  0  0  0  0  0  0  0  0  0  0
    0.7485   -6.7200    0.0000 C   0  0  0  0  0  0  0  0  0  0  0  0
    0.0340   -7.1325    0.0000 C   0  0  0  0  0  0  0  0  0  0  0  0
    0.0340   -7.9575    0.0000 C   0  0  0  0  0  0  0  0  0  0  0  0
   -0.6804   -6.7200    0.0000 C   0  0  0  0  0  0  0  0  0  0  0  0
   -0.6804   -5.8950    0.0000 C   0  0  0  0  0  0  0  0  0  0  0  0
    0.0340   -3.0075    0.0000 C   0  0  0  0  0  0  0  0  0  0  0  0
    0.0340   -2.1825    0.0000 C   0  0  0  0  0  0  0  0  0  0  0  0
    1.4630   -0.5325    0.0000 C   0  0  0  0  0  0  0  0  0  0  0  0
    1.7451   -1.3077    0.0000 O   0  0  0  0  0  0  0  0  0  0  0  0
    0.9327    0.0995    0.0000 C   0  0  0  0  0  0  0  0  0  0  0  0
    1.2148    0.8748    0.0000 C   0  0  0  0  0  0  0  0  0  0  0  0
    2.0273    1.0180    0.0000 C   0  0  0  0  0  0  0  0  0  0  0  0
    2.5576    0.3860    0.0000 C   0  0  0  0  0  0  0  0  0  0  0  0
    2.2754   -0.3892    0.0000 C   0  0  0  0  0  0  0  0  0  0  0  0
   -0.6804    1.7750    0.0000 H   0  0  0  0  0  0  0  0  0  0  0  0
   -1.6071    0.1700    0.0000 H   0  0  0  0  0  0  0  0  0  0  0  0
   -1.6070    1.2400    0.0000 H   0  0  0  0  0  0  0  0  0  0  0  0
    1.6751    0.1700    0.0000 H   0  0  0  0  0  0  0  0  0  0  0  0
    0.7485    1.7750    0.0000 H   0  0  0  0  0  0  0  0  0  0  0  0
    1.6752    1.2400    0.0000 H   0  0  0  0  0  0  0  0  0  0  0  0
   -0.8926   -1.0675    0.0000 H   0  0  0  0  0  0  0  0  0  0  0  0
    0.0340   -1.6025    0.0000 H   0  0  0  0  0  0  0  0  0  0  0  0
   -0.1781   -1.4800    0.0000 H   0  0  0  0  0  0  0  0  0  0  0  0
    2.3567   -1.6665    0.0000 H   0  0  0  0  0  0  0  0  0  0  0  0
    2.3567   -3.5235    0.0000 H   0  0  0  0  0  0  0  0  0  0  0  0
    1.6422   -5.3790    0.0000 H   0  0  0  0  0  0  0  0  0  0  0  0
    1.6422   -7.2360    0.0000 H   0  0  0  0  0  0  0  0  0  0  0  0
   -0.8926   -8.4925    0.0000 H   0  0  0  0  0  0  0  0  0  0  0  0
    0.9606   -8.4925    0.0000 H   0  0  0  0  0  0  0  0  0  0  0  0
    0.0340   -9.0275    0.0000 H   0  0  0  0  0  0  0  0  0  0  0  0
   -1.5741   -7.2360    0.0000 H   0  0  0  0  0  0  0  0  0  0  0  0
   -1.5741   -5.3790    0.0000 H   0  0  0  0  0  0  0  0  0  0  0  0
   -0.8597   -3.5235    0.0000 H   0  0  0  0  0  0  0  0  0  0  0  0
   -0.8597   -1.6665    0.0000 H   0  0  0  0  0  0  0  0  0  0  0  0
    1.1216   -2.0507    0.0000 H   0  0  0  0  0  0  0  0  0  0  0  0
   -0.1210   -0.0863    0.0000 H   0  0  0  0  0  0  0  0  0  0  0  0
    0.2449    0.9191    0.0000 H   0  0  0  0  0  0  0  0  0  0  0  0
    0.5270    1.6945    0.0000 H   0  0  0  0  0  0  0  0  0  0  0  0
    1.5808    1.8803    0.0000 H   0  0  0  0  0  0  0  0  0  0  0  0
    2.3933    2.0235    0.0000 H   0  0  0  0  0  0  0  0  0  0  0  0
    3.0810    1.2038    0.0000 H   0  0  0  0  0  0  0  0  0  0  0  0
    3.6114    0.5718    0.0000 H   0  0  0  0  0  0  0  0  0  0  0  0
    3.2453   -0.4337    0.0000 H   0  0  0  0  0  0  0  0  0  0  0  0
    2.9632   -1.2089    0.0000 H   0  0  0  0  0  0  0  0  0  0  0  0
    1.9095   -1.3947    0.0000 H   0  0  0  0  0  0  0  0  0  0  0  0
  1  2  1  0  0  0  0
  1 29  1  0  0  0  0
  1 30  1  0  0  0  0
  1 31  1  0  0  0  0
  2  3  1  0  0  0  0
  2  4  1  0  0  0  0
  3 32  1  0  0  0  0
  3 33  1  0  0  0  0
  3 34  1  0  0  0  0
  4  5  1  0  0  0  0
  4 35  1  0  0  0  0
  4 36  1  0  0  0  0
  5  6  1  0  0  0  0
  5 22  1  0  0  0  0
  5 37  1  0  0  0  0
  6  7  2  0  0  0  0
  6 21  1  0  0  0  0
  7  8  1  0  0  0  0
  7 38  1  0  0  0  0
  8  9  2  0  0  0  0
  8 39  1  0  0  0  0
  9 10  1  0  0  0  0
  9 20  1  0  0  0  0
 10 11  1  0  0  0  0
 11 12  2  0  0  0  0
 11 13  1  0  0  0  0
 13 14  2  0  0  0  0
 13 19  1  0  0  0  0
 14 15  1  0  0  0  0
 14 40  1  0  0  0  0
 15 16  2  0  0  0  0
 15 41  1  0  0  0  0
 16 17  1  0  0  0  0
 16 18  1  0  0  0  0
 17 42  1  0  0  0  0
 17 43  1  0  0  0  0
 17 44  1  0  0  0  0
 18 19  2  0  0  0  0
 18 45  1  0  0  0  0
 19 46  1  0  0  0  0
 20 21  2  0  0  0  0
 20 47  1  0  0  0  0
 21 48  1  0  0  0  0
 22 23  1  0  0  0  0
 22 24  1  0  0  0  0
 22 28  1  0  0  0  0
 23 49  1  0  0  0  0
 24 25  1  0  0  0  0
 24 50  1  0  0  0  0
 24 51  1  0  0  0  0
 25 26  1  0  0  0  0
 25 52  1  0  0  0  0
 25 53  1  0  0  0  0
 26 27  1  0  0  0  0
 26 54  1  0  0  0  0
 26 55  1  0  0  0  0
 27 28  1  0  0  0  0
 27 56  1  0  0  0  0
 27 57  1  0  0  0  0
 28 58  1  0  0  0  0
 28 59  1  0  0  0  0
M  END
>  <DRUGBANK_ID>
DB15052

>  <COMMON_NAME>
Ansofaxine

>  <CAS_NUMBER>
916918-80-4

>  <UNII>
A7CGH459FN

$$$$
