A37
 OpenBabel10282417072D

 29 31  0  0  0  0  0  0  0  0999 V2000
   -1.5738   -1.8866    0.0000 C   0  0  0  0  0  0  0  0  0  0  0  0
   -2.3988   -1.8866    0.0000 C   0  0  0  0  0  0  0  0  0  0  0  0
   -2.8113   -1.1722    0.0000 C   0  0  0  0  0  0  0  0  0  0  0  0
   -2.3988   -0.4577    0.0000 C   0  0  0  0  0  0  0  0  0  0  0  0
   -1.5738   -0.4577    0.0000 C   0  0  0  0  0  0  0  0  0  0  0  0
   -1.1613   -1.1722    0.0000 C   0  0  0  0  0  0  0  0  0  0  0  0
   -1.1613    0.2568    0.0000 S   0  0  0  0  0  0  0  0  0  0  0  0
   -0.4468   -0.1557    0.0000 O   0  0  0  0  0  0  0  0  0  0  0  0
   -1.8758    0.6693    0.0000 O   0  0  0  0  0  0  0  0  0  0  0  0
   -0.7488    0.9713    0.0000 N   0  0  0  0  0  0  0  0  0  0  0  0
    0.0762    0.9713    0.0000 C   0  0  0  0  0  0  0  0  0  0  0  0
    0.5611    1.6387    0.0000 N   0  0  0  0  0  0  0  0  0  0  0  0
    1.3458    1.3838    0.0000 C   0  0  0  0  0  0  0  0  0  0  0  0
    2.0602    1.7963    0.0000 C   0  0  0  0  0  0  0  0  0  0  0  0
    2.7747    1.3838    0.0000 C   0  0  0  0  0  0  0  0  0  0  0  0
    3.4892    1.7963    0.0000 Cl  0  0  0  0  0  0  0  0  0  0  0  0
    2.7747    0.5588    0.0000 C   0  0  0  0  0  0  0  0  0  0  0  0
    2.0602    0.1463    0.0000 C   0  0  0  0  0  0  0  0  0  0  0  0
    1.3458    0.5588    0.0000 C   0  0  0  0  0  0  0  0  0  0  0  0
    0.5611    0.3038    0.0000 O   0  0  0  0  0  0  0  0  0  0  0  0
   -3.6363   -1.1722    0.0000 Cl  0  0  0  0  0  0  0  0  0  0  0  0
   -0.3363   -1.1722    0.0000 Cl  0  0  0  0  0  0  0  0  0  0  0  0
   -1.0578   -2.7803    0.0000 H   0  0  0  0  0  0  0  0  0  0  0  0
   -2.9148   -2.7803    0.0000 H   0  0  0  0  0  0  0  0  0  0  0  0
   -2.9148    0.4360    0.0000 H   0  0  0  0  0  0  0  0  0  0  0  0
   -1.2411    1.8239    0.0000 H   0  0  0  0  0  0  0  0  0  0  0  0
    2.0602    2.8283    0.0000 H   0  0  0  0  0  0  0  0  0  0  0  0
    3.6684    0.0428    0.0000 H   0  0  0  0  0  0  0  0  0  0  0  0
    2.0602   -0.8857    0.0000 H   0  0  0  0  0  0  0  0  0  0  0  0
  1  2  1  0  0  0  0
  1  6  2  0  0  0  0
  1 23  1  0  0  0  0
  2  3  2  0  0  0  0
  2 24  1  0  0  0  0
  3  4  1  0  0  0  0
  3 21  1  0  0  0  0
  4  5  2  0  0  0  0
  4 25  1  0  0  0  0
  5  6  1  0  0  0  0
  5  7  1  0  0  0  0
  6 22  1  0  0  0  0
  7  8  2  0  0  0  0
  7  9  2  0  0  0  0
  7 10  1  0  0  0  0
 10 11  1  0  0  0  0
 10 26  1  0  0  0  0
 11 12  2  0  0  0  0
 11 20  1  0  0  0  0
 12 13  1  0  0  0  0
 13 14  2  0  0  0  0
 13 19  1  0  0  0  0
 14 15  1  0  0  0  0
 14 27  1  0  0  0  0
 15 16  1  0  0  0  0
 15 17  2  0  0  0  0
 17 18  1  0  0  0  0
 17 28  1  0  0  0  0
 18 19  2  0  0  0  0
 18 29  1  0  0  0  0
 19 20  1  0  0  0  0
M  END
>  <DRUGBANK_ID>
DB07312

>  <COMMON_NAME>
2,5-DICHLORO-N-(5-CHLORO-1,3-BENZOXAZOL-2-YL)BENZENESULFONAMIDE

$$$$
