32326
 OpenBabel10282417072D

 32 34  0  0  1  0  0  0  0  0999 V2000
    3.6940    3.6075    0.0000 O   0  0  0  0  0  0  0  0  0  0  0  0
    1.6001    4.0236    0.0000 O   0  0  0  0  0  0  0  0  0  0  0  0
    2.6576    5.4739    0.0000 O   0  0  0  0  0  0  0  0  0  0  0  0
    5.1168    4.5794    0.0000 O   0  0  0  0  0  0  0  0  0  0  0  0
    2.6526    2.5697    0.0000 N   0  0  0  0  0  0  0  0  0  0  0  0
    2.6526    1.2419    0.0000 N   0  0  0  0  0  0  0  0  0  0  0  0
    1.1575    2.7308    0.0000 N   0  0  0  0  0  0  0  0  0  0  0  0
    0.4430    1.4933    0.0000 N   0  0  0  0  0  0  0  0  0  0  0  0
    1.1575    0.2558    0.0000 N   0  0  0  0  0  0  0  0  0  0  0  0
    2.4251    4.0222    0.0000 C   0  0  2  0  0  0  0  0  0  0  0  0
    2.9089    3.3538    0.0000 C   0  0  1  0  0  0  0  0  0  0  0  0
    2.9112    4.6888    0.0000 C   0  0  1  0  0  0  0  0  0  0  0  0
    3.6954    4.4325    0.0000 C   0  0  1  0  0  0  0  0  0  0  0  0
    4.3637    4.9163    0.0000 C   0  0  0  0  0  0  0  0  0  0  0  0
    1.8720    2.3183    0.0000 C   0  0  0  0  0  0  0  0  0  0  0  0
    3.1341    1.9058    0.0000 C   0  0  0  0  0  0  0  0  0  0  0  0
    1.8720    1.4933    0.0000 C   0  0  0  0  0  0  0  0  0  0  0  0
    1.1575    1.0808    0.0000 C   0  0  0  0  0  0  0  0  0  0  0  0
    0.4430    2.3183    0.0000 C   0  0  0  0  0  0  0  0  0  0  0  0
    1.1165    4.8645    0.0000 H   0  0  0  0  0  0  0  0  0  0  0  0
    3.3079    6.1936    0.0000 H   0  0  0  0  0  0  0  0  0  0  0  0
    5.2165    3.6145    0.0000 H   0  0  0  0  0  0  0  0  0  0  0  0
    0.3049   -0.2365    0.0000 H   0  0  0  0  0  0  0  0  0  0  0  0
    2.0101   -0.2364    0.0000 H   0  0  0  0  0  0  0  0  0  0  0  0
    1.9377    3.0697    0.0000 H   0  0  0  0  0  0  0  0  0  0  0  0
    3.6642    2.5959    0.0000 H   0  0  0  0  0  0  0  0  0  0  0  0
    1.8547    4.8580    0.0000 H   0  0  0  0  0  0  0  0  0  0  0  0
    4.6479    3.9451    0.0000 H   0  0  0  0  0  0  0  0  0  0  0  0
    4.2537    5.9806    0.0000 H   0  0  0  0  0  0  0  0  0  0  0  0
    3.3870    5.3532    0.0000 H   0  0  0  0  0  0  0  0  0  0  0  0
    4.1661    1.9058    0.0000 H   0  0  0  0  0  0  0  0  0  0  0  0
   -0.4507    2.8343    0.0000 H   0  0  0  0  0  0  0  0  0  0  0  0
  1 11  1  0  0  0  0
  1 13  1  0  0  0  0
  2 20  1  0  0  0  0
  3 21  1  0  0  0  0
  4 14  1  0  0  0  0
  4 22  1  0  0  0  0
  5 15  1  0  0  0  0
  5 16  1  0  0  0  0
  6 16  2  0  0  0  0
  6 17  1  0  0  0  0
  7 15  1  0  0  0  0
  7 19  2  0  0  0  0
  8 18  2  0  0  0  0
  8 19  1  0  0  0  0
  9 18  1  0  0  0  0
  9 23  1  0  0  0  0
  9 24  1  0  0  0  0
 10  2  1  0  0  0  0
 10 11  1  0  0  0  0
 10 12  1  0  0  0  0
 10 25  1  6  0  0  0
 11  5  1  0  0  0  0
 11 26  1  6  0  0  0
 12  3  1  0  0  0  0
 12 13  1  0  0  0  0
 12 27  1  1  0  0  0
 13 14  1  0  0  0  0
 13 28  1  6  0  0  0
 14 29  1  0  0  0  0
 14 30  1  0  0  0  0
 15 17  2  0  0  0  0
 16 31  1  0  0  0  0
 17 18  1  0  0  0  0
 19 32  1  0  0  0  0
M  END
>  <DRUGBANK_ID>
DB00194

>  <SECONDARY_ACCESSION_NUMBERS>
APRD00333; EXPT02753

>  <COMMON_NAME>
Vidarabine

>  <CAS_NUMBER>
24356-66-9

>  <UNII>
3XQD2MEW34

>  <SYNONYMS>
9-beta-D-arabinofuranosyl-9H-purin-6-amine; 9-beta-D-arabinofuranosyl-adenine; 9-beta-D-Arabinofuranosyladenine; 9-β-D-arabinofuranosyl-9H-purin-6-amine; 9-β-D-arabinofuranosyladenine; Spongoadenosine; Vidarabine; Vidarabinum

$$$$
