1393
 OpenBabel10282417072D

 45 46  0  0  0  0  0  0  0  0999 V2000
    2.3645   -5.0780    0.0000 Cl  0  0  0  0  0  0  0  0  0  0  0  0
    3.7935    3.1722    0.0000 O   0  0  0  0  0  0  0  0  0  0  0  0
    5.2224    4.8222    0.0000 O   0  0  0  0  0  0  0  0  0  0  0  0
    5.9370    3.5847    0.0000 O   0  0  0  0  0  0  0  0  0  0  0  0
    1.6500   -1.3654    0.0000 O   0  0  0  0  0  0  0  0  0  0  0  0
    3.0791   -1.3654    0.0000 N   0  0  0  0  0  0  0  0  0  0  0  0
    4.5080    3.5847    0.0000 C   0  0  0  0  0  0  0  0  0  0  0  0
    3.7935   -0.1279    0.0000 C   0  0  0  0  0  0  0  0  0  0  0  0
    3.7935    0.6971    0.0000 C   0  0  0  0  0  0  0  0  0  0  0  0
    3.0791   -0.5404    0.0000 C   0  0  0  0  0  0  0  0  0  0  0  0
    3.7935    2.3472    0.0000 C   0  0  0  0  0  0  0  0  0  0  0  0
    4.0955    4.2992    0.0000 C   0  0  0  0  0  0  0  0  0  0  0  0
    4.9205    2.8702    0.0000 C   0  0  0  0  0  0  0  0  0  0  0  0
    3.0791    1.1096    0.0000 C   0  0  0  0  0  0  0  0  0  0  0  0
    4.5080    1.1096    0.0000 C   0  0  0  0  0  0  0  0  0  0  0  0
    3.0791    1.9347    0.0000 C   0  0  0  0  0  0  0  0  0  0  0  0
    4.5080    1.9347    0.0000 C   0  0  0  0  0  0  0  0  0  0  0  0
    5.2224    3.9972    0.0000 C   0  0  0  0  0  0  0  0  0  0  0  0
    2.3645   -1.7779    0.0000 C   0  0  0  0  0  0  0  0  0  0  0  0
    2.3645   -2.6029    0.0000 C   0  0  0  0  0  0  0  0  0  0  0  0
    3.0791   -3.0154    0.0000 C   0  0  0  0  0  0  0  0  0  0  0  0
    1.6500   -3.0154    0.0000 C   0  0  0  0  0  0  0  0  0  0  0  0
    3.0791   -3.8405    0.0000 C   0  0  0  0  0  0  0  0  0  0  0  0
    1.6500   -3.8405    0.0000 C   0  0  0  0  0  0  0  0  0  0  0  0
    2.3645   -4.2530    0.0000 C   0  0  0  0  0  0  0  0  0  0  0  0
    6.0339    5.2907    0.0000 H   0  0  0  0  0  0  0  0  0  0  0  0
    3.9317   -1.8577    0.0000 H   0  0  0  0  0  0  0  0  0  0  0  0
    4.7202   -0.6629    0.0000 H   0  0  0  0  0  0  0  0  0  0  0  0
    3.7935   -1.1979    0.0000 H   0  0  0  0  0  0  0  0  0  0  0  0
    2.1524   -0.0054    0.0000 H   0  0  0  0  0  0  0  0  0  0  0  0
    3.0791    0.5296    0.0000 H   0  0  0  0  0  0  0  0  0  0  0  0
    4.6305    5.2258    0.0000 H   0  0  0  0  0  0  0  0  0  0  0  0
    3.0255    4.2992    0.0000 H   0  0  0  0  0  0  0  0  0  0  0  0
    3.5605    5.2259    0.0000 H   0  0  0  0  0  0  0  0  0  0  0  0
    4.3855    1.9436    0.0000 H   0  0  0  0  0  0  0  0  0  0  0  0
    5.9905    2.8702    0.0000 H   0  0  0  0  0  0  0  0  0  0  0  0
    5.4555    1.9435    0.0000 H   0  0  0  0  0  0  0  0  0  0  0  0
    2.1854    0.5936    0.0000 H   0  0  0  0  0  0  0  0  0  0  0  0
    5.4017    0.5936    0.0000 H   0  0  0  0  0  0  0  0  0  0  0  0
    2.1854    2.4507    0.0000 H   0  0  0  0  0  0  0  0  0  0  0  0
    5.4017    2.4507    0.0000 H   0  0  0  0  0  0  0  0  0  0  0  0
    3.9728   -2.4994    0.0000 H   0  0  0  0  0  0  0  0  0  0  0  0
    0.7563   -2.4994    0.0000 H   0  0  0  0  0  0  0  0  0  0  0  0
    3.9728   -4.3565    0.0000 H   0  0  0  0  0  0  0  0  0  0  0  0
    0.7563   -4.3565    0.0000 H   0  0  0  0  0  0  0  0  0  0  0  0
  1 25  1  0  0  0  0
  2  7  1  0  0  0  0
  2 11  1  0  0  0  0
  3 18  1  0  0  0  0
  3 26  1  0  0  0  0
  4 18  2  0  0  0  0
  5 19  2  0  0  0  0
  6 10  1  0  0  0  0
  6 19  1  0  0  0  0
  6 27  1  0  0  0  0
  7 12  1  0  0  0  0
  7 13  1  0  0  0  0
  7 18  1  0  0  0  0
  8  9  1  0  0  0  0
  8 10  1  0  0  0  0
  8 28  1  0  0  0  0
  8 29  1  0  0  0  0
  9 14  2  0  0  0  0
  9 15  1  0  0  0  0
 10 30  1  0  0  0  0
 10 31  1  0  0  0  0
 11 16  2  0  0  0  0
 11 17  1  0  0  0  0
 12 32  1  0  0  0  0
 12 33  1  0  0  0  0
 12 34  1  0  0  0  0
 13 35  1  0  0  0  0
 13 36  1  0  0  0  0
 13 37  1  0  0  0  0
 14 16  1  0  0  0  0
 14 38  1  0  0  0  0
 15 17  2  0  0  0  0
 15 39  1  0  0  0  0
 16 40  1  0  0  0  0
 17 41  1  0  0  0  0
 19 20  1  0  0  0  0
 20 21  2  0  0  0  0
 20 22  1  0  0  0  0
 21 23  1  0  0  0  0
 21 42  1  0  0  0  0
 22 24  2  0  0  0  0
 22 43  1  0  0  0  0
 23 25  2  0  0  0  0
 23 44  1  0  0  0  0
 24 25  1  0  0  0  0
 24 45  1  0  0  0  0
M  END
>  <DRUGBANK_ID>
DB01393

>  <SECONDARY_ACCESSION_NUMBERS>
DB08380

>  <COMMON_NAME>
Bezafibrate

>  <CAS_NUMBER>
41859-67-0

>  <UNII>
Y9449Q51XH

>  <SYNONYMS>
2-(p-(2-(p-Chlorobenzamido)ethyl)phenoxy)-2-methylpropionic acid; Bezafibrate; Bezafibrato; Bezafibratum

$$$$
