
 OpenBabel10282417072D

 55 55  0  0  0  0  0  0  0  0999 V2000
   -0.5662    5.6452    0.0000 C   0  0  0  0  0  0  0  0  0  0  0  0
    0.1483    6.0577    0.0000 C   0  0  0  0  0  0  0  0  0  0  0  0
    0.8628    5.6452    0.0000 C   0  0  0  0  0  0  0  0  0  0  0  0
    5.6332    8.1467    0.0000 C   0  0  0  0  0  0  0  0  0  0  0  0
    5.0201    8.6988    0.0000 C   0  0  0  0  0  0  0  0  0  0  0  0
    1.5772    6.0577    0.0000 C   0  0  0  0  0  0  0  0  0  0  0  0
    5.4617    7.3398    0.0000 C   0  0  0  0  0  0  0  0  0  0  0  0
    5.1916    9.5057    0.0000 C   0  0  0  0  0  0  0  0  0  0  0  0
    2.2917    5.6452    0.0000 C   0  0  0  0  0  0  0  0  0  0  0  0
    6.0748    6.7877    0.0000 C   0  0  0  0  0  0  0  0  0  0  0  0
    4.5785   10.0578    0.0000 C   0  0  0  0  0  0  0  0  0  0  0  0
    3.7206    5.6452    0.0000 C   0  0  0  0  0  0  0  0  0  0  0  0
    4.4351    6.0577    0.0000 C   0  0  0  0  0  0  0  0  0  0  0  0
    6.0428    4.6532    0.0000 C   0  0  0  0  0  0  0  0  0  0  0  0
    3.0062    6.0577    0.0000 C   0  0  0  0  0  0  0  0  0  0  0  0
    5.9033    5.9808    0.0000 C   0  0  3  0  0  0  0  0  0  0  0  0
    5.1496    5.6452    0.0000 C   0  0  3  0  0  0  0  0  0  0  0  0
    6.4553    5.3677    0.0000 C   0  0  0  0  0  0  0  0  0  0  0  0
    5.2358    4.8247    0.0000 C   0  0  3  0  0  0  0  0  0  0  0  0
    4.7501   10.8648    0.0000 C   0  0  0  0  0  0  0  0  0  0  0  0
    3.0062    6.8827    0.0000 O   0  0  0  0  0  0  0  0  0  0  0  0
    7.2758    5.4539    0.0000 O   0  0  0  0  0  0  0  0  0  0  0  0
    4.6227    4.2727    0.0000 O   0  0  0  0  0  0  0  0  0  0  0  0
    4.1370   11.4168    0.0000 O   0  0  0  0  0  0  0  0  0  0  0  0
    5.5347   11.1197    0.0000 O   0  0  0  0  0  0  0  0  0  0  0  0
    6.4178    8.4017    0.0000 H   0  0  0  0  0  0  0  0  0  0  0  0
    4.6771    7.0848    0.0000 H   0  0  0  0  0  0  0  0  0  0  0  0
    3.7206    4.8202    0.0000 H   0  0  0  0  0  0  0  0  0  0  0  0
    4.4351    6.8827    0.0000 H   0  0  0  0  0  0  0  0  0  0  0  0
   -1.4928    6.1802    0.0000 H   0  0  0  0  0  0  0  0  0  0  0  0
   -0.5662    4.5752    0.0000 H   0  0  0  0  0  0  0  0  0  0  0  0
   -1.4929    5.1102    0.0000 H   0  0  0  0  0  0  0  0  0  0  0  0
    0.1483    7.1277    0.0000 H   0  0  0  0  0  0  0  0  0  0  0  0
    1.0749    6.5927    0.0000 H   0  0  0  0  0  0  0  0  0  0  0  0
    0.8628    4.5752    0.0000 H   0  0  0  0  0  0  0  0  0  0  0  0
    1.7895    5.1102    0.0000 H   0  0  0  0  0  0  0  0  0  0  0  0
    4.0025    8.3682    0.0000 H   0  0  0  0  0  0  0  0  0  0  0  0
    4.2249    9.4148    0.0000 H   0  0  0  0  0  0  0  0  0  0  0  0
    1.5772    7.1277    0.0000 H   0  0  0  0  0  0  0  0  0  0  0  0
    2.5038    6.5927    0.0000 H   0  0  0  0  0  0  0  0  0  0  0  0
    6.2092    9.8363    0.0000 H   0  0  0  0  0  0  0  0  0  0  0  0
    5.4141   10.5523    0.0000 H   0  0  0  0  0  0  0  0  0  0  0  0
    2.2917    4.5752    0.0000 H   0  0  0  0  0  0  0  0  0  0  0  0
    3.2183    5.1102    0.0000 H   0  0  0  0  0  0  0  0  0  0  0  0
    7.0924    7.1183    0.0000 H   0  0  0  0  0  0  0  0  0  0  0  0
    6.8700    6.0717    0.0000 H   0  0  0  0  0  0  0  0  0  0  0  0
    3.5608    9.7272    0.0000 H   0  0  0  0  0  0  0  0  0  0  0  0
    3.7834   10.7738    0.0000 H   0  0  0  0  0  0  0  0  0  0  0  0
    6.4780    3.6757    0.0000 H   0  0  0  0  0  0  0  0  0  0  0  0
    5.3695    3.8216    0.0000 H   0  0  0  0  0  0  0  0  0  0  0  0
    5.0717    6.6542    0.0000 H   0  0  0  0  0  0  0  0  0  0  0  0
    5.2056    6.7137    0.0000 H   0  0  0  0  0  0  0  0  0  0  0  0
    6.0310    5.5407    0.0000 H   0  0  0  0  0  0  0  0  0  0  0  0
    3.7002    4.5725    0.0000 H   0  0  0  0  0  0  0  0  0  0  0  0
    6.2310   10.4927    0.0000 H   0  0  0  0  0  0  0  0  0  0  0  0
  1 30  1  0  0  0  0
  1 31  1  0  0  0  0
  1 32  1  0  0  0  0
  2  1  1  0  0  0  0
  2 33  1  0  0  0  0
  2 34  1  0  0  0  0
  3  2  1  0  0  0  0
  3 35  1  0  0  0  0
  3 36  1  0  0  0  0
  5  4  1  0  0  0  0
  5 37  1  0  0  0  0
  5 38  1  0  0  0  0
  6  3  1  0  0  0  0
  6 39  1  0  0  0  0
  6 40  1  0  0  0  0
  7  4  2  3  0  0  0
  7 27  1  0  0  0  0
  8  5  1  0  0  0  0
  8 41  1  0  0  0  0
  8 42  1  0  0  0  0
  9  6  1  0  0  0  0
  9 43  1  0  0  0  0
  9 44  1  0  0  0  0
 10  7  1  0  0  0  0
 10 45  1  0  0  0  0
 10 46  1  0  0  0  0
 11  8  1  0  0  0  0
 11 47  1  0  0  0  0
 11 48  1  0  0  0  0
 13 12  2  0  0  0  0
 14 49  1  0  0  0  0
 14 50  1  0  0  0  0
 15  9  1  0  0  0  0
 15 12  1  0  0  0  0
 16 10  1  0  0  0  0
 16 51  1  0  0  0  0
 17 13  1  0  0  0  0
 17 16  1  0  0  0  0
 17 52  1  0  0  0  0
 18 14  1  0  0  0  0
 18 16  1  0  0  0  0
 19 14  1  0  0  0  0
 19 17  1  0  0  0  0
 19 53  1  0  0  0  0
 20 11  1  0  0  0  0
 21 15  2  0  0  0  0
 22 18  2  0  0  0  0
 23 19  1  0  0  0  0
 23 54  1  0  0  0  0
 24 20  2  0  0  0  0
 25 20  1  0  0  0  0
 25 55  1  0  0  0  0
 26  4  1  0  0  0  0
 28 12  1  0  0  0  0
 29 13  1  0  0  0  0
M  END
>  <DRUGBANK_ID>
DB07177

>  <COMMON_NAME>
(5E,13E)-11-HYDROXY-9,15-DIOXOPROSTA-5,13-DIEN-1-OIC ACID

$$$$
