
 OpenBabel10282417072D

 39 34  0  0  0  0  0  0  0  0999 V2000
    0.4806    0.1409    0.0000 C   0  0  0  0  0  0  0  0  0  0  0  0
    0.1786   -0.9861    0.0000 C   0  0  0  0  0  0  0  0  0  0  0  0
    0.4806    0.9659    0.0000 C   0  0  0  0  0  0  0  0  0  0  0  0
    1.0036   -0.9861    0.0000 C   0  0  0  0  0  0  0  0  0  0  0  0
   -0.9484   -0.6841    0.0000 C   0  0  0  0  0  0  0  0  0  0  0  0
   -0.2339   -0.2716    0.0000 C   0  0  0  0  0  0  0  0  0  0  0  0
    1.1951    1.3784    0.0000 O   0  0  0  0  0  0  0  0  0  0  0  0
   -0.2339    1.3784    0.0000 O   0  5  0  0  0  0  0  0  0  0  0  0
    1.4161   -1.7006    0.0000 O   0  0  0  0  0  0  0  0  0  0  0  0
    1.4161   -0.2716    0.0000 O   0  5  0  0  0  0  0  0  0  0  0  0
   -0.9484   -1.5091    0.0000 O   0  0  0  0  0  0  0  0  0  0  0  0
   -1.6628   -0.2716    0.0000 O   0  5  0  0  0  0  0  0  0  0  0  0
   -0.6464    0.4428    0.0000 O   0  0  0  0  0  0  0  0  0  0  0  0
    6.2113    0.3235    0.0000 C   0  0  0  0  0  0  0  0  0  0  0  0
    5.9093   -0.8034    0.0000 C   0  0  0  0  0  0  0  0  0  0  0  0
    6.2113    1.1485    0.0000 C   0  0  0  0  0  0  0  0  0  0  0  0
    6.7343   -0.8034    0.0000 C   0  0  0  0  0  0  0  0  0  0  0  0
    4.7824   -0.5015    0.0000 C   0  0  0  0  0  0  0  0  0  0  0  0
    5.4968   -0.0890    0.0000 C   0  0  0  0  0  0  0  0  0  0  0  0
    5.4968    1.5610    0.0000 O   0  0  0  0  0  0  0  0  0  0  0  0
    6.9258    1.5610    0.0000 O   0  5  0  0  0  0  0  0  0  0  0  0
    7.1468   -0.0890    0.0000 O   0  0  0  0  0  0  0  0  0  0  0  0
    7.1468   -1.5179    0.0000 O   0  5  0  0  0  0  0  0  0  0  0  0
    4.7824   -1.3265    0.0000 O   0  0  0  0  0  0  0  0  0  0  0  0
    4.0679   -0.0890    0.0000 O   0  5  0  0  0  0  0  0  0  0  0  0
    5.0843    0.6255    0.0000 O   0  0  0  0  0  0  0  0  0  0  0  0
   -0.9484    1.7909    0.0000 Ca  0  2  0  0  0  0  0  0  0  0  0  0
    1.8286    0.4428    0.0000 Ca  0  2  0  0  0  0  0  0  0  0  0  0
   -2.3773    0.1409    0.0000 Ca  0  2  0  0  0  0  0  0  0  0  0  0
    1.4072   -0.3941    0.0000 H   0  0  0  0  0  0  0  0  0  0  0  0
    0.4806   -0.9291    0.0000 H   0  0  0  0  0  0  0  0  0  0  0  0
   -0.3564   -1.9127    0.0000 H   0  0  0  0  0  0  0  0  0  0  0  0
   -0.8914   -0.9861    0.0000 H   0  0  0  0  0  0  0  0  0  0  0  0
   -0.1614    1.2829    0.0000 H   0  0  0  0  0  0  0  0  0  0  0  0
    7.1379   -0.2115    0.0000 H   0  0  0  0  0  0  0  0  0  0  0  0
    6.2113   -0.7465    0.0000 H   0  0  0  0  0  0  0  0  0  0  0  0
    5.3743   -1.7301    0.0000 H   0  0  0  0  0  0  0  0  0  0  0  0
    4.8393   -0.8034    0.0000 H   0  0  0  0  0  0  0  0  0  0  0  0
    5.5693    1.4655    0.0000 H   0  0  0  0  0  0  0  0  0  0  0  0
  1 30  1  0  0  0  0
  1 31  1  0  0  0  0
  2 32  1  0  0  0  0
  2 33  1  0  0  0  0
  3  1  1  0  0  0  0
  4  2  1  0  0  0  0
  6  1  1  0  0  0  0
  6  2  1  0  0  0  0
  6  5  1  0  0  0  0
  7  3  2  0  0  0  0
  8  3  1  0  0  0  0
  9  4  2  0  0  0  0
 10  4  1  0  0  0  0
 11  5  2  0  0  0  0
 12  5  1  0  0  0  0
 13  6  1  0  0  0  0
 13 34  1  0  0  0  0
 14 35  1  0  0  0  0
 14 36  1  0  0  0  0
 15 37  1  0  0  0  0
 15 38  1  0  0  0  0
 16 14  1  0  0  0  0
 17 15  1  0  0  0  0
 19 14  1  0  0  0  0
 19 15  1  0  0  0  0
 19 18  1  0  0  0  0
 20 16  2  0  0  0  0
 21 16  1  0  0  0  0
 22 17  2  0  0  0  0
 23 17  1  0  0  0  0
 24 18  2  0  0  0  0
 25 18  1  0  0  0  0
 26 19  1  0  0  0  0
 26 39  1  0  0  0  0
M  CHG  8   8  -1  10  -1  12  -1  21  -1  23  -1  25  -1  27   2  28   2
M  CHG  1  29   2
M  END
>  <DRUGBANK_ID>
DB11093

>  <COMMON_NAME>
Calcium citrate

>  <CAS_NUMBER>
813-94-5

>  <UNII>
86117BWO7P

>  <SYNONYMS>
tricalcium citrate

$$$$
