
 OpenBabel10282417072D

 41 43  0  0  0  0  0  0  0  0999 V2000
   -2.1871   -1.3832    0.0000 C   0  0  0  0  0  0  0  0  0  0  0  0
   -2.9030   -1.7958    0.0000 C   0  0  0  0  0  0  0  0  0  0  0  0
   -2.9030   -2.6208    0.0000 C   0  0  0  0  0  0  0  0  0  0  0  0
   -2.1871   -3.0335    0.0000 C   0  0  0  0  0  0  0  0  0  0  0  0
   -1.4772   -1.7958    0.0000 C   0  0  0  0  0  0  0  0  0  0  0  0
   -1.4772   -2.6208    0.0000 C   0  0  0  0  0  0  0  0  0  0  0  0
   -0.2093   -2.2083    0.0000 C   0  0  0  0  0  0  0  0  0  0  0  0
   -0.6946   -1.5409    0.0000 C   0  0  0  0  0  0  0  0  0  0  0  0
   -0.6946   -2.8757    0.0000 N   0  0  0  0  0  0  0  0  0  0  0  0
    0.6158   -2.2083    0.0000 O   0  0  0  0  0  0  0  0  0  0  0  0
   -0.4399   -0.7583    0.0000 C   0  0  0  0  0  0  0  0  0  0  0  0
    0.3670   -0.5884    0.0000 C   0  0  0  0  0  0  0  0  0  0  0  0
    1.7018   -0.5884    0.0000 C   0  0  0  0  0  0  0  0  0  0  0  0
    1.4469    0.1941    0.0000 C   0  0  0  0  0  0  0  0  0  0  0  0
    0.6218    0.1941    0.0000 C   0  0  0  0  0  0  0  0  0  0  0  0
    1.0343   -1.0738    0.0000 N   0  0  0  0  0  0  0  0  0  0  0  0
    0.1364    0.8615    0.0000 C   0  0  0  0  0  0  0  0  0  0  0  0
    2.4843   -0.8432    0.0000 C   0  0  0  0  0  0  0  0  0  0  0  0
    1.9322    0.8615    0.0000 C   0  0  0  0  0  0  0  0  0  0  0  0
    1.5925    1.6137    0.0000 C   0  0  0  0  0  0  0  0  0  0  0  0
    2.0779    2.2812    0.0000 C   0  0  0  0  0  0  0  0  0  0  0  0
    2.9030    2.2812    0.0000 O   0  0  0  0  0  0  0  0  0  0  0  0
    1.7441    3.0335    0.0000 O   0  0  0  0  0  0  0  0  0  0  0  0
   -2.1852   -0.3512    0.0000 H   0  0  0  0  0  0  0  0  0  0  0  0
   -3.7965   -1.2795    0.0000 H   0  0  0  0  0  0  0  0  0  0  0  0
   -3.7966   -3.1371    0.0000 H   0  0  0  0  0  0  0  0  0  0  0  0
   -2.1852   -4.0655    0.0000 H   0  0  0  0  0  0  0  0  0  0  0  0
   -0.3909   -3.8122    0.0000 H   0  0  0  0  0  0  0  0  0  0  0  0
   -1.1295    0.0095    0.0000 H   0  0  0  0  0  0  0  0  0  0  0  0
    1.0342   -2.0583    0.0000 H   0  0  0  0  0  0  0  0  0  0  0  0
    0.5711    1.8392    0.0000 H   0  0  0  0  0  0  0  0  0  0  0  0
   -0.9277    0.7491    0.0000 H   0  0  0  0  0  0  0  0  0  0  0  0
   -0.4930    1.7268    0.0000 H   0  0  0  0  0  0  0  0  0  0  0  0
    2.7061   -1.8900    0.0000 H   0  0  0  0  0  0  0  0  0  0  0  0
    3.2799   -0.1277    0.0000 H   0  0  0  0  0  0  0  0  0  0  0  0
    3.5017   -1.1745    0.0000 H   0  0  0  0  0  0  0  0  0  0  0  0
    2.9966    0.7523    0.0000 H   0  0  0  0  0  0  0  0  0  0  0  0
    2.5578    1.7296    0.0000 H   0  0  0  0  0  0  0  0  0  0  0  0
    0.5281    1.7229    0.0000 H   0  0  0  0  0  0  0  0  0  0  0  0
    1.1563    2.5908    0.0000 H   0  0  0  0  0  0  0  0  0  0  0  0
    2.2958    3.7908    0.0000 H   0  0  0  0  0  0  0  0  0  0  0  0
  1  2  1  0  0  0  0
  1  5  2  0  0  0  0
  1 24  1  0  0  0  0
  2  3  2  0  0  0  0
  2 25  1  0  0  0  0
  3  4  1  0  0  0  0
  3 26  1  0  0  0  0
  4  6  2  0  0  0  0
  4 27  1  0  0  0  0
  5  8  1  0  0  0  0
  5  6  1  0  0  0  0
  6  9  1  0  0  0  0
  7  9  1  0  0  0  0
  7  8  1  0  0  0  0
  7 10  2  0  0  0  0
  8 11  2  0  0  0  0
  9 28  1  0  0  0  0
 11 12  1  0  0  0  0
 11 29  1  0  0  0  0
 12 15  2  0  0  0  0
 12 16  1  0  0  0  0
 13 16  1  0  0  0  0
 13 14  2  0  0  0  0
 13 18  1  0  0  0  0
 14 15  1  0  0  0  0
 14 19  1  0  0  0  0
 15 17  1  0  0  0  0
 16 30  1  0  0  0  0
 17 31  1  0  0  0  0
 17 32  1  0  0  0  0
 17 33  1  0  0  0  0
 18 34  1  0  0  0  0
 18 35  1  0  0  0  0
 18 36  1  0  0  0  0
 19 20  1  0  0  0  0
 19 37  1  0  0  0  0
 19 38  1  0  0  0  0
 20 21  1  0  0  0  0
 20 39  1  0  0  0  0
 20 40  1  0  0  0  0
 21 23  1  0  0  0  0
 21 22  2  0  0  0  0
 23 41  1  0  0  0  0
M  END
>  <DRUGBANK_ID>
DB12072

>  <COMMON_NAME>
Orantinib

>  <CAS_NUMBER>
252916-29-3

>  <UNII>
9RL37ZZ665

>  <SYNONYMS>
Orantinib; Orantinibum

$$$$
