
 OpenBabel10282417072D

 61 64  0  0  1  0  0  0  0  0999 V2000
    4.0140    1.6880    0.0000 H   0  0  0  0  0  0  0  0  0  0  0  0
    3.2789    2.0625    0.0000 C   0  0  1  0  0  0  0  0  0  0  0  0
    2.6115    2.5474    0.0000 C   0  0  0  0  0  0  0  0  0  0  0  0
    2.8664    3.3320    0.0000 C   0  0  0  0  0  0  0  0  0  0  0  0
    3.6914    3.3320    0.0000 C   0  0  0  0  0  0  0  0  0  0  0  0
    3.9464    2.5474    0.0000 O   0  0  0  0  0  0  0  0  0  0  0  0
    3.2789    1.2375    0.0000 C   0  0  0  0  0  0  0  0  0  0  0  0
    3.9934    0.8250    0.0000 C   0  0  0  0  0  0  0  0  0  0  0  0
    4.7079    1.2375    0.0000 F   0  0  0  0  0  0  0  0  0  0  0  0
    3.9934    0.0000    0.0000 C   0  0  0  0  0  0  0  0  0  0  0  0
    3.2789   -0.4125    0.0000 C   0  0  0  0  0  0  0  0  0  0  0  0
    2.5645    0.0000    0.0000 C   0  0  0  0  0  0  0  0  0  0  0  0
    1.7798   -0.2549    0.0000 N   0  0  0  0  0  0  0  0  0  0  0  0
    1.2949    0.4125    0.0000 C   0  0  0  0  0  0  0  0  0  0  0  0
    0.4699    0.4125    0.0000 N   0  0  0  0  0  0  0  0  0  0  0  0
    0.0574    1.1270    0.0000 C   0  0  0  0  0  0  0  0  0  0  0  0
    0.4699    1.8414    0.0000 O   0  0  0  0  0  0  0  0  0  0  0  0
   -0.7676    1.1270    0.0000 N   0  0  0  0  0  0  0  0  0  0  0  0
   -1.1801    1.8414    0.0000 C   0  0  0  0  0  0  0  0  0  0  0  0
   -2.0051    1.8414    0.0000 C   0  0  0  0  0  0  0  0  0  0  0  0
    1.7798    1.0799    0.0000 N   0  0  0  0  0  0  0  0  0  0  0  0
    2.5645    0.8250    0.0000 C   0  0  0  0  0  0  0  0  0  0  0  0
    4.7079   -0.4125    0.0000 C   0  0  0  0  0  0  0  0  0  0  0  0
    5.4223    0.0000    0.0000 C   0  0  0  0  0  0  0  0  0  0  0  0
    6.1368   -0.4125    0.0000 N   0  0  0  0  0  0  0  0  0  0  0  0
    6.1368   -1.2375    0.0000 C   0  0  0  0  0  0  0  0  0  0  0  0
    5.4223   -1.6500    0.0000 N   0  0  0  0  0  0  0  0  0  0  0  0
    4.7079   -1.2375    0.0000 C   0  0  0  0  0  0  0  0  0  0  0  0
    6.8513   -1.6500    0.0000 C   0  0  0  0  0  0  0  0  0  0  0  0
    6.4388   -2.3645    0.0000 C   0  0  0  0  0  0  0  0  0  0  0  0
    7.2638   -0.9355    0.0000 C   0  0  0  0  0  0  0  0  0  0  0  0
    7.5658   -2.0625    0.0000 O   0  0  0  0  0  0  0  0  0  0  0  0
    8.2802   -1.6500    0.0000 P   0  0  0  0  0  0  0  0  0  0  0  0
    8.9947   -1.2375    0.0000 O   0  0  0  0  0  0  0  0  0  0  0  0
    8.6927   -2.3645    0.0000 O   0  0  0  0  0  0  0  0  0  0  0  0
    7.8677   -0.9355    0.0000 O   0  0  0  0  0  0  0  0  0  0  0  0
    1.5939    2.2167    0.0000 H   0  0  0  0  0  0  0  0  0  0  0  0
    1.8549    3.3040    0.0000 H   0  0  0  0  0  0  0  0  0  0  0  0
    2.2375    4.1976    0.0000 H   0  0  0  0  0  0  0  0  0  0  0  0
    3.3522    4.2854    0.0000 H   0  0  0  0  0  0  0  0  0  0  0  0
    4.3203    4.1977    0.0000 H   0  0  0  0  0  0  0  0  0  0  0  0
    4.7482    3.1647    0.0000 H   0  0  0  0  0  0  0  0  0  0  0  0
    3.2789   -1.4445    0.0000 H   0  0  0  0  0  0  0  0  0  0  0  0
   -0.0224   -0.4401    0.0000 H   0  0  0  0  0  0  0  0  0  0  0  0
   -1.2598    0.2744    0.0000 H   0  0  0  0  0  0  0  0  0  0  0  0
   -0.6451    2.7681    0.0000 H   0  0  0  0  0  0  0  0  0  0  0  0
   -1.7151    2.7680    0.0000 H   0  0  0  0  0  0  0  0  0  0  0  0
   -2.5401    2.7680    0.0000 H   0  0  0  0  0  0  0  0  0  0  0  0
   -2.5401    0.9148    0.0000 H   0  0  0  0  0  0  0  0  0  0  0  0
   -3.0751    1.8414    0.0000 H   0  0  0  0  0  0  0  0  0  0  0  0
    1.4755    2.0162    0.0000 H   0  0  0  0  0  0  0  0  0  0  0  0
    5.4223    1.0320    0.0000 H   0  0  0  0  0  0  0  0  0  0  0  0
    3.8142   -1.7535    0.0000 H   0  0  0  0  0  0  0  0  0  0  0  0
    5.3688   -2.3645    0.0000 H   0  0  0  0  0  0  0  0  0  0  0  0
    6.9738   -3.2911    0.0000 H   0  0  0  0  0  0  0  0  0  0  0  0
    5.9038   -3.2912    0.0000 H   0  0  0  0  0  0  0  0  0  0  0  0
    8.3338   -0.9355    0.0000 H   0  0  0  0  0  0  0  0  0  0  0  0
    6.7288   -0.0089    0.0000 H   0  0  0  0  0  0  0  0  0  0  0  0
    7.7988   -0.0088    0.0000 H   0  0  0  0  0  0  0  0  0  0  0  0
    9.8347   -1.7225    0.0000 H   0  0  0  0  0  0  0  0  0  0  0  0
    8.2077   -3.2045    0.0000 H   0  0  0  0  0  0  0  0  0  0  0  0
  2  1  1  6  0  0  0
  2  3  1  0  0  0  0
  2  6  1  0  0  0  0
  2  7  1  0  0  0  0
  3  4  1  0  0  0  0
  3 37  1  0  0  0  0
  3 38  1  0  0  0  0
  4  5  1  0  0  0  0
  4 39  1  0  0  0  0
  4 40  1  0  0  0  0
  5  6  1  0  0  0  0
  5 41  1  0  0  0  0
  5 42  1  0  0  0  0
  7  8  1  0  0  0  0
  7 22  2  0  0  0  0
  8  9  1  0  0  0  0
  8 10  2  0  0  0  0
 10 11  1  0  0  0  0
 10 23  1  0  0  0  0
 11 12  2  0  0  0  0
 11 43  1  0  0  0  0
 12 13  1  0  0  0  0
 12 22  1  0  0  0  0
 13 14  2  0  0  0  0
 14 15  1  0  0  0  0
 14 21  1  0  0  0  0
 15 16  1  0  0  0  0
 15 44  1  0  0  0  0
 16 17  2  0  0  0  0
 16 18  1  0  0  0  0
 18 19  1  0  0  0  0
 18 45  1  0  0  0  0
 19 20  1  0  0  0  0
 19 46  1  0  0  0  0
 19 47  1  0  0  0  0
 20 48  1  0  0  0  0
 20 49  1  0  0  0  0
 20 50  1  0  0  0  0
 21 22  1  0  0  0  0
 21 51  1  0  0  0  0
 23 24  2  0  0  0  0
 23 28  1  0  0  0  0
 24 25  1  0  0  0  0
 24 52  1  0  0  0  0
 25 26  2  0  0  0  0
 26 27  1  0  0  0  0
 26 29  1  0  0  0  0
 27 28  2  0  0  0  0
 28 53  1  0  0  0  0
 29 30  1  0  0  0  0
 29 31  1  0  0  0  0
 29 32  1  0  0  0  0
 30 54  1  0  0  0  0
 30 55  1  0  0  0  0
 30 56  1  0  0  0  0
 31 57  1  0  0  0  0
 31 58  1  0  0  0  0
 31 59  1  0  0  0  0
 32 33  1  0  0  0  0
 33 34  1  0  0  0  0
 33 35  1  0  0  0  0
 33 36  2  0  0  0  0
 34 60  1  0  0  0  0
 35 61  1  0  0  0  0
M  END
>  <DRUGBANK_ID>
DB18409

>  <COMMON_NAME>
Fobrepodacin

>  <CAS_NUMBER>
1384984-31-9

>  <UNII>
1NL76YUU6E

>  <SYNONYMS>
N-ethyl-n'-(6-fluoro-5-(2-(1-methyl-1-(phosphonooxy)ethyl)-5-pyrimidinyl)-7-((2r)-tetrahydro-2-furanyl)-1h-benzimidazol-2-yl)urea; SPR-720 FREE ACID; Urea, n-ethyl-n'-(6-fluoro-5-(2-(1-methyl-1-(phosphonooxy)ethyl)-5-pyrimidinyl)-7-((2r)-tetrahydro-2-furanyl)-1h-benzimidazol-2-yl)-; Vxc-486 phosphate

$$$$
