
 OpenBabel10282417072D

 56 58  0  0  0  0  0  0  0  0999 V2000
   -1.7861    0.4125    0.0000 O   0  0  0  0  0  0  0  0  0  0  0  0
    0.3572    0.8250    0.0000 O   0  0  0  0  0  0  0  0  0  0  0  0
   -1.0716   -0.8250    0.0000 O   0  0  0  0  0  0  0  0  0  0  0  0
    1.7862    0.8250    0.0000 O   0  0  0  0  0  0  0  0  0  0  0  0
   -0.3572    2.0625    0.0000 N   0  0  0  0  0  0  0  0  0  0  0  0
   -2.5007   -0.8250    0.0000 N   0  0  0  0  0  0  0  0  0  0  0  0
    1.0717   -0.4125    0.0000 N   0  0  0  0  0  0  0  0  0  0  0  0
   -0.3572    2.8875    0.0000 C   0  0  0  0  0  0  0  0  0  0  0  0
    0.3572    1.6500    0.0000 C   0  0  0  0  0  0  0  0  0  0  0  0
    0.3572    3.3000    0.0000 C   0  0  0  0  0  0  0  0  0  0  0  0
    1.0717    2.0625    0.0000 C   0  0  0  0  0  0  0  0  0  0  0  0
    1.0717    2.8875    0.0000 C   0  0  0  0  0  0  0  0  0  0  0  0
   -1.0716    1.6500    0.0000 C   0  0  0  0  0  0  0  0  0  0  0  0
   -1.0716    0.8250    0.0000 C   0  0  3  0  0  0  0  0  0  0  0  0
   -0.3572    0.4125    0.0000 C   0  0  0  0  0  0  0  0  0  0  0  0
   -1.7861   -0.4125    0.0000 C   0  0  0  0  0  0  0  0  0  0  0  0
    1.0717    0.4125    0.0000 C   0  0  0  0  0  0  0  0  0  0  0  0
   -2.5007   -1.6500    0.0000 C   0  0  0  0  0  0  0  0  0  0  0  0
    1.7862   -0.8250    0.0000 C   0  0  0  0  0  0  0  0  0  0  0  0
   -1.7861   -2.0625    0.0000 C   0  0  0  0  0  0  0  0  0  0  0  0
   -3.2151   -2.0625    0.0000 C   0  0  0  0  0  0  0  0  0  0  0  0
    1.7862   -1.6500    0.0000 C   0  0  0  0  0  0  0  0  0  0  0  0
    2.5007   -0.4125    0.0000 C   0  0  0  0  0  0  0  0  0  0  0  0
   -1.7861   -2.8875    0.0000 C   0  0  0  0  0  0  0  0  0  0  0  0
   -3.2151   -2.8875    0.0000 C   0  0  0  0  0  0  0  0  0  0  0  0
   -2.5007   -3.3000    0.0000 C   0  0  0  0  0  0  0  0  0  0  0  0
    2.5007   -2.0625    0.0000 C   0  0  0  0  0  0  0  0  0  0  0  0
    3.2151   -0.8250    0.0000 C   0  0  0  0  0  0  0  0  0  0  0  0
    3.2151   -1.6500    0.0000 C   0  0  0  0  0  0  0  0  0  0  0  0
   -2.9436   -0.5692    0.0000 H   0  0  0  0  0  0  0  0  0  0  0  0
    0.6287   -0.6682    0.0000 H   0  0  0  0  0  0  0  0  0  0  0  0
   -1.2839    3.4225    0.0000 H   0  0  0  0  0  0  0  0  0  0  0  0
   -0.3572    3.9575    0.0000 H   0  0  0  0  0  0  0  0  0  0  0  0
    0.3572    0.5800    0.0000 H   0  0  0  0  0  0  0  0  0  0  0  0
    1.2838    1.1150    0.0000 H   0  0  0  0  0  0  0  0  0  0  0  0
    0.3572    4.3700    0.0000 H   0  0  0  0  0  0  0  0  0  0  0  0
    1.2838    3.8350    0.0000 H   0  0  0  0  0  0  0  0  0  0  0  0
    1.9983    1.5275    0.0000 H   0  0  0  0  0  0  0  0  0  0  0  0
    1.9983    2.5975    0.0000 H   0  0  0  0  0  0  0  0  0  0  0  0
    1.9983    3.4225    0.0000 H   0  0  0  0  0  0  0  0  0  0  0  0
    1.9983    2.3525    0.0000 H   0  0  0  0  0  0  0  0  0  0  0  0
   -1.9983    2.1850    0.0000 H   0  0  0  0  0  0  0  0  0  0  0  0
   -1.9982    1.1150    0.0000 H   0  0  0  0  0  0  0  0  0  0  0  0
   -1.9982    1.3600    0.0000 H   0  0  0  0  0  0  0  0  0  0  0  0
   -0.3572   -0.6575    0.0000 H   0  0  0  0  0  0  0  0  0  0  0  0
   -1.2839   -0.1225    0.0000 H   0  0  0  0  0  0  0  0  0  0  0  0
   -0.8924   -1.5465    0.0000 H   0  0  0  0  0  0  0  0  0  0  0  0
   -4.1088   -1.5465    0.0000 H   0  0  0  0  0  0  0  0  0  0  0  0
    0.8925   -2.1660    0.0000 H   0  0  0  0  0  0  0  0  0  0  0  0
    2.5007    0.6195    0.0000 H   0  0  0  0  0  0  0  0  0  0  0  0
   -0.8924   -3.4035    0.0000 H   0  0  0  0  0  0  0  0  0  0  0  0
   -4.1088   -3.4035    0.0000 H   0  0  0  0  0  0  0  0  0  0  0  0
   -2.5008   -4.3320    0.0000 H   0  0  0  0  0  0  0  0  0  0  0  0
    2.5007   -3.0945    0.0000 H   0  0  0  0  0  0  0  0  0  0  0  0
    4.1088   -0.3090    0.0000 H   0  0  0  0  0  0  0  0  0  0  0  0
    4.1088   -2.1660    0.0000 H   0  0  0  0  0  0  0  0  0  0  0  0
  1 14  1  0  0  0  0
  1 16  1  0  0  0  0
  2 15  1  0  0  0  0
  2 17  1  0  0  0  0
  3 16  2  0  0  0  0
  4 17  2  0  0  0  0
  5  8  1  0  0  0  0
  5  9  1  0  0  0  0
  5 13  1  0  0  0  0
  6 16  1  0  0  0  0
  6 18  1  0  0  0  0
  6 30  1  0  0  0  0
  7 17  1  0  0  0  0
  7 19  1  0  0  0  0
  7 31  1  0  0  0  0
  8 10  1  0  0  0  0
  8 32  1  0  0  0  0
  8 33  1  0  0  0  0
  9 11  1  0  0  0  0
  9 34  1  0  0  0  0
  9 35  1  0  0  0  0
 10 12  1  0  0  0  0
 10 36  1  0  0  0  0
 10 37  1  0  0  0  0
 11 12  1  0  0  0  0
 11 38  1  0  0  0  0
 11 39  1  0  0  0  0
 12 40  1  0  0  0  0
 12 41  1  0  0  0  0
 13 14  1  0  0  0  0
 13 42  1  0  0  0  0
 13 43  1  0  0  0  0
 14 15  1  0  0  0  0
 14 44  1  0  0  0  0
 15 45  1  0  0  0  0
 15 46  1  0  0  0  0
 18 20  2  0  0  0  0
 18 21  1  0  0  0  0
 19 22  2  0  0  0  0
 19 23  1  0  0  0  0
 20 24  1  0  0  0  0
 20 47  1  0  0  0  0
 21 25  2  0  0  0  0
 21 48  1  0  0  0  0
 22 27  1  0  0  0  0
 22 49  1  0  0  0  0
 23 28  2  0  0  0  0
 23 50  1  0  0  0  0
 24 26  2  0  0  0  0
 24 51  1  0  0  0  0
 25 26  1  0  0  0  0
 25 52  1  0  0  0  0
 26 53  1  0  0  0  0
 27 29  2  0  0  0  0
 27 54  1  0  0  0  0
 28 29  1  0  0  0  0
 28 55  1  0  0  0  0
 29 56  1  0  0  0  0
M  END
>  <DRUGBANK_ID>
DB11513

>  <COMMON_NAME>
Diperodon

>  <CAS_NUMBER>
101-08-6

>  <UNII>
UIN4PYP84R

>  <SYNONYMS>
Diperodón; Diperodon; Dipérodon; Diperodonum

$$$$
