181
 OpenBabel10282417072D

 26 26  0  0  1  0  0  0  0  0999 V2000
    3.5220   -2.7308    0.0000 Cl  0  0  0  0  0  0  0  0  0  0  0  0
    4.9509    2.2193    0.0000 O   0  0  0  0  0  0  0  0  0  0  0  0
    3.5220    2.2193    0.0000 O   0  0  0  0  0  0  0  0  0  0  0  0
    2.0930    0.5693    0.0000 N   0  0  0  0  0  0  0  0  0  0  0  0
    3.5220    0.5693    0.0000 C   0  0  3  0  0  0  0  0  0  0  0  0
    3.5220   -0.2558    0.0000 C   0  0  0  0  0  0  0  0  0  0  0  0
    4.2365    0.9818    0.0000 C   0  0  0  0  0  0  0  0  0  0  0  0
    2.8075    0.9818    0.0000 C   0  0  0  0  0  0  0  0  0  0  0  0
    4.2365   -0.6683    0.0000 C   0  0  0  0  0  0  0  0  0  0  0  0
    2.8075   -0.6683    0.0000 C   0  0  0  0  0  0  0  0  0  0  0  0
    4.2365    1.8068    0.0000 C   0  0  0  0  0  0  0  0  0  0  0  0
    4.2365   -1.4933    0.0000 C   0  0  0  0  0  0  0  0  0  0  0  0
    2.8075   -1.4933    0.0000 C   0  0  0  0  0  0  0  0  0  0  0  0
    3.5220   -1.9058    0.0000 C   0  0  0  0  0  0  0  0  0  0  0  0
    5.7624    1.7508    0.0000 H   0  0  0  0  0  0  0  0  0  0  0  0
    1.2097    1.0793    0.0000 H   0  0  0  0  0  0  0  0  0  0  0  0
    2.0930   -0.4507    0.0000 H   0  0  0  0  0  0  0  0  0  0  0  0
    4.4486    0.0343    0.0000 H   0  0  0  0  0  0  0  0  0  0  0  0
    5.1631    0.4468    0.0000 H   0  0  0  0  0  0  0  0  0  0  0  0
    5.1631    1.5168    0.0000 H   0  0  0  0  0  0  0  0  0  0  0  0
    2.8075    2.0518    0.0000 H   0  0  0  0  0  0  0  0  0  0  0  0
    3.7341    1.5168    0.0000 H   0  0  0  0  0  0  0  0  0  0  0  0
    5.1302   -0.1523    0.0000 H   0  0  0  0  0  0  0  0  0  0  0  0
    1.9138   -0.1523    0.0000 H   0  0  0  0  0  0  0  0  0  0  0  0
    5.1302   -2.0093    0.0000 H   0  0  0  0  0  0  0  0  0  0  0  0
    1.9138   -2.0093    0.0000 H   0  0  0  0  0  0  0  0  0  0  0  0
  1 14  1  0  0  0  0
  2 11  1  0  0  0  0
  2 15  1  0  0  0  0
  3 11  2  0  0  0  0
  4  8  1  0  0  0  0
  4 16  1  0  0  0  0
  4 17  1  0  0  0  0
  5  6  1  0  0  0  0
  5  7  1  0  0  0  0
  5  8  1  0  0  0  0
  5 18  1  0  0  0  0
  6  9  2  0  0  0  0
  6 10  1  0  0  0  0
  7 11  1  0  0  0  0
  7 19  1  0  0  0  0
  7 20  1  0  0  0  0
  8 21  1  0  0  0  0
  8 22  1  0  0  0  0
  9 12  1  0  0  0  0
  9 23  1  0  0  0  0
 10 13  2  0  0  0  0
 10 24  1  0  0  0  0
 12 14  2  0  0  0  0
 12 25  1  0  0  0  0
 13 14  1  0  0  0  0
 13 26  1  0  0  0  0
M  END
>  <DRUGBANK_ID>
DB00181

>  <SECONDARY_ACCESSION_NUMBERS>
APRD00551

>  <COMMON_NAME>
Baclofen

>  <CAS_NUMBER>
1134-47-0

>  <UNII>
H789N3FKE8

>  <SYNONYMS>
(+-)-Baclofen; 4-Amino-3-(4-chlorophenyl)butyric acid; Baclofen; Baclof√®ne; Baclofeno; Baclofenum; beta-(4-Chlorophenyl)gaba; beta-(Aminomethyl)-4-chlorobenzenepropanoic acid; beta-(Aminomethyl)-p-chlorohydrocinnamic acid; beta-(p-Chlorophenyl)-gamma-aminobutyric acid; DL-4-Amino-3-p-chlorophenylbutanoic acid; DL-Baclofen; gamma-Amino-beta-(p-chlorophenyl)butyric acid

$$$$
