7X5
 OpenBabel10282417072D

 43 46  0  0  0  0  0  0  0  0999 V2000
    6.0128    2.0720    0.0000 N   0  0  0  0  0  0  0  0  0  0  0  0
    6.0128    2.8970    0.0000 C   0  0  0  0  0  0  0  0  0  0  0  0
    5.2983    3.3095    0.0000 N   0  0  0  0  0  0  0  0  0  0  0  0
    5.2983    4.1345    0.0000 C   0  0  0  0  0  0  0  0  0  0  0  0
    6.0128    4.5470    0.0000 C   0  0  0  0  0  0  0  0  0  0  0  0
    6.7272    4.1345    0.0000 C   0  0  0  0  0  0  0  0  0  0  0  0
    7.4417    4.5470    0.0000 N   0  0  0  0  0  0  0  0  0  0  0  0
    7.4417    5.3720    0.0000 C   0  0  0  0  0  0  0  0  0  0  0  0
    6.7272    5.7845    0.0000 C   0  0  0  0  0  0  0  0  0  0  0  0
    5.9426    5.5296    0.0000 O   0  0  0  0  0  0  0  0  0  0  0  0
    5.4577    6.1970    0.0000 C   0  0  0  0  0  0  0  0  0  0  0  0
    5.9426    6.8645    0.0000 O   0  0  0  0  0  0  0  0  0  0  0  0
    6.7272    6.6095    0.0000 C   0  0  0  0  0  0  0  0  0  0  0  0
    7.4417    7.0220    0.0000 C   0  0  0  0  0  0  0  0  0  0  0  0
    8.1562    6.6095    0.0000 C   0  0  0  0  0  0  0  0  0  0  0  0
    8.1562    5.7845    0.0000 C   0  0  0  0  0  0  0  0  0  0  0  0
    8.8707    5.3720    0.0000 Cl  0  0  0  0  0  0  0  0  0  0  0  0
    6.7272    3.3095    0.0000 N   0  0  0  0  0  0  0  0  0  0  0  0
    4.5838   -1.2280    0.0000 C   0  0  0  0  0  0  0  0  0  0  0  0
    4.5838   -0.4030    0.0000 S   0  0  0  0  0  0  0  0  0  0  0  0
    3.7588   -0.4030    0.0000 O   0  0  0  0  0  0  0  0  0  0  0  0
    5.4088   -0.4030    0.0000 O   0  0  0  0  0  0  0  0  0  0  0  0
    4.5838    0.4220    0.0000 C   0  0  0  0  0  0  0  0  0  0  0  0
    3.8694    0.8345    0.0000 C   0  0  0  0  0  0  0  0  0  0  0  0
    3.8694    1.6595    0.0000 C   0  0  0  0  0  0  0  0  0  0  0  0
    4.5838    2.0720    0.0000 C   0  0  0  0  0  0  0  0  0  0  0  0
    5.2983    1.6595    0.0000 C   0  0  0  0  0  0  0  0  0  0  0  0
    5.2983    0.8345    0.0000 C   0  0  0  0  0  0  0  0  0  0  0  0
    6.8654    1.5797    0.0000 H   0  0  0  0  0  0  0  0  0  0  0  0
    4.4046    4.6505    0.0000 H   0  0  0  0  0  0  0  0  0  0  0  0
    6.0128    5.5790    0.0000 H   0  0  0  0  0  0  0  0  0  0  0  0
    8.2943    4.0547    0.0000 H   0  0  0  0  0  0  0  0  0  0  0  0
    4.3877    6.1970    0.0000 H   0  0  0  0  0  0  0  0  0  0  0  0
    4.9719    7.1504    0.0000 H   0  0  0  0  0  0  0  0  0  0  0  0
    7.4417    8.0540    0.0000 H   0  0  0  0  0  0  0  0  0  0  0  0
    9.0499    7.1255    0.0000 H   0  0  0  0  0  0  0  0  0  0  0  0
    3.6572   -1.7630    0.0000 H   0  0  0  0  0  0  0  0  0  0  0  0
    5.5104   -1.7630    0.0000 H   0  0  0  0  0  0  0  0  0  0  0  0
    4.5838   -2.2980    0.0000 H   0  0  0  0  0  0  0  0  0  0  0  0
    2.9757    0.3185    0.0000 H   0  0  0  0  0  0  0  0  0  0  0  0
    2.9757    2.1755    0.0000 H   0  0  0  0  0  0  0  0  0  0  0  0
    4.5838    3.1040    0.0000 H   0  0  0  0  0  0  0  0  0  0  0  0
    6.1920    0.3185    0.0000 H   0  0  0  0  0  0  0  0  0  0  0  0
  1  2  1  0  0  0  0
  1 27  1  0  0  0  0
  1 29  1  0  0  0  0
  2  3  1  0  0  0  0
  2 18  2  0  0  0  0
  3  4  2  0  0  0  0
  4  5  1  0  0  0  0
  4 30  1  0  0  0  0
  5  6  2  0  0  0  0
  5 31  1  0  0  0  0
  6  7  1  0  0  0  0
  6 18  1  0  0  0  0
  7  8  1  0  0  0  0
  7 32  1  0  0  0  0
  8  9  1  0  0  0  0
  8 16  2  0  0  0  0
  9 10  1  0  0  0  0
  9 13  2  0  0  0  0
 10 11  1  0  0  0  0
 11 12  1  0  0  0  0
 11 33  1  0  0  0  0
 11 34  1  0  0  0  0
 12 13  1  0  0  0  0
 13 14  1  0  0  0  0
 14 15  2  0  0  0  0
 14 35  1  0  0  0  0
 15 16  1  0  0  0  0
 15 36  1  0  0  0  0
 16 17  1  0  0  0  0
 19 20  1  0  0  0  0
 19 37  1  0  0  0  0
 19 38  1  0  0  0  0
 19 39  1  0  0  0  0
 20 21  2  0  0  0  0
 20 22  2  0  0  0  0
 20 23  1  0  0  0  0
 23 24  1  0  0  0  0
 23 28  2  0  0  0  0
 24 25  2  0  0  0  0
 24 40  1  0  0  0  0
 25 26  1  0  0  0  0
 25 41  1  0  0  0  0
 26 27  2  0  0  0  0
 26 42  1  0  0  0  0
 27 28  1  0  0  0  0
 28 43  1  0  0  0  0
M  END
>  <DRUGBANK_ID>
DB07253

>  <COMMON_NAME>
N'-(5-chloro-1,3-benzodioxol-4-yl)-N-(3-methylsulfonylphenyl)pyrimidine-2,4-diamine

$$$$
