
 OpenBabel10282417072D

 54 57  0  0  1  0  0  0  0  0999 V2000
    1.6500    1.3710    0.0000 F   0  0  0  0  0  0  0  0  0  0  0  0
   13.1905    1.3710    0.0000 F   0  0  0  0  0  0  0  0  0  0  0  0
    4.5623   -0.2989    0.0000 O   0  0  0  0  0  0  0  0  0  0  0  0
   10.2781   -0.2989    0.0000 O   0  0  0  0  0  0  0  0  0  0  0  0
    5.9913   -1.1239    0.0000 O   0  0  0  0  0  0  0  0  0  0  0  0
    8.8492   -1.1239    0.0000 O   0  0  0  0  0  0  0  0  0  0  0  0
    7.4202   -0.2989    0.0000 N   0  0  0  0  0  0  0  0  0  0  0  0
    5.2769    0.1136    0.0000 C   0  0  3  0  0  0  0  0  0  0  0  0
    9.5636    0.1136    0.0000 C   0  0  3  0  0  0  0  0  0  0  0  0
    5.9913   -0.2989    0.0000 C   0  0  3  0  0  0  0  0  0  0  0  0
    8.8492   -0.2989    0.0000 C   0  0  3  0  0  0  0  0  0  0  0  0
    5.2769    0.9386    0.0000 C   0  0  0  0  0  0  0  0  0  0  0  0
    9.5636    0.9386    0.0000 C   0  0  0  0  0  0  0  0  0  0  0  0
    6.7058    0.1136    0.0000 C   0  0  0  0  0  0  0  0  0  0  0  0
    8.1347    0.1136    0.0000 C   0  0  0  0  0  0  0  0  0  0  0  0
    4.5623    1.3511    0.0000 C   0  0  0  0  0  0  0  0  0  0  0  0
   10.2781    1.3511    0.0000 C   0  0  0  0  0  0  0  0  0  0  0  0
    3.8479    0.9386    0.0000 C   0  0  0  0  0  0  0  0  0  0  0  0
   10.9926    0.9386    0.0000 C   0  0  0  0  0  0  0  0  0  0  0  0
    3.8479    0.1136    0.0000 C   0  0  0  0  0  0  0  0  0  0  0  0
   10.9926    0.1136    0.0000 C   0  0  0  0  0  0  0  0  0  0  0  0
    3.1104    1.3796    0.0000 C   0  0  0  0  0  0  0  0  0  0  0  0
   11.7301    1.3796    0.0000 C   0  0  0  0  0  0  0  0  0  0  0  0
    3.1104   -0.3275    0.0000 C   0  0  0  0  0  0  0  0  0  0  0  0
   11.7301   -0.3275    0.0000 C   0  0  0  0  0  0  0  0  0  0  0  0
    2.3629    0.9558    0.0000 C   0  0  0  0  0  0  0  0  0  0  0  0
   12.4776    0.9558    0.0000 C   0  0  0  0  0  0  0  0  0  0  0  0
    2.3629    0.0964    0.0000 C   0  0  0  0  0  0  0  0  0  0  0  0
   12.4776    0.0964    0.0000 C   0  0  0  0  0  0  0  0  0  0  0  0
    5.1513   -1.6089    0.0000 H   0  0  0  0  0  0  0  0  0  0  0  0
    8.0092   -1.6089    0.0000 H   0  0  0  0  0  0  0  0  0  0  0  0
    7.4202   -1.3189    0.0000 H   0  0  0  0  0  0  0  0  0  0  0  0
    5.2768   -0.9564    0.0000 H   0  0  0  0  0  0  0  0  0  0  0  0
    9.5636   -0.9564    0.0000 H   0  0  0  0  0  0  0  0  0  0  0  0
    5.0646   -0.8339    0.0000 H   0  0  0  0  0  0  0  0  0  0  0  0
    9.7759   -0.8339    0.0000 H   0  0  0  0  0  0  0  0  0  0  0  0
    6.2035    1.4736    0.0000 H   0  0  0  0  0  0  0  0  0  0  0  0
    5.2768    2.0086    0.0000 H   0  0  0  0  0  0  0  0  0  0  0  0
    8.6370    1.4736    0.0000 H   0  0  0  0  0  0  0  0  0  0  0  0
    9.5636    2.0086    0.0000 H   0  0  0  0  0  0  0  0  0  0  0  0
    6.7058    1.1836    0.0000 H   0  0  0  0  0  0  0  0  0  0  0  0
    5.7792    0.6486    0.0000 H   0  0  0  0  0  0  0  0  0  0  0  0
    8.1347    1.1836    0.0000 H   0  0  0  0  0  0  0  0  0  0  0  0
    9.0613    0.6486    0.0000 H   0  0  0  0  0  0  0  0  0  0  0  0
    4.5622    2.4211    0.0000 H   0  0  0  0  0  0  0  0  0  0  0  0
    3.6356    1.8861    0.0000 H   0  0  0  0  0  0  0  0  0  0  0  0
   10.2781    2.4211    0.0000 H   0  0  0  0  0  0  0  0  0  0  0  0
   11.2047    1.8861    0.0000 H   0  0  0  0  0  0  0  0  0  0  0  0
    3.1223    2.4115    0.0000 H   0  0  0  0  0  0  0  0  0  0  0  0
   11.7182    2.4115    0.0000 H   0  0  0  0  0  0  0  0  0  0  0  0
    3.1223   -1.3594    0.0000 H   0  0  0  0  0  0  0  0  0  0  0  0
   11.7182   -1.3594    0.0000 H   0  0  0  0  0  0  0  0  0  0  0  0
    1.4712   -0.4231    0.0000 H   0  0  0  0  0  0  0  0  0  0  0  0
   13.3693   -0.4231    0.0000 H   0  0  0  0  0  0  0  0  0  0  0  0
  1 26  1  0  0  0  0
  2 27  1  0  0  0  0
  3  8  1  0  0  0  0
  3 20  1  0  0  0  0
  4  9  1  0  0  0  0
  4 21  1  0  0  0  0
  5 10  1  0  0  0  0
  5 30  1  0  0  0  0
  6 11  1  0  0  0  0
  6 31  1  0  0  0  0
  7 14  1  0  0  0  0
  7 15  1  0  0  0  0
  7 32  1  0  0  0  0
  8 10  1  0  0  0  0
  8 12  1  0  0  0  0
  8 33  1  0  0  0  0
  9 11  1  0  0  0  0
  9 13  1  0  0  0  0
  9 34  1  0  0  0  0
 10 14  1  0  0  0  0
 10 35  1  0  0  0  0
 11 15  1  0  0  0  0
 11 36  1  0  0  0  0
 12 16  1  0  0  0  0
 12 37  1  0  0  0  0
 12 38  1  0  0  0  0
 13 17  1  0  0  0  0
 13 39  1  0  0  0  0
 13 40  1  0  0  0  0
 14 41  1  0  0  0  0
 14 42  1  0  0  0  0
 15 43  1  0  0  0  0
 15 44  1  0  0  0  0
 16 18  1  0  0  0  0
 16 45  1  0  0  0  0
 16 46  1  0  0  0  0
 17 19  1  0  0  0  0
 17 47  1  0  0  0  0
 17 48  1  0  0  0  0
 18 20  2  0  0  0  0
 18 22  1  0  0  0  0
 19 21  2  0  0  0  0
 19 23  1  0  0  0  0
 20 24  1  0  0  0  0
 21 25  1  0  0  0  0
 22 26  2  0  0  0  0
 22 49  1  0  0  0  0
 23 27  2  0  0  0  0
 23 50  1  0  0  0  0
 24 28  2  0  0  0  0
 24 51  1  0  0  0  0
 25 29  2  0  0  0  0
 25 52  1  0  0  0  0
 26 28  1  0  0  0  0
 27 29  1  0  0  0  0
 28 53  1  0  0  0  0
 29 54  1  0  0  0  0
M  END
>  <DRUGBANK_ID>
DB04861

>  <COMMON_NAME>
Nebivolol

>  <CAS_NUMBER>
118457-14-0

>  <UNII>
030Y90569U

>  <SYNONYMS>
Narbivolol; Nebivolol; Nebivololum

$$$$
