1071
 OpenBabel10282417072D

 45 49  0  0  1  0  0  0  0  0999 V2000
    3.6958   -2.9819    0.0000 S   0  0  0  0  0  0  0  0  0  0  0  0
    5.7480    1.0364    0.0000 N   0  0  3  0  0  0  0  0  0  0  0  0
    3.6958   -1.3978    0.0000 N   0  0  0  0  0  0  0  0  0  0  0  0
    4.9829    1.2414    0.0000 C   0  0  3  0  0  0  0  0  0  0  0  0
    4.3819   -0.2097    0.0000 C   0  0  3  0  0  0  0  0  0  0  0  0
    5.1469   -0.4147    0.0000 C   0  0  0  0  0  0  0  0  0  0  0  0
    4.1908    2.6133    0.0000 C   0  0  0  0  0  0  0  0  0  0  0  0
    6.4201    2.0159    0.0000 C   0  0  0  0  0  0  0  0  0  0  0  0
    4.8767    3.0093    0.0000 C   0  0  0  0  0  0  0  0  0  0  0  0
    6.8162    1.3300    0.0000 C   0  0  0  0  0  0  0  0  0  0  0  0
    3.6958   -0.6057    0.0000 C   0  0  0  0  0  0  0  0  0  0  0  0
    4.3819   -1.7938    0.0000 C   0  0  0  0  0  0  0  0  0  0  0  0
    3.0099   -1.7938    0.0000 C   0  0  0  0  0  0  0  0  0  0  0  0
    4.3819   -2.5859    0.0000 C   0  0  0  0  0  0  0  0  0  0  0  0
    3.0099   -2.5859    0.0000 C   0  0  0  0  0  0  0  0  0  0  0  0
    5.0899   -1.3703    0.0000 C   0  0  0  0  0  0  0  0  0  0  0  0
    2.3019   -1.3703    0.0000 C   0  0  0  0  0  0  0  0  0  0  0  0
    5.0899   -3.0093    0.0000 C   0  0  0  0  0  0  0  0  0  0  0  0
    2.3019   -3.0093    0.0000 C   0  0  0  0  0  0  0  0  0  0  0  0
    5.8076   -1.7773    0.0000 C   0  0  0  0  0  0  0  0  0  0  0  0
    1.5842   -1.7773    0.0000 C   0  0  0  0  0  0  0  0  0  0  0  0
    5.8076   -2.6024    0.0000 C   0  0  0  0  0  0  0  0  0  0  0  0
    1.5842   -2.6024    0.0000 C   0  0  0  0  0  0  0  0  0  0  0  0
    3.9152    1.1714    0.0000 H   0  0  0  0  0  0  0  0  0  0  0  0
    5.3416    0.2636    0.0000 H   0  0  0  0  0  0  0  0  0  0  0  0
    5.6201   -1.3744    0.0000 H   0  0  0  0  0  0  0  0  0  0  0  0
    4.4681   -1.2418    0.0000 H   0  0  0  0  0  0  0  0  0  0  0  0
    3.1573    2.8902    0.0000 H   0  0  0  0  0  0  0  0  0  0  0  0
    4.0511    3.6741    0.0000 H   0  0  0  0  0  0  0  0  0  0  0  0
    6.7121    3.0453    0.0000 H   0  0  0  0  0  0  0  0  0  0  0  0
    7.4819    2.1479    0.0000 H   0  0  0  0  0  0  0  0  0  0  0  0
    5.2089    4.0264    0.0000 H   0  0  0  0  0  0  0  0  0  0  0  0
    4.0457    3.6833    0.0000 H   0  0  0  0  0  0  0  0  0  0  0  0
    7.8061    0.9238    0.0000 H   0  0  0  0  0  0  0  0  0  0  0  0
    7.5203    2.1357    0.0000 H   0  0  0  0  0  0  0  0  0  0  0  0
    2.7692   -0.0706    0.0000 H   0  0  0  0  0  0  0  0  0  0  0  0
    3.6959    0.4643    0.0000 H   0  0  0  0  0  0  0  0  0  0  0  0
    5.0779   -0.3384    0.0000 H   0  0  0  0  0  0  0  0  0  0  0  0
    2.3139   -0.3384    0.0000 H   0  0  0  0  0  0  0  0  0  0  0  0
    5.0779   -4.0412    0.0000 H   0  0  0  0  0  0  0  0  0  0  0  0
    2.3139   -4.0412    0.0000 H   0  0  0  0  0  0  0  0  0  0  0  0
    6.6993   -1.2578    0.0000 H   0  0  0  0  0  0  0  0  0  0  0  0
    0.6925   -1.2578    0.0000 H   0  0  0  0  0  0  0  0  0  0  0  0
    6.6993   -3.1219    0.0000 H   0  0  0  0  0  0  0  0  0  0  0  0
    0.6925   -3.1219    0.0000 H   0  0  0  0  0  0  0  0  0  0  0  0
  1 14  1  0  0  0  0
  1 15  1  0  0  0  0
  2  6  1  0  0  0  0
  2  9  1  0  0  0  0
  2 10  1  0  0  0  0
  3 11  1  0  0  0  0
  3 12  1  0  0  0  0
  3 13  1  0  0  0  0
  4  5  1  0  0  0  0
  4  7  1  0  0  0  0
  4  8  1  0  0  0  0
  4 24  1  0  0  0  0
  5  6  1  0  0  0  0
  5 11  1  0  0  0  0
  5 25  1  0  0  0  0
  6 26  1  0  0  0  0
  6 27  1  0  0  0  0
  7  9  1  0  0  0  0
  7 28  1  0  0  0  0
  7 29  1  0  0  0  0
  8 10  1  0  0  0  0
  8 30  1  0  0  0  0
  8 31  1  0  0  0  0
  9 32  1  0  0  0  0
  9 33  1  0  0  0  0
 10 34  1  0  0  0  0
 10 35  1  0  0  0  0
 11 36  1  0  0  0  0
 11 37  1  0  0  0  0
 12 14  1  0  0  0  0
 12 16  2  0  0  0  0
 13 15  1  0  0  0  0
 13 17  2  0  0  0  0
 14 18  2  0  0  0  0
 15 19  2  0  0  0  0
 16 20  1  0  0  0  0
 16 38  1  0  0  0  0
 17 21  1  0  0  0  0
 17 39  1  0  0  0  0
 18 22  1  0  0  0  0
 18 40  1  0  0  0  0
 19 23  1  0  0  0  0
 19 41  1  0  0  0  0
 20 22  2  0  0  0  0
 20 42  1  0  0  0  0
 21 23  2  0  0  0  0
 21 43  1  0  0  0  0
 22 44  1  0  0  0  0
 23 45  1  0  0  0  0
M  END
>  <DRUGBANK_ID>
DB01071

>  <SECONDARY_ACCESSION_NUMBERS>
APRD00386

>  <COMMON_NAME>
Mequitazine

>  <CAS_NUMBER>
29216-28-2

>  <UNII>
Y463242LY2

>  <SYNONYMS>
Mequitazina; Mequitazine; Mequitazinum

$$$$
