
 OpenBabel10282417072D

 91 93  0  0  0  0  0  0  0  0999 V2000
   -4.7181   -1.1676    0.0000 S   0  0  0  0  0  0  0  0  0  0  0  0
   -4.0037   -0.7551    0.0000 O   0  0  0  0  0  0  0  0  0  0  0  0
   -0.0160    0.0379    0.0000 O   0  0  0  0  0  0  0  0  0  0  0  0
    0.6393   -0.8657    0.0000 O   0  0  0  0  0  0  0  0  0  0  0  0
   -5.4327   -1.5801    0.0000 O   0  0  0  0  0  0  0  0  0  0  0  0
   -4.3056   -1.8821    0.0000 O   0  0  0  0  0  0  0  0  0  0  0  0
   -5.1307   -0.4532    0.0000 O   0  0  0  0  0  0  0  0  0  0  0  0
   -1.3337    2.2897    0.0000 O   0  0  0  0  0  0  0  0  0  0  0  0
    0.8486    2.3281    0.0000 O   0  0  0  0  0  0  0  0  0  0  0  0
    2.3506    5.5956    0.0000 O   0  0  0  0  0  0  0  0  0  0  0  0
   -1.0796   -0.9163    0.0000 N   0  0  0  0  0  0  0  0  0  0  0  0
    0.6393   -2.2946    0.0000 N   0  0  0  0  0  0  0  0  0  0  0  0
   -0.3794    1.2261    0.0000 N   0  0  0  0  0  0  0  0  0  0  0  0
    3.9394   -3.7236    0.0000 N   0  0  0  0  0  0  0  0  0  0  0  0
    5.1769   -4.4381    0.0000 N   0  0  0  0  0  0  0  0  0  0  0  0
    3.9394   -5.1526    0.0000 N   0  0  0  0  0  0  0  0  0  0  0  0
   -1.8602   -1.9927    0.0000 C   0  0  2  0  0  0  0  0  0  0  0  0
   -1.8602   -1.1676    0.0000 C   0  0  2  0  0  0  0  0  0  0  0  0
   -1.0796   -2.2441    0.0000 C   0  0  0  0  0  0  0  0  0  0  0  0
   -0.5981   -1.5801    0.0000 C   0  0  1  0  0  0  0  0  0  0  0  0
   -2.5747   -0.7551    0.0000 C   0  0  0  0  0  0  0  0  0  0  0  0
   -2.5747   -2.4052    0.0000 C   0  0  0  0  0  0  0  0  0  0  0  0
   -3.2892   -1.1676    0.0000 C   0  0  1  0  0  0  0  0  0  0  0  0
   -3.2892   -1.9927    0.0000 C   0  0  0  0  0  0  0  0  0  0  0  0
   -0.8233   -0.1321    0.0000 C   0  0  0  0  0  0  0  0  0  0  0  0
    0.2268   -1.5801    0.0000 C   0  0  0  0  0  0  0  0  0  0  0  0
   -0.9934    0.6751    0.0000 C   0  0  1  0  0  0  0  0  0  0  0  0
   -1.7776    0.9314    0.0000 C   0  0  1  0  0  0  0  0  0  0  0  0
   -1.9477    1.7387    0.0000 C   0  0  0  0  0  0  0  0  0  0  0  0
    1.4644   -2.2946    0.0000 C   0  0  0  0  0  0  0  0  0  0  0  0
   -2.3917    0.3805    0.0000 C   0  0  0  0  0  0  0  0  0  0  0  0
   -0.5495    2.0334    0.0000 C   0  0  0  0  0  0  0  0  0  0  0  0
    1.8769   -3.0092    0.0000 C   0  0  0  0  0  0  0  0  0  0  0  0
   -2.7319    1.9951    0.0000 C   0  0  0  0  0  0  0  0  0  0  0  0
    0.0645    2.5844    0.0000 C   0  0  1  0  0  0  0  0  0  0  0  0
    2.7019   -3.0092    0.0000 C   0  0  0  0  0  0  0  0  0  0  0  0
   -0.1056    3.3916    0.0000 C   0  0  0  0  0  0  0  0  0  0  0  0
    3.1144   -3.7236    0.0000 C   0  0  0  0  0  0  0  0  0  0  0  0
    0.5084    3.9427    0.0000 C   0  0  0  0  0  0  0  0  0  0  0  0
    1.2926    3.6863    0.0000 C   0  0  0  0  0  0  0  0  0  0  0  0
    0.3383    4.7500    0.0000 C   0  0  0  0  0  0  0  0  0  0  0  0
    4.3519   -4.4381    0.0000 C   0  0  0  0  0  0  0  0  0  0  0  0
    1.9066    4.2374    0.0000 C   0  0  0  0  0  0  0  0  0  0  0  0
    0.9524    5.3009    0.0000 C   0  0  0  0  0  0  0  0  0  0  0  0
    1.7365    5.0446    0.0000 C   0  0  0  0  0  0  0  0  0  0  0  0
   -1.7904   -2.6490    0.0000 H   0  0  0  0  0  0  0  0  0  0  0  0
   -1.7904   -0.5113    0.0000 H   0  0  0  0  0  0  0  0  0  0  0  0
    0.3836   -2.7376    0.0000 H   0  0  0  0  0  0  0  0  0  0  0  0
    0.1068    1.0672    0.0000 H   0  0  0  0  0  0  0  0  0  0  0  0
    5.4327   -3.9951    0.0000 H   0  0  0  0  0  0  0  0  0  0  0  0
    5.4327   -4.8811    0.0000 H   0  0  0  0  0  0  0  0  0  0  0  0
    3.4279   -5.1526    0.0000 H   0  0  0  0  0  0  0  0  0  0  0  0
    4.1952   -5.5956    0.0000 H   0  0  0  0  0  0  0  0  0  0  0  0
   -6.2727   -1.0950    0.0000 H   0  0  0  0  0  0  0  0  0  0  0  0
    1.0486    1.3789    0.0000 H   0  0  0  0  0  0  0  0  0  0  0  0
    3.2412    5.3045    0.0000 H   0  0  0  0  0  0  0  0  0  0  0  0
   -0.7472   -3.2612    0.0000 H   0  0  0  0  0  0  0  0  0  0  0  0
   -0.0226   -2.4101    0.0000 H   0  0  0  0  0  0  0  0  0  0  0  0
   -0.1120   -0.6269    0.0000 H   0  0  0  0  0  0  0  0  0  0  0  0
   -2.5747    0.3149    0.0000 H   0  0  0  0  0  0  0  0  0  0  0  0
   -3.5013   -0.2201    0.0000 H   0  0  0  0  0  0  0  0  0  0  0  0
   -2.5747   -3.4752    0.0000 H   0  0  0  0  0  0  0  0  0  0  0  0
   -3.5013   -2.9402    0.0000 H   0  0  0  0  0  0  0  0  0  0  0  0
   -3.2892   -0.0976    0.0000 H   0  0  0  0  0  0  0  0  0  0  0  0
   -4.2158   -2.5277    0.0000 H   0  0  0  0  0  0  0  0  0  0  0  0
   -4.2158   -1.4577    0.0000 H   0  0  0  0  0  0  0  0  0  0  0  0
    0.0237    0.3427    0.0000 H   0  0  0  0  0  0  0  0  0  0  0  0
   -1.5570   -0.1156    0.0000 H   0  0  0  0  0  0  0  0  0  0  0  0
   -1.1512    2.4532    0.0000 H   0  0  0  0  0  0  0  0  0  0  0  0
   -2.1683    2.7857    0.0000 H   0  0  0  0  0  0  0  0  0  0  0  0
    1.9994   -1.3680    0.0000 H   0  0  0  0  0  0  0  0  0  0  0  0
    2.5344   -2.2947    0.0000 H   0  0  0  0  0  0  0  0  0  0  0  0
   -3.4087    0.7130    0.0000 H   0  0  0  0  0  0  0  0  0  0  0  0
   -2.1712   -0.6665    0.0000 H   0  0  0  0  0  0  0  0  0  0  0  0
   -3.1882   -0.3340    0.0000 H   0  0  0  0  0  0  0  0  0  0  0  0
    1.3419   -3.9358    0.0000 H   0  0  0  0  0  0  0  0  0  0  0  0
    2.4119   -3.9359    0.0000 H   0  0  0  0  0  0  0  0  0  0  0  0
   -2.9524    3.0421    0.0000 H   0  0  0  0  0  0  0  0  0  0  0  0
   -3.5284    1.2806    0.0000 H   0  0  0  0  0  0  0  0  0  0  0  0
   -3.7489    2.3276    0.0000 H   0  0  0  0  0  0  0  0  0  0  0  0
    0.2852    1.5374    0.0000 H   0  0  0  0  0  0  0  0  0  0  0  0
    3.2369   -2.0825    0.0000 H   0  0  0  0  0  0  0  0  0  0  0  0
    3.7719   -3.0092    0.0000 H   0  0  0  0  0  0  0  0  0  0  0  0
   -1.1227    3.7239    0.0000 H   0  0  0  0  0  0  0  0  0  0  0  0
   -0.3264    4.4386    0.0000 H   0  0  0  0  0  0  0  0  0  0  0  0
    2.5794   -4.6503    0.0000 H   0  0  0  0  0  0  0  0  0  0  0  0
    2.0444   -3.7236    0.0000 H   0  0  0  0  0  0  0  0  0  0  0  0
    1.5054    2.6765    0.0000 H   0  0  0  0  0  0  0  0  0  0  0  0
   -0.6426    5.0707    0.0000 H   0  0  0  0  0  0  0  0  0  0  0  0
    2.8876    3.9169    0.0000 H   0  0  0  0  0  0  0  0  0  0  0  0
    0.7397    6.3107    0.0000 H   0  0  0  0  0  0  0  0  0  0  0  0
  1  2  1  0  0  0  0
  1  5  1  0  0  0  0
  1  6  2  0  0  0  0
  1  7  2  0  0  0  0
  3 25  2  0  0  0  0
  4 26  2  0  0  0  0
  5 54  1  0  0  0  0
  8 32  2  0  0  0  0
  9 55  1  0  0  0  0
 10 45  1  0  0  0  0
 10 56  1  0  0  0  0
 11 18  1  0  0  0  0
 11 20  1  0  0  0  0
 11 25  1  0  0  0  0
 12 26  1  0  0  0  0
 12 30  1  0  0  0  0
 12 48  1  0  0  0  0
 13 32  1  0  0  0  0
 13 49  1  0  0  0  0
 14 38  1  0  0  0  0
 14 42  2  0  0  0  0
 15 42  1  0  0  0  0
 15 50  1  0  0  0  0
 15 51  1  0  0  0  0
 16 42  1  0  0  0  0
 16 52  1  0  0  0  0
 16 53  1  0  0  0  0
 17 18  1  0  0  0  0
 17 19  1  0  0  0  0
 17 22  1  0  0  0  0
 17 46  1  1  0  0  0
 18 21  1  0  0  0  0
 18 47  1  1  0  0  0
 19 20  1  0  0  0  0
 19 57  1  0  0  0  0
 19 58  1  0  0  0  0
 20 26  1  0  0  0  0
 20 59  1  1  0  0  0
 21 23  1  0  0  0  0
 21 60  1  0  0  0  0
 21 61  1  0  0  0  0
 22 24  1  0  0  0  0
 22 62  1  0  0  0  0
 22 63  1  0  0  0  0
 23  2  1  0  0  0  0
 23 24  1  0  0  0  0
 23 64  1  6  0  0  0
 24 65  1  0  0  0  0
 24 66  1  0  0  0  0
 25 27  1  0  0  0  0
 27 13  1  0  0  0  0
 27 28  1  0  0  0  0
 27 67  1  6  0  0  0
 28 29  1  0  0  0  0
 28 31  1  0  0  0  0
 28 68  1  1  0  0  0
 29 34  1  0  0  0  0
 29 69  1  0  0  0  0
 29 70  1  0  0  0  0
 30 33  1  0  0  0  0
 30 71  1  0  0  0  0
 30 72  1  0  0  0  0
 31 73  1  0  0  0  0
 31 74  1  0  0  0  0
 31 75  1  0  0  0  0
 32 35  1  0  0  0  0
 33 36  1  0  0  0  0
 33 76  1  0  0  0  0
 33 77  1  0  0  0  0
 34 78  1  0  0  0  0
 34 79  1  0  0  0  0
 34 80  1  0  0  0  0
 35  9  1  0  0  0  0
 35 37  1  0  0  0  0
 35 81  1  6  0  0  0
 36 38  1  0  0  0  0
 36 82  1  0  0  0  0
 36 83  1  0  0  0  0
 37 39  1  0  0  0  0
 37 84  1  0  0  0  0
 37 85  1  0  0  0  0
 38 86  1  0  0  0  0
 38 87  1  0  0  0  0
 39 40  2  0  0  0  0
 39 41  1  0  0  0  0
 40 43  1  0  0  0  0
 40 88  1  0  0  0  0
 41 44  2  0  0  0  0
 41 89  1  0  0  0  0
 43 45  2  0  0  0  0
 43 90  1  0  0  0  0
 44 45  1  0  0  0  0
 44 91  1  0  0  0  0
M  END
>  <DRUGBANK_ID>
DB04391

>  <SECONDARY_ACCESSION_NUMBERS>
EXPT00444

>  <COMMON_NAME>
Aeruginosin 98-B

$$$$
