1406
 OpenBabel10282417072D

 52 56  0  0  1  0  0  0  0  0999 V2000
    6.9568   -1.5062    0.0000 O   0  0  0  0  0  0  0  0  0  0  0  0
    2.0778    1.8006    0.0000 O   0  0  0  0  0  0  0  0  0  0  0  0
    1.5935    1.1328    0.0000 N   0  0  0  0  0  0  0  0  0  0  0  0
    6.4022    0.3306    0.0000 C   0  0  2  0  0  0  0  0  0  0  0  0
    6.4086   -0.4993    0.0000 C   0  0  2  0  0  0  0  0  0  0  0  0
    5.6772    0.7344    0.0000 C   0  0  1  0  0  0  0  0  0  0  0  0
    4.9872    0.3361    0.0000 C   0  0  1  0  0  0  0  0  0  0  0  0
    4.2973    0.7344    0.0000 C   0  0  2  0  0  0  0  0  0  0  0  0
    5.6899   -0.9142    0.0000 C   0  0  0  0  0  0  0  0  0  0  0  0
    7.1958   -0.7462    0.0000 C   0  0  2  0  0  0  0  0  0  0  0  0
    4.9745   -0.4937    0.0000 C   0  0  0  0  0  0  0  0  0  0  0  0
    7.1855    0.5895    0.0000 C   0  0  0  0  0  0  0  0  0  0  0  0
    5.6772    1.5312    0.0000 C   0  0  0  0  0  0  0  0  0  0  0  0
    7.6751   -0.0746    0.0000 C   0  0  0  0  0  0  0  0  0  0  0  0
    4.2973    1.5312    0.0000 C   0  0  0  0  0  0  0  0  0  0  0  0
    6.4148   -1.2960    0.0000 C   0  0  0  0  0  0  0  0  0  0  0  0
    4.9872    1.9296    0.0000 C   0  0  0  0  0  0  0  0  0  0  0  0
    3.5850    0.3084    0.0000 C   0  0  0  0  0  0  0  0  0  0  0  0
    4.2973   -0.0623    0.0000 C   0  0  0  0  0  0  0  0  0  0  0  0
    7.8448   -1.2083    0.0000 C   0  0  0  0  0  0  0  0  0  0  0  0
    3.5850    1.9571    0.0000 C   0  0  0  0  0  0  0  0  0  0  0  0
    2.8630    0.7178    0.0000 C   0  0  0  0  0  0  0  0  0  0  0  0
    2.8630    1.5477    0.0000 C   0  0  0  0  0  0  0  0  0  0  0  0
    2.0778    0.4649    0.0000 C   0  0  0  0  0  0  0  0  0  0  0  0
    8.4938   -1.6706    0.0000 C   0  0  0  0  0  0  0  0  0  0  0  0
    6.4623    0.9651    0.0000 H   0  0  0  0  0  0  0  0  0  0  0  0
    6.2267    1.0574    0.0000 H   0  0  0  0  0  0  0  0  0  0  0  0
    4.4329    0.0216    0.0000 H   0  0  0  0  0  0  0  0  0  0  0  0
    6.0100   -1.7169    0.0000 H   0  0  0  0  0  0  0  0  0  0  0  0
    5.6857   -1.9842    0.0000 H   0  0  0  0  0  0  0  0  0  0  0  0
    4.7601   -1.4438    0.0000 H   0  0  0  0  0  0  0  0  0  0  0  0
    4.0417   -1.0180    0.0000 H   0  0  0  0  0  0  0  0  0  0  0  0
    4.9642   -1.5636    0.0000 H   0  0  0  0  0  0  0  0  0  0  0  0
    7.5100    1.6091    0.0000 H   0  0  0  0  0  0  0  0  0  0  0  0
    8.2412    0.7637    0.0000 H   0  0  0  0  0  0  0  0  0  0  0  0
    6.6039    2.0662    0.0000 H   0  0  0  0  0  0  0  0  0  0  0  0
    5.6772    2.6012    0.0000 H   0  0  0  0  0  0  0  0  0  0  0  0
    8.7451   -0.0663    0.0000 H   0  0  0  0  0  0  0  0  0  0  0  0
    8.1539    0.8823    0.0000 H   0  0  0  0  0  0  0  0  0  0  0  0
    5.4923   -1.8382    0.0000 H   0  0  0  0  0  0  0  0  0  0  0  0
    7.3456   -1.8238    0.0000 H   0  0  0  0  0  0  0  0  0  0  0  0
    6.4231   -2.3660    0.0000 H   0  0  0  0  0  0  0  0  0  0  0  0
    4.9872    2.9996    0.0000 H   0  0  0  0  0  0  0  0  0  0  0  0
    4.0605    2.4645    0.0000 H   0  0  0  0  0  0  0  0  0  0  0  0
    3.5974   -0.7615    0.0000 H   0  0  0  0  0  0  0  0  0  0  0  0
    2.6636   -0.2355    0.0000 H   0  0  0  0  0  0  0  0  0  0  0  0
    3.3707   -0.5973    0.0000 H   0  0  0  0  0  0  0  0  0  0  0  0
    5.2239   -0.5973    0.0000 H   0  0  0  0  0  0  0  0  0  0  0  0
    4.2973   -1.1323    0.0000 H   0  0  0  0  0  0  0  0  0  0  0  0
    3.5969    2.9890    0.0000 H   0  0  0  0  0  0  0  0  0  0  0  0
    1.7572   -0.5160    0.0000 H   0  0  0  0  0  0  0  0  0  0  0  0
    9.3034   -2.2473    0.0000 H   0  0  0  0  0  0  0  0  0  0  0  0
  1 29  1  0  0  0  0
  2  3  1  0  0  0  0
  2 23  1  0  0  0  0
  3 24  2  0  0  0  0
  4  5  1  0  0  0  0
  4  6  1  0  0  0  0
  4 12  1  0  0  0  0
  4 26  1  1  0  0  0
  5  9  1  0  0  0  0
  5 10  1  0  0  0  0
  5 16  1  6  0  0  0
  6  7  1  0  0  0  0
  6 13  1  0  0  0  0
  6 27  1  6  0  0  0
  7  8  1  0  0  0  0
  7 11  1  0  0  0  0
  7 28  1  1  0  0  0
  8 15  1  0  0  0  0
  8 18  1  0  0  0  0
  8 19  1  6  0  0  0
  9 11  1  0  0  0  0
  9 30  1  0  0  0  0
  9 31  1  0  0  0  0
 10  1  1  0  0  0  0
 10 14  1  0  0  0  0
 10 20  1  1  0  0  0
 11 32  1  0  0  0  0
 11 33  1  0  0  0  0
 12 14  1  0  0  0  0
 12 34  1  0  0  0  0
 12 35  1  0  0  0  0
 13 17  1  0  0  0  0
 13 36  1  0  0  0  0
 13 37  1  0  0  0  0
 14 38  1  0  0  0  0
 14 39  1  0  0  0  0
 15 17  1  0  0  0  0
 15 21  2  0  0  0  0
 16 40  1  0  0  0  0
 16 41  1  0  0  0  0
 16 42  1  0  0  0  0
 17 43  1  0  0  0  0
 17 44  1  0  0  0  0
 18 22  1  0  0  0  0
 18 45  1  0  0  0  0
 18 46  1  0  0  0  0
 19 47  1  0  0  0  0
 19 48  1  0  0  0  0
 19 49  1  0  0  0  0
 20 25  3  0  0  0  0
 21 23  1  0  0  0  0
 21 50  1  0  0  0  0
 22 23  2  0  0  0  0
 22 24  1  0  0  0  0
 24 51  1  0  0  0  0
 25 52  1  0  0  0  0
M  END
>  <DRUGBANK_ID>
DB01406

>  <COMMON_NAME>
Danazol

>  <CAS_NUMBER>
17230-88-5

>  <UNII>
N29QWW3BUO

>  <SYNONYMS>
Danazol; Danazolum

$$$$
