
 OpenBabel10282417072D

 62 63  0  0  0  0  0  0  0  0999 V2000
    2.8578    2.4750    0.0000 C   0  0  0  0  0  0  0  0  0  0  0  0
    2.1434    2.0625    0.0000 C   0  0  0  0  0  0  0  0  0  0  0  0
    3.5723    2.0625    0.0000 C   0  0  0  0  0  0  0  0  0  0  0  0
    1.4289    2.4750    0.0000 C   0  0  0  0  0  0  0  0  0  0  0  0
    7.8591    2.0625    0.0000 C   0  0  0  0  0  0  0  0  0  0  0  0
   -2.8578    2.4750    0.0000 C   0  0  0  0  0  0  0  0  0  0  0  0
    8.5736    2.4750    0.0000 C   0  0  0  0  0  0  0  0  0  0  0  0
   -3.5723    2.0625    0.0000 C   0  0  0  0  0  0  0  0  0  0  0  0
    4.2868    2.4750    0.0000 C   0  0  0  0  0  0  0  0  0  0  0  0
    0.7144    2.0625    0.0000 C   0  0  0  0  0  0  0  0  0  0  0  0
    7.1447    3.3000    0.0000 C   0  0  0  0  0  0  0  0  0  0  0  0
   -2.1434    1.2375    0.0000 C   0  0  0  0  0  0  0  0  0  0  0  0
    5.7157    2.4750    0.0000 C   0  0  0  0  0  0  0  0  0  0  0  0
   -0.7144    2.0625    0.0000 C   0  0  0  0  0  0  0  0  0  0  0  0
    7.1447    2.4750    0.0000 C   0  0  0  0  0  0  0  0  0  0  0  0
   -2.1434    2.0625    0.0000 C   0  0  0  0  0  0  0  0  0  0  0  0
    8.5736    3.3000    0.0000 C   0  0  0  0  0  0  0  0  0  0  0  0
   -3.5723    1.2375    0.0000 C   0  0  0  0  0  0  0  0  0  0  0  0
    7.8591    3.7125    0.0000 C   0  0  0  0  0  0  0  0  0  0  0  0
   -2.8578    0.8250    0.0000 C   0  0  0  0  0  0  0  0  0  0  0  0
    6.4302    2.0625    0.0000 C   0  0  3  0  0  0  0  0  0  0  0  0
   -1.4289    2.4750    0.0000 C   0  0  3  0  0  0  0  0  0  0  0  0
    5.0012    2.0625    0.0000 N   0  0  0  0  0  0  0  0  0  0  0  0
    0.0000    2.4750    0.0000 N   0  0  0  0  0  0  0  0  0  0  0  0
    9.2881    3.7125    0.0000 O   0  0  0  0  0  0  0  0  0  0  0  0
   -4.2868    0.8250    0.0000 O   0  0  0  0  0  0  0  0  0  0  0  0
    7.8591    4.5375    0.0000 O   0  0  0  0  0  0  0  0  0  0  0  0
   -2.8578    0.0000    0.0000 O   0  0  0  0  0  0  0  0  0  0  0  0
    6.4302    1.2375    0.0000 O   0  0  0  0  0  0  0  0  0  0  0  0
   -1.4289    3.3000    0.0000 O   0  0  0  0  0  0  0  0  0  0  0  0
    2.8578    3.5450    0.0000 H   0  0  0  0  0  0  0  0  0  0  0  0
    3.7844    3.0100    0.0000 H   0  0  0  0  0  0  0  0  0  0  0  0
    2.1434    0.9925    0.0000 H   0  0  0  0  0  0  0  0  0  0  0  0
    1.2168    1.5275    0.0000 H   0  0  0  0  0  0  0  0  0  0  0  0
    3.5723    0.9925    0.0000 H   0  0  0  0  0  0  0  0  0  0  0  0
    4.4989    1.5275    0.0000 H   0  0  0  0  0  0  0  0  0  0  0  0
    1.4289    3.5450    0.0000 H   0  0  0  0  0  0  0  0  0  0  0  0
    0.5023    3.0100    0.0000 H   0  0  0  0  0  0  0  0  0  0  0  0
    7.8591    1.0305    0.0000 H   0  0  0  0  0  0  0  0  0  0  0  0
   -2.8578    3.5070    0.0000 H   0  0  0  0  0  0  0  0  0  0  0  0
    9.4673    1.9590    0.0000 H   0  0  0  0  0  0  0  0  0  0  0  0
   -4.4660    2.5785    0.0000 H   0  0  0  0  0  0  0  0  0  0  0  0
    4.2868    3.5450    0.0000 H   0  0  0  0  0  0  0  0  0  0  0  0
    5.2135    3.0100    0.0000 H   0  0  0  0  0  0  0  0  0  0  0  0
    0.7144    0.9925    0.0000 H   0  0  0  0  0  0  0  0  0  0  0  0
   -0.2123    1.5275    0.0000 H   0  0  0  0  0  0  0  0  0  0  0  0
    6.2510    3.8160    0.0000 H   0  0  0  0  0  0  0  0  0  0  0  0
   -1.2497    0.7215    0.0000 H   0  0  0  0  0  0  0  0  0  0  0  0
    5.7157    3.5450    0.0000 H   0  0  0  0  0  0  0  0  0  0  0  0
    4.7891    3.0100    0.0000 H   0  0  0  0  0  0  0  0  0  0  0  0
   -0.7144    0.9925    0.0000 H   0  0  0  0  0  0  0  0  0  0  0  0
    0.2123    1.5275    0.0000 H   0  0  0  0  0  0  0  0  0  0  0  0
    6.4302    3.1325    0.0000 H   0  0  0  0  0  0  0  0  0  0  0  0
   -1.4289    1.4050    0.0000 H   0  0  0  0  0  0  0  0  0  0  0  0
    5.0012    1.0425    0.0000 H   0  0  0  0  0  0  0  0  0  0  0  0
    0.0000    3.4950    0.0000 H   0  0  0  0  0  0  0  0  0  0  0  0
   10.0996    3.2440    0.0000 H   0  0  0  0  0  0  0  0  0  0  0  0
   -5.0983    1.2935    0.0000 H   0  0  0  0  0  0  0  0  0  0  0  0
    8.6706    5.0060    0.0000 H   0  0  0  0  0  0  0  0  0  0  0  0
   -3.6693   -0.4685    0.0000 H   0  0  0  0  0  0  0  0  0  0  0  0
    5.5902    0.7525    0.0000 H   0  0  0  0  0  0  0  0  0  0  0  0
   -0.5889    3.7850    0.0000 H   0  0  0  0  0  0  0  0  0  0  0  0
  1 31  1  0  0  0  0
  1 32  1  0  0  0  0
  2  1  1  0  0  0  0
  2 33  1  0  0  0  0
  2 34  1  0  0  0  0
  3  1  1  0  0  0  0
  3 35  1  0  0  0  0
  3 36  1  0  0  0  0
  4  2  1  0  0  0  0
  4 37  1  0  0  0  0
  4 38  1  0  0  0  0
  5 39  1  0  0  0  0
  6 40  1  0  0  0  0
  7  5  2  0  0  0  0
  7 41  1  0  0  0  0
  8  6  2  0  0  0  0
  8 42  1  0  0  0  0
  9  3  1  0  0  0  0
  9 43  1  0  0  0  0
  9 44  1  0  0  0  0
 10  4  1  0  0  0  0
 10 45  1  0  0  0  0
 10 46  1  0  0  0  0
 11 47  1  0  0  0  0
 12 48  1  0  0  0  0
 13 49  1  0  0  0  0
 13 50  1  0  0  0  0
 14 51  1  0  0  0  0
 14 52  1  0  0  0  0
 15  5  1  0  0  0  0
 15 11  2  0  0  0  0
 16  6  1  0  0  0  0
 16 12  2  0  0  0  0
 17  7  1  0  0  0  0
 18  8  1  0  0  0  0
 19 11  1  0  0  0  0
 19 17  2  0  0  0  0
 20 12  1  0  0  0  0
 20 18  2  0  0  0  0
 21 13  1  0  0  0  0
 21 15  1  0  0  0  0
 21 53  1  0  0  0  0
 22 14  1  0  0  0  0
 22 16  1  0  0  0  0
 22 54  1  0  0  0  0
 23  9  1  0  0  0  0
 23 13  1  0  0  0  0
 23 55  1  0  0  0  0
 24 10  1  0  0  0  0
 24 14  1  0  0  0  0
 24 56  1  0  0  0  0
 25 17  1  0  0  0  0
 25 57  1  0  0  0  0
 26 18  1  0  0  0  0
 26 58  1  0  0  0  0
 27 19  1  0  0  0  0
 27 59  1  0  0  0  0
 28 20  1  0  0  0  0
 28 60  1  0  0  0  0
 29 21  1  0  0  0  0
 29 61  1  0  0  0  0
 30 22  1  0  0  0  0
 30 62  1  0  0  0  0
M  END
>  <DRUGBANK_ID>
DB08957

>  <COMMON_NAME>
Hexoprenaline

>  <CAS_NUMBER>
3215-70-1

>  <UNII>
G9L6B3W684

>  <SYNONYMS>
Hexoprenaline

$$$$
