
 OpenBabel10282417072D

 12 11  0  0  1  0  0  0  0  0999 V2000
    2.0625    0.7145    0.0000 N   0  0  0  0  0  0  0  0  0  0  0  0
    1.2375    0.7145    0.0000 C   0  0  1  0  0  0  0  0  0  0  0  0
    0.8250    1.4289    0.0000 C   0  0  0  0  0  0  0  0  0  0  0  0
    0.4125    2.1434    0.0000 C   0  0  0  0  0  0  0  0  0  0  0  0
    0.8250    0.0000    0.0000 C   0  0  0  0  0  0  0  0  0  0  0  0
    1.2375   -0.7145    0.0000 O   0  0  0  0  0  0  0  0  0  0  0  0
    0.0000    0.0000    0.0000 O   0  0  0  0  0  0  0  0  0  0  0  0
    2.5725   -0.1688    0.0000 H   0  0  0  0  0  0  0  0  0  0  0  0
    2.5725    1.5978    0.0000 H   0  0  0  0  0  0  0  0  0  0  0  0
    1.7725    1.6412    0.0000 H   0  0  0  0  0  0  0  0  0  0  0  0
   -0.0845    3.0042    0.0000 H   0  0  0  0  0  0  0  0  0  0  0  0
    0.7690   -1.5260    0.0000 H   0  0  0  0  0  0  0  0  0  0  0  0
  1  8  1  0  0  0  0
  1  9  1  0  0  0  0
  2  1  1  0  0  0  0
  2  3  1  0  0  0  0
  2  5  1  0  0  0  0
  2 10  1  1  0  0  0
  3  4  3  0  0  0  0
  4 11  1  0  0  0  0
  5  6  1  0  0  0  0
  5  7  2  0  0  0  0
  6 12  1  0  0  0  0
M  END
>  <DRUGBANK_ID>
DB04217

>  <SECONDARY_ACCESSION_NUMBERS>
EXPT02057

>  <COMMON_NAME>
L-2-amino-3-butynoic acid

>  <CAS_NUMBER>
73537-09-4

>  <SYNONYMS>
(2S)-2-Amino-3-butynoic acid

$$$$
