
 OpenBabel10282417072D

 62 64  0  0  1  0  0  0  0  0999 V2000
    4.6356    9.9587    0.0000 C   0  0  0  0  0  0  0  0  0  0  0  0
    2.4752    7.4641    0.0000 C   0  0  0  0  0  0  0  0  0  0  0  0
    5.4457    9.8028    0.0000 C   0  0  0  0  0  0  0  0  0  0  0  0
    2.7453    6.6846    0.0000 C   0  0  0  0  0  0  0  0  0  0  0  0
    4.0955    9.3351    0.0000 C   0  0  0  0  0  0  0  0  0  0  0  0
    3.0153    8.0878    0.0000 C   0  0  0  0  0  0  0  0  0  0  0  0
    5.7158    9.0232    0.0000 C   0  0  0  0  0  0  0  0  0  0  0  0
    3.5554    6.5287    0.0000 C   0  0  0  0  0  0  0  0  0  0  0  0
    8.4162    3.4105    0.0000 C   0  0  0  0  0  0  0  0  0  0  0  0
    8.1462    4.1900    0.0000 C   0  0  0  0  0  0  0  0  0  0  0  0
    5.4457    3.2546    0.0000 C   0  0  0  0  0  0  0  0  0  0  0  0
    5.9858    6.0609    0.0000 C   0  0  0  0  0  0  0  0  0  0  0  0
    4.3655    8.5555    0.0000 C   0  0  0  0  0  0  0  0  0  0  0  0
    3.8255    7.9319    0.0000 C   0  0  0  0  0  0  0  0  0  0  0  0
    5.1757    8.3996    0.0000 C   0  0  0  0  0  0  0  0  0  0  0  0
    4.0955    7.1523    0.0000 C   0  0  0  0  0  0  0  0  0  0  0  0
    9.2263    3.2546    0.0000 C   0  0  1  0  0  0  0  0  0  0  0  0
    6.2559    5.2814    0.0000 C   0  0  1  0  0  0  0  0  0  0  0  0
    7.3360    4.3459    0.0000 C   0  0  0  0  0  0  0  0  0  0  0  0
    5.7158    2.4750    0.0000 C   0  0  0  0  0  0  0  0  0  0  0  0
    5.4457    7.6200    0.0000 C   0  0  2  0  0  0  0  0  0  0  0  0
    4.9056    6.9964    0.0000 C   0  0  2  0  0  0  0  0  0  0  0  0
    5.7158    4.6577    0.0000 C   0  0  0  0  0  0  0  0  0  0  0  0
    9.4964    2.4750    0.0000 C   0  0  0  0  0  0  0  0  0  0  0  0
    9.7664    3.8782    0.0000 N   0  0  0  0  0  0  0  0  0  0  0  0
    5.9858    3.8782    0.0000 N   0  0  0  0  0  0  0  0  0  0  0  0
    7.0660    5.1255    0.0000 N   0  0  0  0  0  0  0  0  0  0  0  0
    6.7959    3.7223    0.0000 O   0  0  0  0  0  0  0  0  0  0  0  0
    6.5259    2.3191    0.0000 O   0  0  0  0  0  0  0  0  0  0  0  0
    5.1757    1.8514    0.0000 O   0  0  0  0  0  0  0  0  0  0  0  0
    6.2559    7.4641    0.0000 O   0  0  0  0  0  0  0  0  0  0  0  0
    4.9056    4.8137    0.0000 O   0  0  0  0  0  0  0  0  0  0  0  0
   10.3065    2.3191    0.0000 O   0  0  0  0  0  0  0  0  0  0  0  0
    8.9563    1.8514    0.0000 O   0  0  0  0  0  0  0  0  0  0  0  0
    5.1757    6.2168    0.0000 S   0  0  0  0  0  0  0  0  0  0  0  0
    8.6863    2.6309    0.0000 H   0  0  0  0  0  0  0  0  0  0  0  0
    5.4457    5.4373    0.0000 H   0  0  0  0  0  0  0  0  0  0  0  0
    5.9858    8.2437    0.0000 H   0  0  0  0  0  0  0  0  0  0  0  0
    4.3655    6.3728    0.0000 H   0  0  0  0  0  0  0  0  0  0  0  0
    4.2978   10.9339    0.0000 H   0  0  0  0  0  0  0  0  0  0  0  0
    1.4618    7.6591    0.0000 H   0  0  0  0  0  0  0  0  0  0  0  0
    6.1213   10.5829    0.0000 H   0  0  0  0  0  0  0  0  0  0  0  0
    2.0697    5.9045    0.0000 H   0  0  0  0  0  0  0  0  0  0  0  0
    3.0821    9.5302    0.0000 H   0  0  0  0  0  0  0  0  0  0  0  0
    2.6775    9.0629    0.0000 H   0  0  0  0  0  0  0  0  0  0  0  0
    6.7292    8.8282    0.0000 H   0  0  0  0  0  0  0  0  0  0  0  0
    3.8932    5.5535    0.0000 H   0  0  0  0  0  0  0  0  0  0  0  0
    7.7157    2.6017    0.0000 H   0  0  0  0  0  0  0  0  0  0  0  0
    8.7664    2.3994    0.0000 H   0  0  0  0  0  0  0  0  0  0  0  0
    8.8467    4.9988    0.0000 H   0  0  0  0  0  0  0  0  0  0  0  0
    7.7959    5.2011    0.0000 H   0  0  0  0  0  0  0  0  0  0  0  0
    4.3950    3.4568    0.0000 H   0  0  0  0  0  0  0  0  0  0  0  0
    5.0955    4.2657    0.0000 H   0  0  0  0  0  0  0  0  0  0  0  0
    6.6862    6.8698    0.0000 H   0  0  0  0  0  0  0  0  0  0  0  0
    5.6355    7.0719    0.0000 H   0  0  0  0  0  0  0  0  0  0  0  0
   10.7680    3.6854    0.0000 H   0  0  0  0  0  0  0  0  0  0  0  0
    9.4326    4.8420    0.0000 H   0  0  0  0  0  0  0  0  0  0  0  0
    6.9526    3.6921    0.0000 H   0  0  0  0  0  0  0  0  0  0  0  0
    7.7105    5.8697    0.0000 H   0  0  0  0  0  0  0  0  0  0  0  0
    6.8326    1.4337    0.0000 H   0  0  0  0  0  0  0  0  0  0  0  0
    6.5734    6.5475    0.0000 H   0  0  0  0  0  0  0  0  0  0  0  0
   10.6132    1.4337    0.0000 H   0  0  0  0  0  0  0  0  0  0  0  0
  1 40  1  0  0  0  0
  2 41  1  0  0  0  0
  3  1  2  0  0  0  0
  3 42  1  0  0  0  0
  4  2  2  0  0  0  0
  4 43  1  0  0  0  0
  5  1  1  0  0  0  0
  5 44  1  0  0  0  0
  6  2  1  0  0  0  0
  6 45  1  0  0  0  0
  7  3  1  0  0  0  0
  7 46  1  0  0  0  0
  8  4  1  0  0  0  0
  8 47  1  0  0  0  0
  9 48  1  0  0  0  0
  9 49  1  0  0  0  0
 10  9  1  0  0  0  0
 10 50  1  0  0  0  0
 10 51  1  0  0  0  0
 11 52  1  0  0  0  0
 11 53  1  0  0  0  0
 12 54  1  0  0  0  0
 12 55  1  0  0  0  0
 13  5  2  0  0  0  0
 14  6  2  0  0  0  0
 14 13  1  0  0  0  0
 15  7  2  0  0  0  0
 15 13  1  0  0  0  0
 16  8  2  0  0  0  0
 16 14  1  0  0  0  0
 17  9  1  0  0  0  0
 17 25  1  0  0  0  0
 17 36  1  1  0  0  0
 18 12  1  0  0  0  0
 18 27  1  0  0  0  0
 18 37  1  1  0  0  0
 19 10  1  0  0  0  0
 20 11  1  0  0  0  0
 21 15  1  0  0  0  0
 21 31  1  0  0  0  0
 21 38  1  6  0  0  0
 22 16  1  0  0  0  0
 22 21  1  0  0  0  0
 22 35  1  0  0  0  0
 22 39  1  1  0  0  0
 23 18  1  0  0  0  0
 24 17  1  0  0  0  0
 25 56  1  0  0  0  0
 25 57  1  0  0  0  0
 26 11  1  0  0  0  0
 26 23  1  0  0  0  0
 26 58  1  0  0  0  0
 27 19  1  0  0  0  0
 27 59  1  0  0  0  0
 28 19  2  0  0  0  0
 29 20  1  0  0  0  0
 29 60  1  0  0  0  0
 30 20  2  0  0  0  0
 31 61  1  0  0  0  0
 32 23  2  0  0  0  0
 33 24  1  0  0  0  0
 33 62  1  0  0  0  0
 34 24  2  0  0  0  0
 35 12  1  0  0  0  0
M  END
>  <DRUGBANK_ID>
DB01834

>  <SECONDARY_ACCESSION_NUMBERS>
EXPT01641

>  <COMMON_NAME>
(9R,10R)-9-(S-glutathionyl)-10-hydroxy-9,10-dihydrophenanthrene

$$$$
