PTU
 OpenBabel10282417072D

 24 24  0  0  0  0  0  0  0  0999 V2000
   -0.3797    1.0752    0.0000 N   0  0  0  0  0  0  0  0  0  0  0  0
    0.3348    0.6627    0.0000 C   0  0  0  0  0  0  0  0  0  0  0  0
    1.0493    1.0752    0.0000 S   0  0  0  0  0  0  0  0  0  0  0  0
    0.3348   -0.1623    0.0000 N   0  0  0  0  0  0  0  0  0  0  0  0
   -0.3797   -0.5748    0.0000 C   0  0  0  0  0  0  0  0  0  0  0  0
   -0.3797   -1.3998    0.0000 C   0  0  0  0  0  0  0  0  0  0  0  0
   -1.0942   -1.8123    0.0000 C   0  0  0  0  0  0  0  0  0  0  0  0
   -1.8086   -1.3998    0.0000 C   0  0  0  0  0  0  0  0  0  0  0  0
   -1.8086   -0.5748    0.0000 C   0  0  0  0  0  0  0  0  0  0  0  0
   -1.0942   -0.1623    0.0000 C   0  0  0  0  0  0  0  0  0  0  0  0
    1.7637    0.6627    0.0000 C   0  0  0  0  0  0  0  0  0  0  0  0
    2.4782    1.0752    0.0000 C   0  0  0  0  0  0  0  0  0  0  0  0
   -0.3797    2.0597    0.0000 H   0  0  0  0  0  0  0  0  0  0  0  0
   -1.2323    0.5829    0.0000 H   0  0  0  0  0  0  0  0  0  0  0  0
    0.5140   -1.9158    0.0000 H   0  0  0  0  0  0  0  0  0  0  0  0
   -1.0942   -2.8443    0.0000 H   0  0  0  0  0  0  0  0  0  0  0  0
   -2.7023   -1.9158    0.0000 H   0  0  0  0  0  0  0  0  0  0  0  0
   -2.7023   -0.0588    0.0000 H   0  0  0  0  0  0  0  0  0  0  0  0
   -1.0942    0.8697    0.0000 H   0  0  0  0  0  0  0  0  0  0  0  0
    1.7637   -0.4073    0.0000 H   0  0  0  0  0  0  0  0  0  0  0  0
    2.6903    0.1277    0.0000 H   0  0  0  0  0  0  0  0  0  0  0  0
    3.4048    0.5402    0.0000 H   0  0  0  0  0  0  0  0  0  0  0  0
    2.4782    2.1452    0.0000 H   0  0  0  0  0  0  0  0  0  0  0  0
    3.4049    1.6102    0.0000 H   0  0  0  0  0  0  0  0  0  0  0  0
  1  2  1  0  0  0  0
  1 13  1  0  0  0  0
  1 14  1  0  0  0  0
  2  3  1  0  0  0  0
  2  4  2  0  0  0  0
  3 11  1  0  0  0  0
  4  5  1  0  0  0  0
  5  6  2  0  0  0  0
  5 10  1  0  0  0  0
  6  7  1  0  0  0  0
  6 15  1  0  0  0  0
  7  8  2  0  0  0  0
  7 16  1  0  0  0  0
  8  9  1  0  0  0  0
  8 17  1  0  0  0  0
  9 10  2  0  0  0  0
  9 18  1  0  0  0  0
 10 19  1  0  0  0  0
 11 12  1  0  0  0  0
 11 20  1  0  0  0  0
 11 21  1  0  0  0  0
 12 22  1  0  0  0  0
 12 23  1  0  0  0  0
 12 24  1  0  0  0  0
M  END
>  <DRUGBANK_ID>
DB03707

>  <SECONDARY_ACCESSION_NUMBERS>
EXPT02689

>  <COMMON_NAME>
S-Ethyl-N-Phenyl-Isothiourea

$$$$
