
 OpenBabel10282417072D

 29 28  0  0  1  0  0  0  0  0999 V2000
    1.4289   -0.8250    0.0000 C   0  0  0  0  0  0  0  0  0  0  0  0
   -0.7145    1.2375    0.0000 C   0  0  0  0  0  0  0  0  0  0  0  0
   -0.0000   -0.8250    0.0000 C   0  0  0  0  0  0  0  0  0  0  0  0
    0.7145   -1.2375    0.0000 C   0  0  2  0  0  0  0  0  0  0  0  0
    0.0000    0.8250    0.0000 C   0  0  2  0  0  0  0  0  0  0  0  0
   -0.7145    2.0625    0.0000 C   0  0  0  0  0  0  0  0  0  0  0  0
    0.7145   -2.0625    0.0000 C   0  0  0  0  0  0  0  0  0  0  0  0
    0.7145    1.2375    0.0000 N   0  0  0  0  0  0  0  0  0  0  0  0
   -1.4289    2.4750    0.0000 O   0  0  0  0  0  0  0  0  0  0  0  0
   -0.0000    2.4750    0.0000 O   0  0  0  0  0  0  0  0  0  0  0  0
    1.4289   -2.4750    0.0000 O   0  0  0  0  0  0  0  0  0  0  0  0
   -0.0000   -2.4750    0.0000 O   0  0  0  0  0  0  0  0  0  0  0  0
   -0.8250    0.0000    0.0000 O   0  0  0  0  0  0  0  0  0  0  0  0
    0.8250    0.0000    0.0000 O   0  0  0  0  0  0  0  0  0  0  0  0
    0.0000    0.0000    0.0000 P   0  0  3  0  0  0  0  0  0  0  0  0
    0.7145   -0.4125    0.0000 H   0  0  0  0  0  0  0  0  0  0  0  0
   -0.0000    1.6500    0.0000 H   0  0  0  0  0  0  0  0  0  0  0  0
    2.3556   -1.3600    0.0000 H   0  0  0  0  0  0  0  0  0  0  0  0
    1.4289    0.2450    0.0000 H   0  0  0  0  0  0  0  0  0  0  0  0
    2.3555   -0.2900    0.0000 H   0  0  0  0  0  0  0  0  0  0  0  0
   -1.6411    0.7025    0.0000 H   0  0  0  0  0  0  0  0  0  0  0  0
   -1.6411    1.7725    0.0000 H   0  0  0  0  0  0  0  0  0  0  0  0
   -0.9266   -1.3600    0.0000 H   0  0  0  0  0  0  0  0  0  0  0  0
   -0.9266   -0.2900    0.0000 H   0  0  0  0  0  0  0  0  0  0  0  0
    1.5978    0.7275    0.0000 H   0  0  0  0  0  0  0  0  0  0  0  0
    0.7145    2.2575    0.0000 H   0  0  0  0  0  0  0  0  0  0  0  0
    0.8115    2.0065    0.0000 H   0  0  0  0  0  0  0  0  0  0  0  0
   -0.8115   -2.0065    0.0000 H   0  0  0  0  0  0  0  0  0  0  0  0
   -1.3100    0.8400    0.0000 H   0  0  0  0  0  0  0  0  0  0  0  0
  1 18  1  0  0  0  0
  1 19  1  0  0  0  0
  1 20  1  0  0  0  0
  2 21  1  0  0  0  0
  2 22  1  0  0  0  0
  3 23  1  0  0  0  0
  3 24  1  0  0  0  0
  4  1  1  0  0  0  0
  4  3  1  0  0  0  0
  4 16  1  6  0  0  0
  5  2  1  0  0  0  0
  5  8  1  0  0  0  0
  5 17  1  1  0  0  0
  6  2  1  0  0  0  0
  7  4  1  0  0  0  0
  8 25  1  0  0  0  0
  8 26  1  0  0  0  0
  9  6  2  0  0  0  0
 10  6  1  0  0  0  0
 10 27  1  0  0  0  0
 11  7  2  0  0  0  0
 12  7  1  0  0  0  0
 12 28  1  0  0  0  0
 13 29  1  0  0  0  0
 15  3  1  0  0  0  0
 15  5  1  0  0  0  0
 15 13  1  0  0  0  0
 15 14  2  0  0  0  0
M  END
>  <DRUGBANK_ID>
DB03340

>  <SECONDARY_ACCESSION_NUMBERS>
EXPT00448

>  <COMMON_NAME>
3-[(1-Amino-2-Carboxy-Ethyl)-Hydroxy-Phosphinoyl]-2-Methyl-Propionic Acid

$$$$
