
 OpenBabel10282417072D

 74 78  0  0  1  0  0  0  0  0999 V2000
    6.2388   -1.3480    0.0000 H   0  0  0  0  0  0  0  0  0  0  0  0
    5.8263   -2.0625    0.0000 C   0  0  2  0  0  0  0  0  0  0  0  0
    5.4138   -2.7770    0.0000 C   0  0  0  0  0  0  0  0  0  0  0  0
    4.5888   -2.7770    0.0000 C   0  0  1  0  0  0  0  0  0  0  0  0
    4.7321   -3.5894    0.0000 C   0  0  0  0  0  0  0  0  0  0  0  0
    4.1763   -2.0625    0.0000 C   0  0  0  0  0  0  0  0  0  0  0  0
    4.5888   -1.3480    0.0000 C   0  0  0  0  0  0  0  0  0  0  0  0
    5.4138   -1.3480    0.0000 C   0  0  1  0  0  0  0  0  0  0  0  0
    5.0013   -0.6336    0.0000 C   0  0  0  0  0  0  0  0  0  0  0  0
    5.8263   -0.6336    0.0000 C   0  0  0  0  0  0  0  0  0  0  0  0
    6.6513   -0.6336    0.0000 C   0  0  0  0  0  0  0  0  0  0  0  0
    7.0638   -1.3480    0.0000 C   0  0  2  0  0  0  0  0  0  0  0  0
    7.4763   -0.6336    0.0000 C   0  0  0  0  0  0  0  0  0  0  0  0
    7.8888   -1.3480    0.0000 C   0  0  0  0  0  0  0  0  0  0  0  0
    8.3013   -0.6336    0.0000 C   0  0  0  0  0  0  0  0  0  0  0  0
    9.1263   -0.6336    0.0000 C   0  0  0  0  0  0  0  0  0  0  0  0
    9.5388   -1.3480    0.0000 C   0  0  0  0  0  0  0  0  0  0  0  0
   10.3638   -1.3480    0.0000 C   0  0  0  0  0  0  0  0  0  0  0  0
   10.7763   -0.6336    0.0000 C   0  0  0  0  0  0  0  0  0  0  0  0
   10.7763   -2.0625    0.0000 C   0  0  0  0  0  0  0  0  0  0  0  0
   11.6013   -2.0625    0.0000 O   0  0  0  0  0  0  0  0  0  0  0  0
   10.3638   -2.7770    0.0000 C   0  0  0  0  0  0  0  0  0  0  0  0
   10.7763   -3.4914    0.0000 O   0  0  0  0  0  0  0  0  0  0  0  0
    9.5388   -2.7770    0.0000 C   0  0  0  0  0  0  0  0  0  0  0  0
    9.1263   -2.0625    0.0000 C   0  0  0  0  0  0  0  0  0  0  0  0
    8.3013   -2.0625    0.0000 C   0  0  1  0  0  0  0  0  0  0  0  0
    8.7138   -2.7770    0.0000 C   0  0  0  0  0  0  0  0  0  0  0  0
    7.8888   -2.7770    0.0000 C   0  0  0  0  0  0  0  0  0  0  0  0
    7.0638   -2.7770    0.0000 C   0  0  0  0  0  0  0  0  0  0  0  0
    6.6513   -2.0625    0.0000 C   0  0  1  0  0  0  0  0  0  0  0  0
    6.2388   -2.7770    0.0000 C   0  0  0  0  0  0  0  0  0  0  0  0
    3.8136   -3.0591    0.0000 C   0  0  0  0  0  0  0  0  0  0  0  0
    3.6703   -3.8716    0.0000 O   0  0  0  0  0  0  0  0  0  0  0  0
    3.1816   -2.5288    0.0000 O   0  0  0  0  0  0  0  0  0  0  0  0
    2.4063   -2.8110    0.0000 C   0  0  0  0  0  0  0  0  0  0  0  0
    5.9488   -3.7036    0.0000 H   0  0  0  0  0  0  0  0  0  0  0  0
    4.8788   -3.7036    0.0000 H   0  0  0  0  0  0  0  0  0  0  0  0
    3.9125   -4.2772    0.0000 H   0  0  0  0  0  0  0  0  0  0  0  0
    5.7376   -3.9553    0.0000 H   0  0  0  0  0  0  0  0  0  0  0  0
    4.9180   -4.6431    0.0000 H   0  0  0  0  0  0  0  0  0  0  0  0
    3.1063   -2.0625    0.0000 H   0  0  0  0  0  0  0  0  0  0  0  0
    3.6413   -1.1359    0.0000 H   0  0  0  0  0  0  0  0  0  0  0  0
    4.0538   -0.4214    0.0000 H   0  0  0  0  0  0  0  0  0  0  0  0
    5.1238   -0.4214    0.0000 H   0  0  0  0  0  0  0  0  0  0  0  0
    5.5363    0.2931    0.0000 H   0  0  0  0  0  0  0  0  0  0  0  0
    3.9313   -0.6336    0.0000 H   0  0  0  0  0  0  0  0  0  0  0  0
    4.4663    0.2930    0.0000 H   0  0  0  0  0  0  0  0  0  0  0  0
    5.2913    0.2931    0.0000 H   0  0  0  0  0  0  0  0  0  0  0  0
    6.3613    0.2930    0.0000 H   0  0  0  0  0  0  0  0  0  0  0  0
    7.1863    0.2931    0.0000 H   0  0  0  0  0  0  0  0  0  0  0  0
    7.7213   -0.6336    0.0000 H   0  0  0  0  0  0  0  0  0  0  0  0
    8.5463   -0.6336    0.0000 H   0  0  0  0  0  0  0  0  0  0  0  0
    6.9413    0.2931    0.0000 H   0  0  0  0  0  0  0  0  0  0  0  0
    8.0113    0.2930    0.0000 H   0  0  0  0  0  0  0  0  0  0  0  0
    7.7853    0.2601    0.0000 H   0  0  0  0  0  0  0  0  0  0  0  0
    9.6423    0.2601    0.0000 H   0  0  0  0  0  0  0  0  0  0  0  0
   11.8463   -0.6336    0.0000 H   0  0  0  0  0  0  0  0  0  0  0  0
   10.2413    0.2931    0.0000 H   0  0  0  0  0  0  0  0  0  0  0  0
   11.3113    0.2930    0.0000 H   0  0  0  0  0  0  0  0  0  0  0  0
   12.0698   -2.8740    0.0000 H   0  0  0  0  0  0  0  0  0  0  0  0
    9.0228   -3.6707    0.0000 H   0  0  0  0  0  0  0  0  0  0  0  0
    8.1788   -3.7036    0.0000 H   0  0  0  0  0  0  0  0  0  0  0  0
    9.7838   -2.7770    0.0000 H   0  0  0  0  0  0  0  0  0  0  0  0
    9.2488   -3.7037    0.0000 H   0  0  0  0  0  0  0  0  0  0  0  0
    8.4238   -3.7036    0.0000 H   0  0  0  0  0  0  0  0  0  0  0  0
    7.3538   -3.7036    0.0000 H   0  0  0  0  0  0  0  0  0  0  0  0
    6.5288   -3.7036    0.0000 H   0  0  0  0  0  0  0  0  0  0  0  0
    5.9938   -2.7770    0.0000 H   0  0  0  0  0  0  0  0  0  0  0  0
    5.1688   -2.7770    0.0000 H   0  0  0  0  0  0  0  0  0  0  0  0
    6.7738   -3.7036    0.0000 H   0  0  0  0  0  0  0  0  0  0  0  0
    5.7038   -3.7037    0.0000 H   0  0  0  0  0  0  0  0  0  0  0  0
    1.5866   -2.1232    0.0000 H   0  0  0  0  0  0  0  0  0  0  0  0
    2.2205   -3.8647    0.0000 H   0  0  0  0  0  0  0  0  0  0  0  0
    1.4008   -3.1770    0.0000 H   0  0  0  0  0  0  0  0  0  0  0  0
  2  1  1  1  0  0  0
  2  3  1  0  0  0  0
  2  8  1  0  0  0  0
  2 30  1  0  0  0  0
  3 36  1  0  0  0  0
  3 37  1  0  0  0  0
  4  3  1  0  0  0  0
  4  5  1  0  0  0  0
  4  6  1  0  0  0  0
  4 32  1  6  0  0  0
  5 38  1  0  0  0  0
  5 39  1  0  0  0  0
  5 40  1  0  0  0  0
  6  7  1  0  0  0  0
  6 41  1  0  0  0  0
  6 42  1  0  0  0  0
  7 43  1  0  0  0  0
  7 44  1  0  0  0  0
  8  7  1  0  0  0  0
  8  9  1  1  0  0  0
  8 10  1  0  0  0  0
  9 45  1  0  0  0  0
  9 46  1  0  0  0  0
  9 47  1  0  0  0  0
 10 11  1  0  0  0  0
 10 48  1  0  0  0  0
 10 49  1  0  0  0  0
 11 50  1  0  0  0  0
 11 51  1  0  0  0  0
 12 11  1  0  0  0  0
 12 13  1  1  0  0  0
 12 14  1  0  0  0  0
 13 52  1  0  0  0  0
 13 53  1  0  0  0  0
 13 54  1  0  0  0  0
 14 15  2  0  0  0  0
 15 16  1  0  0  0  0
 15 55  1  0  0  0  0
 16 17  2  0  0  0  0
 16 56  1  0  0  0  0
 17 18  1  0  0  0  0
 17 25  1  0  0  0  0
 18 19  1  0  0  0  0
 18 20  2  0  0  0  0
 19 57  1  0  0  0  0
 19 58  1  0  0  0  0
 19 59  1  0  0  0  0
 20 21  1  0  0  0  0
 20 22  1  0  0  0  0
 21 60  1  0  0  0  0
 22 23  2  0  0  0  0
 22 24  1  0  0  0  0
 24 25  2  0  0  0  0
 24 61  1  0  0  0  0
 26 25  1  0  0  0  0
 26 14  1  0  0  0  0
 26 27  1  1  0  0  0
 26 28  1  0  0  0  0
 27 62  1  0  0  0  0
 27 63  1  0  0  0  0
 27 64  1  0  0  0  0
 28 29  1  0  0  0  0
 28 65  1  0  0  0  0
 28 66  1  0  0  0  0
 29 67  1  0  0  0  0
 29 68  1  0  0  0  0
 30 29  1  0  0  0  0
 30 12  1  0  0  0  0
 30 31  1  6  0  0  0
 31 69  1  0  0  0  0
 31 70  1  0  0  0  0
 31 71  1  0  0  0  0
 32 33  2  0  0  0  0
 32 34  1  0  0  0  0
 34 35  1  0  0  0  0
 35 72  1  0  0  0  0
 35 73  1  0  0  0  0
 35 74  1  0  0  0  0
M  END
>  <DRUGBANK_ID>
DB17049

>  <COMMON_NAME>
Pristimerin

>  <CAS_NUMBER>
1258-84-0

>  <UNII>
28ZK7PR57S

>  <SYNONYMS>
(9.beta.,13.alpha.,14.beta.,20.alpha.)-3-hydroxy-9,13-dimethyl-2-oxo-24,25,26-trinoroleana-1(10),3,5,7-tetraen-29-oic acid; 24,25,26-trinoroleana-1(10),3,5,7-tetraen-29-oic acid, 3-hydroxy-9,13-dimethyl-2-oxo-, methyl ester, (9.beta.,13.alpha.,14.beta.,20.alpha.)-; Celastrol methyl ester

$$$$
