
 OpenBabel10282417072D

 57 61  0  0  0  0  0  0  0  0999 V2000
   10.5998   -0.7773    0.0000 C   0  0  0  0  0  0  0  0  0  0  0  0
    9.5570    0.1996    0.0000 C   0  0  0  0  0  0  0  0  0  0  0  0
    9.2324   -1.1919    0.0000 C   0  0  0  0  0  0  0  0  0  0  0  0
    5.7792    0.3472    0.0000 C   0  0  0  0  0  0  0  0  0  0  0  0
    1.1751   -1.3698    0.0000 C   0  0  0  0  0  0  0  0  0  0  0  0
    2.3144   -2.2323    0.0000 C   0  0  0  0  0  0  0  0  0  0  0  0
    0.6771   -2.0276    0.0000 C   0  0  0  0  0  0  0  0  0  0  0  0
    1.8164   -2.8901    0.0000 C   0  0  0  0  0  0  0  0  0  0  0  0
    8.7535    0.3870    0.0000 C   0  0  0  0  0  0  0  0  0  0  0  0
    8.4289   -1.0045    0.0000 C   0  0  0  0  0  0  0  0  0  0  0  0
    4.9758    0.5346    0.0000 C   0  0  0  0  0  0  0  0  0  0  0  0
    5.4546   -1.0444    0.0000 C   0  0  0  0  0  0  0  0  0  0  0  0
    3.9743   -1.3287    0.0000 C   0  0  0  0  0  0  0  0  0  0  0  0
    6.8221   -0.6297    0.0000 C   0  0  0  0  0  0  0  0  0  0  0  0
    9.7964   -0.5899    0.0000 C   0  0  1  0  0  0  0  0  0  0  0  0
    6.0186   -0.4423    0.0000 C   0  0  0  0  0  0  0  0  0  0  0  0
    1.9938   -1.4722    0.0000 C   0  0  0  0  0  0  0  0  0  0  0  0
    0.9978   -2.7877    0.0000 C   0  0  0  0  0  0  0  0  0  0  0  0
    4.6512   -0.8570    0.0000 C   0  0  0  0  0  0  0  0  0  0  0  0
    8.1895   -0.2151    0.0000 C   0  0  2  0  0  0  0  0  0  0  0  0
    4.4118   -0.0675    0.0000 C   0  0  0  0  0  0  0  0  0  0  0  0
    3.3166   -0.8307    0.0000 C   0  0  0  0  0  0  0  0  0  0  0  0
    2.4917   -0.8145    0.0000 C   0  0  0  0  0  0  0  0  0  0  0  0
    3.5869   -0.0513    0.0000 C   0  0  0  0  0  0  0  0  0  0  0  0
    0.4998   -3.4455    0.0000 C   0  0  0  0  0  0  0  0  0  0  0  0
    7.3861   -0.0276    0.0000 N   0  0  0  0  0  0  0  0  0  0  0  0
    2.2523   -0.0250    0.0000 N   0  0  0  0  0  0  0  0  0  0  0  0
    2.9292    0.4467    0.0000 N   0  0  0  0  0  0  0  0  0  0  0  0
    0.8204   -4.2056    0.0000 O   0  0  0  0  0  0  0  0  0  0  0  0
   -0.3188   -3.3431    0.0000 O   0  0  0  0  0  0  0  0  0  0  0  0
   10.3604    0.0122    0.0000 H   0  0  0  0  0  0  0  0  0  0  0  0
    7.9501    0.5744    0.0000 H   0  0  0  0  0  0  0  0  0  0  0  0
   10.9103   -1.8013    0.0000 H   0  0  0  0  0  0  0  0  0  0  0  0
   11.3313    0.0036    0.0000 H   0  0  0  0  0  0  0  0  0  0  0  0
   11.6418   -1.0204    0.0000 H   0  0  0  0  0  0  0  0  0  0  0  0
   10.2885    0.9805    0.0000 H   0  0  0  0  0  0  0  0  0  0  0  0
   10.5990   -0.0435    0.0000 H   0  0  0  0  0  0  0  0  0  0  0  0
    9.5429   -2.2159    0.0000 H   0  0  0  0  0  0  0  0  0  0  0  0
   10.2744   -1.4350    0.0000 H   0  0  0  0  0  0  0  0  0  0  0  0
    6.4847    1.1004    0.0000 H   0  0  0  0  0  0  0  0  0  0  0  0
    0.7740   -0.4189    0.0000 H   0  0  0  0  0  0  0  0  0  0  0  0
    3.3384   -2.3604    0.0000 H   0  0  0  0  0  0  0  0  0  0  0  0
   -0.3469   -1.8996    0.0000 H   0  0  0  0  0  0  0  0  0  0  0  0
    2.2175   -3.8410    0.0000 H   0  0  0  0  0  0  0  0  0  0  0  0
    8.4430    1.4109    0.0000 H   0  0  0  0  0  0  0  0  0  0  0  0
    7.7115    0.6300    0.0000 H   0  0  0  0  0  0  0  0  0  0  0  0
    7.6974   -1.7854    0.0000 H   0  0  0  0  0  0  0  0  0  0  0  0
    7.3869   -0.7615    0.0000 H   0  0  0  0  0  0  0  0  0  0  0  0
    4.6763    1.5222    0.0000 H   0  0  0  0  0  0  0  0  0  0  0  0
    5.7541   -2.0320    0.0000 H   0  0  0  0  0  0  0  0  0  0  0  0
    3.9532   -2.3985    0.0000 H   0  0  0  0  0  0  0  0  0  0  0  0
    3.0115   -1.7955    0.0000 H   0  0  0  0  0  0  0  0  0  0  0  0
    7.1326   -1.6536    0.0000 H   0  0  0  0  0  0  0  0  0  0  0  0
    7.8641   -0.8727    0.0000 H   0  0  0  0  0  0  0  0  0  0  0  0
    7.0901    0.9485    0.0000 H   0  0  0  0  0  0  0  0  0  0  0  0
    2.9486    1.4310    0.0000 H   0  0  0  0  0  0  0  0  0  0  0  0
    0.2548   -4.9526    0.0000 H   0  0  0  0  0  0  0  0  0  0  0  0
  1 33  1  0  0  0  0
  1 34  1  0  0  0  0
  1 35  1  0  0  0  0
  2 36  1  0  0  0  0
  2 37  1  0  0  0  0
  3 38  1  0  0  0  0
  3 39  1  0  0  0  0
  4 40  1  0  0  0  0
  5 41  1  0  0  0  0
  6 42  1  0  0  0  0
  7  5  1  0  0  0  0
  7 43  1  0  0  0  0
  8  6  2  0  0  0  0
  8 44  1  0  0  0  0
  9  2  1  0  0  0  0
  9 45  1  0  0  0  0
  9 46  1  0  0  0  0
 10  3  1  0  0  0  0
 10 47  1  0  0  0  0
 10 48  1  0  0  0  0
 11  4  2  0  0  0  0
 11 49  1  0  0  0  0
 12 50  1  0  0  0  0
 13 51  1  0  0  0  0
 13 52  1  0  0  0  0
 14 53  1  0  0  0  0
 14 54  1  0  0  0  0
 15  1  1  0  0  0  0
 15  2  1  0  0  0  0
 15  3  1  0  0  0  0
 15 31  1  1  0  0  0
 16  4  1  0  0  0  0
 16 12  2  0  0  0  0
 16 14  1  0  0  0  0
 17  5  2  0  0  0  0
 17  6  1  0  0  0  0
 18  7  2  0  0  0  0
 18  8  1  0  0  0  0
 19 12  1  0  0  0  0
 19 13  1  0  0  0  0
 20  9  1  0  0  0  0
 20 10  1  0  0  0  0
 20 26  1  0  0  0  0
 20 32  1  1  0  0  0
 21 11  1  0  0  0  0
 21 19  2  0  0  0  0
 22 13  1  0  0  0  0
 23 17  1  0  0  0  0
 23 22  1  0  0  0  0
 24 21  1  0  0  0  0
 24 22  2  0  0  0  0
 25 18  1  0  0  0  0
 26 14  1  0  0  0  0
 26 55  1  0  0  0  0
 27 23  2  0  0  0  0
 28 24  1  0  0  0  0
 28 27  1  0  0  0  0
 28 56  1  0  0  0  0
 29 25  1  0  0  0  0
 29 57  1  0  0  0  0
 30 25  2  0  0  0  0
M  END
>  <DRUGBANK_ID>
DB07320

>  <COMMON_NAME>
4-(6-{[(4-METHYLCYCLOHEXYL)AMINO]METHYL}-1,4-DIHYDROINDENO[1,2-C]PYRAZOL-3-YL)BENZOIC ACID

$$$$
