BRN
 OpenBabel10282417072D

 36 37  0  0  0  0  0  0  0  0999 V2000
   -1.2356   -0.8783    0.0000 C   0  0  0  0  0  0  0  0  0  0  0  0
   -0.5211   -1.2908    0.0000 C   0  0  0  0  0  0  0  0  0  0  0  0
   -0.5211   -2.1158    0.0000 C   0  0  0  0  0  0  0  0  0  0  0  0
   -1.2356   -2.5283    0.0000 C   0  0  0  0  0  0  0  0  0  0  0  0
   -1.9500   -2.1158    0.0000 C   0  0  0  0  0  0  0  0  0  0  0  0
   -1.9500   -1.2908    0.0000 C   0  0  0  0  0  0  0  0  0  0  0  0
   -1.2356   -3.3533    0.0000 C   0  0  0  0  0  0  0  0  0  0  0  0
   -1.9500   -3.7658    0.0000 N   0  0  0  0  0  0  0  0  0  0  0  0
   -0.5211   -3.7658    0.0000 N   0  0  0  0  0  0  0  0  0  0  0  0
   -1.2356   -0.0533    0.0000 N   0  0  0  0  0  0  0  0  0  0  0  0
   -0.5211    0.3592    0.0000 N   0  0  0  0  0  0  0  0  0  0  0  0
   -0.5211    1.1842    0.0000 N   0  0  0  0  0  0  0  0  0  0  0  0
    0.1934    1.5967    0.0000 C   0  0  0  0  0  0  0  0  0  0  0  0
    0.1934    2.4217    0.0000 C   0  0  0  0  0  0  0  0  0  0  0  0
    0.9078    2.8342    0.0000 C   0  0  0  0  0  0  0  0  0  0  0  0
    1.6223    2.4217    0.0000 C   0  0  0  0  0  0  0  0  0  0  0  0
    1.6223    1.5967    0.0000 C   0  0  0  0  0  0  0  0  0  0  0  0
    0.9078    1.1842    0.0000 C   0  0  0  0  0  0  0  0  0  0  0  0
    2.3368    2.8342    0.0000 C   0  0  0  0  0  0  0  0  0  0  0  0
    2.3368    3.6592    0.0000 N   0  0  0  0  0  0  0  0  0  0  0  0
    3.0513    2.4217    0.0000 N   0  0  0  0  0  0  0  0  0  0  0  0
    0.3726   -0.7748    0.0000 H   0  0  0  0  0  0  0  0  0  0  0  0
    0.3726   -2.6318    0.0000 H   0  0  0  0  0  0  0  0  0  0  0  0
   -2.8437   -2.6318    0.0000 H   0  0  0  0  0  0  0  0  0  0  0  0
   -2.8437   -0.7748    0.0000 H   0  0  0  0  0  0  0  0  0  0  0  0
   -2.8026   -3.2736    0.0000 H   0  0  0  0  0  0  0  0  0  0  0  0
   -0.5211   -4.7503    0.0000 H   0  0  0  0  0  0  0  0  0  0  0  0
    0.3315   -3.2735    0.0000 H   0  0  0  0  0  0  0  0  0  0  0  0
   -2.0882    0.4390    0.0000 H   0  0  0  0  0  0  0  0  0  0  0  0
   -0.7003    2.9377    0.0000 H   0  0  0  0  0  0  0  0  0  0  0  0
    0.9078    3.8662    0.0000 H   0  0  0  0  0  0  0  0  0  0  0  0
    2.5160    1.0807    0.0000 H   0  0  0  0  0  0  0  0  0  0  0  0
    0.9078    0.1522    0.0000 H   0  0  0  0  0  0  0  0  0  0  0  0
    3.1894    4.1514    0.0000 H   0  0  0  0  0  0  0  0  0  0  0  0
    3.0513    1.4372    0.0000 H   0  0  0  0  0  0  0  0  0  0  0  0
    3.9039    2.9140    0.0000 H   0  0  0  0  0  0  0  0  0  0  0  0
  1  2  2  0  0  0  0
  1  6  1  0  0  0  0
  1 10  1  0  0  0  0
  2  3  1  0  0  0  0
  2 22  1  0  0  0  0
  3  4  2  0  0  0  0
  3 23  1  0  0  0  0
  4  5  1  0  0  0  0
  4  7  1  0  0  0  0
  5  6  2  0  0  0  0
  5 24  1  0  0  0  0
  6 25  1  0  0  0  0
  7  8  2  0  0  0  0
  7  9  1  0  0  0  0
  8 26  1  0  0  0  0
  9 27  1  0  0  0  0
  9 28  1  0  0  0  0
 10 11  1  0  0  0  0
 10 29  1  0  0  0  0
 11 12  2  0  0  0  0
 12 13  1  0  0  0  0
 13 14  2  0  0  0  0
 13 18  1  0  0  0  0
 14 15  1  0  0  0  0
 14 30  1  0  0  0  0
 15 16  2  0  0  0  0
 15 31  1  0  0  0  0
 16 17  1  0  0  0  0
 16 19  1  0  0  0  0
 17 18  2  0  0  0  0
 17 32  1  0  0  0  0
 18 33  1  0  0  0  0
 19 20  2  0  0  0  0
 19 21  1  0  0  0  0
 20 34  1  0  0  0  0
 21 35  1  0  0  0  0
 21 36  1  0  0  0  0
M  END
>  <DRUGBANK_ID>
DB03608

>  <SECONDARY_ACCESSION_NUMBERS>
EXPT00754

>  <COMMON_NAME>
Diminazene

>  <CAS_NUMBER>
536-71-0

>  <UNII>
Y5G36EEA5Z

>  <SYNONYMS>
4,4'-(1-triazene-1,3-diyl)bis-benzenecarboximidamide; 4,4'-(diazoamino)benzamidine; Diminazene; Diminaz√®ne; Diminazeno; Diminazenum

$$$$
