KN1
 OpenBabel10282417072D

 37 39  0  0  0  0  0  0  0  0999 V2000
   -0.5211    3.1438    0.0000 C   0  0  0  0  0  0  0  0  0  0  0  0
   -0.2661    2.3591    0.0000 C   0  0  0  0  0  0  0  0  0  0  0  0
   -0.8182    1.7461    0.0000 C   0  0  0  0  0  0  0  0  0  0  0  0
   -0.5632    0.9614    0.0000 N   0  0  0  0  0  0  0  0  0  0  0  0
   -1.0482    0.2940    0.0000 N   0  0  0  0  0  0  0  0  0  0  0  0
    0.2214    0.7065    0.0000 C   0  0  0  0  0  0  0  0  0  0  0  0
    0.9359    1.1190    0.0000 C   0  0  0  0  0  0  0  0  0  0  0  0
    0.9359    1.9440    0.0000 C   0  0  0  0  0  0  0  0  0  0  0  0
    1.7609    1.9440    0.0000 F   0  0  0  0  0  0  0  0  0  0  0  0
    0.1109    1.9440    0.0000 F   0  0  0  0  0  0  0  0  0  0  0  0
    0.9359    2.7690    0.0000 F   0  0  0  0  0  0  0  0  0  0  0  0
    1.6503    0.7065    0.0000 C   0  0  0  0  0  0  0  0  0  0  0  0
    1.6503   -0.1185    0.0000 C   0  0  0  0  0  0  0  0  0  0  0  0
    0.9359   -0.5310    0.0000 C   0  0  0  0  0  0  0  0  0  0  0  0
    0.2214   -0.1185    0.0000 C   0  0  0  0  0  0  0  0  0  0  0  0
   -0.5632   -0.3734    0.0000 C   0  0  0  0  0  0  0  0  0  0  0  0
   -0.8182   -1.1581    0.0000 C   0  0  0  0  0  0  0  0  0  0  0  0
   -1.6251   -1.3296    0.0000 C   0  0  0  0  0  0  0  0  0  0  0  0
   -1.8801   -2.1142    0.0000 C   0  0  0  0  0  0  0  0  0  0  0  0
   -1.3281   -2.7273    0.0000 C   0  0  0  0  0  0  0  0  0  0  0  0
   -1.5830   -3.5119    0.0000 O   0  0  0  0  0  0  0  0  0  0  0  0
   -0.5211   -2.5558    0.0000 C   0  0  0  0  0  0  0  0  0  0  0  0
   -0.2661   -1.7712    0.0000 C   0  0  0  0  0  0  0  0  0  0  0  0
    0.5408   -1.5996    0.0000 O   0  0  0  0  0  0  0  0  0  0  0  0
    0.1694    3.9108    0.0000 H   0  0  0  0  0  0  0  0  0  0  0  0
   -1.5306    3.3583    0.0000 H   0  0  0  0  0  0  0  0  0  0  0  0
    0.7433    2.1445    0.0000 H   0  0  0  0  0  0  0  0  0  0  0  0
   -1.8648    1.9686    0.0000 H   0  0  0  0  0  0  0  0  0  0  0  0
   -1.5342    0.9509    0.0000 H   0  0  0  0  0  0  0  0  0  0  0  0
    2.5440    1.2225    0.0000 H   0  0  0  0  0  0  0  0  0  0  0  0
    2.5440   -0.6345    0.0000 H   0  0  0  0  0  0  0  0  0  0  0  0
    0.9359   -1.5630    0.0000 H   0  0  0  0  0  0  0  0  0  0  0  0
   -2.3156   -0.5626    0.0000 H   0  0  0  0  0  0  0  0  0  0  0  0
   -2.8896   -2.3287    0.0000 H   0  0  0  0  0  0  0  0  0  0  0  0
   -2.4995   -3.7067    0.0000 H   0  0  0  0  0  0  0  0  0  0  0  0
    0.1694   -3.3228    0.0000 H   0  0  0  0  0  0  0  0  0  0  0  0
    1.1678   -2.2959    0.0000 H   0  0  0  0  0  0  0  0  0  0  0  0
  1 25  1  0  0  0  0
  1 26  1  0  0  0  0
  2  3  1  0  0  0  0
  2  1  2  0  0  0  0
  2 27  1  0  0  0  0
  3 28  1  0  0  0  0
  3 29  1  0  0  0  0
  4  3  1  0  0  0  0
  5  4  1  0  0  0  0
  6  7  1  0  0  0  0
  6  4  1  0  0  0  0
  7  8  1  0  0  0  0
  8 11  1  0  0  0  0
  8  9  1  0  0  0  0
 10  8  1  0  0  0  0
 12  7  2  0  0  0  0
 12 30  1  0  0  0  0
 13 12  1  0  0  0  0
 13 31  1  0  0  0  0
 14 13  2  0  0  0  0
 14 15  1  0  0  0  0
 14 32  1  0  0  0  0
 15 16  1  0  0  0  0
 15  6  2  0  0  0  0
 16  5  2  0  0  0  0
 17 16  1  0  0  0  0
 17 23  2  0  0  0  0
 18 17  1  0  0  0  0
 18 33  1  0  0  0  0
 19 18  2  0  0  0  0
 19 20  1  0  0  0  0
 19 34  1  0  0  0  0
 20 22  2  0  0  0  0
 21 20  1  0  0  0  0
 21 35  1  0  0  0  0
 22 23  1  0  0  0  0
 22 36  1  0  0  0  0
 23 24  1  0  0  0  0
 24 37  1  0  0  0  0
M  END
>  <DRUGBANK_ID>
DB08047

>  <COMMON_NAME>
4-[1-allyl-7-(trifluoromethyl)-1H-indazol-3-yl]benzene-1,3-diol

$$$$
