
 OpenBabel10282417072D

 36 38  0  0  0  0  0  0  0  0999 V2000
   17.2936  -10.3134    0.0000 C   0  0  0  0  0  0  0  0  0  0  0  0
   17.2797  -11.1354    0.0000 C   0  0  0  0  0  0  0  0  0  0  0  0
   18.0115   -9.9111    0.0000 C   0  0  0  0  0  0  0  0  0  0  0  0
   16.5825   -9.8868    0.0000 C   0  0  0  0  0  0  0  0  0  0  0  0
   17.9837  -11.5550    0.0000 S   0  0  0  0  0  0  0  0  0  0  0  0
   16.5617  -11.5377    0.0000 C   0  0  0  0  0  0  0  0  0  0  0  0
   18.7155  -10.3342    0.0000 C   0  0  0  0  0  0  0  0  0  0  0  0
   18.0254   -9.0857    0.0000 O   0  0  0  0  0  0  0  0  0  0  0  0
   15.8647  -10.2960    0.0000 C   0  0  0  0  0  0  0  0  0  0  0  0
   18.7017  -11.1562    0.0000 N   0  0  0  0  0  0  0  0  0  0  0  0
   18.6114  -12.1411    0.0000 O   0  0  0  0  0  0  0  0  0  0  0  0
   17.2832  -12.1828    0.0000 O   0  0  0  0  0  0  0  0  0  0  0  0
   15.8543  -11.1215    0.0000 C   0  0  0  0  0  0  0  0  0  0  0  0
   19.4369   -9.9319    0.0000 C   0  0  0  0  0  0  0  0  0  0  0  0
   19.4161  -11.5793    0.0000 C   0  0  0  0  0  0  0  0  0  0  0  0
   20.1479  -10.3585    0.0000 N   0  0  0  0  0  0  0  0  0  0  0  0
   19.4508   -9.1064    0.0000 O   0  0  0  0  0  0  0  0  0  0  0  0
   20.8693   -9.9561    0.0000 C   0  0  0  0  0  0  0  0  0  0  0  0
   21.6591  -10.1868    0.0000 N   0  0  0  0  0  0  0  0  0  0  0  0
   20.8452   -9.1265    0.0000 S   0  0  0  0  0  0  0  0  0  0  0  0
   22.1258   -9.5071    0.0000 C   0  0  0  0  0  0  0  0  0  0  0  0
   21.6250   -8.8524    0.0000 C   0  0  0  0  0  0  0  0  0  0  0  0
   21.8535   -8.0574    0.0000 C   0  0  0  0  0  0  0  0  0  0  0  0
   16.5940   -8.8549    0.0000 H   0  0  0  0  0  0  0  0  0  0  0  0
   16.5508  -12.5696    0.0000 H   0  0  0  0  0  0  0  0  0  0  0  0
   18.8446   -8.6309    0.0000 H   0  0  0  0  0  0  0  0  0  0  0  0
   14.9757   -9.7719    0.0000 H   0  0  0  0  0  0  0  0  0  0  0  0
   14.9552  -11.6282    0.0000 H   0  0  0  0  0  0  0  0  0  0  0  0
   19.4042  -12.6492    0.0000 H   0  0  0  0  0  0  0  0  0  0  0  0
   20.3486  -11.0546    0.0000 H   0  0  0  0  0  0  0  0  0  0  0  0
   20.3368  -12.1246    0.0000 H   0  0  0  0  0  0  0  0  0  0  0  0
   20.1323  -11.3429    0.0000 H   0  0  0  0  0  0  0  0  0  0  0  0
   23.1575   -9.4806    0.0000 H   0  0  0  0  0  0  0  0  0  0  0  0
   22.8919   -7.7992    0.0000 H   0  0  0  0  0  0  0  0  0  0  0  0
   21.1107   -7.2872    0.0000 H   0  0  0  0  0  0  0  0  0  0  0  0
   22.1491   -7.0290    0.0000 H   0  0  0  0  0  0  0  0  0  0  0  0
  1  2  2  0  0  0  0
  1  3  1  0  0  0  0
  1  4  1  0  0  0  0
  2  5  1  0  0  0  0
  2  6  1  0  0  0  0
  3  7  2  0  0  0  0
  3  8  1  0  0  0  0
  4  9  2  0  0  0  0
  4 24  1  0  0  0  0
  5 10  1  0  0  0  0
  5 11  2  0  0  0  0
  5 12  2  0  0  0  0
  6 13  2  0  0  0  0
  6 25  1  0  0  0  0
  7 14  1  0  0  0  0
  7 10  1  0  0  0  0
  8 26  1  0  0  0  0
  9 13  1  0  0  0  0
  9 27  1  0  0  0  0
 10 15  1  0  0  0  0
 13 28  1  0  0  0  0
 14 16  1  0  0  0  0
 14 17  2  0  0  0  0
 15 29  1  0  0  0  0
 15 30  1  0  0  0  0
 15 31  1  0  0  0  0
 16 18  1  0  0  0  0
 16 32  1  0  0  0  0
 18 19  2  0  0  0  0
 18 20  1  0  0  0  0
 19 21  1  0  0  0  0
 20 22  1  0  0  0  0
 21 22  2  0  0  0  0
 21 33  1  0  0  0  0
 22 23  1  0  0  0  0
 23 34  1  0  0  0  0
 23 35  1  0  0  0  0
 23 36  1  0  0  0  0
M  END
>  <DRUGBANK_ID>
DB00814

>  <SECONDARY_ACCESSION_NUMBERS>
APRD00529

>  <COMMON_NAME>
Meloxicam

>  <CAS_NUMBER>
71125-38-7

>  <UNII>
VG2QF83CGL

>  <SYNONYMS>
MÃ©loxicam; Meloxicam; Meloxicamum

$$$$
