
 OpenBabel10282417072D

 62 66  0  0  0  0  0  0  0  0999 V2000
    0.2184   -0.0099    0.0000 N   0  0  0  0  0  0  0  0  0  0  0  0
    0.9349    0.4033    0.0000 C   0  0  0  0  0  0  0  0  0  0  0  0
    0.9321    1.2338    0.0000 N   0  0  0  0  0  0  0  0  0  0  0  0
    0.2166    1.6430    0.0000 C   0  0  0  0  0  0  0  0  0  0  0  0
   -0.4962    0.4028    0.0000 C   0  0  0  0  0  0  0  0  0  0  0  0
   -0.4950    1.2318    0.0000 C   0  0  0  0  0  0  0  0  0  0  0  0
   -1.2831    1.4891    0.0000 N   0  0  0  0  0  0  0  0  0  0  0  0
   -1.7713    0.8192    0.0000 C   0  0  0  0  0  0  0  0  0  0  0  0
   -1.2851    0.1479    0.0000 N   0  0  0  0  0  0  0  0  0  0  0  0
    0.2148    2.4680    0.0000 N   0  0  0  0  0  0  0  0  0  0  0  0
    0.9284    2.8821    0.0000 C   0  0  0  0  0  0  0  0  0  0  0  0
    0.9266    3.7071    0.0000 N   0  0  0  0  0  0  0  0  0  0  0  0
    1.6438    2.4711    0.0000 O   0  0  0  0  0  0  0  0  0  0  0  0
    1.6402    4.1212    0.0000 C   0  0  0  0  0  0  0  0  0  0  0  0
    2.3556    3.7103    0.0000 C   0  0  0  0  0  0  0  0  0  0  0  0
   -1.2896   -0.6740    0.0000 C   0  0  2  0  0  0  0  0  0  0  0  0
   -1.9608   -1.1560    0.0000 O   0  0  0  0  0  0  0  0  0  0  0  0
   -1.7112   -1.9392    0.0000 C   0  0  1  0  0  0  0  0  0  0  0  0
   -0.6310   -1.1634    0.0000 C   0  0  1  0  0  0  0  0  0  0  0  0
   -0.8873   -1.9487    0.0000 C   0  0  2  0  0  0  0  0  0  0  0  0
   -0.2195   -2.4352    0.0000 O   0  0  0  0  0  0  0  0  0  0  0  0
    0.4492   -1.9504    0.0000 C   0  0  1  0  0  0  0  0  0  0  0  0
    0.1949   -1.1645    0.0000 O   0  0  0  0  0  0  0  0  0  0  0  0
    1.2336   -2.2063    0.0000 C   0  0  0  0  0  0  0  0  0  0  0  0
    1.9439   -1.7865    0.0000 C   0  0  0  0  0  0  0  0  0  0  0  0
    2.6624   -2.1916    0.0000 C   0  0  0  0  0  0  0  0  0  0  0  0
    2.6662   -3.0168    0.0000 C   0  0  0  0  0  0  0  0  0  0  0  0
    3.3840   -3.4219    0.0000 C   0  0  0  0  0  0  0  0  0  0  0  0
    4.0953   -3.0019    0.0000 C   0  0  0  0  0  0  0  0  0  0  0  0
    4.0841   -2.1727    0.0000 C   0  0  0  0  0  0  0  0  0  0  0  0
    3.3657   -1.7714    0.0000 C   0  0  0  0  0  0  0  0  0  0  0  0
   -2.1231   -2.6534    0.0000 C   0  0  0  0  0  0  0  0  0  0  0  0
   -2.9482   -2.6538    0.0000 O   0  0  0  0  0  0  0  0  0  0  0  0
   -1.1418   -2.7335    0.0000 H   0  0  0  0  0  0  0  0  0  0  0  0
   -0.3946   -0.3730    0.0000 H   0  0  0  0  0  0  0  0  0  0  0  0
   -3.3603   -3.3685    0.0000 P   0  0  0  0  0  0  0  0  0  0  0  0
   -3.6965   -4.1212    0.0000 O   0  0  0  0  0  0  0  0  0  0  0  0
   -4.0953   -2.9937    0.0000 O   0  0  0  0  0  0  0  0  0  0  0  0
   -2.6258   -3.7439    0.0000 O   0  0  0  0  0  0  0  0  0  0  0  0
    1.8294   -0.1114    0.0000 H   0  0  0  0  0  0  0  0  0  0  0  0
   -2.8033    0.8207    0.0000 H   0  0  0  0  0  0  0  0  0  0  0  0
   -0.6389    2.9584    0.0000 H   0  0  0  0  0  0  0  0  0  0  0  0
    0.0729    4.1975    0.0000 H   0  0  0  0  0  0  0  0  0  0  0  0
    1.6378    5.1912    0.0000 H   0  0  0  0  0  0  0  0  0  0  0  0
    2.5656    4.6583    0.0000 H   0  0  0  0  0  0  0  0  0  0  0  0
    2.3580    2.6403    0.0000 H   0  0  0  0  0  0  0  0  0  0  0  0
    3.2810    4.2474    0.0000 H   0  0  0  0  0  0  0  0  0  0  0  0
    3.2834    3.1774    0.0000 H   0  0  0  0  0  0  0  0  0  0  0  0
   -2.2403   -0.1830    0.0000 H   0  0  0  0  0  0  0  0  0  0  0  0
   -2.7750   -1.8246    0.0000 H   0  0  0  0  0  0  0  0  0  0  0  0
    0.6154   -3.0074    0.0000 H   0  0  0  0  0  0  0  0  0  0  0  0
    1.3461   -3.2322    0.0000 H   0  0  0  0  0  0  0  0  0  0  0  0
    1.9334   -0.7546    0.0000 H   0  0  0  0  0  0  0  0  0  0  0  0
    1.7762   -3.5392    0.0000 H   0  0  0  0  0  0  0  0  0  0  0  0
    3.3941   -4.4539    0.0000 H   0  0  0  0  0  0  0  0  0  0  0  0
    4.9950   -3.5075    0.0000 H   0  0  0  0  0  0  0  0  0  0  0  0
    4.9706   -1.6444    0.0000 H   0  0  0  0  0  0  0  0  0  0  0  0
    3.3507   -0.7395    0.0000 H   0  0  0  0  0  0  0  0  0  0  0  0
   -1.5877   -3.5798    0.0000 H   0  0  0  0  0  0  0  0  0  0  0  0
   -2.6577   -3.5803    0.0000 H   0  0  0  0  0  0  0  0  0  0  0  0
   -4.6613   -4.2214    0.0000 H   0  0  0  0  0  0  0  0  0  0  0  0
   -4.1458   -2.0250    0.0000 H   0  0  0  0  0  0  0  0  0  0  0  0
  1  2  2  0  0  0  0
  2  3  1  0  0  0  0
  2 40  1  0  0  0  0
  3  4  2  0  0  0  0
  4  6  1  0  0  0  0
  4 10  1  0  0  0  0
  5  6  2  0  0  0  0
  5  1  1  0  0  0  0
  6  7  1  0  0  0  0
  7  8  2  0  0  0  0
  8  9  1  0  0  0  0
  8 41  1  0  0  0  0
  9  5  1  0  0  0  0
 10 11  1  0  0  0  0
 10 42  1  0  0  0  0
 11 12  1  0  0  0  0
 11 13  2  0  0  0  0
 12 14  1  0  0  0  0
 12 43  1  0  0  0  0
 14 15  1  0  0  0  0
 14 44  1  0  0  0  0
 14 45  1  0  0  0  0
 15 46  1  0  0  0  0
 15 47  1  0  0  0  0
 15 48  1  0  0  0  0
 16  9  1  0  0  0  0
 16 17  1  0  0  0  0
 16 49  1  6  0  0  0
 17 18  1  0  0  0  0
 18 32  1  0  0  0  0
 18 20  1  0  0  0  0
 18 50  1  6  0  0  0
 19 23  1  0  0  0  0
 19 35  1  1  0  0  0
 19 16  1  0  0  0  0
 19 20  1  0  0  0  0
 20 21  1  0  0  0  0
 20 34  1  1  0  0  0
 21 22  1  0  0  0  0
 22 23  1  0  0  0  0
 22 24  1  0  0  0  0
 22 51  1  6  0  0  0
 24 25  2  0  0  0  0
 24 52  1  0  0  0  0
 25 26  1  0  0  0  0
 25 53  1  0  0  0  0
 26 27  2  0  0  0  0
 27 28  1  0  0  0  0
 27 54  1  0  0  0  0
 28 29  2  0  0  0  0
 28 55  1  0  0  0  0
 29 30  1  0  0  0  0
 29 56  1  0  0  0  0
 30 31  2  0  0  0  0
 30 57  1  0  0  0  0
 31 26  1  0  0  0  0
 31 58  1  0  0  0  0
 32 33  1  0  0  0  0
 32 59  1  0  0  0  0
 32 60  1  0  0  0  0
 33 36  1  0  0  0  0
 36 37  1  0  0  0  0
 36 38  1  0  0  0  0
 36 39  2  0  0  0  0
 37 61  1  0  0  0  0
 38 62  1  0  0  0  0
M  END
>  <DRUGBANK_ID>
DB05553

>  <COMMON_NAME>
Regrelor

>  <CAS_NUMBER>
787548-03-2

>  <UNII>
Q6C8TY6SW1

>  <SYNONYMS>
Regrelor

$$$$
