
 OpenBabel10282417072D

 72 75  0  0  1  0  0  0  0  0999 V2000
    4.7207    3.4686    0.0000 C   0  0  0  0  0  0  0  0  0  0  0  0
    4.5492    2.6616    0.0000 C   0  0  0  0  0  0  0  0  0  0  0  0
    3.7645    2.4067    0.0000 C   0  0  0  0  0  0  0  0  0  0  0  0
    5.1623    2.1096    0.0000 C   0  0  0  0  0  0  0  0  0  0  0  0
    4.9907    1.3026    0.0000 O   0  0  0  0  0  0  0  0  0  0  0  0
    5.6038    0.7506    0.0000 C   0  0  0  0  0  0  0  0  0  0  0  0
    6.3884    1.0055    0.0000 C   0  0  0  0  0  0  0  0  0  0  0  0
    7.0015    0.4535    0.0000 C   0  0  0  0  0  0  0  0  0  0  0  0
    7.7862    0.7084    0.0000 F   0  0  0  0  0  0  0  0  0  0  0  0
    6.8300   -0.3535    0.0000 C   0  0  0  0  0  0  0  0  0  0  0  0
    6.0454   -0.6084    0.0000 C   0  0  0  0  0  0  0  0  0  0  0  0
    5.4323   -0.0564    0.0000 C   0  0  0  0  0  0  0  0  0  0  0  0
    5.8739   -1.4154    0.0000 C   0  0  0  0  0  0  0  0  0  0  0  0
    6.4870   -1.9674    0.0000 C   0  0  0  0  0  0  0  0  0  0  0  0
    6.3154   -2.7744    0.0000 C   0  0  0  0  0  0  0  0  0  0  0  0
    5.5308   -3.0293    0.0000 C   0  0  0  0  0  0  0  0  0  0  0  0
    5.3593   -3.8363    0.0000 C   0  0  0  0  0  0  0  0  0  0  0  0
    4.5747   -4.0912    0.0000 O   0  0  0  0  0  0  0  0  0  0  0  0
    5.9724   -4.3883    0.0000 N   0  0  0  0  0  0  0  0  0  0  0  0
    5.8008   -5.1953    0.0000 S   0  0  0  0  0  0  0  0  0  0  0  0
    4.9939   -5.0238    0.0000 O   0  0  0  0  0  0  0  0  0  0  0  0
    6.6078   -5.3668    0.0000 O   0  0  0  0  0  0  0  0  0  0  0  0
    5.6293   -6.0023    0.0000 C   0  0  0  0  0  0  0  0  0  0  0  0
    6.2424   -6.5543    0.0000 C   0  0  0  0  0  0  0  0  0  0  0  0
    6.0709   -7.3613    0.0000 C   0  0  0  0  0  0  0  0  0  0  0  0
    5.2863   -7.6162    0.0000 C   0  0  0  0  0  0  0  0  0  0  0  0
    4.6732   -7.0642    0.0000 C   0  0  0  0  0  0  0  0  0  0  0  0
    4.8447   -6.2572    0.0000 C   0  0  0  0  0  0  0  0  0  0  0  0
    4.9177   -2.4773    0.0000 C   0  0  0  0  0  0  0  0  0  0  0  0
    5.0892   -1.6703    0.0000 N   0  0  0  0  0  0  0  0  0  0  0  0
    4.1331   -2.7322    0.0000 N   0  0  0  0  0  0  0  0  0  0  0  0
    3.8781   -3.5169    0.0000 C   0  0  0  0  0  0  0  0  0  0  0  0
    3.0531   -3.5169    0.0000 C   0  0  1  0  0  0  0  0  0  0  0  0
    2.5682   -4.1843    0.0000 C   0  0  0  0  0  0  0  0  0  0  0  0
    2.7982   -2.7322    0.0000 C   0  0  0  0  0  0  0  0  0  0  0  0
    3.4656   -2.2473    0.0000 C   0  0  0  0  0  0  0  0  0  0  0  0
    3.0607   -1.5286    0.0000 C   0  0  0  0  0  0  0  0  0  0  0  0
    3.8706   -1.5286    0.0000 C   0  0  0  0  0  0  0  0  0  0  0  0
    5.7383    3.7993    0.0000 H   0  0  0  0  0  0  0  0  0  0  0  0
    3.9255    4.1845    0.0000 H   0  0  0  0  0  0  0  0  0  0  0  0
    4.9431    4.5152    0.0000 H   0  0  0  0  0  0  0  0  0  0  0  0
    4.3267    1.6150    0.0000 H   0  0  0  0  0  0  0  0  0  0  0  0
    2.9694    3.1227    0.0000 H   0  0  0  0  0  0  0  0  0  0  0  0
    3.5420    1.3601    0.0000 H   0  0  0  0  0  0  0  0  0  0  0  0
    2.7468    2.0761    0.0000 H   0  0  0  0  0  0  0  0  0  0  0  0
    6.1799    2.4402    0.0000 H   0  0  0  0  0  0  0  0  0  0  0  0
    5.9574    1.3936    0.0000 H   0  0  0  0  0  0  0  0  0  0  0  0
    6.6030    2.0149    0.0000 H   0  0  0  0  0  0  0  0  0  0  0  0
    7.5969   -1.0440    0.0000 H   0  0  0  0  0  0  0  0  0  0  0  0
    4.4508   -0.3753    0.0000 H   0  0  0  0  0  0  0  0  0  0  0  0
    7.4685   -1.6485    0.0000 H   0  0  0  0  0  0  0  0  0  0  0  0
    7.0823   -3.4650    0.0000 H   0  0  0  0  0  0  0  0  0  0  0  0
    6.9087   -4.0841    0.0000 H   0  0  0  0  0  0  0  0  0  0  0  0
    7.2239   -6.2354    0.0000 H   0  0  0  0  0  0  0  0  0  0  0  0
    6.8378   -8.0518    0.0000 H   0  0  0  0  0  0  0  0  0  0  0  0
    5.0717   -8.6256    0.0000 H   0  0  0  0  0  0  0  0  0  0  0  0
    3.6917   -7.3831    0.0000 H   0  0  0  0  0  0  0  0  0  0  0  0
    4.0778   -5.5667    0.0000 H   0  0  0  0  0  0  0  0  0  0  0  0
    4.5070   -4.3826    0.0000 H   0  0  0  0  0  0  0  0  0  0  0  0
    3.3923   -4.4703    0.0000 H   0  0  0  0  0  0  0  0  0  0  0  0
    3.5389   -4.4703    0.0000 H   0  0  0  0  0  0  0  0  0  0  0  0
    1.5041   -4.0724    0.0000 H   0  0  0  0  0  0  0  0  0  0  0  0
    3.0034   -5.1618    0.0000 H   0  0  0  0  0  0  0  0  0  0  0  0
    1.9393   -5.0499    0.0000 H   0  0  0  0  0  0  0  0  0  0  0  0
    1.7806   -2.4015    0.0000 H   0  0  0  0  0  0  0  0  0  0  0  0
    2.6308   -1.6754    0.0000 H   0  0  0  0  0  0  0  0  0  0  0  0
    3.6054   -0.6076    0.0000 H   0  0  0  0  0  0  0  0  0  0  0  0
    1.9908   -1.5173    0.0000 H   0  0  0  0  0  0  0  0  0  0  0  0
    2.5355   -0.5964    0.0000 H   0  0  0  0  0  0  0  0  0  0  0  0
    4.9405   -1.5174    0.0000 H   0  0  0  0  0  0  0  0  0  0  0  0
    3.3260   -0.6076    0.0000 H   0  0  0  0  0  0  0  0  0  0  0  0
    4.3959   -0.5964    0.0000 H   0  0  0  0  0  0  0  0  0  0  0  0
  1  2  1  0  0  0  0
  1 39  1  0  0  0  0
  1 40  1  0  0  0  0
  1 41  1  0  0  0  0
  2  3  1  0  0  0  0
  2  4  1  0  0  0  0
  2 42  1  0  0  0  0
  3 43  1  0  0  0  0
  3 44  1  0  0  0  0
  3 45  1  0  0  0  0
  4  5  1  0  0  0  0
  4 46  1  0  0  0  0
  4 47  1  0  0  0  0
  5  6  1  0  0  0  0
  6  7  2  0  0  0  0
  6 12  1  0  0  0  0
  7  8  1  0  0  0  0
  7 48  1  0  0  0  0
  8  9  1  0  0  0  0
  8 10  2  0  0  0  0
 10 11  1  0  0  0  0
 10 49  1  0  0  0  0
 11 12  2  0  0  0  0
 11 13  1  0  0  0  0
 12 50  1  0  0  0  0
 13 14  2  0  0  0  0
 13 30  1  0  0  0  0
 14 15  1  0  0  0  0
 14 51  1  0  0  0  0
 15 16  2  0  0  0  0
 15 52  1  0  0  0  0
 16 17  1  0  0  0  0
 16 29  1  0  0  0  0
 17 18  2  0  0  0  0
 17 19  1  0  0  0  0
 19 20  1  0  0  0  0
 19 53  1  0  0  0  0
 20 21  2  0  0  0  0
 20 22  2  0  0  0  0
 20 23  1  0  0  0  0
 23 24  2  0  0  0  0
 23 28  1  0  0  0  0
 24 25  1  0  0  0  0
 24 54  1  0  0  0  0
 25 26  2  0  0  0  0
 25 55  1  0  0  0  0
 26 27  1  0  0  0  0
 26 56  1  0  0  0  0
 27 28  2  0  0  0  0
 27 57  1  0  0  0  0
 28 58  1  0  0  0  0
 29 30  2  0  0  0  0
 29 31  1  0  0  0  0
 31 32  1  0  0  0  0
 31 36  1  0  0  0  0
 32 59  1  0  0  0  0
 32 60  1  0  0  0  0
 33 32  1  0  0  0  0
 33 34  1  0  0  0  0
 33 35  1  0  0  0  0
 33 61  1  6  0  0  0
 34 62  1  0  0  0  0
 34 63  1  0  0  0  0
 34 64  1  0  0  0  0
 35 36  1  0  0  0  0
 35 65  1  0  0  0  0
 35 66  1  0  0  0  0
 36 37  1  0  0  0  0
 36 38  1  0  0  0  0
 37 67  1  0  0  0  0
 37 68  1  0  0  0  0
 37 69  1  0  0  0  0
 38 70  1  0  0  0  0
 38 71  1  0  0  0  0
 38 72  1  0  0  0  0
M  END
>  <DRUGBANK_ID>
DB16262

>  <COMMON_NAME>
Olacaftor

>  <CAS_NUMBER>
1897384-89-2

>  <UNII>
RZ7027HK8F

>  <SYNONYMS>
Olacaftor

$$$$
