
 OpenBabel10282417072D

 22 21  0  0  0  0  0  0  0  0999 V2000
   -2.5007    0.0784    0.0000 O   0  0  0  0  0  0  0  0  0  0  0  0
   -0.3572    0.4908    0.0000 N   0  0  0  0  0  0  0  0  0  0  0  0
   -1.7861    0.4908    0.0000 N   0  0  0  0  0  0  0  0  0  0  0  0
   -1.0717   -0.7466    0.0000 N   0  0  0  0  0  0  0  0  0  0  0  0
    1.0718    0.4908    0.0000 C   0  0  0  0  0  0  0  0  0  0  0  0
    1.7863    0.0784    0.0000 C   0  0  0  0  0  0  0  0  0  0  0  0
    0.3572    0.0784    0.0000 C   0  0  0  0  0  0  0  0  0  0  0  0
    2.5007    0.4908    0.0000 C   0  0  0  0  0  0  0  0  0  0  0  0
   -1.0717    0.0784    0.0000 C   0  0  0  0  0  0  0  0  0  0  0  0
   -3.3407    0.5636    0.0000 H   0  0  0  0  0  0  0  0  0  0  0  0
   -1.7860    1.4753    0.0000 H   0  0  0  0  0  0  0  0  0  0  0  0
   -1.9243   -1.2389    0.0000 H   0  0  0  0  0  0  0  0  0  0  0  0
   -0.2191   -1.2388    0.0000 H   0  0  0  0  0  0  0  0  0  0  0  0
    1.0718    1.5608    0.0000 H   0  0  0  0  0  0  0  0  0  0  0  0
    0.1452    1.0259    0.0000 H   0  0  0  0  0  0  0  0  0  0  0  0
    1.7863   -0.9916    0.0000 H   0  0  0  0  0  0  0  0  0  0  0  0
    2.7129   -0.4566    0.0000 H   0  0  0  0  0  0  0  0  0  0  0  0
    0.3571   -0.9916    0.0000 H   0  0  0  0  0  0  0  0  0  0  0  0
    1.2838   -0.4567    0.0000 H   0  0  0  0  0  0  0  0  0  0  0  0
    3.4273   -0.0443    0.0000 H   0  0  0  0  0  0  0  0  0  0  0  0
    2.5008    1.5608    0.0000 H   0  0  0  0  0  0  0  0  0  0  0  0
    3.4274    1.0257    0.0000 H   0  0  0  0  0  0  0  0  0  0  0  0
  1  3  1  0  0  0  0
  1 10  1  0  0  0  0
  2  7  1  0  0  0  0
  2  9  2  0  0  0  0
  3  9  1  0  0  0  0
  3 11  1  0  0  0  0
  4  9  1  0  0  0  0
  4 12  1  0  0  0  0
  4 13  1  0  0  0  0
  5  6  1  0  0  0  0
  5  7  1  0  0  0  0
  5 14  1  0  0  0  0
  5 15  1  0  0  0  0
  6  8  1  0  0  0  0
  6 16  1  0  0  0  0
  6 17  1  0  0  0  0
  7 18  1  0  0  0  0
  7 19  1  0  0  0  0
  8 20  1  0  0  0  0
  8 21  1  0  0  0  0
  8 22  1  0  0  0  0
M  END
>  <DRUGBANK_ID>
DB02727

>  <SECONDARY_ACCESSION_NUMBERS>
EXPT00698

>  <COMMON_NAME>
2-butyl-1-hydroxyguanidine

>  <CAS_NUMBER>
140215-98-1

>  <SYNONYMS>
N-butyl-N'-hydroxyguanidine

$$$$
