
 OpenBabel10282417072D

 39 40  0  0  0  0  0  0  0  0999 V2000
    3.8484   -3.8637    0.0000 C   0  0  0  0  0  0  0  0  0  0  0  0
    4.5652   -3.4465    0.0000 C   0  0  0  0  0  0  0  0  0  0  0  0
    3.8484   -4.6910    0.0000 C   0  0  0  0  0  0  0  0  0  0  0  0
    3.1311   -3.4465    0.0000 C   0  0  0  0  0  0  0  0  0  0  0  0
    5.2790   -3.8603    0.0000 C   0  0  1  0  0  0  0  0  0  0  0  0
    3.1311   -5.1047    0.0000 C   0  0  0  0  0  0  0  0  0  0  0  0
    2.4109   -3.8637    0.0000 C   0  0  0  0  0  0  0  0  0  0  0  0
    5.9959   -3.4465    0.0000 N   0  0  0  0  0  0  0  0  0  0  0  0
    5.2824   -4.6841    0.0000 C   0  0  0  0  0  0  0  0  0  0  0  0
    2.4109   -4.6910    0.0000 C   0  0  0  0  0  0  0  0  0  0  0  0
    6.7095   -3.8568    0.0000 C   0  0  0  0  0  0  0  0  0  0  0  0
    5.9924   -2.6193    0.0000 C   0  0  0  0  0  0  0  0  0  0  0  0
    7.4232   -3.4432    0.0000 C   0  0  0  0  0  0  0  0  0  0  0  0
    8.1367   -3.8568    0.0000 C   0  0  0  0  0  0  0  0  0  0  0  0
    7.4196   -2.6193    0.0000 C   0  0  0  0  0  0  0  0  0  0  0  0
    8.8501   -3.4432    0.0000 C   0  0  0  0  0  0  0  0  0  0  0  0
    8.1332   -2.2056    0.0000 C   0  0  0  0  0  0  0  0  0  0  0  0
    8.8467   -2.6193    0.0000 C   0  0  0  0  0  0  0  0  0  0  0  0
    4.5643   -2.3765    0.0000 H   0  0  0  0  0  0  0  0  0  0  0  0
    5.4921   -2.9119    0.0000 H   0  0  0  0  0  0  0  0  0  0  0  0
    4.7420   -5.2072    0.0000 H   0  0  0  0  0  0  0  0  0  0  0  0
    3.1320   -2.4145    0.0000 H   0  0  0  0  0  0  0  0  0  0  0  0
    4.3530   -4.3964    0.0000 H   0  0  0  0  0  0  0  0  0  0  0  0
    3.1320   -6.1367    0.0000 H   0  0  0  0  0  0  0  0  0  0  0  0
    1.5168   -3.3483    0.0000 H   0  0  0  0  0  0  0  0  0  0  0  0
    4.3580   -5.2229    0.0000 H   0  0  0  0  0  0  0  0  0  0  0  0
    6.2112   -5.2153    0.0000 H   0  0  0  0  0  0  0  0  0  0  0  0
    5.2868   -5.7541    0.0000 H   0  0  0  0  0  0  0  0  0  0  0  0
    1.5177   -5.2080    0.0000 H   0  0  0  0  0  0  0  0  0  0  0  0
    6.7113   -4.9268    0.0000 H   0  0  0  0  0  0  0  0  0  0  0  0
    7.6370   -4.3903    0.0000 H   0  0  0  0  0  0  0  0  0  0  0  0
    6.9168   -2.0804    0.0000 H   0  0  0  0  0  0  0  0  0  0  0  0
    5.0635   -2.0882    0.0000 H   0  0  0  0  0  0  0  0  0  0  0  0
    5.9879   -1.5493    0.0000 H   0  0  0  0  0  0  0  0  0  0  0  0
    8.1367   -4.8888    0.0000 H   0  0  0  0  0  0  0  0  0  0  0  0
    6.5243   -2.1061    0.0000 H   0  0  0  0  0  0  0  0  0  0  0  0
    9.7454   -3.9565    0.0000 H   0  0  0  0  0  0  0  0  0  0  0  0
    8.1332   -1.1736    0.0000 H   0  0  0  0  0  0  0  0  0  0  0  0
    9.7398   -2.1023    0.0000 H   0  0  0  0  0  0  0  0  0  0  0  0
  1  2  1  0  0  0  0
  1  3  1  0  0  0  0
  1  4  2  0  0  0  0
  2  5  1  0  0  0  0
  2 19  1  0  0  0  0
  2 20  1  0  0  0  0
  3  6  2  0  0  0  0
  3 21  1  0  0  0  0
  4  7  1  0  0  0  0
  4 22  1  0  0  0  0
  5  8  1  0  0  0  0
  5  9  1  0  0  0  0
  5 23  1  6  0  0  0
  6 10  1  0  0  0  0
  6 24  1  0  0  0  0
  7 10  2  0  0  0  0
  7 25  1  0  0  0  0
  8 11  1  0  0  0  0
  8 12  1  0  0  0  0
  9 26  1  0  0  0  0
  9 27  1  0  0  0  0
  9 28  1  0  0  0  0
 10 29  1  0  0  0  0
 11 13  1  0  0  0  0
 11 30  1  0  0  0  0
 11 31  1  0  0  0  0
 12 32  1  0  0  0  0
 12 33  1  0  0  0  0
 12 34  1  0  0  0  0
 13 14  2  0  0  0  0
 13 15  1  0  0  0  0
 14 16  1  0  0  0  0
 14 35  1  0  0  0  0
 15 17  2  0  0  0  0
 15 36  1  0  0  0  0
 16 18  2  0  0  0  0
 16 37  1  0  0  0  0
 17 18  1  0  0  0  0
 17 38  1  0  0  0  0
 18 39  1  0  0  0  0
M  END
>  <DRUGBANK_ID>
DB00865

>  <SECONDARY_ACCESSION_NUMBERS>
APRD00759

>  <COMMON_NAME>
Benzphetamine

>  <CAS_NUMBER>
156-08-1

>  <UNII>
0M3S43XK27

>  <SYNONYMS>
(+)-benzphetamine; (+)-N-benzyl-N,α-dimethylphenethylamine; (+)-N,α-dimethyl-N-(phenylmethyl)-benzeneethanamine; (S)-(+)-benzphetamine; (S)-(+)-N-benzyl-N,α-dimethylphenethylamine; (S)-benzphetamine; (αS)-N,α-dimethylphenethylamine; Benzaphetamine; Benzfetamina; Benzfetamine; Benzfetaminum; Benzphetamine; Benzylamphetamine; d-N-methyl-N-benzyl-β-phenylisopropylamine; N-methyl-1-phenyl-N-(phenylmethyl)propan-2-amine

$$$$
