
 OpenBabel10282417072D

 56 59  0  0  1  0  0  0  0  0999 V2000
    8.3346   -4.3826    0.0000 C   0  0  1  0  0  0  0  0  0  0  0  0
    8.3346   -5.2076    0.0000 C   0  0  2  0  0  0  0  0  0  0  0  0
    7.6399   -3.9484    0.0000 C   0  0  0  0  0  0  0  0  0  0  0  0
    8.3346   -3.5576    0.0000 C   0  0  0  0  0  0  0  0  0  0  0  0
    7.6399   -5.6418    0.0000 C   0  0  1  0  0  0  0  0  0  0  0  0
    6.9017   -4.3826    0.0000 C   0  0  1  0  0  0  0  0  0  0  0  0
    6.9017   -5.2076    0.0000 C   0  0  2  0  0  0  0  0  0  0  0  0
    7.6399   -6.4668    0.0000 C   0  0  0  0  0  0  0  0  0  0  0  0
    6.1636   -3.9484    0.0000 O   0  0  0  0  0  0  0  0  0  0  0  0
    6.1636   -5.6418    0.0000 C   0  0  2  0  0  0  0  0  0  0  0  0
    6.9017   -6.0760    0.0000 F   0  0  0  0  0  0  0  0  0  0  0  0
    6.9017   -6.9010    0.0000 C   0  0  0  0  0  0  0  0  0  0  0  0
    6.1636   -6.4668    0.0000 C   0  0  0  0  0  0  0  0  0  0  0  0
    5.4254   -5.2076    0.0000 C   0  0  0  0  0  0  0  0  0  0  0  0
    6.1636   -4.8168    0.0000 C   0  0  0  0  0  0  0  0  0  0  0  0
    5.4254   -6.9010    0.0000 C   0  0  0  0  0  0  0  0  0  0  0  0
    4.7307   -5.6418    0.0000 C   0  0  0  0  0  0  0  0  0  0  0  0
    4.7307   -6.4668    0.0000 C   0  0  0  0  0  0  0  0  0  0  0  0
    3.9925   -6.9010    0.0000 O   0  0  0  0  0  0  0  0  0  0  0  0
    8.3346   -6.0760    0.0000 H   0  0  0  0  0  0  0  0  0  0  0  0
    7.5965   -4.7734    0.0000 H   0  0  0  0  0  0  0  0  0  0  0  0
    9.1192   -5.4626    0.0000 C   0  0  0  0  0  0  0  0  0  0  0  0
    9.6041   -4.7951    0.0000 C   0  0  1  0  0  0  0  0  0  0  0  0
    9.1193   -4.1277    0.0000 C   0  0  2  0  0  0  0  0  0  0  0  0
    9.1148   -3.3000    0.0000 C   0  0  0  0  0  0  0  0  0  0  0  0
    9.8269   -2.8836    0.0000 C   0  0  0  0  0  0  0  0  0  0  0  0
    8.3980   -2.8914    0.0000 O   0  0  0  0  0  0  0  0  0  0  0  0
   10.5437   -3.2921    0.0000 Cl  0  0  0  0  0  0  0  0  0  0  0  0
    9.9179   -3.9374    0.0000 O   0  0  0  0  0  0  0  0  0  0  0  0
   10.4291   -4.7952    0.0000 C   0  0  0  0  0  0  0  0  0  0  0  0
    7.6543   -2.8785    0.0000 H   0  0  0  0  0  0  0  0  0  0  0  0
    6.7147   -3.4109    0.0000 H   0  0  0  0  0  0  0  0  0  0  0  0
    9.2612   -3.0226    0.0000 H   0  0  0  0  0  0  0  0  0  0  0  0
    7.4080   -3.0226    0.0000 H   0  0  0  0  0  0  0  0  0  0  0  0
    8.3346   -2.4876    0.0000 H   0  0  0  0  0  0  0  0  0  0  0  0
    6.9017   -3.3126    0.0000 H   0  0  0  0  0  0  0  0  0  0  0  0
    8.5687   -6.9980    0.0000 H   0  0  0  0  0  0  0  0  0  0  0  0
    7.6464   -7.5368    0.0000 H   0  0  0  0  0  0  0  0  0  0  0  0
    6.1715   -2.9784    0.0000 H   0  0  0  0  0  0  0  0  0  0  0  0
    6.9017   -7.9710    0.0000 H   0  0  0  0  0  0  0  0  0  0  0  0
    5.9729   -7.4322    0.0000 H   0  0  0  0  0  0  0  0  0  0  0  0
    5.4115   -4.1757    0.0000 H   0  0  0  0  0  0  0  0  0  0  0  0
    7.0902   -4.2818    0.0000 H   0  0  0  0  0  0  0  0  0  0  0  0
    5.2370   -4.2818    0.0000 H   0  0  0  0  0  0  0  0  0  0  0  0
    6.1636   -3.7468    0.0000 H   0  0  0  0  0  0  0  0  0  0  0  0
    5.4115   -7.9329    0.0000 H   0  0  0  0  0  0  0  0  0  0  0  0
    3.8281   -5.1415    0.0000 H   0  0  0  0  0  0  0  0  0  0  0  0
    9.4498   -6.4802    0.0000 H   0  0  0  0  0  0  0  0  0  0  0  0
   10.1760   -5.6300    0.0000 H   0  0  0  0  0  0  0  0  0  0  0  0
   10.0898   -5.7485    0.0000 H   0  0  0  0  0  0  0  0  0  0  0  0
    9.8209   -1.8136    0.0000 H   0  0  0  0  0  0  0  0  0  0  0  0
   10.7505   -2.3434    0.0000 H   0  0  0  0  0  0  0  0  0  0  0  0
   10.5844   -4.6421    0.0000 H   0  0  0  0  0  0  0  0  0  0  0  0
   10.9640   -5.7219    0.0000 H   0  0  0  0  0  0  0  0  0  0  0  0
   10.9642   -3.8686    0.0000 H   0  0  0  0  0  0  0  0  0  0  0  0
   11.4991   -4.7953    0.0000 H   0  0  0  0  0  0  0  0  0  0  0  0
  1  3  1  0  0  0  0
  1  4  1  1  0  0  0
  1  2  1  0  0  0  0
  2  5  1  0  0  0  0
  2 20  1  6  0  0  0
  3  6  1  0  0  0  0
  3 31  1  0  0  0  0
  3 32  1  0  0  0  0
  4 33  1  0  0  0  0
  4 34  1  0  0  0  0
  4 35  1  0  0  0  0
  5  7  1  0  0  0  0
  5  8  1  0  0  0  0
  5 21  1  1  0  0  0
  6  9  1  0  0  0  0
  6  7  1  0  0  0  0
  6 36  1  6  0  0  0
  7 10  1  0  0  0  0
  7 11  1  6  0  0  0
  8 12  1  0  0  0  0
  8 37  1  0  0  0  0
  8 38  1  0  0  0  0
  9 39  1  0  0  0  0
 10 13  1  0  0  0  0
 10 14  1  0  0  0  0
 10 15  1  1  0  0  0
 12 13  1  0  0  0  0
 12 40  1  0  0  0  0
 12 41  1  0  0  0  0
 13 16  2  0  0  0  0
 14 17  2  0  0  0  0
 14 42  1  0  0  0  0
 15 43  1  0  0  0  0
 15 44  1  0  0  0  0
 15 45  1  0  0  0  0
 16 18  1  0  0  0  0
 16 46  1  0  0  0  0
 17 18  1  0  0  0  0
 17 47  1  0  0  0  0
 18 19  2  0  0  0  0
 22  2  1  0  0  0  0
 22 48  1  0  0  0  0
 22 49  1  0  0  0  0
 23 22  1  0  0  0  0
 23 30  1  0  0  0  0
 23 50  1  6  0  0  0
 24  1  1  0  0  0  0
 24 23  1  0  0  0  0
 24 25  1  1  0  0  0
 24 29  1  0  0  0  0
 25 26  1  0  0  0  0
 25 27  2  0  0  0  0
 26 28  1  0  0  0  0
 26 51  1  0  0  0  0
 26 52  1  0  0  0  0
 29 53  1  0  0  0  0
 30 54  1  0  0  0  0
 30 55  1  0  0  0  0
 30 56  1  0  0  0  0
M  END
>  <DRUGBANK_ID>
DB11750

>  <COMMON_NAME>
Clobetasol

>  <CAS_NUMBER>
25122-41-2

>  <UNII>
ADN79D536H

>  <SYNONYMS>
Clobetasol

$$$$
