
 OpenBabel10282417072D

 70 72  0  0  0  0  0  0  0  0999 V2000
   -4.2693   -3.3825    0.0000 C   0  0  0  0  0  0  0  0  0  0  0  0
   -3.5548   -2.9700    0.0000 C   0  0  0  0  0  0  0  0  0  0  0  0
   -2.8404   -3.3825    0.0000 C   0  0  0  0  0  0  0  0  0  0  0  0
   -3.5548   -2.1450    0.0000 C   0  0  0  0  0  0  0  0  0  0  0  0
   -4.2693   -1.7325    0.0000 C   0  0  0  0  0  0  0  0  0  0  0  0
   -4.2693   -0.9075    0.0000 C   0  0  0  0  0  0  0  0  0  0  0  0
   -3.5548   -0.4950    0.0000 C   0  0  0  0  0  0  0  0  0  0  0  0
   -2.8404   -0.9075    0.0000 C   0  0  0  0  0  0  0  0  0  0  0  0
   -2.1259   -0.4950    0.0000 C   0  0  0  0  0  0  0  0  0  0  0  0
   -1.4114   -0.9075    0.0000 C   0  0  0  0  0  0  0  0  0  0  0  0
   -2.1259    0.3300    0.0000 C   0  0  0  0  0  0  0  0  0  0  0  0
   -2.8404   -1.7325    0.0000 C   0  0  0  0  0  0  0  0  0  0  0  0
   -2.1259   -2.1450    0.0000 N   0  0  0  0  0  0  0  0  0  0  0  0
   -1.4114   -1.7325    0.0000 C   0  0  0  0  0  0  0  0  0  0  0  0
   -0.9265   -1.0650    0.0000 O   0  0  0  0  0  0  0  0  0  0  0  0
   -0.6969   -2.1450    0.0000 N   0  0  0  0  0  0  0  0  0  0  0  0
    0.0175   -1.7325    0.0000 C   0  0  0  0  0  0  0  0  0  0  0  0
    0.7320   -2.1450    0.0000 C   0  0  0  0  0  0  0  0  0  0  0  0
    1.5166   -2.3999    0.0000 C   0  0  0  0  0  0  0  0  0  0  0  0
    1.5166   -3.2249    0.0000 C   0  0  0  0  0  0  0  0  0  0  0  0
    0.7320   -3.4798    0.0000 C   0  0  0  0  0  0  0  0  0  0  0  0
    0.2471   -2.8124    0.0000 C   0  0  0  0  0  0  0  0  0  0  0  0
    1.0676   -1.3913    0.0000 C   0  0  0  0  0  0  0  0  0  0  0  0
    0.5826   -0.7239    0.0000 C   0  0  0  0  0  0  0  0  0  0  0  0
    0.9182    0.0298    0.0000 C   0  0  0  0  0  0  0  0  0  0  0  0
    1.7387    0.1161    0.0000 C   0  0  0  0  0  0  0  0  0  0  0  0
    2.2236   -0.5514    0.0000 C   0  0  0  0  0  0  0  0  0  0  0  0
    1.8880   -1.3051    0.0000 C   0  0  0  0  0  0  0  0  0  0  0  0
    2.0742    0.8697    0.0000 N   0  0  0  0  0  0  0  0  0  0  0  0
    1.5893    1.5372    0.0000 C   0  0  0  0  0  0  0  0  0  0  0  0
    2.8947    0.9560    0.0000 C   0  0  0  0  0  0  0  0  0  0  0  0
   -5.1959   -2.8475    0.0000 H   0  0  0  0  0  0  0  0  0  0  0  0
   -4.2693   -4.4525    0.0000 H   0  0  0  0  0  0  0  0  0  0  0  0
   -5.1960   -3.9175    0.0000 H   0  0  0  0  0  0  0  0  0  0  0  0
   -2.6281   -2.4350    0.0000 H   0  0  0  0  0  0  0  0  0  0  0  0
   -2.8404   -4.4525    0.0000 H   0  0  0  0  0  0  0  0  0  0  0  0
   -1.9137   -2.8475    0.0000 H   0  0  0  0  0  0  0  0  0  0  0  0
   -1.9138   -3.9175    0.0000 H   0  0  0  0  0  0  0  0  0  0  0  0
   -5.1630   -2.2485    0.0000 H   0  0  0  0  0  0  0  0  0  0  0  0
   -5.1630   -0.3915    0.0000 H   0  0  0  0  0  0  0  0  0  0  0  0
   -3.5548    0.5370    0.0000 H   0  0  0  0  0  0  0  0  0  0  0  0
   -1.1993    0.0400    0.0000 H   0  0  0  0  0  0  0  0  0  0  0  0
   -1.4114   -1.9775    0.0000 H   0  0  0  0  0  0  0  0  0  0  0  0
   -0.4848   -0.3725    0.0000 H   0  0  0  0  0  0  0  0  0  0  0  0
   -0.4847   -1.4425    0.0000 H   0  0  0  0  0  0  0  0  0  0  0  0
   -1.1993    0.8650    0.0000 H   0  0  0  0  0  0  0  0  0  0  0  0
   -3.0525    0.8650    0.0000 H   0  0  0  0  0  0  0  0  0  0  0  0
   -2.1259    1.4000    0.0000 H   0  0  0  0  0  0  0  0  0  0  0  0
   -2.1259   -3.1295    0.0000 H   0  0  0  0  0  0  0  0  0  0  0  0
   -0.6969   -3.1295    0.0000 H   0  0  0  0  0  0  0  0  0  0  0  0
    0.0175   -0.6625    0.0000 H   0  0  0  0  0  0  0  0  0  0  0  0
    0.9441   -1.1975    0.0000 H   0  0  0  0  0  0  0  0  0  0  0  0
    2.3822   -1.7710    0.0000 H   0  0  0  0  0  0  0  0  0  0  0  0
    2.4700   -2.8857    0.0000 H   0  0  0  0  0  0  0  0  0  0  0  0
    2.3822   -3.8538    0.0000 H   0  0  0  0  0  0  0  0  0  0  0  0
    1.3492   -4.2817    0.0000 H   0  0  0  0  0  0  0  0  0  0  0  0
    0.4013   -4.4974    0.0000 H   0  0  0  0  0  0  0  0  0  0  0  0
   -0.3248   -3.6472    0.0000 H   0  0  0  0  0  0  0  0  0  0  0  0
   -0.8229   -2.8124    0.0000 H   0  0  0  0  0  0  0  0  0  0  0  0
   -0.2387   -1.8590    0.0000 H   0  0  0  0  0  0  0  0  0  0  0  0
   -0.4437   -0.8318    0.0000 H   0  0  0  0  0  0  0  0  0  0  0  0
    0.3116    0.8647    0.0000 H   0  0  0  0  0  0  0  0  0  0  0  0
    3.2500   -0.4436    0.0000 H   0  0  0  0  0  0  0  0  0  0  0  0
    2.4946   -2.1400    0.0000 H   0  0  0  0  0  0  0  0  0  0  0  0
    2.0246    2.5147    0.0000 H   0  0  0  0  0  0  0  0  0  0  0  0
    0.5252    1.4254    0.0000 H   0  0  0  0  0  0  0  0  0  0  0  0
    0.9604    2.4029    0.0000 H   0  0  0  0  0  0  0  0  0  0  0  0
    3.5237    0.0904    0.0000 H   0  0  0  0  0  0  0  0  0  0  0  0
    3.3298    1.9335    0.0000 H   0  0  0  0  0  0  0  0  0  0  0  0
    3.9588    1.0679    0.0000 H   0  0  0  0  0  0  0  0  0  0  0  0
  1  2  1  0  0  0  0
  1 32  1  0  0  0  0
  1 33  1  0  0  0  0
  1 34  1  0  0  0  0
  2  3  1  0  0  0  0
  2  4  1  0  0  0  0
  2 35  1  0  0  0  0
  3 36  1  0  0  0  0
  3 37  1  0  0  0  0
  3 38  1  0  0  0  0
  4  5  2  0  0  0  0
  4 12  1  0  0  0  0
  5  6  1  0  0  0  0
  5 39  1  0  0  0  0
  6  7  2  0  0  0  0
  6 40  1  0  0  0  0
  7  8  1  0  0  0  0
  7 41  1  0  0  0  0
  8  9  1  0  0  0  0
  8 12  2  0  0  0  0
  9 10  1  0  0  0  0
  9 11  1  0  0  0  0
  9 42  1  0  0  0  0
 10 43  1  0  0  0  0
 10 44  1  0  0  0  0
 10 45  1  0  0  0  0
 11 46  1  0  0  0  0
 11 47  1  0  0  0  0
 11 48  1  0  0  0  0
 12 13  1  0  0  0  0
 13 14  1  0  0  0  0
 13 49  1  0  0  0  0
 14 15  2  0  0  0  0
 14 16  1  0  0  0  0
 16 17  1  0  0  0  0
 16 50  1  0  0  0  0
 17 18  1  0  0  0  0
 17 51  1  0  0  0  0
 17 52  1  0  0  0  0
 18 19  1  0  0  0  0
 18 22  1  0  0  0  0
 18 23  1  0  0  0  0
 19 20  1  0  0  0  0
 19 53  1  0  0  0  0
 19 54  1  0  0  0  0
 20 21  1  0  0  0  0
 20 55  1  0  0  0  0
 20 56  1  0  0  0  0
 21 22  1  0  0  0  0
 21 57  1  0  0  0  0
 21 58  1  0  0  0  0
 22 59  1  0  0  0  0
 22 60  1  0  0  0  0
 23 24  2  0  0  0  0
 23 28  1  0  0  0  0
 24 25  1  0  0  0  0
 24 61  1  0  0  0  0
 25 26  2  0  0  0  0
 25 62  1  0  0  0  0
 26 27  1  0  0  0  0
 26 29  1  0  0  0  0
 27 28  2  0  0  0  0
 27 63  1  0  0  0  0
 28 64  1  0  0  0  0
 29 30  1  0  0  0  0
 29 31  1  0  0  0  0
 30 65  1  0  0  0  0
 30 66  1  0  0  0  0
 30 67  1  0  0  0  0
 31 68  1  0  0  0  0
 31 69  1  0  0  0  0
 31 70  1  0  0  0  0
M  END
>  <DRUGBANK_ID>
DB16254

>  <COMMON_NAME>
Nevanimibe

>  <CAS_NUMBER>
133825-80-6

>  <UNII>
VK9OS8R205

>  <SYNONYMS>
Atr-101 free base; Nevanimibe

$$$$
