
 OpenBabel10282417072D

 22 21  0  0  0  0  0  0  0  0999 V2000
    1.2375   -0.7145    0.0000 N   0  0  0  0  0  0  0  0  0  0  0  0
    0.8250    0.0000    0.0000 C   0  0  0  0  0  0  0  0  0  0  0  0
    1.2375    0.7145    0.0000 N   0  0  0  0  0  0  0  0  0  0  0  0
    2.0625    0.7145    0.0000 O   0  0  0  0  0  0  0  0  0  0  0  0
    0.0000    0.0000    0.0000 N   0  0  0  0  0  0  0  0  0  0  0  0
   -0.4125   -0.7145    0.0000 C   0  0  0  0  0  0  0  0  0  0  0  0
    0.0000   -1.4289    0.0000 C   0  0  0  0  0  0  0  0  0  0  0  0
   -0.4125   -2.1434    0.0000 C   0  0  0  0  0  0  0  0  0  0  0  0
    0.0000   -2.8579    0.0000 N   0  3  0  0  0  0  0  0  0  0  0  0
    0.7452   -1.5671    0.0000 H   0  0  0  0  0  0  0  0  0  0  0  0
    2.2220   -0.7145    0.0000 H   0  0  0  0  0  0  0  0  0  0  0  0
    0.7452    1.5671    0.0000 H   0  0  0  0  0  0  0  0  0  0  0  0
    2.5475   -0.1255    0.0000 H   0  0  0  0  0  0  0  0  0  0  0  0
   -1.4825   -0.7145    0.0000 H   0  0  0  0  0  0  0  0  0  0  0  0
   -0.9475   -1.6412    0.0000 H   0  0  0  0  0  0  0  0  0  0  0  0
    1.0700   -1.4289    0.0000 H   0  0  0  0  0  0  0  0  0  0  0  0
    0.5350   -2.3555    0.0000 H   0  0  0  0  0  0  0  0  0  0  0  0
   -1.4825   -2.1434    0.0000 H   0  0  0  0  0  0  0  0  0  0  0  0
   -0.9475   -3.0700    0.0000 H   0  0  0  0  0  0  0  0  0  0  0  0
   -0.5100   -3.7412    0.0000 H   0  0  0  0  0  0  0  0  0  0  0  0
    1.0200   -2.8579    0.0000 H   0  0  0  0  0  0  0  0  0  0  0  0
    0.5100   -3.7413    0.0000 H   0  0  0  0  0  0  0  0  0  0  0  0
  1  2  1  0  0  0  0
  1 10  1  0  0  0  0
  1 11  1  0  0  0  0
  2  3  1  0  0  0  0
  2  5  2  0  0  0  0
  3  4  1  0  0  0  0
  3 12  1  0  0  0  0
  4 13  1  0  0  0  0
  5  6  1  0  0  0  0
  6  7  1  0  0  0  0
  6 14  1  0  0  0  0
  6 15  1  0  0  0  0
  7  8  1  0  0  0  0
  7 16  1  0  0  0  0
  7 17  1  0  0  0  0
  8  9  1  0  0  0  0
  8 18  1  0  0  0  0
  8 19  1  0  0  0  0
  9 20  1  0  0  0  0
  9 21  1  0  0  0  0
  9 22  1  0  0  0  0
M  CHG  1   9   1
M  END
>  <DRUGBANK_ID>
DB04197

>  <SECONDARY_ACCESSION_NUMBERS>
EXPT00467

>  <COMMON_NAME>
Descarboxy-nor-N(Omega)-Hydroxy-L-Arginine

$$$$
