
 OpenBabel10282417072D

 71 77  0  0  0  0  0  0  0  0999 V2000
   -1.6996   -1.3816    0.0000 C   0  0  2  0  0  0  0  0  0  0  0  0
   -2.4422   -0.9691    0.0000 C   0  0  0  0  0  0  0  0  0  0  0  0
   -3.1433   -1.4228    0.0000 C   0  0  0  0  0  0  0  0  0  0  0  0
   -3.1433   -2.2478    0.0000 C   0  0  0  0  0  0  0  0  0  0  0  0
   -2.4009   -2.6190    0.0000 C   0  0  0  0  0  0  0  0  0  0  0  0
   -1.6996   -2.2066    0.0000 C   0  0  1  0  0  0  0  0  0  0  0  0
   -1.4521    2.6190    0.0000 C   0  0  0  0  0  0  0  0  0  0  0  0
   -0.6272    2.6190    0.0000 C   0  0  0  0  0  0  0  0  0  0  0  0
   -0.2149    1.8767    0.0000 C   0  0  2  0  0  0  0  0  0  0  0  0
   -0.6272    1.1342    0.0000 C   0  0  2  0  0  0  0  0  0  0  0  0
   -1.4521    1.1342    0.0000 C   0  0  2  0  0  0  0  0  0  0  0  0
   -1.8647    1.8354    0.0000 C   0  0  1  0  0  0  0  0  0  0  0  0
   -0.3798    0.3919    0.0000 C   0  0  0  0  0  0  0  0  0  0  0  0
   -0.9985   -0.1442    0.0000 N   0  0  0  0  0  0  0  0  0  0  0  0
   -1.6996    0.3506    0.0000 C   0  0  0  0  0  0  0  0  0  0  0  0
   -2.4833    0.1444    0.0000 O   0  0  0  0  0  0  0  0  0  0  0  0
    0.4037    0.1444    0.0000 O   0  0  0  0  0  0  0  0  0  0  0  0
   -1.0811    1.6291    0.0000 C   0  0  0  0  0  0  0  0  0  0  0  0
   -2.2358    1.1342    0.0000 H   0  0  0  0  0  0  0  0  0  0  0  0
    0.1975    1.1755    0.0000 H   0  0  0  0  0  0  0  0  0  0  0  0
   -0.9985   -0.9279    0.0000 C   0  0  0  0  0  0  0  0  0  0  0  0
   -1.0165   -2.6098    0.0000 C   0  0  0  0  0  0  0  0  0  0  0  0
   -0.3137   -2.1779    0.0000 N   0  0  0  0  0  0  0  0  0  0  0  0
   -0.3292   -1.3646    0.0000 C   0  0  0  0  0  0  0  0  0  0  0  0
    0.3735   -0.9329    0.0000 C   0  0  0  0  0  0  0  0  0  0  0  0
    1.1136   -1.3497    0.0000 N   0  0  0  0  0  0  0  0  0  0  0  0
    1.0939   -2.1845    0.0000 C   0  0  0  0  0  0  0  0  0  0  0  0
    0.3912   -2.6164    0.0000 C   0  0  0  0  0  0  0  0  0  0  0  0
    1.8166   -0.9179    0.0000 C   0  0  0  0  0  0  0  0  0  0  0  0
    1.8927   -0.0965    0.0000 C   0  0  0  0  0  0  0  0  0  0  0  0
    2.7116    0.0676    0.0000 C   0  0  0  0  0  0  0  0  0  0  0  0
    3.1433   -0.6351    0.0000 S   0  0  0  0  0  0  0  0  0  0  0  0
    2.5700   -1.2777    0.0000 N   0  0  0  0  0  0  0  0  0  0  0  0
    1.3204    0.5200    0.0000 C   0  0  0  0  0  0  0  0  0  0  0  0
    1.5669    1.3007    0.0000 C   0  0  0  0  0  0  0  0  0  0  0  0
    2.3859    1.4648    0.0000 C   0  0  0  0  0  0  0  0  0  0  0  0
    2.9581    0.8483    0.0000 C   0  0  0  0  0  0  0  0  0  0  0  0
   -1.7356   -0.3122    0.0000 H   0  0  0  0  0  0  0  0  0  0  0  0
   -2.4782    0.1003    0.0000 H   0  0  0  0  0  0  0  0  0  0  0  0
   -3.3906   -0.4737    0.0000 H   0  0  0  0  0  0  0  0  0  0  0  0
   -4.0832   -0.9115    0.0000 H   0  0  0  0  0  0  0  0  0  0  0  0
   -4.0631   -1.9695    0.0000 H   0  0  0  0  0  0  0  0  0  0  0  0
   -4.0535   -2.8103    0.0000 H   0  0  0  0  0  0  0  0  0  0  0  0
   -3.0952   -3.3167    0.0000 H   0  0  0  0  0  0  0  0  0  0  0  0
   -2.3646   -3.6884    0.0000 H   0  0  0  0  0  0  0  0  0  0  0  0
   -1.4632   -3.1344    0.0000 H   0  0  0  0  0  0  0  0  0  0  0  0
   -1.7005   -3.2766    0.0000 H   0  0  0  0  0  0  0  0  0  0  0  0
   -2.0050    3.5351    0.0000 H   0  0  0  0  0  0  0  0  0  0  0  0
   -2.5216    2.5878    0.0000 H   0  0  0  0  0  0  0  0  0  0  0  0
   -0.0845    3.5412    0.0000 H   0  0  0  0  0  0  0  0  0  0  0  0
    0.4427    2.6057    0.0000 H   0  0  0  0  0  0  0  0  0  0  0  0
   -1.2035    2.2862    0.0000 H   0  0  0  0  0  0  0  0  0  0  0  0
   -1.0117    1.1894    0.0000 H   0  0  0  0  0  0  0  0  0  0  0  0
   -1.0699    0.5592    0.0000 H   0  0  0  0  0  0  0  0  0  0  0  0
   -0.2235    0.9893    0.0000 H   0  0  0  0  0  0  0  0  0  0  0  0
   -0.0586   -1.4392    0.0000 H   0  0  0  0  0  0  0  0  0  0  0  0
   -0.9578   -1.9971    0.0000 H   0  0  0  0  0  0  0  0  0  0  0  0
   -1.0070   -3.6798    0.0000 H   0  0  0  0  0  0  0  0  0  0  0  0
   -0.0803   -3.1279    0.0000 H   0  0  0  0  0  0  0  0  0  0  0  0
   -1.2680   -0.8512    0.0000 H   0  0  0  0  0  0  0  0  0  0  0  0
   -0.3562   -0.2949    0.0000 H   0  0  0  0  0  0  0  0  0  0  0  0
    0.3532    0.1369    0.0000 H   0  0  0  0  0  0  0  0  0  0  0  0
    1.2921   -0.3842    0.0000 H   0  0  0  0  0  0  0  0  0  0  0  0
    2.0216   -2.7177    0.0000 H   0  0  0  0  0  0  0  0  0  0  0  0
    1.1097   -3.2544    0.0000 H   0  0  0  0  0  0  0  0  0  0  0  0
    0.3883   -3.6864    0.0000 H   0  0  0  0  0  0  0  0  0  0  0  0
   -0.5448   -3.1348    0.0000 H   0  0  0  0  0  0  0  0  0  0  0  0
    0.3135    0.2936    0.0000 H   0  0  0  0  0  0  0  0  0  0  0  0
    0.8776    2.0688    0.0000 H   0  0  0  0  0  0  0  0  0  0  0  0
    2.7031    2.4468    0.0000 H   0  0  0  0  0  0  0  0  0  0  0  0
    3.9650    1.0747    0.0000 H   0  0  0  0  0  0  0  0  0  0  0  0
  1  2  1  0  0  0  0
  1  6  1  0  0  0  0
  1 21  1  0  0  0  0
  1 38  1  6  0  0  0
  2  3  1  0  0  0  0
  2 39  1  0  0  0  0
  2 40  1  0  0  0  0
  3  4  1  0  0  0  0
  3 41  1  0  0  0  0
  3 42  1  0  0  0  0
  4  5  1  0  0  0  0
  4 43  1  0  0  0  0
  4 44  1  0  0  0  0
  5  6  1  0  0  0  0
  5 45  1  0  0  0  0
  5 46  1  0  0  0  0
  6 22  1  0  0  0  0
  6 47  1  1  0  0  0
  7  8  1  0  0  0  0
  7 12  1  0  0  0  0
  7 48  1  0  0  0  0
  7 49  1  0  0  0  0
  8  9  1  0  0  0  0
  8 50  1  0  0  0  0
  8 51  1  0  0  0  0
  9 10  1  0  0  0  0
  9 18  1  0  0  0  0
  9 52  1  1  0  0  0
 10 11  1  0  0  0  0
 10 20  1  6  0  0  0
 10 13  1  0  0  0  0
 11 12  1  0  0  0  0
 11 15  1  0  0  0  0
 11 19  1  6  0  0  0
 12 18  1  0  0  0  0
 12 53  1  1  0  0  0
 13 14  1  0  0  0  0
 13 17  2  0  0  0  0
 14 15  1  0  0  0  0
 14 21  1  0  0  0  0
 15 16  2  0  0  0  0
 18 54  1  0  0  0  0
 18 55  1  0  0  0  0
 21 56  1  0  0  0  0
 21 57  1  0  0  0  0
 22 23  1  0  0  0  0
 22 58  1  0  0  0  0
 22 59  1  0  0  0  0
 23 24  1  0  0  0  0
 23 28  1  0  0  0  0
 24 25  1  0  0  0  0
 24 60  1  0  0  0  0
 24 61  1  0  0  0  0
 25 26  1  0  0  0  0
 25 62  1  0  0  0  0
 25 63  1  0  0  0  0
 26 27  1  0  0  0  0
 26 29  1  0  0  0  0
 27 28  1  0  0  0  0
 27 64  1  0  0  0  0
 27 65  1  0  0  0  0
 28 66  1  0  0  0  0
 28 67  1  0  0  0  0
 29 30  1  0  0  0  0
 29 33  2  0  0  0  0
 30 31  1  0  0  0  0
 30 34  2  0  0  0  0
 31 32  1  0  0  0  0
 31 37  2  0  0  0  0
 32 33  1  0  0  0  0
 34 35  1  0  0  0  0
 34 68  1  0  0  0  0
 35 36  2  0  0  0  0
 35 69  1  0  0  0  0
 36 37  1  0  0  0  0
 36 70  1  0  0  0  0
 37 71  1  0  0  0  0
M  END
>  <DRUGBANK_ID>
DB08815

>  <COMMON_NAME>
Lurasidone

>  <CAS_NUMBER>
367514-87-2

>  <UNII>
22IC88528T

>  <SYNONYMS>
Lurasidona; Lurasidone; Lurasidonum

$$$$
