
 OpenBabel10282417072D

 57 60  0  0  0  0  0  0  0  0999 V2000
    4.8104   -5.1513    0.0000 C   0  0  0  0  0  0  0  0  0  0  0  0
    4.8104   -4.3263    0.0000 C   0  0  0  0  0  0  0  0  0  0  0  0
    5.5249   -3.9138    0.0000 C   0  0  0  0  0  0  0  0  0  0  0  0
    6.2393   -4.3263    0.0000 C   0  0  0  0  0  0  0  0  0  0  0  0
    6.2393   -5.1513    0.0000 C   0  0  0  0  0  0  0  0  0  0  0  0
    5.5249   -5.5638    0.0000 C   0  0  0  0  0  0  0  0  0  0  0  0
    5.5249   -6.3888    0.0000 C   0  0  0  0  0  0  0  0  0  0  0  0
    6.2393   -6.8013    0.0000 C   0  0  0  0  0  0  0  0  0  0  0  0
    6.2393   -7.6263    0.0000 C   0  0  0  0  0  0  0  0  0  0  0  0
    6.9538   -8.0388    0.0000 C   0  0  0  0  0  0  0  0  0  0  0  0
    6.9538   -8.8638    0.0000 N   0  0  0  0  0  0  0  0  0  0  0  0
    7.6212   -9.3487    0.0000 C   0  0  0  0  0  0  0  0  0  0  0  0
    7.3663  -10.1333    0.0000 C   0  0  0  0  0  0  0  0  0  0  0  0
    6.5413  -10.1333    0.0000 N   0  0  0  0  0  0  0  0  0  0  0  0
    6.2864   -9.3487    0.0000 N   0  0  0  0  0  0  0  0  0  0  0  0
    5.5249   -3.0888    0.0000 O   0  0  0  0  0  0  0  0  0  0  0  0
    6.2393   -2.6763    0.0000 C   0  0  0  0  0  0  0  0  0  0  0  0
    6.2393   -1.8513    0.0000 C   0  0  0  0  0  0  0  0  0  0  0  0
    5.5719   -1.3664    0.0000 C   0  0  0  0  0  0  0  0  0  0  0  0
    5.8268   -0.5817    0.0000 O   0  0  0  0  0  0  0  0  0  0  0  0
    6.6518   -0.5817    0.0000 C   0  0  0  0  0  0  0  0  0  0  0  0
    6.9068   -1.3664    0.0000 N   0  0  0  0  0  0  0  0  0  0  0  0
    7.1368    0.0857    0.0000 C   0  0  0  0  0  0  0  0  0  0  0  0
    6.8012    0.8394    0.0000 C   0  0  0  0  0  0  0  0  0  0  0  0
    7.2861    1.5068    0.0000 C   0  0  0  0  0  0  0  0  0  0  0  0
    6.9506    2.2605    0.0000 C   0  0  0  0  0  0  0  0  0  0  0  0
    7.4355    2.9279    0.0000 C   0  0  0  0  0  0  0  0  0  0  0  0
    8.2560    2.8417    0.0000 C   0  0  0  0  0  0  0  0  0  0  0  0
    8.5915    2.0880    0.0000 C   0  0  0  0  0  0  0  0  0  0  0  0
    8.1066    1.4206    0.0000 C   0  0  0  0  0  0  0  0  0  0  0  0
    8.7409    3.5091    0.0000 C   0  0  0  0  0  0  0  0  0  0  0  0
    9.2258    4.1766    0.0000 F   0  0  0  0  0  0  0  0  0  0  0  0
    9.4083    3.0242    0.0000 F   0  0  0  0  0  0  0  0  0  0  0  0
    8.0735    3.9940    0.0000 F   0  0  0  0  0  0  0  0  0  0  0  0
    3.9167   -5.6673    0.0000 H   0  0  0  0  0  0  0  0  0  0  0  0
    3.9167   -3.8103    0.0000 H   0  0  0  0  0  0  0  0  0  0  0  0
    7.1330   -3.8103    0.0000 H   0  0  0  0  0  0  0  0  0  0  0  0
    7.1330   -5.6673    0.0000 H   0  0  0  0  0  0  0  0  0  0  0  0
    4.5982   -6.9238    0.0000 H   0  0  0  0  0  0  0  0  0  0  0  0
    5.5249   -7.4588    0.0000 H   0  0  0  0  0  0  0  0  0  0  0  0
    7.1660   -6.2663    0.0000 H   0  0  0  0  0  0  0  0  0  0  0  0
    7.1659   -7.3363    0.0000 H   0  0  0  0  0  0  0  0  0  0  0  0
    5.3127   -8.1613    0.0000 H   0  0  0  0  0  0  0  0  0  0  0  0
    6.2393   -8.6963    0.0000 H   0  0  0  0  0  0  0  0  0  0  0  0
    7.8804   -7.5038    0.0000 H   0  0  0  0  0  0  0  0  0  0  0  0
    7.8804   -8.5738    0.0000 H   0  0  0  0  0  0  0  0  0  0  0  0
    8.6027   -9.0298    0.0000 H   0  0  0  0  0  0  0  0  0  0  0  0
    7.9729  -10.9682    0.0000 H   0  0  0  0  0  0  0  0  0  0  0  0
    7.1660   -3.2113    0.0000 H   0  0  0  0  0  0  0  0  0  0  0  0
    7.1659   -2.1413    0.0000 H   0  0  0  0  0  0  0  0  0  0  0  0
    4.5904   -1.6853    0.0000 H   0  0  0  0  0  0  0  0  0  0  0  0
    8.1631   -0.0222    0.0000 H   0  0  0  0  0  0  0  0  0  0  0  0
    5.7749    0.9473    0.0000 H   0  0  0  0  0  0  0  0  0  0  0  0
    5.9243    2.3684    0.0000 H   0  0  0  0  0  0  0  0  0  0  0  0
    7.0157    3.8707    0.0000 H   0  0  0  0  0  0  0  0  0  0  0  0
    9.6178    1.9801    0.0000 H   0  0  0  0  0  0  0  0  0  0  0  0
    8.5264    0.4778    0.0000 H   0  0  0  0  0  0  0  0  0  0  0  0
  1  2  2  0  0  0  0
  1  6  1  0  0  0  0
  1 35  1  0  0  0  0
  2  3  1  0  0  0  0
  2 36  1  0  0  0  0
  3  4  2  0  0  0  0
  3 16  1  0  0  0  0
  4  5  1  0  0  0  0
  4 37  1  0  0  0  0
  5  6  2  0  0  0  0
  5 38  1  0  0  0  0
  6  7  1  0  0  0  0
  7  8  1  0  0  0  0
  7 39  1  0  0  0  0
  7 40  1  0  0  0  0
  8  9  1  0  0  0  0
  8 41  1  0  0  0  0
  8 42  1  0  0  0  0
  9 10  1  0  0  0  0
  9 43  1  0  0  0  0
  9 44  1  0  0  0  0
 10 11  1  0  0  0  0
 10 45  1  0  0  0  0
 10 46  1  0  0  0  0
 11 12  1  0  0  0  0
 11 15  1  0  0  0  0
 12 13  2  0  0  0  0
 12 47  1  0  0  0  0
 13 14  1  0  0  0  0
 13 48  1  0  0  0  0
 14 15  2  0  0  0  0
 16 17  1  0  0  0  0
 17 18  1  0  0  0  0
 17 49  1  0  0  0  0
 17 50  1  0  0  0  0
 18 19  2  0  0  0  0
 18 22  1  0  0  0  0
 19 20  1  0  0  0  0
 19 51  1  0  0  0  0
 20 21  1  0  0  0  0
 21 22  2  0  0  0  0
 21 23  1  0  0  0  0
 23 24  2  0  0  0  0
 23 52  1  0  0  0  0
 24 25  1  0  0  0  0
 24 53  1  0  0  0  0
 25 26  2  0  0  0  0
 25 30  1  0  0  0  0
 26 27  1  0  0  0  0
 26 54  1  0  0  0  0
 27 28  2  0  0  0  0
 27 55  1  0  0  0  0
 28 29  1  0  0  0  0
 28 31  1  0  0  0  0
 29 30  2  0  0  0  0
 29 56  1  0  0  0  0
 30 57  1  0  0  0  0
 31 32  1  0  0  0  0
 31 33  1  0  0  0  0
 31 34  1  0  0  0  0
M  END
>  <DRUGBANK_ID>
DB12682

>  <COMMON_NAME>
Mubritinib

>  <CAS_NUMBER>
366017-09-6

>  <UNII>
V734AZP9BR

>  <SYNONYMS>
Mubritinib

$$$$
