
 OpenBabel10282417072D

 27 28  0  0  0  0  0  0  0  0999 V2000
   -0.1189    0.4125    0.0000 C   0  0  1  0  0  0  0  0  0  0  0  0
    0.5955    0.0000    0.0000 C   0  0  0  0  0  0  0  0  0  0  0  0
    0.5955   -0.8250    0.0000 C   0  0  0  0  0  0  0  0  0  0  0  0
   -0.1189   -1.2374    0.0000 C   0  0  2  0  0  0  0  0  0  0  0  0
   -0.8333   -0.8250    0.0000 C   0  0  0  0  0  0  0  0  0  0  0  0
   -0.8334    0.0000    0.0000 C   0  0  0  0  0  0  0  0  0  0  0  0
   -0.5952   -0.4125    0.0000 C   0  0  0  0  0  0  0  0  0  0  0  0
   -0.1189    1.2374    0.0000 C   0  0  0  0  0  0  0  0  0  0  0  0
    1.3098    0.4124    0.0000 O   0  0  0  0  0  0  0  0  0  0  0  0
   -1.3098   -0.8250    0.0000 C   0  0  0  0  0  0  0  0  0  0  0  0
   -1.3097    0.0000    0.0000 C   0  0  0  0  0  0  0  0  0  0  0  0
    1.5221   -1.3600    0.0000 H   0  0  0  0  0  0  0  0  0  0  0  0
    1.5222   -0.2900    0.0000 H   0  0  0  0  0  0  0  0  0  0  0  0
   -0.8755   -0.4808    0.0000 H   0  0  0  0  0  0  0  0  0  0  0  0
   -1.7599   -1.3601    0.0000 H   0  0  0  0  0  0  0  0  0  0  0  0
   -1.7600   -0.2901    0.0000 H   0  0  0  0  0  0  0  0  0  0  0  0
   -1.7601    0.5350    0.0000 H   0  0  0  0  0  0  0  0  0  0  0  0
   -1.7600   -0.5351    0.0000 H   0  0  0  0  0  0  0  0  0  0  0  0
    0.8077    1.7724    0.0000 H   0  0  0  0  0  0  0  0  0  0  0  0
   -1.0455    1.7724    0.0000 H   0  0  0  0  0  0  0  0  0  0  0  0
   -0.1189    2.3074    0.0000 H   0  0  0  0  0  0  0  0  0  0  0  0
   -2.2364   -0.2899    0.0000 H   0  0  0  0  0  0  0  0  0  0  0  0
   -1.3099   -1.8950    0.0000 H   0  0  0  0  0  0  0  0  0  0  0  0
   -2.2365   -1.3599    0.0000 H   0  0  0  0  0  0  0  0  0  0  0  0
   -1.3097    1.0700    0.0000 H   0  0  0  0  0  0  0  0  0  0  0  0
   -2.2363   -0.5350    0.0000 H   0  0  0  0  0  0  0  0  0  0  0  0
   -2.2364    0.5350    0.0000 H   0  0  0  0  0  0  0  0  0  0  0  0
  1  7  1  0  0  0  0
  1  8  1  1  0  0  0
  1  2  1  0  0  0  0
  2  9  2  0  0  0  0
  2  3  1  0  0  0  0
  3 12  1  0  0  0  0
  3 13  1  0  0  0  0
  4  5  1  0  0  0  0
  4  7  1  0  0  0  0
  4  3  1  0  0  0  0
  4 14  1  1  0  0  0
  5  6  1  0  0  0  0
  5 15  1  0  0  0  0
  5 16  1  0  0  0  0
  6  1  1  0  0  0  0
  6 17  1  0  0  0  0
  6 18  1  0  0  0  0
  8 19  1  0  0  0  0
  8 20  1  0  0  0  0
  8 21  1  0  0  0  0
 10  7  1  0  0  0  0
 10 22  1  0  0  0  0
 10 23  1  0  0  0  0
 10 24  1  0  0  0  0
 11  7  1  0  0  0  0
 11 25  1  0  0  0  0
 11 26  1  0  0  0  0
 11 27  1  0  0  0  0
M  END
>  <DRUGBANK_ID>
DB11345

>  <COMMON_NAME>
(S)-camphor

>  <CAS_NUMBER>
464-48-2

>  <UNII>
213N3S8275

>  <SYNONYMS>
(−)-bornan-2-one; (−)-camphor; (1S,4S)-camphor; (1S)-(−)-camphor; l-camphor

$$$$
