
 OpenBabel10282417072D

139144  0  0  0  0  0  0  0  0999 V2000
    4.8051    0.8831    0.0000 N   0  3  1  0  0  0  0  0  0  0  0  0
   -4.9852    0.7810    0.0000 N   0  3  1  0  0  0  0  0  0  0  0  0
    6.2114    0.8831    0.0000 C   0  0  0  0  0  0  0  0  0  0  0  0
   -6.4012    0.7810    0.0000 C   0  0  0  0  0  0  0  0  0  0  0  0
   -5.6908    0.3917    0.0000 C   0  0  1  0  0  0  0  0  0  0  0  0
    5.4912    0.4647    0.0000 C   0  0  1  0  0  0  0  0  0  0  0  0
    6.2114    1.7153    0.0000 C   0  0  0  0  0  0  0  0  0  0  0  0
   -6.4012    1.6422    0.0000 C   0  0  0  0  0  0  0  0  0  0  0  0
    6.9219    0.4647    0.0000 C   0  0  0  0  0  0  0  0  0  0  0  0
   -7.1165    0.3917    0.0000 C   0  0  0  0  0  0  0  0  0  0  0  0
    7.6518    0.8831    0.0000 C   0  0  0  0  0  0  0  0  0  0  0  0
   -7.8465    0.7810    0.0000 C   0  0  0  0  0  0  0  0  0  0  0  0
   -7.1165    2.0267    0.0000 C   0  0  0  0  0  0  0  0  0  0  0  0
    6.9219    2.1240    0.0000 C   0  0  0  0  0  0  0  0  0  0  0  0
    7.6518    1.7153    0.0000 C   0  0  0  0  0  0  0  0  0  0  0  0
   -7.8465    1.6422    0.0000 C   0  0  0  0  0  0  0  0  0  0  0  0
    3.4378    0.8005    0.0000 C   0  0  0  0  0  0  0  0  0  0  0  0
   -3.5692    0.7810    0.0000 C   0  0  0  0  0  0  0  0  0  0  0  0
    4.1044    0.4647    0.0000 C   0  0  0  0  0  0  0  0  0  0  0  0
   -4.2991    0.3917    0.0000 C   0  0  0  0  0  0  0  0  0  0  0  0
    2.7760    0.4647    0.0000 C   0  0  0  0  0  0  0  0  0  0  0  0
   -2.8685    0.3917    0.0000 C   0  0  0  0  0  0  0  0  0  0  0  0
    7.7005   -0.7955    0.0000 C   0  0  0  0  0  0  0  0  0  0  0  0
   -7.8318   -0.8344    0.0000 C   0  0  0  0  0  0  0  0  0  0  0  0
   -4.9852    1.6422    0.0000 C   0  0  0  0  0  0  0  0  0  0  0  0
    4.8051    1.7153    0.0000 C   0  0  0  0  0  0  0  0  0  0  0  0
    5.4912   -0.4598    0.0000 C   0  0  0  0  0  0  0  0  0  0  0  0
   -5.6908   -0.4452    0.0000 C   0  0  0  0  0  0  0  0  0  0  0  0
    7.7005   -1.6373    0.0000 C   0  0  0  0  0  0  0  0  0  0  0  0
   -7.8318   -1.6860    0.0000 C   0  0  0  0  0  0  0  0  0  0  0  0
   -7.1165   -0.4598    0.0000 C   0  0  0  0  0  0  0  0  0  0  0  0
    7.0143   -0.3819    0.0000 C   0  0  0  0  0  0  0  0  0  0  0  0
   -5.6908    2.0267    0.0000 C   0  0  0  0  0  0  0  0  0  0  0  0
    5.4912    2.1240    0.0000 C   0  0  0  0  0  0  0  0  0  0  0  0
    6.2845   -0.7955    0.0000 C   0  0  0  0  0  0  0  0  0  0  0  0
   -6.3866   -0.8344    0.0000 C   0  0  0  0  0  0  0  0  0  0  0  0
    2.7760   -0.3138    0.0000 O   0  0  0  0  0  0  0  0  0  0  0  0
   -2.8685   -0.3819    0.0000 O   0  0  0  0  0  0  0  0  0  0  0  0
   -7.1165   -2.1240    0.0000 C   0  0  0  0  0  0  0  0  0  0  0  0
    7.0143   -2.0656    0.0000 C   0  0  0  0  0  0  0  0  0  0  0  0
    6.2845   -1.6373    0.0000 C   0  0  0  0  0  0  0  0  0  0  0  0
   -6.3866   -1.6860    0.0000 C   0  0  0  0  0  0  0  0  0  0  0  0
    4.0801    1.5741    0.0000 C   0  0  0  0  0  0  0  0  0  0  0  0
   -4.0363    1.6568    0.0000 C   0  0  0  0  0  0  0  0  0  0  0  0
   -8.5375    0.3917    0.0000 O   0  0  0  0  0  0  0  0  0  0  0  0
    8.4742    0.4306    0.0000 O   0  0  0  0  0  0  0  0  0  0  0  0
   -8.5375    2.0267    0.0000 O   0  0  0  0  0  0  0  0  0  0  0  0
    8.3282    2.1240    0.0000 O   0  0  0  0  0  0  0  0  0  0  0  0
    8.4011   -0.3576    0.0000 O   0  0  0  0  0  0  0  0  0  0  0  0
   -8.5180   -0.3819    0.0000 O   0  0  0  0  0  0  0  0  0  0  0  0
   -2.1823    0.7810    0.0000 O   0  0  0  0  0  0  0  0  0  0  0  0
    2.1483    0.8686    0.0000 O   0  0  0  0  0  0  0  0  0  0  0  0
    8.5180   -2.0899    0.0000 O   0  0  0  0  0  0  0  0  0  0  0  0
   -8.5180   -2.0656    0.0000 O   0  0  0  0  0  0  0  0  0  0  0  0
   -1.4525    0.4647    0.0000 C   0  0  0  0  0  0  0  0  0  0  0  0
    1.4525    0.4647    0.0000 C   0  0  0  0  0  0  0  0  0  0  0  0
    9.1116   -0.7664    0.0000 C   0  0  0  0  0  0  0  0  0  0  0  0
   -9.2478    1.6568    0.0000 C   0  0  0  0  0  0  0  0  0  0  0  0
    9.1311    0.7810    0.0000 C   0  0  0  0  0  0  0  0  0  0  0  0
   -9.2478   -0.7664    0.0000 C   0  0  0  0  0  0  0  0  0  0  0  0
   -9.2771    0.7664    0.0000 C   0  0  0  0  0  0  0  0  0  0  0  0
    9.0240    1.7153    0.0000 C   0  0  0  0  0  0  0  0  0  0  0  0
    9.2771   -1.6373    0.0000 C   0  0  0  0  0  0  0  0  0  0  0  0
   -9.2382   -1.6860    0.0000 C   0  0  0  0  0  0  0  0  0  0  0  0
    0.7079    0.7810    0.0000 C   0  0  0  0  0  0  0  0  0  0  0  0
   -0.7517    0.7810    0.0000 C   0  0  0  0  0  0  0  0  0  0  0  0
    0.0219    0.4647    0.0000 C   0  0  0  0  0  0  0  0  0  0  0  0
   -6.6114   -0.1536    0.0000 H   0  0  0  0  0  0  0  0  0  0  0  0
    6.4186   -0.0691    0.0000 H   0  0  0  0  0  0  0  0  0  0  0  0
    6.9159   -0.5673    0.0000 H   0  0  0  0  0  0  0  0  0  0  0  0
   -7.1121   -0.6403    0.0000 H   0  0  0  0  0  0  0  0  0  0  0  0
   -7.1121    3.0587    0.0000 H   0  0  0  0  0  0  0  0  0  0  0  0
    6.9159    3.1560    0.0000 H   0  0  0  0  0  0  0  0  0  0  0  0
    3.4362    1.8705    0.0000 H   0  0  0  0  0  0  0  0  0  0  0  0
    2.5255    1.3597    0.0000 H   0  0  0  0  0  0  0  0  0  0  0  0
   -3.5600    1.8510    0.0000 H   0  0  0  0  0  0  0  0  0  0  0  0
   -4.4844    1.3354    0.0000 H   0  0  0  0  0  0  0  0  0  0  0  0
    4.1427   -0.6046    0.0000 H   0  0  0  0  0  0  0  0  0  0  0  0
    5.0443   -0.0467    0.0000 H   0  0  0  0  0  0  0  0  0  0  0  0
   -4.3131   -0.6782    0.0000 H   0  0  0  0  0  0  0  0  0  0  0  0
   -3.3852   -0.1648    0.0000 H   0  0  0  0  0  0  0  0  0  0  0  0
   -4.0652    2.1886    0.0000 H   0  0  0  0  0  0  0  0  0  0  0  0
   -5.0050    2.7120    0.0000 H   0  0  0  0  0  0  0  0  0  0  0  0
    3.8748    2.2440    0.0000 H   0  0  0  0  0  0  0  0  0  0  0  0
    4.7942    2.7852    0.0000 H   0  0  0  0  0  0  0  0  0  0  0  0
    4.5993   -1.0509    0.0000 H   0  0  0  0  0  0  0  0  0  0  0  0
    5.5900   -1.5252    0.0000 H   0  0  0  0  0  0  0  0  0  0  0  0
   -4.7678   -0.9865    0.0000 H   0  0  0  0  0  0  0  0  0  0  0  0
   -5.7017   -1.5151    0.0000 H   0  0  0  0  0  0  0  0  0  0  0  0
   -7.1208    0.5722    0.0000 H   0  0  0  0  0  0  0  0  0  0  0  0
    7.0281    0.6500    0.0000 H   0  0  0  0  0  0  0  0  0  0  0  0
   -5.6893    3.0967    0.0000 H   0  0  0  0  0  0  0  0  0  0  0  0
   -4.7704    2.5724    0.0000 H   0  0  0  0  0  0  0  0  0  0  0  0
    5.4799    3.1939    0.0000 H   0  0  0  0  0  0  0  0  0  0  0  0
    4.5582    2.6478    0.0000 H   0  0  0  0  0  0  0  0  0  0  0  0
   -7.1211   -3.1560    0.0000 H   0  0  0  0  0  0  0  0  0  0  0  0
    7.0284   -3.0975    0.0000 H   0  0  0  0  0  0  0  0  0  0  0  0
    5.3889   -2.1501    0.0000 H   0  0  0  0  0  0  0  0  0  0  0  0
   -5.4885   -2.1944    0.0000 H   0  0  0  0  0  0  0  0  0  0  0  0
    4.3321    2.6140    0.0000 H   0  0  0  0  0  0  0  0  0  0  0  0
    3.0535    1.2724    0.0000 H   0  0  0  0  0  0  0  0  0  0  0  0
    3.3056    2.3123    0.0000 H   0  0  0  0  0  0  0  0  0  0  0  0
   -3.0147    1.3387    0.0000 H   0  0  0  0  0  0  0  0  0  0  0  0
   -4.2716    2.7006    0.0000 H   0  0  0  0  0  0  0  0  0  0  0  0
   -3.2500    2.3825    0.0000 H   0  0  0  0  0  0  0  0  0  0  0  0
   -1.4445   -0.6053    0.0000 H   0  0  0  0  0  0  0  0  0  0  0  0
   -0.5515   -0.1124    0.0000 H   0  0  0  0  0  0  0  0  0  0  0  0
    1.5189   -0.6032    0.0000 H   0  0  0  0  0  0  0  0  0  0  0  0
    0.5789   -0.1532    0.0000 H   0  0  0  0  0  0  0  0  0  0  0  0
    9.1132   -1.8364    0.0000 H   0  0  0  0  0  0  0  0  0  0  0  0
   10.0375   -0.2300    0.0000 H   0  0  0  0  0  0  0  0  0  0  0  0
   10.0390   -1.3000    0.0000 H   0  0  0  0  0  0  0  0  0  0  0  0
  -10.1503    2.2316    0.0000 H   0  0  0  0  0  0  0  0  0  0  0  0
   -9.2943    0.5878    0.0000 H   0  0  0  0  0  0  0  0  0  0  0  0
  -10.1968    1.1626    0.0000 H   0  0  0  0  0  0  0  0  0  0  0  0
   10.0393    0.2152    0.0000 H   0  0  0  0  0  0  0  0  0  0  0  0
    9.1670    1.8504    0.0000 H   0  0  0  0  0  0  0  0  0  0  0  0
   10.0752    1.2846    0.0000 H   0  0  0  0  0  0  0  0  0  0  0  0
  -10.1531   -0.1960    0.0000 H   0  0  0  0  0  0  0  0  0  0  0  0
   -9.2892   -1.8356    0.0000 H   0  0  0  0  0  0  0  0  0  0  0  0
  -10.1945   -1.2651    0.0000 H   0  0  0  0  0  0  0  0  0  0  0  0
   -9.3356    1.8348    0.0000 H   0  0  0  0  0  0  0  0  0  0  0  0
  -10.1731    0.1816    0.0000 H   0  0  0  0  0  0  0  0  0  0  0  0
  -10.2316    1.2500    0.0000 H   0  0  0  0  0  0  0  0  0  0  0  0
    9.0160    0.6453    0.0000 H   0  0  0  0  0  0  0  0  0  0  0  0
    9.9546    2.2433    0.0000 H   0  0  0  0  0  0  0  0  0  0  0  0
    9.9466    1.1734    0.0000 H   0  0  0  0  0  0  0  0  0  0  0  0
   10.2112   -2.1592    0.0000 H   0  0  0  0  0  0  0  0  0  0  0  0
    9.2621   -0.5674    0.0000 H   0  0  0  0  0  0  0  0  0  0  0  0
   10.1961   -1.0893    0.0000 H   0  0  0  0  0  0  0  0  0  0  0  0
   -9.2794   -0.6168    0.0000 H   0  0  0  0  0  0  0  0  0  0  0  0
  -10.1436   -2.2563    0.0000 H   0  0  0  0  0  0  0  0  0  0  0  0
  -10.1848   -1.1871    0.0000 H   0  0  0  0  0  0  0  0  0  0  0  0
    0.6917    1.8509    0.0000 H   0  0  0  0  0  0  0  0  0  0  0  0
   -0.1976    1.3510    0.0000 H   0  0  0  0  0  0  0  0  0  0  0  0
   -0.7709    1.8508    0.0000 H   0  0  0  0  0  0  0  0  0  0  0  0
    0.1312    1.3854    0.0000 H   0  0  0  0  0  0  0  0  0  0  0  0
    0.0454   -0.6050    0.0000 H   0  0  0  0  0  0  0  0  0  0  0  0
    0.9294   -0.1022    0.0000 H   0  0  0  0  0  0  0  0  0  0  0  0
  1 19  1  1  0  0  0
  2 20  1  6  0  0  0
  3  6  1  0  0  0  0
  4  5  1  0  0  0  0
  5  2  1  0  0  0  0
  5 28  1  0  0  0  0
  5 68  1  1  0  0  0
  6  1  1  0  0  0  0
  6 27  1  0  0  0  0
  6 69  1  6  0  0  0
  7 34  1  0  0  0  0
  7  3  2  0  0  0  0
  8 33  1  0  0  0  0
  8  4  2  0  0  0  0
  9  3  1  0  0  0  0
  9 70  1  0  0  0  0
 10  4  1  0  0  0  0
 10 71  1  0  0  0  0
 11  9  2  0  0  0  0
 12 10  2  0  0  0  0
 13  8  1  0  0  0  0
 13 72  1  0  0  0  0
 14  7  1  0  0  0  0
 14 73  1  0  0  0  0
 15 14  2  0  0  0  0
 15 11  1  0  0  0  0
 16 13  2  0  0  0  0
 16 12  1  0  0  0  0
 17 19  1  0  0  0  0
 17 74  1  0  0  0  0
 17 75  1  0  0  0  0
 18 22  1  0  0  0  0
 18 76  1  0  0  0  0
 18 77  1  0  0  0  0
 19 78  1  0  0  0  0
 19 79  1  0  0  0  0
 20 18  1  0  0  0  0
 20 80  1  0  0  0  0
 20 81  1  0  0  0  0
 21 17  1  0  0  0  0
 22 51  1  0  0  0  0
 23 32  1  0  0  0  0
 24 31  1  0  0  0  0
 25  2  1  0  0  0  0
 25 82  1  0  0  0  0
 25 83  1  0  0  0  0
 26  1  1  0  0  0  0
 26 84  1  0  0  0  0
 26 85  1  0  0  0  0
 27 86  1  0  0  0  0
 27 87  1  0  0  0  0
 28 88  1  0  0  0  0
 28 89  1  0  0  0  0
 29 40  1  0  0  0  0
 29 23  2  0  0  0  0
 30 39  1  0  0  0  0
 30 24  2  0  0  0  0
 31 36  2  0  0  0  0
 31 90  1  0  0  0  0
 32 35  2  0  0  0  0
 32 91  1  0  0  0  0
 33 25  1  0  0  0  0
 33 92  1  0  0  0  0
 33 93  1  0  0  0  0
 34 26  1  0  0  0  0
 34 94  1  0  0  0  0
 34 95  1  0  0  0  0
 35 27  1  0  0  0  0
 36 28  1  0  0  0  0
 37 21  2  0  0  0  0
 38 22  2  0  0  0  0
 39 42  2  0  0  0  0
 39 96  1  0  0  0  0
 40 41  2  0  0  0  0
 40 97  1  0  0  0  0
 41 35  1  0  0  0  0
 41 98  1  0  0  0  0
 42 36  1  0  0  0  0
 42 99  1  0  0  0  0
 43  1  1  0  0  0  0
 43100  1  0  0  0  0
 43101  1  0  0  0  0
 43102  1  0  0  0  0
 44  2  1  0  0  0  0
 44103  1  0  0  0  0
 44104  1  0  0  0  0
 44105  1  0  0  0  0
 45 12  1  0  0  0  0
 46 11  1  0  0  0  0
 47 16  1  0  0  0  0
 48 15  1  0  0  0  0
 49 23  1  0  0  0  0
 50 24  1  0  0  0  0
 51 55  1  0  0  0  0
 52 21  1  0  0  0  0
 53 29  1  0  0  0  0
 54 30  1  0  0  0  0
 55 66  1  0  0  0  0
 55106  1  0  0  0  0
 55107  1  0  0  0  0
 56 52  1  0  0  0  0
 56108  1  0  0  0  0
 56109  1  0  0  0  0
 57 49  1  0  0  0  0
 57110  1  0  0  0  0
 57111  1  0  0  0  0
 57112  1  0  0  0  0
 58 47  1  0  0  0  0
 58113  1  0  0  0  0
 58114  1  0  0  0  0
 58115  1  0  0  0  0
 59 46  1  0  0  0  0
 59116  1  0  0  0  0
 59117  1  0  0  0  0
 59118  1  0  0  0  0
 60 50  1  0  0  0  0
 60119  1  0  0  0  0
 60120  1  0  0  0  0
 60121  1  0  0  0  0
 61 45  1  0  0  0  0
 61122  1  0  0  0  0
 61123  1  0  0  0  0
 61124  1  0  0  0  0
 62 48  1  0  0  0  0
 62125  1  0  0  0  0
 62126  1  0  0  0  0
 62127  1  0  0  0  0
 63 53  1  0  0  0  0
 63128  1  0  0  0  0
 63129  1  0  0  0  0
 63130  1  0  0  0  0
 64 54  1  0  0  0  0
 64131  1  0  0  0  0
 64132  1  0  0  0  0
 64133  1  0  0  0  0
 65 56  1  0  0  0  0
 65134  1  0  0  0  0
 65135  1  0  0  0  0
 66 67  1  0  0  0  0
 66136  1  0  0  0  0
 66137  1  0  0  0  0
 67 65  1  0  0  0  0
 67138  1  0  0  0  0
 67139  1  0  0  0  0
M  CHG  2   1   1   2   1
M  END
>  <DRUGBANK_ID>
DB00565

>  <SECONDARY_ACCESSION_NUMBERS>
APRD00874

>  <COMMON_NAME>
Cisatracurium

>  <CAS_NUMBER>
96946-41-7

>  <UNII>
QX62KLI41N

>  <SYNONYMS>
(1r,2r,1'r,2'r)-2,2'-{pentane-1,5-diylbis[oxy(3-oxopropane-3,1-diyl)]}bis[1-(3,4-dimethoxybenzyl)-6,7-dimethoxy-2-methyl-1,2,3,4-tetrahydroisoquinolinium]; Cisatracurium cation; Cisatracurium ion

$$$$
