39Z
 OpenBabel10282417072D

 30 32  0  0  0  0  0  0  0  0999 V2000
   -2.3599   -0.9849    0.0000 C   0  0  0  0  0  0  0  0  0  0  0  0
   -1.8750   -1.6523    0.0000 C   0  0  0  0  0  0  0  0  0  0  0  0
   -1.0903   -0.5724    0.0000 C   0  0  0  0  0  0  0  0  0  0  0  0
   -1.0903   -1.3974    0.0000 C   0  0  0  0  0  0  0  0  0  0  0  0
   -0.3759   -1.8099    0.0000 C   0  0  0  0  0  0  0  0  0  0  0  0
    0.3386   -1.3974    0.0000 C   0  0  0  0  0  0  0  0  0  0  0  0
    0.3386   -0.5724    0.0000 C   0  0  0  0  0  0  0  0  0  0  0  0
   -0.3759   -0.1599    0.0000 C   0  0  0  0  0  0  0  0  0  0  0  0
   -2.1299   -2.4369    0.0000 C   0  0  1  0  0  0  0  0  0  0  0  0
   -2.9369   -2.6085    0.0000 C   0  0  0  0  0  0  0  0  0  0  0  0
   -1.5779   -3.0500    0.0000 C   0  0  0  0  0  0  0  0  0  0  0  0
   -3.1849   -0.9849    0.0000 O   0  0  0  0  0  0  0  0  0  0  0  0
   -1.8750   -0.3174    0.0000 N   0  0  0  0  0  0  0  0  0  0  0  0
    1.0531   -1.8099    0.0000 O   0  0  0  0  0  0  0  0  0  0  0  0
   -1.7494   -3.8570    0.0000 C   0  0  0  0  0  0  0  0  0  0  0  0
   -1.0349   -4.2695    0.0000 C   0  0  0  0  0  0  0  0  0  0  0  0
   -0.4218   -3.7175    0.0000 C   0  0  0  0  0  0  0  0  0  0  0  0
   -0.7574   -2.9638    0.0000 N   0  0  0  0  0  0  0  0  0  0  0  0
   -2.5206   -2.0030    0.0000 H   0  0  0  0  0  0  0  0  0  0  0  0
   -0.3759   -2.8419    0.0000 H   0  0  0  0  0  0  0  0  0  0  0  0
    1.2323   -0.0564    0.0000 H   0  0  0  0  0  0  0  0  0  0  0  0
   -0.3759    0.8721    0.0000 H   0  0  0  0  0  0  0  0  0  0  0  0
   -3.6529   -1.8134    0.0000 H   0  0  0  0  0  0  0  0  0  0  0  0
   -3.2675   -3.6262    0.0000 H   0  0  0  0  0  0  0  0  0  0  0  0
   -3.9835   -2.8310    0.0000 H   0  0  0  0  0  0  0  0  0  0  0  0
    1.0531   -2.7469    0.0000 H   0  0  0  0  0  0  0  0  0  0  0  0
   -2.6922   -4.2768    0.0000 H   0  0  0  0  0  0  0  0  0  0  0  0
   -0.9270   -5.2958    0.0000 H   0  0  0  0  0  0  0  0  0  0  0  0
    0.5876   -3.9321    0.0000 H   0  0  0  0  0  0  0  0  0  0  0  0
   -0.2651   -2.1112    0.0000 H   0  0  0  0  0  0  0  0  0  0  0  0
  1 13  1  0  0  0  0
  1  2  1  0  0  0  0
  1 12  2  0  0  0  0
  2  4  2  0  0  0  0
  2  9  1  0  0  0  0
  3  8  1  0  0  0  0
  3 13  2  0  0  0  0
  3  4  1  0  0  0  0
  4  5  1  0  0  0  0
  5  6  2  0  0  0  0
  5 20  1  0  0  0  0
  6  7  1  0  0  0  0
  6 14  1  0  0  0  0
  7  8  2  0  0  0  0
  7 21  1  0  0  0  0
  8 22  1  0  0  0  0
  9 10  1  0  0  0  0
  9 11  1  0  0  0  0
  9 19  1  1  0  0  0
 10 23  1  0  0  0  0
 10 24  1  0  0  0  0
 10 25  1  0  0  0  0
 11 18  1  0  0  0  0
 11 15  2  0  0  0  0
 14 26  1  0  0  0  0
 15 16  1  0  0  0  0
 15 27  1  0  0  0  0
 16 17  2  0  0  0  0
 16 28  1  0  0  0  0
 17 18  1  0  0  0  0
 17 29  1  0  0  0  0
 18 30  1  0  0  0  0
M  END
>  <DRUGBANK_ID>
DB07033

>  <COMMON_NAME>
5-HYDROXY-3-[(1R)-1-(1H-PYRROL-2-YL)ETHYL]-2H-INDOL-2-ONE

$$$$
