
 OpenBabel10282417072D

 69 72  0  0  0  0  0  0  0  0999 V2000
    0.3196   -1.4640    0.0000 C   0  0  1  0  0  0  0  0  0  0  0  0
   -0.3914   -1.8823    0.0000 C   0  0  1  0  0  0  0  0  0  0  0  0
    0.3196   -0.6692    0.0000 C   0  0  1  0  0  0  0  0  0  0  0  0
    1.7000   -1.4640    0.0000 C   0  0  0  0  0  0  0  0  0  0  0  0
   -1.1024   -1.4640    0.0000 C   0  0  1  0  0  0  0  0  0  0  0  0
   -0.3914   -2.6770    0.0000 C   0  0  0  0  0  0  0  0  0  0  0  0
    1.0307   -0.2509    0.0000 C   0  0  2  0  0  0  0  0  0  0  0  0
   -0.3914   -0.2509    0.0000 C   0  0  0  0  0  0  0  0  0  0  0  0
    0.3196    0.1673    0.0000 C   0  0  0  0  0  0  0  0  0  0  0  0
    1.7000   -0.6692    0.0000 C   0  0  0  0  0  0  0  0  0  0  0  0
   -1.8135   -1.8823    0.0000 C   0  0  2  0  0  0  0  0  0  0  0  0
   -1.1024   -0.6692    0.0000 C   0  0  2  0  0  0  0  0  0  0  0  0
   -1.1024   -3.0953    0.0000 C   0  0  0  0  0  0  0  0  0  0  0  0
    1.0307    0.5856    0.0000 C   0  0  0  0  0  0  0  0  0  0  0  0
   -1.8135   -2.6770    0.0000 C   0  0  0  0  0  0  0  0  0  0  0  0
   -2.5246   -1.4640    0.0000 C   0  0  0  0  0  0  0  0  0  0  0  0
   -1.8135   -1.0457    0.0000 C   0  0  0  0  0  0  0  0  0  0  0  0
   -1.8135   -0.2509    0.0000 O   0  0  0  0  0  0  0  0  0  0  0  0
    1.7418    1.0038    0.0000 C   0  0  0  0  0  0  0  0  0  0  0  0
    0.3196    1.0038    0.0000 O   0  0  0  0  0  0  0  0  0  0  0  0
   -2.5246   -3.0953    0.0000 C   0  0  0  0  0  0  0  0  0  0  0  0
   -3.2357   -1.8823    0.0000 C   0  0  0  0  0  0  0  0  0  0  0  0
   -3.2357   -2.6770    0.0000 C   0  0  0  0  0  0  0  0  0  0  0  0
   -3.9468   -3.0953    0.0000 O   0  0  0  0  0  0  0  0  0  0  0  0
    0.3196   -2.3006    0.0000 H   0  0  0  0  0  0  0  0  0  0  0  0
   -0.3914   -1.0457    0.0000 H   0  0  0  0  0  0  0  0  0  0  0  0
   -1.1024   -2.3006    0.0000 H   0  0  0  0  0  0  0  0  0  0  0  0
    1.8255   -0.0418    0.0000 O   0  0  0  0  0  0  0  0  0  0  0  0
    2.4994   -0.5375    0.0000 C   0  0  0  0  0  0  0  0  0  0  0  0
    2.4979   -1.3803    0.0000 O   0  0  0  0  0  0  0  0  0  0  0  0
    3.2400   -0.1637    0.0000 C   0  0  0  0  0  0  0  0  0  0  0  0
    3.9468   -0.6267    0.0000 C   0  0  0  0  0  0  0  0  0  0  0  0
    1.7350    1.8404    0.0000 O   0  0  0  0  0  0  0  0  0  0  0  0
    2.4611    2.2676    0.0000 C   0  0  0  0  0  0  0  0  0  0  0  0
    3.1866    1.8566    0.0000 C   0  0  0  0  0  0  0  0  0  0  0  0
    2.4543    3.0953    0.0000 O   0  0  0  0  0  0  0  0  0  0  0  0
    2.4566   -2.2206    0.0000 H   0  0  0  0  0  0  0  0  0  0  0  0
    2.6886   -1.0545    0.0000 H   0  0  0  0  0  0  0  0  0  0  0  0
    0.5374   -3.2082    0.0000 H   0  0  0  0  0  0  0  0  0  0  0  0
   -0.3848   -3.7470    0.0000 H   0  0  0  0  0  0  0  0  0  0  0  0
   -0.3914    0.8191    0.0000 H   0  0  0  0  0  0  0  0  0  0  0  0
   -1.3202    0.2803    0.0000 H   0  0  0  0  0  0  0  0  0  0  0  0
    1.2462    0.7023    0.0000 H   0  0  0  0  0  0  0  0  0  0  0  0
   -0.6070    0.7023    0.0000 H   0  0  0  0  0  0  0  0  0  0  0  0
    0.3196    1.2373    0.0000 H   0  0  0  0  0  0  0  0  0  0  0  0
    2.6359   -0.1505    0.0000 H   0  0  0  0  0  0  0  0  0  0  0  0
    1.7281    0.4004    0.0000 H   0  0  0  0  0  0  0  0  0  0  0  0
   -2.0312   -1.2004    0.0000 H   0  0  0  0  0  0  0  0  0  0  0  0
   -1.1024   -4.1653    0.0000 H   0  0  0  0  0  0  0  0  0  0  0  0
   -2.0312   -3.6265    0.0000 H   0  0  0  0  0  0  0  0  0  0  0  0
   -2.5246   -0.3940    0.0000 H   0  0  0  0  0  0  0  0  0  0  0  0
   -3.4534   -0.9328    0.0000 H   0  0  0  0  0  0  0  0  0  0  0  0
   -0.8869   -0.5107    0.0000 H   0  0  0  0  0  0  0  0  0  0  0  0
   -2.7401   -0.5107    0.0000 H   0  0  0  0  0  0  0  0  0  0  0  0
   -1.8135    0.0243    0.0000 H   0  0  0  0  0  0  0  0  0  0  0  0
   -1.8056    0.7191    0.0000 H   0  0  0  0  0  0  0  0  0  0  0  0
    2.6727    0.4763    0.0000 H   0  0  0  0  0  0  0  0  0  0  0  0
    2.6641    1.5463    0.0000 H   0  0  0  0  0  0  0  0  0  0  0  0
   -2.5246   -4.1273    0.0000 H   0  0  0  0  0  0  0  0  0  0  0  0
   -4.1645   -1.3511    0.0000 H   0  0  0  0  0  0  0  0  0  0  0  0
   -4.1613   -2.4192    0.0000 H   0  0  0  0  0  0  0  0  0  0  0  0
    3.3002    0.9046    0.0000 H   0  0  0  0  0  0  0  0  0  0  0  0
    4.1953    0.3183    0.0000 H   0  0  0  0  0  0  0  0  0  0  0  0
    3.8866   -1.6950    0.0000 H   0  0  0  0  0  0  0  0  0  0  0  0
    4.9021   -0.1447    0.0000 H   0  0  0  0  0  0  0  0  0  0  0  0
    4.8419   -1.2130    0.0000 H   0  0  0  0  0  0  0  0  0  0  0  0
    3.1953    0.7866    0.0000 H   0  0  0  0  0  0  0  0  0  0  0  0
    4.1088    2.3992    0.0000 H   0  0  0  0  0  0  0  0  0  0  0  0
    4.1176    1.3292    0.0000 H   0  0  0  0  0  0  0  0  0  0  0  0
  1  2  1  0  0  0  0
  1  3  1  0  0  0  0
  1  4  1  0  0  0  0
  1 25  1  6  0  0  0
  2  5  1  0  0  0  0
  2  6  1  0  0  0  0
  2 26  1  1  0  0  0
  3  7  1  0  0  0  0
  3  8  1  0  0  0  0
  3  9  1  1  0  0  0
  4 10  1  0  0  0  0
  4 37  1  0  0  0  0
  4 38  1  0  0  0  0
  5 11  1  0  0  0  0
  5 12  1  0  0  0  0
  5 27  1  6  0  0  0
  6 13  1  0  0  0  0
  6 39  1  0  0  0  0
  6 40  1  0  0  0  0
  7 14  1  1  0  0  0
  7 10  1  0  0  0  0
  7 28  1  0  0  0  0
  8 12  1  0  0  0  0
  8 41  1  0  0  0  0
  8 42  1  0  0  0  0
  9 43  1  0  0  0  0
  9 44  1  0  0  0  0
  9 45  1  0  0  0  0
 10 46  1  0  0  0  0
 10 47  1  0  0  0  0
 11 15  1  0  0  0  0
 11 16  1  0  0  0  0
 11 17  1  1  0  0  0
 12 18  1  0  0  0  0
 12 48  1  6  0  0  0
 13 15  1  0  0  0  0
 13 49  1  0  0  0  0
 13 50  1  0  0  0  0
 14 19  1  0  0  0  0
 14 20  2  0  0  0  0
 15 21  2  0  0  0  0
 16 22  1  0  0  0  0
 16 51  1  0  0  0  0
 16 52  1  0  0  0  0
 17 53  1  0  0  0  0
 17 54  1  0  0  0  0
 17 55  1  0  0  0  0
 18 56  1  0  0  0  0
 19 33  1  0  0  0  0
 19 57  1  0  0  0  0
 19 58  1  0  0  0  0
 21 23  1  0  0  0  0
 21 59  1  0  0  0  0
 22 23  1  0  0  0  0
 22 60  1  0  0  0  0
 22 61  1  0  0  0  0
 23 24  2  0  0  0  0
 28 29  1  0  0  0  0
 29 30  2  0  0  0  0
 29 31  1  0  0  0  0
 31 32  1  0  0  0  0
 31 62  1  0  0  0  0
 31 63  1  0  0  0  0
 32 64  1  0  0  0  0
 32 65  1  0  0  0  0
 32 66  1  0  0  0  0
 33 34  1  0  0  0  0
 34 35  1  0  0  0  0
 34 36  2  0  0  0  0
 35 67  1  0  0  0  0
 35 68  1  0  0  0  0
 35 69  1  0  0  0  0
M  END
>  <DRUGBANK_ID>
DB14538

>  <SECONDARY_ACCESSION_NUMBERS>
DBSALT001278

>  <COMMON_NAME>
Hydrocortisone aceponate

>  <CAS_NUMBER>
74050-20-7

>  <UNII>
2340UP1L2G

>  <SYNONYMS>
Hydrocortisone aceponate

$$$$
