
 OpenBabel10282417072D

 54 57  0  0  1  0  0  0  0  0999 V2000
    5.6091    2.4134    0.0000 C   0  0  0  0  0  0  0  0  0  0  0  0
    6.3235    2.0009    0.0000 O   0  0  0  0  0  0  0  0  0  0  0  0
    6.3235    1.1759    0.0000 C   0  0  0  0  0  0  0  0  0  0  0  0
    7.0380    0.7634    0.0000 C   0  0  0  0  0  0  0  0  0  0  0  0
    7.0380   -0.0616    0.0000 C   0  0  0  0  0  0  0  0  0  0  0  0
    6.3235   -0.4741    0.0000 C   0  0  0  0  0  0  0  0  0  0  0  0
    5.6091   -0.0616    0.0000 C   0  0  0  0  0  0  0  0  0  0  0  0
    5.6091    0.7634    0.0000 C   0  0  0  0  0  0  0  0  0  0  0  0
    4.8946    1.1759    0.0000 C   0  0  0  0  0  0  0  0  0  0  0  0
    4.8946    2.0009    0.0000 N   0  0  0  0  0  0  0  0  0  0  0  0
    4.1801    2.4134    0.0000 C   0  0  1  0  0  0  0  0  0  0  0  0
    3.4656    2.0009    0.0000 C   0  0  0  0  0  0  0  0  0  0  0  0
    2.7512    2.4134    0.0000 C   0  0  0  0  0  0  0  0  0  0  0  0
    2.7512    3.2384    0.0000 C   0  0  0  0  0  0  0  0  0  0  0  0
    3.4656    3.6509    0.0000 N   0  0  0  0  0  0  0  0  0  0  0  0
    4.1801    3.2384    0.0000 C   0  0  1  0  0  0  0  0  0  0  0  0
    4.8946    3.6509    0.0000 C   0  0  0  0  0  0  0  0  0  0  0  0
    4.8946    4.4759    0.0000 C   0  0  0  0  0  0  0  0  0  0  0  0
    5.6091    4.8884    0.0000 C   0  0  0  0  0  0  0  0  0  0  0  0
    6.3235    4.4759    0.0000 C   0  0  0  0  0  0  0  0  0  0  0  0
    6.3235    3.6509    0.0000 C   0  0  0  0  0  0  0  0  0  0  0  0
    5.6091    3.2384    0.0000 C   0  0  0  0  0  0  0  0  0  0  0  0
    6.3235   -1.2991    0.0000 N   0  0  0  0  0  0  0  0  0  0  0  0
    6.9910   -1.7840    0.0000 C   0  0  0  0  0  0  0  0  0  0  0  0
    6.7360   -2.5687    0.0000 N   0  0  0  0  0  0  0  0  0  0  0  0
    5.9110   -2.5687    0.0000 N   0  0  0  0  0  0  0  0  0  0  0  0
    5.6561   -1.7840    0.0000 N   0  0  0  0  0  0  0  0  0  0  0  0
    7.7756   -1.5291    0.0000 C   0  0  0  0  0  0  0  0  0  0  0  0
    8.5602   -1.2742    0.0000 F   0  0  0  0  0  0  0  0  0  0  0  0
    8.0305   -2.3137    0.0000 F   0  0  0  0  0  0  0  0  0  0  0  0
    7.5207   -0.7445    0.0000 F   0  0  0  0  0  0  0  0  0  0  0  0
    5.6091    3.4834    0.0000 H   0  0  0  0  0  0  0  0  0  0  0  0
    4.6824    1.8784    0.0000 H   0  0  0  0  0  0  0  0  0  0  0  0
    4.6825    2.9484    0.0000 H   0  0  0  0  0  0  0  0  0  0  0  0
    7.9317    1.2794    0.0000 H   0  0  0  0  0  0  0  0  0  0  0  0
    7.9317   -0.5776    0.0000 H   0  0  0  0  0  0  0  0  0  0  0  0
    4.7154   -0.5776    0.0000 H   0  0  0  0  0  0  0  0  0  0  0  0
    3.9680    0.6409    0.0000 H   0  0  0  0  0  0  0  0  0  0  0  0
    3.9680    1.7109    0.0000 H   0  0  0  0  0  0  0  0  0  0  0  0
    5.7779    2.5109    0.0000 H   0  0  0  0  0  0  0  0  0  0  0  0
    4.1801    1.3434    0.0000 H   0  0  0  0  0  0  0  0  0  0  0  0
    3.4656    0.9309    0.0000 H   0  0  0  0  0  0  0  0  0  0  0  0
    2.5389    1.4659    0.0000 H   0  0  0  0  0  0  0  0  0  0  0  0
    1.8245    1.8784    0.0000 H   0  0  0  0  0  0  0  0  0  0  0  0
    1.8246    2.9484    0.0000 H   0  0  0  0  0  0  0  0  0  0  0  0
    1.8245    3.7734    0.0000 H   0  0  0  0  0  0  0  0  0  0  0  0
    2.7512    4.3084    0.0000 H   0  0  0  0  0  0  0  0  0  0  0  0
    3.4656    4.6709    0.0000 H   0  0  0  0  0  0  0  0  0  0  0  0
    4.1801    4.3084    0.0000 H   0  0  0  0  0  0  0  0  0  0  0  0
    4.0009    4.9919    0.0000 H   0  0  0  0  0  0  0  0  0  0  0  0
    5.6091    5.9204    0.0000 H   0  0  0  0  0  0  0  0  0  0  0  0
    7.2172    4.9919    0.0000 H   0  0  0  0  0  0  0  0  0  0  0  0
    7.2172    3.1349    0.0000 H   0  0  0  0  0  0  0  0  0  0  0  0
    5.6091    2.2064    0.0000 H   0  0  0  0  0  0  0  0  0  0  0  0
  1  2  1  0  0  0  0
  1 32  1  0  0  0  0
  1 33  1  0  0  0  0
  1 34  1  0  0  0  0
  2  3  1  0  0  0  0
  3  4  2  0  0  0  0
  3  8  1  0  0  0  0
  4  5  1  0  0  0  0
  4 35  1  0  0  0  0
  5  6  2  0  0  0  0
  5 36  1  0  0  0  0
  6  7  1  0  0  0  0
  6 23  1  0  0  0  0
  7  8  2  0  0  0  0
  7 37  1  0  0  0  0
  8  9  1  0  0  0  0
  9 10  1  0  0  0  0
  9 38  1  0  0  0  0
  9 39  1  0  0  0  0
 10 40  1  0  0  0  0
 11 10  1  0  0  0  0
 11 12  1  0  0  0  0
 11 16  1  0  0  0  0
 11 41  1  6  0  0  0
 12 13  1  0  0  0  0
 12 42  1  0  0  0  0
 12 43  1  0  0  0  0
 13 14  1  0  0  0  0
 13 44  1  0  0  0  0
 13 45  1  0  0  0  0
 14 15  1  0  0  0  0
 14 46  1  0  0  0  0
 14 47  1  0  0  0  0
 15 16  1  0  0  0  0
 15 48  1  0  0  0  0
 16 17  1  0  0  0  0
 16 49  1  6  0  0  0
 17 18  2  0  0  0  0
 17 22  1  0  0  0  0
 18 19  1  0  0  0  0
 18 50  1  0  0  0  0
 19 20  2  0  0  0  0
 19 51  1  0  0  0  0
 20 21  1  0  0  0  0
 20 52  1  0  0  0  0
 21 22  2  0  0  0  0
 21 53  1  0  0  0  0
 22 54  1  0  0  0  0
 23 24  1  0  0  0  0
 23 27  1  0  0  0  0
 24 25  2  0  0  0  0
 24 28  1  0  0  0  0
 25 26  1  0  0  0  0
 26 27  2  0  0  0  0
 28 29  1  0  0  0  0
 28 30  1  0  0  0  0
 28 31  1  0  0  0  0
M  END
>  <DRUGBANK_ID>
DB12436

>  <COMMON_NAME>
Vofopitant

>  <CAS_NUMBER>
168266-90-8

>  <UNII>
K08BK043YS

>  <SYNONYMS>
Vofopitant

$$$$
