S14
 OpenBabel10282417072D

 56 59  0  0  0  0  0  0  0  0999 V2000
    2.1385    3.4221    0.0000 C   0  0  0  0  0  0  0  0  0  0  0  0
    2.5510    2.7076    0.0000 C   0  0  0  0  0  0  0  0  0  0  0  0
    2.1385    1.9931    0.0000 C   0  0  0  0  0  0  0  0  0  0  0  0
    1.3135    1.9931    0.0000 C   0  0  0  0  0  0  0  0  0  0  0  0
    0.9010    2.7076    0.0000 C   0  0  0  0  0  0  0  0  0  0  0  0
    1.3135    3.4221    0.0000 N   0  0  0  0  0  0  0  0  0  0  0  0
    1.0586    4.2067    0.0000 N   0  0  0  0  0  0  0  0  0  0  0  0
    1.7260    4.6916    0.0000 C   0  0  0  0  0  0  0  0  0  0  0  0
    2.3935    4.2067    0.0000 N   0  0  0  0  0  0  0  0  0  0  0  0
    0.9010    1.2787    0.0000 C   0  0  0  0  0  0  0  0  0  0  0  0
    1.3135    0.5642    0.0000 C   0  0  0  0  0  0  0  0  0  0  0  0
    0.9010   -0.1503    0.0000 C   0  0  0  0  0  0  0  0  0  0  0  0
    0.0760   -0.1503    0.0000 C   0  0  0  0  0  0  0  0  0  0  0  0
   -0.3365    0.5642    0.0000 C   0  0  0  0  0  0  0  0  0  0  0  0
    0.0760    1.2787    0.0000 C   0  0  0  0  0  0  0  0  0  0  0  0
   -0.3365   -0.8647    0.0000 C   0  0  1  0  0  0  0  0  0  0  0  0
   -1.1615   -0.8647    0.0000 C   0  0  1  0  0  0  0  0  0  0  0  0
   -1.5740   -1.5792    0.0000 C   0  0  0  0  0  0  0  0  0  0  0  0
   -2.3990   -1.5792    0.0000 N   0  0  0  0  0  0  0  0  0  0  0  0
    0.0760   -1.5792    0.0000 C   0  0  0  0  0  0  0  0  0  0  0  0
   -1.5740   -0.1503    0.0000 N   0  0  0  0  0  0  0  0  0  0  0  0
   -1.1615   -2.2937    0.0000 O   0  0  0  0  0  0  0  0  0  0  0  0
   -0.3365   -2.2937    0.0000 O   0  0  0  0  0  0  0  0  0  0  0  0
    0.9010   -1.5792    0.0000 N   0  0  0  0  0  0  0  0  0  0  0  0
    1.3135   -0.8647    0.0000 C   0  0  0  0  0  0  0  0  0  0  0  0
    1.3135   -2.2937    0.0000 C   0  0  0  0  0  0  0  0  0  0  0  0
   -2.8839   -2.2467    0.0000 C   0  0  0  0  0  0  0  0  0  0  0  0
   -3.6685   -1.9917    0.0000 C   0  0  2  0  0  0  0  0  0  0  0  0
   -3.6685   -1.1667    0.0000 C   0  0  0  0  0  0  0  0  0  0  0  0
   -2.8839   -0.9118    0.0000 C   0  0  0  0  0  0  0  0  0  0  0  0
   -4.3360   -2.4766    0.0000 F   0  0  0  0  0  0  0  0  0  0  0  0
   -0.6284   -0.3590    0.0000 H   0  0  0  0  0  0  0  0  0  0  0  0
   -0.8695   -1.3704    0.0000 H   0  0  0  0  0  0  0  0  0  0  0  0
   -3.5772   -2.5685    0.0000 H   0  0  0  0  0  0  0  0  0  0  0  0
    3.5830    2.7076    0.0000 H   0  0  0  0  0  0  0  0  0  0  0  0
    2.6545    1.0994    0.0000 H   0  0  0  0  0  0  0  0  0  0  0  0
   -0.1310    2.7076    0.0000 H   0  0  0  0  0  0  0  0  0  0  0  0
    1.7260    5.7236    0.0000 H   0  0  0  0  0  0  0  0  0  0  0  0
    2.3455    0.5642    0.0000 H   0  0  0  0  0  0  0  0  0  0  0  0
    1.4170   -1.0440    0.0000 H   0  0  0  0  0  0  0  0  0  0  0  0
   -1.3685    0.5642    0.0000 H   0  0  0  0  0  0  0  0  0  0  0  0
   -0.4400    2.1724    0.0000 H   0  0  0  0  0  0  0  0  0  0  0  0
   -1.0640    0.7331    0.0000 H   0  0  0  0  0  0  0  0  0  0  0  0
   -2.5940   -0.1503    0.0000 H   0  0  0  0  0  0  0  0  0  0  0  0
    2.3835   -0.8647    0.0000 H   0  0  0  0  0  0  0  0  0  0  0  0
    0.7785    0.0619    0.0000 H   0  0  0  0  0  0  0  0  0  0  0  0
    1.8485    0.0620    0.0000 H   0  0  0  0  0  0  0  0  0  0  0  0
    0.7785   -3.2203    0.0000 H   0  0  0  0  0  0  0  0  0  0  0  0
    2.3835   -2.2937    0.0000 H   0  0  0  0  0  0  0  0  0  0  0  0
    1.8485   -3.2204    0.0000 H   0  0  0  0  0  0  0  0  0  0  0  0
   -2.5533   -3.2643    0.0000 H   0  0  0  0  0  0  0  0  0  0  0  0
   -3.6405   -3.0033    0.0000 H   0  0  0  0  0  0  0  0  0  0  0  0
   -4.5341   -0.5378    0.0000 H   0  0  0  0  0  0  0  0  0  0  0  0
   -3.5011   -0.1099    0.0000 H   0  0  0  0  0  0  0  0  0  0  0  0
   -2.5532    0.1058    0.0000 H   0  0  0  0  0  0  0  0  0  0  0  0
   -3.6405   -0.1552    0.0000 H   0  0  0  0  0  0  0  0  0  0  0  0
  1  2  1  0  0  0  0
  1  6  1  0  0  0  0
  1  9  2  0  0  0  0
  2  3  2  0  0  0  0
  2 35  1  0  0  0  0
  3  4  1  0  0  0  0
  3 36  1  0  0  0  0
  4  5  2  0  0  0  0
  4 10  1  0  0  0  0
  5  6  1  0  0  0  0
  5 37  1  0  0  0  0
  6  7  1  0  0  0  0
  7  8  2  0  0  0  0
  8  9  1  0  0  0  0
  8 38  1  0  0  0  0
 10 11  2  0  0  0  0
 10 15  1  0  0  0  0
 11 12  1  0  0  0  0
 11 39  1  0  0  0  0
 12 13  2  0  0  0  0
 12 40  1  0  0  0  0
 13 14  1  0  0  0  0
 13 16  1  0  0  0  0
 14 15  2  0  0  0  0
 14 41  1  0  0  0  0
 15 42  1  0  0  0  0
 16 17  1  0  0  0  0
 16 20  1  0  0  0  0
 16 32  1  1  0  0  0
 17 18  1  0  0  0  0
 17 21  1  0  0  0  0
 17 33  1  6  0  0  0
 18 19  1  0  0  0  0
 18 22  2  0  0  0  0
 19 27  1  0  0  0  0
 19 30  1  0  0  0  0
 20 23  2  0  0  0  0
 20 24  1  0  0  0  0
 21 43  1  0  0  0  0
 21 44  1  0  0  0  0
 24 25  1  0  0  0  0
 24 26  1  0  0  0  0
 25 45  1  0  0  0  0
 25 46  1  0  0  0  0
 25 47  1  0  0  0  0
 26 48  1  0  0  0  0
 26 49  1  0  0  0  0
 26 50  1  0  0  0  0
 27 28  1  0  0  0  0
 27 51  1  0  0  0  0
 27 52  1  0  0  0  0
 28 29  1  0  0  0  0
 28 31  1  0  0  0  0
 28 34  1  6  0  0  0
 29 30  1  0  0  0  0
 29 53  1  0  0  0  0
 29 54  1  0  0  0  0
 30 55  1  0  0  0  0
 30 56  1  0  0  0  0
M  END
>  <DRUGBANK_ID>
DB08504

>  <COMMON_NAME>
6-(4-{(1S,2S)-2-AMINO-1-[(DIMETHYLAMINO)CARBONYL]-3-[(3S)-3-FLUOROPYRROLIDIN-1-YL]-3-OXOPROPYL}PHENYL)-1H-[1,2,4]TRIAZOLO[1,5-A]PYRIDIN-4-IUM

$$$$
