127
 OpenBabel10282417072D

 40 39  0  0  0  0  0  0  0  0999 V2000
    4.9504    0.2063    0.0000 N   0  0  0  0  0  0  0  0  0  0  0  0
    8.5226   -0.2063    0.0000 N   0  0  0  0  0  0  0  0  0  0  0  0
    2.0928    0.2063    0.0000 N   0  0  0  0  0  0  0  0  0  0  0  0
   11.3804   -0.2063    0.0000 N   0  0  0  0  0  0  0  0  0  0  0  0
    6.3793    0.2063    0.0000 C   0  0  0  0  0  0  0  0  0  0  0  0
    7.0938   -0.2063    0.0000 C   0  0  0  0  0  0  0  0  0  0  0  0
    5.6650   -0.2063    0.0000 C   0  0  0  0  0  0  0  0  0  0  0  0
    7.8082    0.2063    0.0000 C   0  0  0  0  0  0  0  0  0  0  0  0
    4.2361   -0.2063    0.0000 C   0  0  0  0  0  0  0  0  0  0  0  0
    9.2371    0.2063    0.0000 C   0  0  0  0  0  0  0  0  0  0  0  0
    3.5217    0.2063    0.0000 C   0  0  0  0  0  0  0  0  0  0  0  0
    9.9515   -0.2063    0.0000 C   0  0  0  0  0  0  0  0  0  0  0  0
    2.8072   -0.2063    0.0000 C   0  0  0  0  0  0  0  0  0  0  0  0
   10.6658    0.2063    0.0000 C   0  0  0  0  0  0  0  0  0  0  0  0
    4.9503    1.2263    0.0000 H   0  0  0  0  0  0  0  0  0  0  0  0
    8.5226   -1.2263    0.0000 H   0  0  0  0  0  0  0  0  0  0  0  0
    2.0930    1.2263    0.0000 H   0  0  0  0  0  0  0  0  0  0  0  0
    1.2094   -0.3036    0.0000 H   0  0  0  0  0  0  0  0  0  0  0  0
   11.3804   -1.2263    0.0000 H   0  0  0  0  0  0  0  0  0  0  0  0
   12.2638    0.3037    0.0000 H   0  0  0  0  0  0  0  0  0  0  0  0
    6.3792    1.2763    0.0000 H   0  0  0  0  0  0  0  0  0  0  0  0
    5.4526    0.7412    0.0000 H   0  0  0  0  0  0  0  0  0  0  0  0
    7.0938   -1.2763    0.0000 H   0  0  0  0  0  0  0  0  0  0  0  0
    8.0205   -0.7412    0.0000 H   0  0  0  0  0  0  0  0  0  0  0  0
    5.6651   -1.2763    0.0000 H   0  0  0  0  0  0  0  0  0  0  0  0
    6.5917   -0.7412    0.0000 H   0  0  0  0  0  0  0  0  0  0  0  0
    7.8082    1.2763    0.0000 H   0  0  0  0  0  0  0  0  0  0  0  0
    6.8815    0.7412    0.0000 H   0  0  0  0  0  0  0  0  0  0  0  0
    4.2361   -1.2763    0.0000 H   0  0  0  0  0  0  0  0  0  0  0  0
    3.3094   -0.7412    0.0000 H   0  0  0  0  0  0  0  0  0  0  0  0
    9.2371    1.2763    0.0000 H   0  0  0  0  0  0  0  0  0  0  0  0
   10.1638    0.7412    0.0000 H   0  0  0  0  0  0  0  0  0  0  0  0
    3.5217    1.2763    0.0000 H   0  0  0  0  0  0  0  0  0  0  0  0
    2.5950    0.7413    0.0000 H   0  0  0  0  0  0  0  0  0  0  0  0
    9.9515   -1.2763    0.0000 H   0  0  0  0  0  0  0  0  0  0  0  0
   10.8782   -0.7412    0.0000 H   0  0  0  0  0  0  0  0  0  0  0  0
    2.8072   -1.2763    0.0000 H   0  0  0  0  0  0  0  0  0  0  0  0
    3.7339   -0.7413    0.0000 H   0  0  0  0  0  0  0  0  0  0  0  0
   10.6657    1.2763    0.0000 H   0  0  0  0  0  0  0  0  0  0  0  0
    9.7391    0.7412    0.0000 H   0  0  0  0  0  0  0  0  0  0  0  0
  1  7  1  0  0  0  0
  1  9  1  0  0  0  0
  1 15  1  0  0  0  0
  2  8  1  0  0  0  0
  2 10  1  0  0  0  0
  2 16  1  0  0  0  0
  3 13  1  0  0  0  0
  3 17  1  0  0  0  0
  3 18  1  0  0  0  0
  4 14  1  0  0  0  0
  4 19  1  0  0  0  0
  4 20  1  0  0  0  0
  5  6  1  0  0  0  0
  5  7  1  0  0  0  0
  5 21  1  0  0  0  0
  5 22  1  0  0  0  0
  6  8  1  0  0  0  0
  6 23  1  0  0  0  0
  6 24  1  0  0  0  0
  7 25  1  0  0  0  0
  7 26  1  0  0  0  0
  8 27  1  0  0  0  0
  8 28  1  0  0  0  0
  9 11  1  0  0  0  0
  9 29  1  0  0  0  0
  9 30  1  0  0  0  0
 10 12  1  0  0  0  0
 10 31  1  0  0  0  0
 10 32  1  0  0  0  0
 11 13  1  0  0  0  0
 11 33  1  0  0  0  0
 11 34  1  0  0  0  0
 12 14  1  0  0  0  0
 12 35  1  0  0  0  0
 12 36  1  0  0  0  0
 13 37  1  0  0  0  0
 13 38  1  0  0  0  0
 14 39  1  0  0  0  0
 14 40  1  0  0  0  0
M  END
>  <DRUGBANK_ID>
DB00127

>  <SECONDARY_ACCESSION_NUMBERS>
NUTR00055; EXPT02947; DB02564

>  <COMMON_NAME>
Spermine

>  <CAS_NUMBER>
71-44-3

>  <UNII>
2FZ7Y3VOQX

>  <SYNONYMS>
4,9-diaza-1,12-dodecanediamine; 4,9-diazadodecane-1,12-diamine; Musculamine; N,N'-Bis(3-aminopropyl)-1,4-butanediamine; Spermina; Spermine

$$$$
