
 OpenBabel10282417072D

283284  0  0  1  0  0  0  0  0999 V2000
    0.3573   -3.5065    0.0000 C   0  0  1  0  0  0  0  0  0  0  0  0
    1.0717   -3.9190    0.0000 C   0  0  0  0  0  0  0  0  0  0  0  0
    1.0717   -4.7441    0.0000 C   0  0  0  0  0  0  0  0  0  0  0  0
    1.7863   -5.1566    0.0000 C   0  0  0  0  0  0  0  0  0  0  0  0
    1.7863   -5.9817    0.0000 C   0  0  0  0  0  0  0  0  0  0  0  0
    1.0717   -6.3942    0.0000 C   0  0  0  0  0  0  0  0  0  0  0  0
    0.3572   -5.9817    0.0000 C   0  0  0  0  0  0  0  0  0  0  0  0
    0.3573   -5.1566    0.0000 C   0  0  0  0  0  0  0  0  0  0  0  0
    1.0717   -7.2192    0.0000 O   0  0  0  0  0  0  0  0  0  0  0  0
   -0.3572   -3.9190    0.0000 C   0  0  0  0  0  0  0  0  0  0  0  0
   -1.0717   -3.5065    0.0000 N   0  0  0  0  0  0  0  0  0  0  0  0
   -1.7862   -3.9190    0.0000 C   0  0  2  0  0  0  0  0  0  0  0  0
   -2.5008   -3.5065    0.0000 C   0  0  0  0  0  0  0  0  0  0  0  0
   -3.2153   -3.9190    0.0000 N   0  0  0  0  0  0  0  0  0  0  0  0
   -3.9298   -3.5065    0.0000 C   0  0  1  0  0  0  0  0  0  0  0  0
   -4.6443   -3.9190    0.0000 C   0  0  0  0  0  0  0  0  0  0  0  0
   -5.3589   -3.5065    0.0000 C   0  0  0  0  0  0  0  0  0  0  0  0
   -6.0733   -3.9190    0.0000 C   0  0  0  0  0  0  0  0  0  0  0  0
   -6.7879   -3.5065    0.0000 C   0  0  0  0  0  0  0  0  0  0  0  0
   -7.5024   -3.9190    0.0000 N   0  0  0  0  0  0  0  0  0  0  0  0
   -8.2169   -3.5065    0.0000 C   0  0  0  0  0  0  0  0  0  0  0  0
   -8.9314   -3.9190    0.0000 C   0  0  1  0  0  0  0  0  0  0  0  0
   -9.6459   -3.5065    0.0000 N   0  0  0  0  0  0  0  0  0  0  0  0
  -10.3605   -3.9190    0.0000 C   0  0  0  0  0  0  0  0  0  0  0  0
  -11.0750   -3.5065    0.0000 C   0  0  2  0  0  0  0  0  0  0  0  0
  -11.7895   -3.9190    0.0000 C   0  0  0  0  0  0  0  0  0  0  0  0
  -11.7895   -4.7441    0.0000 C   0  0  0  0  0  0  0  0  0  0  0  0
  -12.5040   -5.1566    0.0000 C   0  0  0  0  0  0  0  0  0  0  0  0
  -12.5040   -5.9817    0.0000 C   0  0  0  0  0  0  0  0  0  0  0  0
  -11.7895   -6.3943    0.0000 C   0  0  0  0  0  0  0  0  0  0  0  0
  -11.0750   -5.9817    0.0000 C   0  0  0  0  0  0  0  0  0  0  0  0
  -11.0750   -5.1566    0.0000 C   0  0  0  0  0  0  0  0  0  0  0  0
  -11.7895   -7.2192    0.0000 O   0  0  0  0  0  0  0  0  0  0  0  0
  -11.0750   -2.6815    0.0000 N   0  0  0  0  0  0  0  0  0  0  0  0
  -11.7895   -2.2689    0.0000 C   0  0  0  0  0  0  0  0  0  0  0  0
  -12.5040   -2.6815    0.0000 O   0  0  0  0  0  0  0  0  0  0  0  0
  -11.7895   -1.4438    0.0000 C   0  0  1  0  0  0  0  0  0  0  0  0
  -11.0750   -1.0314    0.0000 N   0  0  0  0  0  0  0  0  0  0  0  0
  -10.3605   -1.4438    0.0000 C   0  0  0  0  0  0  0  0  0  0  0  0
   -9.6460   -1.0314    0.0000 C   0  0  1  0  0  0  0  0  0  0  0  0
   -8.9314   -1.4438    0.0000 N   0  0  0  0  0  0  0  0  0  0  0  0
   -8.2169   -1.0314    0.0000 C   0  0  0  0  0  0  0  0  0  0  0  0
   -8.2169   -0.2063    0.0000 C   0  0  1  0  0  0  0  0  0  0  0  0
   -8.9314    0.2062    0.0000 N   0  0  0  0  0  0  0  0  0  0  0  0
   -8.9314    1.0312    0.0000 C   0  0  0  0  0  0  0  0  0  0  0  0
   -8.2170    1.4438    0.0000 C   0  0  1  0  0  0  0  0  0  0  0  0
   -7.5024    1.0312    0.0000 N   0  0  0  0  0  0  0  0  0  0  0  0
   -6.7879    1.4438    0.0000 C   0  0  0  0  0  0  0  0  0  0  0  0
   -6.7879    2.2688    0.0000 C   0  0  0  0  0  0  0  0  0  0  0  0
   -6.0734    2.6814    0.0000 N   0  0  0  0  0  0  0  0  0  0  0  0
   -6.0734    3.5065    0.0000 C   0  0  0  0  0  0  0  0  0  0  0  0
   -5.3589    3.9189    0.0000 C   0  0  2  0  0  0  0  0  0  0  0  0
   -5.3589    4.7440    0.0000 C   0  0  0  0  0  0  0  0  0  0  0  0
   -4.6444    5.1566    0.0000 C   0  0  0  0  0  0  0  0  0  0  0  0
   -4.6444    5.9816    0.0000 C   0  0  0  0  0  0  0  0  0  0  0  0
   -3.9299    6.3942    0.0000 C   0  0  0  0  0  0  0  0  0  0  0  0
   -3.9299    7.2192    0.0000 N   0  0  0  0  0  0  0  0  0  0  0  0
   -4.6444    3.5065    0.0000 N   0  0  0  0  0  0  0  0  0  0  0  0
   -6.7880    3.9189    0.0000 O   0  0  0  0  0  0  0  0  0  0  0  0
   -6.0734    1.0313    0.0000 O   0  0  0  0  0  0  0  0  0  0  0  0
   -8.2170    2.2688    0.0000 C   0  0  0  0  0  0  0  0  0  0  0  0
   -7.5024    2.6813    0.0000 C   0  0  0  0  0  0  0  0  0  0  0  0
   -8.9314    2.6813    0.0000 C   0  0  0  0  0  0  0  0  0  0  0  0
   -9.6460    1.4438    0.0000 O   0  0  0  0  0  0  0  0  0  0  0  0
   -7.5024    0.2062    0.0000 C   0  0  0  0  0  0  0  0  0  0  0  0
   -6.7879   -0.2062    0.0000 O   0  0  0  0  0  0  0  0  0  0  0  0
   -7.5024   -1.4438    0.0000 O   0  0  0  0  0  0  0  0  0  0  0  0
   -9.6460   -0.2063    0.0000 C   0  0  0  0  0  0  0  0  0  0  0  0
  -10.3605    0.2062    0.0000 C   0  0  0  0  0  0  0  0  0  0  0  0
  -10.3605    1.0312    0.0000 C   0  0  0  0  0  0  0  0  0  0  0  0
  -11.0750   -0.2063    0.0000 C   0  0  0  0  0  0  0  0  0  0  0  0
  -10.3605   -2.2689    0.0000 O   0  0  0  0  0  0  0  0  0  0  0  0
  -12.5040   -1.0314    0.0000 C   0  0  0  0  0  0  0  0  0  0  0  0
  -13.2186   -1.4438    0.0000 O   0  0  0  0  0  0  0  0  0  0  0  0
  -10.3605   -4.7441    0.0000 O   0  0  0  0  0  0  0  0  0  0  0  0
   -8.9314   -4.7441    0.0000 C   0  0  0  0  0  0  0  0  0  0  0  0
   -9.6459   -5.1566    0.0000 C   0  0  0  0  0  0  0  0  0  0  0  0
   -9.6459   -5.9817    0.0000 C   0  0  0  0  0  0  0  0  0  0  0  0
   -8.9314   -6.3942    0.0000 N   0  0  0  0  0  0  0  0  0  0  0  0
   -8.2169   -5.9817    0.0000 C   0  0  0  0  0  0  0  0  0  0  0  0
   -8.2169   -5.1566    0.0000 N   0  0  0  0  0  0  0  0  0  0  0  0
   -7.5024   -6.3942    0.0000 N   0  0  0  0  0  0  0  0  0  0  0  0
   -8.2169   -2.6815    0.0000 O   0  0  0  0  0  0  0  0  0  0  0  0
   -3.9298   -2.6815    0.0000 C   0  0  0  0  0  0  0  0  0  0  0  0
   -4.6443   -2.2689    0.0000 N   0  0  0  0  0  0  0  0  0  0  0  0
   -3.2153   -2.2689    0.0000 O   0  0  0  0  0  0  0  0  0  0  0  0
   -2.5008   -2.6815    0.0000 O   0  0  0  0  0  0  0  0  0  0  0  0
   -1.7862   -4.7441    0.0000 C   0  0  0  0  0  0  0  0  0  0  0  0
   -2.5008   -5.1566    0.0000 C   0  0  0  0  0  0  0  0  0  0  0  0
   -3.2153   -4.7441    0.0000 C   0  0  0  0  0  0  0  0  0  0  0  0
   -3.9298   -5.1566    0.0000 N   0  0  0  0  0  0  0  0  0  0  0  0
   -3.9298   -5.9817    0.0000 C   0  0  0  0  0  0  0  0  0  0  0  0
   -4.6443   -6.3942    0.0000 N   0  0  0  0  0  0  0  0  0  0  0  0
   -3.2152   -6.3942    0.0000 N   0  0  0  0  0  0  0  0  0  0  0  0
   -0.3572   -4.7441    0.0000 O   0  0  0  0  0  0  0  0  0  0  0  0
    0.3572   -2.6814    0.0000 N   0  0  0  0  0  0  0  0  0  0  0  0
    1.0717   -2.2689    0.0000 C   0  0  0  0  0  0  0  0  0  0  0  0
    1.7863   -2.6814    0.0000 C   0  0  1  0  0  0  0  0  0  0  0  0
    1.7863   -3.5065    0.0000 N   0  0  0  0  0  0  0  0  0  0  0  0
    2.5008   -3.9190    0.0000 C   0  0  0  0  0  0  0  0  0  0  0  0
    3.2153   -3.5065    0.0000 C   0  0  1  0  0  0  0  0  0  0  0  0
    3.2153   -2.6814    0.0000 N   0  0  0  0  0  0  0  0  0  0  0  0
    3.9298   -2.2689    0.0000 C   0  0  0  0  0  0  0  0  0  0  0  0
    4.6443   -2.6814    0.0000 C   0  0  1  0  0  0  0  0  0  0  0  0
    4.6443   -3.5065    0.0000 N   0  0  0  0  0  0  0  0  0  0  0  0
    5.3589   -3.9190    0.0000 C   0  0  0  0  0  0  0  0  0  0  0  0
    6.0734   -3.5065    0.0000 C   0  0  1  0  0  0  0  0  0  0  0  0
    6.0734   -2.6814    0.0000 N   0  0  0  0  0  0  0  0  0  0  0  0
    6.7879   -2.2689    0.0000 C   0  0  0  0  0  0  0  0  0  0  0  0
    7.5024   -2.6814    0.0000 C   0  0  0  0  0  0  0  0  0  0  0  0
    8.2170   -2.2689    0.0000 N   0  0  0  0  0  0  0  0  0  0  0  0
    8.9314   -2.6814    0.0000 C   0  0  0  0  0  0  0  0  0  0  0  0
    9.6460   -2.2689    0.0000 C   0  0  2  0  0  0  0  0  0  0  0  0
   10.3605   -2.6814    0.0000 C   0  0  0  0  0  0  0  0  0  0  0  0
   11.0750   -2.2689    0.0000 C   0  0  0  0  0  0  0  0  0  0  0  0
   11.7896   -2.6814    0.0000 C   0  0  0  0  0  0  0  0  0  0  0  0
   12.5041   -2.2689    0.0000 C   0  0  0  0  0  0  0  0  0  0  0  0
   13.2186   -2.6814    0.0000 N   0  0  0  0  0  0  0  0  0  0  0  0
    9.6460   -1.4438    0.0000 N   0  0  0  0  0  0  0  0  0  0  0  0
    8.9314   -3.5065    0.0000 O   0  0  0  0  0  0  0  0  0  0  0  0
    6.7879   -1.4438    0.0000 O   0  0  0  0  0  0  0  0  0  0  0  0
    6.7880   -3.9190    0.0000 C   0  0  0  0  0  0  0  0  0  0  0  0
    7.5024   -3.5065    0.0000 C   0  0  0  0  0  0  0  0  0  0  0  0
    6.7879   -4.7441    0.0000 C   0  0  0  0  0  0  0  0  0  0  0  0
    5.3589   -4.7441    0.0000 O   0  0  0  0  0  0  0  0  0  0  0  0
    5.3589   -2.2689    0.0000 C   0  0  0  0  0  0  0  0  0  0  0  0
    5.3589   -1.4438    0.0000 O   0  0  0  0  0  0  0  0  0  0  0  0
    3.9298   -1.4438    0.0000 O   0  0  0  0  0  0  0  0  0  0  0  0
    3.9298   -3.9190    0.0000 C   0  0  0  0  0  0  0  0  0  0  0  0
    3.9298   -4.7441    0.0000 C   0  0  0  0  0  0  0  0  0  0  0  0
    3.2153   -5.1566    0.0000 C   0  0  0  0  0  0  0  0  0  0  0  0
    4.6444   -5.1566    0.0000 C   0  0  0  0  0  0  0  0  0  0  0  0
    2.5008   -4.7441    0.0000 O   0  0  0  0  0  0  0  0  0  0  0  0
    2.5008   -2.2689    0.0000 C   0  0  0  0  0  0  0  0  0  0  0  0
    2.5008   -1.4438    0.0000 O   0  0  0  0  0  0  0  0  0  0  0  0
    1.0717   -1.4438    0.0000 O   0  0  0  0  0  0  0  0  0  0  0  0
    1.2839   -2.9715    0.0000 H   0  0  0  0  0  0  0  0  0  0  0  0
    1.9984   -3.3840    0.0000 H   0  0  0  0  0  0  0  0  0  0  0  0
    1.9983   -4.4540    0.0000 H   0  0  0  0  0  0  0  0  0  0  0  0
    2.6800   -4.6406    0.0000 H   0  0  0  0  0  0  0  0  0  0  0  0
    2.6800   -6.4977    0.0000 H   0  0  0  0  0  0  0  0  0  0  0  0
   -0.5366   -6.4977    0.0000 H   0  0  0  0  0  0  0  0  0  0  0  0
   -0.5364   -4.6406    0.0000 H   0  0  0  0  0  0  0  0  0  0  0  0
    0.2602   -7.6877    0.0000 H   0  0  0  0  0  0  0  0  0  0  0  0
   -1.0717   -2.5220    0.0000 H   0  0  0  0  0  0  0  0  0  0  0  0
   -0.8596   -4.4540    0.0000 H   0  0  0  0  0  0  0  0  0  0  0  0
   -3.2153   -4.9035    0.0000 H   0  0  0  0  0  0  0  0  0  0  0  0
   -3.0032   -2.9715    0.0000 H   0  0  0  0  0  0  0  0  0  0  0  0
   -4.6443   -4.9890    0.0000 H   0  0  0  0  0  0  0  0  0  0  0  0
   -5.5709   -4.4541    0.0000 H   0  0  0  0  0  0  0  0  0  0  0  0
   -5.3590   -2.4365    0.0000 H   0  0  0  0  0  0  0  0  0  0  0  0
   -6.2856   -2.9715    0.0000 H   0  0  0  0  0  0  0  0  0  0  0  0
   -6.0732   -4.9890    0.0000 H   0  0  0  0  0  0  0  0  0  0  0  0
   -6.9999   -4.4541    0.0000 H   0  0  0  0  0  0  0  0  0  0  0  0
   -6.7879   -2.4365    0.0000 H   0  0  0  0  0  0  0  0  0  0  0  0
   -7.7146   -2.9715    0.0000 H   0  0  0  0  0  0  0  0  0  0  0  0
   -7.5024   -4.9035    0.0000 H   0  0  0  0  0  0  0  0  0  0  0  0
   -8.0048   -4.4540    0.0000 H   0  0  0  0  0  0  0  0  0  0  0  0
   -9.6459   -2.5220    0.0000 H   0  0  0  0  0  0  0  0  0  0  0  0
  -10.1484   -2.9715    0.0000 H   0  0  0  0  0  0  0  0  0  0  0  0
  -12.7161   -3.3840    0.0000 H   0  0  0  0  0  0  0  0  0  0  0  0
  -12.7161   -4.4540    0.0000 H   0  0  0  0  0  0  0  0  0  0  0  0
  -13.3977   -4.6406    0.0000 H   0  0  0  0  0  0  0  0  0  0  0  0
  -13.3978   -6.4977    0.0000 H   0  0  0  0  0  0  0  0  0  0  0  0
  -10.1812   -6.4977    0.0000 H   0  0  0  0  0  0  0  0  0  0  0  0
  -10.1813   -4.6406    0.0000 H   0  0  0  0  0  0  0  0  0  0  0  0
  -12.6010   -7.6877    0.0000 H   0  0  0  0  0  0  0  0  0  0  0  0
  -10.2224   -2.1893    0.0000 H   0  0  0  0  0  0  0  0  0  0  0  0
  -10.8629   -1.9789    0.0000 H   0  0  0  0  0  0  0  0  0  0  0  0
  -11.0750   -0.0469    0.0000 H   0  0  0  0  0  0  0  0  0  0  0  0
   -9.6460   -2.1014    0.0000 H   0  0  0  0  0  0  0  0  0  0  0  0
   -8.9314   -2.4283    0.0000 H   0  0  0  0  0  0  0  0  0  0  0  0
   -9.1435   -0.7413    0.0000 H   0  0  0  0  0  0  0  0  0  0  0  0
   -9.7840   -0.2861    0.0000 H   0  0  0  0  0  0  0  0  0  0  0  0
   -8.2169    0.3738    0.0000 H   0  0  0  0  0  0  0  0  0  0  0  0
   -7.5024    0.0467    0.0000 H   0  0  0  0  0  0  0  0  0  0  0  0
   -7.7146    2.8038    0.0000 H   0  0  0  0  0  0  0  0  0  0  0  0
   -6.7880    3.3388    0.0000 H   0  0  0  0  0  0  0  0  0  0  0  0
   -5.2208    2.1892    0.0000 H   0  0  0  0  0  0  0  0  0  0  0  0
   -5.3589    2.8489    0.0000 H   0  0  0  0  0  0  0  0  0  0  0  0
   -6.2856    5.2790    0.0000 H   0  0  0  0  0  0  0  0  0  0  0  0
   -5.3590    5.8140    0.0000 H   0  0  0  0  0  0  0  0  0  0  0  0
   -3.7177    4.6216    0.0000 H   0  0  0  0  0  0  0  0  0  0  0  0
   -3.7178    5.6916    0.0000 H   0  0  0  0  0  0  0  0  0  0  0  0
   -5.5711    6.5166    0.0000 H   0  0  0  0  0  0  0  0  0  0  0  0
   -4.6445    7.0516    0.0000 H   0  0  0  0  0  0  0  0  0  0  0  0
   -3.0032    5.8592    0.0000 H   0  0  0  0  0  0  0  0  0  0  0  0
   -3.0033    6.9292    0.0000 H   0  0  0  0  0  0  0  0  0  0  0  0
   -3.0466    7.7292    0.0000 H   0  0  0  0  0  0  0  0  0  0  0  0
   -4.8132    7.7292    0.0000 H   0  0  0  0  0  0  0  0  0  0  0  0
   -4.6443    2.4865    0.0000 H   0  0  0  0  0  0  0  0  0  0  0  0
   -3.7611    4.0166    0.0000 H   0  0  0  0  0  0  0  0  0  0  0  0
   -8.2169    3.3388    0.0000 H   0  0  0  0  0  0  0  0  0  0  0  0
   -6.5758    2.1462    0.0000 H   0  0  0  0  0  0  0  0  0  0  0  0
   -7.5023    3.7513    0.0000 H   0  0  0  0  0  0  0  0  0  0  0  0
   -6.5757    3.2162    0.0000 H   0  0  0  0  0  0  0  0  0  0  0  0
   -8.9314    3.7513    0.0000 H   0  0  0  0  0  0  0  0  0  0  0  0
   -9.8581    2.1463    0.0000 H   0  0  0  0  0  0  0  0  0  0  0  0
   -9.8580    3.2163    0.0000 H   0  0  0  0  0  0  0  0  0  0  0  0
   -7.5025    1.2762    0.0000 H   0  0  0  0  0  0  0  0  0  0  0  0
   -6.5758    0.7413    0.0000 H   0  0  0  0  0  0  0  0  0  0  0  0
   -6.7878   -1.1762    0.0000 H   0  0  0  0  0  0  0  0  0  0  0  0
   -8.7194    0.3287    0.0000 H   0  0  0  0  0  0  0  0  0  0  0  0
   -9.6460    0.8637    0.0000 H   0  0  0  0  0  0  0  0  0  0  0  0
  -11.2871    0.7412    0.0000 H   0  0  0  0  0  0  0  0  0  0  0  0
   -9.4339    1.5662    0.0000 H   0  0  0  0  0  0  0  0  0  0  0  0
  -11.2871    1.5662    0.0000 H   0  0  0  0  0  0  0  0  0  0  0  0
  -10.3605    2.1012    0.0000 H   0  0  0  0  0  0  0  0  0  0  0  0
  -12.0016    0.3287    0.0000 H   0  0  0  0  0  0  0  0  0  0  0  0
  -11.0750   -1.2763    0.0000 H   0  0  0  0  0  0  0  0  0  0  0  0
  -12.0017   -0.7413    0.0000 H   0  0  0  0  0  0  0  0  0  0  0  0
  -12.5040    0.0386    0.0000 H   0  0  0  0  0  0  0  0  0  0  0  0
  -13.4306   -0.4963    0.0000 H   0  0  0  0  0  0  0  0  0  0  0  0
  -14.0586   -0.9586    0.0000 H   0  0  0  0  0  0  0  0  0  0  0  0
   -8.0048   -5.2791    0.0000 H   0  0  0  0  0  0  0  0  0  0  0  0
   -8.9314   -5.8141    0.0000 H   0  0  0  0  0  0  0  0  0  0  0  0
  -10.5725   -4.6216    0.0000 H   0  0  0  0  0  0  0  0  0  0  0  0
  -10.5725   -5.6916    0.0000 H   0  0  0  0  0  0  0  0  0  0  0  0
  -10.5725   -6.5167    0.0000 H   0  0  0  0  0  0  0  0  0  0  0  0
   -9.6459   -7.0517    0.0000 H   0  0  0  0  0  0  0  0  0  0  0  0
   -8.9314   -7.3787    0.0000 H   0  0  0  0  0  0  0  0  0  0  0  0
   -7.3643   -4.6643    0.0000 H   0  0  0  0  0  0  0  0  0  0  0  0
   -7.5024   -7.3787    0.0000 H   0  0  0  0  0  0  0  0  0  0  0  0
   -6.6498   -5.9019    0.0000 H   0  0  0  0  0  0  0  0  0  0  0  0
   -4.6442   -1.2844    0.0000 H   0  0  0  0  0  0  0  0  0  0  0  0
   -5.4969   -2.7611    0.0000 H   0  0  0  0  0  0  0  0  0  0  0  0
   -0.8596   -5.2791    0.0000 H   0  0  0  0  0  0  0  0  0  0  0  0
   -1.7863   -5.8141    0.0000 H   0  0  0  0  0  0  0  0  0  0  0  0
   -2.5008   -6.2266    0.0000 H   0  0  0  0  0  0  0  0  0  0  0  0
   -3.4275   -5.6916    0.0000 H   0  0  0  0  0  0  0  0  0  0  0  0
   -3.2153   -3.6741    0.0000 H   0  0  0  0  0  0  0  0  0  0  0  0
   -4.1419   -4.2091    0.0000 H   0  0  0  0  0  0  0  0  0  0  0  0
   -4.7824   -4.6643    0.0000 H   0  0  0  0  0  0  0  0  0  0  0  0
   -5.4969   -5.9019    0.0000 H   0  0  0  0  0  0  0  0  0  0  0  0
   -3.2151   -7.3787    0.0000 H   0  0  0  0  0  0  0  0  0  0  0  0
   -2.3626   -5.9019    0.0000 H   0  0  0  0  0  0  0  0  0  0  0  0
   -0.4954   -2.1892    0.0000 H   0  0  0  0  0  0  0  0  0  0  0  0
    0.8597   -3.2164    0.0000 H   0  0  0  0  0  0  0  0  0  0  0  0
    0.9337   -3.9988    0.0000 H   0  0  0  0  0  0  0  0  0  0  0  0
    2.2887   -2.9715    0.0000 H   0  0  0  0  0  0  0  0  0  0  0  0
    2.3627   -2.1891    0.0000 H   0  0  0  0  0  0  0  0  0  0  0  0
    3.7177   -3.2164    0.0000 H   0  0  0  0  0  0  0  0  0  0  0  0
    3.7917   -3.9988    0.0000 H   0  0  0  0  0  0  0  0  0  0  0  0
    5.1468   -2.9715    0.0000 H   0  0  0  0  0  0  0  0  0  0  0  0
    5.2208   -2.1891    0.0000 H   0  0  0  0  0  0  0  0  0  0  0  0
    7.5024   -3.7514    0.0000 H   0  0  0  0  0  0  0  0  0  0  0  0
    8.4290   -3.2165    0.0000 H   0  0  0  0  0  0  0  0  0  0  0  0
    8.2171   -1.2844    0.0000 H   0  0  0  0  0  0  0  0  0  0  0  0
    8.7194   -1.7339    0.0000 H   0  0  0  0  0  0  0  0  0  0  0  0
   10.3605   -3.7514    0.0000 H   0  0  0  0  0  0  0  0  0  0  0  0
   11.2871   -3.2164    0.0000 H   0  0  0  0  0  0  0  0  0  0  0  0
   11.0750   -1.1989    0.0000 H   0  0  0  0  0  0  0  0  0  0  0  0
   12.0016   -1.7338    0.0000 H   0  0  0  0  0  0  0  0  0  0  0  0
   11.7896   -3.7514    0.0000 H   0  0  0  0  0  0  0  0  0  0  0  0
   12.7163   -3.2164    0.0000 H   0  0  0  0  0  0  0  0  0  0  0  0
   12.5041   -1.1989    0.0000 H   0  0  0  0  0  0  0  0  0  0  0  0
   13.4307   -1.7339    0.0000 H   0  0  0  0  0  0  0  0  0  0  0  0
   13.2186   -3.7014    0.0000 H   0  0  0  0  0  0  0  0  0  0  0  0
   14.1019   -2.1714    0.0000 H   0  0  0  0  0  0  0  0  0  0  0  0
   10.5293   -0.9338    0.0000 H   0  0  0  0  0  0  0  0  0  0  0  0
    8.7627   -0.9338    0.0000 H   0  0  0  0  0  0  0  0  0  0  0  0
    7.7146   -4.4540    0.0000 H   0  0  0  0  0  0  0  0  0  0  0  0
    8.4291   -4.0415    0.0000 H   0  0  0  0  0  0  0  0  0  0  0  0
    7.5024   -2.4365    0.0000 H   0  0  0  0  0  0  0  0  0  0  0  0
    8.4290   -2.9715    0.0000 H   0  0  0  0  0  0  0  0  0  0  0  0
    5.8612   -5.2790    0.0000 H   0  0  0  0  0  0  0  0  0  0  0  0
    7.7145   -5.2792    0.0000 H   0  0  0  0  0  0  0  0  0  0  0  0
    6.7878   -5.8141    0.0000 H   0  0  0  0  0  0  0  0  0  0  0  0
    6.2855   -2.8039    0.0000 H   0  0  0  0  0  0  0  0  0  0  0  0
    6.2856   -1.7339    0.0000 H   0  0  0  0  0  0  0  0  0  0  0  0
    6.1989   -0.9588    0.0000 H   0  0  0  0  0  0  0  0  0  0  0  0
    4.8564   -3.3840    0.0000 H   0  0  0  0  0  0  0  0  0  0  0  0
    4.8564   -4.4540    0.0000 H   0  0  0  0  0  0  0  0  0  0  0  0
    3.9298   -5.8141    0.0000 H   0  0  0  0  0  0  0  0  0  0  0  0
    2.2887   -4.6216    0.0000 H   0  0  0  0  0  0  0  0  0  0  0  0
    3.2153   -6.2266    0.0000 H   0  0  0  0  0  0  0  0  0  0  0  0
    2.2886   -5.6916    0.0000 H   0  0  0  0  0  0  0  0  0  0  0  0
    4.6445   -6.2266    0.0000 H   0  0  0  0  0  0  0  0  0  0  0  0
    5.5710   -4.6215    0.0000 H   0  0  0  0  0  0  0  0  0  0  0  0
    5.5711   -5.6915    0.0000 H   0  0  0  0  0  0  0  0  0  0  0  0
    3.4274   -2.8039    0.0000 H   0  0  0  0  0  0  0  0  0  0  0  0
    3.4274   -1.7339    0.0000 H   0  0  0  0  0  0  0  0  0  0  0  0
    3.3408   -0.9588    0.0000 H   0  0  0  0  0  0  0  0  0  0  0  0
  1  2  1  0  0  0  0
  1 10  1  0  0  0  0
  1 96  1  0  0  0  0
  1137  1  6  0  0  0
  2  3  1  0  0  0  0
  2138  1  0  0  0  0
  2139  1  0  0  0  0
  3  4  2  0  0  0  0
  3  8  1  0  0  0  0
  4  5  1  0  0  0  0
  4140  1  0  0  0  0
  5  6  2  0  0  0  0
  5141  1  0  0  0  0
  6  9  1  0  0  0  0
  7  6  1  0  0  0  0
  7142  1  0  0  0  0
  8  7  2  0  0  0  0
  8143  1  0  0  0  0
  9144  1  0  0  0  0
 10 11  1  0  0  0  0
 10 95  2  0  0  0  0
 11 12  1  0  0  0  0
 11145  1  0  0  0  0
 12 13  1  0  0  0  0
 12 88  1  0  0  0  0
 12146  1  6  0  0  0
 13 14  1  0  0  0  0
 13 87  2  0  0  0  0
 14 15  1  0  0  0  0
 14147  1  0  0  0  0
 15 16  1  0  0  0  0
 15 84  1  0  0  0  0
 15148  1  6  0  0  0
 16 17  1  0  0  0  0
 16149  1  0  0  0  0
 16150  1  0  0  0  0
 17 18  1  0  0  0  0
 17151  1  0  0  0  0
 17152  1  0  0  0  0
 18 19  1  0  0  0  0
 18153  1  0  0  0  0
 18154  1  0  0  0  0
 19 20  1  0  0  0  0
 19155  1  0  0  0  0
 19156  1  0  0  0  0
 20 21  1  0  0  0  0
 20157  1  0  0  0  0
 21 22  1  0  0  0  0
 21 83  2  0  0  0  0
 22 23  1  0  0  0  0
 22 76  1  0  0  0  0
 22158  1  1  0  0  0
 23 24  1  0  0  0  0
 23159  1  0  0  0  0
 24 25  1  0  0  0  0
 24 75  2  0  0  0  0
 25 26  1  0  0  0  0
 25 34  1  0  0  0  0
 25160  1  1  0  0  0
 26 27  1  0  0  0  0
 26161  1  0  0  0  0
 26162  1  0  0  0  0
 27 28  2  0  0  0  0
 27 32  1  0  0  0  0
 28 29  1  0  0  0  0
 28163  1  0  0  0  0
 29 30  2  0  0  0  0
 29164  1  0  0  0  0
 30 33  1  0  0  0  0
 31 30  1  0  0  0  0
 31165  1  0  0  0  0
 32 31  2  0  0  0  0
 32166  1  0  0  0  0
 33167  1  0  0  0  0
 34 35  1  0  0  0  0
 34168  1  0  0  0  0
 35 36  2  0  0  0  0
 37 35  1  0  0  0  0
 37 38  1  0  0  0  0
 37 73  1  0  0  0  0
 37169  1  1  0  0  0
 38 39  1  0  0  0  0
 38170  1  0  0  0  0
 39 40  1  0  0  0  0
 39 72  2  0  0  0  0
 40 41  1  0  0  0  0
 40 68  1  0  0  0  0
 40171  1  1  0  0  0
 41 42  1  0  0  0  0
 41172  1  0  0  0  0
 42 43  1  0  0  0  0
 42 67  2  0  0  0  0
 43 44  1  0  0  0  0
 43 65  1  0  0  0  0
 43173  1  6  0  0  0
 44 45  1  0  0  0  0
 44174  1  0  0  0  0
 45 46  1  0  0  0  0
 45 64  2  0  0  0  0
 46 47  1  0  0  0  0
 46 61  1  0  0  0  0
 46175  1  1  0  0  0
 47 48  1  0  0  0  0
 47176  1  0  0  0  0
 48 49  1  0  0  0  0
 48 60  2  0  0  0  0
 49 50  1  0  0  0  0
 49177  1  0  0  0  0
 49178  1  0  0  0  0
 50 51  1  0  0  0  0
 50179  1  0  0  0  0
 51 52  1  0  0  0  0
 51 59  2  0  0  0  0
 52 53  1  0  0  0  0
 52 58  1  0  0  0  0
 52180  1  1  0  0  0
 53 54  1  0  0  0  0
 53181  1  0  0  0  0
 53182  1  0  0  0  0
 54 55  1  0  0  0  0
 54183  1  0  0  0  0
 54184  1  0  0  0  0
 55 56  1  0  0  0  0
 55185  1  0  0  0  0
 55186  1  0  0  0  0
 56 57  1  0  0  0  0
 56187  1  0  0  0  0
 56188  1  0  0  0  0
 57189  1  0  0  0  0
 57190  1  0  0  0  0
 58191  1  0  0  0  0
 58192  1  0  0  0  0
 61 62  1  0  0  0  0
 61 63  1  0  0  0  0
 61193  1  0  0  0  0
 62194  1  0  0  0  0
 62195  1  0  0  0  0
 62196  1  0  0  0  0
 63197  1  0  0  0  0
 63198  1  0  0  0  0
 63199  1  0  0  0  0
 65 66  1  0  0  0  0
 65200  1  0  0  0  0
 65201  1  0  0  0  0
 66202  1  0  0  0  0
 68 69  1  0  0  0  0
 68203  1  0  0  0  0
 68204  1  0  0  0  0
 69 70  1  0  0  0  0
 69 71  1  0  0  0  0
 69205  1  0  0  0  0
 70206  1  0  0  0  0
 70207  1  0  0  0  0
 70208  1  0  0  0  0
 71209  1  0  0  0  0
 71210  1  0  0  0  0
 71211  1  0  0  0  0
 73 74  1  0  0  0  0
 73212  1  0  0  0  0
 73213  1  0  0  0  0
 74214  1  0  0  0  0
 76 77  1  0  0  0  0
 76215  1  0  0  0  0
 76216  1  0  0  0  0
 77 78  1  0  0  0  0
 77217  1  0  0  0  0
 77218  1  0  0  0  0
 78 79  1  0  0  0  0
 78219  1  0  0  0  0
 78220  1  0  0  0  0
 79 80  1  0  0  0  0
 79221  1  0  0  0  0
 80 81  2  0  0  0  0
 80 82  1  0  0  0  0
 81222  1  0  0  0  0
 82223  1  0  0  0  0
 82224  1  0  0  0  0
 84 85  1  0  0  0  0
 84 86  2  0  0  0  0
 85225  1  0  0  0  0
 85226  1  0  0  0  0
 88 89  1  0  0  0  0
 88227  1  0  0  0  0
 88228  1  0  0  0  0
 89 90  1  0  0  0  0
 89229  1  0  0  0  0
 89230  1  0  0  0  0
 90 91  1  0  0  0  0
 90231  1  0  0  0  0
 90232  1  0  0  0  0
 91 92  1  0  0  0  0
 91233  1  0  0  0  0
 92 93  2  0  0  0  0
 92 94  1  0  0  0  0
 93234  1  0  0  0  0
 94235  1  0  0  0  0
 94236  1  0  0  0  0
 96 97  1  0  0  0  0
 96237  1  0  0  0  0
 97 98  1  0  0  0  0
 97136  2  0  0  0  0
 98 99  1  0  0  0  0
 98134  1  0  0  0  0
 98238  1  1  0  0  0
 99100  1  0  0  0  0
 99239  1  0  0  0  0
100101  1  0  0  0  0
100133  2  0  0  0  0
101102  1  0  0  0  0
101129  1  0  0  0  0
101240  1  6  0  0  0
102103  1  0  0  0  0
102241  1  0  0  0  0
103104  1  0  0  0  0
103128  2  0  0  0  0
104105  1  0  0  0  0
104126  1  0  0  0  0
104242  1  1  0  0  0
105106  1  0  0  0  0
105243  1  0  0  0  0
106107  1  0  0  0  0
106125  2  0  0  0  0
107108  1  0  0  0  0
107122  1  0  0  0  0
107244  1  6  0  0  0
108109  1  0  0  0  0
108245  1  0  0  0  0
109110  1  0  0  0  0
109121  2  0  0  0  0
110111  1  0  0  0  0
110246  1  0  0  0  0
110247  1  0  0  0  0
111112  1  0  0  0  0
111248  1  0  0  0  0
112113  1  0  0  0  0
112120  2  0  0  0  0
113114  1  0  0  0  0
113119  1  0  0  0  0
113249  1  6  0  0  0
114115  1  0  0  0  0
114250  1  0  0  0  0
114251  1  0  0  0  0
115116  1  0  0  0  0
115252  1  0  0  0  0
115253  1  0  0  0  0
116117  1  0  0  0  0
116254  1  0  0  0  0
116255  1  0  0  0  0
117118  1  0  0  0  0
117256  1  0  0  0  0
117257  1  0  0  0  0
118258  1  0  0  0  0
118259  1  0  0  0  0
119260  1  0  0  0  0
119261  1  0  0  0  0
122123  1  0  0  0  0
122124  1  0  0  0  0
122262  1  0  0  0  0
123263  1  0  0  0  0
123264  1  0  0  0  0
123265  1  0  0  0  0
124266  1  0  0  0  0
124267  1  0  0  0  0
124268  1  0  0  0  0
126127  1  0  0  0  0
126269  1  0  0  0  0
126270  1  0  0  0  0
127271  1  0  0  0  0
129130  1  0  0  0  0
129272  1  0  0  0  0
129273  1  0  0  0  0
130131  1  0  0  0  0
130132  1  0  0  0  0
130274  1  0  0  0  0
131275  1  0  0  0  0
131276  1  0  0  0  0
131277  1  0  0  0  0
132278  1  0  0  0  0
132279  1  0  0  0  0
132280  1  0  0  0  0
134135  1  0  0  0  0
134281  1  0  0  0  0
134282  1  0  0  0  0
135283  1  0  0  0  0
M  END
>  <DRUGBANK_ID>
DB05625

>  <COMMON_NAME>
CTCE-9908

>  <CAS_NUMBER>
1030384-98-5

>  <UNII>
NF0BX95A31

>  <SYNONYMS>
L-Lysinamide,N2,N6-bis(L-lysylglycyl-L-valyl-L-seryl-L-leucyl-L-seryl-L-tyrosyl-L-arginyl)-; SDF-1 (108) Lysine Dlmer

$$$$
