
 OpenBabel10282417072D

 67 70  0  0  0  0  0  0  0  0999 V2000
    2.1434   -4.5375    0.0000 C   0  0  0  0  0  0  0  0  0  0  0  0
    2.8579   -4.1250    0.0000 C   0  0  0  0  0  0  0  0  0  0  0  0
    3.2704   -4.8395    0.0000 C   0  0  0  0  0  0  0  0  0  0  0  0
    2.4454   -3.4105    0.0000 C   0  0  0  0  0  0  0  0  0  0  0  0
    3.5724   -3.7125    0.0000 N   0  0  0  0  0  0  0  0  0  0  0  0
    3.5724   -2.8875    0.0000 C   0  0  0  0  0  0  0  0  0  0  0  0
    4.2868   -2.4750    0.0000 O   0  0  0  0  0  0  0  0  0  0  0  0
    2.8579   -2.4750    0.0000 C   0  0  0  0  0  0  0  0  0  0  0  0
    2.8579   -1.6500    0.0000 C   0  0  0  0  0  0  0  0  0  0  0  0
    2.1434   -1.2375    0.0000 C   0  0  0  0  0  0  0  0  0  0  0  0
    1.4289   -1.6500    0.0000 C   0  0  0  0  0  0  0  0  0  0  0  0
    1.4289   -2.4750    0.0000 C   0  0  0  0  0  0  0  0  0  0  0  0
    2.1434   -2.8875    0.0000 C   0  0  0  0  0  0  0  0  0  0  0  0
    0.7145   -2.8875    0.0000 N   0  0  0  0  0  0  0  0  0  0  0  0
    0.7145   -3.7125    0.0000 S   0  0  0  0  0  0  0  0  0  0  0  0
   -0.1105   -3.7125    0.0000 O   0  0  0  0  0  0  0  0  0  0  0  0
    1.5395   -3.7125    0.0000 O   0  0  0  0  0  0  0  0  0  0  0  0
    0.7145   -4.5375    0.0000 C   0  0  0  0  0  0  0  0  0  0  0  0
    1.4289   -4.9500    0.0000 C   0  0  0  0  0  0  0  0  0  0  0  0
    1.4289   -5.7750    0.0000 C   0  0  0  0  0  0  0  0  0  0  0  0
    0.7145   -6.1875    0.0000 C   0  0  0  0  0  0  0  0  0  0  0  0
   -0.0000   -5.7750    0.0000 C   0  0  0  0  0  0  0  0  0  0  0  0
   -0.0000   -4.9500    0.0000 C   0  0  0  0  0  0  0  0  0  0  0  0
   -0.7145   -4.5375    0.0000 Cl  0  0  0  0  0  0  0  0  0  0  0  0
    0.7145   -7.0125    0.0000 C   0  0  0  0  0  0  0  0  0  0  0  0
    1.1270   -7.7270    0.0000 C   0  0  0  0  0  0  0  0  0  0  0  0
    0.3020   -7.7270    0.0000 C   0  0  0  0  0  0  0  0  0  0  0  0
    0.7145   -1.2375    0.0000 O   0  0  0  0  0  0  0  0  0  0  0  0
    0.7145   -0.4125    0.0000 C   0  0  0  0  0  0  0  0  0  0  0  0
   -0.0000   -0.0000    0.0000 C   0  0  0  0  0  0  0  0  0  0  0  0
   -0.0000    0.8250    0.0000 C   0  0  0  0  0  0  0  0  0  0  0  0
    0.7145    1.2375    0.0000 C   0  0  0  0  0  0  0  0  0  0  0  0
    1.4289    0.8250    0.0000 C   0  0  0  0  0  0  0  0  0  0  0  0
    1.4289    0.0000    0.0000 C   0  0  0  0  0  0  0  0  0  0  0  0
    2.1434   -0.4125    0.0000 Cl  0  0  0  0  0  0  0  0  0  0  0  0
    0.7145    2.0625    0.0000 C   0  0  0  0  0  0  0  0  0  0  0  0
    1.4289    2.4750    0.0000 C   0  0  0  0  0  0  0  0  0  0  0  0
    1.4289    3.3000    0.0000 O   0  0  0  0  0  0  0  0  0  0  0  0
    2.1434    2.0625    0.0000 O   0  0  0  0  0  0  0  0  0  0  0  0
   -0.7145    1.2375    0.0000 F   0  0  0  0  0  0  0  0  0  0  0  0
    1.2168   -4.0025    0.0000 H   0  0  0  0  0  0  0  0  0  0  0  0
    2.1434   -5.6075    0.0000 H   0  0  0  0  0  0  0  0  0  0  0  0
    1.2167   -5.0725    0.0000 H   0  0  0  0  0  0  0  0  0  0  0  0
    2.7354   -5.7661    0.0000 H   0  0  0  0  0  0  0  0  0  0  0  0
    4.3404   -4.8395    0.0000 H   0  0  0  0  0  0  0  0  0  0  0  0
    3.8054   -5.7662    0.0000 H   0  0  0  0  0  0  0  0  0  0  0  0
    2.9804   -2.4839    0.0000 H   0  0  0  0  0  0  0  0  0  0  0  0
    1.3754   -3.4105    0.0000 H   0  0  0  0  0  0  0  0  0  0  0  0
    1.9104   -2.4838    0.0000 H   0  0  0  0  0  0  0  0  0  0  0  0
    4.4250   -4.2048    0.0000 H   0  0  0  0  0  0  0  0  0  0  0  0
    3.7516   -1.1340    0.0000 H   0  0  0  0  0  0  0  0  0  0  0  0
    2.1434   -0.2055    0.0000 H   0  0  0  0  0  0  0  0  0  0  0  0
    2.1434   -3.9195    0.0000 H   0  0  0  0  0  0  0  0  0  0  0  0
   -0.1381   -2.3953    0.0000 H   0  0  0  0  0  0  0  0  0  0  0  0
    2.3226   -4.4340    0.0000 H   0  0  0  0  0  0  0  0  0  0  0  0
    2.3226   -6.2910    0.0000 H   0  0  0  0  0  0  0  0  0  0  0  0
   -0.8937   -6.2910    0.0000 H   0  0  0  0  0  0  0  0  0  0  0  0
    0.7145   -8.0825    0.0000 H   0  0  0  0  0  0  0  0  0  0  0  0
    2.0536   -8.2620    0.0000 H   0  0  0  0  0  0  0  0  0  0  0  0
    0.8501   -8.7605    0.0000 H   0  0  0  0  0  0  0  0  0  0  0  0
   -0.6246   -8.2620    0.0000 H   0  0  0  0  0  0  0  0  0  0  0  0
   -0.4546   -6.9704    0.0000 H   0  0  0  0  0  0  0  0  0  0  0  0
   -0.8937   -0.5160    0.0000 H   0  0  0  0  0  0  0  0  0  0  0  0
    2.3226    1.3410    0.0000 H   0  0  0  0  0  0  0  0  0  0  0  0
   -0.2122    2.5975    0.0000 H   0  0  0  0  0  0  0  0  0  0  0  0
    0.7145    3.1325    0.0000 H   0  0  0  0  0  0  0  0  0  0  0  0
    2.1434    1.1255    0.0000 H   0  0  0  0  0  0  0  0  0  0  0  0
  1  2  1  0  0  0  0
  1 41  1  0  0  0  0
  1 42  1  0  0  0  0
  1 43  1  0  0  0  0
  2  3  1  0  0  0  0
  2  4  1  0  0  0  0
  2  5  1  0  0  0  0
  3 44  1  0  0  0  0
  3 45  1  0  0  0  0
  3 46  1  0  0  0  0
  4 47  1  0  0  0  0
  4 48  1  0  0  0  0
  4 49  1  0  0  0  0
  5  6  1  0  0  0  0
  5 50  1  0  0  0  0
  6  7  2  0  0  0  0
  6  8  1  0  0  0  0
  8  9  2  0  0  0  0
  8 13  1  0  0  0  0
  9 10  1  0  0  0  0
  9 51  1  0  0  0  0
 10 11  2  0  0  0  0
 10 52  1  0  0  0  0
 11 12  1  0  0  0  0
 11 28  1  0  0  0  0
 12 13  2  0  0  0  0
 12 14  1  0  0  0  0
 13 53  1  0  0  0  0
 14 15  1  0  0  0  0
 14 54  1  0  0  0  0
 15 16  2  0  0  0  0
 15 17  2  0  0  0  0
 15 18  1  0  0  0  0
 18 19  2  0  0  0  0
 18 23  1  0  0  0  0
 19 20  1  0  0  0  0
 19 55  1  0  0  0  0
 20 21  2  0  0  0  0
 20 56  1  0  0  0  0
 21 22  1  0  0  0  0
 21 25  1  0  0  0  0
 22 23  2  0  0  0  0
 22 57  1  0  0  0  0
 23 24  1  0  0  0  0
 25 26  1  0  0  0  0
 25 27  1  0  0  0  0
 25 58  1  0  0  0  0
 26 27  1  0  0  0  0
 26 59  1  0  0  0  0
 26 60  1  0  0  0  0
 27 61  1  0  0  0  0
 27 62  1  0  0  0  0
 28 29  1  0  0  0  0
 29 30  2  0  0  0  0
 29 34  1  0  0  0  0
 30 31  1  0  0  0  0
 30 63  1  0  0  0  0
 31 32  2  0  0  0  0
 31 40  1  0  0  0  0
 32 33  1  0  0  0  0
 32 36  1  0  0  0  0
 33 34  2  0  0  0  0
 33 64  1  0  0  0  0
 34 35  1  0  0  0  0
 36 37  1  0  0  0  0
 36 65  1  0  0  0  0
 36 66  1  0  0  0  0
 37 38  2  0  0  0  0
 37 39  1  0  0  0  0
 39 67  1  0  0  0  0
M  END
>  <DRUGBANK_ID>
DB12272

>  <COMMON_NAME>
Vidupiprant

>  <CAS_NUMBER>
1169483-24-2

>  <UNII>
61OTZ32XNC

>  <SYNONYMS>
Vidupiprant

$$$$
