
 OpenBabel10282417072D

 42 42  0  0  1  0  0  0  0  0999 V2000
   -1.0164    0.7145    0.0000 C   0  0  0  0  0  0  0  0  0  0  0  0
    0.7145   -0.4125    0.0000 C   0  0  0  0  0  0  0  0  0  0  0  0
    1.4289    0.8250    0.0000 C   0  0  0  0  0  0  0  0  0  0  0  0
    1.4289    0.0000    0.0000 C   0  0  0  0  0  0  0  0  0  0  0  0
   -0.0000    0.0000    0.0000 C   0  0  2  0  0  0  0  0  0  0  0  0
    0.7145    1.2375    0.0000 C   0  0  2  0  0  0  0  0  0  0  0  0
    0.0000    0.8250    0.0000 C   0  0  1  0  0  0  0  0  0  0  0  0
    2.1434   -0.4125    0.0000 C   0  0  0  0  0  0  0  0  0  0  0  0
   -1.8414   -0.7145    0.0000 C   0  0  0  0  0  0  0  0  0  0  0  0
   -1.4289    0.0000    0.0000 C   0  0  2  0  0  0  0  0  0  0  0  0
   -0.7145    1.2375    0.0000 O   0  0  0  0  0  0  0  0  0  0  0  0
    2.8579    0.0000    0.0000 O   0  0  0  0  0  0  0  0  0  0  0  0
    2.1434   -1.2375    0.0000 O   0  0  0  0  0  0  0  0  0  0  0  0
   -1.4289   -1.4289    0.0000 O   0  0  0  0  0  0  0  0  0  0  0  0
   -2.6664   -0.7145    0.0000 O   0  0  0  0  0  0  0  0  0  0  0  0
    2.1434    2.8875    0.0000 O   0  0  0  0  0  0  0  0  0  0  0  0
    1.0164    3.1895    0.0000 O   0  0  0  0  0  0  0  0  0  0  0  0
    1.8414    1.7605    0.0000 O   0  0  0  0  0  0  0  0  0  0  0  0
   -2.9684    1.2375    0.0000 O   0  0  0  0  0  0  0  0  0  0  0  0
   -2.1434    2.0625    0.0000 O   0  0  0  0  0  0  0  0  0  0  0  0
   -1.3184    1.2375    0.0000 O   0  0  0  0  0  0  0  0  0  0  0  0
   -0.7145   -0.4125    0.0000 O   0  0  0  0  0  0  0  0  0  0  0  0
    0.7145    2.0625    0.0000 O   0  0  0  0  0  0  0  0  0  0  0  0
   -2.1434    0.4125    0.0000 O   0  0  0  0  0  0  0  0  0  0  0  0
    1.4289    2.4750    0.0000 P   0  0  0  0  0  0  0  0  0  0  0  0
   -2.1434    1.2375    0.0000 P   0  0  0  0  0  0  0  0  0  0  0  0
   -0.0000   -0.8250    0.0000 H   0  0  0  0  0  0  0  0  0  0  0  0
    1.4289    1.6500    0.0000 H   0  0  0  0  0  0  0  0  0  0  0  0
   -0.7145    0.4125    0.0000 H   0  0  0  0  0  0  0  0  0  0  0  0
    0.0536    0.7145    0.0000 H   0  0  0  0  0  0  0  0  0  0  0  0
   -1.5514    1.6411    0.0000 H   0  0  0  0  0  0  0  0  0  0  0  0
   -0.4814    1.6412    0.0000 H   0  0  0  0  0  0  0  0  0  0  0  0
    0.7145   -1.4825    0.0000 H   0  0  0  0  0  0  0  0  0  0  0  0
   -0.2121   -0.9475    0.0000 H   0  0  0  0  0  0  0  0  0  0  0  0
    2.3226    1.3410    0.0000 H   0  0  0  0  0  0  0  0  0  0  0  0
   -0.7145    2.2075    0.0000 H   0  0  0  0  0  0  0  0  0  0  0  0
    1.3319   -1.7060    0.0000 H   0  0  0  0  0  0  0  0  0  0  0  0
   -3.1349    0.0970    0.0000 H   0  0  0  0  0  0  0  0  0  0  0  0
    2.9834    2.4025    0.0000 H   0  0  0  0  0  0  0  0  0  0  0  0
    1.5014    4.0295    0.0000 H   0  0  0  0  0  0  0  0  0  0  0  0
   -3.4534    2.0775    0.0000 H   0  0  0  0  0  0  0  0  0  0  0  0
   -1.3034    2.5475    0.0000 H   0  0  0  0  0  0  0  0  0  0  0  0
  1 30  1  0  0  0  0
  1 31  1  0  0  0  0
  1 32  1  0  0  0  0
  2 33  1  0  0  0  0
  2 34  1  0  0  0  0
  3 35  1  0  0  0  0
  4  2  1  0  0  0  0
  4  3  2  0  0  0  0
  5  2  1  0  0  0  0
  5 22  1  0  0  0  0
  5 27  1  6  0  0  0
  6  3  1  0  0  0  0
  6 23  1  0  0  0  0
  6 28  1  1  0  0  0
  7  5  1  0  0  0  0
  7  6  1  0  0  0  0
  7 11  1  0  0  0  0
  7 29  1  1  0  0  0
  8  4  1  0  0  0  0
 10  1  1  0  0  0  0
 10  9  1  1  0  0  0
 10 22  1  0  0  0  0
 11 36  1  0  0  0  0
 12  8  2  0  0  0  0
 13  8  1  0  0  0  0
 13 37  1  0  0  0  0
 14  9  2  0  0  0  0
 15  9  1  0  0  0  0
 15 38  1  0  0  0  0
 16 39  1  0  0  0  0
 17 40  1  0  0  0  0
 19 41  1  0  0  0  0
 20 42  1  0  0  0  0
 24 10  1  0  0  0  0
 25 16  1  0  0  0  0
 25 17  1  0  0  0  0
 25 18  2  0  0  0  0
 25 23  1  0  0  0  0
 26 19  1  0  0  0  0
 26 20  1  0  0  0  0
 26 21  2  0  0  0  0
 26 24  1  0  0  0  0
M  END
>  <DRUGBANK_ID>
DB03116

>  <SECONDARY_ACCESSION_NUMBERS>
EXPT02914

>  <COMMON_NAME>
5-(1-Carboxy-1-Phosphonooxy-Ethoxyl)-Shikimate-3-Phosphate

$$$$
