
 OpenBabel10282417072D

  5  3  0  0  0  0  0  0  0  0999 V2000
   -1.0822    0.0103    0.0000 N   0  3  0  0  0  0  0  0  0  0  0  0
   -1.9292    0.0069    0.0000 O   0  0  0  0  0  0  0  0  0  0  0  0
   -0.6776   -0.7087    0.0000 O   0  5  0  0  0  0  0  0  0  0  0  0
   -0.6638    0.7087    0.0000 O   0  5  0  0  0  0  0  0  0  0  0  0
    1.9292   -0.0830    0.0000 Na  0  3  0  0  0  0  0  0  0  0  0  0
  1  2  2  0  0  0  0
  1  3  1  0  0  0  0
  1  4  1  0  0  0  0
M  CHG  4   1   1   3  -1   4  -1   5   1
M  END
>  <DRUGBANK_ID>
DB15952

>  <COMMON_NAME>
Sodium nitrate

>  <CAS_NUMBER>
7631-99-4

>  <UNII>
8M4L3H2ZVZ

>  <SYNONYMS>
Chile saltpeter; Cubic niter; Soda niter

$$$$
