XY2
 OpenBabel10282417072D

 36 37  0  0  0  0  0  0  0  0999 V2000
    3.0077    0.6617    0.0000 C   0  0  0  0  0  0  0  0  0  0  0  0
    3.0077   -0.1633    0.0000 C   0  0  0  0  0  0  0  0  0  0  0  0
    2.2932   -0.5758    0.0000 C   0  0  0  0  0  0  0  0  0  0  0  0
   -2.7081   -0.1633    0.0000 C   0  0  0  0  0  0  0  0  0  0  0  0
   -1.9936   -0.5758    0.0000 C   0  0  0  0  0  0  0  0  0  0  0  0
   -1.9936   -1.4008    0.0000 O   0  0  0  0  0  0  0  0  0  0  0  0
   -1.2791   -0.1633    0.0000 N   0  0  0  0  0  0  0  0  0  0  0  0
   -1.2791    0.6617    0.0000 C   0  0  0  0  0  0  0  0  0  0  0  0
   -0.5647   -0.5758    0.0000 C   0  0  0  0  0  0  0  0  0  0  0  0
    0.1498   -0.1633    0.0000 C   0  0  0  0  0  0  0  0  0  0  0  0
    0.8643   -0.5758    0.0000 N   0  0  0  0  0  0  0  0  0  0  0  0
    0.8643   -1.4008    0.0000 C   0  0  0  0  0  0  0  0  0  0  0  0
    3.6208   -0.7153    0.0000 N   0  0  0  0  0  0  0  0  0  0  0  0
    3.2852   -1.4690    0.0000 O   0  0  0  0  0  0  0  0  0  0  0  0
    2.4647   -1.3827    0.0000 N   0  0  0  0  0  0  0  0  0  0  0  0
    3.7222    1.0742    0.0000 N   0  3  0  0  0  0  0  0  0  0  0  0
    3.7222    1.8992    0.0000 O   0  5  0  0  0  0  0  0  0  0  0  0
    4.4366    0.6617    0.0000 O   0  0  0  0  0  0  0  0  0  0  0  0
    2.2932    1.0742    0.0000 C   0  0  0  0  0  0  0  0  0  0  0  0
    1.5787    0.6617    0.0000 C   0  0  0  0  0  0  0  0  0  0  0  0
    1.5787   -0.1633    0.0000 C   0  0  0  0  0  0  0  0  0  0  0  0
   -2.7081    0.9067    0.0000 H   0  0  0  0  0  0  0  0  0  0  0  0
   -3.6347   -0.6983    0.0000 H   0  0  0  0  0  0  0  0  0  0  0  0
   -3.6348    0.3717    0.0000 H   0  0  0  0  0  0  0  0  0  0  0  0
   -0.3525    1.1967    0.0000 H   0  0  0  0  0  0  0  0  0  0  0  0
   -2.2057    1.1967    0.0000 H   0  0  0  0  0  0  0  0  0  0  0  0
   -1.2791    1.7317    0.0000 H   0  0  0  0  0  0  0  0  0  0  0  0
   -0.5647   -1.6458    0.0000 H   0  0  0  0  0  0  0  0  0  0  0  0
    0.3619   -1.1108    0.0000 H   0  0  0  0  0  0  0  0  0  0  0  0
    0.1498    0.9067    0.0000 H   0  0  0  0  0  0  0  0  0  0  0  0
    1.0764    0.3717    0.0000 H   0  0  0  0  0  0  0  0  0  0  0  0
   -0.0623   -1.9358    0.0000 H   0  0  0  0  0  0  0  0  0  0  0  0
    1.7909   -1.9358    0.0000 H   0  0  0  0  0  0  0  0  0  0  0  0
    0.8643   -2.4708    0.0000 H   0  0  0  0  0  0  0  0  0  0  0  0
    2.2932    2.1062    0.0000 H   0  0  0  0  0  0  0  0  0  0  0  0
    0.6850    1.1777    0.0000 H   0  0  0  0  0  0  0  0  0  0  0  0
  1  2  1  0  0  0  0
  1 16  1  0  0  0  0
  1 19  2  0  0  0  0
  2  3  1  0  0  0  0
  2 13  2  0  0  0  0
  3 15  2  0  0  0  0
  3 21  1  0  0  0  0
  4  5  1  0  0  0  0
  4 22  1  0  0  0  0
  4 23  1  0  0  0  0
  4 24  1  0  0  0  0
  5  6  2  0  0  0  0
  5  7  1  0  0  0  0
  7  8  1  0  0  0  0
  7  9  1  0  0  0  0
  8 25  1  0  0  0  0
  8 26  1  0  0  0  0
  8 27  1  0  0  0  0
  9 10  1  0  0  0  0
  9 28  1  0  0  0  0
  9 29  1  0  0  0  0
 10 11  1  0  0  0  0
 10 30  1  0  0  0  0
 10 31  1  0  0  0  0
 11 12  1  0  0  0  0
 11 21  1  0  0  0  0
 12 32  1  0  0  0  0
 12 33  1  0  0  0  0
 12 34  1  0  0  0  0
 13 14  1  0  0  0  0
 14 15  1  0  0  0  0
 16 17  1  0  0  0  0
 16 18  2  0  0  0  0
 19 20  1  0  0  0  0
 19 35  1  0  0  0  0
 20 21  2  0  0  0  0
 20 36  1  0  0  0  0
M  CHG  2  16   1  17  -1
M  END
>  <DRUGBANK_ID>
DB08751

>  <COMMON_NAME>
N,N'-DIMETHYL-N-(ACETYL)-N'-(7-NITROBENZ-2-OXA-1,3-DIAZOL-4-YL)ETHYLENEDIAMINE

$$$$
