550
 OpenBabel10282417072D

 55 58  0  0  0  0  0  0  0  0999 V2000
   -4.1127   -0.1210    0.0000 O   0  0  0  0  0  0  0  0  0  0  0  0
   -4.8100   -1.6165    0.0000 O   0  0  0  0  0  0  0  0  0  0  0  0
   -3.0603    0.8429    0.0000 O   0  0  0  0  0  0  0  0  0  0  0  0
   -1.6531    1.0910    0.0000 O   0  0  0  0  0  0  0  0  0  0  0  0
    1.4305   -1.4892    0.0000 O   0  0  0  0  0  0  0  0  0  0  0  0
   -2.8176   -0.7249    0.0000 C   0  0  2  0  0  0  0  0  0  0  0  0
   -2.1418   -0.2517    0.0000 C   0  0  2  0  0  0  0  0  0  0  0  0
   -2.0699   -1.0736    0.0000 C   0  0  0  0  0  0  0  0  0  0  0  0
   -2.2851    0.5607    0.0000 C   0  0  0  0  0  0  0  0  0  0  0  0
   -1.4274    0.1608    0.0000 C   0  0  0  0  0  0  0  0  0  0  0  0
   -3.6395   -0.7968    0.0000 C   0  0  0  0  0  0  0  0  0  0  0  0
   -3.9882   -1.5445    0.0000 N   0  0  0  0  0  0  0  0  0  0  0  0
   -3.2036    1.6554    0.0000 C   0  0  0  0  0  0  0  0  0  0  0  0
   -0.7129   -0.2517    0.0000 C   0  0  0  0  0  0  0  0  0  0  0  0
    0.0016    0.1608    0.0000 C   0  0  0  0  0  0  0  0  0  0  0  0
    0.7160   -0.2517    0.0000 C   0  0  0  0  0  0  0  0  0  0  0  0
    0.7160   -1.0767    0.0000 C   0  0  0  0  0  0  0  0  0  0  0  0
    0.0016   -1.4892    0.0000 C   0  0  0  0  0  0  0  0  0  0  0  0
   -0.7129   -1.0767    0.0000 C   0  0  0  0  0  0  0  0  0  0  0  0
    2.1450   -1.0767    0.0000 C   0  0  0  0  0  0  0  0  0  0  0  0
    2.1450   -0.2517    0.0000 C   0  0  0  0  0  0  0  0  0  0  0  0
    1.4305    0.1608    0.0000 C   0  0  0  0  0  0  0  0  0  0  0  0
    1.4305    0.9858    0.0000 C   0  0  0  0  0  0  0  0  0  0  0  0
    2.1450    1.3983    0.0000 N   0  0  0  0  0  0  0  0  0  0  0  0
    2.8595    0.1608    0.0000 C   0  0  0  0  0  0  0  0  0  0  0  0
    2.8595    0.9858    0.0000 C   0  0  0  0  0  0  0  0  0  0  0  0
    3.5739    1.3983    0.0000 C   0  0  0  0  0  0  0  0  0  0  0  0
    4.2884    0.9858    0.0000 C   0  0  0  0  0  0  0  0  0  0  0  0
    4.2884    0.1608    0.0000 C   0  0  0  0  0  0  0  0  0  0  0  0
    3.5739   -0.2517    0.0000 C   0  0  0  0  0  0  0  0  0  0  0  0
    0.7160    1.3983    0.0000 C   0  0  0  0  0  0  0  0  0  0  0  0
   -3.0174   -0.1762    0.0000 H   0  0  0  0  0  0  0  0  0  0  0  0
   -5.3665   -0.8220    0.0000 H   0  0  0  0  0  0  0  0  0  0  0  0
   -1.4562   -1.9501    0.0000 H   0  0  0  0  0  0  0  0  0  0  0  0
   -1.0644   -0.7077    0.0000 H   0  0  0  0  0  0  0  0  0  0  0  0
   -1.4274    1.2308    0.0000 H   0  0  0  0  0  0  0  0  0  0  0  0
   -0.5008    0.6958    0.0000 H   0  0  0  0  0  0  0  0  0  0  0  0
   -3.4235   -2.3509    0.0000 H   0  0  0  0  0  0  0  0  0  0  0  0
   -2.3840    2.3432    0.0000 H   0  0  0  0  0  0  0  0  0  0  0  0
   -4.2091    2.0213    0.0000 H   0  0  0  0  0  0  0  0  0  0  0  0
   -3.3894    2.7091    0.0000 H   0  0  0  0  0  0  0  0  0  0  0  0
    0.0016    1.1928    0.0000 H   0  0  0  0  0  0  0  0  0  0  0  0
    1.6097    0.2643    0.0000 H   0  0  0  0  0  0  0  0  0  0  0  0
    0.0016   -2.5212    0.0000 H   0  0  0  0  0  0  0  0  0  0  0  0
   -1.6066   -1.5927    0.0000 H   0  0  0  0  0  0  0  0  0  0  0  0
    3.0716   -1.6117    0.0000 H   0  0  0  0  0  0  0  0  0  0  0  0
    3.0716   -0.5417    0.0000 H   0  0  0  0  0  0  0  0  0  0  0  0
    0.5368   -0.3552    0.0000 H   0  0  0  0  0  0  0  0  0  0  0  0
    3.5739    2.4303    0.0000 H   0  0  0  0  0  0  0  0  0  0  0  0
    5.1821    1.5018    0.0000 H   0  0  0  0  0  0  0  0  0  0  0  0
    5.1821   -0.3552    0.0000 H   0  0  0  0  0  0  0  0  0  0  0  0
    3.5739   -1.2837    0.0000 H   0  0  0  0  0  0  0  0  0  0  0  0
    0.7160    2.4683    0.0000 H   0  0  0  0  0  0  0  0  0  0  0  0
   -0.2106    0.8633    0.0000 H   0  0  0  0  0  0  0  0  0  0  0  0
   -0.2107    1.9333    0.0000 H   0  0  0  0  0  0  0  0  0  0  0  0
  1 11  2  0  0  0  0
  2 12  1  0  0  0  0
  2 33  1  0  0  0  0
  3  9  1  0  0  0  0
  3 13  1  0  0  0  0
  4  9  2  0  0  0  0
  5 17  1  0  0  0  0
  5 20  1  0  0  0  0
  6  7  1  0  0  0  0
  6  8  1  0  0  0  0
  6 11  1  0  0  0  0
  6 32  1  1  0  0  0
  7  8  1  0  0  0  0
  7  9  1  1  0  0  0
  7 10  1  0  0  0  0
  8 34  1  0  0  0  0
  8 35  1  0  0  0  0
 10 14  1  0  0  0  0
 10 36  1  0  0  0  0
 10 37  1  0  0  0  0
 11 12  1  0  0  0  0
 12 38  1  0  0  0  0
 13 39  1  0  0  0  0
 13 40  1  0  0  0  0
 13 41  1  0  0  0  0
 14 15  2  0  0  0  0
 14 19  1  0  0  0  0
 15 16  1  0  0  0  0
 15 42  1  0  0  0  0
 16 17  2  0  0  0  0
 16 43  1  0  0  0  0
 17 18  1  0  0  0  0
 18 19  2  0  0  0  0
 18 44  1  0  0  0  0
 19 45  1  0  0  0  0
 20 21  1  0  0  0  0
 20 46  1  0  0  0  0
 20 47  1  0  0  0  0
 21 22  2  0  0  0  0
 21 25  1  0  0  0  0
 22 23  1  0  0  0  0
 22 48  1  0  0  0  0
 23 24  2  0  0  0  0
 23 31  1  0  0  0  0
 24 26  1  0  0  0  0
 25 26  2  0  0  0  0
 25 30  1  0  0  0  0
 26 27  1  0  0  0  0
 27 28  2  0  0  0  0
 27 49  1  0  0  0  0
 28 29  1  0  0  0  0
 28 50  1  0  0  0  0
 29 30  2  0  0  0  0
 29 51  1  0  0  0  0
 30 52  1  0  0  0  0
 31 53  1  0  0  0  0
 31 54  1  0  0  0  0
 31 55  1  0  0  0  0
M  END
>  <DRUGBANK_ID>
DB07147

>  <COMMON_NAME>
methyl (1R,2S)-2-(hydroxycarbamoyl)-1-{4-[(2-methylquinolin-4-yl)methoxy]benzyl}cyclopropanecarboxylate

$$$$
