323
 OpenBabel10282417072D

 31 32  0  0  0  0  0  0  0  0999 V2000
    5.6655    0.6188    0.0000 O   0  0  0  0  0  0  0  0  0  0  0  0
    2.0930    0.2063    0.0000 O   0  0  0  0  0  0  0  0  0  0  0  0
    2.0930    1.8563    0.0000 O   0  0  0  0  0  0  0  0  0  0  0  0
    4.2365    3.0938    0.0000 O   0  5  0  0  0  0  0  0  0  0  0  0
    2.8075    3.0938    0.0000 O   0  0  0  0  0  0  0  0  0  0  0  0
    3.5220    2.6813    0.0000 N   0  3  0  0  0  0  0  0  0  0  0  0
    4.2365    0.6188    0.0000 C   0  0  0  0  0  0  0  0  0  0  0  0
    4.9509   -0.6188    0.0000 C   0  0  0  0  0  0  0  0  0  0  0  0
    4.9509    0.2063    0.0000 C   0  0  0  0  0  0  0  0  0  0  0  0
    4.2365    1.4438    0.0000 C   0  0  0  0  0  0  0  0  0  0  0  0
    3.5220    0.2063    0.0000 C   0  0  0  0  0  0  0  0  0  0  0  0
    3.5220    1.8563    0.0000 C   0  0  0  0  0  0  0  0  0  0  0  0
    2.8075    0.6188    0.0000 C   0  0  0  0  0  0  0  0  0  0  0  0
    4.9509   -2.2688    0.0000 C   0  0  0  0  0  0  0  0  0  0  0  0
    4.2365   -1.0313    0.0000 C   0  0  0  0  0  0  0  0  0  0  0  0
    5.6655   -1.0313    0.0000 C   0  0  0  0  0  0  0  0  0  0  0  0
    2.8075    1.4438    0.0000 C   0  0  0  0  0  0  0  0  0  0  0  0
    4.2365   -1.8563    0.0000 C   0  0  0  0  0  0  0  0  0  0  0  0
    5.6655   -1.8563    0.0000 C   0  0  0  0  0  0  0  0  0  0  0  0
    4.9509   -3.0938    0.0000 C   0  0  0  0  0  0  0  0  0  0  0  0
    1.2815    0.6748    0.0000 H   0  0  0  0  0  0  0  0  0  0  0  0
    2.0930    2.7933    0.0000 H   0  0  0  0  0  0  0  0  0  0  0  0
    5.1302    1.9598    0.0000 H   0  0  0  0  0  0  0  0  0  0  0  0
    3.5220   -0.8257    0.0000 H   0  0  0  0  0  0  0  0  0  0  0  0
    3.3428   -0.5153    0.0000 H   0  0  0  0  0  0  0  0  0  0  0  0
    6.5592   -0.5153    0.0000 H   0  0  0  0  0  0  0  0  0  0  0  0
    3.3428   -2.3723    0.0000 H   0  0  0  0  0  0  0  0  0  0  0  0
    6.5592   -2.3723    0.0000 H   0  0  0  0  0  0  0  0  0  0  0  0
    4.0243   -3.6288    0.0000 H   0  0  0  0  0  0  0  0  0  0  0  0
    5.8775   -3.6288    0.0000 H   0  0  0  0  0  0  0  0  0  0  0  0
    4.9509   -4.1638    0.0000 H   0  0  0  0  0  0  0  0  0  0  0  0
  1  9  2  0  0  0  0
  2 13  1  0  0  0  0
  2 21  1  0  0  0  0
  3 17  1  0  0  0  0
  3 22  1  0  0  0  0
  4  6  1  0  0  0  0
  5  6  2  0  0  0  0
  6 12  1  0  0  0  0
  7  9  1  0  0  0  0
  7 10  2  0  0  0  0
  7 11  1  0  0  0  0
  8  9  1  0  0  0  0
  8 15  2  0  0  0  0
  8 16  1  0  0  0  0
 10 12  1  0  0  0  0
 10 23  1  0  0  0  0
 11 13  2  0  0  0  0
 11 24  1  0  0  0  0
 12 17  2  0  0  0  0
 13 17  1  0  0  0  0
 14 18  2  0  0  0  0
 14 19  1  0  0  0  0
 14 20  1  0  0  0  0
 15 18  1  0  0  0  0
 15 25  1  0  0  0  0
 16 19  2  0  0  0  0
 16 26  1  0  0  0  0
 18 27  1  0  0  0  0
 19 28  1  0  0  0  0
 20 29  1  0  0  0  0
 20 30  1  0  0  0  0
 20 31  1  0  0  0  0
M  CHG  2   4  -1   6   1
M  END
>  <DRUGBANK_ID>
DB00323

>  <SECONDARY_ACCESSION_NUMBERS>
APRD00445

>  <COMMON_NAME>
Tolcapone

>  <CAS_NUMBER>
134308-13-7

>  <UNII>
CIF6334OLY

>  <SYNONYMS>
(3,4-dihydroxy-5-nitrophenyl)(4-methylphenyl)methanone; 3,4-dihydroxy-4'-methyl-5-nitrobenzophenone; 3,4-dihydroxy-5-nitro-4'-methylbenzophenone; 4'-methyl-3,4-dihydroxy-5-nitrobenzophenone; Tolcapon; Tolcapona; Tolcapone; Tolcaponum

$$$$
