167
 OpenBabel10282417072D

 22 21  0  0  1  0  0  0  0  0999 V2000
    5.2224   -0.0784    0.0000 O   0  0  0  0  0  0  0  0  0  0  0  0
    4.5080    1.1592    0.0000 O   0  0  0  0  0  0  0  0  0  0  0  0
    3.7935   -0.9034    0.0000 N   0  0  0  0  0  0  0  0  0  0  0  0
    3.0791    0.3341    0.0000 C   0  0  2  0  0  0  0  0  0  0  0  0
    3.7935   -0.0784    0.0000 C   0  0  1  0  0  0  0  0  0  0  0  0
    2.3645   -0.0784    0.0000 C   0  0  0  0  0  0  0  0  0  0  0  0
    3.0791    1.1592    0.0000 C   0  0  0  0  0  0  0  0  0  0  0  0
    1.6500    0.3341    0.0000 C   0  0  0  0  0  0  0  0  0  0  0  0
    4.5080    0.3341    0.0000 C   0  0  0  0  0  0  0  0  0  0  0  0
    5.2224   -1.0154    0.0000 H   0  0  0  0  0  0  0  0  0  0  0  0
    2.9102   -1.4134    0.0000 H   0  0  0  0  0  0  0  0  0  0  0  0
    4.6768   -1.4134    0.0000 H   0  0  0  0  0  0  0  0  0  0  0  0
    4.0058    0.8691    0.0000 H   0  0  0  0  0  0  0  0  0  0  0  0
    2.8668   -0.6134    0.0000 H   0  0  0  0  0  0  0  0  0  0  0  0
    2.3645   -1.1484    0.0000 H   0  0  0  0  0  0  0  0  0  0  0  0
    1.4378   -0.6134    0.0000 H   0  0  0  0  0  0  0  0  0  0  0  0
    4.0057    1.6942    0.0000 H   0  0  0  0  0  0  0  0  0  0  0  0
    2.1525    1.6942    0.0000 H   0  0  0  0  0  0  0  0  0  0  0  0
    3.0791    2.2292    0.0000 H   0  0  0  0  0  0  0  0  0  0  0  0
    1.6500    1.4041    0.0000 H   0  0  0  0  0  0  0  0  0  0  0  0
    0.7234   -0.2009    0.0000 H   0  0  0  0  0  0  0  0  0  0  0  0
    0.7233    0.8691    0.0000 H   0  0  0  0  0  0  0  0  0  0  0  0
  1  9  1  0  0  0  0
  1 10  1  0  0  0  0
  2  9  2  0  0  0  0
  3 11  1  0  0  0  0
  3 12  1  0  0  0  0
  4  5  1  0  0  0  0
  4  6  1  0  0  0  0
  4  7  1  0  0  0  0
  4 13  1  1  0  0  0
  5  3  1  0  0  0  0
  5  9  1  0  0  0  0
  5 14  1  6  0  0  0
  6  8  1  0  0  0  0
  6 15  1  0  0  0  0
  6 16  1  0  0  0  0
  7 17  1  0  0  0  0
  7 18  1  0  0  0  0
  7 19  1  0  0  0  0
  8 20  1  0  0  0  0
  8 21  1  0  0  0  0
  8 22  1  0  0  0  0
M  END
>  <DRUGBANK_ID>
DB00167

>  <SECONDARY_ACCESSION_NUMBERS>
NUTR00031

>  <COMMON_NAME>
Isoleucine

>  <CAS_NUMBER>
73-32-5

>  <UNII>
04Y7590D77

>  <SYNONYMS>
(2S,3S)-2-Amino-3-methylpentanoic acid; 2-Amino-3-methylvaleric acid; alpha-amino-beta-methylvaleric acid; Ile; Isoleucina; Isoleucine; Isoleucinum; L-Isoleucine; α-amino-β-methylvaleric acid

$$$$
