
 OpenBabel10282417072D

 59 63  0  0  0  0  0  0  0  0999 V2000
    3.2973   -0.5315    0.0000 C   0  0  2  0  0  0  0  0  0  0  0  0
   -2.5061    0.4817    0.0000 C   0  0  0  0  0  0  0  0  0  0  0  0
    2.0763   -0.9301    0.0000 C   0  0  2  0  0  0  0  0  0  0  0  0
   -1.0712    0.4817    0.0000 C   0  0  0  0  0  0  0  0  0  0  0  0
   -1.7876    0.0725    0.0000 C   0  0  0  0  0  0  0  0  0  0  0  0
    2.5020    0.2553    0.0000 C   0  0  1  0  0  0  0  0  0  0  0  0
    2.5020   -0.7453    0.0000 C   0  0  2  0  0  0  0  0  0  0  0  0
    1.2894   -1.1690    0.0000 O   0  0  0  0  0  0  0  0  0  0  0  0
    1.7025   -0.4651    0.0000 C   0  0  1  0  0  0  0  0  0  0  0  0
    2.0680   -0.1495    0.0000 C   0  0  1  0  0  0  0  0  0  0  0  0
    3.9347   -0.7453    0.0000 C   0  0  0  0  0  0  0  0  0  0  0  0
    2.8343   -1.3103    0.0000 C   0  0  0  0  0  0  0  0  0  0  0  0
   -3.2205    0.0725    0.0000 C   0  0  0  0  0  0  0  0  0  0  0  0
   -0.3590    0.0747    0.0000 N   0  0  0  0  0  0  0  0  0  0  0  0
    3.2226    0.4899    0.0000 C   0  0  0  0  0  0  0  0  0  0  0  0
    3.0565    0.0829    0.0000 C   0  0  0  0  0  0  0  0  0  0  0  0
    3.9347    0.0808    0.0000 C   0  0  0  0  0  0  0  0  0  0  0  0
    1.5738    0.1660    0.0000 C   0  0  0  0  0  0  0  0  0  0  0  0
   -2.5061    1.3103    0.0000 C   0  0  0  0  0  0  0  0  0  0  0  0
    1.7876    0.4880    0.0000 C   0  0  0  0  0  0  0  0  0  0  0  0
    0.3551    0.4817    0.0000 C   0  0  0  0  0  0  0  0  0  0  0  0
   -1.0734    1.3103    0.0000 C   0  0  0  0  0  0  0  0  0  0  0  0
   -3.2205   -0.7558    0.0000 O   0  0  0  0  0  0  0  0  0  0  0  0
   -1.7938    1.7234    0.0000 C   0  0  0  0  0  0  0  0  0  0  0  0
    3.2226    1.3163    0.0000 O   0  0  0  0  0  0  0  0  0  0  0  0
    0.3551    1.3103    0.0000 O   0  0  0  0  0  0  0  0  0  0  0  0
    1.0755    0.0747    0.0000 C   0  0  0  0  0  0  0  0  0  0  0  0
   -1.7876   -0.7558    0.0000 O   0  0  0  0  0  0  0  0  0  0  0  0
   -3.9347    0.4880    0.0000 O   0  0  0  0  0  0  0  0  0  0  0  0
    2.2860   -1.7316    0.0000 C   0  0  0  0  0  0  0  0  0  0  0  0
   -0.3590    1.7316    0.0000 O   0  0  0  0  0  0  0  0  0  0  0  0
    2.4999    1.0111    0.0000 C   0  0  0  0  0  0  0  0  0  0  0  0
    2.0618    0.6769    0.0000 H   0  0  0  0  0  0  0  0  0  0  0  0
    3.1541   -1.2462    0.0000 H   0  0  0  0  0  0  0  0  0  0  0  0
    2.5087    0.2384    0.0000 H   0  0  0  0  0  0  0  0  0  0  0  0
    4.5373   -1.5831    0.0000 H   0  0  0  0  0  0  0  0  0  0  0  0
    3.1349   -2.3372    0.0000 H   0  0  0  0  0  0  0  0  0  0  0  0
    3.8958   -1.4446    0.0000 H   0  0  0  0  0  0  0  0  0  0  0  0
   -0.3596   -0.9098    0.0000 H   0  0  0  0  0  0  0  0  0  0  0  0
    3.5536    1.0304    0.0000 H   0  0  0  0  0  0  0  0  0  0  0  0
    4.1249    0.0243    0.0000 H   0  0  0  0  0  0  0  0  0  0  0  0
    4.8279    0.5978    0.0000 H   0  0  0  0  0  0  0  0  0  0  0  0
    0.9680    1.0480    0.0000 H   0  0  0  0  0  0  0  0  0  0  0  0
    0.5889   -0.2522    0.0000 H   0  0  0  0  0  0  0  0  0  0  0  0
   -3.4003    1.8254    0.0000 H   0  0  0  0  0  0  0  0  0  0  0  0
    1.6749    1.5521    0.0000 H   0  0  0  0  0  0  0  0  0  0  0  0
    0.8335    0.9723    0.0000 H   0  0  0  0  0  0  0  0  0  0  0  0
   -1.7963    2.7554    0.0000 H   0  0  0  0  0  0  0  0  0  0  0  0
    1.0817   -0.9953    0.0000 H   0  0  0  0  0  0  0  0  0  0  0  0
    2.0043   -0.4565    0.0000 H   0  0  0  0  0  0  0  0  0  0  0  0
   -2.5991   -1.2243    0.0000 H   0  0  0  0  0  0  0  0  0  0  0  0
   -3.9316    1.4250    0.0000 H   0  0  0  0  0  0  0  0  0  0  0  0
    1.5249   -2.4837    0.0000 H   0  0  0  0  0  0  0  0  0  0  0  0
    3.3179   -2.0146    0.0000 H   0  0  0  0  0  0  0  0  0  0  0  0
    2.5568   -2.7668    0.0000 H   0  0  0  0  0  0  0  0  0  0  0  0
    0.4568    1.2706    0.0000 H   0  0  0  0  0  0  0  0  0  0  0  0
    3.4251    1.5487    0.0000 H   0  0  0  0  0  0  0  0  0  0  0  0
    1.5718    1.5435    0.0000 H   0  0  0  0  0  0  0  0  0  0  0  0
    2.4969    2.0811    0.0000 H   0  0  0  0  0  0  0  0  0  0  0  0
  1 11  1  6  0  0  0
  1 16  1  0  0  0  0
  2  5  1  0  0  0  0
  2 19  2  0  0  0  0
  3 12  1  0  0  0  0
  3  8  1  0  0  0  0
  3 30  1  1  0  0  0
  4 14  1  0  0  0  0
  5  4  2  0  0  0  0
  6  7  1  0  0  0  0
  6 20  1  6  0  0  0
  6 32  1  0  0  0  0
  7  1  1  0  0  0  0
  7 34  1  6  0  0  0
  8  9  1  0  0  0  0
  9  7  1  0  0  0  0
  9 18  1  0  0  0  0
  9 35  1  6  0  0  0
 10 16  1  0  0  0  0
 10  3  1  0  0  0  0
 10 33  1  1  0  0  0
 11 36  1  0  0  0  0
 12  1  1  0  0  0  0
 12 37  1  0  0  0  0
 12 38  1  0  0  0  0
 13  2  1  0  0  0  0
 14 21  1  0  0  0  0
 14 39  1  0  0  0  0
 15 17  1  0  0  0  0
 15  6  1  0  0  0  0
 16 40  1  0  0  0  0
 16 41  1  0  0  0  0
 17 11  2  0  0  0  0
 17 42  1  0  0  0  0
 18 10  1  0  0  0  0
 18 43  1  0  0  0  0
 18 44  1  0  0  0  0
 19 24  1  0  0  0  0
 19 45  1  0  0  0  0
 20 46  1  0  0  0  0
 20 47  1  0  0  0  0
 21 27  1  0  0  0  0
 22  4  1  0  0  0  0
 23 13  2  0  0  0  0
 24 22  2  0  0  0  0
 24 48  1  0  0  0  0
 25 15  2  0  0  0  0
 26 21  2  0  0  0  0
 27 20  1  0  0  0  0
 27 49  1  0  0  0  0
 27 50  1  0  0  0  0
 28  5  1  0  0  0  0
 28 51  1  0  0  0  0
 29 13  1  0  0  0  0
 29 52  1  0  0  0  0
 30 53  1  0  0  0  0
 30 54  1  0  0  0  0
 30 55  1  0  0  0  0
 31 22  1  0  0  0  0
 31 56  1  0  0  0  0
 32 57  1  0  0  0  0
 32 58  1  0  0  0  0
 32 59  1  0  0  0  0
M  END
>  <DRUGBANK_ID>
DB08407

>  <COMMON_NAME>
Platensimycin

>  <CAS_NUMBER>
835876-32-9

>  <UNII>
Q3DQ78KOFY

>  <SYNONYMS>
(âˆ’)-platensimycin

$$$$
