
 OpenBabel10282417072D

 37 37  0  0  0  0  0  0  0  0999 V2000
   -0.6880   -0.8250    0.0000 C   0  0  1  0  0  0  0  0  0  0  0  0
    0.0274    0.4072    0.0000 O   0  0  0  0  0  0  0  0  0  0  0  0
   -1.4036    0.4072    0.0000 C   0  0  1  0  0  0  0  0  0  0  0  0
    0.0274   -1.2393    0.0000 C   0  0  2  0  0  0  0  0  0  0  0  0
   -1.4036   -1.2393    0.0000 N   0  0  0  0  0  0  0  0  0  0  0  0
    0.7361    0.0000    0.0000 C   0  0  0  0  0  0  0  0  0  0  0  0
   -1.4002    1.2323    0.0000 C   0  0  1  0  0  0  0  0  0  0  0  0
   -2.1157    0.0000    0.0000 O   0  0  0  0  0  0  0  0  0  0  0  0
    0.7361   -0.8250    0.0000 C   0  0  0  0  0  0  0  0  0  0  0  0
    0.0274   -2.0608    0.0000 O   0  0  0  0  0  0  0  0  0  0  0  0
   -1.4002   -2.0573    0.0000 C   0  0  0  0  0  0  0  0  0  0  0  0
    1.3180    0.5853    0.0000 C   0  0  0  0  0  0  0  0  0  0  0  0
   -2.1157    1.6466    0.0000 C   0  0  0  0  0  0  0  0  0  0  0  0
   -0.6880    1.6466    0.0000 O   0  0  0  0  0  0  0  0  0  0  0  0
   -2.1088   -2.4682    0.0000 C   0  0  0  0  0  0  0  0  0  0  0  0
   -0.6915   -2.4648    0.0000 O   0  0  0  0  0  0  0  0  0  0  0  0
    2.1156    0.3765    0.0000 O   0  0  0  0  0  0  0  0  0  0  0  0
    1.0954    1.3796    0.0000 O   0  0  0  0  0  0  0  0  0  0  0  0
   -2.1157    2.4682    0.0000 O   0  0  0  0  0  0  0  0  0  0  0  0
   -0.6880    0.0000    0.0000 C   0  0  1  0  0  0  0  0  0  0  0  0
   -0.6880    0.8251    0.0000 H   0  0  0  0  0  0  0  0  0  0  0  0
   -1.6150   -0.2906    0.0000 H   0  0  0  0  0  0  0  0  0  0  0  0
   -1.4025   -0.6628    0.0000 H   0  0  0  0  0  0  0  0  0  0  0  0
   -0.8996   -1.7737    0.0000 H   0  0  0  0  0  0  0  0  0  0  0  0
   -2.2575   -0.7493    0.0000 H   0  0  0  0  0  0  0  0  0  0  0  0
   -0.4738    0.6969    0.0000 H   0  0  0  0  0  0  0  0  0  0  0  0
   -2.9537    0.4885    0.0000 H   0  0  0  0  0  0  0  0  0  0  0  0
    1.6312   -1.3386    0.0000 H   0  0  0  0  0  0  0  0  0  0  0  0
   -0.8126   -2.5458    0.0000 H   0  0  0  0  0  0  0  0  0  0  0  0
   -3.0427    1.1122    0.0000 H   0  0  0  0  0  0  0  0  0  0  0  0
   -3.0422    2.1819    0.0000 H   0  0  0  0  0  0  0  0  0  0  0  0
    0.1536    1.1643    0.0000 H   0  0  0  0  0  0  0  0  0  0  0  0
   -3.0365   -1.9350    0.0000 H   0  0  0  0  0  0  0  0  0  0  0  0
   -2.1068   -3.5382    0.0000 H   0  0  0  0  0  0  0  0  0  0  0  0
   -3.0344   -3.0050    0.0000 H   0  0  0  0  0  0  0  0  0  0  0  0
    2.3633   -0.5272    0.0000 H   0  0  0  0  0  0  0  0  0  0  0  0
   -1.2757    2.9532    0.0000 H   0  0  0  0  0  0  0  0  0  0  0  0
  1  4  1  0  0  0  0
  1  5  1  0  0  0  0
  1 22  1  6  0  0  0
  2  6  1  0  0  0  0
  3  7  1  0  0  0  0
  3  8  1  0  0  0  0
  3 23  1  1  0  0  0
  4  9  1  0  0  0  0
  4 10  1  0  0  0  0
  4 24  1  1  0  0  0
  5 11  1  0  0  0  0
  5 25  1  0  0  0  0
  6 12  1  0  0  0  0
  6  9  2  0  0  0  0
  7 13  1  0  0  0  0
  7 14  1  0  0  0  0
  7 26  1  6  0  0  0
  8 27  1  0  0  0  0
  9 28  1  0  0  0  0
 10 29  1  0  0  0  0
 11 15  1  0  0  0  0
 11 16  2  0  0  0  0
 12 17  1  0  0  0  0
 12 18  2  0  0  0  0
 13 19  1  0  0  0  0
 13 30  1  0  0  0  0
 13 31  1  0  0  0  0
 14 32  1  0  0  0  0
 15 33  1  0  0  0  0
 15 34  1  0  0  0  0
 15 35  1  0  0  0  0
 17 36  1  0  0  0  0
 19 37  1  0  0  0  0
 20  1  1  0  0  0  0
 20  2  1  0  0  0  0
 20  3  1  0  0  0  0
 20 21  1  1  0  0  0
M  END
>  <DRUGBANK_ID>
DB03991

>  <SECONDARY_ACCESSION_NUMBERS>
EXPT01111

>  <COMMON_NAME>
2-deoxy-2,3-dehydro-N-acetylneuraminic acid

>  <CAS_NUMBER>
24967-27-9

>  <UNII>
QR7675ZK8X

>  <SYNONYMS>
Neu2en5Ac

$$$$
