
 OpenBabel10282417072D

179186  0  0  0  0  0  0  0  0999 V2000
   -7.7040    0.1635    0.0000 C   0  0  0  0  0  0  0  0  0  0  0  0
   -7.7040    0.9886    0.0000 O   0  0  0  0  0  0  0  0  0  0  0  0
   -8.5047   -1.0694    0.0000 N   0  0  0  0  0  0  0  0  0  0  0  0
   -8.4184   -0.2489    0.0000 C   0  0  1  0  0  0  0  0  0  0  0  0
   -9.1720    0.0865    0.0000 C   0  0  0  0  0  0  0  0  0  0  0  0
   -9.7242   -0.5265    0.0000 C   0  0  0  0  0  0  0  0  0  0  0  0
   -5.5604   -0.2489    0.0000 C   0  0  0  0  0  0  0  0  0  0  0  0
   -5.5604   -1.0739    0.0000 O   0  0  0  0  0  0  0  0  0  0  0  0
   -6.9895   -0.2489    0.0000 N   0  0  0  0  0  0  0  0  0  0  0  0
   -6.2749    0.1635    0.0000 C   0  0  1  0  0  0  0  0  0  0  0  0
   -6.2749    0.9886    0.0000 C   0  0  0  0  0  0  0  0  0  0  0  0
   -5.5604    1.4011    0.0000 C   0  0  0  0  0  0  0  0  0  0  0  0
   -5.4742    2.2215    0.0000 C   0  0  0  0  0  0  0  0  0  0  0  0
   -4.6673    2.3930    0.0000 N   0  0  0  0  0  0  0  0  0  0  0  0
   -4.2547    1.6785    0.0000 C   0  0  0  0  0  0  0  0  0  0  0  0
   -4.8069    1.0655    0.0000 N   0  0  0  0  0  0  0  0  0  0  0  0
   -3.4170    0.1635    0.0000 C   0  0  0  0  0  0  0  0  0  0  0  0
   -3.4170    0.9886    0.0000 O   0  0  0  0  0  0  0  0  0  0  0  0
   -4.8460    0.1635    0.0000 N   0  0  0  0  0  0  0  0  0  0  0  0
   -4.1316   -0.2489    0.0000 C   0  0  1  0  0  0  0  0  0  0  0  0
   -4.1316   -1.0739    0.0000 C   0  0  0  0  0  0  0  0  0  0  0  0
   -3.4170   -1.4864    0.0000 C   0  0  0  0  0  0  0  0  0  0  0  0
   -2.6634   -1.1508    0.0000 C   0  0  0  0  0  0  0  0  0  0  0  0
   -2.1113   -1.7639    0.0000 N   0  0  0  0  0  0  0  0  0  0  0  0
   -2.5238   -2.4784    0.0000 C   0  0  0  0  0  0  0  0  0  0  0  0
   -2.2689   -3.2630    0.0000 C   0  0  0  0  0  0  0  0  0  0  0  0
   -2.8209   -3.8760    0.0000 C   0  0  0  0  0  0  0  0  0  0  0  0
   -3.6280   -3.7046    0.0000 C   0  0  0  0  0  0  0  0  0  0  0  0
   -3.8828   -2.9200    0.0000 C   0  0  0  0  0  0  0  0  0  0  0  0
   -3.3308   -2.3069    0.0000 C   0  0  0  0  0  0  0  0  0  0  0  0
   -1.2736   -0.2489    0.0000 C   0  0  0  0  0  0  0  0  0  0  0  0
   -1.2736   -1.0739    0.0000 O   0  0  0  0  0  0  0  0  0  0  0  0
   -2.7026   -0.2489    0.0000 N   0  0  0  0  0  0  0  0  0  0  0  0
   -1.9882    0.1635    0.0000 C   0  0  1  0  0  0  0  0  0  0  0  0
   -1.9882    0.9886    0.0000 C   0  0  0  0  0  0  0  0  0  0  0  0
   -2.7026    1.4011    0.0000 O   0  0  0  0  0  0  0  0  0  0  0  0
    0.8697    0.1635    0.0000 C   0  0  0  0  0  0  0  0  0  0  0  0
    0.8697    0.9886    0.0000 O   0  0  0  0  0  0  0  0  0  0  0  0
   -0.5591    0.1635    0.0000 N   0  0  0  0  0  0  0  0  0  0  0  0
    0.1551   -0.2489    0.0000 C   0  0  1  0  0  0  0  0  0  0  0  0
    0.1551   -1.0739    0.0000 C   0  0  0  0  0  0  0  0  0  0  0  0
    0.8697   -1.4864    0.0000 C   0  0  0  0  0  0  0  0  0  0  0  0
    0.8697   -2.3114    0.0000 C   0  0  0  0  0  0  0  0  0  0  0  0
    1.5842   -2.7239    0.0000 C   0  0  0  0  0  0  0  0  0  0  0  0
    2.2986   -2.3114    0.0000 C   0  0  0  0  0  0  0  0  0  0  0  0
    3.0131   -2.7239    0.0000 O   0  0  0  0  0  0  0  0  0  0  0  0
    2.2986   -1.4864    0.0000 C   0  0  0  0  0  0  0  0  0  0  0  0
    1.5842   -1.0739    0.0000 C   0  0  0  0  0  0  0  0  0  0  0  0
    3.0131   -0.2489    0.0000 C   0  0  0  0  0  0  0  0  0  0  0  0
    3.0131   -1.0739    0.0000 O   0  0  0  0  0  0  0  0  0  0  0  0
    1.5842   -0.2489    0.0000 N   0  0  0  0  0  0  0  0  0  0  0  0
    2.2986    0.1635    0.0000 C   0  0  2  0  0  0  0  0  0  0  0  0
    2.2986    0.9886    0.0000 C   0  0  0  0  0  0  0  0  0  0  0  0
    3.0131    1.4011    0.0000 C   0  0  0  0  0  0  0  0  0  0  0  0
    3.7276    0.9886    0.0000 C   0  0  0  0  0  0  0  0  0  0  0  0
    4.4421    1.4011    0.0000 C   0  0  0  0  0  0  0  0  0  0  0  0
    4.4421    2.2260    0.0000 C   0  0  0  0  0  0  0  0  0  0  0  0
    3.7276    2.6385    0.0000 C   0  0  0  0  0  0  0  0  0  0  0  0
    3.0131    2.2260    0.0000 C   0  0  0  0  0  0  0  0  0  0  0  0
    5.1564    0.1635    0.0000 C   0  0  0  0  0  0  0  0  0  0  0  0
    5.1564    0.9886    0.0000 O   0  0  0  0  0  0  0  0  0  0  0  0
    3.7276    0.1635    0.0000 N   0  0  0  0  0  0  0  0  0  0  0  0
    4.4421   -0.2489    0.0000 C   0  0  1  0  0  0  0  0  0  0  0  0
    4.4421   -1.0739    0.0000 C   0  0  0  0  0  0  0  0  0  0  0  0
    5.1564   -1.4864    0.0000 C   0  0  0  0  0  0  0  0  0  0  0  0
    5.8710   -1.0739    0.0000 C   0  0  0  0  0  0  0  0  0  0  0  0
    5.1564   -2.3114    0.0000 C   0  0  0  0  0  0  0  0  0  0  0  0
    7.2999   -0.2489    0.0000 C   0  0  0  0  0  0  0  0  0  0  0  0
    7.2999   -1.0739    0.0000 O   0  0  0  0  0  0  0  0  0  0  0  0
    5.8710   -0.2489    0.0000 N   0  0  0  0  0  0  0  0  0  0  0  0
    6.5855    0.1635    0.0000 C   0  0  1  0  0  0  0  0  0  0  0  0
    6.5855    0.9886    0.0000 C   0  0  0  0  0  0  0  0  0  0  0  0
    7.2999    1.4011    0.0000 C   0  0  0  0  0  0  0  0  0  0  0  0
    7.2999    2.2260    0.0000 C   0  0  0  0  0  0  0  0  0  0  0  0
    8.0144    2.6385    0.0000 N   0  0  0  0  0  0  0  0  0  0  0  0
    8.0144    3.4635    0.0000 C   0  0  0  0  0  0  0  0  0  0  0  0
    7.2999    3.8760    0.0000 N   0  0  0  0  0  0  0  0  0  0  0  0
    8.7289    3.8760    0.0000 N   0  0  0  0  0  0  0  0  0  0  0  0
    8.9396   -0.9789    0.0000 C   0  0  0  0  0  0  0  0  0  0  0  0
    9.7242   -1.2339    0.0000 O   0  0  0  0  0  0  0  0  0  0  0  0
    8.0144    0.1635    0.0000 N   0  0  0  0  0  0  0  0  0  0  0  0
    8.7680   -0.1719    0.0000 C   0  0  1  0  0  0  0  0  0  0  0  0
    9.3200    0.4410    0.0000 C   0  0  0  0  0  0  0  0  0  0  0  0
    8.9076    1.1556    0.0000 C   0  0  0  0  0  0  0  0  0  0  0  0
    8.1006    0.9840    0.0000 C   0  0  0  0  0  0  0  0  0  0  0  0
    7.9147   -2.9213    0.0000 C   0  0  0  0  0  0  0  0  0  0  0  0
    8.1282   -3.7182    0.0000 O   0  0  0  0  0  0  0  0  0  0  0  0
    8.3265   -1.5310    0.0000 N   0  0  0  0  0  0  0  0  0  0  0  0
    8.4980   -2.3379    0.0000 C   0  0  0  0  0  0  0  0  0  0  0  0
    7.1178   -2.7078    0.0000 N   0  0  0  0  0  0  0  0  0  0  0  0
   -9.3116   -1.2409    0.0000 C   0  0  0  0  0  0  0  0  0  0  0  0
   -9.6472   -1.9945    0.0000 O   0  0  0  0  0  0  0  0  0  0  0  0
    5.1564    2.6385    0.0000 C   0  0  0  0  0  0  0  0  0  0  0  0
    5.1564    3.4635    0.0000 C   0  0  0  0  0  0  0  0  0  0  0  0
    4.4421    3.8760    0.0000 C   0  0  0  0  0  0  0  0  0  0  0  0
    3.7276    3.4635    0.0000 C   0  0  0  0  0  0  0  0  0  0  0  0
   -7.7731   -1.7282    0.0000 H   0  0  0  0  0  0  0  0  0  0  0  0
   -7.5211   -0.8317    0.0000 H   0  0  0  0  0  0  0  0  0  0  0  0
   -9.3944    1.1331    0.0000 H   0  0  0  0  0  0  0  0  0  0  0  0
  -10.2055    0.3636    0.0000 H   0  0  0  0  0  0  0  0  0  0  0  0
  -10.7883   -0.4146    0.0000 H   0  0  0  0  0  0  0  0  0  0  0  0
  -10.3069   -1.4239    0.0000 H   0  0  0  0  0  0  0  0  0  0  0  0
   -6.9895   -1.2334    0.0000 H   0  0  0  0  0  0  0  0  0  0  0  0
   -7.2015    0.6986    0.0000 H   0  0  0  0  0  0  0  0  0  0  0  0
   -7.2015    1.5236    0.0000 H   0  0  0  0  0  0  0  0  0  0  0  0
   -6.2749    2.0586    0.0000 H   0  0  0  0  0  0  0  0  0  0  0  0
   -6.2411    2.9120    0.0000 H   0  0  0  0  0  0  0  0  0  0  0  0
   -4.2669    3.2924    0.0000 H   0  0  0  0  0  0  0  0  0  0  0  0
   -3.2284    1.5706    0.0000 H   0  0  0  0  0  0  0  0  0  0  0  0
   -4.8460    1.1480    0.0000 H   0  0  0  0  0  0  0  0  0  0  0  0
   -5.0582   -0.7839    0.0000 H   0  0  0  0  0  0  0  0  0  0  0  0
   -5.0582   -1.6089    0.0000 H   0  0  0  0  0  0  0  0  0  0  0  0
   -4.1315   -2.1439    0.0000 H   0  0  0  0  0  0  0  0  0  0  0  0
   -2.4489   -0.1413    0.0000 H   0  0  0  0  0  0  0  0  0  0  0  0
   -1.1322   -1.6610    0.0000 H   0  0  0  0  0  0  0  0  0  0  0  0
   -1.2595   -3.4776    0.0000 H   0  0  0  0  0  0  0  0  0  0  0  0
   -2.5019   -4.8575    0.0000 H   0  0  0  0  0  0  0  0  0  0  0  0
   -4.3185   -4.4715    0.0000 H   0  0  0  0  0  0  0  0  0  0  0  0
   -4.8922   -2.7054    0.0000 H   0  0  0  0  0  0  0  0  0  0  0  0
   -2.7026   -1.2334    0.0000 H   0  0  0  0  0  0  0  0  0  0  0  0
   -2.9148    0.6985    0.0000 H   0  0  0  0  0  0  0  0  0  0  0  0
   -1.0615    1.5236    0.0000 H   0  0  0  0  0  0  0  0  0  0  0  0
   -1.9882    2.0586    0.0000 H   0  0  0  0  0  0  0  0  0  0  0  0
   -2.7026    2.3711    0.0000 H   0  0  0  0  0  0  0  0  0  0  0  0
   -0.5590    1.1480    0.0000 H   0  0  0  0  0  0  0  0  0  0  0  0
   -0.7716   -0.7839    0.0000 H   0  0  0  0  0  0  0  0  0  0  0  0
   -0.7715   -1.6089    0.0000 H   0  0  0  0  0  0  0  0  0  0  0  0
    0.1552   -2.1439    0.0000 H   0  0  0  0  0  0  0  0  0  0  0  0
   -0.0240   -2.8274    0.0000 H   0  0  0  0  0  0  0  0  0  0  0  0
    1.5842   -3.7559    0.0000 H   0  0  0  0  0  0  0  0  0  0  0  0
    3.0131   -3.6609    0.0000 H   0  0  0  0  0  0  0  0  0  0  0  0
    3.1923   -0.9704    0.0000 H   0  0  0  0  0  0  0  0  0  0  0  0
    1.5842   -0.0419    0.0000 H   0  0  0  0  0  0  0  0  0  0  0  0
    1.5842   -1.2334    0.0000 H   0  0  0  0  0  0  0  0  0  0  0  0
    1.3720    0.6985    0.0000 H   0  0  0  0  0  0  0  0  0  0  0  0
    1.3720    1.5236    0.0000 H   0  0  0  0  0  0  0  0  0  0  0  0
    1.3720    0.4536    0.0000 H   0  0  0  0  0  0  0  0  0  0  0  0
    3.7276   -0.0434    0.0000 H   0  0  0  0  0  0  0  0  0  0  0  0
    5.3358    0.8851    0.0000 H   0  0  0  0  0  0  0  0  0  0  0  0
    2.1194    2.7420    0.0000 H   0  0  0  0  0  0  0  0  0  0  0  0
    3.7276    1.1480    0.0000 H   0  0  0  0  0  0  0  0  0  0  0  0
    3.5155   -0.7840    0.0000 H   0  0  0  0  0  0  0  0  0  0  0  0
    3.5154   -1.6089    0.0000 H   0  0  0  0  0  0  0  0  0  0  0  0
    4.4420   -2.1439    0.0000 H   0  0  0  0  0  0  0  0  0  0  0  0
    6.0830   -2.0214    0.0000 H   0  0  0  0  0  0  0  0  0  0  0  0
    6.7976   -1.6090    0.0000 H   0  0  0  0  0  0  0  0  0  0  0  0
    5.8711   -0.0039    0.0000 H   0  0  0  0  0  0  0  0  0  0  0  0
    6.7977   -0.5390    0.0000 H   0  0  0  0  0  0  0  0  0  0  0  0
    4.2298   -2.8464    0.0000 H   0  0  0  0  0  0  0  0  0  0  0  0
    6.0830   -2.8464    0.0000 H   0  0  0  0  0  0  0  0  0  0  0  0
    5.1564   -3.3814    0.0000 H   0  0  0  0  0  0  0  0  0  0  0  0
    5.8710   -1.2334    0.0000 H   0  0  0  0  0  0  0  0  0  0  0  0
    5.6589    0.6986    0.0000 H   0  0  0  0  0  0  0  0  0  0  0  0
    5.6588    1.5236    0.0000 H   0  0  0  0  0  0  0  0  0  0  0  0
    6.5855    2.0586    0.0000 H   0  0  0  0  0  0  0  0  0  0  0  0
    8.2266    0.8661    0.0000 H   0  0  0  0  0  0  0  0  0  0  0  0
    8.2265    1.9361    0.0000 H   0  0  0  0  0  0  0  0  0  0  0  0
    6.3733    2.7610    0.0000 H   0  0  0  0  0  0  0  0  0  0  0  0
    7.2999    3.2960    0.0000 H   0  0  0  0  0  0  0  0  0  0  0  0
    8.8670    2.1462    0.0000 H   0  0  0  0  0  0  0  0  0  0  0  0
    7.2999    4.8605    0.0000 H   0  0  0  0  0  0  0  0  0  0  0  0
    9.5815    3.3837    0.0000 H   0  0  0  0  0  0  0  0  0  0  0  0
    8.7289    4.8605    0.0000 H   0  0  0  0  0  0  0  0  0  0  0  0
    7.9365   -0.8454    0.0000 H   0  0  0  0  0  0  0  0  0  0  0  0
   10.3841    0.3290    0.0000 H   0  0  0  0  0  0  0  0  0  0  0  0
    9.9029    1.3383    0.0000 H   0  0  0  0  0  0  0  0  0  0  0  0
    9.3429    2.1331    0.0000 H   0  0  0  0  0  0  0  0  0  0  0  0
    8.2342    1.9871    0.0000 H   0  0  0  0  0  0  0  0  0  0  0  0
    7.3054    1.6999    0.0000 H   0  0  0  0  0  0  0  0  0  0  0  0
    7.1017    0.6005    0.0000 H   0  0  0  0  0  0  0  0  0  0  0  0
    7.3902   -1.2268    0.0000 H   0  0  0  0  0  0  0  0  0  0  0  0
    9.5239   -2.6418    0.0000 H   0  0  0  0  0  0  0  0  0  0  0  0
    8.7614   -3.3750    0.0000 H   0  0  0  0  0  0  0  0  0  0  0  0
    6.8630   -1.7569    0.0000 H   0  0  0  0  0  0  0  0  0  0  0  0
    6.4217   -3.4040    0.0000 H   0  0  0  0  0  0  0  0  0  0  0  0
    6.0502    2.1225    0.0000 H   0  0  0  0  0  0  0  0  0  0  0  0
    6.0502    3.9795    0.0000 H   0  0  0  0  0  0  0  0  0  0  0  0
    4.4422    4.9080    0.0000 H   0  0  0  0  0  0  0  0  0  0  0  0
    2.8339    3.9795    0.0000 H   0  0  0  0  0  0  0  0  0  0  0  0
  1  2  2  0  0  0  0
  1  4  1  0  0  0  0
  1  9  1  0  0  0  0
  3 97  1  0  0  0  0
  4  3  1  0  0  0  0
  4  5  1  0  0  0  0
  4 98  1  6  0  0  0
  5  6  1  0  0  0  0
  5 99  1  0  0  0  0
  5100  1  0  0  0  0
  6 91  1  0  0  0  0
  6101  1  0  0  0  0
  6102  1  0  0  0  0
  7  8  2  0  0  0  0
  7 10  1  0  0  0  0
  7 19  1  0  0  0  0
  9 10  1  0  0  0  0
  9103  1  0  0  0  0
 10 11  1  0  0  0  0
 10104  1  6  0  0  0
 11 12  1  0  0  0  0
 11105  1  0  0  0  0
 11106  1  0  0  0  0
 12 13  2  0  0  0  0
 12 16  1  0  0  0  0
 13 14  1  0  0  0  0
 13107  1  0  0  0  0
 14 15  1  0  0  0  0
 14108  1  0  0  0  0
 15 16  2  0  0  0  0
 15109  1  0  0  0  0
 17 18  2  0  0  0  0
 17 20  1  0  0  0  0
 17 33  1  0  0  0  0
 19 20  1  0  0  0  0
 19110  1  0  0  0  0
 20 21  1  0  0  0  0
 20111  1  1  0  0  0
 21 22  1  0  0  0  0
 21112  1  0  0  0  0
 21113  1  0  0  0  0
 22 23  2  0  0  0  0
 22 30  1  0  0  0  0
 23 24  1  0  0  0  0
 23114  1  0  0  0  0
 24 25  1  0  0  0  0
 24115  1  0  0  0  0
 25 26  2  0  0  0  0
 25 30  1  0  0  0  0
 26 27  1  0  0  0  0
 26116  1  0  0  0  0
 27 28  2  0  0  0  0
 27117  1  0  0  0  0
 28 29  1  0  0  0  0
 28118  1  0  0  0  0
 29 30  2  0  0  0  0
 29119  1  0  0  0  0
 31 32  2  0  0  0  0
 31 34  1  0  0  0  0
 31 39  1  0  0  0  0
 33 34  1  0  0  0  0
 33120  1  0  0  0  0
 34 35  1  0  0  0  0
 34121  1  6  0  0  0
 35 36  1  0  0  0  0
 35122  1  0  0  0  0
 35123  1  0  0  0  0
 36124  1  0  0  0  0
 37 38  2  0  0  0  0
 37 40  1  0  0  0  0
 37 51  1  0  0  0  0
 39 40  1  0  0  0  0
 39125  1  0  0  0  0
 40 41  1  0  0  0  0
 40126  1  1  0  0  0
 41 42  1  0  0  0  0
 41127  1  0  0  0  0
 41128  1  0  0  0  0
 42 43  2  0  0  0  0
 42 48  1  0  0  0  0
 43 44  1  0  0  0  0
 43129  1  0  0  0  0
 44 45  2  0  0  0  0
 44130  1  0  0  0  0
 45 46  1  0  0  0  0
 45 47  1  0  0  0  0
 46131  1  0  0  0  0
 47 48  2  0  0  0  0
 47132  1  0  0  0  0
 48133  1  0  0  0  0
 49 50  2  0  0  0  0
 49 52  1  0  0  0  0
 49 62  1  0  0  0  0
 51 52  1  0  0  0  0
 51134  1  0  0  0  0
 52 53  1  0  0  0  0
 52135  1  1  0  0  0
 53 54  1  0  0  0  0
 53136  1  0  0  0  0
 53137  1  0  0  0  0
 54 55  1  0  0  0  0
 54 59  2  0  0  0  0
 55 56  2  0  0  0  0
 55138  1  0  0  0  0
 56 57  1  0  0  0  0
 56139  1  0  0  0  0
 57 58  2  0  0  0  0
 57 93  1  0  0  0  0
 58 59  1  0  0  0  0
 59140  1  0  0  0  0
 60 61  2  0  0  0  0
 60 63  1  0  0  0  0
 60 70  1  0  0  0  0
 62 63  1  0  0  0  0
 62141  1  0  0  0  0
 63 64  1  0  0  0  0
 63142  1  1  0  0  0
 64 65  1  0  0  0  0
 64143  1  0  0  0  0
 64144  1  0  0  0  0
 65 66  1  0  0  0  0
 65 67  1  0  0  0  0
 65145  1  0  0  0  0
 66146  1  0  0  0  0
 66147  1  0  0  0  0
 66148  1  0  0  0  0
 67149  1  0  0  0  0
 67150  1  0  0  0  0
 67151  1  0  0  0  0
 68 69  2  0  0  0  0
 68 71  1  0  0  0  0
 68 81  1  0  0  0  0
 70 71  1  0  0  0  0
 70152  1  0  0  0  0
 71 72  1  0  0  0  0
 71153  1  6  0  0  0
 72 73  1  0  0  0  0
 72154  1  0  0  0  0
 72155  1  0  0  0  0
 73 74  1  0  0  0  0
 73156  1  0  0  0  0
 73157  1  0  0  0  0
 74 75  1  0  0  0  0
 74158  1  0  0  0  0
 74159  1  0  0  0  0
 75 76  1  0  0  0  0
 75160  1  0  0  0  0
 76 77  2  0  0  0  0
 76 78  1  0  0  0  0
 77161  1  0  0  0  0
 78162  1  0  0  0  0
 78163  1  0  0  0  0
 79 80  2  0  0  0  0
 79 88  1  0  0  0  0
 81 82  1  0  0  0  0
 81 85  1  0  0  0  0
 82 79  1  0  0  0  0
 82 83  1  0  0  0  0
 82164  1  6  0  0  0
 83 84  1  0  0  0  0
 83165  1  0  0  0  0
 83166  1  0  0  0  0
 84 85  1  0  0  0  0
 84167  1  0  0  0  0
 84168  1  0  0  0  0
 85169  1  0  0  0  0
 85170  1  0  0  0  0
 86 87  2  0  0  0  0
 86 89  1  0  0  0  0
 86 90  1  0  0  0  0
 88 89  1  0  0  0  0
 88171  1  0  0  0  0
 89172  1  0  0  0  0
 89173  1  0  0  0  0
 90174  1  0  0  0  0
 90175  1  0  0  0  0
 91  3  1  0  0  0  0
 91 92  2  0  0  0  0
 93 94  2  0  0  0  0
 93176  1  0  0  0  0
 94 95  1  0  0  0  0
 94177  1  0  0  0  0
 95 96  2  0  0  0  0
 95178  1  0  0  0  0
 96 58  1  0  0  0  0
 96179  1  0  0  0  0
M  END
>  <DRUGBANK_ID>
DB00666

>  <SECONDARY_ACCESSION_NUMBERS>
APRD01129

>  <COMMON_NAME>
Nafarelin

>  <CAS_NUMBER>
76932-56-4

>  <UNII>
1X0094V6JV

>  <SYNONYMS>
Nafarelin; Nafarelina; Nafaréline; Nafarelinum

$$$$
