338
 OpenBabel10282417072D

 43 45  0  0  1  0  0  0  0  0999 V2000
    6.5951    0.4967    0.0000 S   0  0  3  0  0  0  0  0  0  0  0  0
    9.4827   -1.6468    0.0000 O   0  0  0  0  0  0  0  0  0  0  0  0
    7.0076    1.2111    0.0000 O   0  0  0  0  0  0  0  0  0  0  0  0
    2.3645    1.3217    0.0000 O   0  0  0  0  0  0  0  0  0  0  0  0
    5.2886    1.1606    0.0000 N   0  0  0  0  0  0  0  0  0  0  0  0
    5.2886   -0.1672    0.0000 N   0  0  0  0  0  0  0  0  0  0  0  0
    8.2451    0.4967    0.0000 N   0  0  0  0  0  0  0  0  0  0  0  0
    7.0076   -0.2178    0.0000 C   0  0  0  0  0  0  0  0  0  0  0  0
    7.8326   -0.2178    0.0000 C   0  0  0  0  0  0  0  0  0  0  0  0
    8.2451   -0.9323    0.0000 C   0  0  0  0  0  0  0  0  0  0  0  0
    5.7701    0.4967    0.0000 C   0  0  0  0  0  0  0  0  0  0  0  0
    4.5080    0.9092    0.0000 C   0  0  0  0  0  0  0  0  0  0  0  0
    9.0702   -0.9323    0.0000 C   0  0  0  0  0  0  0  0  0  0  0  0
    4.5080    0.0842    0.0000 C   0  0  0  0  0  0  0  0  0  0  0  0
    9.4827   -0.2178    0.0000 C   0  0  0  0  0  0  0  0  0  0  0  0
    7.8326   -1.6468    0.0000 C   0  0  0  0  0  0  0  0  0  0  0  0
    3.7935    1.3217    0.0000 C   0  0  0  0  0  0  0  0  0  0  0  0
    9.0702    0.4967    0.0000 C   0  0  0  0  0  0  0  0  0  0  0  0
    3.7935   -0.3284    0.0000 C   0  0  0  0  0  0  0  0  0  0  0  0
    3.0791    0.9092    0.0000 C   0  0  0  0  0  0  0  0  0  0  0  0
    3.0791    0.0842    0.0000 C   0  0  0  0  0  0  0  0  0  0  0  0
   10.3077   -0.2178    0.0000 C   0  0  0  0  0  0  0  0  0  0  0  0
   10.3077   -1.6468    0.0000 C   0  0  0  0  0  0  0  0  0  0  0  0
    1.6500    0.9092    0.0000 C   0  0  0  0  0  0  0  0  0  0  0  0
    5.5944    2.0964    0.0000 H   0  0  0  0  0  0  0  0  0  0  0  0
    6.4726   -1.1444    0.0000 H   0  0  0  0  0  0  0  0  0  0  0  0
    7.5426   -1.1444    0.0000 H   0  0  0  0  0  0  0  0  0  0  0  0
    6.7626   -1.6468    0.0000 H   0  0  0  0  0  0  0  0  0  0  0  0
    8.3676   -2.5734    0.0000 H   0  0  0  0  0  0  0  0  0  0  0  0
    7.2976   -2.5735    0.0000 H   0  0  0  0  0  0  0  0  0  0  0  0
    3.7935    2.3537    0.0000 H   0  0  0  0  0  0  0  0  0  0  0  0
    9.5862    1.3904    0.0000 H   0  0  0  0  0  0  0  0  0  0  0  0
    3.7935   -1.3604    0.0000 H   0  0  0  0  0  0  0  0  0  0  0  0
    2.1853   -0.4317    0.0000 H   0  0  0  0  0  0  0  0  0  0  0  0
   10.8427   -1.1444    0.0000 H   0  0  0  0  0  0  0  0  0  0  0  0
   10.8427    0.7088    0.0000 H   0  0  0  0  0  0  0  0  0  0  0  0
   11.3777   -0.2178    0.0000 H   0  0  0  0  0  0  0  0  0  0  0  0
   10.8427   -2.5734    0.0000 H   0  0  0  0  0  0  0  0  0  0  0  0
   10.8427   -0.7202    0.0000 H   0  0  0  0  0  0  0  0  0  0  0  0
   11.3777   -1.6468    0.0000 H   0  0  0  0  0  0  0  0  0  0  0  0
    0.7234    1.4442    0.0000 H   0  0  0  0  0  0  0  0  0  0  0  0
    1.6500   -0.1608    0.0000 H   0  0  0  0  0  0  0  0  0  0  0  0
    0.7233    0.3742    0.0000 H   0  0  0  0  0  0  0  0  0  0  0  0
  1  3  2  0  0  0  0
  1  8  1  0  0  0  0
  1 11  1  0  0  0  0
  2 13  1  0  0  0  0
  2 23  1  0  0  0  0
  4 20  1  0  0  0  0
  4 24  1  0  0  0  0
  5 11  1  0  0  0  0
  5 12  1  0  0  0  0
  5 25  1  0  0  0  0
  6 11  2  0  0  0  0
  6 14  1  0  0  0  0
  7  9  2  0  0  0  0
  7 18  1  0  0  0  0
  8  9  1  0  0  0  0
  8 26  1  0  0  0  0
  8 27  1  0  0  0  0
  9 10  1  0  0  0  0
 10 13  2  0  0  0  0
 10 16  1  0  0  0  0
 12 14  2  0  0  0  0
 12 17  1  0  0  0  0
 13 15  1  0  0  0  0
 14 19  1  0  0  0  0
 15 18  2  0  0  0  0
 15 22  1  0  0  0  0
 16 28  1  0  0  0  0
 16 29  1  0  0  0  0
 16 30  1  0  0  0  0
 17 20  2  0  0  0  0
 17 31  1  0  0  0  0
 18 32  1  0  0  0  0
 19 21  2  0  0  0  0
 19 33  1  0  0  0  0
 20 21  1  0  0  0  0
 21 34  1  0  0  0  0
 22 35  1  0  0  0  0
 22 36  1  0  0  0  0
 22 37  1  0  0  0  0
 23 38  1  0  0  0  0
 23 39  1  0  0  0  0
 23 40  1  0  0  0  0
 24 41  1  0  0  0  0
 24 42  1  0  0  0  0
 24 43  1  0  0  0  0
M  END
>  <DRUGBANK_ID>
DB00338

>  <SECONDARY_ACCESSION_NUMBERS>
APRD00446

>  <COMMON_NAME>
Omeprazole

>  <CAS_NUMBER>
73590-58-6

>  <UNII>
KG60484QX9

>  <SYNONYMS>
OMEP; Omeprazol; Omeprazole; Omeprazolum

$$$$
