IZD
 OpenBabel10282417072D

 60 62  0  0  0  0  0  0  0  0999 V2000
   -6.1293    3.8993    0.0000 C   0  0  2  0  0  0  0  0  0  0  0  0
   -6.8830    3.5637    0.0000 C   0  0  0  0  0  0  0  0  0  0  0  0
   -7.4350    4.1768    0.0000 C   0  0  0  0  0  0  0  0  0  0  0  0
   -7.0225    4.8913    0.0000 N   0  0  0  0  0  0  0  0  0  0  0  0
   -6.2155    4.7198    0.0000 S   0  0  0  0  0  0  0  0  0  0  0  0
   -5.4104    4.8997    0.0000 O   0  0  0  0  0  0  0  0  0  0  0  0
   -5.9524    5.5017    0.0000 O   0  0  0  0  0  0  0  0  0  0  0  0
   -8.2555    4.0906    0.0000 O   0  0  0  0  0  0  0  0  0  0  0  0
   -5.4148    3.4868    0.0000 C   0  0  0  0  0  0  0  0  0  0  0  0
   -4.7003    3.8993    0.0000 C   0  0  0  0  0  0  0  0  0  0  0  0
   -3.9859    3.4868    0.0000 C   0  0  0  0  0  0  0  0  0  0  0  0
   -3.9859    2.6618    0.0000 C   0  0  0  0  0  0  0  0  0  0  0  0
   -4.7003    2.2493    0.0000 C   0  0  0  0  0  0  0  0  0  0  0  0
   -5.4148    2.6618    0.0000 C   0  0  0  0  0  0  0  0  0  0  0  0
   -3.2714    2.2493    0.0000 C   0  0  0  0  0  0  0  0  0  0  0  0
   -2.5569    2.6618    0.0000 C   0  0  1  0  0  0  0  0  0  0  0  0
   -2.5569    3.4868    0.0000 C   0  0  0  0  0  0  0  0  0  0  0  0
   -3.2714    3.8993    0.0000 O   0  0  0  0  0  0  0  0  0  0  0  0
   -1.8424    3.8993    0.0000 N   0  0  0  0  0  0  0  0  0  0  0  0
   -1.8424    2.2493    0.0000 N   0  0  0  0  0  0  0  0  0  0  0  0
   -1.1280    2.6618    0.0000 C   0  0  0  0  0  0  0  0  0  0  0  0
   -0.4135    2.2493    0.0000 C   0  0  1  0  0  0  0  0  0  0  0  0
   -1.1280    3.4868    0.0000 O   0  0  0  0  0  0  0  0  0  0  0  0
    0.3010    2.6618    0.0000 N   0  0  0  0  0  0  0  0  0  0  0  0
   -0.4135    1.4243    0.0000 C   0  0  0  0  0  0  0  0  0  0  0  0
   -1.1280    1.0118    0.0000 C   0  0  0  0  0  0  0  0  0  0  0  0
   -1.1280    0.1868    0.0000 C   0  0  0  0  0  0  0  0  0  0  0  0
   -1.8424   -0.2257    0.0000 C   0  0  0  0  0  0  0  0  0  0  0  0
   -2.5569    0.1868    0.0000 C   0  0  0  0  0  0  0  0  0  0  0  0
   -2.5569    1.0118    0.0000 C   0  0  0  0  0  0  0  0  0  0  0  0
   -1.8424    1.4243    0.0000 C   0  0  0  0  0  0  0  0  0  0  0  0
    0.3010    3.4868    0.0000 C   0  0  0  0  0  0  0  0  0  0  0  0
    1.0154    3.8993    0.0000 O   0  0  0  0  0  0  0  0  0  0  0  0
   -0.4135    3.8993    0.0000 C   0  0  0  0  0  0  0  0  0  0  0  0
   -6.1598    3.3161    0.0000 H   0  0  0  0  0  0  0  0  0  0  0  0
   -3.0626    2.9537    0.0000 H   0  0  0  0  0  0  0  0  0  0  0  0
   -0.4135    2.8332    0.0000 H   0  0  0  0  0  0  0  0  0  0  0  0
   -7.1055    2.5171    0.0000 H   0  0  0  0  0  0  0  0  0  0  0  0
   -7.9165    3.2868    0.0000 H   0  0  0  0  0  0  0  0  0  0  0  0
   -7.4230    5.7907    0.0000 H   0  0  0  0  0  0  0  0  0  0  0  0
   -4.7003    4.9313    0.0000 H   0  0  0  0  0  0  0  0  0  0  0  0
   -3.0922    4.0028    0.0000 H   0  0  0  0  0  0  0  0  0  0  0  0
   -4.7003    1.2173    0.0000 H   0  0  0  0  0  0  0  0  0  0  0  0
   -6.3085    2.1458    0.0000 H   0  0  0  0  0  0  0  0  0  0  0  0
   -3.2714    1.1793    0.0000 H   0  0  0  0  0  0  0  0  0  0  0  0
   -2.3448    1.7143    0.0000 H   0  0  0  0  0  0  0  0  0  0  0  0
   -0.9898    3.4070    0.0000 H   0  0  0  0  0  0  0  0  0  0  0  0
   -1.8424    4.8838    0.0000 H   0  0  0  0  0  0  0  0  0  0  0  0
   -1.8424    1.2648    0.0000 H   0  0  0  0  0  0  0  0  0  0  0  0
    1.1536    2.1695    0.0000 H   0  0  0  0  0  0  0  0  0  0  0  0
    0.5131    0.8893    0.0000 H   0  0  0  0  0  0  0  0  0  0  0  0
   -0.4135    0.3543    0.0000 H   0  0  0  0  0  0  0  0  0  0  0  0
   -0.2343   -0.3292    0.0000 H   0  0  0  0  0  0  0  0  0  0  0  0
   -1.8424   -1.2577    0.0000 H   0  0  0  0  0  0  0  0  0  0  0  0
   -3.4506   -0.3292    0.0000 H   0  0  0  0  0  0  0  0  0  0  0  0
   -3.4506    1.5278    0.0000 H   0  0  0  0  0  0  0  0  0  0  0  0
   -1.8424    2.4563    0.0000 H   0  0  0  0  0  0  0  0  0  0  0  0
   -0.4135    4.9693    0.0000 H   0  0  0  0  0  0  0  0  0  0  0  0
   -1.3401    3.3643    0.0000 H   0  0  0  0  0  0  0  0  0  0  0  0
   -1.3402    4.4343    0.0000 H   0  0  0  0  0  0  0  0  0  0  0  0
  1  2  1  0  0  0  0
  1  5  1  0  0  0  0
  1  9  1  0  0  0  0
  1 35  1  1  0  0  0
  2  3  1  0  0  0  0
  2 38  1  0  0  0  0
  2 39  1  0  0  0  0
  3  4  1  0  0  0  0
  3  8  2  0  0  0  0
  4  5  1  0  0  0  0
  4 40  1  0  0  0  0
  5  6  2  0  0  0  0
  5  7  2  0  0  0  0
  9 10  1  0  0  0  0
  9 14  2  0  0  0  0
 10 11  2  0  0  0  0
 10 41  1  0  0  0  0
 11 12  1  0  0  0  0
 11 42  1  0  0  0  0
 12 13  2  0  0  0  0
 12 15  1  0  0  0  0
 13 14  1  0  0  0  0
 13 43  1  0  0  0  0
 14 44  1  0  0  0  0
 15 16  1  0  0  0  0
 15 45  1  0  0  0  0
 15 46  1  0  0  0  0
 16 17  1  0  0  0  0
 16 20  1  0  0  0  0
 16 36  1  6  0  0  0
 17 18  2  0  0  0  0
 17 19  1  0  0  0  0
 19 47  1  0  0  0  0
 19 48  1  0  0  0  0
 20 21  1  0  0  0  0
 20 49  1  0  0  0  0
 21 22  1  0  0  0  0
 21 23  2  0  0  0  0
 22 24  1  0  0  0  0
 22 25  1  0  0  0  0
 22 37  1  6  0  0  0
 24 32  1  0  0  0  0
 24 50  1  0  0  0  0
 25 26  1  0  0  0  0
 25 51  1  0  0  0  0
 25 52  1  0  0  0  0
 26 27  1  0  0  0  0
 26 31  2  0  0  0  0
 27 28  2  0  0  0  0
 27 53  1  0  0  0  0
 28 29  1  0  0  0  0
 28 54  1  0  0  0  0
 29 30  2  0  0  0  0
 29 55  1  0  0  0  0
 30 31  1  0  0  0  0
 30 56  1  0  0  0  0
 31 57  1  0  0  0  0
 32 33  2  0  0  0  0
 32 34  1  0  0  0  0
 34 58  1  0  0  0  0
 34 59  1  0  0  0  0
 34 60  1  0  0  0  0
M  END
>  <DRUGBANK_ID>
DB08003

>  <COMMON_NAME>
ISOTHIAZOLIDINONE ANALOG

$$$$
