KR2
 OpenBabel10282417072D

 54 56  0  0  0  0  0  0  0  0999 V2000
   -4.2088   -1.9522    0.0000 C   0  0  0  0  0  0  0  0  0  0  0  0
   -4.9768   -2.2537    0.0000 C   0  0  0  0  0  0  0  0  0  0  0  0
   -5.6218   -1.7393    0.0000 C   0  0  0  0  0  0  0  0  0  0  0  0
   -5.4988   -0.9235    0.0000 C   0  0  0  0  0  0  0  0  0  0  0  0
   -4.7309   -0.6221    0.0000 C   0  0  0  0  0  0  0  0  0  0  0  0
   -4.0858   -1.1365    0.0000 C   0  0  0  0  0  0  0  0  0  0  0  0
   -3.3179   -0.8351    0.0000 C   0  0  0  0  0  0  0  0  0  0  0  0
   -3.1949   -0.0193    0.0000 O   0  0  0  0  0  0  0  0  0  0  0  0
   -2.6729   -1.3494    0.0000 N   0  0  0  0  0  0  0  0  0  0  0  0
   -2.8564   -2.1537    0.0000 C   0  0  0  0  0  0  0  0  0  0  0  0
   -2.3421   -2.7988    0.0000 C   0  0  0  0  0  0  0  0  0  0  0  0
   -1.5171   -2.7988    0.0000 C   0  0  0  0  0  0  0  0  0  0  0  0
   -1.0027   -2.1537    0.0000 C   0  0  0  0  0  0  0  0  0  0  0  0
   -1.1863   -1.3494    0.0000 C   0  0  0  0  0  0  0  0  0  0  0  0
   -1.9296   -0.9915    0.0000 N   0  0  0  0  0  0  0  0  0  0  0  0
   -1.9296   -0.1665    0.0000 C   0  0  0  0  0  0  0  0  0  0  0  0
   -2.6440    0.2460    0.0000 O   0  0  0  0  0  0  0  0  0  0  0  0
   -1.2151    0.2460    0.0000 C   0  0  0  0  0  0  0  0  0  0  0  0
   -0.5006   -0.1665    0.0000 C   0  0  2  0  0  0  0  0  0  0  0  0
   -0.5006   -0.9915    0.0000 N   0  0  0  0  0  0  0  0  0  0  0  0
    0.2138    0.2460    0.0000 C   0  0  0  0  0  0  0  0  0  0  0  0
    0.9283   -0.1665    0.0000 C   0  0  0  0  0  0  0  0  0  0  0  0
    1.6428    0.2460    0.0000 C   0  0  0  0  0  0  0  0  0  0  0  0
    2.3573   -0.1665    0.0000 C   0  0  0  0  0  0  0  0  0  0  0  0
    3.0717    0.2460    0.0000 F   0  0  0  0  0  0  0  0  0  0  0  0
    2.3573   -0.9915    0.0000 C   0  0  0  0  0  0  0  0  0  0  0  0
    3.0717   -1.4040    0.0000 F   0  0  0  0  0  0  0  0  0  0  0  0
    1.6428   -1.4040    0.0000 C   0  0  0  0  0  0  0  0  0  0  0  0
    0.9283   -0.9915    0.0000 C   0  0  0  0  0  0  0  0  0  0  0  0
    0.2138   -1.4040    0.0000 F   0  0  0  0  0  0  0  0  0  0  0  0
   -1.0063   -0.4584    0.0000 H   0  0  0  0  0  0  0  0  0  0  0  0
   -3.4019   -2.5956    0.0000 H   0  0  0  0  0  0  0  0  0  0  0  0
   -5.1306   -3.2742    0.0000 H   0  0  0  0  0  0  0  0  0  0  0  0
   -6.5825   -2.1163    0.0000 H   0  0  0  0  0  0  0  0  0  0  0  0
   -6.3056   -0.2800    0.0000 H   0  0  0  0  0  0  0  0  0  0  0  0
   -4.5771    0.3984    0.0000 H   0  0  0  0  0  0  0  0  0  0  0  0
   -3.8996   -2.3918    0.0000 H   0  0  0  0  0  0  0  0  0  0  0  0
   -3.2099   -3.1636    0.0000 H   0  0  0  0  0  0  0  0  0  0  0  0
   -2.8064   -3.7628    0.0000 H   0  0  0  0  0  0  0  0  0  0  0  0
   -1.7729   -3.7048    0.0000 H   0  0  0  0  0  0  0  0  0  0  0  0
   -1.0528   -3.7628    0.0000 H   0  0  0  0  0  0  0  0  0  0  0  0
   -0.4538   -2.9186    0.0000 H   0  0  0  0  0  0  0  0  0  0  0  0
    0.0405   -2.3918    0.0000 H   0  0  0  0  0  0  0  0  0  0  0  0
   -0.2461   -1.3971    0.0000 H   0  0  0  0  0  0  0  0  0  0  0  0
   -0.3498   -0.6822    0.0000 H   0  0  0  0  0  0  0  0  0  0  0  0
   -1.3062   -0.2861    0.0000 H   0  0  0  0  0  0  0  0  0  0  0  0
   -1.2151    1.3160    0.0000 H   0  0  0  0  0  0  0  0  0  0  0  0
   -0.2885    0.7810    0.0000 H   0  0  0  0  0  0  0  0  0  0  0  0
   -1.3839   -1.5015    0.0000 H   0  0  0  0  0  0  0  0  0  0  0  0
    0.3827   -1.5015    0.0000 H   0  0  0  0  0  0  0  0  0  0  0  0
    0.2138    1.3160    0.0000 H   0  0  0  0  0  0  0  0  0  0  0  0
    1.1404    0.7810    0.0000 H   0  0  0  0  0  0  0  0  0  0  0  0
    1.6428    1.2780    0.0000 H   0  0  0  0  0  0  0  0  0  0  0  0
    1.6428   -2.4360    0.0000 H   0  0  0  0  0  0  0  0  0  0  0  0
  1  2  1  0  0  0  0
  1  6  2  0  0  0  0
  1 32  1  0  0  0  0
  2  3  2  0  0  0  0
  2 33  1  0  0  0  0
  3  4  1  0  0  0  0
  3 34  1  0  0  0  0
  4  5  2  0  0  0  0
  4 35  1  0  0  0  0
  5  6  1  0  0  0  0
  5 36  1  0  0  0  0
  6  7  1  0  0  0  0
  7  9  1  0  0  0  0
  7  8  2  0  0  0  0
  9 15  1  0  0  0  0
  9 10  1  0  0  0  0
 10 11  1  0  0  0  0
 10 37  1  0  0  0  0
 10 38  1  0  0  0  0
 11 12  1  0  0  0  0
 11 39  1  0  0  0  0
 11 40  1  0  0  0  0
 12 13  1  0  0  0  0
 12 41  1  0  0  0  0
 12 42  1  0  0  0  0
 13 14  1  0  0  0  0
 13 43  1  0  0  0  0
 13 44  1  0  0  0  0
 14 15  1  0  0  0  0
 14 45  1  0  0  0  0
 14 46  1  0  0  0  0
 15 16  1  0  0  0  0
 16 18  1  0  0  0  0
 16 17  2  0  0  0  0
 18 19  1  0  0  0  0
 18 47  1  0  0  0  0
 18 48  1  0  0  0  0
 19 20  1  0  0  0  0
 19 31  1  6  0  0  0
 19 21  1  0  0  0  0
 20 49  1  0  0  0  0
 20 50  1  0  0  0  0
 21 22  1  0  0  0  0
 21 51  1  0  0  0  0
 21 52  1  0  0  0  0
 22 23  1  0  0  0  0
 22 29  2  0  0  0  0
 23 24  2  0  0  0  0
 23 53  1  0  0  0  0
 24 25  1  0  0  0  0
 24 26  1  0  0  0  0
 26 27  1  0  0  0  0
 26 28  2  0  0  0  0
 28 29  1  0  0  0  0
 28 54  1  0  0  0  0
 29 30  1  0  0  0  0
M  END
>  <DRUGBANK_ID>
DB08051

>  <COMMON_NAME>
(2R)-4-(2-BENZOYL-1,2-DIAZEPAN-1-YL)-4-OXO-1-(2,4,5-TRIFLUOROPHENYL)BUTAN-2-AMINE

$$$$
