
 OpenBabel10282417072D

 39 41  0  0  0  0  0  0  0  0999 V2000
   -3.2448    1.6256    0.0000 C   0  0  0  0  0  0  0  0  0  0  0  0
   -2.4920    1.2881    0.0000 S   0  0  0  0  0  0  0  0  0  0  0  0
   -2.4011    0.4705    0.0000 C   0  0  0  0  0  0  0  0  0  0  0  0
   -1.6483    0.1330    0.0000 C   0  0  1  0  0  0  0  0  0  0  0  0
   -0.9344    0.5484    0.0000 N   0  0  0  0  0  0  0  0  0  0  0  0
   -0.6554   -0.7625    0.0000 C   0  0  2  0  0  0  0  0  0  0  0  0
   -0.2465   -1.4764    0.0000 O   0  0  0  0  0  0  0  0  0  0  0  0
   -1.4796   -0.6717    0.0000 C   0  0  2  0  0  0  0  0  0  0  0  0
   -2.0312   -1.2881    0.0000 O   0  0  0  0  0  0  0  0  0  0  0  0
   -0.3244   -0.0032    0.0000 C   0  0  2  0  0  0  0  0  0  0  0  0
    0.4867    0.1655    0.0000 C   0  0  0  0  0  0  0  0  0  0  0  0
    0.8242    0.9182    0.0000 C   0  0  0  0  0  0  0  0  0  0  0  0
    1.6418    0.8339    0.0000 N   0  0  0  0  0  0  0  0  0  0  0  0
    1.8171    0.0227    0.0000 C   0  0  0  0  0  0  0  0  0  0  0  0
    2.5309   -0.3861    0.0000 C   0  0  3  0  0  0  0  0  0  0  0  0
    3.2448    0.0227    0.0000 N   0  0  0  0  0  0  0  0  0  0  0  0
    2.5309   -1.2103    0.0000 N   0  0  0  0  0  0  0  0  0  0  0  0
    1.8171   -1.6256    0.0000 C   0  0  0  0  0  0  0  0  0  0  0  0
    1.0967   -1.2103    0.0000 N   0  0  0  0  0  0  0  0  0  0  0  0
    1.0967   -0.3861    0.0000 C   0  0  0  0  0  0  0  0  0  0  0  0
   -3.3539    2.6900    0.0000 H   0  0  0  0  0  0  0  0  0  0  0  0
   -4.1121    0.9989    0.0000 H   0  0  0  0  0  0  0  0  0  0  0  0
   -4.2212    2.0633    0.0000 H   0  0  0  0  0  0  0  0  0  0  0  0
   -3.2657   -0.1599    0.0000 H   0  0  0  0  0  0  0  0  0  0  0  0
   -2.2897   -0.5937    0.0000 H   0  0  0  0  0  0  0  0  0  0  0  0
   -1.7047    1.2015    0.0000 H   0  0  0  0  0  0  0  0  0  0  0  0
   -0.8284    1.5629    0.0000 H   0  0  0  0  0  0  0  0  0  0  0  0
   -1.2419   -1.6574    0.0000 H   0  0  0  0  0  0  0  0  0  0  0  0
   -0.7344   -2.3148    0.0000 H   0  0  0  0  0  0  0  0  0  0  0  0
   -2.5132   -0.3949    0.0000 H   0  0  0  0  0  0  0  0  0  0  0  0
   -2.9806   -1.0893    0.0000 H   0  0  0  0  0  0  0  0  0  0  0  0
   -0.0441    1.0294    0.0000 H   0  0  0  0  0  0  0  0  0  0  0  0
    0.3085    1.8121    0.0000 H   0  0  0  0  0  0  0  0  0  0  0  0
    2.2986    1.5673    0.0000 H   0  0  0  0  0  0  0  0  0  0  0  0
    2.5309    0.6839    0.0000 H   0  0  0  0  0  0  0  0  0  0  0  0
    4.1263   -0.4904    0.0000 H   0  0  0  0  0  0  0  0  0  0  0  0
    3.2484    1.0427    0.0000 H   0  0  0  0  0  0  0  0  0  0  0  0
    3.3843   -1.7011    0.0000 H   0  0  0  0  0  0  0  0  0  0  0  0
    1.8192   -2.6576    0.0000 H   0  0  0  0  0  0  0  0  0  0  0  0
  1  2  1  0  0  0  0
  1 21  1  0  0  0  0
  1 22  1  0  0  0  0
  1 23  1  0  0  0  0
  2  3  1  0  0  0  0
  3 24  1  0  0  0  0
  3 25  1  0  0  0  0
  4  3  1  0  0  0  0
  4  5  1  0  0  0  0
  4  8  1  0  0  0  0
  4 26  1  6  0  0  0
  5 10  1  0  0  0  0
  5 27  1  0  0  0  0
  6  7  1  0  0  0  0
  6  8  1  0  0  0  0
  6 10  1  0  0  0  0
  6 28  1  1  0  0  0
  7 29  1  0  0  0  0
  8  9  1  0  0  0  0
  8 30  1  1  0  0  0
  9 31  1  0  0  0  0
 10 11  1  0  0  0  0
 10 32  1  6  0  0  0
 11 12  2  0  0  0  0
 11 20  1  0  0  0  0
 12 13  1  0  0  0  0
 12 33  1  0  0  0  0
 13 14  1  0  0  0  0
 13 34  1  0  0  0  0
 14 15  1  0  0  0  0
 14 20  2  0  0  0  0
 15 16  1  0  0  0  0
 15 17  1  0  0  0  0
 15 35  1  0  0  0  0
 16 36  1  0  0  0  0
 16 37  1  0  0  0  0
 17 18  1  0  0  0  0
 17 38  1  0  0  0  0
 18 19  2  0  0  0  0
 18 39  1  0  0  0  0
 19 20  1  0  0  0  0
M  END
>  <DRUGBANK_ID>
DB02158

>  <SECONDARY_ACCESSION_NUMBERS>
EXPT02247

>  <COMMON_NAME>
(2S,3S,4R,5S)-2-(4-Amino-4,5-dihydro-1H-pyrrolo[3,2-d]pyrimidin-7-yl)-5-[(methylsulfanyl)methyl]-3,4-pyrrolidinediol

$$$$
