
 OpenBabel10282417072D

 54 57  0  0  1  0  0  0  0  0999 V2000
   -0.7145    1.2375    0.0000 C   0  0  0  0  0  0  0  0  0  0  0  0
    0.0000    0.8250    0.0000 C   0  0  2  0  0  0  0  0  0  0  0  0
    0.0000   -0.0000    0.0000 C   0  0  0  0  0  0  0  0  0  0  0  0
   -0.7145   -0.4125    0.0000 C   0  0  0  0  0  0  0  0  0  0  0  0
   -0.7145   -1.2375    0.0000 C   0  0  0  0  0  0  0  0  0  0  0  0
    0.0000   -1.6500    0.0000 C   0  0  0  0  0  0  0  0  0  0  0  0
    0.7145   -1.2375    0.0000 C   0  0  0  0  0  0  0  0  0  0  0  0
    0.7145   -0.4125    0.0000 C   0  0  0  0  0  0  0  0  0  0  0  0
    1.4289   -0.0000    0.0000 C   0  0  0  0  0  0  0  0  0  0  0  0
    2.1434   -0.4125    0.0000 C   0  0  0  0  0  0  0  0  0  0  0  0
    2.1434   -1.2375    0.0000 C   0  0  0  0  0  0  0  0  0  0  0  0
    1.4289   -1.6500    0.0000 C   0  0  0  0  0  0  0  0  0  0  0  0
    0.7145    1.2375    0.0000 N   0  0  0  0  0  0  0  0  0  0  0  0
    0.7145    2.0625    0.0000 C   0  0  1  0  0  0  0  0  0  0  0  0
    0.0470    2.5474    0.0000 C   0  0  0  0  0  0  0  0  0  0  0  0
    0.3020    3.3320    0.0000 C   0  0  0  0  0  0  0  0  0  0  0  0
    1.1270    3.3320    0.0000 N   0  0  0  0  0  0  0  0  0  0  0  0
    1.3819    2.5474    0.0000 C   0  0  0  0  0  0  0  0  0  0  0  0
    1.6119    3.9995    0.0000 C   0  0  0  0  0  0  0  0  0  0  0  0
    1.2763    4.7532    0.0000 C   0  0  0  0  0  0  0  0  0  0  0  0
    1.7613    5.4206    0.0000 C   0  0  0  0  0  0  0  0  0  0  0  0
    2.5817    5.3344    0.0000 C   0  0  0  0  0  0  0  0  0  0  0  0
    2.9173    4.5807    0.0000 C   0  0  0  0  0  0  0  0  0  0  0  0
    2.4324    3.9132    0.0000 C   0  0  0  0  0  0  0  0  0  0  0  0
    3.0667    6.0018    0.0000 C   0  0  0  0  0  0  0  0  0  0  0  0
    3.8871    5.9156    0.0000 C   0  0  0  0  0  0  0  0  0  0  0  0
    4.3721    6.5830    0.0000 O   0  0  0  0  0  0  0  0  0  0  0  0
    4.2227    5.1619    0.0000 O   0  0  0  0  0  0  0  0  0  0  0  0
   -0.7145    2.3075    0.0000 H   0  0  0  0  0  0  0  0  0  0  0  0
   -1.6411    0.7025    0.0000 H   0  0  0  0  0  0  0  0  0  0  0  0
   -1.6412    1.7725    0.0000 H   0  0  0  0  0  0  0  0  0  0  0  0
   -0.9266    0.2900    0.0000 H   0  0  0  0  0  0  0  0  0  0  0  0
   -1.6082    0.1035    0.0000 H   0  0  0  0  0  0  0  0  0  0  0  0
   -1.6082   -1.7535    0.0000 H   0  0  0  0  0  0  0  0  0  0  0  0
    0.0000   -2.6820    0.0000 H   0  0  0  0  0  0  0  0  0  0  0  0
    1.4289    1.0320    0.0000 H   0  0  0  0  0  0  0  0  0  0  0  0
    3.0371    0.1035    0.0000 H   0  0  0  0  0  0  0  0  0  0  0  0
    3.0371   -1.7535    0.0000 H   0  0  0  0  0  0  0  0  0  0  0  0
    1.4289   -2.6820    0.0000 H   0  0  0  0  0  0  0  0  0  0  0  0
    1.5978    0.7275    0.0000 H   0  0  0  0  0  0  0  0  0  0  0  0
   -0.2389    1.5767    0.0000 H   0  0  0  0  0  0  0  0  0  0  0  0
   -0.9706    2.2168    0.0000 H   0  0  0  0  0  0  0  0  0  0  0  0
   -0.7096    3.3040    0.0000 H   0  0  0  0  0  0  0  0  0  0  0  0
   -0.3269    4.1977    0.0000 H   0  0  0  0  0  0  0  0  0  0  0  0
    0.7878    4.2854    0.0000 H   0  0  0  0  0  0  0  0  0  0  0  0
    2.3995    2.2167    0.0000 H   0  0  0  0  0  0  0  0  0  0  0  0
    1.5493    1.4906    0.0000 H   0  0  0  0  0  0  0  0  0  0  0  0
    0.2500    4.8611    0.0000 H   0  0  0  0  0  0  0  0  0  0  0  0
    1.3416    6.3634    0.0000 H   0  0  0  0  0  0  0  0  0  0  0  0
    3.9437    4.4729    0.0000 H   0  0  0  0  0  0  0  0  0  0  0  0
    2.8521    2.9704    0.0000 H   0  0  0  0  0  0  0  0  0  0  0  0
    2.6315    6.9793    0.0000 H   0  0  0  0  0  0  0  0  0  0  0  0
    3.6956    6.8674    0.0000 H   0  0  0  0  0  0  0  0  0  0  0  0
    3.6720    4.4038    0.0000 H   0  0  0  0  0  0  0  0  0  0  0  0
  1 29  1  0  0  0  0
  1 30  1  0  0  0  0
  1 31  1  0  0  0  0
  2  1  1  0  0  0  0
  2  3  1  0  0  0  0
  2 13  1  0  0  0  0
  2 32  1  6  0  0  0
  3  4  1  0  0  0  0
  3  8  2  0  0  0  0
  4  5  2  0  0  0  0
  4 33  1  0  0  0  0
  5  6  1  0  0  0  0
  5 34  1  0  0  0  0
  6  7  2  0  0  0  0
  6 35  1  0  0  0  0
  7  8  1  0  0  0  0
  7 12  1  0  0  0  0
  8  9  1  0  0  0  0
  9 10  2  0  0  0  0
  9 36  1  0  0  0  0
 10 11  1  0  0  0  0
 10 37  1  0  0  0  0
 11 12  2  0  0  0  0
 11 38  1  0  0  0  0
 12 39  1  0  0  0  0
 13 40  1  0  0  0  0
 14 13  1  0  0  0  0
 14 15  1  0  0  0  0
 14 18  1  0  0  0  0
 14 41  1  6  0  0  0
 15 16  1  0  0  0  0
 15 42  1  0  0  0  0
 15 43  1  0  0  0  0
 16 17  1  0  0  0  0
 16 44  1  0  0  0  0
 16 45  1  0  0  0  0
 17 18  1  0  0  0  0
 17 19  1  0  0  0  0
 18 46  1  0  0  0  0
 18 47  1  0  0  0  0
 19 20  2  0  0  0  0
 19 24  1  0  0  0  0
 20 21  1  0  0  0  0
 20 48  1  0  0  0  0
 21 22  2  0  0  0  0
 21 49  1  0  0  0  0
 22 23  1  0  0  0  0
 22 25  1  0  0  0  0
 23 24  2  0  0  0  0
 23 50  1  0  0  0  0
 24 51  1  0  0  0  0
 25 26  1  0  0  0  0
 25 52  1  0  0  0  0
 25 53  1  0  0  0  0
 26 27  2  0  0  0  0
 26 28  1  0  0  0  0
 28 54  1  0  0  0  0
M  END
>  <DRUGBANK_ID>
DB12388

>  <COMMON_NAME>
Evocalcet

>  <CAS_NUMBER>
870964-67-3

>  <UNII>
E58MLH082P

>  <SYNONYMS>
Evocalcet

$$$$
