
 OpenBabel10282417072D

 28 27  0  0  1  0  0  0  0  0999 V2000
   -3.6020   -1.7309    0.0000 C   0  0  0  0  0  0  0  0  0  0  0  0
   -2.8875   -2.1434    0.0000 C   0  0  0  0  0  0  0  0  0  0  0  0
   -2.1730   -1.7309    0.0000 C   0  0  0  0  0  0  0  0  0  0  0  0
   -1.4586   -2.1434    0.0000 C   0  0  0  0  0  0  0  0  0  0  0  0
   -0.0296   -2.1434    0.0000 C   0  0  0  0  0  0  0  0  0  0  0  0
    1.3993   -2.1434    0.0000 C   0  0  0  0  0  0  0  0  0  0  0  0
   -0.7441   -1.7309    0.0000 C   0  0  2  0  0  0  0  0  0  0  0  0
   -0.7441   -0.9059    0.0000 C   0  0  0  0  0  0  0  0  0  0  0  0
    0.6849   -1.7309    0.0000 N   0  0  0  0  0  0  0  0  0  0  0  0
    2.1138   -1.7309    0.0000 O   0  0  0  0  0  0  0  0  0  0  0  0
   -0.0296   -0.4934    0.0000 O   0  0  0  0  0  0  0  0  0  0  0  0
   -1.4586   -0.4934    0.0000 O   0  0  0  0  0  0  0  0  0  0  0  0
    0.6849   -0.9059    0.0000 O   0  0  0  0  0  0  0  0  0  0  0  0
   -0.7441   -2.5559    0.0000 H   0  0  0  0  0  0  0  0  0  0  0  0
   -3.6020   -0.6609    0.0000 H   0  0  0  0  0  0  0  0  0  0  0  0
   -4.5286   -2.2659    0.0000 H   0  0  0  0  0  0  0  0  0  0  0  0
   -4.5287   -1.1959    0.0000 H   0  0  0  0  0  0  0  0  0  0  0  0
   -2.8875   -3.2134    0.0000 H   0  0  0  0  0  0  0  0  0  0  0  0
   -1.9609   -2.6784    0.0000 H   0  0  0  0  0  0  0  0  0  0  0  0
   -2.1730   -0.6609    0.0000 H   0  0  0  0  0  0  0  0  0  0  0  0
   -1.2463   -1.1959    0.0000 H   0  0  0  0  0  0  0  0  0  0  0  0
   -1.4586   -3.2134    0.0000 H   0  0  0  0  0  0  0  0  0  0  0  0
   -0.5320   -2.6784    0.0000 H   0  0  0  0  0  0  0  0  0  0  0  0
   -0.0296   -3.2134    0.0000 H   0  0  0  0  0  0  0  0  0  0  0  0
    0.8970   -2.6784    0.0000 H   0  0  0  0  0  0  0  0  0  0  0  0
    1.3993   -3.1754    0.0000 H   0  0  0  0  0  0  0  0  0  0  0  0
   -1.4586    0.4436    0.0000 H   0  0  0  0  0  0  0  0  0  0  0  0
    1.5249   -0.4209    0.0000 H   0  0  0  0  0  0  0  0  0  0  0  0
  1 15  1  0  0  0  0
  1 16  1  0  0  0  0
  1 17  1  0  0  0  0
  2  1  1  0  0  0  0
  2 18  1  0  0  0  0
  2 19  1  0  0  0  0
  3  2  1  0  0  0  0
  3 20  1  0  0  0  0
  3 21  1  0  0  0  0
  4  3  1  0  0  0  0
  4 22  1  0  0  0  0
  4 23  1  0  0  0  0
  5 24  1  0  0  0  0
  5 25  1  0  0  0  0
  6 26  1  0  0  0  0
  7  4  1  0  0  0  0
  7  5  1  0  0  0  0
  7  8  1  0  0  0  0
  7 14  1  6  0  0  0
  9  5  1  0  0  0  0
  9  6  1  0  0  0  0
 10  6  2  0  0  0  0
 11  8  2  0  0  0  0
 12  8  1  0  0  0  0
 12 27  1  0  0  0  0
 13  9  1  0  0  0  0
 13 28  1  0  0  0  0
M  END
>  <DRUGBANK_ID>
DB02625

>  <SECONDARY_ACCESSION_NUMBERS>
EXPT00756

>  <COMMON_NAME>
(2r)-2-{[Formyl(Hydroxy)Amino]Methyl}Hexanoic Acid

$$$$
