
 OpenBabel10282417072D

 82 82  0  0  0  0  0  0  0  0999 V2000
    4.5012   -1.4416    0.0000 N   0  0  0  0  0  0  0  0  0  0  0  0
    5.2550   -1.1104    0.0000 C   0  0  1  0  0  0  0  0  0  0  0  0
    5.8078   -1.7220    0.0000 C   0  0  0  0  0  0  0  0  0  0  0  0
    5.3961   -2.4369    0.0000 C   0  0  0  0  0  0  0  0  0  0  0  0
    4.5878   -2.2648    0.0000 C   0  0  0  0  0  0  0  0  0  0  0  0
    5.4269   -0.3021    0.0000 C   0  0  0  0  0  0  0  0  0  0  0  0
    6.2105   -0.0468    0.0000 O   0  0  0  0  0  0  0  0  0  0  0  0
    4.8154    0.2508    0.0000 O   0  0  0  0  0  0  0  0  0  0  0  0
    3.7863   -1.0297    0.0000 C   0  0  0  0  0  0  0  0  0  0  0  0
    3.0715   -1.4416    0.0000 C   0  0  2  0  0  0  0  0  0  0  0  0
    3.0715   -2.2698    0.0000 C   0  0  1  0  0  0  0  0  0  0  0  0
    3.7863   -2.6817    0.0000 C   0  0  0  0  0  0  0  0  0  0  0  0
    2.3566   -2.6817    0.0000 O   0  0  0  0  0  0  0  0  0  0  0  0
    2.3566   -1.0297    0.0000 N   0  0  0  0  0  0  0  0  0  0  0  0
    1.6463   -1.4416    0.0000 C   0  0  0  0  0  0  0  0  0  0  0  0
    0.9315   -1.0297    0.0000 C   0  0  2  0  0  0  0  0  0  0  0  0
    0.9315   -0.2058    0.0000 C   0  0  0  0  0  0  0  0  0  0  0  0
    1.6463    0.2058    0.0000 S   0  0  0  0  0  0  0  0  0  0  0  0
    1.2345    0.9207    0.0000 O   0  0  0  0  0  0  0  0  0  0  0  0
    2.0581   -0.5088    0.0000 O   0  0  0  0  0  0  0  0  0  0  0  0
    2.3566    0.6178    0.0000 O   0  0  0  0  0  0  0  0  0  0  0  0
    0.2167   -1.4416    0.0000 N   0  0  0  0  0  0  0  0  0  0  0  0
   -0.4982   -1.0297    0.0000 C   0  0  0  0  0  0  0  0  0  0  0  0
   -1.2130   -1.4416    0.0000 C   0  0  0  0  0  0  0  0  0  0  0  0
   -1.9279   -1.0297    0.0000 N   0  0  0  0  0  0  0  0  0  0  0  0
   -2.6428   -1.4416    0.0000 C   0  0  0  0  0  0  0  0  0  0  0  0
   -3.3531   -1.0297    0.0000 C   0  0  2  0  0  0  0  0  0  0  0  0
   -3.3531   -0.2058    0.0000 C   0  0  0  0  0  0  0  0  0  0  0  0
   -4.0679    0.2058    0.0000 C   0  0  0  0  0  0  0  0  0  0  0  0
   -4.0679    1.0297    0.0000 C   0  0  0  0  0  0  0  0  0  0  0  0
   -4.7827    1.4416    0.0000 N   0  0  0  0  0  0  0  0  0  0  0  0
   -4.7827    2.2699    0.0000 C   0  0  0  0  0  0  0  0  0  0  0  0
   -5.4977    2.6817    0.0000 N   0  0  0  0  0  0  0  0  0  0  0  0
   -4.0679    2.6817    0.0000 N   0  0  0  0  0  0  0  0  0  0  0  0
   -4.0679   -1.4416    0.0000 N   0  0  0  0  0  0  0  0  0  0  0  0
   -4.7827   -1.0297    0.0000 C   0  0  0  0  0  0  0  0  0  0  0  0
   -5.4977   -1.4416    0.0000 C   0  0  0  0  0  0  0  0  0  0  0  0
   -6.2105   -1.0297    0.0000 N   0  0  0  0  0  0  0  0  0  0  0  0
   -4.7827   -0.2058    0.0000 O   0  0  0  0  0  0  0  0  0  0  0  0
   -2.6428   -2.2698    0.0000 O   0  0  0  0  0  0  0  0  0  0  0  0
   -0.4982   -0.2058    0.0000 O   0  0  0  0  0  0  0  0  0  0  0  0
    1.6463   -2.2698    0.0000 O   0  0  0  0  0  0  0  0  0  0  0  0
    3.7863   -0.2058    0.0000 O   0  0  0  0  0  0  0  0  0  0  0  0
    4.4251   -0.4349    0.0000 H   0  0  0  0  0  0  0  0  0  0  0  0
    6.8718   -1.6086    0.0000 H   0  0  0  0  0  0  0  0  0  0  0  0
    6.3917   -2.6186    0.0000 H   0  0  0  0  0  0  0  0  0  0  0  0
    5.8317   -3.4142    0.0000 H   0  0  0  0  0  0  0  0  0  0  0  0
    4.7227   -3.2685    0.0000 H   0  0  0  0  0  0  0  0  0  0  0  0
    3.7925   -2.9807    0.0000 H   0  0  0  0  0  0  0  0  0  0  0  0
    3.5889   -1.8813    0.0000 H   0  0  0  0  0  0  0  0  0  0  0  0
    5.0121    1.1669    0.0000 H   0  0  0  0  0  0  0  0  0  0  0  0
    3.0715   -0.3716    0.0000 H   0  0  0  0  0  0  0  0  0  0  0  0
    2.1451   -1.7344    0.0000 H   0  0  0  0  0  0  0  0  0  0  0  0
    3.7872   -3.7517    0.0000 H   0  0  0  0  0  0  0  0  0  0  0  0
    4.7125   -2.1459    0.0000 H   0  0  0  0  0  0  0  0  0  0  0  0
    4.7134   -3.2159    0.0000 H   0  0  0  0  0  0  0  0  0  0  0  0
    1.5170   -2.1960    0.0000 H   0  0  0  0  0  0  0  0  0  0  0  0
    2.3552   -0.0452    0.0000 H   0  0  0  0  0  0  0  0  0  0  0  0
    1.8579   -0.4943    0.0000 H   0  0  0  0  0  0  0  0  0  0  0  0
    0.0052    0.3297    0.0000 H   0  0  0  0  0  0  0  0  0  0  0  0
    0.9324    0.8642    0.0000 H   0  0  0  0  0  0  0  0  0  0  0  0
    3.1976    0.1345    0.0000 H   0  0  0  0  0  0  0  0  0  0  0  0
    0.2167   -2.4261    0.0000 H   0  0  0  0  0  0  0  0  0  0  0  0
   -1.2130   -2.5116    0.0000 H   0  0  0  0  0  0  0  0  0  0  0  0
   -2.1394   -1.9770    0.0000 H   0  0  0  0  0  0  0  0  0  0  0  0
   -1.9279   -0.0452    0.0000 H   0  0  0  0  0  0  0  0  0  0  0  0
   -2.4259   -0.4956    0.0000 H   0  0  0  0  0  0  0  0  0  0  0  0
   -2.4268    0.3297    0.0000 H   0  0  0  0  0  0  0  0  0  0  0  0
   -3.3540    0.8642    0.0000 H   0  0  0  0  0  0  0  0  0  0  0  0
   -4.9942   -0.3297    0.0000 H   0  0  0  0  0  0  0  0  0  0  0  0
   -4.9947    0.7405    0.0000 H   0  0  0  0  0  0  0  0  0  0  0  0
   -3.1415    1.5651    0.0000 H   0  0  0  0  0  0  0  0  0  0  0  0
   -4.0686    2.0997    0.0000 H   0  0  0  0  0  0  0  0  0  0  0  0
   -5.6351    0.9490    0.0000 H   0  0  0  0  0  0  0  0  0  0  0  0
   -5.4987    3.6662    0.0000 H   0  0  0  0  0  0  0  0  0  0  0  0
   -6.3498    2.1886    0.0000 H   0  0  0  0  0  0  0  0  0  0  0  0
   -3.2158    2.1887    0.0000 H   0  0  0  0  0  0  0  0  0  0  0  0
   -4.0679   -2.4261    0.0000 H   0  0  0  0  0  0  0  0  0  0  0  0
   -5.4984   -2.5116    0.0000 H   0  0  0  0  0  0  0  0  0  0  0  0
   -6.4246   -1.9761    0.0000 H   0  0  0  0  0  0  0  0  0  0  0  0
   -6.2101   -0.0097    0.0000 H   0  0  0  0  0  0  0  0  0  0  0  0
   -7.0940   -1.5394    0.0000 H   0  0  0  0  0  0  0  0  0  0  0  0
  1  2  1  0  0  0  0
  1  5  1  0  0  0  0
  1  9  1  0  0  0  0
  2  3  1  0  0  0  0
  2  6  1  0  0  0  0
  2 44  1  1  0  0  0
  3  4  1  0  0  0  0
  3 45  1  0  0  0  0
  3 46  1  0  0  0  0
  4  5  1  0  0  0  0
  4 47  1  0  0  0  0
  4 48  1  0  0  0  0
  5 49  1  0  0  0  0
  5 50  1  0  0  0  0
  6  7  2  0  0  0  0
  6  8  1  0  0  0  0
  8 51  1  0  0  0  0
  9 10  1  0  0  0  0
  9 43  2  0  0  0  0
 10 11  1  0  0  0  0
 10 14  1  0  0  0  0
 10 52  1  1  0  0  0
 11 12  1  0  0  0  0
 11 13  1  0  0  0  0
 11 53  1  6  0  0  0
 12 54  1  0  0  0  0
 12 55  1  0  0  0  0
 12 56  1  0  0  0  0
 13 57  1  0  0  0  0
 14 58  1  0  0  0  0
 15 14  1  0  0  0  0
 15 16  1  0  0  0  0
 15 42  2  0  0  0  0
 16 17  1  0  0  0  0
 16 22  1  0  0  0  0
 16 59  1  6  0  0  0
 17 18  1  0  0  0  0
 17 60  1  0  0  0  0
 17 61  1  0  0  0  0
 18 19  2  0  0  0  0
 18 20  2  0  0  0  0
 18 21  1  0  0  0  0
 21 62  1  0  0  0  0
 22 63  1  0  0  0  0
 23 22  1  0  0  0  0
 23 24  1  0  0  0  0
 23 41  2  0  0  0  0
 24 25  1  0  0  0  0
 24 64  1  0  0  0  0
 24 65  1  0  0  0  0
 25 66  1  0  0  0  0
 26 25  1  0  0  0  0
 26 27  1  0  0  0  0
 26 40  2  0  0  0  0
 27 28  1  0  0  0  0
 27 35  1  0  0  0  0
 27 67  1  6  0  0  0
 28 29  1  0  0  0  0
 28 68  1  0  0  0  0
 28 69  1  0  0  0  0
 29 30  1  0  0  0  0
 29 70  1  0  0  0  0
 29 71  1  0  0  0  0
 30 31  1  0  0  0  0
 30 72  1  0  0  0  0
 30 73  1  0  0  0  0
 31 32  1  0  0  0  0
 31 74  1  0  0  0  0
 32 33  1  0  0  0  0
 32 34  2  0  0  0  0
 33 75  1  0  0  0  0
 33 76  1  0  0  0  0
 34 77  1  0  0  0  0
 35 78  1  0  0  0  0
 36 35  1  0  0  0  0
 36 37  1  0  0  0  0
 36 39  2  0  0  0  0
 37 38  1  0  0  0  0
 37 79  1  0  0  0  0
 37 80  1  0  0  0  0
 38 81  1  0  0  0  0
 38 82  1  0  0  0  0
M  END
>  <DRUGBANK_ID>
DB14911

>  <COMMON_NAME>
Risuteganib

>  <CAS_NUMBER>
1307293-62-4

>  <UNII>
123DNA66IA

>  <SYNONYMS>
Risuteganib

$$$$
