
 OpenBabel10282417072D

 15 16  0  0  0  0  0  0  0  0999 V2000
   -0.8643   -1.0799    0.0000 C   0  0  0  0  0  0  0  0  0  0  0  0
   -1.3492   -0.4125    0.0000 C   0  0  0  0  0  0  0  0  0  0  0  0
   -0.8643    0.2550    0.0000 N   0  0  0  0  0  0  0  0  0  0  0  0
   -0.0797    0.0000    0.0000 C   0  0  0  0  0  0  0  0  0  0  0  0
    0.6347    0.4125    0.0000 C   0  0  0  0  0  0  0  0  0  0  0  0
    0.6347    1.2374    0.0000 O   0  0  0  0  0  0  0  0  0  0  0  0
    1.3492    0.0000    0.0000 N   0  0  0  0  0  0  0  0  0  0  0  0
    1.3492   -0.8250    0.0000 C   0  0  0  0  0  0  0  0  0  0  0  0
    0.6347   -1.2374    0.0000 N   0  0  0  0  0  0  0  0  0  0  0  0
   -0.0797   -0.8250    0.0000 C   0  0  0  0  0  0  0  0  0  0  0  0
   -1.1832   -2.0614    0.0000 H   0  0  0  0  0  0  0  0  0  0  0  0
   -2.3812   -0.4125    0.0000 H   0  0  0  0  0  0  0  0  0  0  0  0
   -1.1685    1.1913    0.0000 H   0  0  0  0  0  0  0  0  0  0  0  0
    2.2018    0.4923    0.0000 H   0  0  0  0  0  0  0  0  0  0  0  0
    2.2429   -1.3411    0.0000 H   0  0  0  0  0  0  0  0  0  0  0  0
  1 11  1  0  0  0  0
  2  1  2  0  0  0  0
  2  3  1  0  0  0  0
  2 12  1  0  0  0  0
  3 13  1  0  0  0  0
  4  3  1  0  0  0  0
  4  5  1  0  0  0  0
  5  6  2  0  0  0  0
  5  7  1  0  0  0  0
  7 14  1  0  0  0  0
  8  7  1  0  0  0  0
  8  9  2  0  0  0  0
  8 15  1  0  0  0  0
 10  1  1  0  0  0  0
 10  4  2  0  0  0  0
 10  9  1  0  0  0  0
M  END
>  <DRUGBANK_ID>
DB04095

>  <SECONDARY_ACCESSION_NUMBERS>
EXPT00359

>  <COMMON_NAME>
9-Deazahypoxanthine

$$$$
