
 OpenBabel10282417072D

 40 39  0  0  0  0  0  0  0  0999 V2000
    7.8082    0.2063    0.0000 S   0  0  0  0  0  0  0  0  0  0  0  0
    7.0938   -0.2063    0.0000 S   0  0  0  0  0  0  0  0  0  0  0  0
   10.6658    1.0312    0.0000 O   0  0  0  0  0  0  0  0  0  0  0  0
    4.2361   -1.0312    0.0000 O   0  0  0  0  0  0  0  0  0  0  0  0
    9.9515   -0.2063    0.0000 N   0  0  0  0  0  0  0  0  0  0  0  0
    4.9504    0.2063    0.0000 N   0  0  0  0  0  0  0  0  0  0  0  0
   12.8091   -0.2063    0.0000 N   0  0  0  0  0  0  0  0  0  0  0  0
    2.0928    0.2063    0.0000 N   0  0  0  0  0  0  0  0  0  0  0  0
    9.2371    0.2063    0.0000 C   0  0  0  0  0  0  0  0  0  0  0  0
    5.6650   -0.2063    0.0000 C   0  0  0  0  0  0  0  0  0  0  0  0
   11.3804   -0.2063    0.0000 C   0  0  0  0  0  0  0  0  0  0  0  0
    3.5217    0.2063    0.0000 C   0  0  0  0  0  0  0  0  0  0  0  0
    8.5226   -0.2063    0.0000 C   0  0  0  0  0  0  0  0  0  0  0  0
    6.3793    0.2063    0.0000 C   0  0  0  0  0  0  0  0  0  0  0  0
   10.6658    0.2063    0.0000 C   0  0  0  0  0  0  0  0  0  0  0  0
    4.2361   -0.2063    0.0000 C   0  0  0  0  0  0  0  0  0  0  0  0
   12.0947    0.2063    0.0000 C   0  0  0  0  0  0  0  0  0  0  0  0
    2.8072   -0.2063    0.0000 C   0  0  0  0  0  0  0  0  0  0  0  0
    9.9515   -1.1908    0.0000 H   0  0  0  0  0  0  0  0  0  0  0  0
    4.9503    1.1908    0.0000 H   0  0  0  0  0  0  0  0  0  0  0  0
   12.8089   -1.2263    0.0000 H   0  0  0  0  0  0  0  0  0  0  0  0
   13.6925    0.3036    0.0000 H   0  0  0  0  0  0  0  0  0  0  0  0
    2.0930    1.2263    0.0000 H   0  0  0  0  0  0  0  0  0  0  0  0
    1.2094   -0.3036    0.0000 H   0  0  0  0  0  0  0  0  0  0  0  0
    9.2371    1.2763    0.0000 H   0  0  0  0  0  0  0  0  0  0  0  0
    8.3104    0.7413    0.0000 H   0  0  0  0  0  0  0  0  0  0  0  0
    5.6651   -1.2763    0.0000 H   0  0  0  0  0  0  0  0  0  0  0  0
    6.5917   -0.7412    0.0000 H   0  0  0  0  0  0  0  0  0  0  0  0
   11.3805   -1.2763    0.0000 H   0  0  0  0  0  0  0  0  0  0  0  0
   12.3071   -0.7412    0.0000 H   0  0  0  0  0  0  0  0  0  0  0  0
    3.5217    1.2763    0.0000 H   0  0  0  0  0  0  0  0  0  0  0  0
    2.5950    0.7413    0.0000 H   0  0  0  0  0  0  0  0  0  0  0  0
    8.5226   -1.2763    0.0000 H   0  0  0  0  0  0  0  0  0  0  0  0
    9.4493   -0.7413    0.0000 H   0  0  0  0  0  0  0  0  0  0  0  0
    6.3792    1.2763    0.0000 H   0  0  0  0  0  0  0  0  0  0  0  0
    5.4526    0.7412    0.0000 H   0  0  0  0  0  0  0  0  0  0  0  0
   12.0947    1.2763    0.0000 H   0  0  0  0  0  0  0  0  0  0  0  0
   11.1680    0.7412    0.0000 H   0  0  0  0  0  0  0  0  0  0  0  0
    2.8072   -1.2763    0.0000 H   0  0  0  0  0  0  0  0  0  0  0  0
    3.7339   -0.7413    0.0000 H   0  0  0  0  0  0  0  0  0  0  0  0
  1  2  1  0  0  0  0
  1 13  1  0  0  0  0
  2 14  1  0  0  0  0
  3 15  2  0  0  0  0
  4 16  2  0  0  0  0
  5  9  1  0  0  0  0
  5 15  1  0  0  0  0
  5 19  1  0  0  0  0
  6 10  1  0  0  0  0
  6 16  1  0  0  0  0
  6 20  1  0  0  0  0
  7 17  1  0  0  0  0
  7 21  1  0  0  0  0
  7 22  1  0  0  0  0
  8 18  1  0  0  0  0
  8 23  1  0  0  0  0
  8 24  1  0  0  0  0
  9 13  1  0  0  0  0
  9 25  1  0  0  0  0
  9 26  1  0  0  0  0
 10 14  1  0  0  0  0
 10 27  1  0  0  0  0
 10 28  1  0  0  0  0
 11 15  1  0  0  0  0
 11 17  1  0  0  0  0
 11 29  1  0  0  0  0
 11 30  1  0  0  0  0
 12 16  1  0  0  0  0
 12 18  1  0  0  0  0
 12 31  1  0  0  0  0
 12 32  1  0  0  0  0
 13 33  1  0  0  0  0
 13 34  1  0  0  0  0
 14 35  1  0  0  0  0
 14 36  1  0  0  0  0
 17 37  1  0  0  0  0
 17 38  1  0  0  0  0
 18 39  1  0  0  0  0
 18 40  1  0  0  0  0
M  END
>  <DRUGBANK_ID>
DB05800

>  <COMMON_NAME>
Alethine

>  <CAS_NUMBER>
646-08-2

>  <UNII>
LY583605Y8

>  <SYNONYMS>
Beta alethine; Beta-alanyl cysteamine disulfide; Beta-alethine; Betathine

$$$$
