
 OpenBabel10282417072D

103103  0  0  0  0  0  0  0  0999 V2000
   -1.4289    0.2061    0.0000 C   0  0  0  0  0  0  0  0  0  0  0  0
   -2.1435   -0.2063    0.0000 C   0  0  0  0  0  0  0  0  0  0  0  0
   -2.1435   -1.0313    0.0000 C   0  0  0  0  0  0  0  0  0  0  0  0
   -1.4289   -1.4438    0.0000 C   0  0  0  0  0  0  0  0  0  0  0  0
   -0.7145   -1.0313    0.0000 C   0  0  0  0  0  0  0  0  0  0  0  0
   -2.8580   -1.4438    0.0000 C   0  0  0  0  0  0  0  0  0  0  0  0
   -0.7145   -0.2063    0.0000 C   0  0  0  0  0  0  0  0  0  0  0  0
    0.0000    0.2061    0.0000 O   0  0  0  0  0  0  0  0  0  0  0  0
    0.7144   -0.2063    0.0000 C   0  0  0  0  0  0  0  0  0  0  0  0
    1.4289    0.2061    0.0000 C   0  0  0  0  0  0  0  0  0  0  0  0
    2.1435   -0.2063    0.0000 O   0  0  0  0  0  0  0  0  0  0  0  0
    2.8580    0.2061    0.0000 C   0  0  0  0  0  0  0  0  0  0  0  0
    3.5724   -0.2063    0.0000 C   0  0  0  0  0  0  0  0  0  0  0  0
    4.2870    0.2061    0.0000 O   0  0  0  0  0  0  0  0  0  0  0  0
    5.0015   -0.2063    0.0000 C   0  0  0  0  0  0  0  0  0  0  0  0
    5.7159    0.2061    0.0000 C   0  0  0  0  0  0  0  0  0  0  0  0
    0.0000    1.0312    0.0000 C   0  0  0  0  0  0  0  0  0  0  0  0
    0.7144    1.4437    0.0000 C   0  0  0  0  0  0  0  0  0  0  0  0
    1.4289    1.0312    0.0000 O   0  0  0  0  0  0  0  0  0  0  0  0
    2.1435    1.4437    0.0000 C   0  0  0  0  0  0  0  0  0  0  0  0
    2.8580    1.0312    0.0000 C   0  0  0  0  0  0  0  0  0  0  0  0
    3.5724    1.4437    0.0000 O   0  0  0  0  0  0  0  0  0  0  0  0
    4.2870    1.0312    0.0000 C   0  0  0  0  0  0  0  0  0  0  0  0
    5.0015    1.4437    0.0000 C   0  0  0  0  0  0  0  0  0  0  0  0
    5.7159    1.0312    0.0000 O   0  0  0  0  0  0  0  0  0  0  0  0
   -0.7145    1.4437    0.0000 O   0  0  0  0  0  0  0  0  0  0  0  0
   -0.7145    2.2688    0.0000 C   0  0  0  0  0  0  0  0  0  0  0  0
    0.0000    2.6813    0.0000 C   0  0  0  0  0  0  0  0  0  0  0  0
    0.7144    2.2688    0.0000 O   0  0  0  0  0  0  0  0  0  0  0  0
    1.4289    2.6813    0.0000 C   0  0  0  0  0  0  0  0  0  0  0  0
    2.1435    2.2688    0.0000 C   0  0  0  0  0  0  0  0  0  0  0  0
    2.8580    2.6813    0.0000 O   0  0  0  0  0  0  0  0  0  0  0  0
    3.5724    2.2688    0.0000 C   0  0  0  0  0  0  0  0  0  0  0  0
    4.2870    2.6813    0.0000 C   0  0  0  0  0  0  0  0  0  0  0  0
    5.0015    2.2688    0.0000 O   0  0  0  0  0  0  0  0  0  0  0  0
   -4.2870   -1.4437    0.0000 C   0  0  0  0  0  0  0  0  0  0  0  0
   -4.2870   -2.2688    0.0000 C   0  0  0  0  0  0  0  0  0  0  0  0
   -5.0016   -1.0312    0.0000 C   0  0  0  0  0  0  0  0  0  0  0  0
   -5.0016   -2.6813    0.0000 C   0  0  0  0  0  0  0  0  0  0  0  0
   -5.7160   -1.4437    0.0000 C   0  0  0  0  0  0  0  0  0  0  0  0
   -5.7160   -2.2688    0.0000 C   0  0  0  0  0  0  0  0  0  0  0  0
   -3.5725   -1.0313    0.0000 C   0  0  0  0  0  0  0  0  0  0  0  0
   -3.5726   -2.6813    0.0000 C   0  0  0  0  0  0  0  0  0  0  0  0
   -1.4288    1.2381    0.0000 H   0  0  0  0  0  0  0  0  0  0  0  0
   -3.0372    0.3098    0.0000 H   0  0  0  0  0  0  0  0  0  0  0  0
   -1.4288   -2.4758    0.0000 H   0  0  0  0  0  0  0  0  0  0  0  0
    0.1792   -1.5473    0.0000 H   0  0  0  0  0  0  0  0  0  0  0  0
   -2.8580   -2.5138    0.0000 H   0  0  0  0  0  0  0  0  0  0  0  0
   -3.7846   -1.9788    0.0000 H   0  0  0  0  0  0  0  0  0  0  0  0
    0.7144   -1.2763    0.0000 H   0  0  0  0  0  0  0  0  0  0  0  0
    1.6410   -0.7414    0.0000 H   0  0  0  0  0  0  0  0  0  0  0  0
    1.4289    1.2761    0.0000 H   0  0  0  0  0  0  0  0  0  0  0  0
    2.3555    0.7412    0.0000 H   0  0  0  0  0  0  0  0  0  0  0  0
    2.8580    1.2761    0.0000 H   0  0  0  0  0  0  0  0  0  0  0  0
    3.7846    0.7411    0.0000 H   0  0  0  0  0  0  0  0  0  0  0  0
    3.5723   -1.2763    0.0000 H   0  0  0  0  0  0  0  0  0  0  0  0
    4.4990   -0.7414    0.0000 H   0  0  0  0  0  0  0  0  0  0  0  0
    5.0015   -1.2763    0.0000 H   0  0  0  0  0  0  0  0  0  0  0  0
    5.9281   -0.7413    0.0000 H   0  0  0  0  0  0  0  0  0  0  0  0
    6.6425   -0.3289    0.0000 H   0  0  0  0  0  0  0  0  0  0  0  0
    6.6426    0.7411    0.0000 H   0  0  0  0  0  0  0  0  0  0  0  0
    0.0000   -0.0388    0.0000 H   0  0  0  0  0  0  0  0  0  0  0  0
   -0.9266    0.4962    0.0000 H   0  0  0  0  0  0  0  0  0  0  0  0
    0.7144    2.5137    0.0000 H   0  0  0  0  0  0  0  0  0  0  0  0
    1.6410    1.9787    0.0000 H   0  0  0  0  0  0  0  0  0  0  0  0
    2.1435    2.5137    0.0000 H   0  0  0  0  0  0  0  0  0  0  0  0
    3.0702    1.9787    0.0000 H   0  0  0  0  0  0  0  0  0  0  0  0
    2.8580   -0.0388    0.0000 H   0  0  0  0  0  0  0  0  0  0  0  0
    3.7847    0.4962    0.0000 H   0  0  0  0  0  0  0  0  0  0  0  0
    4.2870   -0.0388    0.0000 H   0  0  0  0  0  0  0  0  0  0  0  0
    5.2137    0.4962    0.0000 H   0  0  0  0  0  0  0  0  0  0  0  0
    5.0015    2.5137    0.0000 H   0  0  0  0  0  0  0  0  0  0  0  0
    5.9282    1.9787    0.0000 H   0  0  0  0  0  0  0  0  0  0  0  0
   -1.6411    2.8038    0.0000 H   0  0  0  0  0  0  0  0  0  0  0  0
   -0.7145    3.3388    0.0000 H   0  0  0  0  0  0  0  0  0  0  0  0
    0.0000    3.7513    0.0000 H   0  0  0  0  0  0  0  0  0  0  0  0
    0.9267    3.2163    0.0000 H   0  0  0  0  0  0  0  0  0  0  0  0
    1.4289    3.7513    0.0000 H   0  0  0  0  0  0  0  0  0  0  0  0
    2.3555    3.2164    0.0000 H   0  0  0  0  0  0  0  0  0  0  0  0
    2.1435    1.1988    0.0000 H   0  0  0  0  0  0  0  0  0  0  0  0
    3.0702    1.7338    0.0000 H   0  0  0  0  0  0  0  0  0  0  0  0
    3.5723    1.1988    0.0000 H   0  0  0  0  0  0  0  0  0  0  0  0
    4.4990    1.7337    0.0000 H   0  0  0  0  0  0  0  0  0  0  0  0
    4.2870    3.7513    0.0000 H   0  0  0  0  0  0  0  0  0  0  0  0
    5.2137    3.2163    0.0000 H   0  0  0  0  0  0  0  0  0  0  0  0
    5.0015    1.2988    0.0000 H   0  0  0  0  0  0  0  0  0  0  0  0
   -4.2870   -2.5137    0.0000 H   0  0  0  0  0  0  0  0  0  0  0  0
   -3.3604   -1.9788    0.0000 H   0  0  0  0  0  0  0  0  0  0  0  0
   -4.2869   -1.1988    0.0000 H   0  0  0  0  0  0  0  0  0  0  0  0
   -3.3603   -1.7338    0.0000 H   0  0  0  0  0  0  0  0  0  0  0  0
   -5.0017    0.0388    0.0000 H   0  0  0  0  0  0  0  0  0  0  0  0
   -5.9283   -0.4962    0.0000 H   0  0  0  0  0  0  0  0  0  0  0  0
   -5.0017   -3.7513    0.0000 H   0  0  0  0  0  0  0  0  0  0  0  0
   -5.9283   -3.2163    0.0000 H   0  0  0  0  0  0  0  0  0  0  0  0
   -6.6427   -0.9087    0.0000 H   0  0  0  0  0  0  0  0  0  0  0  0
   -6.6426   -1.9787    0.0000 H   0  0  0  0  0  0  0  0  0  0  0  0
   -6.6427   -2.8038    0.0000 H   0  0  0  0  0  0  0  0  0  0  0  0
   -6.6426   -1.7338    0.0000 H   0  0  0  0  0  0  0  0  0  0  0  0
   -3.5724    0.0387    0.0000 H   0  0  0  0  0  0  0  0  0  0  0  0
   -2.6458   -0.4963    0.0000 H   0  0  0  0  0  0  0  0  0  0  0  0
   -3.5726   -3.7513    0.0000 H   0  0  0  0  0  0  0  0  0  0  0  0
   -2.6459   -2.1463    0.0000 H   0  0  0  0  0  0  0  0  0  0  0  0
   -2.6460   -3.2163    0.0000 H   0  0  0  0  0  0  0  0  0  0  0  0
  1  2  1  0  0  0  0
  1  7  2  0  0  0  0
  1 44  1  0  0  0  0
  2  3  2  0  0  0  0
  2 45  1  0  0  0  0
  3  4  1  0  0  0  0
  3  6  1  0  0  0  0
  4  5  2  0  0  0  0
  4 46  1  0  0  0  0
  5  7  1  0  0  0  0
  5 47  1  0  0  0  0
  6 42  1  0  0  0  0
  6 48  1  0  0  0  0
  6 49  1  0  0  0  0
  7  8  1  0  0  0  0
  8  9  1  0  0  0  0
  9 10  1  0  0  0  0
  9 50  1  0  0  0  0
  9 51  1  0  0  0  0
 10 11  1  0  0  0  0
 10 52  1  0  0  0  0
 10 53  1  0  0  0  0
 11 12  1  0  0  0  0
 12 13  1  0  0  0  0
 12 54  1  0  0  0  0
 12 55  1  0  0  0  0
 13 14  1  0  0  0  0
 13 56  1  0  0  0  0
 13 57  1  0  0  0  0
 14 15  1  0  0  0  0
 15 16  1  0  0  0  0
 15 58  1  0  0  0  0
 15 59  1  0  0  0  0
 16 25  1  0  0  0  0
 16 60  1  0  0  0  0
 16 61  1  0  0  0  0
 17 18  1  0  0  0  0
 17 26  1  0  0  0  0
 17 62  1  0  0  0  0
 17 63  1  0  0  0  0
 18 19  1  0  0  0  0
 18 64  1  0  0  0  0
 18 65  1  0  0  0  0
 19 20  1  0  0  0  0
 20 21  1  0  0  0  0
 20 66  1  0  0  0  0
 20 67  1  0  0  0  0
 21 22  1  0  0  0  0
 21 68  1  0  0  0  0
 21 69  1  0  0  0  0
 22 23  1  0  0  0  0
 23 24  1  0  0  0  0
 23 70  1  0  0  0  0
 23 71  1  0  0  0  0
 24 25  1  0  0  0  0
 24 72  1  0  0  0  0
 24 73  1  0  0  0  0
 26 27  1  0  0  0  0
 27 28  1  0  0  0  0
 27 74  1  0  0  0  0
 27 75  1  0  0  0  0
 28 29  1  0  0  0  0
 28 76  1  0  0  0  0
 28 77  1  0  0  0  0
 29 30  1  0  0  0  0
 30 31  1  0  0  0  0
 30 78  1  0  0  0  0
 30 79  1  0  0  0  0
 31 32  1  0  0  0  0
 31 80  1  0  0  0  0
 31 81  1  0  0  0  0
 32 33  1  0  0  0  0
 33 34  1  0  0  0  0
 33 82  1  0  0  0  0
 33 83  1  0  0  0  0
 34 35  1  0  0  0  0
 34 84  1  0  0  0  0
 34 85  1  0  0  0  0
 35 86  1  0  0  0  0
 36 87  1  0  0  0  0
 36 88  1  0  0  0  0
 37 89  1  0  0  0  0
 37 90  1  0  0  0  0
 38 36  1  0  0  0  0
 38 91  1  0  0  0  0
 38 92  1  0  0  0  0
 39 37  1  0  0  0  0
 39 93  1  0  0  0  0
 39 94  1  0  0  0  0
 40 38  1  0  0  0  0
 40 95  1  0  0  0  0
 40 96  1  0  0  0  0
 41 39  1  0  0  0  0
 41 40  1  0  0  0  0
 41 97  1  0  0  0  0
 41 98  1  0  0  0  0
 42 36  1  0  0  0  0
 42 99  1  0  0  0  0
 42100  1  0  0  0  0
 43 37  1  0  0  0  0
 43101  1  0  0  0  0
 43102  1  0  0  0  0
 43103  1  0  0  0  0
M  END
>  <DRUGBANK_ID>
DB06804

>  <COMMON_NAME>
Nonoxynol-9

>  <CAS_NUMBER>
26027-38-3

>  <UNII>
48Q180SH9T

>  <SYNONYMS>
26-(Nonylphenoxy)-3,6,9,12,15,18,21,24-octaoxahexacosan-1-ol; Nonaethylene glycol mono(nonylphenyl) ether; Nonaethylene glycol nonylphenyl ether; Nonoxynol 9; Nonylphenol octa(oxyethylene) ethanol; P-Nonylphenyl polyethylene glycol ether; PEG-9 nonyl phenyl ether; Polyoxyethylene (9) nonyl phenyl ether; Tergitol NP-9; Tergitol NP9

$$$$
