
 OpenBabel10282417072D

190195  0  0  0  0  0  0  0  0999 V2000
    4.2001   -1.7100    0.0000 N   0  0  0  0  0  0  0  0  0  0  0  0
    3.3940   -1.8852    0.0000 C   0  0  0  0  0  0  0  0  0  0  0  0
    2.9782   -1.1726    0.0000 C   0  0  0  0  0  0  0  0  0  0  0  0
    3.5274   -0.5570    0.0000 C   0  0  0  0  0  0  0  0  0  0  0  0
    4.2826   -0.8891    0.0000 C   0  0  0  0  0  0  0  0  0  0  0  0
    3.2087    0.1595    0.0000 C   0  0  0  0  0  0  0  0  0  0  0  0
    3.4175    0.7823    0.0000 C   0  0  2  0  0  0  0  0  0  0  0  0
    4.2033    0.5310    0.0000 C   0  0  0  0  0  0  0  0  0  0  0  0
    4.3785   -0.2751    0.0000 O   0  0  0  0  0  0  0  0  0  0  0  0
    4.8139    1.0859    0.0000 N   0  0  0  0  0  0  0  0  0  0  0  0
    5.5997    0.8345    0.0000 C   0  0  1  0  0  0  0  0  0  0  0  0
    6.2102    1.3893    0.0000 C   0  0  0  0  0  0  0  0  0  0  0  0
    5.8977    2.1528    0.0000 C   0  0  0  0  0  0  0  0  0  0  0  0
    5.0803    2.2639    0.0000 C   0  0  0  0  0  0  0  0  0  0  0  0
    4.7677    3.0275    0.0000 C   0  0  0  0  0  0  0  0  0  0  0  0
    3.9502    3.1385    0.0000 N   0  0  0  0  0  0  0  0  0  0  0  0
    5.7749    0.0284    0.0000 C   0  0  0  0  0  0  0  0  0  0  0  0
    5.1643   -0.5265    0.0000 O   0  0  0  0  0  0  0  0  0  0  0  0
    6.5607   -0.2229    0.0000 N   0  0  0  0  0  0  0  0  0  0  0  0
    6.7359   -1.0292    0.0000 C   0  0  1  0  0  0  0  0  0  0  0  0
    7.5217   -1.2805    0.0000 C   0  0  1  0  0  0  0  0  0  0  0  0
    7.6969   -2.0867    0.0000 C   0  0  0  0  0  0  0  0  0  0  0  0
    8.1323   -0.7257    0.0000 O   0  0  0  0  0  0  0  0  0  0  0  0
    6.1254   -1.5840    0.0000 C   0  0  0  0  0  0  0  0  0  0  0  0
    5.3395   -1.3326    0.0000 O   0  0  0  0  0  0  0  0  0  0  0  0
    6.3005   -2.3901    0.0000 N   0  0  0  0  0  0  0  0  0  0  0  0
    5.6900   -2.9450    0.0000 C   0  0  2  0  0  0  0  0  0  0  0  0
    5.8652   -3.7512    0.0000 C   0  0  0  0  0  0  0  0  0  0  0  0
    5.2546   -4.3061    0.0000 O   0  0  0  0  0  0  0  0  0  0  0  0
    6.6510   -4.0026    0.0000 N   0  0  0  0  0  0  0  0  0  0  0  0
    6.8262   -4.8087    0.0000 C   0  0  2  0  0  0  0  0  0  0  0  0
    6.2157   -5.3636    0.0000 C   0  0  0  0  0  0  0  0  0  0  0  0
    5.4299   -5.1122    0.0000 O   0  0  0  0  0  0  0  0  0  0  0  0
    6.3909   -6.1697    0.0000 O   0  0  0  0  0  0  0  0  0  0  0  0
    7.6120   -5.0601    0.0000 C   0  0  1  0  0  0  0  0  0  0  0  0
    7.7873   -5.8662    0.0000 C   0  0  0  0  0  0  0  0  0  0  0  0
    8.2226   -4.5052    0.0000 O   0  0  0  0  0  0  0  0  0  0  0  0
    4.9042   -2.6936    0.0000 C   0  0  0  0  0  0  0  0  0  0  0  0
    4.2936   -3.2485    0.0000 S   0  0  0  0  0  0  0  0  0  0  0  0
    0.7949   -4.5208    0.0000 S   0  0  0  0  0  0  0  0  0  0  0  0
    2.0145   -0.3023    0.0000 C   0  0  0  0  0  0  0  0  0  0  0  0
    0.0865    1.8116    0.0000 C   0  0  2  0  0  0  0  0  0  0  0  0
   -0.6085    2.0014    0.0000 N   0  0  0  0  0  0  0  0  0  0  0  0
   -1.0313    1.2528    0.0000 C   0  0  0  0  0  0  0  0  0  0  0  0
   -1.6668    2.0219    0.0000 O   0  0  0  0  0  0  0  0  0  0  0  0
   -1.5058    0.3186    0.0000 C   0  0  1  0  0  0  0  0  0  0  0  0
   -1.0654   -0.3790    0.0000 C   0  0  0  0  0  0  0  0  0  0  0  0
   -1.0215   -0.9837    0.0000 C   0  0  0  0  0  0  0  0  0  0  0  0
    0.0015   -1.3268    0.0000 C   0  0  0  0  0  0  0  0  0  0  0  0
    0.0484   -2.0943    0.0000 C   0  0  0  0  0  0  0  0  0  0  0  0
   -0.5966   -2.6008    0.0000 C   0  0  0  0  0  0  0  0  0  0  0  0
   -1.5723   -2.3732    0.0000 C   0  0  0  0  0  0  0  0  0  0  0  0
   -1.8269   -1.5048    0.0000 C   0  0  0  0  0  0  0  0  0  0  0  0
   -2.3302    0.2861    0.0000 N   0  0  0  0  0  0  0  0  0  0  0  0
   -2.7142   -0.4440    0.0000 C   0  0  0  0  0  0  0  0  0  0  0  0
   -3.5386   -0.4765    0.0000 C   0  0  0  0  0  0  0  0  0  0  0  0
   -3.9789    0.2210    0.0000 N   0  0  0  0  0  0  0  0  0  0  0  0
   -4.8033    0.1884    0.0000 C   0  0  0  0  0  0  0  0  0  0  0  0
   -5.3307   -0.4459    0.0000 C   0  0  0  0  0  0  0  0  0  0  0  0
   -6.0971   -0.1403    0.0000 N   0  0  0  0  0  0  0  0  0  0  0  0
   -6.7947   -0.5807    0.0000 C   0  0  0  0  0  0  0  0  0  0  0  0
   -7.5249   -0.1967    0.0000 C   0  0  0  0  0  0  0  0  0  0  0  0
   -8.2226   -0.6371    0.0000 O   0  0  0  0  0  0  0  0  0  0  0  0
   -7.5575    0.6275    0.0000 O   0  0  0  0  0  0  0  0  0  0  0  0
   -6.0433    0.6828    0.0000 C   0  0  0  0  0  0  0  0  0  0  0  0
   -5.2437    0.8861    0.0000 C   0  0  0  0  0  0  0  0  0  0  0  0
   -4.8597    1.6163    0.0000 N   0  0  0  0  0  0  0  0  0  0  0  0
   -5.3000    2.3139    0.0000 C   0  0  0  0  0  0  0  0  0  0  0  0
   -6.1244    2.2814    0.0000 C   0  0  0  0  0  0  0  0  0  0  0  0
   -6.5647    2.9790    0.0000 O   0  0  0  0  0  0  0  0  0  0  0  0
   -6.5084    1.5512    0.0000 O   0  0  0  0  0  0  0  0  0  0  0  0
   -4.0353    1.6488    0.0000 C   0  0  0  0  0  0  0  0  0  0  0  0
   -3.5079    2.2832    0.0000 C   0  0  0  0  0  0  0  0  0  0  0  0
   -2.7415    1.9777    0.0000 N   0  0  0  0  0  0  0  0  0  0  0  0
   -2.0439    2.4180    0.0000 C   0  0  0  0  0  0  0  0  0  0  0  0
   -2.0764    3.2424    0.0000 C   0  0  0  0  0  0  0  0  0  0  0  0
   -1.3788    3.6828    0.0000 O   0  0  0  0  0  0  0  0  0  0  0  0
   -2.8066    3.6264    0.0000 O   0  0  0  0  0  0  0  0  0  0  0  0
   -2.7953    1.1544    0.0000 C   0  0  0  0  0  0  0  0  0  0  0  0
   -3.5949    0.9512    0.0000 C   0  0  0  0  0  0  0  0  0  0  0  0
   -2.2738   -1.1417    0.0000 O   0  0  0  0  0  0  0  0  0  0  0  0
    0.9108    1.8441    0.0000 C   0  0  0  0  0  0  0  0  0  0  0  0
    1.3512    1.1464    0.0000 O   0  0  0  0  0  0  0  0  0  0  0  0
    1.2948    2.5743    0.0000 N   0  0  0  0  0  0  0  0  0  0  0  0
    2.1123    2.4632    0.0000 C   0  0  1  0  0  0  0  0  0  0  0  0
    2.6173    3.1156    0.0000 C   0  0  0  0  0  0  0  0  0  0  0  0
    2.3047    3.8792    0.0000 C   0  0  0  0  0  0  0  0  0  0  0  0
    2.8097    4.5316    0.0000 C   0  0  0  0  0  0  0  0  0  0  0  0
    2.4971    5.2951    0.0000 C   0  0  0  0  0  0  0  0  0  0  0  0
    1.6797    5.4062    0.0000 C   0  0  0  0  0  0  0  0  0  0  0  0
    1.1747    4.7538    0.0000 C   0  0  0  0  0  0  0  0  0  0  0  0
    1.4872    3.9903    0.0000 C   0  0  0  0  0  0  0  0  0  0  0  0
    1.3672    6.1697    0.0000 O   0  0  0  0  0  0  0  0  0  0  0  0
    2.4249    1.6997    0.0000 C   0  0  0  0  0  0  0  0  0  0  0  0
    1.9199    1.0472    0.0000 O   0  0  0  0  0  0  0  0  0  0  0  0
    3.2423    1.5886    0.0000 N   0  0  0  0  0  0  0  0  0  0  0  0
    2.1532   -1.1763    0.0000 C   0  0  0  0  0  0  0  0  0  0  0  0
    1.7439   -1.8926    0.0000 C   0  0  0  0  0  0  0  0  0  0  0  0
    2.1597   -2.6053    0.0000 C   0  0  0  0  0  0  0  0  0  0  0  0
    2.9847   -2.6016    0.0000 C   0  0  0  0  0  0  0  0  0  0  0  0
    4.9347   -2.3654    0.0000 H   0  0  0  0  0  0  0  0  0  0  0  0
    5.1740   -0.3690    0.0000 H   0  0  0  0  0  0  0  0  0  0  0  0
    2.1399    0.1087    0.0000 H   0  0  0  0  0  0  0  0  0  0  0  0
    2.5634    1.0130    0.0000 H   0  0  0  0  0  0  0  0  0  0  0  0
    3.9010   -0.1722    0.0000 H   0  0  0  0  0  0  0  0  0  0  0  0
    4.6048    2.0479    0.0000 H   0  0  0  0  0  0  0  0  0  0  0  0
    5.3725    1.8801    0.0000 H   0  0  0  0  0  0  0  0  0  0  0  0
    7.2539    1.1534    0.0000 H   0  0  0  0  0  0  0  0  0  0  0  0
    6.9014    2.2061    0.0000 H   0  0  0  0  0  0  0  0  0  0  0  0
    6.5526    2.9989    0.0000 H   0  0  0  0  0  0  0  0  0  0  0  0
    5.4924    3.1431    0.0000 H   0  0  0  0  0  0  0  0  0  0  0  0
    4.4254    1.4177    0.0000 H   0  0  0  0  0  0  0  0  0  0  0  0
    4.0200    2.4080    0.0000 H   0  0  0  0  0  0  0  0  0  0  0  0
    5.4225    3.8737    0.0000 H   0  0  0  0  0  0  0  0  0  0  0  0
    4.3623    4.0177    0.0000 H   0  0  0  0  0  0  0  0  0  0  0  0
    3.5637    4.0824    0.0000 H   0  0  0  0  0  0  0  0  0  0  0  0
    3.3260    2.3318    0.0000 H   0  0  0  0  0  0  0  0  0  0  0  0
    7.2893    0.4392    0.0000 H   0  0  0  0  0  0  0  0  0  0  0  0
    7.5278   -0.3096    0.0000 H   0  0  0  0  0  0  0  0  0  0  0  0
    7.2944   -0.2349    0.0000 H   0  0  0  0  0  0  0  0  0  0  0  0
    6.9050   -2.8063    0.0000 H   0  0  0  0  0  0  0  0  0  0  0  0
    8.7160   -2.4127    0.0000 H   0  0  0  0  0  0  0  0  0  0  0  0
    7.9241   -3.1323    0.0000 H   0  0  0  0  0  0  0  0  0  0  0  0
    9.0562   -1.0213    0.0000 H   0  0  0  0  0  0  0  0  0  0  0  0
    7.2382   -2.6900    0.0000 H   0  0  0  0  0  0  0  0  0  0  0  0
    6.7091   -3.2709    0.0000 H   0  0  0  0  0  0  0  0  0  0  0  0
    7.3796   -3.3405    0.0000 H   0  0  0  0  0  0  0  0  0  0  0  0
    5.8070   -4.4828    0.0000 H   0  0  0  0  0  0  0  0  0  0  0  0
    5.6974   -6.7999    0.0000 H   0  0  0  0  0  0  0  0  0  0  0  0
    7.3848   -4.0145    0.0000 H   0  0  0  0  0  0  0  0  0  0  0  0
    6.9955   -6.5859    0.0000 H   0  0  0  0  0  0  0  0  0  0  0  0
    8.8065   -6.1921    0.0000 H   0  0  0  0  0  0  0  0  0  0  0  0
    8.0147   -6.9118    0.0000 H   0  0  0  0  0  0  0  0  0  0  0  0
    9.1465   -4.8007    0.0000 H   0  0  0  0  0  0  0  0  0  0  0  0
    4.6770   -1.6480    0.0000 H   0  0  0  0  0  0  0  0  0  0  0  0
    3.8851   -2.3676    0.0000 H   0  0  0  0  0  0  0  0  0  0  0  0
    3.0566   -0.0594    0.0000 H   0  0  0  0  0  0  0  0  0  0  0  0
    2.3319    0.7195    0.0000 H   0  0  0  0  0  0  0  0  0  0  0  0
   -0.4718    0.8988    0.0000 H   0  0  0  0  0  0  0  0  0  0  0  0
   -0.9874    2.9101    0.0000 H   0  0  0  0  0  0  0  0  0  0  0  0
   -0.4370    0.3684    0.0000 H   0  0  0  0  0  0  0  0  0  0  0  0
   -0.0490   -0.0447    0.0000 H   0  0  0  0  0  0  0  0  0  0  0  0
   -0.1765   -0.9745    0.0000 H   0  0  0  0  0  0  0  0  0  0  0  0
    0.8205   -0.6989    0.0000 H   0  0  0  0  0  0  0  0  0  0  0  0
    0.9898   -2.5170    0.0000 H   0  0  0  0  0  0  0  0  0  0  0  0
   -0.3731   -3.6083    0.0000 H   0  0  0  0  0  0  0  0  0  0  0  0
   -2.2813   -3.1231    0.0000 H   0  0  0  0  0  0  0  0  0  0  0  0
   -2.7943   -1.1454    0.0000 H   0  0  0  0  0  0  0  0  0  0  0  0
   -2.8557    1.1186    0.0000 H   0  0  0  0  0  0  0  0  0  0  0  0
   -4.0366   -1.4235    0.0000 H   0  0  0  0  0  0  0  0  0  0  0  0
   -4.6078   -0.5187    0.0000 H   0  0  0  0  0  0  0  0  0  0  0  0
   -5.2767    1.1480    0.0000 H   0  0  0  0  0  0  0  0  0  0  0  0
   -5.8659    0.3140    0.0000 H   0  0  0  0  0  0  0  0  0  0  0  0
   -5.0672   -1.4829    0.0000 H   0  0  0  0  0  0  0  0  0  0  0  0
   -6.1350   -1.1515    0.0000 H   0  0  0  0  0  0  0  0  0  0  0  0
   -6.7525   -1.6499    0.0000 H   0  0  0  0  0  0  0  0  0  0  0  0
   -7.6995   -1.1519    0.0000 H   0  0  0  0  0  0  0  0  0  0  0  0
   -6.7652    1.1277    0.0000 H   0  0  0  0  0  0  0  0  0  0  0  0
   -6.8661    1.3668    0.0000 H   0  0  0  0  0  0  0  0  0  0  0  0
   -5.8074    1.7265    0.0000 H   0  0  0  0  0  0  0  0  0  0  0  0
   -4.5811    0.0460    0.0000 H   0  0  0  0  0  0  0  0  0  0  0  0
   -4.1782    0.9842    0.0000 H   0  0  0  0  0  0  0  0  0  0  0  0
   -4.8019    3.2609    0.0000 H   0  0  0  0  0  0  0  0  0  0  0  0
   -5.8711    3.2188    0.0000 H   0  0  0  0  0  0  0  0  0  0  0  0
   -7.4447    1.5142    0.0000 H   0  0  0  0  0  0  0  0  0  0  0  0
   -3.5619    0.6892    0.0000 H   0  0  0  0  0  0  0  0  0  0  0  0
   -2.9727    1.5232    0.0000 H   0  0  0  0  0  0  0  0  0  0  0  0
   -3.7715    3.3202    0.0000 H   0  0  0  0  0  0  0  0  0  0  0  0
   -2.7036    2.9889    0.0000 H   0  0  0  0  0  0  0  0  0  0  0  0
   -1.0969    1.9199    0.0000 H   0  0  0  0  0  0  0  0  0  0  0  0
   -1.1390    2.9891    0.0000 H   0  0  0  0  0  0  0  0  0  0  0  0
   -2.8436    4.5627    0.0000 H   0  0  0  0  0  0  0  0  0  0  0  0
   -1.9725    0.4703    0.0000 H   0  0  0  0  0  0  0  0  0  0  0  0
   -3.0313    0.1107    0.0000 H   0  0  0  0  0  0  0  0  0  0  0  0
   -4.2575    1.7914    0.0000 H   0  0  0  0  0  0  0  0  0  0  0  0
   -4.6604    0.8531    0.0000 H   0  0  0  0  0  0  0  0  0  0  0  0
    0.8439    3.4495    0.0000 H   0  0  0  0  0  0  0  0  0  0  0  0
    1.7070    3.4535    0.0000 H   0  0  0  0  0  0  0  0  0  0  0  0
    3.6776    2.9715    0.0000 H   0  0  0  0  0  0  0  0  0  0  0  0
    3.2722    3.9618    0.0000 H   0  0  0  0  0  0  0  0  0  0  0  0
    3.8323    4.3926    0.0000 H   0  0  0  0  0  0  0  0  0  0  0  0
    3.1287    6.1112    0.0000 H   0  0  0  0  0  0  0  0  0  0  0  0
    0.1521    4.8928    0.0000 H   0  0  0  0  0  0  0  0  0  0  0  0
    0.8555    3.1742    0.0000 H   0  0  0  0  0  0  0  0  0  0  0  0
    1.9407    6.9107    0.0000 H   0  0  0  0  0  0  0  0  0  0  0  0
    3.9105    2.3117    0.0000 H   0  0  0  0  0  0  0  0  0  0  0  0
    1.6332   -0.2849    0.0000 H   0  0  0  0  0  0  0  0  0  0  0  0
    0.7119   -1.8972    0.0000 H   0  0  0  0  0  0  0  0  0  0  0  0
    1.6477   -3.5014    0.0000 H   0  0  0  0  0  0  0  0  0  0  0  0
    3.5047   -3.4930    0.0000 H   0  0  0  0  0  0  0  0  0  0  0  0
  1  5  1  0  0  0  0
  1101  1  0  0  0  0
  2  1  1  0  0  0  0
  2100  1  0  0  0  0
  3  2  2  0  0  0  0
  4  3  1  0  0  0  0
  5  4  2  0  0  0  0
  5102  1  0  0  0  0
  6  4  1  0  0  0  0
  6103  1  0  0  0  0
  6104  1  0  0  0  0
  7  6  1  0  0  0  0
  7  8  1  0  0  0  0
  7105  1  6  0  0  0
  8  9  2  0  0  0  0
 10  8  1  0  0  0  0
 10 11  1  0  0  0  0
 10106  1  0  0  0  0
 11 12  1  0  0  0  0
 11 17  1  0  0  0  0
 11107  1  6  0  0  0
 12 13  1  0  0  0  0
 12108  1  0  0  0  0
 12109  1  0  0  0  0
 13 14  1  0  0  0  0
 13110  1  0  0  0  0
 13111  1  0  0  0  0
 14 15  1  0  0  0  0
 14112  1  0  0  0  0
 14113  1  0  0  0  0
 15 16  1  0  0  0  0
 15114  1  0  0  0  0
 15115  1  0  0  0  0
 16116  1  0  0  0  0
 16117  1  0  0  0  0
 17 18  2  0  0  0  0
 19 17  1  0  0  0  0
 19118  1  0  0  0  0
 20 19  1  0  0  0  0
 20 21  1  0  0  0  0
 20 24  1  0  0  0  0
 20119  1  6  0  0  0
 21 22  1  0  0  0  0
 21 23  1  0  0  0  0
 21120  1  1  0  0  0
 22121  1  0  0  0  0
 22122  1  0  0  0  0
 22123  1  0  0  0  0
 23124  1  0  0  0  0
 24 25  2  0  0  0  0
 26 24  1  0  0  0  0
 26 27  1  0  0  0  0
 26125  1  0  0  0  0
 27 28  1  0  0  0  0
 27 38  1  0  0  0  0
 27126  1  1  0  0  0
 28 29  2  0  0  0  0
 30 28  1  0  0  0  0
 30127  1  0  0  0  0
 31 30  1  0  0  0  0
 31 32  1  0  0  0  0
 31 35  1  0  0  0  0
 31128  1  6  0  0  0
 32 33  2  0  0  0  0
 32 34  1  0  0  0  0
 34129  1  0  0  0  0
 35 36  1  0  0  0  0
 35 37  1  0  0  0  0
 35130  1  1  0  0  0
 36131  1  0  0  0  0
 36132  1  0  0  0  0
 36133  1  0  0  0  0
 37134  1  0  0  0  0
 38 39  1  0  0  0  0
 38135  1  0  0  0  0
 38136  1  0  0  0  0
 39 40  1  0  0  0  0
 41 40  1  0  0  0  0
 41137  1  0  0  0  0
 41138  1  0  0  0  0
 42 41  1  0  0  0  0
 42 43  1  0  0  0  0
 42 82  1  0  0  0  0
 42139  1  1  0  0  0
 43 44  1  0  0  0  0
 43140  1  0  0  0  0
 44 45  2  0  0  0  0
 46 44  1  0  0  0  0
 46 47  1  0  0  0  0
 46 54  1  0  0  0  0
 46141  1  6  0  0  0
 47 48  1  0  0  0  0
 47142  1  0  0  0  0
 47143  1  0  0  0  0
 48 53  1  0  0  0  0
 49 48  2  0  0  0  0
 49144  1  0  0  0  0
 50 49  1  0  0  0  0
 50145  1  0  0  0  0
 51 50  2  0  0  0  0
 51146  1  0  0  0  0
 52 51  1  0  0  0  0
 52147  1  0  0  0  0
 53 52  2  0  0  0  0
 53148  1  0  0  0  0
 54149  1  0  0  0  0
 55 54  1  0  0  0  0
 55 81  2  0  0  0  0
 56 55  1  0  0  0  0
 56150  1  0  0  0  0
 56151  1  0  0  0  0
 57 56  1  0  0  0  0
 57 58  1  0  0  0  0
 57 80  1  0  0  0  0
 58 59  1  0  0  0  0
 58152  1  0  0  0  0
 58153  1  0  0  0  0
 59 60  1  0  0  0  0
 59154  1  0  0  0  0
 59155  1  0  0  0  0
 60 61  1  0  0  0  0
 60 65  1  0  0  0  0
 61 62  1  0  0  0  0
 61156  1  0  0  0  0
 61157  1  0  0  0  0
 62 63  2  0  0  0  0
 62 64  1  0  0  0  0
 64158  1  0  0  0  0
 65 66  1  0  0  0  0
 65159  1  0  0  0  0
 65160  1  0  0  0  0
 66 67  1  0  0  0  0
 66161  1  0  0  0  0
 66162  1  0  0  0  0
 67 68  1  0  0  0  0
 67 72  1  0  0  0  0
 68 69  1  0  0  0  0
 68163  1  0  0  0  0
 68164  1  0  0  0  0
 69 70  2  0  0  0  0
 69 71  1  0  0  0  0
 71165  1  0  0  0  0
 72 73  1  0  0  0  0
 72166  1  0  0  0  0
 72167  1  0  0  0  0
 73 74  1  0  0  0  0
 73168  1  0  0  0  0
 73169  1  0  0  0  0
 74 75  1  0  0  0  0
 74 79  1  0  0  0  0
 75 76  1  0  0  0  0
 75170  1  0  0  0  0
 75171  1  0  0  0  0
 76 77  2  0  0  0  0
 76 78  1  0  0  0  0
 78172  1  0  0  0  0
 79 80  1  0  0  0  0
 79173  1  0  0  0  0
 79174  1  0  0  0  0
 80175  1  0  0  0  0
 80176  1  0  0  0  0
 82 83  2  0  0  0  0
 84 82  1  0  0  0  0
 84 85  1  0  0  0  0
 84177  1  0  0  0  0
 85 86  1  0  0  0  0
 85 94  1  0  0  0  0
 85178  1  6  0  0  0
 86 87  1  0  0  0  0
 86179  1  0  0  0  0
 86180  1  0  0  0  0
 87 92  1  0  0  0  0
 88 87  2  0  0  0  0
 88181  1  0  0  0  0
 89 88  1  0  0  0  0
 89182  1  0  0  0  0
 90 89  2  0  0  0  0
 90 93  1  0  0  0  0
 91 90  1  0  0  0  0
 91183  1  0  0  0  0
 92 91  2  0  0  0  0
 92184  1  0  0  0  0
 93185  1  0  0  0  0
 94 95  2  0  0  0  0
 96 94  1  0  0  0  0
 96  7  1  0  0  0  0
 96186  1  0  0  0  0
 97  3  1  0  0  0  0
 97187  1  0  0  0  0
 98 97  2  0  0  0  0
 98188  1  0  0  0  0
 99 98  1  0  0  0  0
 99189  1  0  0  0  0
100 99  2  0  0  0  0
100190  1  0  0  0  0
M  END
>  <DRUGBANK_ID>
DB14554

>  <COMMON_NAME>
Dotatate

>  <CAS_NUMBER>
177943-88-3

>  <UNII>
MRL3739G66

>  <SYNONYMS>
DOTA-octreotate; DOTA-TATE; Oxodotreotide

$$$$
