
 OpenBabel10282417072D

 17 16  0  0  0  0  0  0  0  0999 V2000
    1.7605    1.8414    0.0000 O   0  0  0  0  0  0  0  0  0  0  0  0
    2.4750    1.4289    0.0000 C   0  0  0  0  0  0  0  0  0  0  0  0
    2.4750    0.6039    0.0000 O   0  0  0  0  0  0  0  0  0  0  0  0
    3.1895    1.8414    0.0000 C   0  0  0  0  0  0  0  0  0  0  0  0
    3.9039    1.4289    0.0000 C   0  0  0  0  0  0  0  0  0  0  0  0
    4.6184    1.8414    0.0000 C   0  0  0  0  0  0  0  0  0  0  0  0
    5.3329    1.4289    0.0000 C   0  0  0  0  0  0  0  0  0  0  0  0
    6.0474    1.8414    0.0000 O   0  0  0  0  0  0  0  0  0  0  0  0
    5.3329    0.6039    0.0000 O   0  0  0  0  0  0  0  0  0  0  0  0
    1.7605    2.7784    0.0000 H   0  0  0  0  0  0  0  0  0  0  0  0
    3.1895    2.9114    0.0000 H   0  0  0  0  0  0  0  0  0  0  0  0
    4.1162    2.3764    0.0000 H   0  0  0  0  0  0  0  0  0  0  0  0
    3.9039    0.3589    0.0000 H   0  0  0  0  0  0  0  0  0  0  0  0
    4.8305    0.8939    0.0000 H   0  0  0  0  0  0  0  0  0  0  0  0
    4.6184    2.9114    0.0000 H   0  0  0  0  0  0  0  0  0  0  0  0
    5.5450    2.3764    0.0000 H   0  0  0  0  0  0  0  0  0  0  0  0
    6.8589    1.3729    0.0000 H   0  0  0  0  0  0  0  0  0  0  0  0
  1  2  1  0  0  0  0
  1 10  1  0  0  0  0
  2  3  2  0  0  0  0
  2  4  1  0  0  0  0
  4  5  1  0  0  0  0
  4 11  1  0  0  0  0
  4 12  1  0  0  0  0
  5  6  1  0  0  0  0
  5 13  1  0  0  0  0
  5 14  1  0  0  0  0
  6  7  1  0  0  0  0
  6 15  1  0  0  0  0
  6 16  1  0  0  0  0
  7  8  1  0  0  0  0
  7  9  2  0  0  0  0
  8 17  1  0  0  0  0
M  END
>  <DRUGBANK_ID>
DB03553

>  <SECONDARY_ACCESSION_NUMBERS>
EXPT01668

>  <COMMON_NAME>
Glutaric Acid

>  <CAS_NUMBER>
110-94-1

>  <UNII>
H849F7N00B

$$$$
