
 OpenBabel10282417072D

 33 36  0  0  0  0  0  0  0  0999 V2000
    0.8965    0.3704    0.0000 S   0  0  0  0  0  0  0  0  0  0  0  0
   -1.8995   -1.2328    0.0000 O   0  0  0  0  0  0  0  0  0  0  0  0
   -1.8995    1.1434    0.0000 O   0  0  0  0  0  0  0  0  0  0  0  0
    1.2952   -0.3140    0.0000 O   0  0  0  0  0  0  0  0  0  0  0  0
    0.4978    1.0549    0.0000 O   0  0  0  0  0  0  0  0  0  0  0  0
    1.5810    0.7691    0.0000 N   0  0  0  0  0  0  0  0  0  0  0  0
    2.9908    0.7007    0.0000 N   0  0  0  0  0  0  0  0  0  0  0  0
    2.3543   -0.4116    0.0000 N   0  0  0  0  0  0  0  0  0  0  0  0
    3.5231    0.1141    0.0000 N   0  0  0  0  0  0  0  0  0  0  0  0
    3.1297   -0.5733    0.0000 N   0  0  0  0  0  0  0  0  0  0  0  0
   -1.2136   -0.0446    0.0000 C   0  0  0  0  0  0  0  0  0  0  0  0
    0.2121   -0.0281    0.0000 C   0  0  0  0  0  0  0  0  0  0  0  0
   -1.2136   -0.8367    0.0000 C   0  0  0  0  0  0  0  0  0  0  0  0
   -0.5055    0.3789    0.0000 C   0  0  0  0  0  0  0  0  0  0  0  0
   -2.5855   -0.0446    0.0000 C   0  0  0  0  0  0  0  0  0  0  0  0
   -1.8995    0.3513    0.0000 C   0  0  0  0  0  0  0  0  0  0  0  0
   -2.5855   -0.8367    0.0000 C   0  0  0  0  0  0  0  0  0  0  0  0
    0.2121   -0.8531    0.0000 C   0  0  0  0  0  0  0  0  0  0  0  0
   -0.5055   -1.2602    0.0000 C   0  0  0  0  0  0  0  0  0  0  0  0
   -3.2936    0.3789    0.0000 C   0  0  0  0  0  0  0  0  0  0  0  0
   -3.2936   -1.2602    0.0000 C   0  0  0  0  0  0  0  0  0  0  0  0
   -4.0113   -0.0281    0.0000 C   0  0  0  0  0  0  0  0  0  0  0  0
   -4.0113   -0.8531    0.0000 C   0  0  0  0  0  0  0  0  0  0  0  0
    2.2684    0.3757    0.0000 C   0  0  0  0  0  0  0  0  0  0  0  0
    1.5791    1.2602    0.0000 H   0  0  0  0  0  0  0  0  0  0  0  0
    4.0113    0.1673    0.0000 H   0  0  0  0  0  0  0  0  0  0  0  0
   -0.5174    1.4108    0.0000 H   0  0  0  0  0  0  0  0  0  0  0  0
    1.1039   -1.3725    0.0000 H   0  0  0  0  0  0  0  0  0  0  0  0
   -0.5174   -2.2921    0.0000 H   0  0  0  0  0  0  0  0  0  0  0  0
   -3.2817    1.4108    0.0000 H   0  0  0  0  0  0  0  0  0  0  0  0
   -3.2817   -2.2921    0.0000 H   0  0  0  0  0  0  0  0  0  0  0  0
   -4.9030    0.4914    0.0000 H   0  0  0  0  0  0  0  0  0  0  0  0
   -4.9031   -1.3725    0.0000 H   0  0  0  0  0  0  0  0  0  0  0  0
  1  4  2  0  0  0  0
  1  5  2  0  0  0  0
  1  6  1  0  0  0  0
  1 12  1  0  0  0  0
  2 13  1  0  0  0  0
  2 17  1  0  0  0  0
  3 16  2  0  0  0  0
  6 24  1  0  0  0  0
  6 25  1  0  0  0  0
  7  9  1  0  0  0  0
  7 24  2  0  0  0  0
  8 10  2  0  0  0  0
  8 24  1  0  0  0  0
  9 10  1  0  0  0  0
  9 26  1  0  0  0  0
 11 13  2  0  0  0  0
 11 14  1  0  0  0  0
 11 16  1  0  0  0  0
 12 14  2  0  0  0  0
 12 18  1  0  0  0  0
 13 19  1  0  0  0  0
 14 27  1  0  0  0  0
 15 16  1  0  0  0  0
 15 17  1  0  0  0  0
 15 20  2  0  0  0  0
 17 21  2  0  0  0  0
 18 19  2  0  0  0  0
 18 28  1  0  0  0  0
 19 29  1  0  0  0  0
 20 22  1  0  0  0  0
 20 30  1  0  0  0  0
 21 23  1  0  0  0  0
 21 31  1  0  0  0  0
 22 23  2  0  0  0  0
 22 32  1  0  0  0  0
 23 33  1  0  0  0  0
M  END
>  <DRUGBANK_ID>
DB04698

>  <COMMON_NAME>
N-(1,4-dihydro-5H-tetrazol-5-ylidene)-9-oxo-9H-xanthene-2-sulfonamide

>  <CAS_NUMBER>
353522-10-8

>  <SYNONYMS>
9-Oxo-N-(2H-tetrazol-5-yl)-9H-xanthene-2-sulfonamide

$$$$
