Cytidine.mol
 OpenBabel10282417072D

 30 31  0  0  0  0  0  0  0  0999 V2000
   -0.2773    0.5203    0.0000 N   0  0  0  0  0  0  0  0  0  0  0  0
    0.4371    0.9328    0.0000 C   0  0  0  0  0  0  0  0  0  0  0  0
   -0.9918    0.9328    0.0000 C   0  0  0  0  0  0  0  0  0  0  0  0
    0.4371    1.7578    0.0000 N   0  0  0  0  0  0  0  0  0  0  0  0
   -0.2773    2.1703    0.0000 C   0  0  0  0  0  0  0  0  0  0  0  0
   -0.9918    1.7578    0.0000 C   0  0  0  0  0  0  0  0  0  0  0  0
   -0.2773   -0.3046    0.0000 C   0  0  2  0  0  0  0  0  0  0  0  0
   -0.9447   -0.7895    0.0000 O   0  0  0  0  0  0  0  0  0  0  0  0
    0.3900   -0.7895    0.0000 C   0  0  1  0  0  0  0  0  0  0  0  0
   -0.6898   -1.5741    0.0000 C   0  0  1  0  0  0  0  0  0  0  0  0
    0.1351   -1.5741    0.0000 C   0  0  1  0  0  0  0  0  0  0  0  0
    1.1747   -0.5346    0.0000 O   0  0  0  0  0  0  0  0  0  0  0  0
    1.1515    0.5203    0.0000 O   0  0  0  0  0  0  0  0  0  0  0  0
    0.6200   -2.2416    0.0000 O   0  0  0  0  0  0  0  0  0  0  0  0
   -0.2773    2.9953    0.0000 N   0  0  0  0  0  0  0  0  0  0  0  0
   -1.1747   -2.2416    0.0000 C   0  0  0  0  0  0  0  0  0  0  0  0
   -0.8392   -2.9953    0.0000 O   0  0  0  0  0  0  0  0  0  0  0  0
   -1.8855    0.4168    0.0000 H   0  0  0  0  0  0  0  0  0  0  0  0
   -1.8855    2.2738    0.0000 H   0  0  0  0  0  0  0  0  0  0  0  0
   -1.2307    0.1812    0.0000 H   0  0  0  0  0  0  0  0  0  0  0  0
    0.5575    0.2673    0.0000 H   0  0  0  0  0  0  0  0  0  0  0  0
   -1.7466   -1.4067    0.0000 H   0  0  0  0  0  0  0  0  0  0  0  0
    1.1919   -1.4067    0.0000 H   0  0  0  0  0  0  0  0  0  0  0  0
    1.8955   -1.1837    0.0000 H   0  0  0  0  0  0  0  0  0  0  0  0
    0.2254   -3.1277    0.0000 H   0  0  0  0  0  0  0  0  0  0  0  0
    0.5753    3.4875    0.0000 H   0  0  0  0  0  0  0  0  0  0  0  0
   -1.1299    3.4875    0.0000 H   0  0  0  0  0  0  0  0  0  0  0  0
   -2.2388   -2.1297    0.0000 H   0  0  0  0  0  0  0  0  0  0  0  0
   -1.8037   -3.1072    0.0000 H   0  0  0  0  0  0  0  0  0  0  0  0
   -1.4094   -3.7800    0.0000 H   0  0  0  0  0  0  0  0  0  0  0  0
  1  2  1  0  0  0  0
  1  3  1  0  0  0  0
  2 13  2  0  0  0  0
  2  4  1  0  0  0  0
  3  6  2  0  0  0  0
  3 18  1  0  0  0  0
  4  5  2  0  0  0  0
  5 15  1  0  0  0  0
  6  5  1  0  0  0  0
  6 19  1  0  0  0  0
  7  1  1  0  0  0  0
  7  8  1  0  0  0  0
  7  9  1  0  0  0  0
  7 20  1  6  0  0  0
  8 10  1  0  0  0  0
  9 11  1  0  0  0  0
  9 12  1  0  0  0  0
  9 21  1  1  0  0  0
 10 16  1  0  0  0  0
 10 11  1  0  0  0  0
 10 22  1  6  0  0  0
 11 14  1  0  0  0  0
 11 23  1  1  0  0  0
 12 24  1  0  0  0  0
 14 25  1  0  0  0  0
 15 26  1  0  0  0  0
 15 27  1  0  0  0  0
 16 17  1  0  0  0  0
 16 28  1  0  0  0  0
 16 29  1  0  0  0  0
 17 30  1  0  0  0  0
M  END
>  <DRUGBANK_ID>
DB02097

>  <SECONDARY_ACCESSION_NUMBERS>
EXPT01051

>  <COMMON_NAME>
Cytidine

>  <CAS_NUMBER>
65-46-3

>  <UNII>
5CSZ8459RP

>  <SYNONYMS>
1-beta-D-Ribofuranosylcytosine; 1β-D-ribofuranosylcytosine; 4-amino-1-β-D-ribofuranosylpyrimidin-2(1H)-one; 4-amino-1β-D-ribofuranosyl-2(1H)-pyrimidinone; Citidina; Cytidin; Cytosine riboside; Zytidin

$$$$
