
 OpenBabel10282417072D

 19 18  0  0  1  0  0  0  0  0999 V2000
    2.0625    0.7145    0.0000 C   0  0  0  0  0  0  0  0  0  0  0  0
    1.2375    2.1434    0.0000 C   0  0  0  0  0  0  0  0  0  0  0  0
   -0.0000    1.4289    0.0000 C   0  0  0  0  0  0  0  0  0  0  0  0
    1.2375    0.7145    0.0000 C   0  0  1  0  0  0  0  0  0  0  0  0
    0.8250    0.0000    0.0000 C   0  0  0  0  0  0  0  0  0  0  0  0
    0.8250    1.4289    0.0000 N   0  0  0  0  0  0  0  0  0  0  0  0
    1.2375   -0.7145    0.0000 O   0  0  0  0  0  0  0  0  0  0  0  0
    0.0000    0.0000    0.0000 O   0  0  0  0  0  0  0  0  0  0  0  0
    1.6500    0.0000    0.0000 H   0  0  0  0  0  0  0  0  0  0  0  0
    2.5975   -0.2121    0.0000 H   0  0  0  0  0  0  0  0  0  0  0  0
    2.5975    1.6411    0.0000 H   0  0  0  0  0  0  0  0  0  0  0  0
    3.1325    0.7145    0.0000 H   0  0  0  0  0  0  0  0  0  0  0  0
    2.3075    2.1434    0.0000 H   0  0  0  0  0  0  0  0  0  0  0  0
    0.7025    3.0700    0.0000 H   0  0  0  0  0  0  0  0  0  0  0  0
    1.7725    3.0701    0.0000 H   0  0  0  0  0  0  0  0  0  0  0  0
   -0.5350    2.3555    0.0000 H   0  0  0  0  0  0  0  0  0  0  0  0
   -0.5350    0.5023    0.0000 H   0  0  0  0  0  0  0  0  0  0  0  0
   -1.0700    1.4289    0.0000 H   0  0  0  0  0  0  0  0  0  0  0  0
   -0.4685    0.8115    0.0000 H   0  0  0  0  0  0  0  0  0  0  0  0
  1 10  1  0  0  0  0
  1 11  1  0  0  0  0
  1 12  1  0  0  0  0
  2 13  1  0  0  0  0
  2 14  1  0  0  0  0
  2 15  1  0  0  0  0
  3 16  1  0  0  0  0
  3 17  1  0  0  0  0
  3 18  1  0  0  0  0
  4  1  1  0  0  0  0
  4  9  1  6  0  0  0
  5  4  1  0  0  0  0
  6  2  1  0  0  0  0
  6  3  1  0  0  0  0
  6  4  1  0  0  0  0
  7  5  2  0  0  0  0
  8  5  1  0  0  0  0
  8 19  1  0  0  0  0
M  END
>  <DRUGBANK_ID>
DB02167

>  <SECONDARY_ACCESSION_NUMBERS>
EXPT02000

>  <COMMON_NAME>
N,N-Dimethyl-L-Alanine

$$$$
