TTL
 OpenBabel10282417072D

 25 26  0  0  0  0  0  0  0  0999 V2000
   -0.2795    1.5632    0.0000 O   0  0  0  0  0  0  0  0  0  0  0  0
   -0.2795    0.7382    0.0000 C   0  0  1  0  0  0  0  0  0  0  0  0
    0.4350    0.3257    0.0000 C   0  0  0  0  0  0  0  0  0  0  0  0
    1.1495    0.7382    0.0000 C   0  0  0  0  0  0  0  0  0  0  0  0
    1.8639    0.3257    0.0000 C   0  0  0  0  0  0  0  0  0  0  0  0
    1.8639   -0.4993    0.0000 C   0  0  0  0  0  0  0  0  0  0  0  0
    1.1495   -0.9118    0.0000 C   0  0  0  0  0  0  0  0  0  0  0  0
    0.4350   -0.4993    0.0000 C   0  0  0  0  0  0  0  0  0  0  0  0
   -0.2795   -0.9118    0.0000 C   0  0  0  0  0  0  0  0  0  0  0  0
   -0.9939   -0.4993    0.0000 C   0  0  0  0  0  0  0  0  0  0  0  0
   -0.9939    0.3257    0.0000 C   0  0  2  0  0  0  0  0  0  0  0  0
   -1.7084    0.7382    0.0000 N   0  0  0  0  0  0  0  0  0  0  0  0
    0.2262    1.0302    0.0000 H   0  0  0  0  0  0  0  0  0  0  0  0
   -0.9939    0.9096    0.0000 H   0  0  0  0  0  0  0  0  0  0  0  0
    0.5605    2.0482    0.0000 H   0  0  0  0  0  0  0  0  0  0  0  0
    1.1495    1.7702    0.0000 H   0  0  0  0  0  0  0  0  0  0  0  0
    2.7576    0.8417    0.0000 H   0  0  0  0  0  0  0  0  0  0  0  0
    2.7576   -1.0153    0.0000 H   0  0  0  0  0  0  0  0  0  0  0  0
    1.1495   -1.9438    0.0000 H   0  0  0  0  0  0  0  0  0  0  0  0
   -0.2795   -1.9818    0.0000 H   0  0  0  0  0  0  0  0  0  0  0  0
   -1.2062   -1.4468    0.0000 H   0  0  0  0  0  0  0  0  0  0  0  0
   -1.9206   -1.0343    0.0000 H   0  0  0  0  0  0  0  0  0  0  0  0
   -1.9205    0.0357    0.0000 H   0  0  0  0  0  0  0  0  0  0  0  0
   -1.7084    1.7582    0.0000 H   0  0  0  0  0  0  0  0  0  0  0  0
   -2.5917    0.2282    0.0000 H   0  0  0  0  0  0  0  0  0  0  0  0
  1 15  1  0  0  0  0
  2  1  1  0  0  0  0
  2  3  1  0  0  0  0
  2 11  1  0  0  0  0
  2 13  1  6  0  0  0
  3  4  2  0  0  0  0
  3  8  1  0  0  0  0
  4  5  1  0  0  0  0
  4 16  1  0  0  0  0
  5  6  2  0  0  0  0
  5 17  1  0  0  0  0
  6  7  1  0  0  0  0
  6 18  1  0  0  0  0
  7  8  2  0  0  0  0
  7 19  1  0  0  0  0
  8  9  1  0  0  0  0
  9 10  1  0  0  0  0
  9 20  1  0  0  0  0
  9 21  1  0  0  0  0
 10 11  1  0  0  0  0
 10 22  1  0  0  0  0
 10 23  1  0  0  0  0
 11 12  1  0  0  0  0
 11 14  1  1  0  0  0
 12 24  1  0  0  0  0
 12 25  1  0  0  0  0
M  END
>  <DRUGBANK_ID>
DB08654

>  <COMMON_NAME>
TRANS-(1S,2S)-2-AMINO-1,2,3,4-TETRAHYDRONAPHTHALEN-1-OL

$$$$
