
 OpenBabel10282417072D

126129  0  0  0  0  0  0  0  0999 V2000
    2.8476   -0.5778    0.0000 O   0  0  0  0  0  0  0  0  0  0  0  0
    2.8478   -4.8648    0.0000 O   0  0  0  0  0  0  0  0  0  0  0  0
   -5.8149    0.1366    0.0000 O   0  0  0  0  0  0  0  0  0  0  0  0
    2.8479   -2.0067    0.0000 O   0  0  0  0  0  0  0  0  0  0  0  0
    2.8478   -3.4356    0.0000 O   0  0  0  0  0  0  0  0  0  0  0  0
   -4.5772    0.8512    0.0000 O   0  0  0  0  0  0  0  0  0  0  0  0
   -0.8646   -1.2922    0.0000 N   0  0  0  0  0  0  0  0  0  0  0  0
   -0.8648   -4.1503    0.0000 N   0  0  0  0  0  0  0  0  0  0  0  0
   -3.3397   -2.7214    0.0000 N   0  0  0  0  0  0  0  0  0  0  0  0
   -0.8647   -2.7213    0.0000 N   0  0  0  0  0  0  0  0  0  0  0  0
   -2.1022   -2.0068    0.0000 N   0  0  0  0  0  0  0  0  0  0  0  0
   -2.1022   -3.4358    0.0000 N   0  0  0  0  0  0  0  0  0  0  0  0
    4.0853    0.1365    0.0000 C   0  0  3  0  0  0  0  0  0  0  0  0
    4.0854   -5.5792    0.0000 C   0  0  3  0  0  0  0  0  0  0  0  0
   -7.0525    0.8511    0.0000 C   0  0  3  0  0  0  0  0  0  0  0  0
    4.9102    0.1365    0.0000 C   0  0  0  0  0  0  0  0  0  0  0  0
    4.9104   -5.5792    0.0000 C   0  0  0  0  0  0  0  0  0  0  0  0
   -7.4649    1.5656    0.0000 C   0  0  0  0  0  0  0  0  0  0  0  0
    3.6726    0.8511    0.0000 C   0  0  0  0  0  0  0  0  0  0  0  0
    3.6729   -6.2938    0.0000 C   0  0  0  0  0  0  0  0  0  0  0  0
   -7.4650    0.1366    0.0000 C   0  0  0  0  0  0  0  0  0  0  0  0
    5.3227    0.8509    0.0000 C   0  0  0  0  0  0  0  0  0  0  0  0
    5.3228   -6.2937    0.0000 C   0  0  0  0  0  0  0  0  0  0  0  0
   -8.2900    1.5656    0.0000 C   0  0  0  0  0  0  0  0  0  0  0  0
    3.6728   -0.5778    0.0000 C   0  0  0  0  0  0  0  0  0  0  0  0
    3.6727   -4.8647    0.0000 C   0  0  0  0  0  0  0  0  0  0  0  0
   -6.2274    0.8511    0.0000 C   0  0  0  0  0  0  0  0  0  0  0  0
    6.1478    0.8510    0.0000 C   0  0  0  0  0  0  0  0  0  0  0  0
    6.1478   -6.2936    0.0000 C   0  0  0  0  0  0  0  0  0  0  0  0
   -8.7025    2.2800    0.0000 C   0  0  0  0  0  0  0  0  0  0  0  0
    4.0851    1.5655    0.0000 C   0  0  0  0  0  0  0  0  0  0  0  0
    4.0853   -7.0083    0.0000 C   0  0  0  0  0  0  0  0  0  0  0  0
   -8.2900    0.1365    0.0000 C   0  0  0  0  0  0  0  0  0  0  0  0
    6.5603    1.5655    0.0000 C   0  0  0  0  0  0  0  0  0  0  0  0
    6.5604   -7.0082    0.0000 C   0  0  0  0  0  0  0  0  0  0  0  0
   -9.5275    2.2800    0.0000 C   0  0  0  0  0  0  0  0  0  0  0  0
    2.4350   -1.2924    0.0000 C   0  0  0  0  0  0  0  0  0  0  0  0
    2.4352   -4.1502    0.0000 C   0  0  0  0  0  0  0  0  0  0  0  0
   -4.9898    0.1365    0.0000 C   0  0  0  0  0  0  0  0  0  0  0  0
    1.6103   -1.2922    0.0000 C   0  0  0  0  0  0  0  0  0  0  0  0
    1.6102   -4.1503    0.0000 C   0  0  0  0  0  0  0  0  0  0  0  0
   -4.5773   -0.5778    0.0000 C   0  0  0  0  0  0  0  0  0  0  0  0
    1.1978   -2.0068    0.0000 C   0  0  0  0  0  0  0  0  0  0  0  0
    1.1977   -4.8648    0.0000 C   0  0  0  0  0  0  0  0  0  0  0  0
   -3.7524   -0.5777    0.0000 C   0  0  0  0  0  0  0  0  0  0  0  0
    1.1976   -0.5780    0.0000 C   0  0  0  0  0  0  0  0  0  0  0  0
    1.1976   -3.4357    0.0000 C   0  0  0  0  0  0  0  0  0  0  0  0
   -4.9899   -1.2923    0.0000 C   0  0  0  0  0  0  0  0  0  0  0  0
    0.3728   -2.0067    0.0000 C   0  0  0  0  0  0  0  0  0  0  0  0
    0.3726   -4.8647    0.0000 C   0  0  0  0  0  0  0  0  0  0  0  0
   -3.3398   -1.2923    0.0000 C   0  0  0  0  0  0  0  0  0  0  0  0
    0.3728   -0.5777    0.0000 C   0  0  0  0  0  0  0  0  0  0  0  0
    0.3727   -3.4357    0.0000 C   0  0  0  0  0  0  0  0  0  0  0  0
   -4.5774   -2.0068    0.0000 C   0  0  0  0  0  0  0  0  0  0  0  0
   -0.0397   -1.2923    0.0000 C   0  0  0  0  0  0  0  0  0  0  0  0
   -0.0397   -4.1503    0.0000 C   0  0  0  0  0  0  0  0  0  0  0  0
   -3.7523   -2.0068    0.0000 C   0  0  0  0  0  0  0  0  0  0  0  0
   -1.2772   -2.0068    0.0000 C   0  0  0  0  0  0  0  0  0  0  0  0
   -1.2772   -3.4358    0.0000 C   0  0  0  0  0  0  0  0  0  0  0  0
   -2.5147   -2.7214    0.0000 C   0  0  0  0  0  0  0  0  0  0  0  0
   -1.1205   -0.8494    0.0000 H   0  0  0  0  0  0  0  0  0  0  0  0
   -1.1205   -4.5932    0.0000 H   0  0  0  0  0  0  0  0  0  0  0  0
   -3.5955   -3.1643    0.0000 H   0  0  0  0  0  0  0  0  0  0  0  0
    4.6202    1.0632    0.0000 H   0  0  0  0  0  0  0  0  0  0  0  0
    4.6204   -6.5058    0.0000 H   0  0  0  0  0  0  0  0  0  0  0  0
   -8.1225    0.8512    0.0000 H   0  0  0  0  0  0  0  0  0  0  0  0
    5.4452   -0.7902    0.0000 H   0  0  0  0  0  0  0  0  0  0  0  0
    5.9802    0.1365    0.0000 H   0  0  0  0  0  0  0  0  0  0  0  0
    5.4455   -4.6526    0.0000 H   0  0  0  0  0  0  0  0  0  0  0  0
    5.9804   -5.5793    0.0000 H   0  0  0  0  0  0  0  0  0  0  0  0
   -6.9298    2.4922    0.0000 H   0  0  0  0  0  0  0  0  0  0  0  0
   -7.9999    2.4923    0.0000 H   0  0  0  0  0  0  0  0  0  0  0  0
    2.6026    0.8511    0.0000 H   0  0  0  0  0  0  0  0  0  0  0  0
    3.1376    1.7777    0.0000 H   0  0  0  0  0  0  0  0  0  0  0  0
    2.6029   -6.2938    0.0000 H   0  0  0  0  0  0  0  0  0  0  0  0
    3.1378   -7.2204    0.0000 H   0  0  0  0  0  0  0  0  0  0  0  0
   -6.9299   -0.7900    0.0000 H   0  0  0  0  0  0  0  0  0  0  0  0
   -7.9999   -0.7901    0.0000 H   0  0  0  0  0  0  0  0  0  0  0  0
    4.7877    1.7775    0.0000 H   0  0  0  0  0  0  0  0  0  0  0  0
    5.8576    1.7776    0.0000 H   0  0  0  0  0  0  0  0  0  0  0  0
    4.7878   -7.2203    0.0000 H   0  0  0  0  0  0  0  0  0  0  0  0
    5.8579   -7.2203    0.0000 H   0  0  0  0  0  0  0  0  0  0  0  0
   -8.8250    0.6389    0.0000 H   0  0  0  0  0  0  0  0  0  0  0  0
   -9.3600    1.5656    0.0000 H   0  0  0  0  0  0  0  0  0  0  0  0
    4.2078   -1.5045    0.0000 H   0  0  0  0  0  0  0  0  0  0  0  0
    4.7428   -0.5779    0.0000 H   0  0  0  0  0  0  0  0  0  0  0  0
    4.2076   -3.9380    0.0000 H   0  0  0  0  0  0  0  0  0  0  0  0
    4.7427   -4.8645    0.0000 H   0  0  0  0  0  0  0  0  0  0  0  0
   -5.6924    1.7777    0.0000 H   0  0  0  0  0  0  0  0  0  0  0  0
   -6.7624    1.7777    0.0000 H   0  0  0  0  0  0  0  0  0  0  0  0
    6.6829   -0.0756    0.0000 H   0  0  0  0  0  0  0  0  0  0  0  0
    7.2178    0.8510    0.0000 H   0  0  0  0  0  0  0  0  0  0  0  0
    6.6827   -5.3669    0.0000 H   0  0  0  0  0  0  0  0  0  0  0  0
    7.2178   -6.2935    0.0000 H   0  0  0  0  0  0  0  0  0  0  0  0
   -8.1675    3.2067    0.0000 H   0  0  0  0  0  0  0  0  0  0  0  0
   -9.2375    3.2066    0.0000 H   0  0  0  0  0  0  0  0  0  0  0  0
    5.1551    1.5655    0.0000 H   0  0  0  0  0  0  0  0  0  0  0  0
    3.5501    2.4922    0.0000 H   0  0  0  0  0  0  0  0  0  0  0  0
    4.6201    2.4921    0.0000 H   0  0  0  0  0  0  0  0  0  0  0  0
    3.5502   -7.9349    0.0000 H   0  0  0  0  0  0  0  0  0  0  0  0
    5.1553   -7.0084    0.0000 H   0  0  0  0  0  0  0  0  0  0  0  0
    4.6202   -7.9350    0.0000 H   0  0  0  0  0  0  0  0  0  0  0  0
   -8.8251    1.0631    0.0000 H   0  0  0  0  0  0  0  0  0  0  0  0
   -8.8249   -0.7902    0.0000 H   0  0  0  0  0  0  0  0  0  0  0  0
   -9.3600    0.1364    0.0000 H   0  0  0  0  0  0  0  0  0  0  0  0
    7.6303    1.5655    0.0000 H   0  0  0  0  0  0  0  0  0  0  0  0
    6.0253    2.4921    0.0000 H   0  0  0  0  0  0  0  0  0  0  0  0
    7.0953    2.4922    0.0000 H   0  0  0  0  0  0  0  0  0  0  0  0
    6.0254   -7.9349    0.0000 H   0  0  0  0  0  0  0  0  0  0  0  0
    7.6304   -7.0082    0.0000 H   0  0  0  0  0  0  0  0  0  0  0  0
    7.0954   -7.9348    0.0000 H   0  0  0  0  0  0  0  0  0  0  0  0
  -10.0625    3.2066    0.0000 H   0  0  0  0  0  0  0  0  0  0  0  0
  -10.0625    1.3534    0.0000 H   0  0  0  0  0  0  0  0  0  0  0  0
  -10.5975    2.2800    0.0000 H   0  0  0  0  0  0  0  0  0  0  0  0
    1.7138   -2.9005    0.0000 H   0  0  0  0  0  0  0  0  0  0  0  0
    1.7137   -5.7586    0.0000 H   0  0  0  0  0  0  0  0  0  0  0  0
   -3.2365    0.3161    0.0000 H   0  0  0  0  0  0  0  0  0  0  0  0
    1.7136    0.3157    0.0000 H   0  0  0  0  0  0  0  0  0  0  0  0
    1.7136   -2.5420    0.0000 H   0  0  0  0  0  0  0  0  0  0  0  0
   -6.0219   -1.2922    0.0000 H   0  0  0  0  0  0  0  0  0  0  0  0
   -0.1432   -2.9004    0.0000 H   0  0  0  0  0  0  0  0  0  0  0  0
   -0.1435   -5.7584    0.0000 H   0  0  0  0  0  0  0  0  0  0  0  0
   -2.3078   -1.2923    0.0000 H   0  0  0  0  0  0  0  0  0  0  0  0
   -0.1431    0.3161    0.0000 H   0  0  0  0  0  0  0  0  0  0  0  0
   -0.1434   -2.5420    0.0000 H   0  0  0  0  0  0  0  0  0  0  0  0
   -5.0934   -2.9005    0.0000 H   0  0  0  0  0  0  0  0  0  0  0  0
  1 25  1  0  0  0  0
  1 37  1  0  0  0  0
  2 26  1  0  0  0  0
  2 38  1  0  0  0  0
  3 27  1  0  0  0  0
  3 39  1  0  0  0  0
  4 37  2  0  0  0  0
  5 38  2  0  0  0  0
  6 39  2  0  0  0  0
  7 55  1  0  0  0  0
  7 58  1  0  0  0  0
  7 61  1  0  0  0  0
  8 56  1  0  0  0  0
  8 59  1  0  0  0  0
  8 62  1  0  0  0  0
  9 57  1  0  0  0  0
  9 60  1  0  0  0  0
  9 63  1  0  0  0  0
 10 58  2  0  0  0  0
 10 59  1  0  0  0  0
 11 58  1  0  0  0  0
 11 60  2  0  0  0  0
 12 59  2  0  0  0  0
 12 60  1  0  0  0  0
 13 16  1  0  0  0  0
 13 19  1  0  0  0  0
 13 25  1  0  0  0  0
 13 64  1  0  0  0  0
 14 17  1  0  0  0  0
 14 20  1  0  0  0  0
 14 26  1  0  0  0  0
 14 65  1  0  0  0  0
 15 18  1  0  0  0  0
 15 21  1  0  0  0  0
 15 27  1  0  0  0  0
 15 66  1  0  0  0  0
 16 22  1  0  0  0  0
 16 67  1  0  0  0  0
 16 68  1  0  0  0  0
 17 23  1  0  0  0  0
 17 69  1  0  0  0  0
 17 70  1  0  0  0  0
 18 24  1  0  0  0  0
 18 71  1  0  0  0  0
 18 72  1  0  0  0  0
 19 31  1  0  0  0  0
 19 73  1  0  0  0  0
 19 74  1  0  0  0  0
 20 32  1  0  0  0  0
 20 75  1  0  0  0  0
 20 76  1  0  0  0  0
 21 33  1  0  0  0  0
 21 77  1  0  0  0  0
 21 78  1  0  0  0  0
 22 28  1  0  0  0  0
 22 79  1  0  0  0  0
 22 80  1  0  0  0  0
 23 29  1  0  0  0  0
 23 81  1  0  0  0  0
 23 82  1  0  0  0  0
 24 30  1  0  0  0  0
 24 83  1  0  0  0  0
 24 84  1  0  0  0  0
 25 85  1  0  0  0  0
 25 86  1  0  0  0  0
 26 87  1  0  0  0  0
 26 88  1  0  0  0  0
 27 89  1  0  0  0  0
 27 90  1  0  0  0  0
 28 34  1  0  0  0  0
 28 91  1  0  0  0  0
 28 92  1  0  0  0  0
 29 35  1  0  0  0  0
 29 93  1  0  0  0  0
 29 94  1  0  0  0  0
 30 36  1  0  0  0  0
 30 95  1  0  0  0  0
 30 96  1  0  0  0  0
 31 97  1  0  0  0  0
 31 98  1  0  0  0  0
 31 99  1  0  0  0  0
 32100  1  0  0  0  0
 32101  1  0  0  0  0
 32102  1  0  0  0  0
 33103  1  0  0  0  0
 33104  1  0  0  0  0
 33105  1  0  0  0  0
 34106  1  0  0  0  0
 34107  1  0  0  0  0
 34108  1  0  0  0  0
 35109  1  0  0  0  0
 35110  1  0  0  0  0
 35111  1  0  0  0  0
 36112  1  0  0  0  0
 36113  1  0  0  0  0
 36114  1  0  0  0  0
 37 40  1  0  0  0  0
 38 41  1  0  0  0  0
 39 42  1  0  0  0  0
 40 43  2  0  0  0  0
 40 46  1  0  0  0  0
 41 44  2  0  0  0  0
 41 47  1  0  0  0  0
 42 45  2  0  0  0  0
 42 48  1  0  0  0  0
 43 49  1  0  0  0  0
 43115  1  0  0  0  0
 44 50  1  0  0  0  0
 44116  1  0  0  0  0
 45 51  1  0  0  0  0
 45117  1  0  0  0  0
 46 52  2  0  0  0  0
 46118  1  0  0  0  0
 47 53  2  0  0  0  0
 47119  1  0  0  0  0
 48 54  2  0  0  0  0
 48120  1  0  0  0  0
 49 55  2  0  0  0  0
 49121  1  0  0  0  0
 50 56  2  0  0  0  0
 50122  1  0  0  0  0
 51 57  2  0  0  0  0
 51123  1  0  0  0  0
 52 55  1  0  0  0  0
 52124  1  0  0  0  0
 53 56  1  0  0  0  0
 53125  1  0  0  0  0
 54 57  1  0  0  0  0
 54126  1  0  0  0  0
M  END
>  <DRUGBANK_ID>
DB15469

>  <COMMON_NAME>
Octyl triazone

>  <CAS_NUMBER>
88122-99-0

>  <UNII>
XQN8R9SAK4

$$$$
