
 OpenBabel10282417072D

 56 59  0  0  0  0  0  0  0  0999 V2000
    0.3221   -1.5712    0.0000 C   0  0  0  0  0  0  0  0  0  0  0  0
   -0.3924   -1.9836    0.0000 C   0  0  0  0  0  0  0  0  0  0  0  0
   -1.1068   -1.5712    0.0000 C   0  0  0  0  0  0  0  0  0  0  0  0
   -1.8213   -1.9836    0.0000 C   0  0  0  0  0  0  0  0  0  0  0  0
   -2.5358   -0.7462    0.0000 C   0  0  0  0  0  0  0  0  0  0  0  0
   -1.8213   -0.3337    0.0000 C   0  0  0  0  0  0  0  0  0  0  0  0
    0.3221    0.9037    0.0000 C   0  0  0  0  0  0  0  0  0  0  0  0
    2.3062    0.0787    0.0000 C   0  0  0  0  0  0  0  0  0  0  0  0
    1.8212   -0.5886    0.0000 C   0  0  0  0  0  0  0  0  0  0  0  0
   -0.3924   -0.3337    0.0000 C   0  0  2  0  0  0  0  0  0  0  0  0
   -0.3924   -1.1587    0.0000 H   0  0  0  0  0  0  0  0  0  0  0  0
    1.0366   -0.3337    0.0000 C   0  0  1  0  0  0  0  0  0  0  0  0
    1.0366   -1.1587    0.0000 H   0  0  0  0  0  0  0  0  0  0  0  0
    0.3221   -0.7462    0.0000 C   0  0  2  0  0  0  0  0  0  0  0  0
    0.3221    0.0787    0.0000 H   0  0  0  0  0  0  0  0  0  0  0  0
    1.0366    0.4912    0.0000 C   0  0  1  0  0  0  0  0  0  0  0  0
    1.8212    0.7462    0.0000 C   0  0  1  0  0  0  0  0  0  0  0  0
   -2.5358   -1.5712    0.0000 C   0  0  0  0  0  0  0  0  0  0  0  0
   -3.2502   -1.9837    0.0000 O   0  0  0  0  0  0  0  0  0  0  0  0
   -0.3924    0.4912    0.0000 C   0  0  1  0  0  0  0  0  0  0  0  0
   -1.1069    0.9037    0.0000 O   0  0  0  0  0  0  0  0  0  0  0  0
    1.8212    1.5712    0.0000 C   0  0  0  0  0  0  0  0  0  0  0  0
    1.1068    1.9837    0.0000 O   0  0  0  0  0  0  0  0  0  0  0  0
    2.5358    1.9837    0.0000 C   0  0  0  0  0  0  0  0  0  0  0  0
    3.2503    1.5712    0.0000 O   0  0  0  0  0  0  0  0  0  0  0  0
    2.5358    1.1587    0.0000 O   0  0  0  0  0  0  0  0  0  0  0  0
    1.0366    1.3162    0.0000 C   0  0  0  0  0  0  0  0  0  0  0  0
   -1.1068   -0.7462    0.0000 C   0  0  2  0  0  0  0  0  0  0  0  0
   -1.1068    0.0787    0.0000 C   0  0  0  0  0  0  0  0  0  0  0  0
    1.2487   -2.1063    0.0000 H   0  0  0  0  0  0  0  0  0  0  0  0
    0.3220   -2.6412    0.0000 H   0  0  0  0  0  0  0  0  0  0  0  0
   -0.3924   -3.0536    0.0000 H   0  0  0  0  0  0  0  0  0  0  0  0
   -1.3190   -2.5186    0.0000 H   0  0  0  0  0  0  0  0  0  0  0  0
   -1.8213   -3.0156    0.0000 H   0  0  0  0  0  0  0  0  0  0  0  0
   -3.4624   -0.2112    0.0000 H   0  0  0  0  0  0  0  0  0  0  0  0
   -2.5358    0.3238    0.0000 H   0  0  0  0  0  0  0  0  0  0  0  0
   -1.8213    0.7363    0.0000 H   0  0  0  0  0  0  0  0  0  0  0  0
   -0.8947    0.2013    0.0000 H   0  0  0  0  0  0  0  0  0  0  0  0
    0.3221    1.9737    0.0000 H   0  0  0  0  0  0  0  0  0  0  0  0
    1.2487    1.4387    0.0000 H   0  0  0  0  0  0  0  0  0  0  0  0
    3.3762    0.0786    0.0000 H   0  0  0  0  0  0  0  0  0  0  0  0
    2.7919   -0.8747    0.0000 H   0  0  0  0  0  0  0  0  0  0  0  0
    2.1518   -1.6063    0.0000 H   0  0  0  0  0  0  0  0  0  0  0  0
    1.0646   -1.3452    0.0000 H   0  0  0  0  0  0  0  0  0  0  0  0
   -1.3190   -0.0438    0.0000 H   0  0  0  0  0  0  0  0  0  0  0  0
   -1.1069    1.8737    0.0000 H   0  0  0  0  0  0  0  0  0  0  0  0
    2.5358    3.0537    0.0000 H   0  0  0  0  0  0  0  0  0  0  0  0
    3.4625    2.5187    0.0000 H   0  0  0  0  0  0  0  0  0  0  0  0
    3.2503    0.6012    0.0000 H   0  0  0  0  0  0  0  0  0  0  0  0
    3.3758    0.6736    0.0000 H   0  0  0  0  0  0  0  0  0  0  0  0
    1.9632    1.8512    0.0000 H   0  0  0  0  0  0  0  0  0  0  0  0
    0.1100    1.8512    0.0000 H   0  0  0  0  0  0  0  0  0  0  0  0
    1.0366    2.3862    0.0000 H   0  0  0  0  0  0  0  0  0  0  0  0
   -0.1802    0.6137    0.0000 H   0  0  0  0  0  0  0  0  0  0  0  0
   -2.0334    0.6137    0.0000 H   0  0  0  0  0  0  0  0  0  0  0  0
   -1.1068    1.1487    0.0000 H   0  0  0  0  0  0  0  0  0  0  0  0
  1  2  1  0  0  0  0
  1 30  1  0  0  0  0
  1 31  1  0  0  0  0
  2  3  1  0  0  0  0
  2 32  1  0  0  0  0
  2 33  1  0  0  0  0
  3  4  2  0  0  0  0
  3 28  1  0  0  0  0
  4 18  1  0  0  0  0
  4 34  1  0  0  0  0
  5  6  1  0  0  0  0
  5 35  1  0  0  0  0
  5 36  1  0  0  0  0
  6 28  1  0  0  0  0
  6 37  1  0  0  0  0
  6 38  1  0  0  0  0
  7 16  1  0  0  0  0
  7 39  1  0  0  0  0
  7 40  1  0  0  0  0
  8  9  1  0  0  0  0
  8 41  1  0  0  0  0
  8 42  1  0  0  0  0
  9 12  1  0  0  0  0
  9 43  1  0  0  0  0
  9 44  1  0  0  0  0
 10 20  1  0  0  0  0
 10 11  1  6  0  0  0
 12 13  1  6  0  0  0
 14  1  1  0  0  0  0
 14 10  1  0  0  0  0
 14 12  1  0  0  0  0
 14 15  1  1  0  0  0
 16 17  1  0  0  0  0
 16 12  1  0  0  0  0
 16 27  1  1  0  0  0
 17  8  1  0  0  0  0
 17 26  1  6  0  0  0
 17 22  1  0  0  0  0
 18  5  1  0  0  0  0
 18 19  2  0  0  0  0
 20  7  1  0  0  0  0
 20 21  1  0  0  0  0
 20 45  1  6  0  0  0
 21 46  1  0  0  0  0
 22 24  1  0  0  0  0
 22 23  2  0  0  0  0
 24 25  1  0  0  0  0
 24 47  1  0  0  0  0
 24 48  1  0  0  0  0
 25 49  1  0  0  0  0
 26 50  1  0  0  0  0
 27 51  1  0  0  0  0
 27 52  1  0  0  0  0
 27 53  1  0  0  0  0
 28 10  1  0  0  0  0
 28 29  1  1  0  0  0
 29 54  1  0  0  0  0
 29 55  1  0  0  0  0
 29 56  1  0  0  0  0
M  END
>  <DRUGBANK_ID>
DB00741

>  <SECONDARY_ACCESSION_NUMBERS>
APRD01019; DB07886

>  <COMMON_NAME>
Hydrocortisone

>  <CAS_NUMBER>
50-23-7

>  <UNII>
WI4X0X7BPJ

>  <SYNONYMS>
(11β)-11,17,21-trihydroxypregn-4-ene-3,20-dione; 11beta-hydrocortisone; 11beta,17alpha,21-Trihydroxy-4-pregnene-3,20-dione; 11β-hydrocortisone; 17-Hydroxycorticosterone; 4-pregnen-11β,17α,21-triol-3,20-dione; Cortisol; Hidrocortisona; Hydrocortisone; Hydrocortisonum; Kendall's compound F; Reichstein's substance M

$$$$
