
 OpenBabel10282417072D

 57 57  0  0  0  0  0  0  0  0999 V2000
    1.7861   -0.4125    0.0000 S   0  0  0  0  0  0  0  0  0  0  0  0
    2.5006    0.8250    0.0000 O   0  0  0  0  0  0  0  0  0  0  0  0
   -0.3571   -2.4750    0.0000 O   0  0  0  0  0  0  0  0  0  0  0  0
    0.3572   -2.8875    0.0000 O   0  0  0  0  0  0  0  0  0  0  0  0
   -3.9295   -1.2375    0.0000 O   0  0  0  0  0  0  0  0  0  0  0  0
    3.2151   -0.4125    0.0000 O   0  0  0  0  0  0  0  0  0  0  0  0
   -3.2150   -2.4750    0.0000 O   0  0  0  0  0  0  0  0  0  0  0  0
    2.5006   -4.9500    0.0000 O   0  0  0  0  0  0  0  0  0  0  0  0
    3.2151   -3.7125    0.0000 O   0  0  0  0  0  0  0  0  0  0  0  0
    3.9295    4.9500    0.0000 O   0  5  0  0  0  0  0  0  0  0  0  0
    2.5006    4.9500    0.0000 O   0  0  0  0  0  0  0  0  0  0  0  0
    0.3572   -1.2375    0.0000 N   0  0  0  0  0  0  0  0  0  0  0  0
    1.7861   -2.8875    0.0000 N   0  0  0  0  0  0  0  0  0  0  0  0
   -2.5006   -0.4125    0.0000 N   0  0  0  0  0  0  0  0  0  0  0  0
    3.2151    4.5375    0.0000 N   0  3  0  0  0  0  0  0  0  0  0  0
    1.0717   -1.6500    0.0000 C   0  0  1  0  0  0  0  0  0  0  0  0
   -1.7861   -1.6500    0.0000 C   0  0  0  0  0  0  0  0  0  0  0  0
   -1.0717   -1.2375    0.0000 C   0  0  0  0  0  0  0  0  0  0  0  0
    1.7861   -1.2375    0.0000 C   0  0  0  0  0  0  0  0  0  0  0  0
   -2.5006   -1.2375    0.0000 C   0  0  1  0  0  0  0  0  0  0  0  0
   -0.3571   -1.6500    0.0000 C   0  0  0  0  0  0  0  0  0  0  0  0
    1.0717   -2.4750    0.0000 C   0  0  0  0  0  0  0  0  0  0  0  0
   -3.2150   -1.6500    0.0000 C   0  0  0  0  0  0  0  0  0  0  0  0
    2.5006    0.0000    0.0000 C   0  0  3  0  0  0  0  0  0  0  0  0
    1.7861   -3.7125    0.0000 C   0  0  0  0  0  0  0  0  0  0  0  0
    3.2151    1.2375    0.0000 C   0  0  0  0  0  0  0  0  0  0  0  0
    3.2151    2.0625    0.0000 C   0  0  0  0  0  0  0  0  0  0  0  0
    2.5006    2.4750    0.0000 C   0  0  0  0  0  0  0  0  0  0  0  0
    3.9295    2.4750    0.0000 C   0  0  0  0  0  0  0  0  0  0  0  0
    2.5006   -4.1250    0.0000 C   0  0  0  0  0  0  0  0  0  0  0  0
    2.5006    3.3000    0.0000 C   0  0  0  0  0  0  0  0  0  0  0  0
    3.9295    3.3000    0.0000 C   0  0  0  0  0  0  0  0  0  0  0  0
    3.2151    3.7125    0.0000 C   0  0  0  0  0  0  0  0  0  0  0  0
    0.3572   -0.7260    0.0000 H   0  0  0  0  0  0  0  0  0  0  0  0
    2.2291   -2.6317    0.0000 H   0  0  0  0  0  0  0  0  0  0  0  0
   -2.9435   -0.1567    0.0000 H   0  0  0  0  0  0  0  0  0  0  0  0
   -2.0576   -0.1567    0.0000 H   0  0  0  0  0  0  0  0  0  0  0  0
   -3.9295   -0.3005    0.0000 H   0  0  0  0  0  0  0  0  0  0  0  0
    3.2151   -1.3825    0.0000 H   0  0  0  0  0  0  0  0  0  0  0  0
    1.6891   -5.4185    0.0000 H   0  0  0  0  0  0  0  0  0  0  0  0
    1.0717   -0.5800    0.0000 H   0  0  0  0  0  0  0  0  0  0  0  0
   -1.7861   -2.7200    0.0000 H   0  0  0  0  0  0  0  0  0  0  0  0
   -2.7127   -2.1850    0.0000 H   0  0  0  0  0  0  0  0  0  0  0  0
   -1.0718   -0.1675    0.0000 H   0  0  0  0  0  0  0  0  0  0  0  0
   -0.1451   -0.7024    0.0000 H   0  0  0  0  0  0  0  0  0  0  0  0
    2.7128   -1.7725    0.0000 H   0  0  0  0  0  0  0  0  0  0  0  0
    1.7861   -2.3075    0.0000 H   0  0  0  0  0  0  0  0  0  0  0  0
   -1.5740   -0.7025    0.0000 H   0  0  0  0  0  0  0  0  0  0  0  0
    1.5740    0.5350    0.0000 H   0  0  0  0  0  0  0  0  0  0  0  0
    0.8595   -4.2475    0.0000 H   0  0  0  0  0  0  0  0  0  0  0  0
    1.7861   -4.7825    0.0000 H   0  0  0  0  0  0  0  0  0  0  0  0
    4.1417    0.7025    0.0000 H   0  0  0  0  0  0  0  0  0  0  0  0
    4.1417    1.7725    0.0000 H   0  0  0  0  0  0  0  0  0  0  0  0
    1.6069    1.9590    0.0000 H   0  0  0  0  0  0  0  0  0  0  0  0
    4.8232    1.9590    0.0000 H   0  0  0  0  0  0  0  0  0  0  0  0
    1.6069    3.8160    0.0000 H   0  0  0  0  0  0  0  0  0  0  0  0
    4.8232    3.8160    0.0000 H   0  0  0  0  0  0  0  0  0  0  0  0
  1 19  1  0  0  0  0
  1 24  1  0  0  0  0
  2 24  1  0  0  0  0
  2 26  1  0  0  0  0
  3 21  2  0  0  0  0
  4 22  2  0  0  0  0
  5 23  1  0  0  0  0
  5 38  1  0  0  0  0
  6 24  1  0  0  0  0
  6 39  1  0  0  0  0
  7 23  2  0  0  0  0
  8 30  1  0  0  0  0
  8 40  1  0  0  0  0
  9 30  2  0  0  0  0
 10 15  1  0  0  0  0
 11 15  2  0  0  0  0
 12 21  1  0  0  0  0
 12 34  1  0  0  0  0
 13 22  1  0  0  0  0
 13 25  1  0  0  0  0
 13 35  1  0  0  0  0
 14 36  1  0  0  0  0
 14 37  1  0  0  0  0
 15 33  1  0  0  0  0
 16 12  1  0  0  0  0
 16 19  1  0  0  0  0
 16 22  1  0  0  0  0
 16 41  1  6  0  0  0
 17 18  1  0  0  0  0
 17 20  1  0  0  0  0
 17 42  1  0  0  0  0
 17 43  1  0  0  0  0
 18 21  1  0  0  0  0
 18 44  1  0  0  0  0
 18 45  1  0  0  0  0
 19 46  1  0  0  0  0
 19 47  1  0  0  0  0
 20 14  1  0  0  0  0
 20 23  1  0  0  0  0
 20 48  1  6  0  0  0
 24 49  1  0  0  0  0
 25 30  1  0  0  0  0
 25 50  1  0  0  0  0
 25 51  1  0  0  0  0
 26 27  1  0  0  0  0
 26 52  1  0  0  0  0
 26 53  1  0  0  0  0
 27 28  2  0  0  0  0
 27 29  1  0  0  0  0
 28 31  1  0  0  0  0
 28 54  1  0  0  0  0
 29 32  2  0  0  0  0
 29 55  1  0  0  0  0
 31 33  2  0  0  0  0
 31 56  1  0  0  0  0
 32 33  1  0  0  0  0
 32 57  1  0  0  0  0
M  CHG  2  10  -1  15   1
M  END
>  <DRUGBANK_ID>
DB03130

>  <SECONDARY_ACCESSION_NUMBERS>
EXPT01625

>  <COMMON_NAME>
S-P-Nitrobenzyloxycarbonylglutathione

$$$$
