1035
 OpenBabel10282417072D

 38 38  0  0  0  0  0  0  0  0999 V2000
    1.6500    0.3341    0.0000 O   0  0  0  0  0  0  0  0  0  0  0  0
    3.7935    2.3967    0.0000 N   0  0  0  0  0  0  0  0  0  0  0  0
    3.0791    0.3341    0.0000 N   0  0  0  0  0  0  0  0  0  0  0  0
    2.3645   -3.3784    0.0000 N   0  0  0  0  0  0  0  0  0  0  0  0
    3.7935    1.5717    0.0000 C   0  0  0  0  0  0  0  0  0  0  0  0
    4.5080    2.8092    0.0000 C   0  0  0  0  0  0  0  0  0  0  0  0
    3.0791    2.8092    0.0000 C   0  0  0  0  0  0  0  0  0  0  0  0
    3.0791    1.1592    0.0000 C   0  0  0  0  0  0  0  0  0  0  0  0
    4.5080    3.6342    0.0000 C   0  0  0  0  0  0  0  0  0  0  0  0
    3.0791    3.6342    0.0000 C   0  0  0  0  0  0  0  0  0  0  0  0
    2.3645   -0.0784    0.0000 C   0  0  0  0  0  0  0  0  0  0  0  0
    2.3645   -0.9034    0.0000 C   0  0  0  0  0  0  0  0  0  0  0  0
    3.0791   -1.3159    0.0000 C   0  0  0  0  0  0  0  0  0  0  0  0
    1.6500   -1.3159    0.0000 C   0  0  0  0  0  0  0  0  0  0  0  0
    3.0791   -2.1409    0.0000 C   0  0  0  0  0  0  0  0  0  0  0  0
    1.6500   -2.1409    0.0000 C   0  0  0  0  0  0  0  0  0  0  0  0
    2.3645   -2.5534    0.0000 C   0  0  0  0  0  0  0  0  0  0  0  0
    3.9317   -0.1582    0.0000 H   0  0  0  0  0  0  0  0  0  0  0  0
    1.5119   -3.8707    0.0000 H   0  0  0  0  0  0  0  0  0  0  0  0
    3.2171   -3.8706    0.0000 H   0  0  0  0  0  0  0  0  0  0  0  0
    4.7202    1.0367    0.0000 H   0  0  0  0  0  0  0  0  0  0  0  0
    3.7935    0.5017    0.0000 H   0  0  0  0  0  0  0  0  0  0  0  0
    5.4346    2.2742    0.0000 H   0  0  0  0  0  0  0  0  0  0  0  0
    5.4346    3.3442    0.0000 H   0  0  0  0  0  0  0  0  0  0  0  0
    2.1524    2.2742    0.0000 H   0  0  0  0  0  0  0  0  0  0  0  0
    2.1525    3.3442    0.0000 H   0  0  0  0  0  0  0  0  0  0  0  0
    2.1524    1.6942    0.0000 H   0  0  0  0  0  0  0  0  0  0  0  0
    3.0791    2.2292    0.0000 H   0  0  0  0  0  0  0  0  0  0  0  0
    5.4346    4.1692    0.0000 H   0  0  0  0  0  0  0  0  0  0  0  0
    3.5814    4.1692    0.0000 H   0  0  0  0  0  0  0  0  0  0  0  0
    4.5080    4.7042    0.0000 H   0  0  0  0  0  0  0  0  0  0  0  0
    4.0057    4.1692    0.0000 H   0  0  0  0  0  0  0  0  0  0  0  0
    2.1525    4.1692    0.0000 H   0  0  0  0  0  0  0  0  0  0  0  0
    3.0791    4.7042    0.0000 H   0  0  0  0  0  0  0  0  0  0  0  0
    3.9728   -0.7999    0.0000 H   0  0  0  0  0  0  0  0  0  0  0  0
    0.7563   -0.7999    0.0000 H   0  0  0  0  0  0  0  0  0  0  0  0
    3.9728   -2.6569    0.0000 H   0  0  0  0  0  0  0  0  0  0  0  0
    0.7563   -2.6569    0.0000 H   0  0  0  0  0  0  0  0  0  0  0  0
  1 11  2  0  0  0  0
  2  5  1  0  0  0  0
  2  6  1  0  0  0  0
  2  7  1  0  0  0  0
  3  8  1  0  0  0  0
  3 11  1  0  0  0  0
  3 18  1  0  0  0  0
  4 17  1  0  0  0  0
  4 19  1  0  0  0  0
  4 20  1  0  0  0  0
  5  8  1  0  0  0  0
  5 21  1  0  0  0  0
  5 22  1  0  0  0  0
  6  9  1  0  0  0  0
  6 23  1  0  0  0  0
  6 24  1  0  0  0  0
  7 10  1  0  0  0  0
  7 25  1  0  0  0  0
  7 26  1  0  0  0  0
  8 27  1  0  0  0  0
  8 28  1  0  0  0  0
  9 29  1  0  0  0  0
  9 30  1  0  0  0  0
  9 31  1  0  0  0  0
 10 32  1  0  0  0  0
 10 33  1  0  0  0  0
 10 34  1  0  0  0  0
 11 12  1  0  0  0  0
 12 13  2  0  0  0  0
 12 14  1  0  0  0  0
 13 15  1  0  0  0  0
 13 35  1  0  0  0  0
 14 16  2  0  0  0  0
 14 36  1  0  0  0  0
 15 17  2  0  0  0  0
 15 37  1  0  0  0  0
 16 17  1  0  0  0  0
 16 38  1  0  0  0  0
M  END
>  <DRUGBANK_ID>
DB01035

>  <SECONDARY_ACCESSION_NUMBERS>
APRD00509

>  <COMMON_NAME>
Procainamide

>  <CAS_NUMBER>
51-06-9

>  <UNII>
L39WTC366D

>  <SYNONYMS>
p-Amino-N-(2-diethylaminoethyl)benzamide; p-Aminobenzoic diethylaminoethylamide; Procainamida; Procainamide; Proca√Ønamide; Procainamidum

$$$$
