
 OpenBabel10282417072D

182184  0  0  0  0  0  0  0  0999 V2000
    8.1040   12.8429    0.0000 C   0  0  0  0  0  0  0  0  0  0  0  0
    7.7023   12.1100    0.0000 C   0  0  0  0  0  0  0  0  0  0  0  0
    6.8775   12.1100    0.0000 C   0  0  3  0  0  0  0  0  0  0  0  0
    6.4544   12.8182    0.0000 C   0  0  0  0  0  0  0  0  0  0  0  0
    6.4756   11.3894    0.0000 C   0  0  0  0  0  0  0  0  0  0  0  0
    5.6507   11.3894    0.0000 C   0  0  0  0  0  0  0  0  0  0  0  0
    5.2490   10.6566    0.0000 C   0  0  0  0  0  0  0  0  0  0  0  0
    4.4242   10.6566    0.0000 C   0  0  0  0  0  0  0  0  0  0  0  0
    4.0223    9.9236    0.0000 C   0  0  0  0  0  0  0  0  0  0  0  0
    3.1975    9.9236    0.0000 C   0  0  0  0  0  0  0  0  0  0  0  0
    2.7957    9.1908    0.0000 C   0  0  0  0  0  0  0  0  0  0  0  0
    1.9709    9.1908    0.0000 C   0  0  0  0  0  0  0  0  0  0  0  0
    1.5690    8.4579    0.0000 C   0  0  0  0  0  0  0  0  0  0  0  0
    1.9921    7.7498    0.0000 O   0  0  0  0  0  0  0  0  0  0  0  0
    0.7442    8.4579    0.0000 N   0  0  0  0  0  0  0  0  0  0  0  0
    0.3424    7.7250    0.0000 C   0  0  1  0  0  0  0  0  0  0  0  0
   -0.4823    7.7250    0.0000 C   0  0  0  0  0  0  0  0  0  0  0  0
   -0.9056    8.4209    0.0000 C   0  0  0  0  0  0  0  0  0  0  0  0
   -1.7304    8.4209    0.0000 O   0  0  0  0  0  0  0  0  0  0  0  0
   -0.5038    9.1414    0.0000 O   0  0  0  0  0  0  0  0  0  0  0  0
    0.7656    7.0168    0.0000 C   0  0  0  0  0  0  0  0  0  0  0  0
    1.5905    7.0168    0.0000 O   0  0  0  0  0  0  0  0  0  0  0  0
    0.7869    5.5881    0.0000 C   0  0  1  0  0  0  0  0  0  0  0  0
    1.6118    5.5881    0.0000 C   0  0  2  0  0  0  0  0  0  0  0  0
    2.0350    4.8921    0.0000 C   0  0  0  0  0  0  0  0  0  0  0  0
    2.8598    4.8921    0.0000 O   0  0  0  0  0  0  0  0  0  0  0  0
    1.6332    4.1716    0.0000 O   0  0  0  0  0  0  0  0  0  0  0  0
    0.3853    4.8675    0.0000 C   0  0  0  0  0  0  0  0  0  0  0  0
    0.8084    4.1593    0.0000 O   0  0  0  0  0  0  0  0  0  0  0  0
   -0.4396    4.8675    0.0000 N   0  0  0  0  0  0  0  0  0  0  0  0
   -0.8414    4.1346    0.0000 C   0  0  1  0  0  0  0  0  0  0  0  0
   -1.6663    4.1346    0.0000 C   0  0  0  0  0  0  0  0  0  0  0  0
   -2.0893    4.8305    0.0000 C   0  0  0  0  0  0  0  0  0  0  0  0
   -2.9143    4.8305    0.0000 O   0  0  0  0  0  0  0  0  0  0  0  0
   -1.6876    5.5510    0.0000 O   0  0  0  0  0  0  0  0  0  0  0  0
   -0.4182    3.4264    0.0000 C   0  0  0  0  0  0  0  0  0  0  0  0
    0.4065    3.4264    0.0000 O   0  0  0  0  0  0  0  0  0  0  0  0
   -0.8200    2.7058    0.0000 N   0  0  0  0  0  0  0  0  0  0  0  0
   -0.3969    1.9977    0.0000 C   0  0  0  0  0  0  0  0  0  0  0  0
   -0.7987    1.2771    0.0000 C   0  0  0  0  0  0  0  0  0  0  0  0
   -1.6235    1.2771    0.0000 O   0  0  0  0  0  0  0  0  0  0  0  0
   -0.3755    0.5690    0.0000 N   0  0  0  0  0  0  0  0  0  0  0  0
   -0.7771   -0.1516    0.0000 C   0  0  1  0  0  0  0  0  0  0  0  0
   -0.3541   -0.8474    0.0000 C   0  0  0  0  0  0  0  0  0  0  0  0
    0.4707   -0.8474    0.0000 C   0  0  0  0  0  0  0  0  0  0  0  0
    0.8724   -0.1268    0.0000 O   0  0  0  0  0  0  0  0  0  0  0  0
   -1.6020   -0.1516    0.0000 C   0  0  0  0  0  0  0  0  0  0  0  0
   -2.0252    0.5443    0.0000 O   0  0  0  0  0  0  0  0  0  0  0  0
   -2.8287   -0.8844    0.0000 C   0  0  0  0  0  0  0  0  0  0  0  0
   -3.2304   -1.6173    0.0000 C   0  0  0  0  0  0  0  0  0  0  0  0
   -2.8073   -2.3254    0.0000 O   0  0  0  0  0  0  0  0  0  0  0  0
   -4.0554   -1.6173    0.0000 N   0  0  0  0  0  0  0  0  0  0  0  0
   -4.4573   -2.3501    0.0000 C   0  0  2  0  0  0  0  0  0  0  0  0
   -5.2821   -2.3501    0.0000 C   0  0  2  0  0  0  0  0  0  0  0  0
   -5.6839   -3.0830    0.0000 C   0  0  0  0  0  0  0  0  0  0  0  0
   -5.7053   -1.6542    0.0000 N   0  0  0  0  0  0  0  0  0  0  0  0
   -4.0341   -3.0584    0.0000 C   0  0  0  0  0  0  0  0  0  0  0  0
   -3.2092   -3.0584    0.0000 O   0  0  0  0  0  0  0  0  0  0  0  0
   -4.4358   -3.7788    0.0000 N   0  0  0  0  0  0  0  0  0  0  0  0
   -4.0127   -4.4870    0.0000 C   0  0  1  0  0  0  0  0  0  0  0  0
   -3.1877   -4.4870    0.0000 C   0  0  0  0  0  0  0  0  0  0  0  0
   -2.7861   -3.7542    0.0000 C   0  0  0  0  0  0  0  0  0  0  0  0
   -2.7647   -5.1828    0.0000 C   0  0  0  0  0  0  0  0  0  0  0  0
   -4.4144   -5.2076    0.0000 C   0  0  0  0  0  0  0  0  0  0  0  0
   -5.2392   -5.2076    0.0000 O   0  0  0  0  0  0  0  0  0  0  0  0
   -3.9913   -5.9159    0.0000 N   0  0  0  0  0  0  0  0  0  0  0  0
   -3.1697   -5.9898    0.0000 C   0  0  0  0  0  0  0  0  0  0  0  0
   -2.9860   -6.7941    0.0000 C   0  0  0  0  0  0  0  0  0  0  0  0
   -3.6942   -7.2172    0.0000 C   0  0  0  0  0  0  0  0  0  0  0  0
   -4.3156   -6.6743    0.0000 C   0  0  1  0  0  0  0  0  0  0  0  0
   -5.1197   -6.8580    0.0000 C   0  0  0  0  0  0  0  0  0  0  0  0
   -5.6809   -6.2533    0.0000 O   0  0  0  0  0  0  0  0  0  0  0  0
   -5.3630   -7.6463    0.0000 N   0  0  0  0  0  0  0  0  0  0  0  0
   -6.1673   -8.1812    0.0000 C   0  0  2  0  0  0  0  0  0  0  0  0
    0.1358    0.5690    0.0000 H   0  0  0  0  0  0  0  0  0  0  0  0
    2.0872    6.4113    0.0000 C   0  0  0  0  0  0  0  0  0  0  0  0
   -4.3156   -7.6250    0.0000 H   0  0  0  0  0  0  0  0  0  0  0  0
   -6.2938   -9.5156    0.0000 C   0  0  1  0  0  0  0  0  0  0  0  0
   -6.9905   -7.7059    0.0000 C   0  0  0  0  0  0  0  0  0  0  0  0
   -5.4705   -9.9909    0.0000 C   0  0  0  0  0  0  0  0  0  0  0  0
   -7.2807   -9.8915    0.0000 N   0  0  0  0  0  0  0  0  0  0  0  0
   -7.2807  -10.9725    0.0000 C   0  0  0  0  0  0  0  0  0  0  0  0
   -5.4705  -10.9417    0.0000 N   0  0  0  0  0  0  0  0  0  0  0  0
   -6.2938  -11.4170    0.0000 C   0  0  2  0  0  0  0  0  0  0  0  0
   -4.6472  -11.4170    0.0000 C   0  0  0  0  0  0  0  0  0  0  0  0
   -6.2938  -12.3677    0.0000 C   0  0  0  0  0  0  0  0  0  0  0  0
   -4.6472  -12.3677    0.0000 C   0  0  0  0  0  0  0  0  0  0  0  0
   -5.4705  -12.8429    0.0000 C   0  0  0  0  0  0  0  0  0  0  0  0
   -8.1040  -11.4478    0.0000 O   0  0  0  0  0  0  0  0  0  0  0  0
   -4.6472   -9.5156    0.0000 O   0  0  0  0  0  0  0  0  0  0  0  0
   -7.1171   -9.0403    0.0000 H   0  0  0  0  0  0  0  0  0  0  0  0
   -6.9662  -12.0892    0.0000 H   0  0  0  0  0  0  0  0  0  0  0  0
    0.3638    6.2964    0.0000 N   0  0  0  0  0  0  0  0  0  0  0  0
   -2.0038   -0.8844    0.0000 N   0  0  0  0  0  0  0  0  0  0  0  0
    0.8937   -1.5556    0.0000 O   0  0  0  0  0  0  0  0  0  0  0  0
    9.1737   12.8667    0.0000 H   0  0  0  0  0  0  0  0  0  0  0  0
    7.5485   13.7574    0.0000 H   0  0  0  0  0  0  0  0  0  0  0  0
    8.6183   13.7812    0.0000 H   0  0  0  0  0  0  0  0  0  0  0  0
    8.2476   11.1894    0.0000 H   0  0  0  0  0  0  0  0  0  0  0  0
    7.1725   11.1804    0.0000 H   0  0  0  0  0  0  0  0  0  0  0  0
    7.4056   13.0406    0.0000 H   0  0  0  0  0  0  0  0  0  0  0  0
    6.9755   13.7527    0.0000 H   0  0  0  0  0  0  0  0  0  0  0  0
    5.3845   12.8022    0.0000 H   0  0  0  0  0  0  0  0  0  0  0  0
    5.9056   13.7368    0.0000 H   0  0  0  0  0  0  0  0  0  0  0  0
    7.0175   10.4667    0.0000 H   0  0  0  0  0  0  0  0  0  0  0  0
    5.9440   10.4608    0.0000 H   0  0  0  0  0  0  0  0  0  0  0  0
    5.1055   12.3101    0.0000 H   0  0  0  0  0  0  0  0  0  0  0  0
    4.5808   11.3716    0.0000 H   0  0  0  0  0  0  0  0  0  0  0  0
    5.7942    9.7359    0.0000 H   0  0  0  0  0  0  0  0  0  0  0  0
    4.7191    9.7270    0.0000 H   0  0  0  0  0  0  0  0  0  0  0  0
    3.8790   11.5773    0.0000 H   0  0  0  0  0  0  0  0  0  0  0  0
    3.3543   10.6389    0.0000 H   0  0  0  0  0  0  0  0  0  0  0  0
    4.5675    9.0029    0.0000 H   0  0  0  0  0  0  0  0  0  0  0  0
    3.4924    8.9940    0.0000 H   0  0  0  0  0  0  0  0  0  0  0  0
    2.6717   10.8116    0.0000 H   0  0  0  0  0  0  0  0  0  0  0  0
    3.3215    8.3028    0.0000 H   0  0  0  0  0  0  0  0  0  0  0  0
    1.4257   10.1115    0.0000 H   0  0  0  0  0  0  0  0  0  0  0  0
    0.9010    9.1731    0.0000 H   0  0  0  0  0  0  0  0  0  0  0  0
    0.2426    9.3050    0.0000 H   0  0  0  0  0  0  0  0  0  0  0  0
   -0.2028    8.6457    0.0000 H   0  0  0  0  0  0  0  0  0  0  0  0
   -1.0067    6.7923    0.0000 H   0  0  0  0  0  0  0  0  0  0  0  0
    0.0580    6.8014    0.0000 H   0  0  0  0  0  0  0  0  0  0  0  0
   -2.1989    9.2324    0.0000 H   0  0  0  0  0  0  0  0  0  0  0  0
    1.3289    4.6655    0.0000 H   0  0  0  0  0  0  0  0  0  0  0  0
    2.6817    5.6002    0.0000 H   0  0  0  0  0  0  0  0  0  0  0  0
    3.3283    4.0806    0.0000 H   0  0  0  0  0  0  0  0  0  0  0  0
   -0.9412    5.7146    0.0000 H   0  0  0  0  0  0  0  0  0  0  0  0
   -1.3866    5.0553    0.0000 H   0  0  0  0  0  0  0  0  0  0  0  0
   -2.1908    3.2020    0.0000 H   0  0  0  0  0  0  0  0  0  0  0  0
   -2.7361    4.1165    0.0000 H   0  0  0  0  0  0  0  0  0  0  0  0
   -3.3828    5.6420    0.0000 H   0  0  0  0  0  0  0  0  0  0  0  0
   -1.8044    2.6911    0.0000 H   0  0  0  0  0  0  0  0  0  0  0  0
    0.6730    2.0137    0.0000 H   0  0  0  0  0  0  0  0  0  0  0  0
    0.1519    1.0792    0.0000 H   0  0  0  0  0  0  0  0  0  0  0  0
    0.2927   -0.1314    0.0000 H   0  0  0  0  0  0  0  0  0  0  0  0
   -0.8786   -1.7800    0.0000 H   0  0  0  0  0  0  0  0  0  0  0  0
    0.1861   -1.7710    0.0000 H   0  0  0  0  0  0  0  0  0  0  0  0
   -3.3740    0.0362    0.0000 H   0  0  0  0  0  0  0  0  0  0  0  0
   -2.2989    0.0452    0.0000 H   0  0  0  0  0  0  0  0  0  0  0  0
   -4.5570   -0.7702    0.0000 H   0  0  0  0  0  0  0  0  0  0  0  0
   -5.0024   -1.4294    0.0000 H   0  0  0  0  0  0  0  0  0  0  0  0
   -6.3518   -2.3741    0.0000 H   0  0  0  0  0  0  0  0  0  0  0  0
   -6.7536   -3.1067    0.0000 H   0  0  0  0  0  0  0  0  0  0  0  0
   -5.1285   -3.9976    0.0000 H   0  0  0  0  0  0  0  0  0  0  0  0
   -6.1983   -4.0213    0.0000 H   0  0  0  0  0  0  0  0  0  0  0  0
   -5.2156   -0.7595    0.0000 H   0  0  0  0  0  0  0  0  0  0  0  0
   -6.7250   -1.6774    0.0000 H   0  0  0  0  0  0  0  0  0  0  0  0
   -5.4202   -3.7935    0.0000 H   0  0  0  0  0  0  0  0  0  0  0  0
   -3.4846   -3.5564    0.0000 H   0  0  0  0  0  0  0  0  0  0  0  0
   -2.1180   -4.4630    0.0000 H   0  0  0  0  0  0  0  0  0  0  0  0
   -1.7164   -3.7304    0.0000 H   0  0  0  0  0  0  0  0  0  0  0  0
   -3.3416   -2.8397    0.0000 H   0  0  0  0  0  0  0  0  0  0  0  0
   -2.2719   -2.8159    0.0000 H   0  0  0  0  0  0  0  0  0  0  0  0
   -3.2786   -6.1213    0.0000 H   0  0  0  0  0  0  0  0  0  0  0  0
   -1.6950   -5.1586    0.0000 H   0  0  0  0  0  0  0  0  0  0  0  0
   -2.2089   -6.0971    0.0000 H   0  0  0  0  0  0  0  0  0  0  0  0
   -2.4658   -5.1839    0.0000 H   0  0  0  0  0  0  0  0  0  0  0  0
   -2.1321   -6.2511    0.0000 H   0  0  0  0  0  0  0  0  0  0  0  0
   -2.0021   -7.2146    0.0000 H   0  0  0  0  0  0  0  0  0  0  0  0
   -2.9140   -7.8617    0.0000 H   0  0  0  0  0  0  0  0  0  0  0  0
   -3.7901   -8.2829    0.0000 H   0  0  0  0  0  0  0  0  0  0  0  0
   -4.6873   -7.6155    0.0000 H   0  0  0  0  0  0  0  0  0  0  0  0
   -4.5743   -8.2355    0.0000 H   0  0  0  0  0  0  0  0  0  0  0  0
   -6.2011   -7.1117    0.0000 H   0  0  0  0  0  0  0  0  0  0  0  0
    3.1572    6.4112    0.0000 H   0  0  0  0  0  0  0  0  0  0  0  0
    1.5523    7.3380    0.0000 H   0  0  0  0  0  0  0  0  0  0  0  0
    2.6223    7.3379    0.0000 H   0  0  0  0  0  0  0  0  0  0  0  0
   -6.9905   -6.6359    0.0000 H   0  0  0  0  0  0  0  0  0  0  0  0
   -7.9172   -8.2409    0.0000 H   0  0  0  0  0  0  0  0  0  0  0  0
   -7.9171   -7.1709    0.0000 H   0  0  0  0  0  0  0  0  0  0  0  0
   -8.0913   -9.3328    0.0000 H   0  0  0  0  0  0  0  0  0  0  0  0
   -3.7206  -10.8820    0.0000 H   0  0  0  0  0  0  0  0  0  0  0  0
   -3.7205  -11.9520    0.0000 H   0  0  0  0  0  0  0  0  0  0  0  0
   -7.2204  -12.9028    0.0000 H   0  0  0  0  0  0  0  0  0  0  0  0
   -6.2937  -13.4377    0.0000 H   0  0  0  0  0  0  0  0  0  0  0  0
   -3.7206  -12.9028    0.0000 H   0  0  0  0  0  0  0  0  0  0  0  0
   -4.6473  -13.4377    0.0000 H   0  0  0  0  0  0  0  0  0  0  0  0
   -5.4705  -13.9129    0.0000 H   0  0  0  0  0  0  0  0  0  0  0  0
   -4.5439  -13.3780    0.0000 H   0  0  0  0  0  0  0  0  0  0  0  0
   -0.6206    6.2818    0.0000 H   0  0  0  0  0  0  0  0  0  0  0  0
   -1.5022   -1.7315    0.0000 H   0  0  0  0  0  0  0  0  0  0  0  0
    0.4373   -2.3739    0.0000 H   0  0  0  0  0  0  0  0  0  0  0  0
  1  2  1  0  0  0  0
  1 96  1  0  0  0  0
  1 97  1  0  0  0  0
  1 98  1  0  0  0  0
  2  3  1  0  0  0  0
  2 99  1  0  0  0  0
  2100  1  0  0  0  0
  3  4  1  0  0  0  0
  3  5  1  0  0  0  0
  3101  1  0  0  0  0
  4102  1  0  0  0  0
  4103  1  0  0  0  0
  4104  1  0  0  0  0
  5  6  1  0  0  0  0
  5105  1  0  0  0  0
  5106  1  0  0  0  0
  6  7  1  0  0  0  0
  6107  1  0  0  0  0
  6108  1  0  0  0  0
  7  8  1  0  0  0  0
  7109  1  0  0  0  0
  7110  1  0  0  0  0
  8  9  1  0  0  0  0
  8111  1  0  0  0  0
  8112  1  0  0  0  0
  9 10  1  0  0  0  0
  9113  1  0  0  0  0
  9114  1  0  0  0  0
 10 11  2  0  0  0  0
 10115  1  0  0  0  0
 11 12  1  0  0  0  0
 11116  1  0  0  0  0
 12 13  1  0  0  0  0
 12117  1  0  0  0  0
 12118  1  0  0  0  0
 13 14  2  0  0  0  0
 13 15  1  0  0  0  0
 15 16  1  0  0  0  0
 15119  1  0  0  0  0
 16 21  1  0  0  0  0
 16 17  1  0  0  0  0
 16120  1  1  0  0  0
 17 18  1  0  0  0  0
 17121  1  0  0  0  0
 17122  1  0  0  0  0
 18 19  1  0  0  0  0
 18 20  2  0  0  0  0
 19123  1  0  0  0  0
 21 22  2  0  0  0  0
 21 93  1  0  0  0  0
 23 24  1  0  0  0  0
 23 28  1  0  0  0  0
 23124  1  6  0  0  0
 24 25  1  0  0  0  0
 24 76  1  0  0  0  0
 24125  1  6  0  0  0
 25 26  1  0  0  0  0
 25 27  2  0  0  0  0
 26126  1  0  0  0  0
 28 29  2  0  0  0  0
 28 30  1  0  0  0  0
 30 31  1  0  0  0  0
 30127  1  0  0  0  0
 31 32  1  0  0  0  0
 31 36  1  0  0  0  0
 31128  1  1  0  0  0
 32 33  1  0  0  0  0
 32129  1  0  0  0  0
 32130  1  0  0  0  0
 33 34  1  0  0  0  0
 33 35  2  0  0  0  0
 34131  1  0  0  0  0
 36 37  2  0  0  0  0
 36 38  1  0  0  0  0
 38 39  1  0  0  0  0
 38132  1  0  0  0  0
 39 40  1  0  0  0  0
 39133  1  0  0  0  0
 39134  1  0  0  0  0
 40 41  2  0  0  0  0
 40 42  1  0  0  0  0
 42 43  1  0  0  0  0
 42 75  1  0  0  0  0
 43 44  1  0  0  0  0
 43 47  1  0  0  0  0
 43135  1  6  0  0  0
 44 45  1  0  0  0  0
 44136  1  0  0  0  0
 44137  1  0  0  0  0
 45 46  2  0  0  0  0
 45 95  1  0  0  0  0
 47 48  2  0  0  0  0
 47 94  1  0  0  0  0
 49 50  1  0  0  0  0
 49138  1  0  0  0  0
 49139  1  0  0  0  0
 50 51  2  0  0  0  0
 50 52  1  0  0  0  0
 52 53  1  0  0  0  0
 52140  1  0  0  0  0
 53 54  1  0  0  0  0
 53 57  1  0  0  0  0
 53141  1  6  0  0  0
 54 55  1  0  0  0  0
 54 56  1  0  0  0  0
 54142  1  1  0  0  0
 55143  1  0  0  0  0
 55144  1  0  0  0  0
 55145  1  0  0  0  0
 56146  1  0  0  0  0
 56147  1  0  0  0  0
 57 58  2  0  0  0  0
 57 59  1  0  0  0  0
 59 60  1  0  0  0  0
 59148  1  0  0  0  0
 60 61  1  0  0  0  0
 60 64  1  0  0  0  0
 60149  1  6  0  0  0
 61 62  1  0  0  0  0
 61 63  1  0  0  0  0
 61150  1  0  0  0  0
 62151  1  0  0  0  0
 62152  1  0  0  0  0
 62153  1  0  0  0  0
 63154  1  0  0  0  0
 63155  1  0  0  0  0
 63156  1  0  0  0  0
 64 65  2  0  0  0  0
 64 66  1  0  0  0  0
 66 67  1  0  0  0  0
 66 70  1  0  0  0  0
 67 68  1  0  0  0  0
 67157  1  0  0  0  0
 67158  1  0  0  0  0
 68 69  1  0  0  0  0
 68159  1  0  0  0  0
 68160  1  0  0  0  0
 69 70  1  0  0  0  0
 69161  1  0  0  0  0
 69162  1  0  0  0  0
 70 71  1  0  0  0  0
 70 77  1  6  0  0  0
 71 72  2  0  0  0  0
 71 73  1  0  0  0  0
 73 74  1  0  0  0  0
 73163  1  0  0  0  0
 74 78  1  0  0  0  0
 74 79  1  0  0  0  0
 74164  1  1  0  0  0
 76165  1  0  0  0  0
 76166  1  0  0  0  0
 76167  1  0  0  0  0
 78 80  1  0  0  0  0
 78 81  1  0  0  0  0
 78 91  1  6  0  0  0
 79168  1  0  0  0  0
 79169  1  0  0  0  0
 79170  1  0  0  0  0
 80 83  1  0  0  0  0
 80 90  2  0  0  0  0
 81 82  1  0  0  0  0
 81171  1  0  0  0  0
 82 84  1  0  0  0  0
 82 89  2  0  0  0  0
 83 84  1  0  0  0  0
 83 85  1  0  0  0  0
 84 86  1  0  0  0  0
 84 92  1  1  0  0  0
 85 87  1  0  0  0  0
 85172  1  0  0  0  0
 85173  1  0  0  0  0
 86 88  1  0  0  0  0
 86174  1  0  0  0  0
 86175  1  0  0  0  0
 87176  1  0  0  0  0
 87177  1  0  0  0  0
 88 87  1  0  0  0  0
 88178  1  0  0  0  0
 88179  1  0  0  0  0
 93 23  1  0  0  0  0
 93180  1  0  0  0  0
 94 49  1  0  0  0  0
 94181  1  0  0  0  0
 95182  1  0  0  0  0
M  END
>  <DRUGBANK_ID>
DB11499

>  <COMMON_NAME>
Amphomycin

>  <CAS_NUMBER>
1402-82-0

>  <UNII>
4P63B997RT

>  <SYNONYMS>
Amfomycine; Amfomycinum; Amphomycin; Anfomicina

$$$$
