
 OpenBabel10282417072D

 49 48  0  0  0  0  0  0  0  0999 V2000
    7.9480    5.4138    0.0000 C   0  0  0  0  0  0  0  0  0  0  0  0
    8.6625    5.0013    0.0000 C   0  0  0  0  0  0  0  0  0  0  0  0
    9.3770    5.4138    0.0000 N   0  0  0  0  0  0  0  0  0  0  0  0
   10.0914    5.0013    0.0000 C   0  0  0  0  0  0  0  0  0  0  0  0
   10.8059    5.4138    0.0000 C   0  0  0  0  0  0  0  0  0  0  0  0
   11.5204    5.0013    0.0000 C   0  0  0  0  0  0  0  0  0  0  0  0
   12.2349    5.4138    0.0000 N   0  0  0  0  0  0  0  0  0  0  0  0
   12.9493    5.0013    0.0000 C   0  0  0  0  0  0  0  0  0  0  0  0
   13.6638    5.4138    0.0000 C   0  0  0  0  0  0  0  0  0  0  0  0
   14.3783    5.0013    0.0000 C   0  0  0  0  0  0  0  0  0  0  0  0
   15.0927    5.4138    0.0000 N   0  0  0  0  0  0  0  0  0  0  0  0
   15.8072    5.0013    0.0000 C   0  0  0  0  0  0  0  0  0  0  0  0
   16.5217    5.4138    0.0000 C   0  0  0  0  0  0  0  0  0  0  0  0
   17.2362    5.0013    0.0000 C   0  0  0  0  0  0  0  0  0  0  0  0
   17.9506    5.4138    0.0000 N   0  0  0  0  0  0  0  0  0  0  0  0
   18.6651    5.0013    0.0000 C   0  0  0  0  0  0  0  0  0  0  0  0
   19.3796    5.4138    0.0000 C   0  0  0  0  0  0  0  0  0  0  0  0
    7.9480    6.4838    0.0000 H   0  0  0  0  0  0  0  0  0  0  0  0
    7.0214    4.8788    0.0000 H   0  0  0  0  0  0  0  0  0  0  0  0
    7.0213    5.9488    0.0000 H   0  0  0  0  0  0  0  0  0  0  0  0
    8.6625    3.9313    0.0000 H   0  0  0  0  0  0  0  0  0  0  0  0
    9.5891    4.4663    0.0000 H   0  0  0  0  0  0  0  0  0  0  0  0
    9.3770    6.4338    0.0000 H   0  0  0  0  0  0  0  0  0  0  0  0
   10.0914    3.9313    0.0000 H   0  0  0  0  0  0  0  0  0  0  0  0
   11.0180    4.4663    0.0000 H   0  0  0  0  0  0  0  0  0  0  0  0
   10.8059    6.4838    0.0000 H   0  0  0  0  0  0  0  0  0  0  0  0
   11.7325    5.9488    0.0000 H   0  0  0  0  0  0  0  0  0  0  0  0
   11.5204    3.9313    0.0000 H   0  0  0  0  0  0  0  0  0  0  0  0
   12.4470    4.4663    0.0000 H   0  0  0  0  0  0  0  0  0  0  0  0
   12.2349    6.4338    0.0000 H   0  0  0  0  0  0  0  0  0  0  0  0
   12.9493    3.9313    0.0000 H   0  0  0  0  0  0  0  0  0  0  0  0
   13.8759    4.4663    0.0000 H   0  0  0  0  0  0  0  0  0  0  0  0
   13.6638    6.4838    0.0000 H   0  0  0  0  0  0  0  0  0  0  0  0
   14.5904    5.9488    0.0000 H   0  0  0  0  0  0  0  0  0  0  0  0
   14.3783    3.9313    0.0000 H   0  0  0  0  0  0  0  0  0  0  0  0
   15.3050    4.4663    0.0000 H   0  0  0  0  0  0  0  0  0  0  0  0
   15.0927    6.4338    0.0000 H   0  0  0  0  0  0  0  0  0  0  0  0
   15.8072    3.9313    0.0000 H   0  0  0  0  0  0  0  0  0  0  0  0
   16.7338    4.4663    0.0000 H   0  0  0  0  0  0  0  0  0  0  0  0
   16.5217    6.4838    0.0000 H   0  0  0  0  0  0  0  0  0  0  0  0
   17.4483    5.9488    0.0000 H   0  0  0  0  0  0  0  0  0  0  0  0
   17.2362    3.9313    0.0000 H   0  0  0  0  0  0  0  0  0  0  0  0
   18.1629    4.4663    0.0000 H   0  0  0  0  0  0  0  0  0  0  0  0
   17.9506    6.4338    0.0000 H   0  0  0  0  0  0  0  0  0  0  0  0
   18.6651    3.9313    0.0000 H   0  0  0  0  0  0  0  0  0  0  0  0
   19.5917    4.4663    0.0000 H   0  0  0  0  0  0  0  0  0  0  0  0
   20.3062    4.8788    0.0000 H   0  0  0  0  0  0  0  0  0  0  0  0
   19.3796    6.4838    0.0000 H   0  0  0  0  0  0  0  0  0  0  0  0
   20.3063    5.9488    0.0000 H   0  0  0  0  0  0  0  0  0  0  0  0
  1  2  1  0  0  0  0
  1 18  1  0  0  0  0
  1 19  1  0  0  0  0
  1 20  1  0  0  0  0
  2  3  1  0  0  0  0
  2 21  1  0  0  0  0
  2 22  1  0  0  0  0
  3  4  1  0  0  0  0
  3 23  1  0  0  0  0
  4  5  1  0  0  0  0
  4 24  1  0  0  0  0
  4 25  1  0  0  0  0
  5  6  1  0  0  0  0
  5 26  1  0  0  0  0
  5 27  1  0  0  0  0
  6  7  1  0  0  0  0
  6 28  1  0  0  0  0
  6 29  1  0  0  0  0
  7  8  1  0  0  0  0
  7 30  1  0  0  0  0
  8  9  1  0  0  0  0
  8 31  1  0  0  0  0
  8 32  1  0  0  0  0
  9 10  1  0  0  0  0
  9 33  1  0  0  0  0
  9 34  1  0  0  0  0
 10 11  1  0  0  0  0
 10 35  1  0  0  0  0
 10 36  1  0  0  0  0
 11 12  1  0  0  0  0
 11 37  1  0  0  0  0
 12 13  1  0  0  0  0
 12 38  1  0  0  0  0
 12 39  1  0  0  0  0
 13 14  1  0  0  0  0
 13 40  1  0  0  0  0
 13 41  1  0  0  0  0
 14 15  1  0  0  0  0
 14 42  1  0  0  0  0
 14 43  1  0  0  0  0
 15 16  1  0  0  0  0
 15 44  1  0  0  0  0
 16 17  1  0  0  0  0
 16 45  1  0  0  0  0
 16 46  1  0  0  0  0
 17 47  1  0  0  0  0
 17 48  1  0  0  0  0
 17 49  1  0  0  0  0
M  END
>  <DRUGBANK_ID>
DB06445

>  <COMMON_NAME>
Diethylnorspermine

>  <CAS_NUMBER>
121749-39-1

>  <UNII>
HLI827Z1ST

>  <SYNONYMS>
1,3-PROPANEDIAMINE, N,N'-BIS(3-(ETHYLAMINO)PROPYL)-; DENSPM; N(1),N(11)-Diethylnorspermine; N1,N11-Diethylnorspermine

$$$$
