
 OpenBabel10282417072D

 62 63  0  0  0  0  0  0  0  0999 V2000
    0.3469    1.7735    0.0000 C   0  0  0  0  0  0  0  0  0  0  0  0
   -1.0474    0.9612    0.0000 C   0  0  0  0  0  0  0  0  0  0  0  0
    0.3469    2.5960    0.0000 C   0  0  0  0  0  0  0  0  0  0  0  0
    1.0510    1.3673    0.0000 C   0  0  0  0  0  0  0  0  0  0  0  0
   -1.0474   -0.5313    0.0000 C   0  0  0  0  0  0  0  0  0  0  0  0
    1.0510    3.0224    0.0000 C   0  0  0  0  0  0  0  0  0  0  0  0
   -0.3773    3.0462    0.0000 O   0  0  0  0  0  0  0  0  0  0  0  0
    1.7617    1.7735    0.0000 C   0  0  0  0  0  0  0  0  0  0  0  0
    1.0510    0.5313    0.0000 O   0  0  0  0  0  0  0  0  0  0  0  0
   -1.7616   -0.9544    0.0000 C   0  0  0  0  0  0  0  0  0  0  0  0
   -0.3401   -0.9544    0.0000 C   0  0  0  0  0  0  0  0  0  0  0  0
    1.7617    2.5960    0.0000 C   0  0  0  0  0  0  0  0  0  0  0  0
   -1.1456    2.6298    0.0000 C   0  0  0  0  0  0  0  0  0  0  0  0
    2.5199    1.3673    0.0000 C   0  0  0  0  0  0  0  0  0  0  0  0
   -1.7616   -1.7870    0.0000 C   0  0  0  0  0  0  0  0  0  0  0  0
   -2.5198   -0.5313    0.0000 O   0  0  0  0  0  0  0  0  0  0  0  0
   -0.3401   -1.7870    0.0000 C   0  0  0  0  0  0  0  0  0  0  0  0
    0.3774   -0.5313    0.0000 O   0  0  0  0  0  0  0  0  0  0  0  0
    2.5199    3.0462    0.0000 O   0  0  0  0  0  0  0  0  0  0  0  0
    3.2442    1.7735    0.0000 C   0  0  0  0  0  0  0  0  0  0  0  0
    2.5199    0.5077    0.0000 O   0  0  0  0  0  0  0  0  0  0  0  0
   -1.0474   -2.1999    0.0000 C   0  0  0  0  0  0  0  0  0  0  0  0
   -2.5468   -2.1999    0.0000 C   0  0  0  0  0  0  0  0  0  0  0  0
    0.0051   -2.4741    0.0000 C   0  0  0  0  0  0  0  0  0  0  0  0
    0.4856   -1.7736    0.0000 C   0  0  0  0  0  0  0  0  0  0  0  0
    3.9414    1.3673    0.0000 C   0  0  0  0  0  0  0  0  0  0  0  0
   -1.0474   -3.0462    0.0000 O   0  0  0  0  0  0  0  0  0  0  0  0
   -3.2543   -1.7870    0.0000 C   0  0  0  0  0  0  0  0  0  0  0  0
   -2.5468   -3.0462    0.0000 O   0  0  0  0  0  0  0  0  0  0  0  0
    4.6657    1.7599    0.0000 C   0  0  0  0  0  0  0  0  0  0  0  0
   -3.9718   -2.1797    0.0000 C   0  0  0  0  0  0  0  0  0  0  0  0
   -4.6657   -1.7397    0.0000 C   0  0  0  0  0  0  0  0  0  0  0  0
   -1.9751    1.4944    0.0000 H   0  0  0  0  0  0  0  0  0  0  0  0
   -1.9735    0.4253    0.0000 H   0  0  0  0  0  0  0  0  0  0  0  0
    1.0489    4.0544    0.0000 H   0  0  0  0  0  0  0  0  0  0  0  0
    0.2395    0.0628    0.0000 H   0  0  0  0  0  0  0  0  0  0  0  0
   -2.0575    3.1896    0.0000 H   0  0  0  0  0  0  0  0  0  0  0  0
   -1.1744    1.5602    0.0000 H   0  0  0  0  0  0  0  0  0  0  0  0
   -2.0863    2.1200    0.0000 H   0  0  0  0  0  0  0  0  0  0  0  0
    1.1931   -0.9923    0.0000 H   0  0  0  0  0  0  0  0  0  0  0  0
    3.3370    2.5877    0.0000 H   0  0  0  0  0  0  0  0  0  0  0  0
    3.2530    2.8435    0.0000 H   0  0  0  0  0  0  0  0  0  0  0  0
    4.1741    2.3029    0.0000 H   0  0  0  0  0  0  0  0  0  0  0  0
   -0.5827   -3.3682    0.0000 H   0  0  0  0  0  0  0  0  0  0  0  0
    1.0733   -2.5362    0.0000 H   0  0  0  0  0  0  0  0  0  0  0  0
    0.4855   -3.4302    0.0000 H   0  0  0  0  0  0  0  0  0  0  0  0
    1.0356   -2.6914    0.0000 H   0  0  0  0  0  0  0  0  0  0  0  0
    1.0055   -0.8384    0.0000 H   0  0  0  0  0  0  0  0  0  0  0  0
    1.5555   -1.7562    0.0000 H   0  0  0  0  0  0  0  0  0  0  0  0
    3.9249    0.2974    0.0000 H   0  0  0  0  0  0  0  0  0  0  0  0
    4.8565    0.8128    0.0000 H   0  0  0  0  0  0  0  0  0  0  0  0
   -1.8589   -3.5147    0.0000 H   0  0  0  0  0  0  0  0  0  0  0  0
   -3.2396   -0.7171    0.0000 H   0  0  0  0  0  0  0  0  0  0  0  0
   -4.1710   -1.2351    0.0000 H   0  0  0  0  0  0  0  0  0  0  0  0
    5.5776    1.2002    0.0000 H   0  0  0  0  0  0  0  0  0  0  0  0
    4.6945    2.8295    0.0000 H   0  0  0  0  0  0  0  0  0  0  0  0
    5.6064    2.2698    0.0000 H   0  0  0  0  0  0  0  0  0  0  0  0
   -4.0062   -3.2491    0.0000 H   0  0  0  0  0  0  0  0  0  0  0  0
   -4.9175   -2.6802    0.0000 H   0  0  0  0  0  0  0  0  0  0  0  0
   -4.6213   -0.6706    0.0000 H   0  0  0  0  0  0  0  0  0  0  0  0
   -5.6138   -2.2358    0.0000 H   0  0  0  0  0  0  0  0  0  0  0  0
   -5.5693   -1.1667    0.0000 H   0  0  0  0  0  0  0  0  0  0  0  0
  1  2  1  0  0  0  0
  1  3  1  0  0  0  0
  1  4  2  0  0  0  0
  2  5  1  0  0  0  0
  2 33  1  0  0  0  0
  2 34  1  0  0  0  0
  3  6  2  0  0  0  0
  3  7  1  0  0  0  0
  4  8  1  0  0  0  0
  4  9  1  0  0  0  0
  5 10  1  0  0  0  0
  5 11  2  0  0  0  0
  6 12  1  0  0  0  0
  6 35  1  0  0  0  0
  7 13  1  0  0  0  0
  8 14  1  0  0  0  0
  8 12  2  0  0  0  0
  9 36  1  0  0  0  0
 10 15  1  0  0  0  0
 10 16  2  0  0  0  0
 11 17  1  0  0  0  0
 11 18  1  0  0  0  0
 12 19  1  0  0  0  0
 13 37  1  0  0  0  0
 13 38  1  0  0  0  0
 13 39  1  0  0  0  0
 14 20  1  0  0  0  0
 14 21  2  0  0  0  0
 15 22  2  0  0  0  0
 15 23  1  0  0  0  0
 17 24  1  0  0  0  0
 17 25  1  0  0  0  0
 17 22  1  0  0  0  0
 18 40  1  0  0  0  0
 19 41  1  0  0  0  0
 20 26  1  0  0  0  0
 20 42  1  0  0  0  0
 20 43  1  0  0  0  0
 22 27  1  0  0  0  0
 23 28  1  0  0  0  0
 23 29  2  0  0  0  0
 24 44  1  0  0  0  0
 24 45  1  0  0  0  0
 24 46  1  0  0  0  0
 25 47  1  0  0  0  0
 25 48  1  0  0  0  0
 25 49  1  0  0  0  0
 26 30  1  0  0  0  0
 26 50  1  0  0  0  0
 26 51  1  0  0  0  0
 27 52  1  0  0  0  0
 28 31  1  0  0  0  0
 28 53  1  0  0  0  0
 28 54  1  0  0  0  0
 30 55  1  0  0  0  0
 30 56  1  0  0  0  0
 30 57  1  0  0  0  0
 31 32  1  0  0  0  0
 31 58  1  0  0  0  0
 31 59  1  0  0  0  0
 32 60  1  0  0  0  0
 32 61  1  0  0  0  0
 32 62  1  0  0  0  0
M  END
>  <DRUGBANK_ID>
DB13567

>  <COMMON_NAME>
Desaspidin

>  <CAS_NUMBER>
114-43-2

>  <UNII>
KV3495SGKS

>  <SYNONYMS>
Desaspidin; Desaspidina; Desaspidine; Desaspidinum; Rosapin

$$$$
