
 OpenBabel10282417072D

 39 40  0  0  0  0  0  0  0  0999 V2000
    1.4289    2.4750    0.0000 C   0  0  0  0  0  0  0  0  0  0  0  0
    2.1434    2.0625    0.0000 C   0  0  0  0  0  0  0  0  0  0  0  0
    6.4302    1.2375    0.0000 C   0  0  0  0  0  0  0  0  0  0  0  0
    6.4302    2.0625    0.0000 C   0  0  0  0  0  0  0  0  0  0  0  0
    5.7158    0.8250    0.0000 C   0  0  0  0  0  0  0  0  0  0  0  0
    3.1599   -0.0320    0.0000 C   0  0  0  0  0  0  0  0  0  0  0  0
    3.9849   -0.0320    0.0000 C   0  0  0  0  0  0  0  0  0  0  0  0
    2.8579    2.4750    0.0000 C   0  0  0  0  0  0  0  0  0  0  0  0
    5.7158    2.4750    0.0000 C   0  0  0  0  0  0  0  0  0  0  0  0
    5.0013    1.2375    0.0000 C   0  0  0  0  0  0  0  0  0  0  0  0
    2.9049    0.7526    0.0000 C   0  0  0  0  0  0  0  0  0  0  0  0
    4.2398    0.7526    0.0000 C   0  0  0  0  0  0  0  0  0  0  0  0
    4.2868    2.4750    0.0000 C   0  0  0  0  0  0  0  0  0  0  0  0
    5.0013    2.0625    0.0000 C   0  0  0  0  0  0  0  0  0  0  0  0
    3.5724    2.0625    0.0000 C   0  0  3  0  0  0  0  0  0  0  0  0
    3.5724    1.2375    0.0000 N   0  0  0  0  0  0  0  0  0  0  0  0
    1.4289    3.5450    0.0000 H   0  0  0  0  0  0  0  0  0  0  0  0
    0.5023    1.9400    0.0000 H   0  0  0  0  0  0  0  0  0  0  0  0
    0.5022    3.0100    0.0000 H   0  0  0  0  0  0  0  0  0  0  0  0
    2.1434    0.9925    0.0000 H   0  0  0  0  0  0  0  0  0  0  0  0
    3.0700    1.5275    0.0000 H   0  0  0  0  0  0  0  0  0  0  0  0
    7.3239    0.7215    0.0000 H   0  0  0  0  0  0  0  0  0  0  0  0
    7.3239    2.5785    0.0000 H   0  0  0  0  0  0  0  0  0  0  0  0
    5.7158   -0.2070    0.0000 H   0  0  0  0  0  0  0  0  0  0  0  0
    2.5310   -0.8977    0.0000 H   0  0  0  0  0  0  0  0  0  0  0  0
    2.1031    0.1353    0.0000 H   0  0  0  0  0  0  0  0  0  0  0  0
    4.6138   -0.8976    0.0000 H   0  0  0  0  0  0  0  0  0  0  0  0
    5.0417    0.1354    0.0000 H   0  0  0  0  0  0  0  0  0  0  0  0
    2.8579    3.5450    0.0000 H   0  0  0  0  0  0  0  0  0  0  0  0
    3.7845    3.0100    0.0000 H   0  0  0  0  0  0  0  0  0  0  0  0
    5.7158    3.5070    0.0000 H   0  0  0  0  0  0  0  0  0  0  0  0
    4.1076    0.7215    0.0000 H   0  0  0  0  0  0  0  0  0  0  0  0
    1.8873    1.0832    0.0000 H   0  0  0  0  0  0  0  0  0  0  0  0
    2.7375    1.8094    0.0000 H   0  0  0  0  0  0  0  0  0  0  0  0
    5.2574    1.0833    0.0000 H   0  0  0  0  0  0  0  0  0  0  0  0
    4.4072    1.8094    0.0000 H   0  0  0  0  0  0  0  0  0  0  0  0
    4.2868    3.5450    0.0000 H   0  0  0  0  0  0  0  0  0  0  0  0
    3.3601    3.0100    0.0000 H   0  0  0  0  0  0  0  0  0  0  0  0
    3.5724    3.1325    0.0000 H   0  0  0  0  0  0  0  0  0  0  0  0
  1 17  1  0  0  0  0
  1 18  1  0  0  0  0
  1 19  1  0  0  0  0
  2  1  1  0  0  0  0
  2 20  1  0  0  0  0
  2 21  1  0  0  0  0
  3 22  1  0  0  0  0
  4  3  2  0  0  0  0
  4 23  1  0  0  0  0
  5  3  1  0  0  0  0
  5 24  1  0  0  0  0
  6 25  1  0  0  0  0
  6 26  1  0  0  0  0
  7  6  1  0  0  0  0
  7 27  1  0  0  0  0
  7 28  1  0  0  0  0
  8  2  1  0  0  0  0
  8 29  1  0  0  0  0
  8 30  1  0  0  0  0
  9  4  1  0  0  0  0
  9 31  1  0  0  0  0
 10  5  2  0  0  0  0
 10 32  1  0  0  0  0
 11  6  1  0  0  0  0
 11 33  1  0  0  0  0
 11 34  1  0  0  0  0
 12  7  1  0  0  0  0
 12 35  1  0  0  0  0
 12 36  1  0  0  0  0
 13 37  1  0  0  0  0
 13 38  1  0  0  0  0
 14  9  2  0  0  0  0
 14 10  1  0  0  0  0
 14 13  1  0  0  0  0
 15  8  1  0  0  0  0
 15 13  1  0  0  0  0
 15 39  1  0  0  0  0
 16 11  1  0  0  0  0
 16 12  1  0  0  0  0
 16 15  1  0  0  0  0
M  END
>  <DRUGBANK_ID>
DB13438

>  <COMMON_NAME>
Prolintane

>  <CAS_NUMBER>
493-92-5

>  <UNII>
EM4YZW677H

>  <SYNONYMS>
Prolintane

$$$$
