
 OpenBabel10282417072D

 45 48  0  0  0  0  0  0  0  0999 V2000
    2.2897    0.5936    0.0000 C   0  0  0  0  0  0  0  0  0  0  0  0
    1.7636    1.2291    0.0000 C   0  0  0  0  0  0  0  0  0  0  0  0
    0.9502    1.0912    0.0000 C   0  0  0  0  0  0  0  0  0  0  0  0
    0.4241    1.7267    0.0000 N   0  0  0  0  0  0  0  0  0  0  0  0
    0.7114    2.5001    0.0000 C   0  0  0  0  0  0  0  0  0  0  0  0
    0.1853    3.1356    0.0000 O   0  0  0  0  0  0  0  0  0  0  0  0
    1.5248    2.6379    0.0000 C   0  0  0  0  0  0  0  0  0  0  0  0
    1.8121    3.4113    0.0000 N   0  0  0  0  0  0  0  0  0  0  0  0
    2.6255    3.5491    0.0000 C   0  0  0  0  0  0  0  0  0  0  0  0
    2.9129    4.3225    0.0000 C   0  0  0  0  0  0  0  0  0  0  0  0
    3.7263    4.4603    0.0000 C   0  0  0  0  0  0  0  0  0  0  0  0
    4.0136    5.2337    0.0000 N   0  0  0  0  0  0  0  0  0  0  0  0
    4.2523    3.8248    0.0000 N   0  0  0  0  0  0  0  0  0  0  0  0
    3.9650    3.0515    0.0000 C   0  0  0  0  0  0  0  0  0  0  0  0
    3.1516    2.9136    0.0000 N   0  0  0  0  0  0  0  0  0  0  0  0
    2.0509    2.0024    0.0000 C   0  0  0  0  0  0  0  0  0  0  0  0
   -0.3428    1.4227    0.0000 C   0  0  0  0  0  0  0  0  0  0  0  0
   -1.0738    1.0403    0.0000 C   0  0  0  0  0  0  0  0  0  0  0  0
   -1.7705    1.4821    0.0000 C   0  0  0  0  0  0  0  0  0  0  0  0
   -1.7363    2.3064    0.0000 C   0  0  0  0  0  0  0  0  0  0  0  0
   -1.0053    2.6888    0.0000 C   0  0  0  0  0  0  0  0  0  0  0  0
   -0.3086    2.2470    0.0000 C   0  0  0  0  0  0  0  0  0  0  0  0
   -0.2908    0.5994    0.0000 N   0  0  0  0  0  0  0  0  0  0  0  0
    0.5084    0.3945    0.0000 C   0  0  0  0  0  0  0  0  0  0  0  0
    0.8124   -0.3725    0.0000 O   0  0  0  0  0  0  0  0  0  0  0  0
    1.9171   -0.4094    0.0000 H   0  0  0  0  0  0  0  0  0  0  0  0
    3.3447    0.7724    0.0000 H   0  0  0  0  0  0  0  0  0  0  0  0
    2.9720   -0.2306    0.0000 H   0  0  0  0  0  0  0  0  0  0  0  0
    1.1843    4.1697    0.0000 H   0  0  0  0  0  0  0  0  0  0  0  0
    2.2549    5.1175    0.0000 H   0  0  0  0  0  0  0  0  0  0  0  0
    4.9843    5.3982    0.0000 H   0  0  0  0  0  0  0  0  0  0  0  0
    3.3858    5.9920    0.0000 H   0  0  0  0  0  0  0  0  0  0  0  0
    4.6231    2.2566    0.0000 H   0  0  0  0  0  0  0  0  0  0  0  0
    3.0684    2.1748    0.0000 H   0  0  0  0  0  0  0  0  0  0  0  0
   -1.1183   -0.0288    0.0000 H   0  0  0  0  0  0  0  0  0  0  0  0
   -2.0219    0.5443    0.0000 H   0  0  0  0  0  0  0  0  0  0  0  0
   -2.7185    0.9860    0.0000 H   0  0  0  0  0  0  0  0  0  0  0  0
   -2.6742    2.0551    0.0000 H   0  0  0  0  0  0  0  0  0  0  0  0
   -2.6399    2.8794    0.0000 H   0  0  0  0  0  0  0  0  0  0  0  0
   -1.6918    3.3755    0.0000 H   0  0  0  0  0  0  0  0  0  0  0  0
   -0.9608    3.7579    0.0000 H   0  0  0  0  0  0  0  0  0  0  0  0
   -0.0572    3.1848    0.0000 H   0  0  0  0  0  0  0  0  0  0  0  0
    0.6394    2.7431    0.0000 H   0  0  0  0  0  0  0  0  0  0  0  0
    0.5951    1.6740    0.0000 H   0  0  0  0  0  0  0  0  0  0  0  0
   -1.0492   -0.0284    0.0000 H   0  0  0  0  0  0  0  0  0  0  0  0
  1  2  1  0  0  0  0
  1 26  1  0  0  0  0
  1 27  1  0  0  0  0
  1 28  1  0  0  0  0
  2  3  2  0  0  0  0
  2 16  1  0  0  0  0
  3  4  1  0  0  0  0
  3 24  1  0  0  0  0
  4  5  1  0  0  0  0
  4 17  1  0  0  0  0
  5  6  2  0  0  0  0
  5  7  1  0  0  0  0
  7  8  1  0  0  0  0
  7 16  2  0  0  0  0
  8  9  1  0  0  0  0
  8 29  1  0  0  0  0
  9 10  2  0  0  0  0
  9 15  1  0  0  0  0
 10 11  1  0  0  0  0
 10 30  1  0  0  0  0
 11 12  1  0  0  0  0
 11 13  2  0  0  0  0
 12 31  1  0  0  0  0
 12 32  1  0  0  0  0
 13 14  1  0  0  0  0
 14 15  2  0  0  0  0
 14 33  1  0  0  0  0
 16 34  1  0  0  0  0
 17 18  1  0  0  0  0
 17 22  1  0  0  0  0
 17 23  1  0  0  0  0
 18 19  1  0  0  0  0
 18 35  1  0  0  0  0
 18 36  1  0  0  0  0
 19 20  1  0  0  0  0
 19 37  1  0  0  0  0
 19 38  1  0  0  0  0
 20 21  1  0  0  0  0
 20 39  1  0  0  0  0
 20 40  1  0  0  0  0
 21 22  1  0  0  0  0
 21 41  1  0  0  0  0
 21 42  1  0  0  0  0
 22 43  1  0  0  0  0
 22 44  1  0  0  0  0
 23 24  1  0  0  0  0
 23 45  1  0  0  0  0
 24 25  2  0  0  0  0
M  END
>  <DRUGBANK_ID>
DB15219

>  <COMMON_NAME>
Tomivosertib

>  <CAS_NUMBER>
1849590-01-7

>  <UNII>
U2H19X4WBV

>  <SYNONYMS>
6'-((6-Amino-4-pyrimidinyl)amino)-8'-methyl-2'H-spiro(cyclohexane-1,3'-imidazo(1,5-a)pyridine)-1',5'-dione; Tomivosertib

$$$$
