842
 OpenBabel10282417072D

 31 33  0  0  1  0  0  0  0  0999 V2000
    2.5467   -2.3783    0.0000 Cl  0  0  0  0  0  0  0  0  0  0  0  0
    3.8811    2.3401    0.0000 O   0  0  0  0  0  0  0  0  0  0  0  0
    2.3403    2.3401    0.0000 O   0  0  0  0  0  0  0  0  0  0  0  0
    2.1838    0.9518    0.0000 N   0  0  0  0  0  0  0  0  0  0  0  0
    4.0375    0.9518    0.0000 N   0  0  0  0  0  0  0  0  0  0  0  0
    3.1106   -0.2105    0.0000 C   0  0  0  0  0  0  0  0  0  0  0  0
    3.8540    0.1475    0.0000 C   0  0  0  0  0  0  0  0  0  0  0  0
    2.3674    0.1475    0.0000 C   0  0  0  0  0  0  0  0  0  0  0  0
    4.4989   -0.3669    0.0000 C   0  0  0  0  0  0  0  0  0  0  0  0
    3.5231    1.5968    0.0000 C   0  0  3  0  0  0  0  0  0  0  0  0
    3.1881   -1.0663    0.0000 C   0  0  0  0  0  0  0  0  0  0  0  0
    1.6500   -0.3256    0.0000 C   0  0  0  0  0  0  0  0  0  0  0  0
    2.6981    1.5968    0.0000 C   0  0  0  0  0  0  0  0  0  0  0  0
    2.4818   -1.5559    0.0000 C   0  0  0  0  0  0  0  0  0  0  0  0
    1.7076   -1.1830    0.0000 C   0  0  0  0  0  0  0  0  0  0  0  0
    5.2669   -0.0655    0.0000 C   0  0  0  0  0  0  0  0  0  0  0  0
    4.3760   -1.1827    0.0000 C   0  0  0  0  0  0  0  0  0  0  0  0
    5.9120   -0.5799    0.0000 C   0  0  0  0  0  0  0  0  0  0  0  0
    5.0210   -1.6971    0.0000 C   0  0  0  0  0  0  0  0  0  0  0  0
    5.7890   -1.3956    0.0000 C   0  0  0  0  0  0  0  0  0  0  0  0
    4.8484    2.4125    0.0000 H   0  0  0  0  0  0  0  0  0  0  0  0
    1.2240    1.1708    0.0000 H   0  0  0  0  0  0  0  0  0  0  0  0
    4.5864    1.7166    0.0000 H   0  0  0  0  0  0  0  0  0  0  0  0
    4.1230   -1.5032    0.0000 H   0  0  0  0  0  0  0  0  0  0  0  0
    0.7254    0.1329    0.0000 H   0  0  0  0  0  0  0  0  0  0  0  0
    0.8527   -1.7610    0.0000 H   0  0  0  0  0  0  0  0  0  0  0  0
    5.4207    0.9550    0.0000 H   0  0  0  0  0  0  0  0  0  0  0  0
    3.4153   -1.5598    0.0000 H   0  0  0  0  0  0  0  0  0  0  0  0
    6.8727   -0.2029    0.0000 H   0  0  0  0  0  0  0  0  0  0  0  0
    4.8672   -2.7176    0.0000 H   0  0  0  0  0  0  0  0  0  0  0  0
    6.5959   -2.0390    0.0000 H   0  0  0  0  0  0  0  0  0  0  0  0
  1 14  1  0  0  0  0
  2 10  1  0  0  0  0
  2 21  1  0  0  0  0
  3 13  2  0  0  0  0
  4  8  1  0  0  0  0
  4 13  1  0  0  0  0
  4 22  1  0  0  0  0
  5  7  2  0  0  0  0
  5 10  1  0  0  0  0
  6  7  1  0  0  0  0
  6  8  2  0  0  0  0
  6 11  1  0  0  0  0
  7  9  1  0  0  0  0
  8 12  1  0  0  0  0
  9 16  2  0  0  0  0
  9 17  1  0  0  0  0
 10 13  1  0  0  0  0
 10 23  1  0  0  0  0
 11 14  2  0  0  0  0
 11 24  1  0  0  0  0
 12 15  2  0  0  0  0
 12 25  1  0  0  0  0
 14 15  1  0  0  0  0
 15 26  1  0  0  0  0
 16 18  1  0  0  0  0
 16 27  1  0  0  0  0
 17 19  2  0  0  0  0
 17 28  1  0  0  0  0
 18 20  2  0  0  0  0
 18 29  1  0  0  0  0
 19 20  1  0  0  0  0
 19 30  1  0  0  0  0
 20 31  1  0  0  0  0
M  END
>  <DRUGBANK_ID>
DB00842

>  <SECONDARY_ACCESSION_NUMBERS>
APRD01152

>  <COMMON_NAME>
Oxazepam

>  <CAS_NUMBER>
604-75-1

>  <UNII>
6GOW6DWN2A

>  <SYNONYMS>
(+-)-Oxazepam; (RS)-Oxazepam; Oxazepam

$$$$
