1102
 OpenBabel10282417072D

 46 47  0  0  1  0  0  0  0  0999 V2000
    2.8075   -0.7466    0.0000 O   0  0  0  0  0  0  0  0  0  0  0  0
    2.0930   -3.6342    0.0000 O   0  0  0  0  0  0  0  0  0  0  0  0
    3.5220   -4.4592    0.0000 O   0  0  0  0  0  0  0  0  0  0  0  0
    8.5234    4.2035    0.0000 O   0  0  0  0  0  0  0  0  0  0  0  0
    4.2365    0.0784    0.0000 N   0  0  0  0  0  0  0  0  0  0  0  0
    4.9509    1.3159    0.0000 C   0  0  0  0  0  0  0  0  0  0  0  0
    5.6655    1.7284    0.0000 C   0  0  0  0  0  0  0  0  0  0  0  0
    4.9509    0.4909    0.0000 C   0  0  0  0  0  0  0  0  0  0  0  0
    4.2365   -0.7466    0.0000 C   0  0  0  0  0  0  0  0  0  0  0  0
    5.6655    2.5534    0.0000 C   0  0  0  0  0  0  0  0  0  0  0  0
    3.5220   -1.1592    0.0000 C   0  0  1  0  0  0  0  0  0  0  0  0
    6.3799    2.9659    0.0000 C   0  0  0  0  0  0  0  0  0  0  0  0
    3.5220   -1.9842    0.0000 C   0  0  0  0  0  0  0  0  0  0  0  0
    2.8075   -2.3967    0.0000 C   0  0  0  0  0  0  0  0  0  0  0  0
    4.2365   -2.3967    0.0000 C   0  0  0  0  0  0  0  0  0  0  0  0
    6.3799    3.7910    0.0000 C   0  0  0  0  0  0  0  0  0  0  0  0
    7.0944    2.5534    0.0000 C   0  0  0  0  0  0  0  0  0  0  0  0
    2.8075   -3.2217    0.0000 C   0  0  0  0  0  0  0  0  0  0  0  0
    4.2365   -3.2217    0.0000 C   0  0  0  0  0  0  0  0  0  0  0  0
    7.0944    4.2035    0.0000 C   0  0  0  0  0  0  0  0  0  0  0  0
    7.8089    2.9659    0.0000 C   0  0  0  0  0  0  0  0  0  0  0  0
    3.5220   -3.6342    0.0000 C   0  0  0  0  0  0  0  0  0  0  0  0
    7.8089    3.7910    0.0000 C   0  0  0  0  0  0  0  0  0  0  0  0
    2.8076    0.2234    0.0000 H   0  0  0  0  0  0  0  0  0  0  0  0
    1.2815   -3.1657    0.0000 H   0  0  0  0  0  0  0  0  0  0  0  0
    2.7105   -4.9277    0.0000 H   0  0  0  0  0  0  0  0  0  0  0  0
    9.3349    3.7350    0.0000 H   0  0  0  0  0  0  0  0  0  0  0  0
    3.3531    0.5884    0.0000 H   0  0  0  0  0  0  0  0  0  0  0  0
    4.0243    1.8509    0.0000 H   0  0  0  0  0  0  0  0  0  0  0  0
    4.0242    0.7809    0.0000 H   0  0  0  0  0  0  0  0  0  0  0  0
    6.5921    1.1934    0.0000 H   0  0  0  0  0  0  0  0  0  0  0  0
    6.5922    2.2634    0.0000 H   0  0  0  0  0  0  0  0  0  0  0  0
    5.8776   -0.0441    0.0000 H   0  0  0  0  0  0  0  0  0  0  0  0
    5.8775    1.0259    0.0000 H   0  0  0  0  0  0  0  0  0  0  0  0
    5.1632   -1.2816    0.0000 H   0  0  0  0  0  0  0  0  0  0  0  0
    4.2366   -1.8166    0.0000 H   0  0  0  0  0  0  0  0  0  0  0  0
    4.7388    3.0884    0.0000 H   0  0  0  0  0  0  0  0  0  0  0  0
    5.6655    3.6234    0.0000 H   0  0  0  0  0  0  0  0  0  0  0  0
    3.5220   -0.0892    0.0000 H   0  0  0  0  0  0  0  0  0  0  0  0
    1.9138   -1.8807    0.0000 H   0  0  0  0  0  0  0  0  0  0  0  0
    5.1302   -1.8807    0.0000 H   0  0  0  0  0  0  0  0  0  0  0  0
    5.4862    4.3070    0.0000 H   0  0  0  0  0  0  0  0  0  0  0  0
    7.0944    1.5214    0.0000 H   0  0  0  0  0  0  0  0  0  0  0  0
    5.1302   -3.7377    0.0000 H   0  0  0  0  0  0  0  0  0  0  0  0
    7.0944    5.2355    0.0000 H   0  0  0  0  0  0  0  0  0  0  0  0
    8.7026    2.4499    0.0000 H   0  0  0  0  0  0  0  0  0  0  0  0
  1 24  1  0  0  0  0
  2 18  1  0  0  0  0
  2 25  1  0  0  0  0
  3 22  1  0  0  0  0
  3 26  1  0  0  0  0
  4 23  1  0  0  0  0
  4 27  1  0  0  0  0
  5  8  1  0  0  0  0
  5  9  1  0  0  0  0
  5 28  1  0  0  0  0
  6  7  1  0  0  0  0
  6  8  1  0  0  0  0
  6 29  1  0  0  0  0
  6 30  1  0  0  0  0
  7 10  1  0  0  0  0
  7 31  1  0  0  0  0
  7 32  1  0  0  0  0
  8 33  1  0  0  0  0
  8 34  1  0  0  0  0
  9 11  1  0  0  0  0
  9 35  1  0  0  0  0
  9 36  1  0  0  0  0
 10 12  1  0  0  0  0
 10 37  1  0  0  0  0
 10 38  1  0  0  0  0
 11  1  1  0  0  0  0
 11 13  1  0  0  0  0
 11 39  1  6  0  0  0
 12 16  2  0  0  0  0
 12 17  1  0  0  0  0
 13 14  2  0  0  0  0
 13 15  1  0  0  0  0
 14 18  1  0  0  0  0
 14 40  1  0  0  0  0
 15 19  2  0  0  0  0
 15 41  1  0  0  0  0
 16 20  1  0  0  0  0
 16 42  1  0  0  0  0
 17 21  2  0  0  0  0
 17 43  1  0  0  0  0
 18 22  2  0  0  0  0
 19 22  1  0  0  0  0
 19 44  1  0  0  0  0
 20 23  2  0  0  0  0
 20 45  1  0  0  0  0
 21 23  1  0  0  0  0
 21 46  1  0  0  0  0
M  END
>  <DRUGBANK_ID>
DB01102

>  <SECONDARY_ACCESSION_NUMBERS>
APRD00802

>  <COMMON_NAME>
Arbutamine

>  <CAS_NUMBER>
128470-16-6

>  <UNII>
B07L15YAEV

>  <SYNONYMS>
Arbutamina; Arbutamine; Arbutaminum

$$$$
