
 OpenBabel10282417072D

 52 53  0  0  0  0  0  0  0  0999 V2000
    2.4913   -0.7723    0.0000 O   0  0  0  0  0  0  0  0  0  0  0  0
    3.9231    0.0542    0.0000 O   0  0  0  0  0  0  0  0  0  0  0  0
    1.0616    2.3617    0.0000 O   0  0  0  0  0  0  0  0  0  0  0  0
   -3.2199    0.0388    0.0000 O   0  0  0  0  0  0  0  0  0  0  0  0
    0.3486    1.2880    0.0000 N   0  0  0  0  0  0  0  0  0  0  0  0
   -3.9245   -2.0285    0.0000 N   0  0  0  0  0  0  0  0  0  0  0  0
    1.7785    1.2905    0.0000 C   0  0  0  0  0  0  0  0  0  0  0  0
    2.4930    0.0530    0.0000 C   0  0  0  0  0  0  0  0  0  0  0  0
    3.2074    0.4654    0.0000 C   0  0  0  0  0  0  0  0  0  0  0  0
    1.7785    0.4654    0.0000 C   0  0  0  0  0  0  0  0  0  0  0  0
    1.0628    1.7017    0.0000 C   0  0  0  0  0  0  0  0  0  0  0  0
    2.4930    1.7030    0.0000 C   0  0  0  0  0  0  0  0  0  0  0  0
    3.2074    1.2905    0.0000 C   0  0  0  0  0  0  0  0  0  0  0  0
   -1.0814    1.2855    0.0000 C   0  0  0  0  0  0  0  0  0  0  0  0
   -0.3671    1.6992    0.0000 C   0  0  0  0  0  0  0  0  0  0  0  0
   -2.5074    0.4555    0.0000 C   0  0  0  0  0  0  0  0  0  0  0  0
   -1.7972    1.6955    0.0000 C   0  0  0  0  0  0  0  0  0  0  0  0
   -1.0786    0.4604    0.0000 C   0  0  0  0  0  0  0  0  0  0  0  0
   -2.5102    1.2806    0.0000 C   0  0  0  0  0  0  0  0  0  0  0  0
   -1.7915    0.0455    0.0000 C   0  0  0  0  0  0  0  0  0  0  0  0
    1.9192   -1.1016    0.0000 C   0  0  0  0  0  0  0  0  0  0  0  0
    4.4942    0.3850    0.0000 C   0  0  0  0  0  0  0  0  0  0  0  0
   -3.2159   -0.7865    0.0000 C   0  0  0  0  0  0  0  0  0  0  0  0
   -3.9285   -1.2031    0.0000 C   0  0  0  0  0  0  0  0  0  0  0  0
   -4.4942   -2.3617    0.0000 C   0  0  0  0  0  0  0  0  0  0  0  0
   -3.3511   -2.3556    0.0000 C   0  0  0  0  0  0  0  0  0  0  0  0
    0.3503    0.3035    0.0000 H   0  0  0  0  0  0  0  0  0  0  0  0
    0.8848   -0.0507    0.0000 H   0  0  0  0  0  0  0  0  0  0  0  0
    2.4930    2.7350    0.0000 H   0  0  0  0  0  0  0  0  0  0  0  0
    4.1011    1.8065    0.0000 H   0  0  0  0  0  0  0  0  0  0  0  0
   -0.3690    2.7692    0.0000 H   0  0  0  0  0  0  0  0  0  0  0  0
   -1.2946    2.2328    0.0000 H   0  0  0  0  0  0  0  0  0  0  0  0
   -1.8007    2.7275    0.0000 H   0  0  0  0  0  0  0  0  0  0  0  0
   -0.1831   -0.0525    0.0000 H   0  0  0  0  0  0  0  0  0  0  0  0
   -3.4057    1.7936    0.0000 H   0  0  0  0  0  0  0  0  0  0  0  0
   -1.7879   -0.9865    0.0000 H   0  0  0  0  0  0  0  0  0  0  0  0
    0.9933   -0.5654    0.0000 H   0  0  0  0  0  0  0  0  0  0  0  0
    1.9178   -2.1716    0.0000 H   0  0  0  0  0  0  0  0  0  0  0  0
    0.9919   -1.6354    0.0000 H   0  0  0  0  0  0  0  0  0  0  0  0
    5.4216   -0.1487    0.0000 H   0  0  0  0  0  0  0  0  0  0  0  0
    4.4927    1.4550    0.0000 H   0  0  0  0  0  0  0  0  0  0  0  0
    5.4201    0.9213    0.0000 H   0  0  0  0  0  0  0  0  0  0  0  0
   -2.2865   -1.3167    0.0000 H   0  0  0  0  0  0  0  0  0  0  0  0
   -3.2102   -1.8565    0.0000 H   0  0  0  0  0  0  0  0  0  0  0  0
   -4.8579   -0.6729    0.0000 H   0  0  0  0  0  0  0  0  0  0  0  0
   -3.9342   -0.1331    0.0000 H   0  0  0  0  0  0  0  0  0  0  0  0
   -5.4238   -1.8319    0.0000 H   0  0  0  0  0  0  0  0  0  0  0  0
   -4.4882   -3.4317    0.0000 H   0  0  0  0  0  0  0  0  0  0  0  0
   -5.4178   -2.9019    0.0000 H   0  0  0  0  0  0  0  0  0  0  0  0
   -3.3456   -3.4256    0.0000 H   0  0  0  0  0  0  0  0  0  0  0  0
   -2.4272   -1.8158    0.0000 H   0  0  0  0  0  0  0  0  0  0  0  0
   -2.4217   -2.8858    0.0000 H   0  0  0  0  0  0  0  0  0  0  0  0
  1  8  1  0  0  0  0
  1 21  1  0  0  0  0
  2  9  1  0  0  0  0
  2 22  1  0  0  0  0
  3 11  2  0  0  0  0
  4 16  1  0  0  0  0
  4 23  1  0  0  0  0
  5 11  1  0  0  0  0
  5 15  1  0  0  0  0
  5 27  1  0  0  0  0
  6 24  1  0  0  0  0
  6 25  1  0  0  0  0
  6 26  1  0  0  0  0
  7 10  1  0  0  0  0
  7 11  1  0  0  0  0
  7 12  2  0  0  0  0
  8  9  1  0  0  0  0
  8 10  2  0  0  0  0
  9 13  2  0  0  0  0
 10 28  1  0  0  0  0
 12 13  1  0  0  0  0
 12 29  1  0  0  0  0
 13 30  1  0  0  0  0
 14 15  1  0  0  0  0
 14 17  2  0  0  0  0
 14 18  1  0  0  0  0
 15 31  1  0  0  0  0
 15 32  1  0  0  0  0
 16 19  2  0  0  0  0
 16 20  1  0  0  0  0
 17 19  1  0  0  0  0
 17 33  1  0  0  0  0
 18 20  2  0  0  0  0
 18 34  1  0  0  0  0
 19 35  1  0  0  0  0
 20 36  1  0  0  0  0
 21 37  1  0  0  0  0
 21 38  1  0  0  0  0
 21 39  1  0  0  0  0
 22 40  1  0  0  0  0
 22 41  1  0  0  0  0
 22 42  1  0  0  0  0
 23 24  1  0  0  0  0
 23 43  1  0  0  0  0
 23 44  1  0  0  0  0
 24 45  1  0  0  0  0
 24 46  1  0  0  0  0
 25 47  1  0  0  0  0
 25 48  1  0  0  0  0
 25 49  1  0  0  0  0
 26 50  1  0  0  0  0
 26 51  1  0  0  0  0
 26 52  1  0  0  0  0
M  END
>  <DRUGBANK_ID>
DB04924

>  <COMMON_NAME>
Itopride

>  <CAS_NUMBER>
122898-67-3

>  <UNII>
81BMQ80QRL

>  <SYNONYMS>
Itopride; N-(p-(2-(Dimethylamino)ethoxy)benzyl)veratramide

$$$$
