
 OpenBabel10282417072D

 71 70  0  0  0  0  0  0  0  0999 V2000
   -8.2164    0.2062    0.0000 C   0  0  0  0  0  0  0  0  0  0  0  0
    8.2164    0.6187    0.0000 C   0  0  0  0  0  0  0  0  0  0  0  0
   -7.5019    0.6187    0.0000 C   0  0  0  0  0  0  0  0  0  0  0  0
    7.5019    0.2062    0.0000 C   0  0  0  0  0  0  0  0  0  0  0  0
   -6.7874    0.2062    0.0000 C   0  0  0  0  0  0  0  0  0  0  0  0
    6.7874    0.6187    0.0000 C   0  0  0  0  0  0  0  0  0  0  0  0
   -6.0730    0.6187    0.0000 C   0  0  0  0  0  0  0  0  0  0  0  0
    6.0730    0.2062    0.0000 C   0  0  0  0  0  0  0  0  0  0  0  0
   -5.3585    0.2062    0.0000 C   0  0  0  0  0  0  0  0  0  0  0  0
   -4.6440    0.6187    0.0000 C   0  0  0  0  0  0  0  0  0  0  0  0
   -3.9295    0.2062    0.0000 C   0  0  0  0  0  0  0  0  0  0  0  0
   -3.2151    0.6187    0.0000 C   0  0  0  0  0  0  0  0  0  0  0  0
   -2.5006    0.2062    0.0000 C   0  0  0  0  0  0  0  0  0  0  0  0
   -1.7861    0.6187    0.0000 C   0  0  0  0  0  0  0  0  0  0  0  0
   -1.0717    0.2062    0.0000 C   0  0  0  0  0  0  0  0  0  0  0  0
   -0.3572    0.6187    0.0000 C   0  0  0  0  0  0  0  0  0  0  0  0
    5.3585    0.6187    0.0000 C   0  0  0  0  0  0  0  0  0  0  0  0
    0.3572    0.2062    0.0000 C   0  0  0  0  0  0  0  0  0  0  0  0
    4.6440    0.2062    0.0000 C   0  0  0  0  0  0  0  0  0  0  0  0
    1.0717    0.6187    0.0000 C   0  0  0  0  0  0  0  0  0  0  0  0
    3.9295    0.6187    0.0000 C   0  0  0  0  0  0  0  0  0  0  0  0
    1.7861    0.2062    0.0000 C   0  0  0  0  0  0  0  0  0  0  0  0
    3.2151    0.2062    0.0000 C   0  0  0  0  0  0  0  0  0  0  0  0
    3.2151   -0.6187    0.0000 O   0  0  0  0  0  0  0  0  0  0  0  0
    2.5006    0.6187    0.0000 O   0  0  0  0  0  0  0  0  0  0  0  0
   -9.1430    0.7412    0.0000 H   0  0  0  0  0  0  0  0  0  0  0  0
   -8.2164   -0.8638    0.0000 H   0  0  0  0  0  0  0  0  0  0  0  0
   -9.1431   -0.3288    0.0000 H   0  0  0  0  0  0  0  0  0  0  0  0
    9.1430    0.0837    0.0000 H   0  0  0  0  0  0  0  0  0  0  0  0
    8.2164    1.6887    0.0000 H   0  0  0  0  0  0  0  0  0  0  0  0
    9.1431    1.1537    0.0000 H   0  0  0  0  0  0  0  0  0  0  0  0
   -7.5019    1.6887    0.0000 H   0  0  0  0  0  0  0  0  0  0  0  0
   -6.5753    1.1537    0.0000 H   0  0  0  0  0  0  0  0  0  0  0  0
    7.5019   -0.8638    0.0000 H   0  0  0  0  0  0  0  0  0  0  0  0
    6.5753   -0.3288    0.0000 H   0  0  0  0  0  0  0  0  0  0  0  0
   -6.7874   -0.8638    0.0000 H   0  0  0  0  0  0  0  0  0  0  0  0
   -5.8607   -0.3288    0.0000 H   0  0  0  0  0  0  0  0  0  0  0  0
    6.7874    1.6887    0.0000 H   0  0  0  0  0  0  0  0  0  0  0  0
    5.8607    1.1537    0.0000 H   0  0  0  0  0  0  0  0  0  0  0  0
   -6.0730    1.6887    0.0000 H   0  0  0  0  0  0  0  0  0  0  0  0
   -5.1464    1.1537    0.0000 H   0  0  0  0  0  0  0  0  0  0  0  0
    6.0730   -0.8638    0.0000 H   0  0  0  0  0  0  0  0  0  0  0  0
    5.1464   -0.3288    0.0000 H   0  0  0  0  0  0  0  0  0  0  0  0
   -5.3585   -0.8638    0.0000 H   0  0  0  0  0  0  0  0  0  0  0  0
   -4.4319   -0.3288    0.0000 H   0  0  0  0  0  0  0  0  0  0  0  0
   -4.6440    1.6887    0.0000 H   0  0  0  0  0  0  0  0  0  0  0  0
   -3.7174    1.1537    0.0000 H   0  0  0  0  0  0  0  0  0  0  0  0
   -3.9295   -0.8638    0.0000 H   0  0  0  0  0  0  0  0  0  0  0  0
   -3.0028   -0.3288    0.0000 H   0  0  0  0  0  0  0  0  0  0  0  0
   -3.2151    1.6887    0.0000 H   0  0  0  0  0  0  0  0  0  0  0  0
   -2.2885    1.1537    0.0000 H   0  0  0  0  0  0  0  0  0  0  0  0
   -2.5006   -0.8638    0.0000 H   0  0  0  0  0  0  0  0  0  0  0  0
   -1.5740   -0.3288    0.0000 H   0  0  0  0  0  0  0  0  0  0  0  0
   -1.7861    1.6887    0.0000 H   0  0  0  0  0  0  0  0  0  0  0  0
   -0.8594    1.1537    0.0000 H   0  0  0  0  0  0  0  0  0  0  0  0
   -1.0717   -0.8638    0.0000 H   0  0  0  0  0  0  0  0  0  0  0  0
   -0.1451   -0.3288    0.0000 H   0  0  0  0  0  0  0  0  0  0  0  0
   -0.3572    1.6887    0.0000 H   0  0  0  0  0  0  0  0  0  0  0  0
    0.5695    1.1537    0.0000 H   0  0  0  0  0  0  0  0  0  0  0  0
    5.3585    1.6887    0.0000 H   0  0  0  0  0  0  0  0  0  0  0  0
    4.4319    1.1537    0.0000 H   0  0  0  0  0  0  0  0  0  0  0  0
    0.3572   -0.8638    0.0000 H   0  0  0  0  0  0  0  0  0  0  0  0
    1.2838   -0.3288    0.0000 H   0  0  0  0  0  0  0  0  0  0  0  0
    4.6440   -0.8638    0.0000 H   0  0  0  0  0  0  0  0  0  0  0  0
    3.7174   -0.3288    0.0000 H   0  0  0  0  0  0  0  0  0  0  0  0
    1.0717    1.6887    0.0000 H   0  0  0  0  0  0  0  0  0  0  0  0
    1.9984    1.1537    0.0000 H   0  0  0  0  0  0  0  0  0  0  0  0
    3.9295    1.6887    0.0000 H   0  0  0  0  0  0  0  0  0  0  0  0
    3.0028    1.1537    0.0000 H   0  0  0  0  0  0  0  0  0  0  0  0
    1.7861   -0.8638    0.0000 H   0  0  0  0  0  0  0  0  0  0  0  0
    2.7127   -0.3288    0.0000 H   0  0  0  0  0  0  0  0  0  0  0  0
  1 26  1  0  0  0  0
  1 27  1  0  0  0  0
  1 28  1  0  0  0  0
  2 29  1  0  0  0  0
  2 30  1  0  0  0  0
  2 31  1  0  0  0  0
  3  1  1  0  0  0  0
  3 32  1  0  0  0  0
  3 33  1  0  0  0  0
  4  2  1  0  0  0  0
  4 34  1  0  0  0  0
  4 35  1  0  0  0  0
  5  3  1  0  0  0  0
  5 36  1  0  0  0  0
  5 37  1  0  0  0  0
  6  4  1  0  0  0  0
  6 38  1  0  0  0  0
  6 39  1  0  0  0  0
  7  5  1  0  0  0  0
  7 40  1  0  0  0  0
  7 41  1  0  0  0  0
  8  6  1  0  0  0  0
  8 42  1  0  0  0  0
  8 43  1  0  0  0  0
  9  7  1  0  0  0  0
  9 44  1  0  0  0  0
  9 45  1  0  0  0  0
 10  9  1  0  0  0  0
 10 46  1  0  0  0  0
 10 47  1  0  0  0  0
 11 10  1  0  0  0  0
 11 48  1  0  0  0  0
 11 49  1  0  0  0  0
 12 11  1  0  0  0  0
 12 50  1  0  0  0  0
 12 51  1  0  0  0  0
 13 12  1  0  0  0  0
 13 52  1  0  0  0  0
 13 53  1  0  0  0  0
 14 13  1  0  0  0  0
 14 54  1  0  0  0  0
 14 55  1  0  0  0  0
 15 14  1  0  0  0  0
 15 56  1  0  0  0  0
 15 57  1  0  0  0  0
 16 15  1  0  0  0  0
 16 58  1  0  0  0  0
 16 59  1  0  0  0  0
 17  8  1  0  0  0  0
 17 60  1  0  0  0  0
 17 61  1  0  0  0  0
 18 16  1  0  0  0  0
 18 62  1  0  0  0  0
 18 63  1  0  0  0  0
 19 17  1  0  0  0  0
 19 64  1  0  0  0  0
 19 65  1  0  0  0  0
 20 18  1  0  0  0  0
 20 66  1  0  0  0  0
 20 67  1  0  0  0  0
 21 19  1  0  0  0  0
 21 68  1  0  0  0  0
 21 69  1  0  0  0  0
 22 20  1  0  0  0  0
 22 70  1  0  0  0  0
 22 71  1  0  0  0  0
 23 21  1  0  0  0  0
 24 23  2  0  0  0  0
 25 22  1  0  0  0  0
 25 23  1  0  0  0  0
M  END
>  <DRUGBANK_ID>
DB02425

>  <SECONDARY_ACCESSION_NUMBERS>
EXPT00974

>  <COMMON_NAME>
Hexadecyl Octanoate

>  <CAS_NUMBER>
29710-31-4

>  <UNII>
418Q5V6PLJ

>  <SYNONYMS>
Caprylic acid, cetyl ester; Cetyl caprylate; Cetyl octanoate; Hexadecyl caprylate; Hexadecyl N-octanoate

$$$$
