
 OpenBabel10282417072D

182189  0  0  0  0  0  0  0  0999 V2000
   -7.3039    0.5021    0.0000 O   0  0  0  0  0  0  0  0  0  0  0  0
   -7.3356    1.4411    0.0000 C   0  0  1  0  0  0  0  0  0  0  0  0
   -6.6406    2.2773    0.0000 C   0  0  1  0  0  0  0  0  0  0  0  0
   -5.8173    2.2802    0.0000 C   0  0  0  0  0  0  0  0  0  0  0  0
   -5.4098    2.9955    0.0000 C   0  0  0  0  0  0  0  0  0  0  0  0
   -4.5865    2.9983    0.0000 C   0  0  0  0  0  0  0  0  0  0  0  0
   -4.1406    2.3043    0.0000 O   0  0  0  0  0  0  0  0  0  0  0  0
   -3.3208    2.3456    0.0000 C   0  0  0  0  0  0  0  0  0  0  0  0
   -2.9425    3.0741    0.0000 C   0  0  0  0  0  0  0  0  0  0  0  0
   -3.3885    3.7681    0.0000 C   0  0  0  0  0  0  0  0  0  0  0  0
   -4.2127    3.7338    0.0000 N   0  0  0  0  0  0  0  0  0  0  0  0
   -3.3087    0.9097    0.0000 C   0  0  0  0  0  0  0  0  0  0  0  0
   -2.8481    0.2273    0.0000 C   0  0  2  0  0  0  0  0  0  0  0  0
   -3.2106   -0.5118    0.0000 C   0  0  0  0  0  0  0  0  0  0  0  0
   -2.7500   -1.1942    0.0000 C   0  0  0  0  0  0  0  0  0  0  0  0
   -3.1958   -1.9793    0.0000 C   0  0  0  0  0  0  0  0  0  0  0  0
   -5.6649   -2.7046    0.0000 C   0  0  0  0  0  0  0  0  0  0  0  0
   -4.8748   -2.9421    0.0000 O   0  0  0  0  0  0  0  0  0  0  0  0
   -4.4031   -2.2650    0.0000 C   0  0  0  0  0  0  0  0  0  0  0  0
   -4.9040   -1.6062    0.0000 N   0  0  0  0  0  0  0  0  0  0  0  0
   -5.6810   -1.8809    0.0000 C   0  0  0  0  0  0  0  0  0  0  0  0
   -8.3536   -3.1385    0.0000 C   0  0  0  0  0  0  0  0  0  0  0  0
   -7.5844   -2.8403    0.0000 C   0  0  0  0  0  0  0  0  0  0  0  0
   -7.6284   -2.0164    0.0000 N   0  0  0  0  0  0  0  0  0  0  0  0
   -8.4284   -1.8045    0.0000 C   0  0  0  0  0  0  0  0  0  0  0  0
   -8.8725   -2.4987    0.0000 C   0  0  0  0  0  0  0  0  0  0  0  0
   -6.6600   -1.4203    0.0000 C   0  0  0  0  0  0  0  0  0  0  0  0
   -6.6916   -0.4501    0.0000 O   0  0  0  0  0  0  0  0  0  0  0  0
   -1.9291   -1.1918    0.0000 O   0  0  0  0  0  0  0  0  0  0  0  0
   -2.0250    0.2290    0.0000 O   0  0  0  0  0  0  0  0  0  0  0  0
   -2.9041    1.6290    0.0000 C   0  0  0  0  0  0  0  0  0  0  0  0
   -2.0791    1.6290    0.0000 C   0  0  0  0  0  0  0  0  0  0  0  0
   -6.8666    3.0331    0.0000 C   0  0  0  0  0  0  0  0  0  0  0  0
   -7.9916    1.9415    0.0000 C   0  0  0  0  0  0  0  0  0  0  0  0
   -7.9916    2.8165    0.0000 C   0  0  0  0  0  0  0  0  0  0  0  0
   -8.8666    1.5040    0.0000 C   0  0  0  0  0  0  0  0  0  0  0  0
   -8.4291   -0.3376    0.0000 C   0  0  0  0  0  0  0  0  0  0  0  0
   -9.2083    0.0665    0.0000 O   0  0  0  0  0  0  0  0  0  0  0  0
    5.6374    1.3790    0.0000 C   0  0  0  0  0  0  0  0  0  0  0  0
    6.3499    0.9706    0.0000 C   0  0  0  0  0  0  0  0  0  0  0  0
    7.0624    1.3831    0.0000 C   0  0  1  0  0  0  0  0  0  0  0  0
    7.7749    0.9748    0.0000 N   0  0  0  0  0  0  0  0  0  0  0  0
    5.5947    2.7579    0.0000 C   0  0  1  0  0  0  0  0  0  0  0  0
    6.3812    2.5090    0.0000 N   0  0  0  0  0  0  0  0  0  0  0  0
    6.8627    3.1791    0.0000 C   0  0  0  0  0  0  0  0  0  0  0  0
    6.3714    3.8451    0.0000 C   0  0  0  0  0  0  0  0  0  0  0  0
    5.5905    3.5817    0.0000 C   0  0  0  0  0  0  0  0  0  0  0  0
    1.3488    4.1317    0.0000 C   0  0  0  0  0  0  0  0  0  0  0  0
    1.3476    3.3043    0.0000 C   0  0  0  0  0  0  0  0  0  0  0  0
    2.0624    2.8915    0.0000 C   0  0  0  0  0  0  0  0  0  0  0  0
    2.7789    3.3048    0.0000 C   0  0  0  0  0  0  0  0  0  0  0  0
    2.7760    4.1353    0.0000 C   0  0  0  0  0  0  0  0  0  0  0  0
    2.0606    4.5445    0.0000 C   0  0  0  0  0  0  0  0  0  0  0  0
    7.0693   -3.3042    0.0000 N   0  0  0  0  0  0  0  0  0  0  0  0
    7.0682   -4.1316    0.0000 C   0  0  0  0  0  0  0  0  0  0  0  0
    7.7830   -4.5445    0.0000 C   0  0  0  0  0  0  0  0  0  0  0  0
    8.4994   -4.1311    0.0000 C   0  0  0  0  0  0  0  0  0  0  0  0
    8.4966   -3.3006    0.0000 C   0  0  0  0  0  0  0  0  0  0  0  0
    7.7812   -2.8915    0.0000 C   0  0  0  0  0  0  0  0  0  0  0  0
    7.7749   -2.0626    0.0000 C   0  0  0  0  0  0  0  0  0  0  0  0
    7.0583   -1.6501    0.0000 N   0  0  0  0  0  0  0  0  0  0  0  0
    8.4874   -1.6459    0.0000 O   0  0  0  0  0  0  0  0  0  0  0  0
    9.2083   -2.8834    0.0000 O   0  0  0  0  0  0  0  0  0  0  0  0
    3.5068   -2.0667    0.0000 C   0  0  0  0  0  0  0  0  0  0  0  0
    3.5057   -2.8941    0.0000 C   0  0  0  0  0  0  0  0  0  0  0  0
    4.2205   -3.3070    0.0000 C   0  0  0  0  0  0  0  0  0  0  0  0
    4.9369   -2.8936    0.0000 C   0  0  0  0  0  0  0  0  0  0  0  0
    4.9341   -2.0631    0.0000 C   0  0  0  0  0  0  0  0  0  0  0  0
    4.2187   -1.6540    0.0000 C   0  0  0  0  0  0  0  0  0  0  0  0
    4.2124   -0.8251    0.0000 C   0  0  1  0  0  0  0  0  0  0  0  0
    4.9249   -0.4126    0.0000 C   0  0  0  0  0  0  0  0  0  0  0  0
    5.6374   -0.8251    0.0000 O   0  0  0  0  0  0  0  0  0  0  0  0
    6.3499   -0.4126    0.0000 C   0  0  1  0  0  0  0  0  0  0  0  0
    7.0624   -0.8251    0.0000 C   0  0  1  0  0  0  0  0  0  0  0  0
    7.7749   -0.4126    0.0000 C   0  0  0  0  0  0  0  0  0  0  0  0
    8.4874   -0.8251    0.0000 O   0  0  0  0  0  0  0  0  0  0  0  0
    2.0791    0.4123    0.0000 N   0  0  0  0  0  0  0  0  0  0  0  0
    2.0791   -0.4126    0.0000 C   0  0  2  0  0  0  0  0  0  0  0  0
    2.7911   -0.8209    0.0000 C   0  0  0  0  0  0  0  0  0  0  0  0
    3.5031   -0.4126    0.0000 N   0  0  0  0  0  0  0  0  0  0  0  0
    3.5031    0.4123    0.0000 O   0  0  0  0  0  0  0  0  0  0  0  0
    2.7911    0.8290    0.0000 C   0  0  0  0  0  0  0  0  0  0  0  0
    0.6583    0.4123    0.0000 C   0  0  0  0  0  0  0  0  0  0  0  0
    0.6583   -0.4126    0.0000 C   0  0  0  0  0  0  0  0  0  0  0  0
    1.3703   -0.8209    0.0000 C   0  0  0  0  0  0  0  0  0  0  0  0
    1.3703    0.8290    0.0000 C   0  0  0  0  0  0  0  0  0  0  0  0
   -0.0583   -0.8209    0.0000 O   0  0  0  0  0  0  0  0  0  0  0  0
    2.7833   -1.6459    0.0000 O   0  0  0  0  0  0  0  0  0  0  0  0
    4.9208    0.4123    0.0000 O   0  0  0  0  0  0  0  0  0  0  0  0
    6.3374    0.2248    0.0000 C   0  0  0  0  0  0  0  0  0  0  0  0
    2.7833    1.6540    0.0000 C   0  0  1  0  0  0  0  0  0  0  0  0
    3.4958    2.0706    0.0000 N   0  0  0  0  0  0  0  0  0  0  0  0
    4.2083    1.6581    0.0000 C   0  0  0  0  0  0  0  0  0  0  0  0
    4.2041    0.8331    0.0000 O   0  0  0  0  0  0  0  0  0  0  0  0
    2.0666    2.0665    0.0000 C   0  0  0  0  0  0  0  0  0  0  0  0
    3.4916    2.8956    0.0000 C   0  0  0  0  0  0  0  0  0  0  0  0
    7.0583    2.2081    0.0000 C   0  0  0  0  0  0  0  0  0  0  0  0
    7.7708    2.6248    0.0000 O   0  0  0  0  0  0  0  0  0  0  0  0
    2.0749   -1.2376    0.0000 H   0  0  0  0  0  0  0  0  0  0  0  0
    4.7916    2.9748    0.0000 H   0  0  0  0  0  0  0  0  0  0  0  0
   -7.4561    2.5043    0.0000 H   0  0  0  0  0  0  0  0  0  0  0  0
   -6.0030    3.1366    0.0000 H   0  0  0  0  0  0  0  0  0  0  0  0
   -5.2972    1.3889    0.0000 H   0  0  0  0  0  0  0  0  0  0  0  0
   -5.9299    3.8869    0.0000 H   0  0  0  0  0  0  0  0  0  0  0  0
   -4.3525    2.3210    0.0000 H   0  0  0  0  0  0  0  0  0  0  0  0
   -1.9116    3.1217    0.0000 H   0  0  0  0  0  0  0  0  0  0  0  0
   -2.8953    4.7177    0.0000 H   0  0  0  0  0  0  0  0  0  0  0  0
   -3.9629    4.6708    0.0000 H   0  0  0  0  0  0  0  0  0  0  0  0
   -4.7449    4.5621    0.0000 H   0  0  0  0  0  0  0  0  0  0  0  0
   -4.3398    0.8677    0.0000 H   0  0  0  0  0  0  0  0  0  0  0  0
   -2.3469    1.1727    0.0000 H   0  0  0  0  0  0  0  0  0  0  0  0
   -4.2781   -0.5854    0.0000 H   0  0  0  0  0  0  0  0  0  0  0  0
   -3.6800   -1.4734    0.0000 H   0  0  0  0  0  0  0  0  0  0  0  0
   -2.5539   -2.8354    0.0000 H   0  0  0  0  0  0  0  0  0  0  0  0
   -2.1280   -1.9114    0.0000 H   0  0  0  0  0  0  0  0  0  0  0  0
   -6.4870   -3.3285    0.0000 H   0  0  0  0  0  0  0  0  0  0  0  0
   -8.6284   -4.1726    0.0000 H   0  0  0  0  0  0  0  0  0  0  0  0
   -9.3999   -3.3624    0.0000 H   0  0  0  0  0  0  0  0  0  0  0  0
   -6.6858   -3.4211    0.0000 H   0  0  0  0  0  0  0  0  0  0  0  0
   -6.6586   -2.3038    0.0000 H   0  0  0  0  0  0  0  0  0  0  0  0
   -9.9029   -2.5566    0.0000 H   0  0  0  0  0  0  0  0  0  0  0  0
   -1.5383   -0.6100    0.0000 H   0  0  0  0  0  0  0  0  0  0  0  0
   -1.5441    0.7024    0.0000 H   0  0  0  0  0  0  0  0  0  0  0  0
   -1.5441    2.5556    0.0000 H   0  0  0  0  0  0  0  0  0  0  0  0
   -1.0091    1.6290    0.0000 H   0  0  0  0  0  0  0  0  0  0  0  0
   -6.1321    3.8111    0.0000 H   0  0  0  0  0  0  0  0  0  0  0  0
   -7.9077    3.2802    0.0000 H   0  0  0  0  0  0  0  0  0  0  0  0
   -7.1731    4.0582    0.0000 H   0  0  0  0  0  0  0  0  0  0  0  0
   -8.9018    2.5040    0.0000 H   0  0  0  0  0  0  0  0  0  0  0  0
   -7.0650    3.3515    0.0000 H   0  0  0  0  0  0  0  0  0  0  0  0
   -8.9182    3.3515    0.0000 H   0  0  0  0  0  0  0  0  0  0  0  0
   -7.9916    3.8865    0.0000 H   0  0  0  0  0  0  0  0  0  0  0  0
   -9.7595    2.0936    0.0000 H   0  0  0  0  0  0  0  0  0  0  0  0
   -8.9307    0.4359    0.0000 H   0  0  0  0  0  0  0  0  0  0  0  0
   -9.8236    1.0255    0.0000 H   0  0  0  0  0  0  0  0  0  0  0  0
    5.6341    2.4490    0.0000 H   0  0  0  0  0  0  0  0  0  0  0  0
    4.7124    0.8411    0.0000 H   0  0  0  0  0  0  0  0  0  0  0  0
    4.7091    1.9111    0.0000 H   0  0  0  0  0  0  0  0  0  0  0  0
    6.3522   -0.0994    0.0000 H   0  0  0  0  0  0  0  0  0  0  0  0
    7.2774    0.4372    0.0000 H   0  0  0  0  0  0  0  0  0  0  0  0
    7.0648    0.3131    0.0000 H   0  0  0  0  0  0  0  0  0  0  0  0
    8.6267    1.4684    0.0000 H   0  0  0  0  0  0  0  0  0  0  0  0
    7.9327    3.1858    0.0000 H   0  0  0  0  0  0  0  0  0  0  0  0
    7.3420    4.1357    0.0000 H   0  0  0  0  0  0  0  0  0  0  0  0
    6.6927    4.8657    0.0000 H   0  0  0  0  0  0  0  0  0  0  0  0
    5.6071    4.5940    0.0000 H   0  0  0  0  0  0  0  0  0  0  0  0
    4.7198    4.2036    0.0000 H   0  0  0  0  0  0  0  0  0  0  0  0
    4.6404    3.0896    0.0000 H   0  0  0  0  0  0  0  0  0  0  0  0
    0.4549    4.6475    0.0000 H   0  0  0  0  0  0  0  0  0  0  0  0
    0.4535    2.7890    0.0000 H   0  0  0  0  0  0  0  0  0  0  0  0
    3.6734    2.7902    0.0000 H   0  0  0  0  0  0  0  0  0  0  0  0
    3.6678    4.6547    0.0000 H   0  0  0  0  0  0  0  0  0  0  0  0
    2.0575    5.5765    0.0000 H   0  0  0  0  0  0  0  0  0  0  0  0
    6.1741   -4.6469    0.0000 H   0  0  0  0  0  0  0  0  0  0  0  0
    7.7828   -5.5765    0.0000 H   0  0  0  0  0  0  0  0  0  0  0  0
    9.3939   -4.6457    0.0000 H   0  0  0  0  0  0  0  0  0  0  0  0
    6.2048   -2.1408    0.0000 H   0  0  0  0  0  0  0  0  0  0  0  0
   10.0228   -3.3465    0.0000 H   0  0  0  0  0  0  0  0  0  0  0  0
    2.6129   -1.5509    0.0000 H   0  0  0  0  0  0  0  0  0  0  0  0
    2.6116   -3.4094    0.0000 H   0  0  0  0  0  0  0  0  0  0  0  0
    4.2203   -4.3390    0.0000 H   0  0  0  0  0  0  0  0  0  0  0  0
    5.8314   -3.4082    0.0000 H   0  0  0  0  0  0  0  0  0  0  0  0
    5.8259   -1.5437    0.0000 H   0  0  0  0  0  0  0  0  0  0  0  0
    5.1414   -1.3560    0.0000 H   0  0  0  0  0  0  0  0  0  0  0  0
    5.4177    0.1127    0.0000 H   0  0  0  0  0  0  0  0  0  0  0  0
    6.1341   -1.3572    0.0000 H   0  0  0  0  0  0  0  0  0  0  0  0
    3.5061    0.5719    0.0000 H   0  0  0  0  0  0  0  0  0  0  0  0
   -0.2699    0.9446    0.0000 H   0  0  0  0  0  0  0  0  0  0  0  0
    0.6536    1.4823    0.0000 H   0  0  0  0  0  0  0  0  0  0  0  0
    1.3713   -1.8909    0.0000 H   0  0  0  0  0  0  0  0  0  0  0  0
    2.2969   -1.3559    0.0000 H   0  0  0  0  0  0  0  0  0  0  0  0
    1.3714    1.8990    0.0000 H   0  0  0  0  0  0  0  0  0  0  0  0
    2.2993    1.3599    0.0000 H   0  0  0  0  0  0  0  0  0  0  0  0
    7.2534    0.7779    0.0000 H   0  0  0  0  0  0  0  0  0  0  0  0
    5.4004    0.7415    0.0000 H   0  0  0  0  0  0  0  0  0  0  0  0
    6.3164    1.2946    0.0000 H   0  0  0  0  0  0  0  0  0  0  0  0
    1.8596    1.1140    0.0000 H   0  0  0  0  0  0  0  0  0  0  0  0
    1.1417    1.5285    0.0000 H   0  0  0  0  0  0  0  0  0  0  0  0
    1.1377    2.5976    0.0000 H   0  0  0  0  0  0  0  0  0  0  0  0
    4.4155    3.4353    0.0000 H   0  0  0  0  0  0  0  0  0  0  0  0
    2.5622    3.4259    0.0000 H   0  0  0  0  0  0  0  0  0  0  0  0
    3.4862    3.9656    0.0000 H   0  0  0  0  0  0  0  0  0  0  0  0
  1 37  1  0  0  0  0
  1  2  1  0  0  0  0
  2 34  1  0  0  0  0
  2  3  1  0  0  0  0
  2101  1  1  0  0  0
  3 33  1  0  0  0  0
  3  4  1  0  0  0  0
  3102  1  1  0  0  0
  4  5  2  0  0  0  0
  4103  1  0  0  0  0
  5  6  1  0  0  0  0
  5104  1  0  0  0  0
  6 11  1  0  0  0  0
  6  7  2  0  0  0  0
  8  9  2  0  0  0  0
  8105  1  0  0  0  0
  9 10  1  0  0  0  0
  9106  1  0  0  0  0
 10 11  1  0  0  0  0
 10107  1  0  0  0  0
 10108  1  0  0  0  0
 11109  1  0  0  0  0
 12 13  1  0  0  0  0
 12 31  2  0  0  0  0
 12110  1  0  0  0  0
 13 14  1  0  0  0  0
 13 30  1  0  0  0  0
 13111  1  6  0  0  0
 14 15  1  0  0  0  0
 14112  1  0  0  0  0
 14113  1  0  0  0  0
 15 29  2  0  0  0  0
 15 16  1  0  0  0  0
 16114  1  0  0  0  0
 16115  1  0  0  0  0
 17 18  1  0  0  0  0
 17116  1  0  0  0  0
 18 19  1  0  0  0  0
 19 20  2  0  0  0  0
 19 16  1  0  0  0  0
 20 21  1  0  0  0  0
 21 17  2  0  0  0  0
 22 23  1  0  0  0  0
 22117  1  0  0  0  0
 22118  1  0  0  0  0
 23 24  1  0  0  0  0
 23119  1  0  0  0  0
 23120  1  0  0  0  0
 24 25  1  0  0  0  0
 24 27  1  0  0  0  0
 25 37  1  0  0  0  0
 25 26  2  0  0  0  0
 26 22  1  0  0  0  0
 26121  1  0  0  0  0
 27 21  1  0  0  0  0
 27 28  2  0  0  0  0
 30122  1  0  0  0  0
 31 32  1  0  0  0  0
 31  8  1  0  0  0  0
 32123  1  0  0  0  0
 32124  1  0  0  0  0
 32125  1  0  0  0  0
 33126  1  0  0  0  0
 33127  1  0  0  0  0
 33128  1  0  0  0  0
 34 35  1  0  0  0  0
 34 36  1  0  0  0  0
 34129  1  0  0  0  0
 35130  1  0  0  0  0
 35131  1  0  0  0  0
 35132  1  0  0  0  0
 36133  1  0  0  0  0
 36134  1  0  0  0  0
 36135  1  0  0  0  0
 37 38  2  0  0  0  0
 39 40  1  0  0  0  0
 39136  1  0  0  0  0
 39137  1  0  0  0  0
 39138  1  0  0  0  0
 40139  1  0  0  0  0
 40140  1  0  0  0  0
 41 40  1  0  0  0  0
 41 42  1  0  0  0  0
 41 97  1  0  0  0  0
 41141  1  1  0  0  0
 42142  1  0  0  0  0
 43 44  1  0  0  0  0
 43100  1  1  0  0  0
 44 45  1  0  0  0  0
 45 46  1  0  0  0  0
 45143  1  0  0  0  0
 45144  1  0  0  0  0
 46 47  1  0  0  0  0
 46145  1  0  0  0  0
 46146  1  0  0  0  0
 47 43  1  0  0  0  0
 47147  1  0  0  0  0
 47148  1  0  0  0  0
 48 49  2  0  0  0  0
 48149  1  0  0  0  0
 49 50  1  0  0  0  0
 49150  1  0  0  0  0
 50 51  2  0  0  0  0
 51 52  1  0  0  0  0
 51151  1  0  0  0  0
 52 53  2  0  0  0  0
 52152  1  0  0  0  0
 53 48  1  0  0  0  0
 53153  1  0  0  0  0
 54 55  2  0  0  0  0
 55 56  1  0  0  0  0
 55154  1  0  0  0  0
 56 57  2  0  0  0  0
 56155  1  0  0  0  0
 57 58  1  0  0  0  0
 57156  1  0  0  0  0
 58 59  2  0  0  0  0
 58 63  1  0  0  0  0
 59 54  1  0  0  0  0
 59 60  1  0  0  0  0
 60 61  1  0  0  0  0
 60 62  2  0  0  0  0
 61157  1  0  0  0  0
 63158  1  0  0  0  0
 64 65  2  0  0  0  0
 64159  1  0  0  0  0
 65 66  1  0  0  0  0
 65160  1  0  0  0  0
 66 67  2  0  0  0  0
 66161  1  0  0  0  0
 67 68  1  0  0  0  0
 67162  1  0  0  0  0
 68 69  2  0  0  0  0
 68163  1  0  0  0  0
 69 64  1  0  0  0  0
 70 69  1  0  0  0  0
 70 71  1  0  0  0  0
 70164  1  1  0  0  0
 71 72  1  0  0  0  0
 71 89  2  0  0  0  0
 72 73  1  0  0  0  0
 73 74  1  0  0  0  0
 73 90  1  0  0  0  0
 73165  1  1  0  0  0
 74 75  1  0  0  0  0
 74 61  1  0  0  0  0
 74166  1  6  0  0  0
 75 76  2  0  0  0  0
 75 42  1  0  0  0  0
 77 78  1  0  0  0  0
 77 82  1  0  0  0  0
 77 86  1  0  0  0  0
 78 79  1  0  0  0  0
 78 99  1  1  0  0  0
 79 80  1  0  0  0  0
 79 88  2  0  0  0  0
 80 70  1  0  0  0  0
 80167  1  0  0  0  0
 81 82  2  0  0  0  0
 82 91  1  0  0  0  0
 83 84  1  0  0  0  0
 83 86  1  0  0  0  0
 83168  1  0  0  0  0
 83169  1  0  0  0  0
 84 85  1  0  0  0  0
 84 87  2  0  0  0  0
 85 78  1  0  0  0  0
 85170  1  0  0  0  0
 85171  1  0  0  0  0
 86172  1  0  0  0  0
 86173  1  0  0  0  0
 90174  1  0  0  0  0
 90175  1  0  0  0  0
 90176  1  0  0  0  0
 91 92  1  0  0  0  0
 91 95  1  0  0  0  0
 91177  1  1  0  0  0
 92 93  1  0  0  0  0
 92 96  1  0  0  0  0
 93 94  2  0  0  0  0
 93 43  1  0  0  0  0
 95 50  1  0  0  0  0
 95178  1  0  0  0  0
 95179  1  0  0  0  0
 96180  1  0  0  0  0
 96181  1  0  0  0  0
 96182  1  0  0  0  0
 97 98  2  0  0  0  0
 97 44  1  0  0  0  0
M  END
>  <DRUGBANK_ID>
DB11476

>  <COMMON_NAME>
Virginiamycin

>  <CAS_NUMBER>
11006-76-1

>  <UNII>
C49WS9N75L

>  <SYNONYMS>
Virginiamicina; Virginiamycin; Virginiamycine; Virginiamycinum

$$$$
