
 OpenBabel10282417072D

 64 63  0  0  0  0  0  0  0  0999 V2000
   -5.0066    0.2032    0.0000 N   0  0  0  0  0  0  0  0  0  0  0  0
   -7.8670    0.1913    0.0000 N   0  0  0  0  0  0  0  0  0  0  0  0
   -6.4368    0.1972    0.0000 C   0  0  0  0  0  0  0  0  0  0  0  0
   -5.7187   -0.2132    0.0000 C   0  0  0  0  0  0  0  0  0  0  0  0
   -7.1489   -0.2191    0.0000 C   0  0  0  0  0  0  0  0  0  0  0  0
   -4.2884   -0.2074    0.0000 C   0  0  0  0  0  0  0  0  0  0  0  0
   -2.8582   -0.2014    0.0000 C   0  0  0  0  0  0  0  0  0  0  0  0
   -3.5763    0.2091    0.0000 C   0  0  0  0  0  0  0  0  0  0  0  0
    7.1558   -0.1761    0.0000 C   0  0  0  0  0  0  0  0  0  0  0  0
    7.1602   -1.0011    0.0000 N   0  0  0  0  0  0  0  0  0  0  0  0
    6.4367    0.2327    0.0000 N   0  0  0  0  0  0  0  0  0  0  0  0
    7.8670    0.2419    0.0000 N   0  0  0  0  0  0  0  0  0  0  0  0
    5.7256   -0.1853    0.0000 C   0  0  0  0  0  0  0  0  0  0  0  0
    5.0065    0.2234    0.0000 C   0  0  0  0  0  0  0  0  0  0  0  0
    3.5763    0.2141    0.0000 C   0  0  0  0  0  0  0  0  0  0  0  0
    4.2954   -0.1946    0.0000 C   0  0  0  0  0  0  0  0  0  0  0  0
    0.7186    0.2075    0.0000 N   0  0  0  0  0  0  0  0  0  0  0  0
    0.0051   -0.2065    0.0000 C   0  0  2  0  0  0  0  0  0  0  0  0
   -0.7115    0.2065    0.0000 C   0  0  0  0  0  0  0  0  0  0  0  0
    1.4354   -0.2055    0.0000 C   0  0  0  0  0  0  0  0  0  0  0  0
   -0.7111    1.0314    0.0000 O   0  0  0  0  0  0  0  0  0  0  0  0
    1.4349   -1.0304    0.0000 O   0  0  0  0  0  0  0  0  0  0  0  0
   -1.4250   -0.2075    0.0000 N   0  0  0  0  0  0  0  0  0  0  0  0
    0.0047   -1.0314    0.0000 O   0  0  0  0  0  0  0  0  0  0  0  0
    2.1489    0.2085    0.0000 C   0  0  0  0  0  0  0  0  0  0  0  0
   -2.1417    0.2055    0.0000 C   0  0  0  0  0  0  0  0  0  0  0  0
    2.8656   -0.2045    0.0000 C   0  0  0  0  0  0  0  0  0  0  0  0
   -5.0116    1.2232    0.0000 H   0  0  0  0  0  0  0  0  0  0  0  0
   -7.8715    1.2113    0.0000 H   0  0  0  0  0  0  0  0  0  0  0  0
   -8.7481   -0.3226    0.0000 H   0  0  0  0  0  0  0  0  0  0  0  0
   -6.4421    1.2672    0.0000 H   0  0  0  0  0  0  0  0  0  0  0  0
   -7.3662    0.7274    0.0000 H   0  0  0  0  0  0  0  0  0  0  0  0
   -5.7134   -1.2832    0.0000 H   0  0  0  0  0  0  0  0  0  0  0  0
   -4.7893   -0.7433    0.0000 H   0  0  0  0  0  0  0  0  0  0  0  0
   -7.1436   -1.2891    0.0000 H   0  0  0  0  0  0  0  0  0  0  0  0
   -6.2195   -0.7493    0.0000 H   0  0  0  0  0  0  0  0  0  0  0  0
   -4.2831   -1.2774    0.0000 H   0  0  0  0  0  0  0  0  0  0  0  0
   -3.3589   -0.7375    0.0000 H   0  0  0  0  0  0  0  0  0  0  0  0
   -2.8597   -1.2714    0.0000 H   0  0  0  0  0  0  0  0  0  0  0  0
   -1.9338   -0.7403    0.0000 H   0  0  0  0  0  0  0  0  0  0  0  0
   -3.5816    1.2791    0.0000 H   0  0  0  0  0  0  0  0  0  0  0  0
   -2.6521    0.7484    0.0000 H   0  0  0  0  0  0  0  0  0  0  0  0
    6.3102   -1.4979    0.0000 H   0  0  0  0  0  0  0  0  0  0  0  0
    6.4296    1.2172    0.0000 H   0  0  0  0  0  0  0  0  0  0  0  0
    8.7234   -0.2437    0.0000 H   0  0  0  0  0  0  0  0  0  0  0  0
    7.8594    1.2264    0.0000 H   0  0  0  0  0  0  0  0  0  0  0  0
    5.7334   -1.2553    0.0000 H   0  0  0  0  0  0  0  0  0  0  0  0
    6.6563   -0.7133    0.0000 H   0  0  0  0  0  0  0  0  0  0  0  0
    4.9987    1.2934    0.0000 H   0  0  0  0  0  0  0  0  0  0  0  0
    4.0758    0.7514    0.0000 H   0  0  0  0  0  0  0  0  0  0  0  0
    3.5680    1.2841    0.0000 H   0  0  0  0  0  0  0  0  0  0  0  0
    2.6453    0.7415    0.0000 H   0  0  0  0  0  0  0  0  0  0  0  0
    4.3032   -1.2646    0.0000 H   0  0  0  0  0  0  0  0  0  0  0  0
    3.3725   -0.7361    0.0000 H   0  0  0  0  0  0  0  0  0  0  0  0
    0.7171    1.1920    0.0000 H   0  0  0  0  0  0  0  0  0  0  0  0
    0.9322   -0.7407    0.0000 H   0  0  0  0  0  0  0  0  0  0  0  0
   -1.4235   -1.1920    0.0000 H   0  0  0  0  0  0  0  0  0  0  0  0
   -0.8356   -1.5160    0.0000 H   0  0  0  0  0  0  0  0  0  0  0  0
    2.1473    1.2785    0.0000 H   0  0  0  0  0  0  0  0  0  0  0  0
    3.0749    0.7446    0.0000 H   0  0  0  0  0  0  0  0  0  0  0  0
   -2.1383    1.2755    0.0000 H   0  0  0  0  0  0  0  0  0  0  0  0
   -3.0656    0.7452    0.0000 H   0  0  0  0  0  0  0  0  0  0  0  0
    2.8707   -1.2745    0.0000 H   0  0  0  0  0  0  0  0  0  0  0  0
    3.7958   -0.7333    0.0000 H   0  0  0  0  0  0  0  0  0  0  0  0
  1  6  1  0  0  0  0
  1 28  1  0  0  0  0
  2  5  1  0  0  0  0
  2 29  1  0  0  0  0
  2 30  1  0  0  0  0
  3  4  1  0  0  0  0
  3 31  1  0  0  0  0
  3 32  1  0  0  0  0
  4  1  1  0  0  0  0
  4 33  1  0  0  0  0
  4 34  1  0  0  0  0
  5  3  1  0  0  0  0
  5 35  1  0  0  0  0
  5 36  1  0  0  0  0
  6  8  1  0  0  0  0
  6 37  1  0  0  0  0
  6 38  1  0  0  0  0
  7 39  1  0  0  0  0
  7 40  1  0  0  0  0
  8  7  1  0  0  0  0
  8 41  1  0  0  0  0
  8 42  1  0  0  0  0
  9 11  1  0  0  0  0
 10  9  2  0  0  0  0
 10 43  1  0  0  0  0
 11 13  1  0  0  0  0
 11 44  1  0  0  0  0
 12  9  1  0  0  0  0
 12 45  1  0  0  0  0
 12 46  1  0  0  0  0
 13 14  1  0  0  0  0
 13 47  1  0  0  0  0
 13 48  1  0  0  0  0
 14 16  1  0  0  0  0
 14 49  1  0  0  0  0
 14 50  1  0  0  0  0
 15 51  1  0  0  0  0
 15 52  1  0  0  0  0
 16 15  1  0  0  0  0
 16 53  1  0  0  0  0
 16 54  1  0  0  0  0
 17 55  1  0  0  0  0
 18 17  1  0  0  0  0
 18 24  1  0  0  0  0
 18 56  1  6  0  0  0
 19 18  1  0  0  0  0
 20 17  1  0  0  0  0
 21 19  2  0  0  0  0
 22 20  2  0  0  0  0
 23 19  1  0  0  0  0
 23 57  1  0  0  0  0
 24 58  1  0  0  0  0
 25 20  1  0  0  0  0
 25 59  1  0  0  0  0
 25 60  1  0  0  0  0
 26 23  1  0  0  0  0
 26  7  1  0  0  0  0
 26 61  1  0  0  0  0
 26 62  1  0  0  0  0
 27 25  1  0  0  0  0
 27 15  1  0  0  0  0
 27 63  1  0  0  0  0
 27 64  1  0  0  0  0
M  END
>  <DRUGBANK_ID>
DB12991

>  <COMMON_NAME>
Deoxyspergualin

>  <CAS_NUMBER>
89149-10-0

>  <UNII>
57F9XM233R

>  <SYNONYMS>
(-)-Gusperimus; 15-Desoxyspergualin; Deoxyspergualin

$$$$
