ABW
 OpenBabel10282417072D

 44 44  0  0  0  0  0  0  0  0999 V2000
   -0.2295   -1.2780    0.0000 C   0  0  1  0  0  0  0  0  0  0  0  0
    0.4379   -0.7930    0.0000 C   0  0  1  0  0  0  0  0  0  0  0  0
    1.1054   -1.2780    0.0000 O   0  0  0  0  0  0  0  0  0  0  0  0
    0.8504   -2.0626    0.0000 C   0  0  2  0  0  0  0  0  0  0  0  0
    0.0254   -2.0626    0.0000 C   0  0  0  0  0  0  0  0  0  0  0  0
    1.3353   -2.7300    0.0000 C   0  0  0  0  0  0  0  0  0  0  0  0
    0.9998   -3.4837    0.0000 O   0  0  0  0  0  0  0  0  0  0  0  0
    2.1558   -2.6438    0.0000 O   0  0  0  0  0  0  0  0  0  0  0  0
   -0.2766    0.4445    0.0000 N   0  0  0  0  0  0  0  0  0  0  0  0
   -0.2766    1.2695    0.0000 C   0  0  0  0  0  0  0  0  0  0  0  0
   -0.9910    1.6820    0.0000 C   0  0  0  0  0  0  0  0  0  0  0  0
    0.4379    1.6820    0.0000 O   0  0  0  0  0  0  0  0  0  0  0  0
    0.4379    0.0320    0.0000 C   0  0  1  0  0  0  0  0  0  0  0  0
    1.1524    0.4445    0.0000 C   0  0  0  0  0  0  0  0  0  0  0  0
    1.1524    1.2695    0.0000 C   0  0  0  0  0  0  0  0  0  0  0  0
    0.8168    2.0231    0.0000 C   0  0  0  0  0  0  0  0  0  0  0  0
    1.8669    1.6820    0.0000 C   0  0  0  0  0  0  0  0  0  0  0  0
   -1.0141   -1.0230    0.0000 C   0  0  0  0  0  0  0  0  0  0  0  0
   -1.1857   -0.2161    0.0000 O   0  0  0  0  0  0  0  0  0  0  0  0
   -1.6272   -1.5751    0.0000 O   0  0  0  0  0  0  0  0  0  0  0  0
   -2.4119   -1.3201    0.0000 C   0  0  0  0  0  0  0  0  0  0  0  0
   -0.5126   -0.7673    0.0000 H   0  0  0  0  0  0  0  0  0  0  0  0
    0.2098   -0.2555    0.0000 H   0  0  0  0  0  0  0  0  0  0  0  0
    1.4272   -1.9712    0.0000 H   0  0  0  0  0  0  0  0  0  0  0  0
   -0.1371   -0.0694    0.0000 H   0  0  0  0  0  0  0  0  0  0  0  0
   -0.6035   -2.9282    0.0000 H   0  0  0  0  0  0  0  0  0  0  0  0
    0.5112   -3.0160    0.0000 H   0  0  0  0  0  0  0  0  0  0  0  0
    0.0679   -3.5817    0.0000 H   0  0  0  0  0  0  0  0  0  0  0  0
   -1.1292   -0.0478    0.0000 H   0  0  0  0  0  0  0  0  0  0  0  0
   -0.9910    2.7520    0.0000 H   0  0  0  0  0  0  0  0  0  0  0  0
   -1.9177    1.1470    0.0000 H   0  0  0  0  0  0  0  0  0  0  0  0
   -1.9176    2.2170    0.0000 H   0  0  0  0  0  0  0  0  0  0  0  0
    2.0790   -0.0905    0.0000 H   0  0  0  0  0  0  0  0  0  0  0  0
    2.0790    0.9795    0.0000 H   0  0  0  0  0  0  0  0  0  0  0  0
    1.4830    2.2871    0.0000 H   0  0  0  0  0  0  0  0  0  0  0  0
    1.4457    2.8888    0.0000 H   0  0  0  0  0  0  0  0  0  0  0  0
   -0.2473    2.1349    0.0000 H   0  0  0  0  0  0  0  0  0  0  0  0
    0.3815    3.0006    0.0000 H   0  0  0  0  0  0  0  0  0  0  0  0
    2.7935    1.1470    0.0000 H   0  0  0  0  0  0  0  0  0  0  0  0
    1.8669    2.7520    0.0000 H   0  0  0  0  0  0  0  0  0  0  0  0
    2.7936    2.2170    0.0000 H   0  0  0  0  0  0  0  0  0  0  0  0
   -2.6343   -0.2735    0.0000 H   0  0  0  0  0  0  0  0  0  0  0  0
   -3.2071   -2.0360    0.0000 H   0  0  0  0  0  0  0  0  0  0  0  0
   -3.4295   -0.9894    0.0000 H   0  0  0  0  0  0  0  0  0  0  0  0
  1  2  1  0  0  0  0
  1  5  1  0  0  0  0
  1 18  1  0  0  0  0
  1 22  1  6  0  0  0
  2  3  1  0  0  0  0
  2 13  1  0  0  0  0
  2 23  1  1  0  0  0
  3  4  1  0  0  0  0
  4  5  1  0  0  0  0
  4  6  1  0  0  0  0
  4 24  1  6  0  0  0
  5 26  1  0  0  0  0
  5 27  1  0  0  0  0
  6  7  1  0  0  0  0
  6  8  2  0  0  0  0
  7 28  1  0  0  0  0
  9 10  1  0  0  0  0
  9 29  1  0  0  0  0
 10 11  1  0  0  0  0
 10 12  2  0  0  0  0
 11 30  1  0  0  0  0
 11 31  1  0  0  0  0
 11 32  1  0  0  0  0
 13  9  1  0  0  0  0
 13 14  1  0  0  0  0
 13 25  1  6  0  0  0
 14 15  1  0  0  0  0
 14 33  1  0  0  0  0
 14 34  1  0  0  0  0
 15 16  1  0  0  0  0
 15 17  1  0  0  0  0
 15 35  1  0  0  0  0
 16 36  1  0  0  0  0
 16 37  1  0  0  0  0
 16 38  1  0  0  0  0
 17 39  1  0  0  0  0
 17 40  1  0  0  0  0
 17 41  1  0  0  0  0
 18 19  2  0  0  0  0
 18 20  1  0  0  0  0
 20 21  1  0  0  0  0
 21 42  1  0  0  0  0
 21 43  1  0  0  0  0
 21 44  1  0  0  0  0
M  END
>  <DRUGBANK_ID>
DB03257

>  <SECONDARY_ACCESSION_NUMBERS>
EXPT00403

>  <COMMON_NAME>
5-[1-(Acetylamino)-3-Methylbutyl]-2,5-Anhydro-3,4-Dideoxy-4-(Methoxycarbonyl)Pentonic Acid

$$$$
