
 OpenBabel10282417072D

 31 33  0  0  0  0  0  0  0  0999 V2000
   -2.3176    0.2634    0.0000 C   0  0  0  0  0  0  0  0  0  0  0  0
   -2.1581   -0.5432    0.0000 C   0  0  0  0  0  0  0  0  0  0  0  0
   -1.3811   -0.8067    0.0000 C   0  0  0  0  0  0  0  0  0  0  0  0
   -1.7040    0.8039    0.0000 C   0  0  0  0  0  0  0  0  0  0  0  0
   -0.7667   -0.2652    0.0000 C   0  0  0  0  0  0  0  0  0  0  0  0
   -0.9271    0.5441    0.0000 C   0  0  0  0  0  0  0  0  0  0  0  0
   -0.3929    1.1802    0.0000 C   0  0  0  0  0  0  0  0  0  0  0  0
   -0.0279   -0.6450    0.0000 N   0  0  0  0  0  0  0  0  0  0  0  0
    0.4344    1.1626    0.0000 C   0  0  0  0  0  0  0  0  0  0  0  0
    0.9316    0.5009    0.0000 C   0  0  0  0  0  0  0  0  0  0  0  0
    0.7291   -0.3017    0.0000 C   0  0  0  0  0  0  0  0  0  0  0  0
    1.3225   -0.8763    0.0000 C   0  0  0  0  0  0  0  0  0  0  0  0
    2.1184   -0.6493    0.0000 C   0  0  0  0  0  0  0  0  0  0  0  0
    2.3176    0.1573    0.0000 C   0  0  0  0  0  0  0  0  0  0  0  0
    1.7227    0.7282    0.0000 C   0  0  0  0  0  0  0  0  0  0  0  0
   -0.0481   -1.4647    0.0000 C   0  0  0  0  0  0  0  0  0  0  0  0
   -0.7679   -1.8572    0.0000 N   0  0  0  0  0  0  0  0  0  0  0  0
    0.6515   -1.8922    0.0000 O   0  0  0  0  0  0  0  0  0  0  0  0
    0.8085    1.8922    0.0000 O   0  0  0  0  0  0  0  0  0  0  0  0
   -3.2950    0.5946    0.0000 H   0  0  0  0  0  0  0  0  0  0  0  0
   -2.9343   -1.2233    0.0000 H   0  0  0  0  0  0  0  0  0  0  0  0
   -1.1784   -1.8186    0.0000 H   0  0  0  0  0  0  0  0  0  0  0  0
   -1.9087    1.8154    0.0000 H   0  0  0  0  0  0  0  0  0  0  0  0
   -0.8346    2.1548    0.0000 H   0  0  0  0  0  0  0  0  0  0  0  0
    0.1964    2.0733    0.0000 H   0  0  0  0  0  0  0  0  0  0  0  0
    1.0714   -1.8773    0.0000 H   0  0  0  0  0  0  0  0  0  0  0  0
    2.8610   -1.3659    0.0000 H   0  0  0  0  0  0  0  0  0  0  0  0
    3.3089    0.4444    0.0000 H   0  0  0  0  0  0  0  0  0  0  0  0
    1.9705    1.7300    0.0000 H   0  0  0  0  0  0  0  0  0  0  0  0
   -1.6082   -1.3443    0.0000 H   0  0  0  0  0  0  0  0  0  0  0  0
   -0.7919   -2.8414    0.0000 H   0  0  0  0  0  0  0  0  0  0  0  0
  1  2  2  0  0  0  0
  1 20  1  0  0  0  0
  2  3  1  0  0  0  0
  2 21  1  0  0  0  0
  3  5  2  0  0  0  0
  3 22  1  0  0  0  0
  4  1  1  0  0  0  0
  4 23  1  0  0  0  0
  5  6  1  0  0  0  0
  5  8  1  0  0  0  0
  6  7  1  0  0  0  0
  6  4  2  0  0  0  0
  7  9  1  0  0  0  0
  7 24  1  0  0  0  0
  7 25  1  0  0  0  0
  8 11  1  0  0  0  0
  8 16  1  0  0  0  0
  9 10  1  0  0  0  0
  9 19  2  0  0  0  0
 10 11  2  0  0  0  0
 11 12  1  0  0  0  0
 12 13  2  0  0  0  0
 12 26  1  0  0  0  0
 13 14  1  0  0  0  0
 13 27  1  0  0  0  0
 14 15  2  0  0  0  0
 14 28  1  0  0  0  0
 15 10  1  0  0  0  0
 15 29  1  0  0  0  0
 16 17  1  0  0  0  0
 16 18  2  0  0  0  0
 17 30  1  0  0  0  0
 17 31  1  0  0  0  0
M  END
>  <DRUGBANK_ID>
DB00776

>  <SECONDARY_ACCESSION_NUMBERS>
APRD01308

>  <COMMON_NAME>
Oxcarbazepine

>  <CAS_NUMBER>
28721-07-5

>  <UNII>
VZI5B1W380

>  <SYNONYMS>
10,11-Dihydro-10-oxo-5H-dibenz(b,f)azepine-5-carboxamide; OCBZ; Oxcarbamazepine; Oxcarbazepina; Oxcarbazepine; Oxcarbazepinum

$$$$
