DPT
 OpenBabel10282417072D

 28 30  0  0  0  0  0  0  0  0999 V2000
   -0.6095   -1.3124    0.0000 N   0  0  0  0  0  0  0  0  0  0  0  0
   -1.4345   -1.3124    0.0000 C   0  0  0  0  0  0  0  0  0  0  0  0
   -1.8470   -0.5980    0.0000 C   0  0  0  0  0  0  0  0  0  0  0  0
   -1.4345    0.1165    0.0000 C   0  0  0  0  0  0  0  0  0  0  0  0
   -0.6095    0.1165    0.0000 C   0  0  0  0  0  0  0  0  0  0  0  0
   -0.1970    0.8310    0.0000 C   0  0  0  0  0  0  0  0  0  0  0  0
    0.6280    0.8310    0.0000 C   0  0  0  0  0  0  0  0  0  0  0  0
    1.0405    0.1165    0.0000 C   0  0  0  0  0  0  0  0  0  0  0  0
    1.8655    0.1165    0.0000 C   0  0  0  0  0  0  0  0  0  0  0  0
    2.2780   -0.5980    0.0000 C   0  0  0  0  0  0  0  0  0  0  0  0
    1.8655   -1.3124    0.0000 C   0  0  0  0  0  0  0  0  0  0  0  0
    1.0405   -1.3124    0.0000 N   0  0  0  0  0  0  0  0  0  0  0  0
    0.6280   -0.5980    0.0000 C   0  0  0  0  0  0  0  0  0  0  0  0
   -0.1970   -0.5980    0.0000 C   0  0  0  0  0  0  0  0  0  0  0  0
   -1.8470    0.8310    0.0000 C   0  0  0  0  0  0  0  0  0  0  0  0
    2.2780    0.8310    0.0000 C   0  0  0  0  0  0  0  0  0  0  0  0
   -1.9505   -2.2061    0.0000 H   0  0  0  0  0  0  0  0  0  0  0  0
   -2.8790   -0.5980    0.0000 H   0  0  0  0  0  0  0  0  0  0  0  0
   -0.7130    1.7247    0.0000 H   0  0  0  0  0  0  0  0  0  0  0  0
    1.1440    1.7247    0.0000 H   0  0  0  0  0  0  0  0  0  0  0  0
    3.3100   -0.5980    0.0000 H   0  0  0  0  0  0  0  0  0  0  0  0
    2.3815   -2.2061    0.0000 H   0  0  0  0  0  0  0  0  0  0  0  0
   -1.3120    1.7576    0.0000 H   0  0  0  0  0  0  0  0  0  0  0  0
   -2.9170    0.8310    0.0000 H   0  0  0  0  0  0  0  0  0  0  0  0
   -2.3820    1.7577    0.0000 H   0  0  0  0  0  0  0  0  0  0  0  0
    3.3480    0.8310    0.0000 H   0  0  0  0  0  0  0  0  0  0  0  0
    1.7430    1.7576    0.0000 H   0  0  0  0  0  0  0  0  0  0  0  0
    2.8130    1.7577    0.0000 H   0  0  0  0  0  0  0  0  0  0  0  0
  1  2  2  0  0  0  0
  1 14  1  0  0  0  0
  2  3  1  0  0  0  0
  2 17  1  0  0  0  0
  3  4  2  0  0  0  0
  3 18  1  0  0  0  0
  4  5  1  0  0  0  0
  4 15  1  0  0  0  0
  5  6  2  0  0  0  0
  5 14  1  0  0  0  0
  6  7  1  0  0  0  0
  6 19  1  0  0  0  0
  7  8  2  0  0  0  0
  7 20  1  0  0  0  0
  8  9  1  0  0  0  0
  8 13  1  0  0  0  0
  9 10  2  0  0  0  0
  9 16  1  0  0  0  0
 10 11  1  0  0  0  0
 10 21  1  0  0  0  0
 11 12  2  0  0  0  0
 11 22  1  0  0  0  0
 12 13  1  0  0  0  0
 13 14  2  0  0  0  0
 15 23  1  0  0  0  0
 15 24  1  0  0  0  0
 15 25  1  0  0  0  0
 16 26  1  0  0  0  0
 16 27  1  0  0  0  0
 16 28  1  0  0  0  0
M  END
>  <DRUGBANK_ID>
DB02586

>  <SECONDARY_ACCESSION_NUMBERS>
EXPT01261

>  <COMMON_NAME>
4,7-Dimethyl-[1,10]Phenanthroline

>  <CAS_NUMBER>
3248-05-3

>  <UNII>
P3YJ54Z8ZO

$$$$
