
 OpenBabel10282417072D

105105  0  0  1  0  0  0  0  0999 V2000
    7.8592   -5.3625    0.0000 C   0  0  0  0  0  0  0  0  0  0  0  0
    8.5737   -4.9500    0.0000 C   0  0  0  0  0  0  0  0  0  0  0  0
    9.2881   -5.3625    0.0000 C   0  0  0  0  0  0  0  0  0  0  0  0
   10.0026   -4.9500    0.0000 C   0  0  0  0  0  0  0  0  0  0  0  0
   10.7171   -5.3625    0.0000 C   0  0  0  0  0  0  0  0  0  0  0  0
   11.4315   -4.9500    0.0000 C   0  0  2  0  0  0  0  0  0  0  0  0
   12.1460   -5.3625    0.0000 C   0  0  2  0  0  0  0  0  0  0  0  0
   12.8605   -4.9500    0.0000 C   0  0  2  0  0  0  0  0  0  0  0  0
   12.8605   -4.1250    0.0000 C   0  0  0  0  0  0  0  0  0  0  0  0
   13.5749   -3.7125    0.0000 C   0  0  2  0  0  0  0  0  0  0  0  0
   13.5749   -2.8875    0.0000 C   0  0  0  0  0  0  0  0  0  0  0  0
   14.2894   -2.4750    0.0000 C   0  0  2  0  0  0  0  0  0  0  0  0
   14.2894   -1.6500    0.0000 C   0  0  0  0  0  0  0  0  0  0  0  0
   15.0039   -1.2375    0.0000 C   0  0  2  0  0  0  0  0  0  0  0  0
   15.0039   -0.4125    0.0000 C   0  0  0  0  0  0  0  0  0  0  0  0
   15.7184   -0.0000    0.0000 C   0  0  2  0  0  0  0  0  0  0  0  0
   16.4328   -0.4125    0.0000 C   0  0  0  0  0  0  0  0  0  0  0  0
   17.1473   -0.0000    0.0000 C   0  0  2  0  0  0  0  0  0  0  0  0
   17.8618   -0.4125    0.0000 C   0  0  2  0  0  0  0  0  0  0  0  0
   17.8618   -1.2375    0.0000 C   0  0  1  0  0  0  0  0  0  0  0  0
   17.1473   -1.6500    0.0000 C   0  0  0  0  0  0  0  0  0  0  0  0
   17.1473   -2.4750    0.0000 C   0  0  0  0  0  0  0  0  0  0  0  0
   16.4328   -2.8875    0.0000 C   0  0  0  0  0  0  0  0  0  0  0  0
   16.4328   -3.7125    0.0000 C   0  0  0  0  0  0  0  0  0  0  0  0
   15.7184   -4.1250    0.0000 C   0  0  0  0  0  0  0  0  0  0  0  0
   15.7184   -4.9500    0.0000 C   0  0  0  0  0  0  0  0  0  0  0  0
   15.0039   -5.3625    0.0000 C   0  0  0  0  0  0  0  0  0  0  0  0
   15.0039   -6.1875    0.0000 C   0  0  0  0  0  0  0  0  0  0  0  0
   14.2894   -6.6000    0.0000 C   0  0  0  0  0  0  0  0  0  0  0  0
   14.2894   -7.4250    0.0000 C   0  0  0  0  0  0  0  0  0  0  0  0
   13.5749   -7.8375    0.0000 C   0  0  1  0  0  0  0  0  0  0  0  0
   12.8605   -7.4250    0.0000 C   0  0  2  0  0  0  0  0  0  0  0  0
   12.8605   -6.6000    0.0000 O   0  0  0  0  0  0  0  0  0  0  0  0
   12.1460   -6.1875    0.0000 C   0  0  0  0  0  0  0  0  0  0  0  0
   11.4315   -6.6000    0.0000 O   0  0  0  0  0  0  0  0  0  0  0  0
   12.1460   -7.8375    0.0000 C   0  0  0  0  0  0  0  0  0  0  0  0
   13.5749   -8.6625    0.0000 O   0  0  0  0  0  0  0  0  0  0  0  0
   16.4328   -1.2375    0.0000 C   0  0  0  0  0  0  0  0  0  0  0  0
   18.5762   -1.6500    0.0000 O   0  0  0  0  0  0  0  0  0  0  0  0
   18.5762   -0.0000    0.0000 O   0  0  0  0  0  0  0  0  0  0  0  0
   17.1473    0.8250    0.0000 O   0  0  0  0  0  0  0  0  0  0  0  0
   15.7184    0.8250    0.0000 O   0  0  0  0  0  0  0  0  0  0  0  0
   15.7184   -1.6500    0.0000 O   0  0  0  0  0  0  0  0  0  0  0  0
   15.0039   -2.8875    0.0000 O   0  0  0  0  0  0  0  0  0  0  0  0
   14.2894   -4.1250    0.0000 O   0  0  0  0  0  0  0  0  0  0  0  0
   13.5749   -5.3625    0.0000 O   0  0  0  0  0  0  0  0  0  0  0  0
   11.4315   -4.1250    0.0000 O   0  0  0  0  0  0  0  0  0  0  0  0
    6.9326   -4.8275    0.0000 H   0  0  0  0  0  0  0  0  0  0  0  0
    7.8592   -6.4325    0.0000 H   0  0  0  0  0  0  0  0  0  0  0  0
    6.9325   -5.8975    0.0000 H   0  0  0  0  0  0  0  0  0  0  0  0
    8.5737   -3.8800    0.0000 H   0  0  0  0  0  0  0  0  0  0  0  0
    9.5004   -4.4150    0.0000 H   0  0  0  0  0  0  0  0  0  0  0  0
    9.2881   -6.4325    0.0000 H   0  0  0  0  0  0  0  0  0  0  0  0
   10.2147   -5.8975    0.0000 H   0  0  0  0  0  0  0  0  0  0  0  0
   10.0026   -3.8800    0.0000 H   0  0  0  0  0  0  0  0  0  0  0  0
   10.9292   -4.4150    0.0000 H   0  0  0  0  0  0  0  0  0  0  0  0
   10.7171   -6.4325    0.0000 H   0  0  0  0  0  0  0  0  0  0  0  0
   11.6438   -5.8975    0.0000 H   0  0  0  0  0  0  0  0  0  0  0  0
   10.5048   -4.4150    0.0000 H   0  0  0  0  0  0  0  0  0  0  0  0
   12.1460   -4.2925    0.0000 H   0  0  0  0  0  0  0  0  0  0  0  0
   12.8605   -6.0200    0.0000 H   0  0  0  0  0  0  0  0  0  0  0  0
   11.9338   -3.5900    0.0000 H   0  0  0  0  0  0  0  0  0  0  0  0
   12.8605   -3.0550    0.0000 H   0  0  0  0  0  0  0  0  0  0  0  0
   13.5749   -4.7825    0.0000 H   0  0  0  0  0  0  0  0  0  0  0  0
   12.6483   -2.3525    0.0000 H   0  0  0  0  0  0  0  0  0  0  0  0
   13.5749   -1.8175    0.0000 H   0  0  0  0  0  0  0  0  0  0  0  0
   14.2894   -3.5450    0.0000 H   0  0  0  0  0  0  0  0  0  0  0  0
   13.3628   -1.1150    0.0000 H   0  0  0  0  0  0  0  0  0  0  0  0
   14.2894   -0.5800    0.0000 H   0  0  0  0  0  0  0  0  0  0  0  0
   15.0039   -2.3075    0.0000 H   0  0  0  0  0  0  0  0  0  0  0  0
   14.0773    0.1225    0.0000 H   0  0  0  0  0  0  0  0  0  0  0  0
   15.0039    0.6575    0.0000 H   0  0  0  0  0  0  0  0  0  0  0  0
   14.7918    0.5350    0.0000 H   0  0  0  0  0  0  0  0  0  0  0  0
   16.4328   -1.4825    0.0000 H   0  0  0  0  0  0  0  0  0  0  0  0
   17.3594   -0.9475    0.0000 H   0  0  0  0  0  0  0  0  0  0  0  0
   16.2207    0.5350    0.0000 H   0  0  0  0  0  0  0  0  0  0  0  0
   17.8618    0.6575    0.0000 H   0  0  0  0  0  0  0  0  0  0  0  0
   18.7885   -0.7025    0.0000 H   0  0  0  0  0  0  0  0  0  0  0  0
   18.0410   -2.9910    0.0000 H   0  0  0  0  0  0  0  0  0  0  0  0
   15.5391   -2.3715    0.0000 H   0  0  0  0  0  0  0  0  0  0  0  0
   17.3265   -4.2285    0.0000 H   0  0  0  0  0  0  0  0  0  0  0  0
   14.8247   -3.6090    0.0000 H   0  0  0  0  0  0  0  0  0  0  0  0
   16.6121   -5.4660    0.0000 H   0  0  0  0  0  0  0  0  0  0  0  0
   14.1102   -4.8465    0.0000 H   0  0  0  0  0  0  0  0  0  0  0  0
   15.8976   -6.7035    0.0000 H   0  0  0  0  0  0  0  0  0  0  0  0
   13.3957   -6.0840    0.0000 H   0  0  0  0  0  0  0  0  0  0  0  0
   15.1831   -7.9410    0.0000 H   0  0  0  0  0  0  0  0  0  0  0  0
   14.5015   -8.3725    0.0000 H   0  0  0  0  0  0  0  0  0  0  0  0
   12.8605   -8.4950    0.0000 H   0  0  0  0  0  0  0  0  0  0  0  0
   11.2194   -7.3025    0.0000 H   0  0  0  0  0  0  0  0  0  0  0  0
   12.1460   -8.9075    0.0000 H   0  0  0  0  0  0  0  0  0  0  0  0
   11.2193   -8.3725    0.0000 H   0  0  0  0  0  0  0  0  0  0  0  0
   12.7349   -9.1475    0.0000 H   0  0  0  0  0  0  0  0  0  0  0  0
   16.4328   -0.1675    0.0000 H   0  0  0  0  0  0  0  0  0  0  0  0
   15.5062   -1.7725    0.0000 H   0  0  0  0  0  0  0  0  0  0  0  0
   15.5061   -0.7025    0.0000 H   0  0  0  0  0  0  0  0  0  0  0  0
   18.5762   -2.6200    0.0000 H   0  0  0  0  0  0  0  0  0  0  0  0
   19.4163   -0.4850    0.0000 H   0  0  0  0  0  0  0  0  0  0  0  0
   17.9873    1.3100    0.0000 H   0  0  0  0  0  0  0  0  0  0  0  0
   16.5584    1.3100    0.0000 H   0  0  0  0  0  0  0  0  0  0  0  0
   15.7184   -2.6200    0.0000 H   0  0  0  0  0  0  0  0  0  0  0  0
   15.0039   -3.8575    0.0000 H   0  0  0  0  0  0  0  0  0  0  0  0
   14.2894   -5.0950    0.0000 H   0  0  0  0  0  0  0  0  0  0  0  0
   13.5749   -6.3325    0.0000 H   0  0  0  0  0  0  0  0  0  0  0  0
   12.2715   -3.6400    0.0000 H   0  0  0  0  0  0  0  0  0  0  0  0
  1  2  1  0  0  0  0
  1 48  1  0  0  0  0
  1 49  1  0  0  0  0
  1 50  1  0  0  0  0
  2  3  1  0  0  0  0
  2 51  1  0  0  0  0
  2 52  1  0  0  0  0
  3  4  1  0  0  0  0
  3 53  1  0  0  0  0
  3 54  1  0  0  0  0
  4  5  1  0  0  0  0
  4 55  1  0  0  0  0
  4 56  1  0  0  0  0
  5  6  1  0  0  0  0
  5 57  1  0  0  0  0
  5 58  1  0  0  0  0
  6 47  1  0  0  0  0
  6 59  1  6  0  0  0
  7  6  1  0  0  0  0
  7  8  1  0  0  0  0
  7 34  1  0  0  0  0
  7 60  1  1  0  0  0
  8  9  1  0  0  0  0
  8 46  1  0  0  0  0
  8 61  1  1  0  0  0
  9 10  1  0  0  0  0
  9 62  1  0  0  0  0
  9 63  1  0  0  0  0
 10 11  1  0  0  0  0
 10 45  1  0  0  0  0
 10 64  1  1  0  0  0
 11 12  1  0  0  0  0
 11 65  1  0  0  0  0
 11 66  1  0  0  0  0
 12 13  1  0  0  0  0
 12 44  1  0  0  0  0
 12 67  1  1  0  0  0
 13 14  1  0  0  0  0
 13 68  1  0  0  0  0
 13 69  1  0  0  0  0
 14 15  1  0  0  0  0
 14 43  1  0  0  0  0
 14 70  1  1  0  0  0
 15 16  1  0  0  0  0
 15 71  1  0  0  0  0
 15 72  1  0  0  0  0
 16 17  1  0  0  0  0
 16 42  1  0  0  0  0
 16 73  1  6  0  0  0
 17 18  1  0  0  0  0
 17 74  1  0  0  0  0
 17 75  1  0  0  0  0
 18 19  1  0  0  0  0
 18 41  1  0  0  0  0
 18 76  1  6  0  0  0
 19 20  1  0  0  0  0
 19 40  1  0  0  0  0
 19 77  1  6  0  0  0
 20 21  1  0  0  0  0
 20 39  1  0  0  0  0
 20 78  1  1  0  0  0
 21 22  2  0  0  0  0
 21 38  1  0  0  0  0
 22 23  1  0  0  0  0
 22 79  1  0  0  0  0
 23 24  2  0  0  0  0
 23 80  1  0  0  0  0
 24 25  1  0  0  0  0
 24 81  1  0  0  0  0
 25 26  2  0  0  0  0
 25 82  1  0  0  0  0
 26 27  1  0  0  0  0
 26 83  1  0  0  0  0
 27 28  2  0  0  0  0
 27 84  1  0  0  0  0
 28 29  1  0  0  0  0
 28 85  1  0  0  0  0
 29 30  2  0  0  0  0
 29 86  1  0  0  0  0
 30 31  1  0  0  0  0
 30 87  1  0  0  0  0
 31 32  1  0  0  0  0
 31 37  1  0  0  0  0
 31 88  1  1  0  0  0
 32 33  1  0  0  0  0
 32 36  1  0  0  0  0
 32 89  1  6  0  0  0
 33 34  1  0  0  0  0
 34 35  2  0  0  0  0
 36 90  1  0  0  0  0
 36 91  1  0  0  0  0
 36 92  1  0  0  0  0
 37 93  1  0  0  0  0
 38 94  1  0  0  0  0
 38 95  1  0  0  0  0
 38 96  1  0  0  0  0
 39 97  1  0  0  0  0
 40 98  1  0  0  0  0
 41 99  1  0  0  0  0
 42100  1  0  0  0  0
 43101  1  0  0  0  0
 44102  1  0  0  0  0
 45103  1  0  0  0  0
 46104  1  0  0  0  0
 47105  1  0  0  0  0
M  END
>  <DRUGBANK_ID>
DB13571

>  <COMMON_NAME>
Pentamycin

>  <CAS_NUMBER>
6834-98-6

>  <UNII>
1JB340D58S

>  <SYNONYMS>
Pentamycin

$$$$
