
 OpenBabel10282417072D

 88 88  0  0  1  0  0  0  0  0999 V2000
    0.0000  -11.5500    0.0000 O   0  0  0  0  0  0  0  0  0  0  0  0
    0.7145  -11.9625    0.0000 C   0  0  0  0  0  0  0  0  0  0  0  0
    0.7145  -12.7875    0.0000 O   0  0  0  0  0  0  0  0  0  0  0  0
    1.4289  -11.5500    0.0000 C   0  0  0  0  0  0  0  0  0  0  0  0
    2.1434  -11.9625    0.0000 C   0  0  0  0  0  0  0  0  0  0  0  0
    2.8579  -11.5500    0.0000 C   0  0  2  0  0  0  0  0  0  0  0  0
    3.5724  -11.9625    0.0000 N   0  0  0  0  0  0  0  0  0  0  0  0
    4.2868  -11.5500    0.0000 P   0  0  3  0  0  0  0  0  0  0  0  0
    4.6993  -12.2645    0.0000 O   0  0  0  0  0  0  0  0  0  0  0  0
    3.8743  -10.8355    0.0000 O   0  0  0  0  0  0  0  0  0  0  0  0
    5.0013  -11.1375    0.0000 O   0  0  0  0  0  0  0  0  0  0  0  0
    5.7158  -11.5500    0.0000 C   0  0  0  0  0  0  0  0  0  0  0  0
    6.4302  -11.1375    0.0000 C   0  0  0  0  0  0  0  0  0  0  0  0
    7.1447  -11.5500    0.0000 C   0  0  0  0  0  0  0  0  0  0  0  0
    7.8592  -11.1375    0.0000 C   0  0  2  0  0  0  0  0  0  0  0  0
    8.5737  -11.5500    0.0000 N   0  0  0  0  0  0  0  0  0  0  0  0
    9.2881  -11.1375    0.0000 C   0  0  0  0  0  0  0  0  0  0  0  0
    9.2881  -10.3125    0.0000 O   0  0  0  0  0  0  0  0  0  0  0  0
   10.0026  -11.5500    0.0000 C   0  0  0  0  0  0  0  0  0  0  0  0
   10.7171  -11.1375    0.0000 C   0  0  0  0  0  0  0  0  0  0  0  0
   11.4315  -11.5500    0.0000 C   0  0  2  0  0  0  0  0  0  0  0  0
   12.1460  -11.1375    0.0000 N   0  0  0  0  0  0  0  0  0  0  0  0
   12.8605  -11.5500    0.0000 C   0  0  0  0  0  0  0  0  0  0  0  0
   12.8605  -12.3750    0.0000 O   0  0  0  0  0  0  0  0  0  0  0  0
   13.5749  -11.1375    0.0000 C   0  0  0  0  0  0  0  0  0  0  0  0
   14.2894  -11.5500    0.0000 C   0  0  0  0  0  0  0  0  0  0  0  0
   15.0039  -11.1375    0.0000 C   0  0  0  0  0  0  0  0  0  0  0  0
   15.7184  -11.5500    0.0000 C   0  0  0  0  0  0  0  0  0  0  0  0
   16.4328  -11.1375    0.0000 C   0  0  0  0  0  0  0  0  0  0  0  0
   17.1473  -11.5500    0.0000 N   0  0  0  0  0  0  0  0  0  0  0  0
   17.8618  -11.1375    0.0000 C   0  0  0  0  0  0  0  0  0  0  0  0
   17.8618  -10.3125    0.0000 O   0  0  0  0  0  0  0  0  0  0  0  0
   18.5762  -11.5500    0.0000 C   0  0  0  0  0  0  0  0  0  0  0  0
   19.2907  -11.1375    0.0000 C   0  0  0  0  0  0  0  0  0  0  0  0
   20.0052  -11.5500    0.0000 C   0  0  0  0  0  0  0  0  0  0  0  0
   20.0052  -12.3750    0.0000 C   0  0  0  0  0  0  0  0  0  0  0  0
   20.7197  -12.7875    0.0000 F   0  0  0  0  0  0  0  0  0  0  0  0
   19.2907  -12.7875    0.0000 C   0  0  0  0  0  0  0  0  0  0  0  0
   18.5762  -12.3750    0.0000 C   0  0  0  0  0  0  0  0  0  0  0  0
   11.4315  -12.3750    0.0000 C   0  0  0  0  0  0  0  0  0  0  0  0
   12.1460  -12.7875    0.0000 O   0  0  0  0  0  0  0  0  0  0  0  0
   10.7171  -12.7875    0.0000 O   0  0  0  0  0  0  0  0  0  0  0  0
    7.8592  -10.3125    0.0000 C   0  0  0  0  0  0  0  0  0  0  0  0
    8.5737   -9.9000    0.0000 O   0  0  0  0  0  0  0  0  0  0  0  0
    7.1447   -9.9000    0.0000 O   0  0  0  0  0  0  0  0  0  0  0  0
    2.8579  -10.7250    0.0000 C   0  0  0  0  0  0  0  0  0  0  0  0
    3.5724  -10.3125    0.0000 O   0  0  0  0  0  0  0  0  0  0  0  0
    2.1434  -10.3125    0.0000 O   0  0  0  0  0  0  0  0  0  0  0  0
   -0.0000  -10.6130    0.0000 H   0  0  0  0  0  0  0  0  0  0  0  0
    1.4289  -10.4800    0.0000 H   0  0  0  0  0  0  0  0  0  0  0  0
    2.3555  -11.0150    0.0000 H   0  0  0  0  0  0  0  0  0  0  0  0
    2.1434  -13.0325    0.0000 H   0  0  0  0  0  0  0  0  0  0  0  0
    3.0700  -12.4975    0.0000 H   0  0  0  0  0  0  0  0  0  0  0  0
    2.8579  -12.6200    0.0000 H   0  0  0  0  0  0  0  0  0  0  0  0
    3.5724  -12.9825    0.0000 H   0  0  0  0  0  0  0  0  0  0  0  0
    4.2143  -13.1045    0.0000 H   0  0  0  0  0  0  0  0  0  0  0  0
    5.7158  -12.6200    0.0000 H   0  0  0  0  0  0  0  0  0  0  0  0
    6.6425  -12.0850    0.0000 H   0  0  0  0  0  0  0  0  0  0  0  0
    6.4302  -10.0675    0.0000 H   0  0  0  0  0  0  0  0  0  0  0  0
    7.3568  -10.6025    0.0000 H   0  0  0  0  0  0  0  0  0  0  0  0
    7.1447  -12.6200    0.0000 H   0  0  0  0  0  0  0  0  0  0  0  0
    8.0713  -12.0850    0.0000 H   0  0  0  0  0  0  0  0  0  0  0  0
    7.8592  -12.2075    0.0000 H   0  0  0  0  0  0  0  0  0  0  0  0
    8.5737  -12.5345    0.0000 H   0  0  0  0  0  0  0  0  0  0  0  0
   10.0026  -12.6200    0.0000 H   0  0  0  0  0  0  0  0  0  0  0  0
   10.9292  -12.0850    0.0000 H   0  0  0  0  0  0  0  0  0  0  0  0
   10.7171  -10.0675    0.0000 H   0  0  0  0  0  0  0  0  0  0  0  0
   11.6438  -10.6025    0.0000 H   0  0  0  0  0  0  0  0  0  0  0  0
   11.4315  -10.4800    0.0000 H   0  0  0  0  0  0  0  0  0  0  0  0
   12.1460  -10.1530    0.0000 H   0  0  0  0  0  0  0  0  0  0  0  0
   13.5749  -10.0675    0.0000 H   0  0  0  0  0  0  0  0  0  0  0  0
   14.5015  -10.6025    0.0000 H   0  0  0  0  0  0  0  0  0  0  0  0
   14.2894  -12.6200    0.0000 H   0  0  0  0  0  0  0  0  0  0  0  0
   15.2160  -12.0850    0.0000 H   0  0  0  0  0  0  0  0  0  0  0  0
   15.0039  -10.0675    0.0000 H   0  0  0  0  0  0  0  0  0  0  0  0
   15.9305  -10.6025    0.0000 H   0  0  0  0  0  0  0  0  0  0  0  0
   15.7184  -12.6200    0.0000 H   0  0  0  0  0  0  0  0  0  0  0  0
   16.6451  -12.0850    0.0000 H   0  0  0  0  0  0  0  0  0  0  0  0
   16.4328  -10.0675    0.0000 H   0  0  0  0  0  0  0  0  0  0  0  0
   17.3594  -10.6025    0.0000 H   0  0  0  0  0  0  0  0  0  0  0  0
   17.1473  -12.5345    0.0000 H   0  0  0  0  0  0  0  0  0  0  0  0
   19.2907  -10.1055    0.0000 H   0  0  0  0  0  0  0  0  0  0  0  0
   20.8989  -11.0340    0.0000 H   0  0  0  0  0  0  0  0  0  0  0  0
   19.2907  -13.8195    0.0000 H   0  0  0  0  0  0  0  0  0  0  0  0
   17.6825  -12.8910    0.0000 H   0  0  0  0  0  0  0  0  0  0  0  0
   12.1460  -13.7245    0.0000 H   0  0  0  0  0  0  0  0  0  0  0  0
    9.3852  -10.3685    0.0000 H   0  0  0  0  0  0  0  0  0  0  0  0
    4.3839  -10.7810    0.0000 H   0  0  0  0  0  0  0  0  0  0  0  0
  1  2  1  0  0  0  0
  1 49  1  0  0  0  0
  2  3  2  0  0  0  0
  2  4  1  0  0  0  0
  4  5  1  0  0  0  0
  4 50  1  0  0  0  0
  4 51  1  0  0  0  0
  5 52  1  0  0  0  0
  5 53  1  0  0  0  0
  6  5  1  0  0  0  0
  6  7  1  0  0  0  0
  6 46  1  0  0  0  0
  6 54  1  6  0  0  0
  7  8  1  0  0  0  0
  7 55  1  0  0  0  0
  8  9  1  0  0  0  0
  8 10  2  0  0  0  0
  8 11  1  0  0  0  0
  9 56  1  0  0  0  0
 11 12  1  0  0  0  0
 12 13  1  0  0  0  0
 12 57  1  0  0  0  0
 12 58  1  0  0  0  0
 13 14  1  0  0  0  0
 13 59  1  0  0  0  0
 13 60  1  0  0  0  0
 14 61  1  0  0  0  0
 14 62  1  0  0  0  0
 15 14  1  0  0  0  0
 15 16  1  0  0  0  0
 15 43  1  0  0  0  0
 15 63  1  6  0  0  0
 16 17  1  0  0  0  0
 16 64  1  0  0  0  0
 17 18  2  0  0  0  0
 17 19  1  0  0  0  0
 19 20  1  0  0  0  0
 19 65  1  0  0  0  0
 19 66  1  0  0  0  0
 20 67  1  0  0  0  0
 20 68  1  0  0  0  0
 21 20  1  0  0  0  0
 21 22  1  0  0  0  0
 21 40  1  0  0  0  0
 21 69  1  1  0  0  0
 22 23  1  0  0  0  0
 22 70  1  0  0  0  0
 23 24  2  0  0  0  0
 23 25  1  0  0  0  0
 25 26  1  0  0  0  0
 25 71  1  0  0  0  0
 25 72  1  0  0  0  0
 26 27  1  0  0  0  0
 26 73  1  0  0  0  0
 26 74  1  0  0  0  0
 27 28  1  0  0  0  0
 27 75  1  0  0  0  0
 27 76  1  0  0  0  0
 28 29  1  0  0  0  0
 28 77  1  0  0  0  0
 28 78  1  0  0  0  0
 29 30  1  0  0  0  0
 29 79  1  0  0  0  0
 29 80  1  0  0  0  0
 30 31  1  0  0  0  0
 30 81  1  0  0  0  0
 31 32  2  0  0  0  0
 31 33  1  0  0  0  0
 33 34  2  0  0  0  0
 33 39  1  0  0  0  0
 34 35  1  0  0  0  0
 34 82  1  0  0  0  0
 35 36  2  0  0  0  0
 35 83  1  0  0  0  0
 36 37  1  0  0  0  0
 36 38  1  0  0  0  0
 38 39  2  0  0  0  0
 38 84  1  0  0  0  0
 39 85  1  0  0  0  0
 40 41  1  0  0  0  0
 40 42  2  0  0  0  0
 41 86  1  0  0  0  0
 43 44  1  0  0  0  0
 43 45  2  0  0  0  0
 44 87  1  0  0  0  0
 46 47  1  0  0  0  0
 46 48  2  0  0  0  0
 47 88  1  0  0  0  0
M  END
>  <DRUGBANK_ID>
DB14965

>  <COMMON_NAME>
CTT-1057

>  <CAS_NUMBER>
1628717-55-4

>  <UNII>
QMH3V8VSPB

$$$$
