
 OpenBabel10282417072D

 55 56  0  0  0  0  0  0  0  0999 V2000
    7.8592   -4.5375    0.0000 C   0  0  0  0  0  0  0  0  0  0  0  0
    7.8592   -3.7125    0.0000 N   0  0  0  0  0  0  0  0  0  0  0  0
    7.1447   -3.3000    0.0000 C   0  0  0  0  0  0  0  0  0  0  0  0
    6.4302   -3.7125    0.0000 C   0  0  0  0  0  0  0  0  0  0  0  0
    5.7158   -3.3000    0.0000 C   0  0  0  0  0  0  0  0  0  0  0  0
    5.0013   -3.7125    0.0000 C   0  0  0  0  0  0  0  0  0  0  0  0
    4.2868   -3.3000    0.0000 C   0  0  0  0  0  0  0  0  0  0  0  0
    3.5724   -3.7125    0.0000 C   0  0  0  0  0  0  0  0  0  0  0  0
    2.8579   -3.3000    0.0000 O   0  0  0  0  0  0  0  0  0  0  0  0
    2.1434   -3.7125    0.0000 C   0  0  0  0  0  0  0  0  0  0  0  0
    2.1434   -4.5375    0.0000 C   0  0  0  0  0  0  0  0  0  0  0  0
    1.4289   -4.9500    0.0000 C   0  0  0  0  0  0  0  0  0  0  0  0
    0.7145   -4.5375    0.0000 C   0  0  0  0  0  0  0  0  0  0  0  0
    0.7145   -3.7125    0.0000 C   0  0  0  0  0  0  0  0  0  0  0  0
    0.0000   -3.3000    0.0000 F   0  0  0  0  0  0  0  0  0  0  0  0
    1.4289   -3.3000    0.0000 C   0  0  0  0  0  0  0  0  0  0  0  0
    0.0000   -4.9500    0.0000 C   0  0  0  0  0  0  0  0  0  0  0  0
    0.0000   -5.7750    0.0000 O   0  0  0  0  0  0  0  0  0  0  0  0
   -0.7145   -4.5375    0.0000 C   0  0  0  0  0  0  0  0  0  0  0  0
   -1.4289   -4.9500    0.0000 C   0  0  0  0  0  0  0  0  0  0  0  0
   -2.1434   -4.5375    0.0000 C   0  0  0  0  0  0  0  0  0  0  0  0
   -2.1434   -3.7125    0.0000 C   0  0  0  0  0  0  0  0  0  0  0  0
   -2.8579   -3.3000    0.0000 Br  0  0  0  0  0  0  0  0  0  0  0  0
   -1.4289   -3.3000    0.0000 C   0  0  0  0  0  0  0  0  0  0  0  0
   -0.7145   -3.7125    0.0000 C   0  0  0  0  0  0  0  0  0  0  0  0
    8.5737   -3.3000    0.0000 C   0  0  0  0  0  0  0  0  0  0  0  0
    9.2881   -3.7125    0.0000 C   0  0  0  0  0  0  0  0  0  0  0  0
   10.0026   -3.3000    0.0000 C   0  0  0  0  0  0  0  0  0  0  0  0
    6.9326   -5.0725    0.0000 H   0  0  0  0  0  0  0  0  0  0  0  0
    8.7858   -5.0725    0.0000 H   0  0  0  0  0  0  0  0  0  0  0  0
    7.8592   -5.6075    0.0000 H   0  0  0  0  0  0  0  0  0  0  0  0
    7.1447   -2.2300    0.0000 H   0  0  0  0  0  0  0  0  0  0  0  0
    6.2181   -2.7650    0.0000 H   0  0  0  0  0  0  0  0  0  0  0  0
    6.4302   -4.7825    0.0000 H   0  0  0  0  0  0  0  0  0  0  0  0
    5.5035   -4.2475    0.0000 H   0  0  0  0  0  0  0  0  0  0  0  0
    5.7158   -2.2300    0.0000 H   0  0  0  0  0  0  0  0  0  0  0  0
    4.7892   -2.7650    0.0000 H   0  0  0  0  0  0  0  0  0  0  0  0
    5.0013   -4.7825    0.0000 H   0  0  0  0  0  0  0  0  0  0  0  0
    4.0747   -4.2475    0.0000 H   0  0  0  0  0  0  0  0  0  0  0  0
    4.2868   -2.2300    0.0000 H   0  0  0  0  0  0  0  0  0  0  0  0
    3.3601   -2.7650    0.0000 H   0  0  0  0  0  0  0  0  0  0  0  0
    3.5724   -4.7825    0.0000 H   0  0  0  0  0  0  0  0  0  0  0  0
    2.6458   -4.2475    0.0000 H   0  0  0  0  0  0  0  0  0  0  0  0
    3.0371   -5.0535    0.0000 H   0  0  0  0  0  0  0  0  0  0  0  0
    1.4289   -5.9820    0.0000 H   0  0  0  0  0  0  0  0  0  0  0  0
    1.4289   -2.2680    0.0000 H   0  0  0  0  0  0  0  0  0  0  0  0
   -1.4289   -5.9820    0.0000 H   0  0  0  0  0  0  0  0  0  0  0  0
   -3.0371   -5.0535    0.0000 H   0  0  0  0  0  0  0  0  0  0  0  0
   -1.4289   -2.2680    0.0000 H   0  0  0  0  0  0  0  0  0  0  0  0
    0.1792   -3.1965    0.0000 H   0  0  0  0  0  0  0  0  0  0  0  0
    8.5737   -2.2300    0.0000 H   0  0  0  0  0  0  0  0  0  0  0  0
    9.5004   -2.7650    0.0000 H   0  0  0  0  0  0  0  0  0  0  0  0
    9.2881   -4.7445    0.0000 H   0  0  0  0  0  0  0  0  0  0  0  0
   10.8963   -3.8160    0.0000 H   0  0  0  0  0  0  0  0  0  0  0  0
   10.0026   -2.2680    0.0000 H   0  0  0  0  0  0  0  0  0  0  0  0
  1  2  1  0  0  0  0
  1 29  1  0  0  0  0
  1 30  1  0  0  0  0
  1 31  1  0  0  0  0
  2  3  1  0  0  0  0
  2 26  1  0  0  0  0
  3  4  1  0  0  0  0
  3 32  1  0  0  0  0
  3 33  1  0  0  0  0
  4  5  1  0  0  0  0
  4 34  1  0  0  0  0
  4 35  1  0  0  0  0
  5  6  1  0  0  0  0
  5 36  1  0  0  0  0
  5 37  1  0  0  0  0
  6  7  1  0  0  0  0
  6 38  1  0  0  0  0
  6 39  1  0  0  0  0
  7  8  1  0  0  0  0
  7 40  1  0  0  0  0
  7 41  1  0  0  0  0
  8  9  1  0  0  0  0
  8 42  1  0  0  0  0
  8 43  1  0  0  0  0
  9 10  1  0  0  0  0
 10 11  2  0  0  0  0
 10 16  1  0  0  0  0
 11 12  1  0  0  0  0
 11 44  1  0  0  0  0
 12 13  2  0  0  0  0
 12 45  1  0  0  0  0
 13 14  1  0  0  0  0
 13 17  1  0  0  0  0
 14 15  1  0  0  0  0
 14 16  2  0  0  0  0
 16 46  1  0  0  0  0
 17 18  2  0  0  0  0
 17 19  1  0  0  0  0
 19 20  2  0  0  0  0
 19 25  1  0  0  0  0
 20 21  1  0  0  0  0
 20 47  1  0  0  0  0
 21 22  2  0  0  0  0
 21 48  1  0  0  0  0
 22 23  1  0  0  0  0
 22 24  1  0  0  0  0
 24 25  2  0  0  0  0
 24 49  1  0  0  0  0
 25 50  1  0  0  0  0
 26 27  1  0  0  0  0
 26 51  1  0  0  0  0
 26 52  1  0  0  0  0
 27 28  2  0  0  0  0
 27 53  1  0  0  0  0
 28 54  1  0  0  0  0
 28 55  1  0  0  0  0
M  END
>  <DRUGBANK_ID>
DB02016

>  <SECONDARY_ACCESSION_NUMBERS>
EXPT02749

>  <COMMON_NAME>
R048-8071

>  <CAS_NUMBER>
161582-11-2

>  <UNII>
YDR69X9Q9M

$$$$
