612
 OpenBabel10282417072D

 48 49  0  0  0  0  0  0  0  0999 V2000
    0.6428   -0.5834    0.0000 C   0  0  0  0  0  0  0  0  0  0  0  0
   -0.0717   -0.9959    0.0000 C   0  0  0  0  0  0  0  0  0  0  0  0
   -0.0717   -1.8209    0.0000 C   0  0  0  0  0  0  0  0  0  0  0  0
    0.6428   -2.2334    0.0000 C   0  0  0  0  0  0  0  0  0  0  0  0
    1.3573   -1.8209    0.0000 C   0  0  0  0  0  0  0  0  0  0  0  0
    1.3573   -0.9959    0.0000 C   0  0  0  0  0  0  0  0  0  0  0  0
    0.6428    0.2416    0.0000 S   0  0  0  0  0  0  0  0  0  0  0  0
   -0.0717    0.6541    0.0000 C   0  0  0  0  0  0  0  0  0  0  0  0
   -0.0717    1.4791    0.0000 C   0  0  0  0  0  0  0  0  0  0  0  0
    0.6428    1.8916    0.0000 C   0  0  0  0  0  0  0  0  0  0  0  0
    1.3573    1.4791    0.0000 C   0  0  0  0  0  0  0  0  0  0  0  0
    0.6428    2.7166    0.0000 C   0  0  0  0  0  0  0  0  0  0  0  0
   -0.7861    1.8916    0.0000 C   0  0  0  0  0  0  0  0  0  0  0  0
   -0.7861    2.7166    0.0000 O   0  0  0  0  0  0  0  0  0  0  0  0
   -0.7861    0.2416    0.0000 N   0  0  0  0  0  0  0  0  0  0  0  0
   -1.5006    0.6541    0.0000 C   0  0  0  0  0  0  0  0  0  0  0  0
   -2.2151    0.2416    0.0000 O   0  0  0  0  0  0  0  0  0  0  0  0
   -1.5006    1.4791    0.0000 N   0  0  0  0  0  0  0  0  0  0  0  0
   -0.7861   -0.5834    0.0000 C   0  0  0  0  0  0  0  0  0  0  0  0
   -1.5006   -0.9959    0.0000 O   0  0  0  0  0  0  0  0  0  0  0  0
   -2.2151   -0.5834    0.0000 C   0  0  0  0  0  0  0  0  0  0  0  0
   -2.9295   -0.9959    0.0000 C   0  0  0  0  0  0  0  0  0  0  0  0
   -0.2838   -0.0484    0.0000 H   0  0  0  0  0  0  0  0  0  0  0  0
   -0.9983   -0.4609    0.0000 H   0  0  0  0  0  0  0  0  0  0  0  0
   -0.9983   -1.5309    0.0000 H   0  0  0  0  0  0  0  0  0  0  0  0
   -0.9983   -2.3559    0.0000 H   0  0  0  0  0  0  0  0  0  0  0  0
   -0.0717   -2.8909    0.0000 H   0  0  0  0  0  0  0  0  0  0  0  0
    0.6428   -3.3034    0.0000 H   0  0  0  0  0  0  0  0  0  0  0  0
    1.5694   -2.7684    0.0000 H   0  0  0  0  0  0  0  0  0  0  0  0
    2.2839   -2.3559    0.0000 H   0  0  0  0  0  0  0  0  0  0  0  0
    2.2839   -1.2859    0.0000 H   0  0  0  0  0  0  0  0  0  0  0  0
    2.2839   -0.4609    0.0000 H   0  0  0  0  0  0  0  0  0  0  0  0
    2.2839   -1.5309    0.0000 H   0  0  0  0  0  0  0  0  0  0  0  0
    1.5694    2.4266    0.0000 H   0  0  0  0  0  0  0  0  0  0  0  0
    1.3573    0.4091    0.0000 H   0  0  0  0  0  0  0  0  0  0  0  0
    2.2839    2.0141    0.0000 H   0  0  0  0  0  0  0  0  0  0  0  0
    2.2840    0.9441    0.0000 H   0  0  0  0  0  0  0  0  0  0  0  0
    1.5694    3.2516    0.0000 H   0  0  0  0  0  0  0  0  0  0  0  0
   -0.2838    3.2516    0.0000 H   0  0  0  0  0  0  0  0  0  0  0  0
    0.6428    3.7866    0.0000 H   0  0  0  0  0  0  0  0  0  0  0  0
   -2.3532    1.9714    0.0000 H   0  0  0  0  0  0  0  0  0  0  0  0
    0.1405   -1.1184    0.0000 H   0  0  0  0  0  0  0  0  0  0  0  0
   -0.7861   -1.6534    0.0000 H   0  0  0  0  0  0  0  0  0  0  0  0
   -2.2151    0.4866    0.0000 H   0  0  0  0  0  0  0  0  0  0  0  0
   -3.1418   -0.0484    0.0000 H   0  0  0  0  0  0  0  0  0  0  0  0
   -3.8562   -0.4609    0.0000 H   0  0  0  0  0  0  0  0  0  0  0  0
   -2.9295   -2.0659    0.0000 H   0  0  0  0  0  0  0  0  0  0  0  0
   -3.8561   -1.5309    0.0000 H   0  0  0  0  0  0  0  0  0  0  0  0
  1  6  1  0  0  0  0
  1  2  1  0  0  0  0
  1 23  1  0  0  0  0
  2  3  1  0  0  0  0
  2 24  1  0  0  0  0
  2 25  1  0  0  0  0
  3  4  1  0  0  0  0
  3 26  1  0  0  0  0
  3 27  1  0  0  0  0
  4 28  1  0  0  0  0
  4 29  1  0  0  0  0
  5  4  1  0  0  0  0
  5 30  1  0  0  0  0
  5 31  1  0  0  0  0
  6  5  1  0  0  0  0
  6 32  1  0  0  0  0
  6 33  1  0  0  0  0
  7  1  1  0  0  0  0
  8  7  1  0  0  0  0
  9  8  2  0  0  0  0
  9 10  1  0  0  0  0
 10 12  1  0  0  0  0
 10 11  1  0  0  0  0
 10 34  1  0  0  0  0
 11 35  1  0  0  0  0
 11 36  1  0  0  0  0
 11 37  1  0  0  0  0
 12 38  1  0  0  0  0
 12 39  1  0  0  0  0
 12 40  1  0  0  0  0
 13  9  1  0  0  0  0
 14 13  2  0  0  0  0
 15  8  1  0  0  0  0
 15 19  1  0  0  0  0
 16 15  1  0  0  0  0
 17 16  2  0  0  0  0
 18 13  1  0  0  0  0
 18 16  1  0  0  0  0
 18 41  1  0  0  0  0
 19 20  1  0  0  0  0
 19 42  1  0  0  0  0
 19 43  1  0  0  0  0
 21 20  1  0  0  0  0
 21 22  1  0  0  0  0
 21 44  1  0  0  0  0
 21 45  1  0  0  0  0
 22 46  1  0  0  0  0
 22 47  1  0  0  0  0
 22 48  1  0  0  0  0
M  END
>  <DRUGBANK_ID>
DB07184

>  <COMMON_NAME>
6-(cyclohexylsulfanyl)-1-(ethoxymethyl)-5-(1-methylethyl)pyrimidine-2,4(1H,3H)-dione

$$$$
