
 OpenBabel10282417072D

 33 35  0  0  0  0  0  0  0  0999 V2000
    0.0000    4.9500    0.0000 C   0  0  0  0  0  0  0  0  0  0  0  0
   -0.7145    4.5375    0.0000 C   0  0  0  0  0  0  0  0  0  0  0  0
    0.7145    4.5375    0.0000 C   0  0  0  0  0  0  0  0  0  0  0  0
    0.7145    1.2375    0.0000 C   0  0  0  0  0  0  0  0  0  0  0  0
    1.4289    0.8250    0.0000 C   0  0  0  0  0  0  0  0  0  0  0  0
    3.5724    1.2375    0.0000 C   0  0  0  0  0  0  0  0  0  0  0  0
    3.5724    2.0625    0.0000 C   0  0  0  0  0  0  0  0  0  0  0  0
   -0.7145    3.7125    0.0000 C   0  0  0  0  0  0  0  0  0  0  0  0
    0.7145    3.7125    0.0000 C   0  0  0  0  0  0  0  0  0  0  0  0
    1.4289    2.4750    0.0000 C   0  0  0  0  0  0  0  0  0  0  0  0
    0.7145    2.0625    0.0000 C   0  0  0  0  0  0  0  0  0  0  0  0
    2.1434    1.2375    0.0000 C   0  0  0  0  0  0  0  0  0  0  0  0
    2.1434    2.0625    0.0000 C   0  0  0  0  0  0  0  0  0  0  0  0
    0.0000    2.4750    0.0000 C   0  0  0  0  0  0  0  0  0  0  0  0
    2.8579    0.8250    0.0000 N   0  0  0  0  0  0  0  0  0  0  0  0
    2.8579    2.4750    0.0000 N   0  0  0  0  0  0  0  0  0  0  0  0
    0.0000    3.3000    0.0000 N   0  0  0  0  0  0  0  0  0  0  0  0
   -0.7145    2.0625    0.0000 O   0  0  0  0  0  0  0  0  0  0  0  0
    0.0000    6.0200    0.0000 H   0  0  0  0  0  0  0  0  0  0  0  0
    0.9266    5.4850    0.0000 H   0  0  0  0  0  0  0  0  0  0  0  0
   -1.6411    5.0725    0.0000 H   0  0  0  0  0  0  0  0  0  0  0  0
   -1.6411    4.0025    0.0000 H   0  0  0  0  0  0  0  0  0  0  0  0
    1.6411    5.0725    0.0000 H   0  0  0  0  0  0  0  0  0  0  0  0
    1.6411    4.0025    0.0000 H   0  0  0  0  0  0  0  0  0  0  0  0
   -0.1792    0.7215    0.0000 H   0  0  0  0  0  0  0  0  0  0  0  0
    1.4289   -0.2070    0.0000 H   0  0  0  0  0  0  0  0  0  0  0  0
    4.4661    0.7215    0.0000 H   0  0  0  0  0  0  0  0  0  0  0  0
    4.4661    2.5785    0.0000 H   0  0  0  0  0  0  0  0  0  0  0  0
   -1.6411    3.1775    0.0000 H   0  0  0  0  0  0  0  0  0  0  0  0
   -0.7145    2.6425    0.0000 H   0  0  0  0  0  0  0  0  0  0  0  0
    1.6411    3.1775    0.0000 H   0  0  0  0  0  0  0  0  0  0  0  0
    0.7145    2.6425    0.0000 H   0  0  0  0  0  0  0  0  0  0  0  0
    1.4289    3.5070    0.0000 H   0  0  0  0  0  0  0  0  0  0  0  0
  1 19  1  0  0  0  0
  1 20  1  0  0  0  0
  2  1  1  0  0  0  0
  2 21  1  0  0  0  0
  2 22  1  0  0  0  0
  3  1  1  0  0  0  0
  3 23  1  0  0  0  0
  3 24  1  0  0  0  0
  4 25  1  0  0  0  0
  5  4  2  0  0  0  0
  5 26  1  0  0  0  0
  6 27  1  0  0  0  0
  7  6  1  0  0  0  0
  7 28  1  0  0  0  0
  8  2  1  0  0  0  0
  8 29  1  0  0  0  0
  8 30  1  0  0  0  0
  9  3  1  0  0  0  0
  9 31  1  0  0  0  0
  9 32  1  0  0  0  0
 10 33  1  0  0  0  0
 11  4  1  0  0  0  0
 11 10  2  0  0  0  0
 12  5  1  0  0  0  0
 13 10  1  0  0  0  0
 13 12  2  0  0  0  0
 14 11  1  0  0  0  0
 15  6  2  0  0  0  0
 15 12  1  0  0  0  0
 16  7  2  0  0  0  0
 16 13  1  0  0  0  0
 17  8  1  0  0  0  0
 17  9  1  0  0  0  0
 17 14  1  0  0  0  0
 18 14  2  0  0  0  0
M  END
>  <DRUGBANK_ID>
DB06247

>  <COMMON_NAME>
CX516

>  <CAS_NUMBER>
154235-83-3

>  <UNII>
Z5QU38B4V9

$$$$
