
 OpenBabel10282417072D

 87 90  0  0  1  0  0  0  0  0999 V2000
   -3.5724   -7.8375    0.0000 C   0  0  0  0  0  0  0  0  0  0  0  0
   -2.8579   -7.4250    0.0000 C   0  0  0  0  0  0  0  0  0  0  0  0
   -3.5724   -6.1875    0.0000 C   0  0  0  0  0  0  0  0  0  0  0  0
   -5.0013   -8.6625    0.0000 C   0  0  0  0  0  0  0  0  0  0  0  0
   -8.5737   -9.0750    0.0000 C   0  0  0  0  0  0  0  0  0  0  0  0
   -3.5724   -8.6625    0.0000 C   0  0  2  0  0  0  0  0  0  0  0  0
   -2.8579   -6.6000    0.0000 C   0  0  0  0  0  0  0  0  0  0  0  0
   -2.1434   -7.8375    0.0000 C   0  0  1  0  0  0  0  0  0  0  0  0
   -5.7158   -9.0750    0.0000 C   0  0  2  0  0  0  0  0  0  0  0  0
   -9.2881   -8.6625    0.0000 C   0  0  2  0  0  0  0  0  0  0  0  0
   -2.8579   -9.0750    0.0000 C   0  0  2  0  0  0  0  0  0  0  0  0
   -2.1434   -6.1875    0.0000 C   0  0  2  0  0  0  0  0  0  0  0  0
   -1.4289   -7.4250    0.0000 C   0  0  1  0  0  0  0  0  0  0  0  0
   -9.2881   -7.8375    0.0000 C   0  0  2  0  0  0  0  0  0  0  0  0
   -2.8579   -9.9000    0.0000 C   0  0  1  0  0  0  0  0  0  0  0  0
   -1.4289   -6.6000    0.0000 C   0  0  1  0  0  0  0  0  0  0  0  0
  -10.0026   -7.4250    0.0000 C   0  0  1  0  0  0  0  0  0  0  0  0
   -6.4302  -10.3125    0.0000 C   0  0  2  0  0  0  0  0  0  0  0  0
  -10.7171   -7.8375    0.0000 C   0  0  2  0  0  0  0  0  0  0  0  0
   -3.5724  -10.3125    0.0000 C   0  0  2  0  0  0  0  0  0  0  0  0
   -7.1447   -9.9000    0.0000 C   0  0  2  0  0  0  0  0  0  0  0  0
   -5.7158   -9.9000    0.0000 C   0  0  2  0  0  0  0  0  0  0  0  0
  -10.7171   -8.6625    0.0000 C   0  0  2  0  0  0  0  0  0  0  0  0
   -7.1447   -9.0750    0.0000 C   0  0  1  0  0  0  0  0  0  0  0  0
   -4.2868   -9.9000    0.0000 C   0  0  2  0  0  0  0  0  0  0  0  0
   -2.1434   -8.6625    0.0000 N   0  0  0  0  0  0  0  0  0  0  0  0
   -3.5724   -5.3625    0.0000 O   0  0  0  0  0  0  0  0  0  0  0  0
   -5.0013   -7.8375    0.0000 O   0  0  0  0  0  0  0  0  0  0  0  0
   -2.1434   -5.3625    0.0000 O   0  0  0  0  0  0  0  0  0  0  0  0
   -0.7145   -7.8375    0.0000 O   0  0  0  0  0  0  0  0  0  0  0  0
   -8.5737   -7.4250    0.0000 O   0  0  0  0  0  0  0  0  0  0  0  0
   -2.1434  -10.3125    0.0000 O   0  0  0  0  0  0  0  0  0  0  0  0
   -0.7145   -6.1875    0.0000 O   0  0  0  0  0  0  0  0  0  0  0  0
  -10.0026   -6.6000    0.0000 O   0  0  0  0  0  0  0  0  0  0  0  0
   -6.4302  -11.1375    0.0000 O   0  0  0  0  0  0  0  0  0  0  0  0
  -11.4315   -7.4250    0.0000 O   0  0  0  0  0  0  0  0  0  0  0  0
   -3.5724  -11.1375    0.0000 O   0  0  0  0  0  0  0  0  0  0  0  0
   -7.8592  -10.3125    0.0000 O   0  0  0  0  0  0  0  0  0  0  0  0
  -11.4315   -9.0750    0.0000 O   0  0  0  0  0  0  0  0  0  0  0  0
   -7.8592   -8.6625    0.0000 O   0  0  0  0  0  0  0  0  0  0  0  0
   -4.2868   -9.0750    0.0000 O   0  0  0  0  0  0  0  0  0  0  0  0
  -10.0026   -9.0750    0.0000 O   0  0  0  0  0  0  0  0  0  0  0  0
   -6.4302   -8.6625    0.0000 O   0  0  0  0  0  0  0  0  0  0  0  0
   -5.0013  -10.3125    0.0000 O   0  0  0  0  0  0  0  0  0  0  0  0
   -2.8579   -8.2500    0.0000 H   0  0  0  0  0  0  0  0  0  0  0  0
   -2.6737   -8.4695    0.0000 H   0  0  0  0  0  0  0  0  0  0  0  0
   -4.9033   -9.2183    0.0000 H   0  0  0  0  0  0  0  0  0  0  0  0
   -8.7578   -8.0305    0.0000 H   0  0  0  0  0  0  0  0  0  0  0  0
   -3.1401   -8.2998    0.0000 H   0  0  0  0  0  0  0  0  0  0  0  0
   -2.8579   -5.7750    0.0000 H   0  0  0  0  0  0  0  0  0  0  0  0
   -1.4289   -8.2500    0.0000 H   0  0  0  0  0  0  0  0  0  0  0  0
   -8.4757   -7.9808    0.0000 H   0  0  0  0  0  0  0  0  0  0  0  0
   -2.1434   -9.4875    0.0000 H   0  0  0  0  0  0  0  0  0  0  0  0
   -1.4289   -5.7750    0.0000 H   0  0  0  0  0  0  0  0  0  0  0  0
   -9.2881   -7.0125    0.0000 H   0  0  0  0  0  0  0  0  0  0  0  0
   -6.9605  -10.9445    0.0000 H   0  0  0  0  0  0  0  0  0  0  0  0
  -10.7171   -7.0125    0.0000 H   0  0  0  0  0  0  0  0  0  0  0  0
   -2.8579  -10.7250    0.0000 H   0  0  0  0  0  0  0  0  0  0  0  0
   -7.4269  -10.6752    0.0000 H   0  0  0  0  0  0  0  0  0  0  0  0
   -4.9033   -9.7567    0.0000 H   0  0  0  0  0  0  0  0  0  0  0  0
  -11.4315   -8.2500    0.0000 H   0  0  0  0  0  0  0  0  0  0  0  0
   -7.8592   -9.4875    0.0000 H   0  0  0  0  0  0  0  0  0  0  0  0
   -4.2868  -10.7250    0.0000 H   0  0  0  0  0  0  0  0  0  0  0  0
   -2.6458   -7.3025    0.0000 H   0  0  0  0  0  0  0  0  0  0  0  0
   -4.4990   -7.3025    0.0000 H   0  0  0  0  0  0  0  0  0  0  0  0
   -3.5724   -6.7675    0.0000 H   0  0  0  0  0  0  0  0  0  0  0  0
   -3.7516   -7.9410    0.0000 H   0  0  0  0  0  0  0  0  0  0  0  0
   -4.4990   -6.7225    0.0000 H   0  0  0  0  0  0  0  0  0  0  0  0
   -4.4990   -5.6525    0.0000 H   0  0  0  0  0  0  0  0  0  0  0  0
   -4.0747   -9.1975    0.0000 H   0  0  0  0  0  0  0  0  0  0  0  0
   -4.0747   -8.1275    0.0000 H   0  0  0  0  0  0  0  0  0  0  0  0
   -8.5737  -10.1450    0.0000 H   0  0  0  0  0  0  0  0  0  0  0  0
   -7.6471   -9.6100    0.0000 H   0  0  0  0  0  0  0  0  0  0  0  0
   -1.2601   -9.1725    0.0000 H   0  0  0  0  0  0  0  0  0  0  0  0
   -2.7324   -4.8775    0.0000 H   0  0  0  0  0  0  0  0  0  0  0  0
   -4.1613   -7.3525    0.0000 H   0  0  0  0  0  0  0  0  0  0  0  0
   -1.3034   -4.8775    0.0000 H   0  0  0  0  0  0  0  0  0  0  0  0
   -0.7145   -8.8075    0.0000 H   0  0  0  0  0  0  0  0  0  0  0  0
   -7.7336   -7.9100    0.0000 H   0  0  0  0  0  0  0  0  0  0  0  0
   -2.1434  -11.2825    0.0000 H   0  0  0  0  0  0  0  0  0  0  0  0
    0.1256   -6.6725    0.0000 H   0  0  0  0  0  0  0  0  0  0  0  0
   -9.1626   -6.1150    0.0000 H   0  0  0  0  0  0  0  0  0  0  0  0
   -7.2702  -11.6225    0.0000 H   0  0  0  0  0  0  0  0  0  0  0  0
  -11.4315   -6.4550    0.0000 H   0  0  0  0  0  0  0  0  0  0  0  0
   -4.4124  -11.6225    0.0000 H   0  0  0  0  0  0  0  0  0  0  0  0
   -8.6992   -9.8275    0.0000 H   0  0  0  0  0  0  0  0  0  0  0  0
  -12.2716   -8.5900    0.0000 H   0  0  0  0  0  0  0  0  0  0  0  0
  1 64  1  0  0  0  0
  1 65  1  0  0  0  0
  1 66  1  0  0  0  0
  2 67  1  0  0  0  0
  3 68  1  0  0  0  0
  3 69  1  0  0  0  0
  4 70  1  0  0  0  0
  4 71  1  0  0  0  0
  5 72  1  0  0  0  0
  5 73  1  0  0  0  0
  6  1  1  0  0  0  0
  6 45  1  1  0  0  0
  7  2  2  0  0  0  0
  7  3  1  0  0  0  0
  8  2  1  0  0  0  0
  8 26  1  0  0  0  0
  8 46  1  6  0  0  0
  9  4  1  0  0  0  0
  9 47  1  1  0  0  0
 10  5  1  0  0  0  0
 10 48  1  6  0  0  0
 11  6  1  0  0  0  0
 11 26  1  0  0  0  0
 11 49  1  6  0  0  0
 12  7  1  0  0  0  0
 12 29  1  0  0  0  0
 12 50  1  6  0  0  0
 13  8  1  0  0  0  0
 13 30  1  0  0  0  0
 13 51  1  6  0  0  0
 14 10  1  0  0  0  0
 14 31  1  0  0  0  0
 14 52  1  1  0  0  0
 15 11  1  0  0  0  0
 15 32  1  0  0  0  0
 15 53  1  1  0  0  0
 16 12  1  0  0  0  0
 16 13  1  0  0  0  0
 16 33  1  0  0  0  0
 16 54  1  1  0  0  0
 17 14  1  0  0  0  0
 17 34  1  0  0  0  0
 17 55  1  6  0  0  0
 18 35  1  0  0  0  0
 18 56  1  1  0  0  0
 19 17  1  0  0  0  0
 19 36  1  0  0  0  0
 19 57  1  1  0  0  0
 20 15  1  0  0  0  0
 20 37  1  0  0  0  0
 20 58  1  6  0  0  0
 21 18  1  0  0  0  0
 21 38  1  0  0  0  0
 21 59  1  6  0  0  0
 22  9  1  0  0  0  0
 22 18  1  0  0  0  0
 22 44  1  0  0  0  0
 22 60  1  6  0  0  0
 23 19  1  0  0  0  0
 23 39  1  0  0  0  0
 23 61  1  6  0  0  0
 24 21  1  0  0  0  0
 24 40  1  0  0  0  0
 24 62  1  6  0  0  0
 25 20  1  0  0  0  0
 25 44  1  0  0  0  0
 25 63  1  6  0  0  0
 26 74  1  0  0  0  0
 27  3  1  0  0  0  0
 27 75  1  0  0  0  0
 28  4  1  0  0  0  0
 28 76  1  0  0  0  0
 29 77  1  0  0  0  0
 30 78  1  0  0  0  0
 31 79  1  0  0  0  0
 32 80  1  0  0  0  0
 33 81  1  0  0  0  0
 34 82  1  0  0  0  0
 35 83  1  0  0  0  0
 36 84  1  0  0  0  0
 37 85  1  0  0  0  0
 38 86  1  0  0  0  0
 39 87  1  0  0  0  0
 40  5  1  0  0  0  0
 41  6  1  0  0  0  0
 41 25  1  0  0  0  0
 42 10  1  0  0  0  0
 42 23  1  0  0  0  0
 43  9  1  0  0  0  0
 43 24  1  0  0  0  0
M  END
>  <DRUGBANK_ID>
DB03495

>  <SECONDARY_ACCESSION_NUMBERS>
EXPT01820

>  <COMMON_NAME>
4,6-Dideoxy-4-{[4,5,6-Trihydroxy-3-(Hydroxymethyl)Cyclohex-2-En-1-Yl]Amino}-Alpha-D-Lyxo-Hexopyranosyl-(1->4)-Alpha-D-Threo-Hexopyranosyl-(1->6)-Alpha-L-Threo-Hexopyranose

$$$$
