
 OpenBabel10282417072D

 31 32  0  0  1  0  0  0  0  0999 V2000
    0.1067    4.7652    0.0000 C   0  0  0  0  0  0  0  0  0  0  0  0
   -0.6078    4.3527    0.0000 C   0  0  0  0  0  0  0  0  0  0  0  0
   -0.6078    3.5277    0.0000 C   0  0  0  0  0  0  0  0  0  0  0  0
   -1.3222    3.1152    0.0000 N   0  0  0  0  0  0  0  0  0  0  0  0
   -2.0367    3.5277    0.0000 C   0  0  0  0  0  0  0  0  0  0  0  0
   -2.7512    3.1152    0.0000 O   0  0  0  0  0  0  0  0  0  0  0  0
   -2.0367    4.3527    0.0000 N   0  0  0  0  0  0  0  0  0  0  0  0
   -1.3222    4.7652    0.0000 C   0  0  0  0  0  0  0  0  0  0  0  0
   -1.3222    5.5902    0.0000 O   0  0  0  0  0  0  0  0  0  0  0  0
   -1.3222    2.2902    0.0000 C   0  0  2  0  0  0  0  0  0  0  0  0
   -0.6548    1.8053    0.0000 C   0  0  1  0  0  0  0  0  0  0  0  0
   -0.9097    1.0206    0.0000 C   0  0  2  0  0  0  0  0  0  0  0  0
   -1.7347    1.0206    0.0000 C   0  0  1  0  0  0  0  0  0  0  0  0
   -1.9897    1.8053    0.0000 O   0  0  0  0  0  0  0  0  0  0  0  0
   -2.2197    0.3532    0.0000 C   0  0  0  0  0  0  0  0  0  0  0  0
   -1.8841   -0.4005    0.0000 O   0  0  0  0  0  0  0  0  0  0  0  0
   -0.4248    0.3532    0.0000 O   0  0  0  0  0  0  0  0  0  0  0  0
    0.1298    2.0602    0.0000 F   0  0  0  0  0  0  0  0  0  0  0  0
    1.0333    4.2302    0.0000 H   0  0  0  0  0  0  0  0  0  0  0  0
    0.1067    5.8352    0.0000 H   0  0  0  0  0  0  0  0  0  0  0  0
    1.0334    5.3002    0.0000 H   0  0  0  0  0  0  0  0  0  0  0  0
    0.2859    3.0117    0.0000 H   0  0  0  0  0  0  0  0  0  0  0  0
   -2.8893    4.8450    0.0000 H   0  0  0  0  0  0  0  0  0  0  0  0
   -0.3688    2.7760    0.0000 H   0  0  0  0  0  0  0  0  0  0  0  0
   -0.4874    2.8621    0.0000 H   0  0  0  0  0  0  0  0  0  0  0  0
    0.1471    1.1880    0.0000 H   0  0  0  0  0  0  0  0  0  0  0  0
   -1.2490    0.0672    0.0000 H   0  0  0  0  0  0  0  0  0  0  0  0
   -3.2838    0.4651    0.0000 H   0  0  0  0  0  0  0  0  0  0  0  0
   -2.8486   -0.5124    0.0000 H   0  0  0  0  0  0  0  0  0  0  0  0
   -2.4542   -1.1853    0.0000 H   0  0  0  0  0  0  0  0  0  0  0  0
   -0.8193   -0.5329    0.0000 H   0  0  0  0  0  0  0  0  0  0  0  0
  1  2  1  0  0  0  0
  1 19  1  0  0  0  0
  1 20  1  0  0  0  0
  1 21  1  0  0  0  0
  2  3  2  0  0  0  0
  2  8  1  0  0  0  0
  3  4  1  0  0  0  0
  3 22  1  0  0  0  0
  4  5  1  0  0  0  0
  5  6  2  0  0  0  0
  5  7  1  0  0  0  0
  7  8  1  0  0  0  0
  7 23  1  0  0  0  0
  8  9  2  0  0  0  0
 10  4  1  0  0  0  0
 10 11  1  0  0  0  0
 10 14  1  0  0  0  0
 10 24  1  1  0  0  0
 11 12  1  0  0  0  0
 11 18  1  0  0  0  0
 11 25  1  1  0  0  0
 12 13  1  0  0  0  0
 12 17  1  0  0  0  0
 12 26  1  6  0  0  0
 13 14  1  0  0  0  0
 13 15  1  0  0  0  0
 13 27  1  1  0  0  0
 15 16  1  0  0  0  0
 15 28  1  0  0  0  0
 15 29  1  0  0  0  0
 16 30  1  0  0  0  0
 17 31  1  0  0  0  0
M  END
>  <DRUGBANK_ID>
DB06683

>  <COMMON_NAME>
Clevudine

>  <CAS_NUMBER>
163252-36-6

>  <UNII>
IN51MVP5F1

>  <SYNONYMS>
2'-Fluoro-5-methyl-beta-L-arabinofuranosyluracil; Clevudine; L-FMAU

$$$$
