1399
 OpenBabel10282417072D

 29 30  0  0  0  0  0  0  0  0999 V2000
    4.5079   -0.0495    0.0000 O   0  0  0  0  0  0  0  0  0  0  0  0
    3.7934    1.1880    0.0000 O   0  0  0  0  0  0  0  0  0  0  0  0
    3.7934   -1.2870    0.0000 O   0  0  0  0  0  0  0  0  0  0  0  0
    6.6513    1.1880    0.0000 O   0  0  0  0  0  0  0  0  0  0  0  0
    5.2223    1.1880    0.0000 O   0  0  0  0  0  0  0  0  0  0  0  0
    5.2223   -0.4620    0.0000 C   0  0  0  0  0  0  0  0  0  0  0  0
    3.0790   -0.0495    0.0000 C   0  0  0  0  0  0  0  0  0  0  0  0
    5.9369   -0.0495    0.0000 C   0  0  0  0  0  0  0  0  0  0  0  0
    3.0790    0.7755    0.0000 C   0  0  0  0  0  0  0  0  0  0  0  0
    5.2223   -1.2870    0.0000 C   0  0  0  0  0  0  0  0  0  0  0  0
    3.7934   -0.4620    0.0000 C   0  0  0  0  0  0  0  0  0  0  0  0
    6.6513   -0.4620    0.0000 C   0  0  0  0  0  0  0  0  0  0  0  0
    2.3644   -0.4620    0.0000 C   0  0  0  0  0  0  0  0  0  0  0  0
    5.9369   -1.6995    0.0000 C   0  0  0  0  0  0  0  0  0  0  0  0
    6.6513   -1.2870    0.0000 C   0  0  0  0  0  0  0  0  0  0  0  0
    2.3644    1.1880    0.0000 C   0  0  0  0  0  0  0  0  0  0  0  0
    1.6500   -0.0495    0.0000 C   0  0  0  0  0  0  0  0  0  0  0  0
    1.6500    0.7755    0.0000 C   0  0  0  0  0  0  0  0  0  0  0  0
    5.9369    0.7755    0.0000 C   0  0  0  0  0  0  0  0  0  0  0  0
    4.6049    0.7195    0.0000 H   0  0  0  0  0  0  0  0  0  0  0  0
    7.4628    0.7195    0.0000 H   0  0  0  0  0  0  0  0  0  0  0  0
    4.3286   -1.8030    0.0000 H   0  0  0  0  0  0  0  0  0  0  0  0
    7.5450    0.0540    0.0000 H   0  0  0  0  0  0  0  0  0  0  0  0
    2.3643   -1.4940    0.0000 H   0  0  0  0  0  0  0  0  0  0  0  0
    5.9370   -2.7315    0.0000 H   0  0  0  0  0  0  0  0  0  0  0  0
    7.5450   -1.8030    0.0000 H   0  0  0  0  0  0  0  0  0  0  0  0
    2.3643    2.2200    0.0000 H   0  0  0  0  0  0  0  0  0  0  0  0
    0.7563   -0.5655    0.0000 H   0  0  0  0  0  0  0  0  0  0  0  0
    0.7563    1.2915    0.0000 H   0  0  0  0  0  0  0  0  0  0  0  0
  1  6  1  0  0  0  0
  1 11  1  0  0  0  0
  2  9  1  0  0  0  0
  2 20  1  0  0  0  0
  3 11  2  0  0  0  0
  4 19  1  0  0  0  0
  4 21  1  0  0  0  0
  5 19  2  0  0  0  0
  6  8  1  0  0  0  0
  6 10  2  0  0  0  0
  7  9  1  0  0  0  0
  7 11  1  0  0  0  0
  7 13  2  0  0  0  0
  8 12  2  0  0  0  0
  8 19  1  0  0  0  0
  9 16  2  0  0  0  0
 10 14  1  0  0  0  0
 10 22  1  0  0  0  0
 12 15  1  0  0  0  0
 12 23  1  0  0  0  0
 13 17  1  0  0  0  0
 13 24  1  0  0  0  0
 14 15  2  0  0  0  0
 14 25  1  0  0  0  0
 15 26  1  0  0  0  0
 16 18  1  0  0  0  0
 16 27  1  0  0  0  0
 17 18  2  0  0  0  0
 17 28  1  0  0  0  0
 18 29  1  0  0  0  0
M  END
>  <DRUGBANK_ID>
DB01399

>  <COMMON_NAME>
Salsalate

>  <CAS_NUMBER>
552-94-3

>  <UNII>
V9MO595C9I

>  <SYNONYMS>
2-Carboxyphenyl salicylate; Disalicylic acid; Disalicylsäure; O-Salicylcylsalicylsäure; o-Salicylsalicylic acid; Salicylic acid bimolecular ester; Salicyloxysalicylic acid; Salicyloylsalicylic acid; Salicylsalicylic acid; Salsalate; Salsalato; Salsalatum; Sasapyrin; Sasapyrine; Sasapyrinum

$$$$
