TTR
 OpenBabel10282417072D

 30 32  0  0  0  0  0  0  0  0999 V2000
    1.8303    0.0829    0.0000 C   0  0  0  0  0  0  0  0  0  0  0  0
    1.5754    0.8675    0.0000 C   0  0  0  0  0  0  0  0  0  0  0  0
    0.7684    1.0390    0.0000 C   0  0  0  0  0  0  0  0  0  0  0  0
    0.2164    0.4259    0.0000 C   0  0  0  0  0  0  0  0  0  0  0  0
    0.4713   -0.3587    0.0000 C   0  0  0  0  0  0  0  0  0  0  0  0
   -0.6086    0.4259    0.0000 C   0  0  0  0  0  0  0  0  0  0  0  0
   -0.1961   -0.8436    0.0000 N   0  0  0  0  0  0  0  0  0  0  0  0
   -0.1961   -1.6686    0.0000 C   0  0  0  0  0  0  0  0  0  0  0  0
   -0.9106   -2.0811    0.0000 O   0  0  0  0  0  0  0  0  0  0  0  0
    0.5184   -2.0811    0.0000 C   0  0  0  0  0  0  0  0  0  0  0  0
   -0.8635   -0.3587    0.0000 C   0  0  0  0  0  0  0  0  0  0  0  0
   -1.1606    1.0390    0.0000 C   0  0  0  0  0  0  0  0  0  0  0  0
   -1.6705   -0.5302    0.0000 C   0  0  0  0  0  0  0  0  0  0  0  0
   -1.9676    0.8675    0.0000 C   0  0  0  0  0  0  0  0  0  0  0  0
   -2.2225    0.0829    0.0000 C   0  0  0  0  0  0  0  0  0  0  0  0
    1.2783   -0.5302    0.0000 C   0  0  0  0  0  0  0  0  0  0  0  0
    1.5333   -1.3148    0.0000 O   0  0  0  0  0  0  0  0  0  0  0  0
    2.8769   -0.1396    0.0000 H   0  0  0  0  0  0  0  0  0  0  0  0
    2.1610   -0.9347    0.0000 H   0  0  0  0  0  0  0  0  0  0  0  0
    2.2914    1.6627    0.0000 H   0  0  0  0  0  0  0  0  0  0  0  0
    1.2447    1.8851    0.0000 H   0  0  0  0  0  0  0  0  0  0  0  0
    0.4377    2.0566    0.0000 H   0  0  0  0  0  0  0  0  0  0  0  0
   -0.2782    1.2614    0.0000 H   0  0  0  0  0  0  0  0  0  0  0  0
    0.5184   -3.1511    0.0000 H   0  0  0  0  0  0  0  0  0  0  0  0
    1.4450   -1.5461    0.0000 H   0  0  0  0  0  0  0  0  0  0  0  0
    1.4451   -2.6161    0.0000 H   0  0  0  0  0  0  0  0  0  0  0  0
   -0.8417    2.0205    0.0000 H   0  0  0  0  0  0  0  0  0  0  0  0
   -1.9894   -1.5117    0.0000 H   0  0  0  0  0  0  0  0  0  0  0  0
   -2.6581    1.6344    0.0000 H   0  0  0  0  0  0  0  0  0  0  0  0
   -3.2319   -0.1317    0.0000 H   0  0  0  0  0  0  0  0  0  0  0  0
  1  2  1  0  0  0  0
  1 16  1  0  0  0  0
  1 18  1  0  0  0  0
  1 19  1  0  0  0  0
  2  3  1  0  0  0  0
  2 20  1  0  0  0  0
  2 21  1  0  0  0  0
  3  4  1  0  0  0  0
  3 22  1  0  0  0  0
  3 23  1  0  0  0  0
  4  5  2  0  0  0  0
  4  6  1  0  0  0  0
  5  7  1  0  0  0  0
  5 16  1  0  0  0  0
  6 11  1  0  0  0  0
  6 12  2  0  0  0  0
  7  8  1  0  0  0  0
  7 11  1  0  0  0  0
  8  9  2  0  0  0  0
  8 10  1  0  0  0  0
 10 24  1  0  0  0  0
 10 25  1  0  0  0  0
 10 26  1  0  0  0  0
 11 13  2  0  0  0  0
 12 14  1  0  0  0  0
 12 27  1  0  0  0  0
 13 15  1  0  0  0  0
 13 28  1  0  0  0  0
 14 15  2  0  0  0  0
 14 29  1  0  0  0  0
 15 30  1  0  0  0  0
 16 17  2  0  0  0  0
M  END
>  <DRUGBANK_ID>
DB08655

>  <COMMON_NAME>
9-ACETYL-2,3,4,9-TETRAHYDRO-1H-CARBAZOL-1-ONE

$$$$
