
 OpenBabel10282417072D

 19 18  0  0  0  0  0  0  0  0999 V2000
    0.7212   -0.2115    0.0000 C   0  0  3  0  0  0  0  0  0  0  0  0
    1.4295    0.2115    0.0000 C   0  0  0  0  0  0  0  0  0  0  0  0
    0.0055    0.1984    0.0000 C   0  0  0  0  0  0  0  0  0  0  0  0
    0.7212   -1.0316    0.0000 O   0  0  0  0  0  0  0  0  0  0  0  0
    2.1377   -0.2115    0.0000 O   0  0  0  0  0  0  0  0  0  0  0  0
    1.4295    1.0316    0.0000 O   0  0  0  0  0  0  0  0  0  0  0  0
   -0.7064   -0.2208    0.0000 C   0  0  0  0  0  0  0  0  0  0  0  0
   -1.4202    0.1984    0.0000 S   0  0  0  0  0  0  0  0  0  0  0  0
   -2.1377   -0.2208    0.0000 C   0  0  0  0  0  0  0  0  0  0  0  0
    0.7114    0.8585    0.0000 H   0  0  0  0  0  0  0  0  0  0  0  0
   -0.0009    1.2684    0.0000 H   0  0  0  0  0  0  0  0  0  0  0  0
   -0.9250    0.7266    0.0000 H   0  0  0  0  0  0  0  0  0  0  0  0
   -0.1188   -1.5166    0.0000 H   0  0  0  0  0  0  0  0  0  0  0  0
    2.1238   -1.1484    0.0000 H   0  0  0  0  0  0  0  0  0  0  0  0
   -0.7058   -1.2908    0.0000 H   0  0  0  0  0  0  0  0  0  0  0  0
   -1.6349   -0.7526    0.0000 H   0  0  0  0  0  0  0  0  0  0  0  0
   -3.0671    0.3094    0.0000 H   0  0  0  0  0  0  0  0  0  0  0  0
   -2.1322   -1.2908    0.0000 H   0  0  0  0  0  0  0  0  0  0  0  0
   -3.0616   -0.7606    0.0000 H   0  0  0  0  0  0  0  0  0  0  0  0
  1  2  1  0  0  0  0
  1  3  1  0  0  0  0
  1  4  1  0  0  0  0
  1 10  1  0  0  0  0
  2  5  1  0  0  0  0
  2  6  2  0  0  0  0
  3  7  1  0  0  0  0
  3 11  1  0  0  0  0
  3 12  1  0  0  0  0
  4 13  1  0  0  0  0
  5 14  1  0  0  0  0
  7  8  1  0  0  0  0
  7 15  1  0  0  0  0
  7 16  1  0  0  0  0
  8  9  1  0  0  0  0
  9 17  1  0  0  0  0
  9 18  1  0  0  0  0
  9 19  1  0  0  0  0
M  END
>  <DRUGBANK_ID>
DB15832

>  <COMMON_NAME>
Desmeninol

>  <CAS_NUMBER>
583-91-5

>  <UNII>
Z94465H1Y7

>  <SYNONYMS>
2-Hydroxy-4-(methylthio) butanoic acid; 2-Hydroxy-4-(methylthio)butanoic acid; alpha-Hydroxy-gamma-(methylmercapto)butyric acid; alpha-Hydroxy-gamma-(methylthio)butyric acid; Desmeninol; DL-2-hydroxy-4-(methylthio)-butyric acid; Methionine hydroxy analog

$$$$
