
 OpenBabel10282417072D

 39 40  0  0  0  0  0  0  0  0999 V2000
    1.8859   -1.7973    0.0000 C   0  0  0  0  0  0  0  0  0  0  0  0
    1.0789   -1.9688    0.0000 N   0  0  0  0  0  0  0  0  0  0  0  0
    0.5269   -1.3557    0.0000 C   0  0  0  0  0  0  0  0  0  0  0  0
    0.7818   -0.5711    0.0000 C   0  0  0  0  0  0  0  0  0  0  0  0
    1.5888   -0.3996    0.0000 C   0  0  0  0  0  0  0  0  0  0  0  0
    2.1408   -1.0127    0.0000 N   0  0  0  0  0  0  0  0  0  0  0  0
    1.6750    0.4209    0.0000 N   0  0  0  0  0  0  0  0  0  0  0  0
    0.9213    0.7564    0.0000 C   0  0  0  0  0  0  0  0  0  0  0  0
    0.3693    0.1433    0.0000 N   0  0  0  0  0  0  0  0  0  0  0  0
    2.3895    0.8334    0.0000 C   0  0  0  0  0  0  0  0  0  0  0  0
    3.1039    0.4209    0.0000 C   0  0  0  0  0  0  0  0  0  0  0  0
    3.8184    0.8334    0.0000 N   0  0  0  0  0  0  0  0  0  0  0  0
    4.5329    0.4209    0.0000 C   0  0  0  0  0  0  0  0  0  0  0  0
    5.2474    0.8334    0.0000 C   0  0  0  0  0  0  0  0  0  0  0  0
    5.9618    0.4209    0.0000 C   0  0  0  0  0  0  0  0  0  0  0  0
    6.6763    0.8334    0.0000 C   0  0  0  0  0  0  0  0  0  0  0  0
    7.3908    0.4209    0.0000 C   0  0  0  0  0  0  0  0  0  0  0  0
    8.1052    0.8334    0.0000 O   0  0  0  0  0  0  0  0  0  0  0  0
   -0.2801   -1.5273    0.0000 N   0  0  0  0  0  0  0  0  0  0  0  0
    2.5764   -2.5642    0.0000 H   0  0  0  0  0  0  0  0  0  0  0  0
    0.7067    1.7658    0.0000 H   0  0  0  0  0  0  0  0  0  0  0  0
    2.3895    1.9034    0.0000 H   0  0  0  0  0  0  0  0  0  0  0  0
    3.3162    1.3684    0.0000 H   0  0  0  0  0  0  0  0  0  0  0  0
    3.1039   -0.6491    0.0000 H   0  0  0  0  0  0  0  0  0  0  0  0
    4.0305   -0.1141    0.0000 H   0  0  0  0  0  0  0  0  0  0  0  0
    3.8184    1.8534    0.0000 H   0  0  0  0  0  0  0  0  0  0  0  0
    4.5329   -0.6491    0.0000 H   0  0  0  0  0  0  0  0  0  0  0  0
    5.4595   -0.1141    0.0000 H   0  0  0  0  0  0  0  0  0  0  0  0
    5.2474    1.9034    0.0000 H   0  0  0  0  0  0  0  0  0  0  0  0
    6.1741    1.3684    0.0000 H   0  0  0  0  0  0  0  0  0  0  0  0
    5.9618   -0.6491    0.0000 H   0  0  0  0  0  0  0  0  0  0  0  0
    6.8884   -0.1141    0.0000 H   0  0  0  0  0  0  0  0  0  0  0  0
    6.6763    1.9034    0.0000 H   0  0  0  0  0  0  0  0  0  0  0  0
    7.6029    1.3684    0.0000 H   0  0  0  0  0  0  0  0  0  0  0  0
    7.3908   -0.6491    0.0000 H   0  0  0  0  0  0  0  0  0  0  0  0
    8.3175   -0.1141    0.0000 H   0  0  0  0  0  0  0  0  0  0  0  0
    8.9453    0.3484    0.0000 H   0  0  0  0  0  0  0  0  0  0  0  0
   -0.9389   -0.7957    0.0000 H   0  0  0  0  0  0  0  0  0  0  0  0
   -0.5843   -2.4636    0.0000 H   0  0  0  0  0  0  0  0  0  0  0  0
  1  2  2  0  0  0  0
  1  6  1  0  0  0  0
  1 20  1  0  0  0  0
  2  3  1  0  0  0  0
  3  4  2  0  0  0  0
  3 19  1  0  0  0  0
  4  5  1  0  0  0  0
  4  9  1  0  0  0  0
  5  6  2  0  0  0  0
  5  7  1  0  0  0  0
  7  8  1  0  0  0  0
  7 10  1  0  0  0  0
  8  9  2  0  0  0  0
  8 21  1  0  0  0  0
 10 11  1  0  0  0  0
 10 22  1  0  0  0  0
 10 23  1  0  0  0  0
 11 12  1  0  0  0  0
 11 24  1  0  0  0  0
 11 25  1  0  0  0  0
 12 13  1  0  0  0  0
 12 26  1  0  0  0  0
 13 14  1  0  0  0  0
 13 27  1  0  0  0  0
 13 28  1  0  0  0  0
 14 15  1  0  0  0  0
 14 29  1  0  0  0  0
 14 30  1  0  0  0  0
 15 16  1  0  0  0  0
 15 31  1  0  0  0  0
 15 32  1  0  0  0  0
 16 17  1  0  0  0  0
 16 33  1  0  0  0  0
 16 34  1  0  0  0  0
 17 18  1  0  0  0  0
 17 35  1  0  0  0  0
 17 36  1  0  0  0  0
 18 37  1  0  0  0  0
 19 38  1  0  0  0  0
 19 39  1  0  0  0  0
M  END
>  <DRUGBANK_ID>
DB12716

>  <SECONDARY_ACCESSION_NUMBERS>
DB05008

>  <COMMON_NAME>
NB-001

>  <CAS_NUMBER>
686301-48-4

>  <UNII>
J89QT81NBQ

$$$$
