
 OpenBabel10282417072D

 75 76  0  0  0  0  0  0  0  0999 V2000
    0.0000   -1.6500    0.0000 C   0  0  0  0  0  0  0  0  0  0  0  0
    0.0000   -2.4750    0.0000 C   0  0  0  0  0  0  0  0  0  0  0  0
    0.7145   -2.8875    0.0000 C   0  0  0  0  0  0  0  0  0  0  0  0
    0.7145   -3.7125    0.0000 C   0  0  0  0  0  0  0  0  0  0  0  0
    1.4289   -4.1250    0.0000 C   0  0  0  0  0  0  0  0  0  0  0  0
    1.4289   -4.9500    0.0000 C   0  0  0  0  0  0  0  0  0  0  0  0
    0.7145   -5.3625    0.0000 C   0  0  0  0  0  0  0  0  0  0  0  0
    0.0000   -4.9500    0.0000 C   0  0  0  0  0  0  0  0  0  0  0  0
    0.0000   -4.1250    0.0000 C   0  0  0  0  0  0  0  0  0  0  0  0
   -0.7145   -3.7125    0.0000 O   0  0  0  0  0  0  0  0  0  0  0  0
   -1.4289   -4.1250    0.0000 C   0  0  0  0  0  0  0  0  0  0  0  0
   -2.1434   -3.7125    0.0000 C   0  0  0  0  0  0  0  0  0  0  0  0
   -2.8579   -4.1250    0.0000 C   0  0  0  0  0  0  0  0  0  0  0  0
   -3.5724   -3.7125    0.0000 C   0  0  0  0  0  0  0  0  0  0  0  0
   -4.2868   -4.1250    0.0000 O   0  0  0  0  0  0  0  0  0  0  0  0
   -3.5724   -2.8875    0.0000 O   0  0  0  0  0  0  0  0  0  0  0  0
   -0.7145   -5.3625    0.0000 C   0  0  0  0  0  0  0  0  0  0  0  0
   -1.4289   -4.9500    0.0000 O   0  0  0  0  0  0  0  0  0  0  0  0
   -0.7145   -6.1875    0.0000 C   0  0  0  0  0  0  0  0  0  0  0  0
    2.1434   -3.7125    0.0000 O   0  0  0  0  0  0  0  0  0  0  0  0
    2.8579   -4.1250    0.0000 C   0  0  0  0  0  0  0  0  0  0  0  0
    3.5724   -3.7125    0.0000 C   0  0  0  0  0  0  0  0  0  0  0  0
    4.2868   -4.1250    0.0000 C   0  0  0  0  0  0  0  0  0  0  0  0
    5.0013   -3.7125    0.0000 S   0  0  0  0  0  0  0  0  0  0  0  0
    5.7158   -4.1250    0.0000 C   0  0  0  0  0  0  0  0  0  0  0  0
    6.4302   -3.7125    0.0000 C   0  0  0  0  0  0  0  0  0  0  0  0
    7.1447   -4.1250    0.0000 C   0  0  0  0  0  0  0  0  0  0  0  0
    7.1447   -4.9500    0.0000 C   0  0  0  0  0  0  0  0  0  0  0  0
    6.4302   -5.3625    0.0000 C   0  0  0  0  0  0  0  0  0  0  0  0
    5.7158   -4.9500    0.0000 C   0  0  0  0  0  0  0  0  0  0  0  0
    5.0013   -5.3625    0.0000 C   0  0  0  0  0  0  0  0  0  0  0  0
    5.0013   -6.1875    0.0000 C   0  0  0  0  0  0  0  0  0  0  0  0
    4.2868   -6.6000    0.0000 C   0  0  0  0  0  0  0  0  0  0  0  0
    6.4302   -6.1875    0.0000 O   0  0  0  0  0  0  0  0  0  0  0  0
    7.8592   -5.3625    0.0000 C   0  0  0  0  0  0  0  0  0  0  0  0
    8.5737   -4.9500    0.0000 O   0  0  0  0  0  0  0  0  0  0  0  0
    7.8592   -6.1875    0.0000 C   0  0  0  0  0  0  0  0  0  0  0  0
    0.9266   -1.1150    0.0000 H   0  0  0  0  0  0  0  0  0  0  0  0
   -0.9266   -1.1150    0.0000 H   0  0  0  0  0  0  0  0  0  0  0  0
    0.0000   -0.5800    0.0000 H   0  0  0  0  0  0  0  0  0  0  0  0
   -0.9266   -3.0100    0.0000 H   0  0  0  0  0  0  0  0  0  0  0  0
    0.0000   -3.5450    0.0000 H   0  0  0  0  0  0  0  0  0  0  0  0
    1.6411   -2.3525    0.0000 H   0  0  0  0  0  0  0  0  0  0  0  0
    1.6411   -3.4225    0.0000 H   0  0  0  0  0  0  0  0  0  0  0  0
    2.3226   -5.4660    0.0000 H   0  0  0  0  0  0  0  0  0  0  0  0
    0.7145   -6.3945    0.0000 H   0  0  0  0  0  0  0  0  0  0  0  0
   -1.4289   -5.1950    0.0000 H   0  0  0  0  0  0  0  0  0  0  0  0
   -2.3555   -4.6600    0.0000 H   0  0  0  0  0  0  0  0  0  0  0  0
   -2.1434   -2.6425    0.0000 H   0  0  0  0  0  0  0  0  0  0  0  0
   -3.0700   -3.1775    0.0000 H   0  0  0  0  0  0  0  0  0  0  0  0
   -2.8579   -5.1950    0.0000 H   0  0  0  0  0  0  0  0  0  0  0  0
   -3.7845   -4.6600    0.0000 H   0  0  0  0  0  0  0  0  0  0  0  0
   -2.7609   -2.4190    0.0000 H   0  0  0  0  0  0  0  0  0  0  0  0
   -1.6411   -6.7225    0.0000 H   0  0  0  0  0  0  0  0  0  0  0  0
    0.2121   -6.7225    0.0000 H   0  0  0  0  0  0  0  0  0  0  0  0
   -0.7145   -7.2575    0.0000 H   0  0  0  0  0  0  0  0  0  0  0  0
    2.8579   -5.1950    0.0000 H   0  0  0  0  0  0  0  0  0  0  0  0
    3.7845   -4.6600    0.0000 H   0  0  0  0  0  0  0  0  0  0  0  0
    3.5724   -2.6425    0.0000 H   0  0  0  0  0  0  0  0  0  0  0  0
    4.4991   -3.1775    0.0000 H   0  0  0  0  0  0  0  0  0  0  0  0
    4.2868   -5.1950    0.0000 H   0  0  0  0  0  0  0  0  0  0  0  0
    5.2134   -4.6600    0.0000 H   0  0  0  0  0  0  0  0  0  0  0  0
    6.4302   -2.6805    0.0000 H   0  0  0  0  0  0  0  0  0  0  0  0
    8.0384   -3.6090    0.0000 H   0  0  0  0  0  0  0  0  0  0  0  0
    4.0747   -4.8275    0.0000 H   0  0  0  0  0  0  0  0  0  0  0  0
    4.0747   -5.8975    0.0000 H   0  0  0  0  0  0  0  0  0  0  0  0
    5.9279   -6.7225    0.0000 H   0  0  0  0  0  0  0  0  0  0  0  0
    5.0013   -7.2575    0.0000 H   0  0  0  0  0  0  0  0  0  0  0  0
    3.3602   -6.0650    0.0000 H   0  0  0  0  0  0  0  0  0  0  0  0
    4.2868   -7.6700    0.0000 H   0  0  0  0  0  0  0  0  0  0  0  0
    3.3601   -7.1350    0.0000 H   0  0  0  0  0  0  0  0  0  0  0  0
    5.6187   -6.6560    0.0000 H   0  0  0  0  0  0  0  0  0  0  0  0
    6.9326   -6.7225    0.0000 H   0  0  0  0  0  0  0  0  0  0  0  0
    8.7858   -6.7225    0.0000 H   0  0  0  0  0  0  0  0  0  0  0  0
    7.8592   -7.2575    0.0000 H   0  0  0  0  0  0  0  0  0  0  0  0
  1  2  1  0  0  0  0
  1 38  1  0  0  0  0
  1 39  1  0  0  0  0
  1 40  1  0  0  0  0
  2  3  1  0  0  0  0
  2 41  1  0  0  0  0
  2 42  1  0  0  0  0
  3  4  1  0  0  0  0
  3 43  1  0  0  0  0
  3 44  1  0  0  0  0
  4  5  2  0  0  0  0
  4  9  1  0  0  0  0
  5  6  1  0  0  0  0
  5 20  1  0  0  0  0
  6  7  2  0  0  0  0
  6 45  1  0  0  0  0
  7  8  1  0  0  0  0
  7 46  1  0  0  0  0
  8  9  2  0  0  0  0
  8 17  1  0  0  0  0
  9 10  1  0  0  0  0
 10 11  1  0  0  0  0
 11 12  1  0  0  0  0
 11 47  1  0  0  0  0
 11 48  1  0  0  0  0
 12 13  1  0  0  0  0
 12 49  1  0  0  0  0
 12 50  1  0  0  0  0
 13 14  1  0  0  0  0
 13 51  1  0  0  0  0
 13 52  1  0  0  0  0
 14 15  2  0  0  0  0
 14 16  1  0  0  0  0
 16 53  1  0  0  0  0
 17 18  2  0  0  0  0
 17 19  1  0  0  0  0
 19 54  1  0  0  0  0
 19 55  1  0  0  0  0
 19 56  1  0  0  0  0
 20 21  1  0  0  0  0
 21 22  1  0  0  0  0
 21 57  1  0  0  0  0
 21 58  1  0  0  0  0
 22 23  1  0  0  0  0
 22 59  1  0  0  0  0
 22 60  1  0  0  0  0
 23 24  1  0  0  0  0
 23 61  1  0  0  0  0
 23 62  1  0  0  0  0
 24 25  1  0  0  0  0
 25 26  2  0  0  0  0
 25 30  1  0  0  0  0
 26 27  1  0  0  0  0
 26 63  1  0  0  0  0
 27 28  2  0  0  0  0
 27 64  1  0  0  0  0
 28 29  1  0  0  0  0
 28 35  1  0  0  0  0
 29 30  2  0  0  0  0
 29 34  1  0  0  0  0
 30 31  1  0  0  0  0
 31 32  1  0  0  0  0
 31 65  1  0  0  0  0
 31 66  1  0  0  0  0
 32 33  1  0  0  0  0
 32 67  1  0  0  0  0
 32 68  1  0  0  0  0
 33 69  1  0  0  0  0
 33 70  1  0  0  0  0
 33 71  1  0  0  0  0
 34 72  1  0  0  0  0
 35 36  2  0  0  0  0
 35 37  1  0  0  0  0
 37 73  1  0  0  0  0
 37 74  1  0  0  0  0
 37 75  1  0  0  0  0
M  END
>  <DRUGBANK_ID>
DB12435

>  <COMMON_NAME>
Tipelukast

>  <CAS_NUMBER>
125961-82-2

>  <UNII>
08379P260O

>  <SYNONYMS>
Tipelukast

$$$$
