
 OpenBabel10282417072D

 32 35  0  0  1  0  0  0  0  0999 V2000
    4.7513    0.8577    0.0000 C   0  0  0  0  0  0  0  0  0  0  0  0
    4.0184    1.2366    0.0000 C   0  0  0  0  0  0  0  0  0  0  0  0
    3.3239    0.7914    0.0000 C   0  0  0  0  0  0  0  0  0  0  0  0
    3.3622   -0.0327    0.0000 C   0  0  0  0  0  0  0  0  0  0  0  0
    4.0950   -0.4116    0.0000 N   0  0  0  0  0  0  0  0  0  0  0  0
    4.7896    0.0336    0.0000 C   0  0  0  0  0  0  0  0  0  0  0  0
    2.5902   -0.3238    0.0000 O   0  0  0  0  0  0  0  0  0  0  0  0
    2.0748    0.3204    0.0000 C   0  0  1  0  0  0  0  0  0  0  0  0
    2.5283    1.0096    0.0000 C   0  0  0  0  0  0  0  0  0  0  0  0
    1.6960   -0.4125    0.0000 C   0  0  0  0  0  0  0  0  0  0  0  0
    0.8718   -0.4508    0.0000 N   0  0  3  0  0  0  0  0  0  0  0  0
    0.4266    0.2438    0.0000 C   0  0  0  0  0  0  0  0  0  0  0  0
    0.8055    0.9766    0.0000 C   0  0  0  0  0  0  0  0  0  0  0  0
    1.6296    1.0149    0.0000 C   0  0  3  0  0  0  0  0  0  0  0  0
    1.2549    0.5895    0.0000 C   0  0  0  0  0  0  0  0  0  0  0  0
    1.0023    0.1009    0.0000 C   0  0  0  0  0  0  0  0  0  0  0  0
    5.6201    1.4146    0.0000 H   0  0  0  0  0  0  0  0  0  0  0  0
    3.9705    2.2675    0.0000 H   0  0  0  0  0  0  0  0  0  0  0  0
    5.7063   -0.4404    0.0000 H   0  0  0  0  0  0  0  0  0  0  0  0
    2.1508    2.0108    0.0000 H   0  0  0  0  0  0  0  0  0  0  0  0
    3.2490    1.8005    0.0000 H   0  0  0  0  0  0  0  0  0  0  0  0
    2.2735   -1.3133    0.0000 H   0  0  0  0  0  0  0  0  0  0  0  0
    1.2046   -1.3630    0.0000 H   0  0  0  0  0  0  0  0  0  0  0  0
   -0.6422    0.1942    0.0000 H   0  0  0  0  0  0  0  0  0  0  0  0
   -0.1508    1.1446    0.0000 H   0  0  0  0  0  0  0  0  0  0  0  0
    0.2281    1.8774    0.0000 H   0  0  0  0  0  0  0  0  0  0  0  0
    1.2969    1.9271    0.0000 H   0  0  0  0  0  0  0  0  0  0  0  0
    1.1382    0.0644    0.0000 H   0  0  0  0  0  0  0  0  0  0  0  0
    0.3716    1.1933    0.0000 H   0  0  0  0  0  0  0  0  0  0  0  0
    0.2174    0.3279    0.0000 H   0  0  0  0  0  0  0  0  0  0  0  0
   -0.0011    0.4725    0.0000 H   0  0  0  0  0  0  0  0  0  0  0  0
    0.0592   -0.4045    0.0000 H   0  0  0  0  0  0  0  0  0  0  0  0
  1  2  2  0  0  0  0
  1  6  1  0  0  0  0
  1 17  1  0  0  0  0
  2  3  1  0  0  0  0
  2 18  1  0  0  0  0
  3  4  2  0  0  0  0
  3  9  1  0  0  0  0
  4  5  1  0  0  0  0
  4  7  1  0  0  0  0
  5  6  2  0  0  0  0
  6 19  1  0  0  0  0
  8  7  1  1  0  0  0
  8  9  1  0  0  0  0
  8 10  1  0  0  0  0
  8 14  1  0  0  0  0
  9 20  1  0  0  0  0
  9 21  1  0  0  0  0
 10 11  1  0  0  0  0
 10 22  1  0  0  0  0
 10 23  1  0  0  0  0
 11 12  1  0  0  0  0
 11 16  1  0  0  0  0
 12 13  1  0  0  0  0
 12 24  1  0  0  0  0
 12 25  1  0  0  0  0
 13 14  1  0  0  0  0
 13 26  1  0  0  0  0
 13 27  1  0  0  0  0
 14 15  1  0  0  0  0
 14 28  1  0  0  0  0
 15 16  1  0  0  0  0
 15 29  1  0  0  0  0
 15 30  1  0  0  0  0
 16 31  1  0  0  0  0
 16 32  1  0  0  0  0
M  END
>  <DRUGBANK_ID>
DB12145

>  <COMMON_NAME>
AZD-0328

>  <CAS_NUMBER>
220099-91-2

>  <UNII>
2B218X5QIY

$$$$
