
 OpenBabel10282417072D

 72 71  0  0  0  0  0  0  0  0999 V2000
    4.7586   -3.5724    0.0000 C   0  0  0  0  0  0  0  0  0  0  0  0
   20.4769   -3.5724    0.0000 C   0  0  0  0  0  0  0  0  0  0  0  0
   20.1749   -4.6993    0.0000 C   0  0  0  0  0  0  0  0  0  0  0  0
   19.3499   -3.2704    0.0000 C   0  0  0  0  0  0  0  0  0  0  0  0
    5.4730   -3.9849    0.0000 C   0  0  0  0  0  0  0  0  0  0  0  0
    6.1875   -3.5724    0.0000 C   0  0  0  0  0  0  0  0  0  0  0  0
    6.9020   -3.9849    0.0000 C   0  0  0  0  0  0  0  0  0  0  0  0
    7.6164   -3.5724    0.0000 C   0  0  0  0  0  0  0  0  0  0  0  0
    8.3309   -3.9849    0.0000 C   0  0  0  0  0  0  0  0  0  0  0  0
    9.0454   -3.5724    0.0000 C   0  0  0  0  0  0  0  0  0  0  0  0
    9.7599   -3.9849    0.0000 C   0  0  0  0  0  0  0  0  0  0  0  0
   10.4743   -3.5724    0.0000 C   0  0  0  0  0  0  0  0  0  0  0  0
   11.1888   -3.9849    0.0000 C   0  0  0  0  0  0  0  0  0  0  0  0
   11.9033   -3.5724    0.0000 C   0  0  0  0  0  0  0  0  0  0  0  0
   19.0480   -4.3974    0.0000 C   0  0  0  0  0  0  0  0  0  0  0  0
   18.3335   -3.9849    0.0000 C   0  0  0  0  0  0  0  0  0  0  0  0
   14.0467   -3.9849    0.0000 C   0  0  0  0  0  0  0  0  0  0  0  0
   15.4756   -3.9849    0.0000 C   0  0  0  0  0  0  0  0  0  0  0  0
   14.7612   -3.5724    0.0000 C   0  0  3  0  0  0  0  0  0  0  0  0
   12.6177   -3.9849    0.0000 C   0  0  0  0  0  0  0  0  0  0  0  0
   19.7624   -3.9849    0.0000 N   0  3  0  0  0  0  0  0  0  0  0  0
   14.7612   -2.7474    0.0000 O   0  0  0  0  0  0  0  0  0  0  0  0
   12.6177   -4.8099    0.0000 O   0  0  0  0  0  0  0  0  0  0  0  0
   16.4921   -4.6993    0.0000 O   0  0  0  0  0  0  0  0  0  0  0  0
   17.3171   -3.2704    0.0000 O   0  0  0  0  0  0  0  0  0  0  0  0
   13.3322   -3.5724    0.0000 O   0  0  0  0  0  0  0  0  0  0  0  0
   17.6190   -4.3974    0.0000 O   0  0  0  0  0  0  0  0  0  0  0  0
   16.1901   -3.5724    0.0000 O   0  0  0  0  0  0  0  0  0  0  0  0
   16.9046   -3.9849    0.0000 P   0  0  3  0  0  0  0  0  0  0  0  0
    4.7586   -2.5024    0.0000 H   0  0  0  0  0  0  0  0  0  0  0  0
    3.8319   -4.1074    0.0000 H   0  0  0  0  0  0  0  0  0  0  0  0
    3.8320   -3.0374    0.0000 H   0  0  0  0  0  0  0  0  0  0  0  0
   21.4035   -4.1074    0.0000 H   0  0  0  0  0  0  0  0  0  0  0  0
   20.4769   -2.5024    0.0000 H   0  0  0  0  0  0  0  0  0  0  0  0
   21.4036   -3.0374    0.0000 H   0  0  0  0  0  0  0  0  0  0  0  0
   19.6399   -5.6260    0.0000 H   0  0  0  0  0  0  0  0  0  0  0  0
   21.2449   -4.6993    0.0000 H   0  0  0  0  0  0  0  0  0  0  0  0
   20.7099   -5.6259    0.0000 H   0  0  0  0  0  0  0  0  0  0  0  0
   19.8849   -2.3438    0.0000 H   0  0  0  0  0  0  0  0  0  0  0  0
   18.2799   -3.2704    0.0000 H   0  0  0  0  0  0  0  0  0  0  0  0
   18.8149   -2.3437    0.0000 H   0  0  0  0  0  0  0  0  0  0  0  0
    5.4730   -5.0549    0.0000 H   0  0  0  0  0  0  0  0  0  0  0  0
    6.3996   -4.5199    0.0000 H   0  0  0  0  0  0  0  0  0  0  0  0
    6.1875   -2.5024    0.0000 H   0  0  0  0  0  0  0  0  0  0  0  0
    7.1141   -3.0374    0.0000 H   0  0  0  0  0  0  0  0  0  0  0  0
    6.9020   -5.0549    0.0000 H   0  0  0  0  0  0  0  0  0  0  0  0
    7.8287   -4.5199    0.0000 H   0  0  0  0  0  0  0  0  0  0  0  0
    7.6164   -2.5024    0.0000 H   0  0  0  0  0  0  0  0  0  0  0  0
    8.5430   -3.0374    0.0000 H   0  0  0  0  0  0  0  0  0  0  0  0
    8.3309   -5.0549    0.0000 H   0  0  0  0  0  0  0  0  0  0  0  0
    9.2575   -4.5199    0.0000 H   0  0  0  0  0  0  0  0  0  0  0  0
    9.0454   -2.5024    0.0000 H   0  0  0  0  0  0  0  0  0  0  0  0
    9.9720   -3.0374    0.0000 H   0  0  0  0  0  0  0  0  0  0  0  0
    9.7599   -5.0549    0.0000 H   0  0  0  0  0  0  0  0  0  0  0  0
   10.6866   -4.5199    0.0000 H   0  0  0  0  0  0  0  0  0  0  0  0
   10.4743   -2.5024    0.0000 H   0  0  0  0  0  0  0  0  0  0  0  0
   11.4009   -3.0374    0.0000 H   0  0  0  0  0  0  0  0  0  0  0  0
   11.1888   -5.0549    0.0000 H   0  0  0  0  0  0  0  0  0  0  0  0
   12.1154   -4.5199    0.0000 H   0  0  0  0  0  0  0  0  0  0  0  0
   11.9033   -2.5024    0.0000 H   0  0  0  0  0  0  0  0  0  0  0  0
   12.8300   -3.0374    0.0000 H   0  0  0  0  0  0  0  0  0  0  0  0
   19.0480   -5.4674    0.0000 H   0  0  0  0  0  0  0  0  0  0  0  0
   19.9747   -4.9324    0.0000 H   0  0  0  0  0  0  0  0  0  0  0  0
   18.3335   -2.9149    0.0000 H   0  0  0  0  0  0  0  0  0  0  0  0
   17.4069   -3.4499    0.0000 H   0  0  0  0  0  0  0  0  0  0  0  0
   14.0467   -5.0549    0.0000 H   0  0  0  0  0  0  0  0  0  0  0  0
   13.1201   -4.5199    0.0000 H   0  0  0  0  0  0  0  0  0  0  0  0
   15.4756   -5.0549    0.0000 H   0  0  0  0  0  0  0  0  0  0  0  0
   16.4022   -4.5199    0.0000 H   0  0  0  0  0  0  0  0  0  0  0  0
   14.7612   -4.6424    0.0000 H   0  0  0  0  0  0  0  0  0  0  0  0
   15.6012   -2.2624    0.0000 H   0  0  0  0  0  0  0  0  0  0  0  0
   18.2871   -3.2704    0.0000 H   0  0  0  0  0  0  0  0  0  0  0  0
  1 30  1  0  0  0  0
  1 31  1  0  0  0  0
  1 32  1  0  0  0  0
  2 33  1  0  0  0  0
  2 34  1  0  0  0  0
  2 35  1  0  0  0  0
  3 36  1  0  0  0  0
  3 37  1  0  0  0  0
  3 38  1  0  0  0  0
  4 39  1  0  0  0  0
  4 40  1  0  0  0  0
  4 41  1  0  0  0  0
  5  1  1  0  0  0  0
  5 42  1  0  0  0  0
  5 43  1  0  0  0  0
  6  5  1  0  0  0  0
  6 44  1  0  0  0  0
  6 45  1  0  0  0  0
  7  6  1  0  0  0  0
  7 46  1  0  0  0  0
  7 47  1  0  0  0  0
  8  7  1  0  0  0  0
  8 48  1  0  0  0  0
  8 49  1  0  0  0  0
  9  8  1  0  0  0  0
  9 50  1  0  0  0  0
  9 51  1  0  0  0  0
 10  9  1  0  0  0  0
 10 52  1  0  0  0  0
 10 53  1  0  0  0  0
 11 10  1  0  0  0  0
 11 54  1  0  0  0  0
 11 55  1  0  0  0  0
 12 11  1  0  0  0  0
 12 56  1  0  0  0  0
 12 57  1  0  0  0  0
 13 12  1  0  0  0  0
 13 58  1  0  0  0  0
 13 59  1  0  0  0  0
 14 13  1  0  0  0  0
 14 60  1  0  0  0  0
 14 61  1  0  0  0  0
 15 62  1  0  0  0  0
 15 63  1  0  0  0  0
 16 15  1  0  0  0  0
 16 64  1  0  0  0  0
 16 65  1  0  0  0  0
 17 66  1  0  0  0  0
 17 67  1  0  0  0  0
 18 68  1  0  0  0  0
 18 69  1  0  0  0  0
 19 17  1  0  0  0  0
 19 18  1  0  0  0  0
 19 70  1  0  0  0  0
 20 14  1  0  0  0  0
 21  2  1  0  0  0  0
 21  3  1  0  0  0  0
 21  4  1  0  0  0  0
 21 15  1  0  0  0  0
 22 19  1  0  0  0  0
 22 71  1  0  0  0  0
 23 20  2  0  0  0  0
 25 72  1  0  0  0  0
 26 17  1  0  0  0  0
 26 20  1  0  0  0  0
 27 16  1  0  0  0  0
 28 18  1  0  0  0  0
 29 24  2  0  0  0  0
 29 25  1  0  0  0  0
 29 27  1  0  0  0  0
 29 28  1  0  0  0  0
M  CHG  1  21   1
M  END
>  <DRUGBANK_ID>
DB01707

>  <SECONDARY_ACCESSION_NUMBERS>
EXPT02003

>  <COMMON_NAME>
L-Alfa-Lysophosphatidylcholine, Lauroyl

>  <UNII>
V4Z2U6E9RE

$$$$
