
 OpenBabel10282417072D

 60 62  0  0  1  0  0  0  0  0999 V2000
    5.5732    3.9760    0.0000 C   0  0  0  0  0  0  0  0  0  0  0  0
    4.8588    4.3885    0.0000 C   0  0  1  0  0  0  0  0  0  0  0  0
    4.8588    5.2135    0.0000 C   0  0  0  0  0  0  0  0  0  0  0  0
    4.1443    5.6260    0.0000 O   0  0  0  0  0  0  0  0  0  0  0  0
    5.5732    5.6260    0.0000 O   0  0  0  0  0  0  0  0  0  0  0  0
    5.5732    6.4510    0.0000 C   0  0  0  0  0  0  0  0  0  0  0  0
    4.1443    3.9760    0.0000 N   0  0  0  0  0  0  0  0  0  0  0  0
    4.1443    3.1510    0.0000 P   0  0  3  0  0  0  0  0  0  0  0  0
    3.3193    3.1510    0.0000 O   0  0  0  0  0  0  0  0  0  0  0  0
    4.1443    2.3260    0.0000 O   0  0  0  0  0  0  0  0  0  0  0  0
    3.4298    1.9135    0.0000 C   0  0  0  0  0  0  0  0  0  0  0  0
    3.4298    1.0885    0.0000 C   0  0  2  0  0  0  0  0  0  0  0  0
    4.0973    0.6036    0.0000 C   0  0  2  0  0  0  0  0  0  0  0  0
    3.8423   -0.1811    0.0000 C   0  0  0  0  0  0  0  0  0  0  0  0
    3.0173   -0.1811    0.0000 C   0  0  1  0  0  0  0  0  0  0  0  0
    2.7624    0.6036    0.0000 O   0  0  0  0  0  0  0  0  0  0  0  0
    2.5324   -0.8485    0.0000 N   0  0  0  0  0  0  0  0  0  0  0  0
    2.8680   -1.6022    0.0000 C   0  0  0  0  0  0  0  0  0  0  0  0
    2.3830   -2.2696    0.0000 C   0  0  0  0  0  0  0  0  0  0  0  0
    1.5626   -2.1834    0.0000 C   0  0  0  0  0  0  0  0  0  0  0  0
    1.0776   -2.8508    0.0000 O   0  0  0  0  0  0  0  0  0  0  0  0
    1.2270   -1.4297    0.0000 N   0  0  0  0  0  0  0  0  0  0  0  0
    1.7119   -0.7623    0.0000 C   0  0  0  0  0  0  0  0  0  0  0  0
    1.3764   -0.0086    0.0000 O   0  0  0  0  0  0  0  0  0  0  0  0
    2.7186   -3.0233    0.0000 C   0  0  0  0  0  0  0  0  0  0  0  0
    2.2337   -3.6907    0.0000 C   0  0  0  0  0  0  0  0  0  0  0  0
    2.5692   -4.4444    0.0000 Br  0  0  0  0  0  0  0  0  0  0  0  0
    4.8819    0.8585    0.0000 O   0  0  0  0  0  0  0  0  0  0  0  0
    4.9693    3.1510    0.0000 O   0  0  0  0  0  0  0  0  0  0  0  0
    5.3818    2.4365    0.0000 C   0  0  0  0  0  0  0  0  0  0  0  0
    6.2068    2.4365    0.0000 C   0  0  0  0  0  0  0  0  0  0  0  0
    6.6193    1.7221    0.0000 C   0  0  0  0  0  0  0  0  0  0  0  0
    6.2068    1.0076    0.0000 C   0  0  0  0  0  0  0  0  0  0  0  0
    5.3818    1.0076    0.0000 C   0  0  0  0  0  0  0  0  0  0  0  0
    4.9693    1.7221    0.0000 C   0  0  0  0  0  0  0  0  0  0  0  0
    5.5732    2.9060    0.0000 H   0  0  0  0  0  0  0  0  0  0  0  0
    6.4999    4.5110    0.0000 H   0  0  0  0  0  0  0  0  0  0  0  0
    6.4998    3.4410    0.0000 H   0  0  0  0  0  0  0  0  0  0  0  0
    5.7855    4.9235    0.0000 H   0  0  0  0  0  0  0  0  0  0  0  0
    6.4998    6.9860    0.0000 H   0  0  0  0  0  0  0  0  0  0  0  0
    4.6466    6.9860    0.0000 H   0  0  0  0  0  0  0  0  0  0  0  0
    5.5732    7.5210    0.0000 H   0  0  0  0  0  0  0  0  0  0  0  0
    3.2610    4.4860    0.0000 H   0  0  0  0  0  0  0  0  0  0  0  0
    2.5032    2.4485    0.0000 H   0  0  0  0  0  0  0  0  0  0  0  0
    2.5032    1.3785    0.0000 H   0  0  0  0  0  0  0  0  0  0  0  0
    4.3832    1.5743    0.0000 H   0  0  0  0  0  0  0  0  0  0  0  0
    4.2647    1.6604    0.0000 H   0  0  0  0  0  0  0  0  0  0  0  0
    4.4712   -1.0468    0.0000 H   0  0  0  0  0  0  0  0  0  0  0  0
    3.3565   -1.1345    0.0000 H   0  0  0  0  0  0  0  0  0  0  0  0
    3.5031   -1.1345    0.0000 H   0  0  0  0  0  0  0  0  0  0  0  0
    3.8943   -1.7101    0.0000 H   0  0  0  0  0  0  0  0  0  0  0  0
    0.2479   -1.3268    0.0000 H   0  0  0  0  0  0  0  0  0  0  0  0
    3.7449   -3.1312    0.0000 H   0  0  0  0  0  0  0  0  0  0  0  0
    1.2074   -3.5828    0.0000 H   0  0  0  0  0  0  0  0  0  0  0  0
    5.6027    0.2094    0.0000 H   0  0  0  0  0  0  0  0  0  0  0  0
    6.7228    3.3302    0.0000 H   0  0  0  0  0  0  0  0  0  0  0  0
    7.6513    1.7221    0.0000 H   0  0  0  0  0  0  0  0  0  0  0  0
    6.7228    0.1139    0.0000 H   0  0  0  0  0  0  0  0  0  0  0  0
    4.8658    0.1139    0.0000 H   0  0  0  0  0  0  0  0  0  0  0  0
    3.9373    1.7221    0.0000 H   0  0  0  0  0  0  0  0  0  0  0  0
  1 36  1  0  0  0  0
  1 37  1  0  0  0  0
  1 38  1  0  0  0  0
  2  1  1  0  0  0  0
  2  3  1  0  0  0  0
  2  7  1  0  0  0  0
  2 39  1  1  0  0  0
  3  4  2  0  0  0  0
  3  5  1  0  0  0  0
  5  6  1  0  0  0  0
  6 40  1  0  0  0  0
  6 41  1  0  0  0  0
  6 42  1  0  0  0  0
  7  8  1  0  0  0  0
  7 43  1  0  0  0  0
  8  9  2  0  0  0  0
  8 10  1  0  0  0  0
  8 29  1  0  0  0  0
 10 11  1  0  0  0  0
 11 44  1  0  0  0  0
 11 45  1  0  0  0  0
 12 11  1  0  0  0  0
 12 13  1  0  0  0  0
 12 16  1  0  0  0  0
 12 46  1  1  0  0  0
 13 14  1  0  0  0  0
 13 28  1  0  0  0  0
 13 47  1  6  0  0  0
 14 15  1  0  0  0  0
 14 48  1  0  0  0  0
 14 49  1  0  0  0  0
 15 16  1  0  0  0  0
 15 17  1  0  0  0  0
 15 50  1  1  0  0  0
 17 18  1  0  0  0  0
 17 23  1  0  0  0  0
 18 19  2  0  0  0  0
 18 51  1  0  0  0  0
 19 20  1  0  0  0  0
 19 25  1  0  0  0  0
 20 21  2  0  0  0  0
 20 22  1  0  0  0  0
 22 23  1  0  0  0  0
 22 52  1  0  0  0  0
 23 24  2  0  0  0  0
 25 26  2  0  0  0  0
 25 53  1  0  0  0  0
 26 27  1  0  0  0  0
 26 54  1  0  0  0  0
 28 55  1  0  0  0  0
 29 30  1  0  0  0  0
 30 31  2  0  0  0  0
 30 35  1  0  0  0  0
 31 32  1  0  0  0  0
 31 56  1  0  0  0  0
 32 33  2  0  0  0  0
 32 57  1  0  0  0  0
 33 34  1  0  0  0  0
 33 58  1  0  0  0  0
 34 35  2  0  0  0  0
 34 59  1  0  0  0  0
 35 60  1  0  0  0  0
M  END
>  <DRUGBANK_ID>
DB05116

>  <COMMON_NAME>
Thymectacin

>  <CAS_NUMBER>
232925-18-7

>  <UNII>
2ZRZ4TSW3F

>  <SYNONYMS>
Brivudine phosphoramidate

$$$$
