
 OpenBabel10282417072D

 63 66  0  0  0  0  0  0  0  0999 V2000
   -4.6440   -1.0312    0.0000 O   0  0  0  0  0  0  0  0  0  0  0  0
   -3.9296   -0.6187    0.0000 C   0  0  0  0  0  0  0  0  0  0  0  0
   -3.9296    0.2062    0.0000 N   0  0  0  0  0  0  0  0  0  0  0  0
   -3.2151   -1.0312    0.0000 C   0  0  0  0  0  0  0  0  0  0  0  0
   -3.2151   -1.8562    0.0000 C   0  0  0  0  0  0  0  0  0  0  0  0
   -2.5006   -2.2687    0.0000 N   0  0  0  0  0  0  0  0  0  0  0  0
   -1.7862   -1.8562    0.0000 C   0  0  0  0  0  0  0  0  0  0  0  0
   -1.7862   -1.0312    0.0000 C   0  0  0  0  0  0  0  0  0  0  0  0
   -1.0717   -0.6187    0.0000 C   0  0  0  0  0  0  0  0  0  0  0  0
   -0.3572   -1.0312    0.0000 C   0  0  0  0  0  0  0  0  0  0  0  0
    0.3572   -0.6187    0.0000 S   0  0  0  0  0  0  0  0  0  0  0  0
   -0.0552    0.0957    0.0000 O   0  0  0  0  0  0  0  0  0  0  0  0
    1.0716   -0.2062    0.0000 C   0  0  0  0  0  0  0  0  0  0  0  0
    1.7861   -0.6187    0.0000 C   0  0  0  0  0  0  0  0  0  0  0  0
    2.5006   -0.2062    0.0000 C   0  0  0  0  0  0  0  0  0  0  0  0
    3.2150   -0.6187    0.0000 C   0  0  0  0  0  0  0  0  0  0  0  0
    3.9295   -0.2062    0.0000 N   0  0  0  0  0  0  0  0  0  0  0  0
    4.6440   -0.6187    0.0000 C   0  0  0  0  0  0  0  0  0  0  0  0
    3.9295    0.6187    0.0000 C   0  0  0  0  0  0  0  0  0  0  0  0
    3.2150   -1.4437    0.0000 O   0  0  0  0  0  0  0  0  0  0  0  0
    2.5006    0.6187    0.0000 C   0  0  0  0  0  0  0  0  0  0  0  0
    1.7861    1.0312    0.0000 C   0  0  0  0  0  0  0  0  0  0  0  0
    1.0716    0.6187    0.0000 C   0  0  0  0  0  0  0  0  0  0  0  0
    0.7697   -1.3332    0.0000 O   0  0  0  0  0  0  0  0  0  0  0  0
   -0.3572   -1.8562    0.0000 C   0  0  0  0  0  0  0  0  0  0  0  0
   -1.0717   -2.2687    0.0000 C   0  0  0  0  0  0  0  0  0  0  0  0
   -1.0717   -3.0937    0.0000 C   0  0  0  0  0  0  0  0  0  0  0  0
   -2.5006   -0.6187    0.0000 C   0  0  0  0  0  0  0  0  0  0  0  0
   -2.5006    0.2062    0.0000 N   0  0  0  0  0  0  0  0  0  0  0  0
   -1.7862    0.6187    0.0000 C   0  0  0  0  0  0  0  0  0  0  0  0
   -1.7862    1.4437    0.0000 C   0  0  0  0  0  0  0  0  0  0  0  0
   -1.0717    0.2062    0.0000 C   0  0  0  0  0  0  0  0  0  0  0  0
   -0.3572    0.6187    0.0000 C   0  0  0  0  0  0  0  0  0  0  0  0
   -0.3572    1.4437    0.0000 C   0  0  0  0  0  0  0  0  0  0  0  0
   -1.0717    1.8562    0.0000 C   0  0  0  0  0  0  0  0  0  0  0  0
   -1.0717    2.6812    0.0000 O   0  0  0  0  0  0  0  0  0  0  0  0
   -0.3572    3.0937    0.0000 C   0  0  0  0  0  0  0  0  0  0  0  0
   -3.0770    0.6985    0.0000 H   0  0  0  0  0  0  0  0  0  0  0  0
   -4.7822    0.6985    0.0000 H   0  0  0  0  0  0  0  0  0  0  0  0
   -4.1088   -2.3722    0.0000 H   0  0  0  0  0  0  0  0  0  0  0  0
   -1.0717    0.4133    0.0000 H   0  0  0  0  0  0  0  0  0  0  0  0
    1.7861   -1.6507    0.0000 H   0  0  0  0  0  0  0  0  0  0  0  0
    4.6440   -1.6887    0.0000 H   0  0  0  0  0  0  0  0  0  0  0  0
    5.5706   -0.0837    0.0000 H   0  0  0  0  0  0  0  0  0  0  0  0
    5.5707   -1.1537    0.0000 H   0  0  0  0  0  0  0  0  0  0  0  0
    4.8561    1.1537    0.0000 H   0  0  0  0  0  0  0  0  0  0  0  0
    3.0029    1.1537    0.0000 H   0  0  0  0  0  0  0  0  0  0  0  0
    3.9295    1.6887    0.0000 H   0  0  0  0  0  0  0  0  0  0  0  0
    3.3943    1.1347    0.0000 H   0  0  0  0  0  0  0  0  0  0  0  0
    1.7861    2.0632    0.0000 H   0  0  0  0  0  0  0  0  0  0  0  0
    0.1779    1.1347    0.0000 H   0  0  0  0  0  0  0  0  0  0  0  0
    0.5365   -2.3722    0.0000 H   0  0  0  0  0  0  0  0  0  0  0  0
   -1.9983   -3.6287    0.0000 H   0  0  0  0  0  0  0  0  0  0  0  0
   -0.1451   -3.6287    0.0000 H   0  0  0  0  0  0  0  0  0  0  0  0
   -1.0717   -4.1637    0.0000 H   0  0  0  0  0  0  0  0  0  0  0  0
   -3.3532    0.6984    0.0000 H   0  0  0  0  0  0  0  0  0  0  0  0
   -2.6799    1.9597    0.0000 H   0  0  0  0  0  0  0  0  0  0  0  0
   -1.0717   -0.8258    0.0000 H   0  0  0  0  0  0  0  0  0  0  0  0
    0.5365    0.1027    0.0000 H   0  0  0  0  0  0  0  0  0  0  0  0
    0.5365    1.9597    0.0000 H   0  0  0  0  0  0  0  0  0  0  0  0
    0.5694    2.5587    0.0000 H   0  0  0  0  0  0  0  0  0  0  0  0
   -0.3572    4.1637    0.0000 H   0  0  0  0  0  0  0  0  0  0  0  0
    0.5695    3.6287    0.0000 H   0  0  0  0  0  0  0  0  0  0  0  0
  2  1  2  0  0  0  0
  2  3  1  0  0  0  0
  2  4  1  0  0  0  0
  3 38  1  0  0  0  0
  3 39  1  0  0  0  0
  4  5  1  0  0  0  0
  5  6  2  0  0  0  0
  5 40  1  0  0  0  0
  7  6  1  0  0  0  0
  7  8  1  0  0  0  0
  7 26  2  0  0  0  0
  8 28  1  0  0  0  0
  9  8  2  0  0  0  0
  9 41  1  0  0  0  0
 10  9  1  0  0  0  0
 10 11  1  0  0  0  0
 12 11  2  0  0  0  0
 13 11  1  0  0  0  0
 13 14  2  0  0  0  0
 13 23  1  0  0  0  0
 14 42  1  0  0  0  0
 15 14  1  0  0  0  0
 15 16  1  0  0  0  0
 16 17  1  0  0  0  0
 16 20  2  0  0  0  0
 18 17  1  0  0  0  0
 18 43  1  0  0  0  0
 18 44  1  0  0  0  0
 18 45  1  0  0  0  0
 19 17  1  0  0  0  0
 19 46  1  0  0  0  0
 19 47  1  0  0  0  0
 19 48  1  0  0  0  0
 21 15  2  0  0  0  0
 21 49  1  0  0  0  0
 22 21  1  0  0  0  0
 22 50  1  0  0  0  0
 23 22  2  0  0  0  0
 23 51  1  0  0  0  0
 24 11  2  0  0  0  0
 25 10  2  0  0  0  0
 25 52  1  0  0  0  0
 26 25  1  0  0  0  0
 26 27  1  0  0  0  0
 27 53  1  0  0  0  0
 27 54  1  0  0  0  0
 27 55  1  0  0  0  0
 28  4  2  0  0  0  0
 28 29  1  0  0  0  0
 29 56  1  0  0  0  0
 30 29  1  0  0  0  0
 31 30  2  0  0  0  0
 31 57  1  0  0  0  0
 32 30  1  0  0  0  0
 32 58  1  0  0  0  0
 33 32  2  0  0  0  0
 33 59  1  0  0  0  0
 34 33  1  0  0  0  0
 34 60  1  0  0  0  0
 35 31  1  0  0  0  0
 35 34  2  0  0  0  0
 35 36  1  0  0  0  0
 37 36  1  0  0  0  0
 37 61  1  0  0  0  0
 37 62  1  0  0  0  0
 37 63  1  0  0  0  0
M  END
>  <DRUGBANK_ID>
DB12137

>  <COMMON_NAME>
GSK-256066

>  <CAS_NUMBER>
801312-28-7

>  <UNII>
2D6GK059SR

$$$$
