421
 OpenBabel10282417072D

 53 57  0  0  1  0  0  0  0  0999 V2000
    5.9017   -2.2620    0.0000 O   0  0  0  0  0  0  0  0  0  0  0  0
    7.0427   -3.1892    0.0000 O   0  0  0  0  0  0  0  0  0  0  0  0
    5.2976    3.5672    0.0000 O   0  0  0  0  0  0  0  0  0  0  0  0
    5.2537   -1.5451    0.0000 C   0  0  1  0  0  0  0  0  0  0  0  0
    4.5392   -1.1326    0.0000 C   0  0  2  0  0  0  0  0  0  0  0  0
    4.5392   -0.3076    0.0000 C   0  0  1  0  0  0  0  0  0  0  0  0
    5.0811   -2.3468    0.0000 C   0  0  2  0  0  0  0  0  0  0  0  0
    5.2537    0.1049    0.0000 C   0  0  1  0  0  0  0  0  0  0  0  0
    5.9682   -1.1326    0.0000 C   0  0  0  0  0  0  0  0  0  0  0  0
    3.9312   -1.6829    0.0000 C   0  0  0  0  0  0  0  0  0  0  0  0
    5.2670    0.9642    0.0000 C   0  0  2  0  0  0  0  0  0  0  0  0
    5.9682   -0.3076    0.0000 C   0  0  0  0  0  0  0  0  0  0  0  0
    4.2654   -2.4319    0.0000 C   0  0  0  0  0  0  0  0  0  0  0  0
    3.7885    0.1106    0.0000 C   0  0  0  0  0  0  0  0  0  0  0  0
    6.0662   -1.6884    0.0000 C   0  0  0  0  0  0  0  0  0  0  0  0
    4.9082   -3.1535    0.0000 C   0  0  0  0  0  0  0  0  0  0  0  0
    4.5260    1.3996    0.0000 C   0  0  0  0  0  0  0  0  0  0  0  0
    3.7819    0.9699    0.0000 C   0  0  0  0  0  0  0  0  0  0  0  0
    6.0523    1.3937    0.0000 C   0  0  0  0  0  0  0  0  0  0  0  0
    5.9783    0.5462    0.0000 C   0  0  0  0  0  0  0  0  0  0  0  0
    5.6220   -3.5672    0.0000 C   0  0  0  0  0  0  0  0  0  0  0  0
    6.2360   -3.0162    0.0000 C   0  0  0  0  0  0  0  0  0  0  0  0
    6.0660    2.2887    0.0000 C   0  0  0  0  0  0  0  0  0  0  0  0
    4.5192    2.2947    0.0000 C   0  0  0  0  0  0  0  0  0  0  0  0
    5.2944    2.7421    0.0000 C   0  0  0  0  0  0  0  0  0  0  0  0
    3.9360   -0.8649    0.0000 H   0  0  0  0  0  0  0  0  0  0  0  0
    3.9702   -0.6419    0.0000 H   0  0  0  0  0  0  0  0  0  0  0  0
    5.8278    0.4305    0.0000 H   0  0  0  0  0  0  0  0  0  0  0  0
    6.8948   -1.6676    0.0000 H   0  0  0  0  0  0  0  0  0  0  0  0
    6.8948   -0.5976    0.0000 H   0  0  0  0  0  0  0  0  0  0  0  0
    2.8842   -1.4622    0.0000 H   0  0  0  0  0  0  0  0  0  0  0  0
    3.2589   -2.5153    0.0000 H   0  0  0  0  0  0  0  0  0  0  0  0
    6.8948    0.2274    0.0000 H   0  0  0  0  0  0  0  0  0  0  0  0
    6.8948   -0.8426    0.0000 H   0  0  0  0  0  0  0  0  0  0  0  0
    3.7304   -3.3586    0.0000 H   0  0  0  0  0  0  0  0  0  0  0  0
    3.1968   -2.3763    0.0000 H   0  0  0  0  0  0  0  0  0  0  0  0
    2.9008   -0.4157    0.0000 H   0  0  0  0  0  0  0  0  0  0  0  0
    6.4321   -2.6939    0.0000 H   0  0  0  0  0  0  0  0  0  0  0  0
    6.7540   -0.8688    0.0000 H   0  0  0  0  0  0  0  0  0  0  0  0
    7.1199   -1.8742    0.0000 H   0  0  0  0  0  0  0  0  0  0  0  0
    3.9300   -3.5871    0.0000 H   0  0  0  0  0  0  0  0  0  0  0  0
    4.8504   -4.2219    0.0000 H   0  0  0  0  0  0  0  0  0  0  0  0
    2.8862    1.4824    0.0000 H   0  0  0  0  0  0  0  0  0  0  0  0
    6.9685    0.8410    0.0000 H   0  0  0  0  0  0  0  0  0  0  0  0
    6.9880    1.9126    0.0000 H   0  0  0  0  0  0  0  0  0  0  0  0
    5.9701   -0.5238    0.0000 H   0  0  0  0  0  0  0  0  0  0  0  0
    6.9090    1.0741    0.0000 H   0  0  0  0  0  0  0  0  0  0  0  0
    6.9008    0.0041    0.0000 H   0  0  0  0  0  0  0  0  0  0  0  0
    5.7321   -4.6315    0.0000 H   0  0  0  0  0  0  0  0  0  0  0  0
    6.6203   -3.9523    0.0000 H   0  0  0  0  0  0  0  0  0  0  0  0
    6.9987    2.8130    0.0000 H   0  0  0  0  0  0  0  0  0  0  0  0
    6.0762    3.3587    0.0000 H   0  0  0  0  0  0  0  0  0  0  0  0
    3.6235    2.8074    0.0000 H   0  0  0  0  0  0  0  0  0  0  0  0
  1 22  1  0  0  0  0
  2 22  2  0  0  0  0
  3 25  2  0  0  0  0
  4  5  1  0  0  0  0
  4  7  1  0  0  0  0
  4  9  1  0  0  0  0
  4 15  1  1  0  0  0
  5  6  1  0  0  0  0
  5 10  1  0  0  0  0
  5 26  1  6  0  0  0
  6  8  1  0  0  0  0
  6 14  1  0  0  0  0
  6 27  1  1  0  0  0
  7  1  1  1  0  0  0
  7 13  1  0  0  0  0
  7 16  1  0  0  0  0
  8 11  1  0  0  0  0
  8 12  1  0  0  0  0
  8 28  1  6  0  0  0
  9 12  1  0  0  0  0
  9 29  1  0  0  0  0
  9 30  1  0  0  0  0
 10 13  1  0  0  0  0
 10 31  1  0  0  0  0
 10 32  1  0  0  0  0
 11 17  1  0  0  0  0
 11 19  1  0  0  0  0
 11 20  1  1  0  0  0
 12 33  1  0  0  0  0
 12 34  1  0  0  0  0
 13 35  1  0  0  0  0
 13 36  1  0  0  0  0
 14 18  2  0  0  0  0
 14 37  1  0  0  0  0
 15 38  1  0  0  0  0
 15 39  1  0  0  0  0
 15 40  1  0  0  0  0
 16 21  1  0  0  0  0
 16 41  1  0  0  0  0
 16 42  1  0  0  0  0
 17 18  1  0  0  0  0
 17 24  2  0  0  0  0
 18 43  1  0  0  0  0
 19 23  1  0  0  0  0
 19 44  1  0  0  0  0
 19 45  1  0  0  0  0
 20 46  1  0  0  0  0
 20 47  1  0  0  0  0
 20 48  1  0  0  0  0
 21 22  1  0  0  0  0
 21 49  1  0  0  0  0
 21 50  1  0  0  0  0
 23 25  1  0  0  0  0
 23 51  1  0  0  0  0
 23 52  1  0  0  0  0
 24 25  1  0  0  0  0
 24 53  1  0  0  0  0
M  END
>  <DRUGBANK_ID>
DB12221

>  <COMMON_NAME>
Canrenone

>  <CAS_NUMBER>
976-71-6

>  <UNII>
78O20X9J0U

>  <SYNONYMS>
Canrenone

$$$$
