
 OpenBabel10282417072D

 34 34  0  0  0  0  0  0  0  0999 V2000
   -2.5007    0.5231    0.0000 F   0  0  0  0  0  0  0  0  0  0  0  0
   -0.3572    0.1105    0.0000 O   0  0  0  0  0  0  0  0  0  0  0  0
   -1.0717   -1.9521    0.0000 O   0  0  0  0  0  0  0  0  0  0  0  0
   -2.5007   -1.1270    0.0000 O   0  0  0  0  0  0  0  0  0  0  0  0
   -1.4842    1.2376    0.0000 O   0  0  0  0  0  0  0  0  0  0  0  0
    0.3572   -1.9521    0.0000 O   0  0  0  0  0  0  0  0  0  0  0  0
    1.0717    0.1105    0.0000 O   0  0  0  0  0  0  0  0  0  0  0  0
    0.1658    1.2376    0.0000 O   0  0  0  0  0  0  0  0  0  0  0  0
    2.5007   -0.7145    0.0000 O   0  0  0  0  0  0  0  0  0  0  0  0
   -1.0717    1.9521    0.0000 O   0  0  0  0  0  0  0  0  0  0  0  0
   -0.3572   -0.7145    0.0000 C   0  0  2  0  0  0  0  0  0  0  0  0
   -1.0717   -1.1270    0.0000 C   0  0  1  0  0  0  0  0  0  0  0  0
   -1.7862   -0.7145    0.0000 C   0  0  2  0  0  0  0  0  0  0  0  0
   -1.7862    0.1105    0.0000 C   0  0  2  0  0  0  0  0  0  0  0  0
   -1.0717    0.5231    0.0000 C   0  0  1  0  0  0  0  0  0  0  0  0
    0.3572   -1.1270    0.0000 C   0  0  1  0  0  0  0  0  0  0  0  0
    1.0717   -0.7145    0.0000 C   0  0  1  0  0  0  0  0  0  0  0  0
   -0.6592    1.2376    0.0000 C   0  0  0  0  0  0  0  0  0  0  0  0
    1.7862   -1.1270    0.0000 C   0  0  0  0  0  0  0  0  0  0  0  0
    0.2143   -0.3845    0.0000 H   0  0  0  0  0  0  0  0  0  0  0  0
   -1.7862    0.7706    0.0000 H   0  0  0  0  0  0  0  0  0  0  0  0
   -1.9117   -2.4371    0.0000 H   0  0  0  0  0  0  0  0  0  0  0  0
   -3.3407   -0.6420    0.0000 H   0  0  0  0  0  0  0  0  0  0  0  0
   -0.9992    2.0776    0.0000 H   0  0  0  0  0  0  0  0  0  0  0  0
   -0.4828   -2.4371    0.0000 H   0  0  0  0  0  0  0  0  0  0  0  0
    1.9117    0.5955    0.0000 H   0  0  0  0  0  0  0  0  0  0  0  0
    0.6343    0.4261    0.0000 H   0  0  0  0  0  0  0  0  0  0  0  0
    3.3407   -1.1995    0.0000 H   0  0  0  0  0  0  0  0  0  0  0  0
   -0.1451   -1.6620    0.0000 H   0  0  0  0  0  0  0  0  0  0  0  0
   -1.7862   -1.7845    0.0000 H   0  0  0  0  0  0  0  0  0  0  0  0
   -0.5695   -1.6620    0.0000 H   0  0  0  0  0  0  0  0  0  0  0  0
    0.1451   -0.1795    0.0000 H   0  0  0  0  0  0  0  0  0  0  0  0
    1.7862   -2.1970    0.0000 H   0  0  0  0  0  0  0  0  0  0  0  0
    0.8596   -1.6620    0.0000 H   0  0  0  0  0  0  0  0  0  0  0  0
  1 14  1  0  0  0  0
  2 11  1  0  0  0  0
  2 15  1  0  0  0  0
  3 22  1  0  0  0  0
  4 23  1  0  0  0  0
  5 24  1  0  0  0  0
  6 25  1  0  0  0  0
  7 26  1  0  0  0  0
  8 18  1  0  0  0  0
  8 27  1  0  0  0  0
  9 19  1  0  0  0  0
  9 28  1  0  0  0  0
 10 18  2  0  0  0  0
 11 12  1  0  0  0  0
 11 16  1  0  0  0  0
 11 20  1  6  0  0  0
 12  3  1  0  0  0  0
 12 13  1  0  0  0  0
 12 29  1  1  0  0  0
 13  4  1  0  0  0  0
 13 14  1  0  0  0  0
 13 30  1  6  0  0  0
 14 15  1  0  0  0  0
 14 21  1  6  0  0  0
 15  5  1  6  0  0  0
 15 18  1  0  0  0  0
 16  6  1  0  0  0  0
 16 17  1  0  0  0  0
 16 31  1  6  0  0  0
 17  7  1  0  0  0  0
 17 19  1  0  0  0  0
 17 32  1  1  0  0  0
 19 33  1  0  0  0  0
 19 34  1  0  0  0  0
M  END
>  <DRUGBANK_ID>
DB04694

>  <COMMON_NAME>
2,6-anhydro-3-deoxy-3-fluoronononic acid

>  <SYNONYMS>
3-deoxy-3-fluoro-D-erythro-Î±-L-manno-non-2-ulopyranosonic acid

$$$$
