
 OpenBabel10282417072D

 79 84  0  0  1  0  0  0  0  0999 V2000
    0.5373    0.1730    0.0000 O   0  0  0  0  0  0  0  0  0  0  0  0
    1.0985    0.7778    0.0000 C   0  0  2  0  0  0  0  0  0  0  0  0
    0.7971    1.5457    0.0000 C   0  0  1  0  0  0  0  0  0  0  0  0
   -0.0256    1.6074    0.0000 O   0  0  0  0  0  0  0  0  0  0  0  0
    1.2096    2.2602    0.0000 C   0  0  1  0  0  0  0  0  0  0  0  0
    0.7448    2.9419    0.0000 C   0  0  0  0  0  0  0  0  0  0  0  0
   -0.0779    2.8802    0.0000 C   0  0  0  0  0  0  0  0  0  0  0  0
   -0.4358    2.1369    0.0000 C   0  0  0  0  0  0  0  0  0  0  0  0
   -1.2585    2.0753    0.0000 C   0  0  0  0  0  0  0  0  0  0  0  0
   -1.7233    2.7569    0.0000 C   0  0  0  0  0  0  0  0  0  0  0  0
   -1.3653    3.5002    0.0000 C   0  0  0  0  0  0  0  0  0  0  0  0
   -0.5426    3.5619    0.0000 C   0  0  0  0  0  0  0  0  0  0  0  0
    2.0254    2.3832    0.0000 N   0  0  0  0  0  0  0  0  0  0  0  0
    2.2685    3.1715    0.0000 C   0  0  0  0  0  0  0  0  0  0  0  0
    1.7074    3.7763    0.0000 C   0  0  0  0  0  0  0  0  0  0  0  0
    1.9506    4.5646    0.0000 C   0  0  0  0  0  0  0  0  0  0  0  0
    1.3894    5.1694    0.0000 C   0  0  0  0  0  0  0  0  0  0  0  0
    0.5851    4.9858    0.0000 C   0  0  0  0  0  0  0  0  0  0  0  0
    0.3419    4.1975    0.0000 C   0  0  0  0  0  0  0  0  0  0  0  0
    0.9031    3.5927    0.0000 C   0  0  0  0  0  0  0  0  0  0  0  0
    1.6326    5.9578    0.0000 C   0  0  0  0  0  0  0  0  0  0  0  0
    2.4369    6.1413    0.0000 O   0  0  0  0  0  0  0  0  0  0  0  0
    1.0714    6.5625    0.0000 N   0  0  0  0  0  0  0  0  0  0  0  0
    1.3146    7.3509    0.0000 C   0  0  0  0  0  0  0  0  0  0  0  0
    0.8198    8.0110    0.0000 N   0  0  0  0  0  0  0  0  0  0  0  0
    1.2946    8.6856    0.0000 C   0  0  0  0  0  0  0  0  0  0  0  0
    2.0830    8.4424    0.0000 C   0  0  0  0  0  0  0  0  0  0  0  0
    2.0953    7.6175    0.0000 S   0  0  0  0  0  0  0  0  0  0  0  0
    2.6301    1.8220    0.0000 C   0  0  0  0  0  0  0  0  0  0  0  0
    3.3981    2.1234    0.0000 O   0  0  0  0  0  0  0  0  0  0  0  0
    2.5685    0.9993    0.0000 N   0  0  0  0  0  0  0  0  0  0  0  0
    3.2829    0.5868    0.0000 C   0  0  0  0  0  0  0  0  0  0  0  0
    3.2829   -0.2382    0.0000 C   0  0  0  0  0  0  0  0  0  0  0  0
    3.6954   -0.9526    0.0000 C   0  0  0  0  0  0  0  0  0  0  0  0
    2.8704   -0.9526    0.0000 C   0  0  0  0  0  0  0  0  0  0  0  0
    1.8868    0.5346    0.0000 C   0  0  2  0  0  0  0  0  0  0  0  0
    2.0098   -0.2812    0.0000 C   0  0  0  0  0  0  0  0  0  0  0  0
    1.3648   -0.7956    0.0000 C   0  0  0  0  0  0  0  0  0  0  0  0
    1.4877   -1.6113    0.0000 C   0  0  0  0  0  0  0  0  0  0  0  0
    0.8427   -2.1257    0.0000 C   0  0  0  0  0  0  0  0  0  0  0  0
    0.0747   -1.8243    0.0000 C   0  0  0  0  0  0  0  0  0  0  0  0
   -0.0482   -1.0085    0.0000 C   0  0  0  0  0  0  0  0  0  0  0  0
    0.5968   -0.4942    0.0000 C   0  0  0  0  0  0  0  0  0  0  0  0
   -0.4084    0.3889    0.0000 H   0  0  0  0  0  0  0  0  0  0  0  0
    0.0472    0.9767    0.0000 H   0  0  0  0  0  0  0  0  0  0  0  0
    0.1617    0.6848    0.0000 H   0  0  0  0  0  0  0  0  0  0  0  0
   -0.4464    2.4814    0.0000 H   0  0  0  0  0  0  0  0  0  0  0  0
    0.1403    2.2202    0.0000 H   0  0  0  0  0  0  0  0  0  0  0  0
    1.2090    3.9060    0.0000 H   0  0  0  0  0  0  0  0  0  0  0  0
    0.1420    3.8259    0.0000 H   0  0  0  0  0  0  0  0  0  0  0  0
    0.1455    1.2842    0.0000 H   0  0  0  0  0  0  0  0  0  0  0  0
   -1.7063    1.1455    0.0000 H   0  0  0  0  0  0  0  0  0  0  0  0
   -2.7524    2.6798    0.0000 H   0  0  0  0  0  0  0  0  0  0  0  0
   -1.9466    4.3529    0.0000 H   0  0  0  0  0  0  0  0  0  0  0  0
   -0.0948    4.4917    0.0000 H   0  0  0  0  0  0  0  0  0  0  0  0
    3.3117    3.4096    0.0000 H   0  0  0  0  0  0  0  0  0  0  0  0
    2.5839    4.1940    0.0000 H   0  0  0  0  0  0  0  0  0  0  0  0
    2.9567    4.7942    0.0000 H   0  0  0  0  0  0  0  0  0  0  0  0
   -0.1168    5.7423    0.0000 H   0  0  0  0  0  0  0  0  0  0  0  0
   -0.6642    3.9679    0.0000 H   0  0  0  0  0  0  0  0  0  0  0  0
    0.5989    2.6065    0.0000 H   0  0  0  0  0  0  0  0  0  0  0  0
    0.1116    6.3434    0.0000 H   0  0  0  0  0  0  0  0  0  0  0  0
    0.9610    9.6622    0.0000 H   0  0  0  0  0  0  0  0  0  0  0  0
    2.9088    9.0614    0.0000 H   0  0  0  0  0  0  0  0  0  0  0  0
    4.2096    1.1218    0.0000 H   0  0  0  0  0  0  0  0  0  0  0  0
    4.2095    0.0518    0.0000 H   0  0  0  0  0  0  0  0  0  0  0  0
    3.2829   -1.3082    0.0000 H   0  0  0  0  0  0  0  0  0  0  0  0
    4.6221   -1.4876    0.0000 H   0  0  0  0  0  0  0  0  0  0  0  0
    3.4185   -1.9861    0.0000 H   0  0  0  0  0  0  0  0  0  0  0  0
    1.9437   -1.4876    0.0000 H   0  0  0  0  0  0  0  0  0  0  0  0
    2.1138   -0.1960    0.0000 H   0  0  0  0  0  0  0  0  0  0  0  0
    2.8675    0.1067    0.0000 H   0  0  0  0  0  0  0  0  0  0  0  0
    3.0058   -0.6721    0.0000 H   0  0  0  0  0  0  0  0  0  0  0  0
    2.1693   -1.3392    0.0000 H   0  0  0  0  0  0  0  0  0  0  0  0
    2.4484   -1.9883    0.0000 H   0  0  0  0  0  0  0  0  0  0  0  0
    0.9965   -3.1462    0.0000 H   0  0  0  0  0  0  0  0  0  0  0  0
   -0.7322   -2.4677    0.0000 H   0  0  0  0  0  0  0  0  0  0  0  0
   -1.0088   -0.6314    0.0000 H   0  0  0  0  0  0  0  0  0  0  0  0
    0.4430    0.5263    0.0000 H   0  0  0  0  0  0  0  0  0  0  0  0
  1 44  1  0  0  0  0
  2  1  1  0  0  0  0
  2  3  1  0  0  0  0
  2 36  1  0  0  0  0
  2 45  1  1  0  0  0
  3  4  1  0  0  0  0
  3  5  1  0  0  0  0
  3 46  1  6  0  0  0
  4 47  1  0  0  0  0
  5  6  1  0  0  0  0
  5 13  1  0  0  0  0
  5 48  1  6  0  0  0
  6  7  1  0  0  0  0
  6 49  1  0  0  0  0
  6 50  1  0  0  0  0
  7  8  2  0  0  0  0
  7 12  1  0  0  0  0
  8  9  1  0  0  0  0
  8 51  1  0  0  0  0
  9 10  2  0  0  0  0
  9 52  1  0  0  0  0
 10 11  1  0  0  0  0
 10 53  1  0  0  0  0
 11 12  2  0  0  0  0
 11 54  1  0  0  0  0
 12 55  1  0  0  0  0
 13 14  1  0  0  0  0
 13 29  1  0  0  0  0
 14 15  1  0  0  0  0
 14 56  1  0  0  0  0
 14 57  1  0  0  0  0
 15 16  2  0  0  0  0
 15 20  1  0  0  0  0
 16 17  1  0  0  0  0
 16 58  1  0  0  0  0
 17 18  2  0  0  0  0
 17 21  1  0  0  0  0
 18 19  1  0  0  0  0
 18 59  1  0  0  0  0
 19 20  2  0  0  0  0
 19 60  1  0  0  0  0
 20 61  1  0  0  0  0
 21 22  2  0  0  0  0
 21 23  1  0  0  0  0
 23 24  1  0  0  0  0
 23 62  1  0  0  0  0
 24 25  2  0  0  0  0
 24 28  1  0  0  0  0
 25 26  1  0  0  0  0
 26 27  2  0  0  0  0
 26 63  1  0  0  0  0
 27 28  1  0  0  0  0
 27 64  1  0  0  0  0
 29 30  2  0  0  0  0
 29 31  1  0  0  0  0
 31 32  1  0  0  0  0
 31 36  1  0  0  0  0
 32 33  1  0  0  0  0
 32 65  1  0  0  0  0
 32 66  1  0  0  0  0
 33 34  1  0  0  0  0
 33 35  1  0  0  0  0
 33 67  1  0  0  0  0
 34 35  1  0  0  0  0
 34 68  1  0  0  0  0
 34 69  1  0  0  0  0
 35 70  1  0  0  0  0
 35 71  1  0  0  0  0
 36 37  1  0  0  0  0
 36 72  1  1  0  0  0
 37 38  1  0  0  0  0
 37 73  1  0  0  0  0
 37 74  1  0  0  0  0
 38 39  2  0  0  0  0
 38 43  1  0  0  0  0
 39 40  1  0  0  0  0
 39 75  1  0  0  0  0
 40 41  2  0  0  0  0
 40 76  1  0  0  0  0
 41 42  1  0  0  0  0
 41 77  1  0  0  0  0
 42 43  2  0  0  0  0
 42 78  1  0  0  0  0
 43 79  1  0  0  0  0
M  END
>  <DRUGBANK_ID>
DB04609

>  <COMMON_NAME>
INHIBITOR Q8467 OF DUPONT MERCK

$$$$
