L47
 OpenBabel10282417072D

 37 39  0  0  0  0  0  0  0  0999 V2000
    3.2914   -0.3219    0.0000 C   0  0  0  0  0  0  0  0  0  0  0  0
    2.5068   -0.5769    0.0000 C   0  0  0  0  0  0  0  0  0  0  0  0
    1.8937   -0.0249    0.0000 C   0  0  0  0  0  0  0  0  0  0  0  0
    2.0652    0.7821    0.0000 C   0  0  0  0  0  0  0  0  0  0  0  0
    2.8498    1.0371    0.0000 C   0  0  0  0  0  0  0  0  0  0  0  0
    3.4629    0.4850    0.0000 C   0  0  0  0  0  0  0  0  0  0  0  0
    1.1090   -0.2798    0.0000 C   0  0  0  0  0  0  0  0  0  0  0  0
    0.8541   -1.0644    0.0000 N   0  0  0  0  0  0  0  0  0  0  0  0
    0.0291   -1.0644    0.0000 N   0  0  0  0  0  0  0  0  0  0  0  0
   -0.2258   -0.2798    0.0000 C   0  0  1  0  0  0  0  0  0  0  0  0
    0.4416    0.2051    0.0000 C   0  0  0  0  0  0  0  0  0  0  0  0
   -1.0105   -0.0249    0.0000 C   0  0  0  0  0  0  0  0  0  0  0  0
   -0.4558   -1.7319    0.0000 C   0  0  0  0  0  0  0  0  0  0  0  0
   -1.2763   -1.6456    0.0000 C   0  0  0  0  0  0  0  0  0  0  0  0
   -0.1203   -2.4855    0.0000 O   0  0  0  0  0  0  0  0  0  0  0  0
   -1.6236   -0.5769    0.0000 C   0  0  0  0  0  0  0  0  0  0  0  0
   -2.4082   -0.3219    0.0000 C   0  0  0  0  0  0  0  0  0  0  0  0
   -2.5797    0.4850    0.0000 C   0  0  0  0  0  0  0  0  0  0  0  0
   -1.9666    1.0371    0.0000 C   0  0  0  0  0  0  0  0  0  0  0  0
   -1.1820    0.7821    0.0000 C   0  0  0  0  0  0  0  0  0  0  0  0
    1.4521    1.3342    0.0000 Cl  0  0  0  0  0  0  0  0  0  0  0  0
   -2.1381    1.8440    0.0000 O   0  0  0  0  0  0  0  0  0  0  0  0
   -0.6387   -0.6927    0.0000 H   0  0  0  0  0  0  0  0  0  0  0  0
    4.0584   -1.0124    0.0000 H   0  0  0  0  0  0  0  0  0  0  0  0
    2.2923   -1.5864    0.0000 H   0  0  0  0  0  0  0  0  0  0  0  0
    3.0644    2.0466    0.0000 H   0  0  0  0  0  0  0  0  0  0  0  0
    4.4444    0.8039    0.0000 H   0  0  0  0  0  0  0  0  0  0  0  0
    0.4416    1.2751    0.0000 H   0  0  0  0  0  0  0  0  0  0  0  0
   -0.5118    0.6909    0.0000 H   0  0  0  0  0  0  0  0  0  0  0  0
   -1.7114   -0.6681    0.0000 H   0  0  0  0  0  0  0  0  0  0  0  0
   -1.9053   -2.5112    0.0000 H   0  0  0  0  0  0  0  0  0  0  0  0
   -2.3404   -1.5337    0.0000 H   0  0  0  0  0  0  0  0  0  0  0  0
   -1.4091   -1.5864    0.0000 H   0  0  0  0  0  0  0  0  0  0  0  0
   -3.1752   -1.0124    0.0000 H   0  0  0  0  0  0  0  0  0  0  0  0
   -3.5612    0.8039    0.0000 H   0  0  0  0  0  0  0  0  0  0  0  0
   -0.4150    1.4726    0.0000 H   0  0  0  0  0  0  0  0  0  0  0  0
   -1.4418    2.4710    0.0000 H   0  0  0  0  0  0  0  0  0  0  0  0
  1  2  2  0  0  0  0
  1  6  1  0  0  0  0
  1 24  1  0  0  0  0
  2  3  1  0  0  0  0
  2 25  1  0  0  0  0
  3  4  2  0  0  0  0
  3  7  1  0  0  0  0
  4  5  1  0  0  0  0
  4 21  1  0  0  0  0
  5  6  2  0  0  0  0
  5 26  1  0  0  0  0
  6 27  1  0  0  0  0
  7  8  2  0  0  0  0
  7 11  1  0  0  0  0
  8  9  1  0  0  0  0
  9 10  1  0  0  0  0
  9 13  1  0  0  0  0
 10 11  1  0  0  0  0
 10 12  1  0  0  0  0
 10 23  1  1  0  0  0
 11 28  1  0  0  0  0
 11 29  1  0  0  0  0
 12 16  2  0  0  0  0
 12 20  1  0  0  0  0
 13 14  1  0  0  0  0
 13 15  2  0  0  0  0
 14 30  1  0  0  0  0
 14 31  1  0  0  0  0
 14 32  1  0  0  0  0
 16 17  1  0  0  0  0
 16 33  1  0  0  0  0
 17 18  2  0  0  0  0
 17 34  1  0  0  0  0
 18 19  1  0  0  0  0
 18 35  1  0  0  0  0
 19 20  2  0  0  0  0
 19 22  1  0  0  0  0
 20 36  1  0  0  0  0
 22 37  1  0  0  0  0
M  END
>  <DRUGBANK_ID>
DB03996

>  <SECONDARY_ACCESSION_NUMBERS>
EXPT01994

>  <COMMON_NAME>
3-[(5s)-1-Acetyl-3-(2-Chlorophenyl)-4,5-Dihydro-1h-Pyrazol-5-Yl]Phenol

$$$$
