
 OpenBabel10282417072D

 51 53  0  0  0  0  0  0  0  0999 V2000
   -2.4997   -0.2039    0.0000 C   0  0  0  0  0  0  0  0  0  0  0  0
   -3.2167    0.2099    0.0000 C   0  0  0  0  0  0  0  0  0  0  0  0
   -3.2225    1.0348    0.0000 N   0  0  0  0  0  0  0  0  0  0  0  0
   -1.7883    0.2099    0.0000 C   0  0  0  0  0  0  0  0  0  0  0  0
   -2.4937   -1.0406    0.0000 C   0  0  0  0  0  0  0  0  0  0  0  0
   -2.5025    1.4488    0.0000 C   0  0  0  0  0  0  0  0  0  0  0  0
   -1.7883    1.0377    0.0000 C   0  0  0  0  0  0  0  0  0  0  0  0
   -3.2167   -1.4545    0.0000 C   0  0  0  0  0  0  0  0  0  0  0  0
   -3.9338   -0.2099    0.0000 C   0  0  0  0  0  0  0  0  0  0  0  0
    0.3775   -1.0348    0.0000 C   0  0  2  0  0  0  0  0  0  0  0  0
   -0.3395   -1.4487    0.0000 N   0  0  0  0  0  0  0  0  0  0  0  0
   -3.9338   -1.0406    0.0000 C   0  0  0  0  0  0  0  0  0  0  0  0
   -2.5055    2.2736    0.0000 O   0  0  0  0  0  0  0  0  0  0  0  0
   -1.7738   -1.4487    0.0000 C   0  0  2  0  0  0  0  0  0  0  0  0
   -1.0566   -1.0348    0.0000 C   0  0  0  0  0  0  0  0  0  0  0  0
   -4.6479    0.2099    0.0000 O   0  0  0  0  0  0  0  0  0  0  0  0
   -1.7825   -2.2736    0.0000 O   0  0  0  0  0  0  0  0  0  0  0  0
    0.3745   -0.2127    0.0000 C   0  0  0  0  0  0  0  0  0  0  0  0
    1.0916   -1.4458    0.0000 C   0  0  0  0  0  0  0  0  0  0  0  0
    1.8029   -1.0347    0.0000 C   0  0  0  0  0  0  0  0  0  0  0  0
    2.5140   -1.4481    0.0000 C   0  0  0  0  0  0  0  0  0  0  0  0
    3.2247   -1.0378    0.0000 C   0  0  0  0  0  0  0  0  0  0  0  0
    3.2249   -0.2155    0.0000 C   0  0  0  0  0  0  0  0  0  0  0  0
    2.5083    0.1947    0.0000 C   0  0  0  0  0  0  0  0  0  0  0  0
    1.8004   -0.2179    0.0000 C   0  0  0  0  0  0  0  0  0  0  0  0
    3.9338    0.2011    0.0000 O   0  0  0  0  0  0  0  0  0  0  0  0
    4.6479   -0.2069    0.0000 C   0  0  0  0  0  0  0  0  0  0  0  0
   -4.0764    1.5248    0.0000 H   0  0  0  0  0  0  0  0  0  0  0  0
   -0.8937   -0.3047    0.0000 H   0  0  0  0  0  0  0  0  0  0  0  0
   -0.8949    1.5543    0.0000 H   0  0  0  0  0  0  0  0  0  0  0  0
   -3.2185   -2.4865    0.0000 H   0  0  0  0  0  0  0  0  0  0  0  0
    1.3028   -0.4975    0.0000 H   0  0  0  0  0  0  0  0  0  0  0  0
   -0.3395   -2.4687    0.0000 H   0  0  0  0  0  0  0  0  0  0  0  0
   -4.8275   -1.5567    0.0000 H   0  0  0  0  0  0  0  0  0  0  0  0
   -2.7012   -1.9825    0.0000 H   0  0  0  0  0  0  0  0  0  0  0  0
   -1.0566    0.0352    0.0000 H   0  0  0  0  0  0  0  0  0  0  0  0
   -1.9832   -0.4997    0.0000 H   0  0  0  0  0  0  0  0  0  0  0  0
   -4.6405    1.1469    0.0000 H   0  0  0  0  0  0  0  0  0  0  0  0
   -2.6276   -2.7497    0.0000 H   0  0  0  0  0  0  0  0  0  0  0  0
    1.2992    0.3257    0.0000 H   0  0  0  0  0  0  0  0  0  0  0  0
   -0.5541    0.3189    0.0000 H   0  0  0  0  0  0  0  0  0  0  0  0
    0.3706    0.8573    0.0000 H   0  0  0  0  0  0  0  0  0  0  0  0
    1.0926   -2.5158    0.0000 H   0  0  0  0  0  0  0  0  0  0  0  0
    2.0186   -1.9802    0.0000 H   0  0  0  0  0  0  0  0  0  0  0  0
    2.5124   -2.4801    0.0000 H   0  0  0  0  0  0  0  0  0  0  0  0
    4.1184   -1.5539    0.0000 H   0  0  0  0  0  0  0  0  0  0  0  0
    2.5043    1.2267    0.0000 H   0  0  0  0  0  0  0  0  0  0  0  0
    0.9048    0.2949    0.0000 H   0  0  0  0  0  0  0  0  0  0  0  0
    4.6527   -1.2769    0.0000 H   0  0  0  0  0  0  0  0  0  0  0  0
    5.5721    0.3323    0.0000 H   0  0  0  0  0  0  0  0  0  0  0  0
    5.5770   -0.7377    0.0000 H   0  0  0  0  0  0  0  0  0  0  0  0
  2  1  2  0  0  0  0
  3  2  1  0  0  0  0
  3 28  1  0  0  0  0
  4  1  1  0  0  0  0
  4 29  1  0  0  0  0
  5  1  1  0  0  0  0
  6  7  1  0  0  0  0
  6  3  1  0  0  0  0
  7  4  2  0  0  0  0
  7 30  1  0  0  0  0
  8 12  1  0  0  0  0
  8  5  2  0  0  0  0
  8 31  1  0  0  0  0
  9  2  1  0  0  0  0
 10 18  1  0  0  0  0
 10 19  1  0  0  0  0
 10 11  1  0  0  0  0
 10 32  1  1  0  0  0
 11 15  1  0  0  0  0
 11 33  1  0  0  0  0
 12  9  2  0  0  0  0
 12 34  1  0  0  0  0
 13  6  2  0  0  0  0
 14  5  1  0  0  0  0
 14 17  1  0  0  0  0
 14 35  1  1  0  0  0
 15 14  1  0  0  0  0
 15 36  1  0  0  0  0
 15 37  1  0  0  0  0
 16  9  1  0  0  0  0
 16 38  1  0  0  0  0
 17 39  1  0  0  0  0
 18 40  1  0  0  0  0
 18 41  1  0  0  0  0
 18 42  1  0  0  0  0
 19 20  1  0  0  0  0
 19 43  1  0  0  0  0
 19 44  1  0  0  0  0
 20 21  2  0  0  0  0
 21 22  1  0  0  0  0
 21 45  1  0  0  0  0
 22 23  2  0  0  0  0
 22 46  1  0  0  0  0
 23 24  1  0  0  0  0
 23 26  1  0  0  0  0
 24 25  2  0  0  0  0
 24 47  1  0  0  0  0
 25 20  1  0  0  0  0
 25 48  1  0  0  0  0
 26 27  1  0  0  0  0
 27 49  1  0  0  0  0
 27 50  1  0  0  0  0
 27 51  1  0  0  0  0
M  END
>  <DRUGBANK_ID>
DB15784

>  <COMMON_NAME>
Carmoterol

>  <CAS_NUMBER>
147568-66-9

>  <UNII>
9810NUL4D1

>  <SYNONYMS>
Carmoterol; Quinoterol

$$$$
