
 OpenBabel10282417072D

 47 49  0  0  0  0  0  0  0  0999 V2000
   -2.1614    0.7976    0.0000 C   0  0  0  0  0  0  0  0  0  0  0  0
   -2.8759    0.3851    0.0000 C   0  0  0  0  0  0  0  0  0  0  0  0
   -2.8759   -0.4398    0.0000 C   0  0  0  0  0  0  0  0  0  0  0  0
   -2.1614   -0.8523    0.0000 C   0  0  0  0  0  0  0  0  0  0  0  0
   -1.4469   -0.4398    0.0000 C   0  0  0  0  0  0  0  0  0  0  0  0
   -1.4469    0.3851    0.0000 C   0  0  0  0  0  0  0  0  0  0  0  0
   -3.5904    0.7976    0.0000 C   0  0  0  0  0  0  0  0  0  0  0  0
   -4.3049    0.3851    0.0000 N   0  0  0  0  0  0  0  0  0  0  0  0
   -3.5904    1.6226    0.0000 N   0  0  0  0  0  0  0  0  0  0  0  0
   -5.0193    0.7976    0.0000 O   0  0  0  0  0  0  0  0  0  0  0  0
   -5.7338    0.3851    0.0000 C   0  0  0  0  0  0  0  0  0  0  0  0
   -0.7325   -0.8523    0.0000 C   0  0  0  0  0  0  0  0  0  0  0  0
   -0.4368   -1.6225    0.0000 C   0  0  0  0  0  0  0  0  0  0  0  0
    0.3869   -1.5794    0.0000 C   0  0  0  0  0  0  0  0  0  0  0  0
    0.6005   -0.7825    0.0000 C   0  0  0  0  0  0  0  0  0  0  0  0
   -0.0913   -0.3333    0.0000 O   0  0  0  0  0  0  0  0  0  0  0  0
    1.3707   -0.4868    0.0000 C   0  0  0  0  0  0  0  0  0  0  0  0
    2.0118   -1.0060    0.0000 C   0  0  0  0  0  0  0  0  0  0  0  0
    2.7820   -0.7104    0.0000 C   0  0  0  0  0  0  0  0  0  0  0  0
    2.9111    0.1044    0.0000 C   0  0  0  0  0  0  0  0  0  0  0  0
    2.2699    0.6236    0.0000 C   0  0  0  0  0  0  0  0  0  0  0  0
    1.4997    0.3279    0.0000 C   0  0  0  0  0  0  0  0  0  0  0  0
    3.6813    0.4000    0.0000 C   0  0  0  0  0  0  0  0  0  0  0  0
    3.8103    1.2149    0.0000 N   0  0  0  0  0  0  0  0  0  0  0  0
    4.3224   -0.1191    0.0000 N   0  0  0  0  0  0  0  0  0  0  0  0
    5.0926    0.1765    0.0000 O   0  0  0  0  0  0  0  0  0  0  0  0
    5.7338   -0.3426    0.0000 C   0  0  0  0  0  0  0  0  0  0  0  0
   -2.1614    1.8296    0.0000 H   0  0  0  0  0  0  0  0  0  0  0  0
   -3.7696   -0.9558    0.0000 H   0  0  0  0  0  0  0  0  0  0  0  0
   -2.1614   -1.8843    0.0000 H   0  0  0  0  0  0  0  0  0  0  0  0
   -0.5532    0.9011    0.0000 H   0  0  0  0  0  0  0  0  0  0  0  0
   -4.3049   -0.5994    0.0000 H   0  0  0  0  0  0  0  0  0  0  0  0
   -2.7378    2.1149    0.0000 H   0  0  0  0  0  0  0  0  0  0  0  0
   -6.6604    0.9201    0.0000 H   0  0  0  0  0  0  0  0  0  0  0  0
   -5.7338   -0.6849    0.0000 H   0  0  0  0  0  0  0  0  0  0  0  0
   -6.6605   -0.1499    0.0000 H   0  0  0  0  0  0  0  0  0  0  0  0
   -0.9989   -2.4880    0.0000 H   0  0  0  0  0  0  0  0  0  0  0  0
    1.0363   -2.3815    0.0000 H   0  0  0  0  0  0  0  0  0  0  0  0
    1.8503   -2.0253    0.0000 H   0  0  0  0  0  0  0  0  0  0  0  0
    3.5840   -1.3599    0.0000 H   0  0  0  0  0  0  0  0  0  0  0  0
    2.4313    1.6429    0.0000 H   0  0  0  0  0  0  0  0  0  0  0  0
    0.6977    0.9773    0.0000 H   0  0  0  0  0  0  0  0  0  0  0  0
    4.7294    1.5678    0.0000 H   0  0  0  0  0  0  0  0  0  0  0  0
    4.1684   -1.0915    0.0000 H   0  0  0  0  0  0  0  0  0  0  0  0
    5.5665   -1.3994    0.0000 H   0  0  0  0  0  0  0  0  0  0  0  0
    6.7327    0.0410    0.0000 H   0  0  0  0  0  0  0  0  0  0  0  0
    6.5654   -1.0159    0.0000 H   0  0  0  0  0  0  0  0  0  0  0  0
  1  2  1  0  0  0  0
  1  6  2  0  0  0  0
  1 28  1  0  0  0  0
  2  3  2  0  0  0  0
  2  7  1  0  0  0  0
  3  4  1  0  0  0  0
  3 29  1  0  0  0  0
  4  5  2  0  0  0  0
  4 30  1  0  0  0  0
  5  6  1  0  0  0  0
  5 12  1  0  0  0  0
  6 31  1  0  0  0  0
  7  8  1  0  0  0  0
  7  9  2  0  0  0  0
  8 10  1  0  0  0  0
  8 32  1  0  0  0  0
  9 33  1  0  0  0  0
 10 11  1  0  0  0  0
 11 34  1  0  0  0  0
 11 35  1  0  0  0  0
 11 36  1  0  0  0  0
 12 13  2  0  0  0  0
 12 16  1  0  0  0  0
 13 14  1  0  0  0  0
 13 37  1  0  0  0  0
 14 15  2  0  0  0  0
 14 38  1  0  0  0  0
 15 16  1  0  0  0  0
 15 17  1  0  0  0  0
 17 18  1  0  0  0  0
 17 22  2  0  0  0  0
 18 19  2  0  0  0  0
 18 39  1  0  0  0  0
 19 20  1  0  0  0  0
 19 40  1  0  0  0  0
 20 21  2  0  0  0  0
 20 23  1  0  0  0  0
 21 22  1  0  0  0  0
 21 41  1  0  0  0  0
 22 42  1  0  0  0  0
 23 24  2  0  0  0  0
 23 25  1  0  0  0  0
 24 43  1  0  0  0  0
 25 26  1  0  0  0  0
 25 44  1  0  0  0  0
 26 27  1  0  0  0  0
 27 45  1  0  0  0  0
 27 46  1  0  0  0  0
 27 47  1  0  0  0  0
M  END
>  <DRUGBANK_ID>
DB06532

>  <COMMON_NAME>
Pafuramidine

>  <CAS_NUMBER>
186953-56-0

>  <UNII>
H1VG379J2X

>  <SYNONYMS>
Pafuramidine

$$$$
