TDI
 OpenBabel10282417072D

 39 41  0  0  0  0  0  0  0  0999 V2000
    3.1026   -0.8525    0.0000 C   0  0  0  0  0  0  0  0  0  0  0  0
    1.6736   -0.8525    0.0000 C   0  0  0  0  0  0  0  0  0  0  0  0
    1.6736   -1.6775    0.0000 C   0  0  0  0  0  0  0  0  0  0  0  0
    2.3881   -2.0900    0.0000 C   0  0  0  0  0  0  0  0  0  0  0  0
   -3.2400    2.0807    0.0000 C   0  0  0  0  0  0  0  0  0  0  0  0
   -2.6880    1.4676    0.0000 S   0  0  0  0  0  0  0  0  0  0  0  0
   -1.8810    1.6392    0.0000 C   0  0  0  0  0  0  0  0  0  0  0  0
   -1.3290    1.0261    0.0000 C   0  0  1  0  0  0  0  0  0  0  0  0
   -0.5085    1.1123    0.0000 C   0  0  0  0  0  0  0  0  0  0  0  0
   -0.1729    0.3586    0.0000 N   0  0  0  0  0  0  0  0  0  0  0  0
    0.6340    0.1871    0.0000 C   0  0  0  0  0  0  0  0  0  0  0  0
    0.8890   -0.5975    0.0000 C   0  0  0  0  0  0  0  0  0  0  0  0
    0.4041   -1.2650    0.0000 C   0  0  0  0  0  0  0  0  0  0  0  0
    0.8890   -1.9324    0.0000 N   0  0  0  0  0  0  0  0  0  0  0  0
    2.3881   -2.9150    0.0000 N   0  0  0  0  0  0  0  0  0  0  0  0
    3.1026   -1.6775    0.0000 N   0  0  0  0  0  0  0  0  0  0  0  0
    2.3881   -0.4400    0.0000 N   0  0  0  0  0  0  0  0  0  0  0  0
   -0.7860   -0.1934    0.0000 C   0  0  0  0  0  0  0  0  0  0  0  0
   -1.5005    0.2191    0.0000 C   0  0  2  0  0  0  0  0  0  0  0  0
   -2.2542   -0.1165    0.0000 O   0  0  0  0  0  0  0  0  0  0  0  0
   -1.1197    1.5712    0.0000 H   0  0  0  0  0  0  0  0  0  0  0  0
   -1.9543    0.5866    0.0000 H   0  0  0  0  0  0  0  0  0  0  0  0
    3.9963   -0.3365    0.0000 H   0  0  0  0  0  0  0  0  0  0  0  0
   -2.9093    3.0983    0.0000 H   0  0  0  0  0  0  0  0  0  0  0  0
   -4.2866    1.8583    0.0000 H   0  0  0  0  0  0  0  0  0  0  0  0
   -3.9559    2.8759    0.0000 H   0  0  0  0  0  0  0  0  0  0  0  0
   -1.5504    2.6568    0.0000 H   0  0  0  0  0  0  0  0  0  0  0  0
   -0.8344    1.8617    0.0000 H   0  0  0  0  0  0  0  0  0  0  0  0
    0.0265    2.0389    0.0000 H   0  0  0  0  0  0  0  0  0  0  0  0
    0.5600    1.0563    0.0000 H   0  0  0  0  0  0  0  0  0  0  0  0
    1.3499    0.9823    0.0000 H   0  0  0  0  0  0  0  0  0  0  0  0
    1.6806   -0.0353    0.0000 H   0  0  0  0  0  0  0  0  0  0  0  0
   -0.6279   -1.2650    0.0000 H   0  0  0  0  0  0  0  0  0  0  0  0
    0.5848   -2.8687    0.0000 H   0  0  0  0  0  0  0  0  0  0  0  0
    1.5355   -3.4073    0.0000 H   0  0  0  0  0  0  0  0  0  0  0  0
    3.2407   -3.4072    0.0000 H   0  0  0  0  0  0  0  0  0  0  0  0
   -0.6742   -1.2575    0.0000 H   0  0  0  0  0  0  0  0  0  0  0  0
   -1.6834   -0.7762    0.0000 H   0  0  0  0  0  0  0  0  0  0  0  0
   -3.0390    0.4536    0.0000 H   0  0  0  0  0  0  0  0  0  0  0  0
  1 16  2  0  0  0  0
  1 17  1  0  0  0  0
  1 23  1  0  0  0  0
  2  3  1  0  0  0  0
  2 12  1  0  0  0  0
  2 17  2  0  0  0  0
  3  4  2  0  0  0  0
  3 14  1  0  0  0  0
  4 15  1  0  0  0  0
  4 16  1  0  0  0  0
  5  6  1  0  0  0  0
  5 24  1  0  0  0  0
  5 25  1  0  0  0  0
  5 26  1  0  0  0  0
  6  7  1  0  0  0  0
  7 27  1  0  0  0  0
  7 28  1  0  0  0  0
  8  7  1  0  0  0  0
  8  9  1  0  0  0  0
  8 19  1  0  0  0  0
  8 21  1  6  0  0  0
  9 10  1  0  0  0  0
  9 29  1  0  0  0  0
  9 30  1  0  0  0  0
 10 11  1  0  0  0  0
 10 18  1  0  0  0  0
 11 12  1  0  0  0  0
 11 31  1  0  0  0  0
 11 32  1  0  0  0  0
 12 13  2  0  0  0  0
 13 14  1  0  0  0  0
 13 33  1  0  0  0  0
 14 34  1  0  0  0  0
 15 35  1  0  0  0  0
 15 36  1  0  0  0  0
 18 19  1  0  0  0  0
 18 37  1  0  0  0  0
 18 38  1  0  0  0  0
 19 20  1  0  0  0  0
 19 22  1  1  0  0  0
 20 39  1  0  0  0  0
M  END
>  <DRUGBANK_ID>
DB08606

>  <COMMON_NAME>
(3R,4S)-1-[(4-AMINO-5H-PYRROLO[3,2-D]PYRIMIDIN-7-YL)METHYL]-4-[(METHYLSULFANYL)METHYL]PYRROLIDIN-3-OL

$$$$
