1CX
 OpenBabel10282417072D

 36 37  0  0  0  0  0  0  0  0999 V2000
    0.7947    0.1249    0.0000 N   0  0  0  0  0  0  0  0  0  0  0  0
    0.0802    1.3624    0.0000 C   0  0  0  0  0  0  0  0  0  0  0  0
    0.0802    2.1874    0.0000 C   0  0  0  0  0  0  0  0  0  0  0  0
    0.7947    2.5999    0.0000 C   0  0  0  0  0  0  0  0  0  0  0  0
    0.0802   -1.1126    0.0000 C   0  0  0  0  0  0  0  0  0  0  0  0
   -0.6343   -1.5251    0.0000 C   0  0  0  0  0  0  0  0  0  0  0  0
   -1.3487   -0.2876    0.0000 C   0  0  0  0  0  0  0  0  0  0  0  0
    0.7947   -1.5251    0.0000 C   0  0  0  0  0  0  0  0  0  0  0  0
    3.6526   -1.5251    0.0000 C   0  0  0  0  0  0  0  0  0  0  0  0
    1.5091    2.1874    0.0000 C   0  0  0  0  0  0  0  0  0  0  0  0
    1.5091    1.3624    0.0000 C   0  0  0  0  0  0  0  0  0  0  0  0
    0.7947    0.9499    0.0000 C   0  0  0  0  0  0  0  0  0  0  0  0
    0.7947    3.4249    0.0000 I   0  0  0  0  0  0  0  0  0  0  0  0
   -1.3487   -1.1126    0.0000 C   0  0  0  0  0  0  0  0  0  0  0  0
   -0.6343    0.1249    0.0000 C   0  0  2  0  0  0  0  0  0  0  0  0
    0.0802   -0.2876    0.0000 C   0  0  0  0  0  0  0  0  0  0  0  0
   -2.0632    0.1249    0.0000 F   0  0  0  0  0  0  0  0  0  0  0  0
   -0.6343    0.9499    0.0000 F   0  0  0  0  0  0  0  0  0  0  0  0
    2.2236    0.9499    0.0000 F   0  0  0  0  0  0  0  0  0  0  0  0
    0.7947   -2.3501    0.0000 O   0  0  0  0  0  0  0  0  0  0  0  0
    1.5091   -1.1126    0.0000 N   0  0  0  0  0  0  0  0  0  0  0  0
    2.2236   -1.5251    0.0000 O   0  0  0  0  0  0  0  0  0  0  0  0
    2.9381   -1.1126    0.0000 C   0  0  0  0  0  0  0  0  0  0  0  0
    4.3670   -1.1126    0.0000 O   0  0  0  0  0  0  0  0  0  0  0  0
   -1.1400    0.4169    0.0000 H   0  0  0  0  0  0  0  0  0  0  0  0
   -0.8135    0.8464    0.0000 H   0  0  0  0  0  0  0  0  0  0  0  0
   -0.8135    2.7034    0.0000 H   0  0  0  0  0  0  0  0  0  0  0  0
   -0.6343   -2.5571    0.0000 H   0  0  0  0  0  0  0  0  0  0  0  0
    3.6526   -2.5951    0.0000 H   0  0  0  0  0  0  0  0  0  0  0  0
    4.5793   -2.0601    0.0000 H   0  0  0  0  0  0  0  0  0  0  0  0
    2.4028    2.7034    0.0000 H   0  0  0  0  0  0  0  0  0  0  0  0
   -2.2424   -1.6286    0.0000 H   0  0  0  0  0  0  0  0  0  0  0  0
    1.5091   -0.1281    0.0000 H   0  0  0  0  0  0  0  0  0  0  0  0
    2.9381   -0.0426    0.0000 H   0  0  0  0  0  0  0  0  0  0  0  0
    2.0115   -0.5776    0.0000 H   0  0  0  0  0  0  0  0  0  0  0  0
    5.2071   -1.5976    0.0000 H   0  0  0  0  0  0  0  0  0  0  0  0
  1 12  1  0  0  0  0
  1 16  2  0  0  0  0
  2  3  2  0  0  0  0
  2 12  1  0  0  0  0
  2 26  1  0  0  0  0
  3  4  1  0  0  0  0
  3 27  1  0  0  0  0
  4 10  2  0  0  0  0
  4 13  1  0  0  0  0
  5  6  2  0  0  0  0
  5  8  1  0  0  0  0
  5 16  1  0  0  0  0
  6 14  1  0  0  0  0
  6 28  1  0  0  0  0
  7 14  2  0  0  0  0
  7 15  1  0  0  0  0
  7 17  1  0  0  0  0
  8 20  2  0  0  0  0
  8 21  1  0  0  0  0
  9 23  1  0  0  0  0
  9 24  1  0  0  0  0
  9 29  1  0  0  0  0
  9 30  1  0  0  0  0
 10 11  1  0  0  0  0
 10 31  1  0  0  0  0
 11 12  2  0  0  0  0
 11 19  1  0  0  0  0
 14 32  1  0  0  0  0
 15 16  1  0  0  0  0
 15 18  1  0  0  0  0
 15 25  1  6  0  0  0
 21 22  1  0  0  0  0
 21 33  1  0  0  0  0
 22 23  1  0  0  0  0
 23 34  1  0  0  0  0
 23 35  1  0  0  0  0
 24 36  1  0  0  0  0
M  END
>  <DRUGBANK_ID>
DB06892

>  <COMMON_NAME>
(5S)-4,5-difluoro-6-[(2-fluoro-4-iodophenyl)imino]-N-(2-hydroxyethoxy)cyclohexa-1,3-diene-1-carboxamide

$$$$
