
 OpenBabel10282417072D

 46 48  0  0  0  0  0  0  0  0999 V2000
    1.8649    2.3228    0.0000 C   0  0  0  0  0  0  0  0  0  0  0  0
    2.5793    3.5603    0.0000 C   0  0  0  0  0  0  0  0  0  0  0  0
    7.3284    1.1483    0.0000 C   0  0  0  0  0  0  0  0  0  0  0  0
    5.0084    5.1666    0.0000 C   0  0  0  0  0  0  0  0  0  0  0  0
    6.5401    0.9051    0.0000 C   0  0  0  0  0  0  0  0  0  0  0  0
    4.4037    4.6055    0.0000 C   0  0  0  0  0  0  0  0  0  0  0  0
    4.0083    2.7353    0.0000 C   0  0  0  0  0  0  0  0  0  0  0  0
    7.5120    1.9526    0.0000 C   0  0  0  0  0  0  0  0  0  0  0  0
    5.7968    4.9235    0.0000 C   0  0  0  0  0  0  0  0  0  0  0  0
    5.9353    1.4663    0.0000 C   0  0  0  0  0  0  0  0  0  0  0  0
    4.5872    3.8012    0.0000 C   0  0  0  0  0  0  0  0  0  0  0  0
    7.2086    3.2817    0.0000 C   0  0  0  0  0  0  0  0  0  0  0  0
    6.7961    3.9962    0.0000 C   0  0  0  0  0  0  0  0  0  0  0  0
    3.2938    2.3228    0.0000 C   0  0  0  0  0  0  0  0  0  0  0  0
    4.7228    2.3228    0.0000 C   0  0  0  0  0  0  0  0  0  0  0  0
    6.9072    2.5137    0.0000 C   0  0  0  0  0  0  0  0  0  0  0  0
    5.9803    4.1191    0.0000 C   0  0  0  0  0  0  0  0  0  0  0  0
    6.1189    2.2706    0.0000 C   0  0  0  0  0  0  0  0  0  0  0  0
    5.3756    3.5580    0.0000 C   0  0  0  0  0  0  0  0  0  0  0  0
    2.5793    2.7353    0.0000 N   0  3  0  0  0  0  0  0  0  0  0  0
    5.4372    2.7353    0.0000 N   0  0  0  0  0  0  0  0  0  0  0  0
    2.5793    1.9103    0.0000 O   0  5  0  0  0  0  0  0  0  0  0  0
    0.9382    2.8578    0.0000 H   0  0  0  0  0  0  0  0  0  0  0  0
    1.8649    1.2528    0.0000 H   0  0  0  0  0  0  0  0  0  0  0  0
    0.9383    1.7878    0.0000 H   0  0  0  0  0  0  0  0  0  0  0  0
    3.5059    4.0953    0.0000 H   0  0  0  0  0  0  0  0  0  0  0  0
    1.6527    4.0953    0.0000 H   0  0  0  0  0  0  0  0  0  0  0  0
    2.5793    4.6303    0.0000 H   0  0  0  0  0  0  0  0  0  0  0  0
    8.0849    0.4464    0.0000 H   0  0  0  0  0  0  0  0  0  0  0  0
    4.7787    6.1727    0.0000 H   0  0  0  0  0  0  0  0  0  0  0  0
    6.3105   -0.1010    0.0000 H   0  0  0  0  0  0  0  0  0  0  0  0
    3.4176    4.9097    0.0000 H   0  0  0  0  0  0  0  0  0  0  0  0
    4.0083    3.8053    0.0000 H   0  0  0  0  0  0  0  0  0  0  0  0
    4.9349    3.2703    0.0000 H   0  0  0  0  0  0  0  0  0  0  0  0
    8.4981    2.2568    0.0000 H   0  0  0  0  0  0  0  0  0  0  0  0
    6.5533    5.6254    0.0000 H   0  0  0  0  0  0  0  0  0  0  0  0
    4.9491    1.1621    0.0000 H   0  0  0  0  0  0  0  0  0  0  0  0
    3.8307    3.0993    0.0000 H   0  0  0  0  0  0  0  0  0  0  0  0
    8.2756    3.3617    0.0000 H   0  0  0  0  0  0  0  0  0  0  0  0
    7.8440    2.4208    0.0000 H   0  0  0  0  0  0  0  0  0  0  0  0
    7.3988    4.8803    0.0000 H   0  0  0  0  0  0  0  0  0  0  0  0
    6.3682    4.9769    0.0000 H   0  0  0  0  0  0  0  0  0  0  0  0
    3.2938    1.2528    0.0000 H   0  0  0  0  0  0  0  0  0  0  0  0
    2.3672    1.7878    0.0000 H   0  0  0  0  0  0  0  0  0  0  0  0
    4.7228    1.2528    0.0000 H   0  0  0  0  0  0  0  0  0  0  0  0
    5.6495    1.7878    0.0000 H   0  0  0  0  0  0  0  0  0  0  0  0
  1 23  1  0  0  0  0
  1 24  1  0  0  0  0
  1 25  1  0  0  0  0
  2 26  1  0  0  0  0
  2 27  1  0  0  0  0
  2 28  1  0  0  0  0
  3 29  1  0  0  0  0
  4 30  1  0  0  0  0
  5  3  2  0  0  0  0
  5 31  1  0  0  0  0
  6  4  2  0  0  0  0
  6 32  1  0  0  0  0
  7 33  1  0  0  0  0
  7 34  1  0  0  0  0
  8  3  1  0  0  0  0
  8 35  1  0  0  0  0
  9  4  1  0  0  0  0
  9 36  1  0  0  0  0
 10  5  1  0  0  0  0
 10 37  1  0  0  0  0
 11  6  1  0  0  0  0
 11 38  1  0  0  0  0
 12 39  1  0  0  0  0
 12 40  1  0  0  0  0
 13 12  1  0  0  0  0
 13 41  1  0  0  0  0
 13 42  1  0  0  0  0
 14  7  1  0  0  0  0
 14 43  1  0  0  0  0
 14 44  1  0  0  0  0
 15  7  1  0  0  0  0
 15 45  1  0  0  0  0
 15 46  1  0  0  0  0
 16  8  2  0  0  0  0
 16 12  1  0  0  0  0
 17  9  2  0  0  0  0
 17 13  1  0  0  0  0
 18 10  2  0  0  0  0
 18 16  1  0  0  0  0
 19 11  2  0  0  0  0
 19 17  1  0  0  0  0
 20  1  1  0  0  0  0
 20  2  1  0  0  0  0
 20 14  1  0  0  0  0
 20 22  1  0  0  0  0
 21 15  1  0  0  0  0
 21 18  1  0  0  0  0
 21 19  1  0  0  0  0
M  CHG  2  20   1  22  -1
M  END
>  <DRUGBANK_ID>
DB13782

>  <COMMON_NAME>
Imipramine oxide

>  <CAS_NUMBER>
6829-98-7

>  <UNII>
8MKS280XJW

>  <SYNONYMS>
Imipramine N-oxide; Imipraminoxide

$$$$
