
 OpenBabel10282417072D

 39 41  0  0  0  0  0  0  0  0999 V2000
   -1.0717    2.4750    0.0000 C   0  0  0  0  0  0  0  0  0  0  0  0
   -1.0717    1.6500    0.0000 N   0  0  0  0  0  0  0  0  0  0  0  0
   -1.7861    1.2375    0.0000 C   0  0  0  0  0  0  0  0  0  0  0  0
   -0.3572    1.2375    0.0000 C   0  0  0  0  0  0  0  0  0  0  0  0
   -0.3572    0.4125    0.0000 C   0  0  0  0  0  0  0  0  0  0  0  0
    0.3572    0.0000    0.0000 C   0  0  0  0  0  0  0  0  0  0  0  0
    0.3572   -0.8250    0.0000 C   0  0  0  0  0  0  0  0  0  0  0  0
    1.0717   -1.2375    0.0000 C   0  0  0  0  0  0  0  0  0  0  0  0
    1.7861   -0.8250    0.0000 C   0  0  0  0  0  0  0  0  0  0  0  0
    2.5006   -1.2375    0.0000 C   0  0  0  0  0  0  0  0  0  0  0  0
    2.5006   -2.0625    0.0000 C   0  0  0  0  0  0  0  0  0  0  0  0
    1.7861   -2.4750    0.0000 C   0  0  0  0  0  0  0  0  0  0  0  0
    1.0717   -2.0625    0.0000 C   0  0  0  0  0  0  0  0  0  0  0  0
    0.3572   -2.4750    0.0000 S   0  0  0  0  0  0  0  0  0  0  0  0
   -0.3572   -2.0625    0.0000 C   0  0  0  0  0  0  0  0  0  0  0  0
   -1.0717   -2.4750    0.0000 C   0  0  0  0  0  0  0  0  0  0  0  0
   -1.7861   -2.0625    0.0000 C   0  0  0  0  0  0  0  0  0  0  0  0
   -1.7861   -1.2375    0.0000 C   0  0  0  0  0  0  0  0  0  0  0  0
   -2.5006   -0.8250    0.0000 Cl  0  0  0  0  0  0  0  0  0  0  0  0
   -1.0717   -0.8250    0.0000 C   0  0  0  0  0  0  0  0  0  0  0  0
   -0.3572   -1.2375    0.0000 C   0  0  0  0  0  0  0  0  0  0  0  0
   -0.1451    3.0100    0.0000 H   0  0  0  0  0  0  0  0  0  0  0  0
   -1.9983    3.0100    0.0000 H   0  0  0  0  0  0  0  0  0  0  0  0
   -1.0717    3.5450    0.0000 H   0  0  0  0  0  0  0  0  0  0  0  0
   -2.7128    1.7725    0.0000 H   0  0  0  0  0  0  0  0  0  0  0  0
   -1.7861    0.1675    0.0000 H   0  0  0  0  0  0  0  0  0  0  0  0
   -2.7127    0.7025    0.0000 H   0  0  0  0  0  0  0  0  0  0  0  0
    0.5694    1.7725    0.0000 H   0  0  0  0  0  0  0  0  0  0  0  0
    0.5694    0.7025    0.0000 H   0  0  0  0  0  0  0  0  0  0  0  0
   -1.2839   -0.1225    0.0000 H   0  0  0  0  0  0  0  0  0  0  0  0
   -0.3572   -0.6575    0.0000 H   0  0  0  0  0  0  0  0  0  0  0  0
    1.2509    0.5160    0.0000 H   0  0  0  0  0  0  0  0  0  0  0  0
    1.7861    0.2070    0.0000 H   0  0  0  0  0  0  0  0  0  0  0  0
    3.3943   -0.7215    0.0000 H   0  0  0  0  0  0  0  0  0  0  0  0
    3.3943   -2.5785    0.0000 H   0  0  0  0  0  0  0  0  0  0  0  0
    1.7861   -3.5070    0.0000 H   0  0  0  0  0  0  0  0  0  0  0  0
   -1.0717   -3.5070    0.0000 H   0  0  0  0  0  0  0  0  0  0  0  0
   -2.6798   -2.5785    0.0000 H   0  0  0  0  0  0  0  0  0  0  0  0
   -1.0717    0.2070    0.0000 H   0  0  0  0  0  0  0  0  0  0  0  0
  1  2  1  0  0  0  0
  1 22  1  0  0  0  0
  1 23  1  0  0  0  0
  1 24  1  0  0  0  0
  2  3  1  0  0  0  0
  2  4  1  0  0  0  0
  3 25  1  0  0  0  0
  3 26  1  0  0  0  0
  3 27  1  0  0  0  0
  4  5  1  0  0  0  0
  4 28  1  0  0  0  0
  4 29  1  0  0  0  0
  5  6  1  0  0  0  0
  5 30  1  0  0  0  0
  5 31  1  0  0  0  0
  6  7  2  0  0  0  0
  6 32  1  0  0  0  0
  7  8  1  0  0  0  0
  7 21  1  0  0  0  0
  8  9  2  0  0  0  0
  8 13  1  0  0  0  0
  9 10  1  0  0  0  0
  9 33  1  0  0  0  0
 10 11  2  0  0  0  0
 10 34  1  0  0  0  0
 11 12  1  0  0  0  0
 11 35  1  0  0  0  0
 12 13  2  0  0  0  0
 12 36  1  0  0  0  0
 13 14  1  0  0  0  0
 14 15  1  0  0  0  0
 15 16  2  0  0  0  0
 15 21  1  0  0  0  0
 16 17  1  0  0  0  0
 16 37  1  0  0  0  0
 17 18  2  0  0  0  0
 17 38  1  0  0  0  0
 18 19  1  0  0  0  0
 18 20  1  0  0  0  0
 20 21  2  0  0  0  0
 20 39  1  0  0  0  0
M  END
>  <DRUGBANK_ID>
DB01239

>  <SECONDARY_ACCESSION_NUMBERS>
APRD00718

>  <COMMON_NAME>
Chlorprothixene

>  <CAS_NUMBER>
113-59-7

>  <UNII>
9S7OD60EWP

>  <SYNONYMS>
Alpha-Chlorprothixene; Chlorprothixen; Chlorprothixene; Chlorprothixine; Chlorprotixen; Chlorprotixene; Chlorprotixine; Chlothixen

$$$$
