23C
 OpenBabel10282417072D

 44 47  0  0  0  0  0  0  0  0999 V2000
   -2.1151   -0.8385    0.0000 C   0  0  0  0  0  0  0  0  0  0  0  0
   -1.7026   -1.5530    0.0000 C   0  0  0  0  0  0  0  0  0  0  0  0
   -2.1151   -2.2674    0.0000 C   0  0  0  0  0  0  0  0  0  0  0  0
   -2.9401   -2.2674    0.0000 C   0  0  0  0  0  0  0  0  0  0  0  0
   -3.3526   -1.5530    0.0000 C   0  0  0  0  0  0  0  0  0  0  0  0
   -2.9401   -0.8385    0.0000 C   0  0  0  0  0  0  0  0  0  0  0  0
   -3.3526   -0.1240    0.0000 C   0  0  0  0  0  0  0  0  0  0  0  0
   -2.9401    0.5904    0.0000 C   0  0  0  0  0  0  0  0  0  0  0  0
   -2.1151    0.5904    0.0000 C   0  0  0  0  0  0  0  0  0  0  0  0
   -1.7026   -0.1240    0.0000 C   0  0  0  0  0  0  0  0  0  0  0  0
   -0.8776   -0.1240    0.0000 C   0  0  0  0  0  0  0  0  0  0  0  0
   -0.4651    0.5904    0.0000 C   0  0  2  0  0  0  0  0  0  0  0  0
   -0.8776    1.3049    0.0000 C   0  0  0  0  0  0  0  0  0  0  0  0
   -0.4651    2.0194    0.0000 O   0  0  0  0  0  0  0  0  0  0  0  0
   -1.7026    1.3049    0.0000 O   0  0  0  0  0  0  0  0  0  0  0  0
    0.3599    0.5904    0.0000 N   0  0  0  0  0  0  0  0  0  0  0  0
    0.8449    1.2579    0.0000 C   0  0  0  0  0  0  0  0  0  0  0  0
    0.5899    2.0425    0.0000 O   0  0  0  0  0  0  0  0  0  0  0  0
    1.6295    1.0029    0.0000 C   0  0  0  0  0  0  0  0  0  0  0  0
    2.3440    1.4154    0.0000 C   0  0  0  0  0  0  0  0  0  0  0  0
    3.0584    1.0029    0.0000 C   0  0  0  0  0  0  0  0  0  0  0  0
    3.7729    1.4154    0.0000 C   0  0  0  0  0  0  0  0  0  0  0  0
    3.7729    2.2404    0.0000 O   0  0  0  0  0  0  0  0  0  0  0  0
    4.4874    1.0029    0.0000 O   0  0  0  0  0  0  0  0  0  0  0  0
    3.0584    0.1779    0.0000 C   0  0  0  0  0  0  0  0  0  0  0  0
    2.3440   -0.2346    0.0000 C   0  0  0  0  0  0  0  0  0  0  0  0
    1.6295    0.1779    0.0000 C   0  0  0  0  0  0  0  0  0  0  0  0
    0.8449   -0.0770    0.0000 C   0  0  0  0  0  0  0  0  0  0  0  0
    0.5899   -0.8616    0.0000 O   0  0  0  0  0  0  0  0  0  0  0  0
   -1.0490    0.5904    0.0000 H   0  0  0  0  0  0  0  0  0  0  0  0
   -0.6706   -1.5530    0.0000 H   0  0  0  0  0  0  0  0  0  0  0  0
   -1.5991   -3.1611    0.0000 H   0  0  0  0  0  0  0  0  0  0  0  0
   -3.4561   -3.1611    0.0000 H   0  0  0  0  0  0  0  0  0  0  0  0
   -4.3846   -1.5530    0.0000 H   0  0  0  0  0  0  0  0  0  0  0  0
   -4.3846   -0.1240    0.0000 H   0  0  0  0  0  0  0  0  0  0  0  0
   -3.4561    1.4841    0.0000 H   0  0  0  0  0  0  0  0  0  0  0  0
   -1.5991    1.4841    0.0000 H   0  0  0  0  0  0  0  0  0  0  0  0
   -0.3426   -1.0507    0.0000 H   0  0  0  0  0  0  0  0  0  0  0  0
    0.1924   -0.1240    0.0000 H   0  0  0  0  0  0  0  0  0  0  0  0
    0.4719    2.0194    0.0000 H   0  0  0  0  0  0  0  0  0  0  0  0
    2.3440    2.4474    0.0000 H   0  0  0  0  0  0  0  0  0  0  0  0
    4.4874    0.0659    0.0000 H   0  0  0  0  0  0  0  0  0  0  0  0
    3.9521   -0.3381    0.0000 H   0  0  0  0  0  0  0  0  0  0  0  0
    2.3440   -1.2666    0.0000 H   0  0  0  0  0  0  0  0  0  0  0  0
  1  2  2  0  0  0  0
  1  6  1  0  0  0  0
  1 10  1  0  0  0  0
  2  3  1  0  0  0  0
  2 31  1  0  0  0  0
  3  4  2  0  0  0  0
  3 32  1  0  0  0  0
  4  5  1  0  0  0  0
  4 33  1  0  0  0  0
  5  6  2  0  0  0  0
  5 34  1  0  0  0  0
  6  7  1  0  0  0  0
  7  8  2  0  0  0  0
  7 35  1  0  0  0  0
  8  9  1  0  0  0  0
  8 36  1  0  0  0  0
  9 10  2  0  0  0  0
  9 37  1  0  0  0  0
 10 11  1  0  0  0  0
 11 12  1  0  0  0  0
 11 38  1  0  0  0  0
 11 39  1  0  0  0  0
 12 13  1  0  0  0  0
 12 16  1  0  0  0  0
 12 30  1  1  0  0  0
 13 14  1  0  0  0  0
 13 15  2  0  0  0  0
 14 40  1  0  0  0  0
 16 17  1  0  0  0  0
 16 28  1  0  0  0  0
 17 18  2  0  0  0  0
 17 19  1  0  0  0  0
 19 20  2  0  0  0  0
 19 27  1  0  0  0  0
 20 21  1  0  0  0  0
 20 41  1  0  0  0  0
 21 22  1  0  0  0  0
 21 25  2  0  0  0  0
 22 23  2  0  0  0  0
 22 24  1  0  0  0  0
 24 42  1  0  0  0  0
 25 26  1  0  0  0  0
 25 43  1  0  0  0  0
 26 27  2  0  0  0  0
 26 44  1  0  0  0  0
 27 28  1  0  0  0  0
 28 29  2  0  0  0  0
M  END
>  <DRUGBANK_ID>
DB06922

>  <COMMON_NAME>
2-[(1R)-1-carboxy-2-naphthalen-1-ylethyl]-1,3-dioxo-2,3-dihydro-1H-isoindole-5-carboxylic acid

$$$$
