[NO NAME]
 OpenBabel10282417072D
Created with ChemWriter - http://chemwriter.com
 29 30  0  0  1  0  0  0  0  0999 V2000
   -0.7145    0.4125    0.0000 C   0  0  0  0  0  0  0  0  0  0  0  0
   -0.7145   -0.4125    0.0000 C   0  0  0  0  0  0  0  0  0  0  0  0
    0.7145    0.4125    0.0000 O   0  0  0  0  0  0  0  0  0  0  0  0
    1.5395   -0.4125    0.0000 C   0  0  0  0  0  0  0  0  0  0  0  0
    0.7145   -0.4125    0.0000 C   0  0  0  0  0  0  0  0  0  0  0  0
    1.1270   -1.1270    0.0000 C   0  0  0  0  0  0  0  0  0  0  0  0
    0.0000    0.8250    0.0000 C   0  0  1  0  0  0  0  0  0  0  0  0
    0.0000    1.6500    0.0000 C   0  0  0  0  0  0  0  0  0  0  0  0
    0.0000   -0.8250    0.0000 C   0  0  1  0  0  0  0  0  0  0  0  0
   -0.3000    0.3000    0.0000 C   0  0  0  0  0  0  0  0  0  0  0  0
   -0.3000   -0.3000    0.0000 C   0  0  0  0  0  0  0  0  0  0  0  0
   -1.6411    0.9475    0.0000 H   0  0  0  0  0  0  0  0  0  0  0  0
   -1.6411   -0.1225    0.0000 H   0  0  0  0  0  0  0  0  0  0  0  0
   -1.6411   -0.9475    0.0000 H   0  0  0  0  0  0  0  0  0  0  0  0
   -1.6411    0.1225    0.0000 H   0  0  0  0  0  0  0  0  0  0  0  0
    2.0745   -1.3391    0.0000 H   0  0  0  0  0  0  0  0  0  0  0  0
    2.0745    0.5141    0.0000 H   0  0  0  0  0  0  0  0  0  0  0  0
    2.6095   -0.4125    0.0000 H   0  0  0  0  0  0  0  0  0  0  0  0
    0.5920   -2.0536    0.0000 H   0  0  0  0  0  0  0  0  0  0  0  0
    2.1970   -1.1270    0.0000 H   0  0  0  0  0  0  0  0  0  0  0  0
    1.6620   -2.0537    0.0000 H   0  0  0  0  0  0  0  0  0  0  0  0
    0.9266    2.1850    0.0000 H   0  0  0  0  0  0  0  0  0  0  0  0
   -0.9266    2.1850    0.0000 H   0  0  0  0  0  0  0  0  0  0  0  0
   -0.0000    2.7200    0.0000 H   0  0  0  0  0  0  0  0  0  0  0  0
    0.2792    0.2079    0.0000 H   0  0  0  0  0  0  0  0  0  0  0  0
   -1.3342    0.5746    0.0000 H   0  0  0  0  0  0  0  0  0  0  0  0
   -1.1482   -0.3523    0.0000 H   0  0  0  0  0  0  0  0  0  0  0  0
   -1.3342   -0.5746    0.0000 H   0  0  0  0  0  0  0  0  0  0  0  0
   -1.1482    0.3523    0.0000 H   0  0  0  0  0  0  0  0  0  0  0  0
  1  2  1  0  0  0  0
  1 12  1  0  0  0  0
  1 13  1  0  0  0  0
  2 14  1  0  0  0  0
  2 15  1  0  0  0  0
  3  7  1  0  0  0  0
  4 16  1  0  0  0  0
  4 17  1  0  0  0  0
  4 18  1  0  0  0  0
  5  3  1  0  0  0  0
  5  4  1  0  0  0  0
  5  6  1  0  0  0  0
  6 19  1  0  0  0  0
  6 20  1  0  0  0  0
  6 21  1  0  0  0  0
  7  1  1  0  0  0  0
  7 10  1  0  0  0  0
  7  8  1  1  0  0  0
  8 22  1  0  0  0  0
  8 23  1  0  0  0  0
  8 24  1  0  0  0  0
  9  5  1  0  0  0  0
  9  2  1  0  0  0  0
  9 11  1  0  0  0  0
  9 25  1  1  0  0  0
 10 26  1  0  0  0  0
 10 27  1  0  0  0  0
 11 10  1  0  0  0  0
 11 28  1  0  0  0  0
 11 29  1  0  0  0  0
M  END
>  <DRUGBANK_ID>
DB03852

>  <SECONDARY_ACCESSION_NUMBERS>
EXPT00969

>  <COMMON_NAME>
Eucalyptol

>  <CAS_NUMBER>
470-82-6

>  <UNII>
RV6J6604TK

>  <SYNONYMS>
1,8-cineol; 1,8-Cineole; 1,8-epoxy-p-menthane; 1,8-oxido-p-menthane; Cajeputol; Cineole; Eucalyptol; Zineol

$$$$
