
 OpenBabel10282417072D

 31 32  0  0  0  0  0  0  0  0999 V2000
    1.3222   -0.0616    0.0000 C   0  0  0  0  0  0  0  0  0  0  0  0
    2.0367   -0.4741    0.0000 C   0  0  3  0  0  0  0  0  0  0  0  0
    2.0367   -1.2991    0.0000 C   0  0  0  0  0  0  0  0  0  0  0  0
    2.7041   -1.7840    0.0000 C   0  0  0  0  0  0  0  0  0  0  0  0
    2.4492   -2.5687    0.0000 N   0  0  0  0  0  0  0  0  0  0  0  0
    1.6242   -2.5687    0.0000 C   0  0  0  0  0  0  0  0  0  0  0  0
    1.3693   -1.7840    0.0000 N   0  0  0  0  0  0  0  0  0  0  0  0
    2.7512   -0.0616    0.0000 C   0  0  0  0  0  0  0  0  0  0  0  0
    2.7512    0.7634    0.0000 C   0  0  0  0  0  0  0  0  0  0  0  0
    3.4656    1.1759    0.0000 C   0  0  0  0  0  0  0  0  0  0  0  0
    4.1801    0.7634    0.0000 C   0  0  0  0  0  0  0  0  0  0  0  0
    4.1801   -0.0616    0.0000 C   0  0  0  0  0  0  0  0  0  0  0  0
    4.8946   -0.4741    0.0000 C   0  0  0  0  0  0  0  0  0  0  0  0
    3.4656   -0.4741    0.0000 C   0  0  0  0  0  0  0  0  0  0  0  0
    3.4656   -1.2991    0.0000 C   0  0  0  0  0  0  0  0  0  0  0  0
    1.3222    1.0084    0.0000 H   0  0  0  0  0  0  0  0  0  0  0  0
    0.3956   -0.5966    0.0000 H   0  0  0  0  0  0  0  0  0  0  0  0
    0.3955    0.4734    0.0000 H   0  0  0  0  0  0  0  0  0  0  0  0
    1.1101   -1.0091    0.0000 H   0  0  0  0  0  0  0  0  0  0  0  0
    3.6856   -1.4651    0.0000 H   0  0  0  0  0  0  0  0  0  0  0  0
    1.0176   -3.4036    0.0000 H   0  0  0  0  0  0  0  0  0  0  0  0
    0.4330   -1.4797    0.0000 H   0  0  0  0  0  0  0  0  0  0  0  0
    1.8575    1.2794    0.0000 H   0  0  0  0  0  0  0  0  0  0  0  0
    3.4656    2.2079    0.0000 H   0  0  0  0  0  0  0  0  0  0  0  0
    5.0738    1.2794    0.0000 H   0  0  0  0  0  0  0  0  0  0  0  0
    4.8946   -1.5441    0.0000 H   0  0  0  0  0  0  0  0  0  0  0  0
    5.8212    0.0609    0.0000 H   0  0  0  0  0  0  0  0  0  0  0  0
    5.8213   -1.0091    0.0000 H   0  0  0  0  0  0  0  0  0  0  0  0
    2.5390   -1.8341    0.0000 H   0  0  0  0  0  0  0  0  0  0  0  0
    4.3922   -1.8341    0.0000 H   0  0  0  0  0  0  0  0  0  0  0  0
    3.4656   -2.3691    0.0000 H   0  0  0  0  0  0  0  0  0  0  0  0
  1  2  1  0  0  0  0
  1 16  1  0  0  0  0
  1 17  1  0  0  0  0
  1 18  1  0  0  0  0
  2  3  1  0  0  0  0
  2  8  1  0  0  0  0
  2 19  1  0  0  0  0
  3  4  2  0  0  0  0
  3  7  1  0  0  0  0
  4  5  1  0  0  0  0
  4 20  1  0  0  0  0
  5  6  2  0  0  0  0
  6  7  1  0  0  0  0
  6 21  1  0  0  0  0
  7 22  1  0  0  0  0
  8  9  2  0  0  0  0
  8 14  1  0  0  0  0
  9 10  1  0  0  0  0
  9 23  1  0  0  0  0
 10 11  2  0  0  0  0
 10 24  1  0  0  0  0
 11 12  1  0  0  0  0
 11 25  1  0  0  0  0
 12 13  1  0  0  0  0
 12 14  2  0  0  0  0
 13 26  1  0  0  0  0
 13 27  1  0  0  0  0
 13 28  1  0  0  0  0
 14 15  1  0  0  0  0
 15 29  1  0  0  0  0
 15 30  1  0  0  0  0
 15 31  1  0  0  0  0
M  END
>  <DRUGBANK_ID>
DB11428

>  <COMMON_NAME>
Medetomidine

>  <CAS_NUMBER>
86347-14-0

>  <UNII>
MR15E85MQM

>  <SYNONYMS>
(Â±)-4-(Î±,2,3-trimethylbenzyl)imidazole; Medetomidina; Medetomidine; Medetomidinum

$$$$
