
 OpenBabel10282417072D

 24 24  0  0  0  0  0  0  0  0999 V2000
    0.7145   -0.4125    0.0000 C   0  0  1  0  0  0  0  0  0  0  0  0
    0.0000   -0.8250    0.0000 C   0  0  1  0  0  0  0  0  0  0  0  0
    0.7145    0.4125    0.0000 C   0  0  2  0  0  0  0  0  0  0  0  0
   -0.7145   -0.4125    0.0000 C   0  0  2  0  0  0  0  0  0  0  0  0
    0.0000    0.8250    0.0000 C   0  0  1  0  0  0  0  0  0  0  0  0
   -0.7145    0.4125    0.0000 C   0  0  1  0  0  0  0  0  0  0  0  0
    1.4289    0.8250    0.0000 O   0  0  0  0  0  0  0  0  0  0  0  0
    1.4289   -0.8250    0.0000 O   0  0  0  0  0  0  0  0  0  0  0  0
    0.0000   -1.6500    0.0000 O   0  0  0  0  0  0  0  0  0  0  0  0
   -1.4289   -0.8250    0.0000 O   0  0  0  0  0  0  0  0  0  0  0  0
   -1.4289    0.8250    0.0000 O   0  0  0  0  0  0  0  0  0  0  0  0
    0.0000    1.6500    0.0000 O   0  0  0  0  0  0  0  0  0  0  0  0
    0.7145   -1.4825    0.0000 H   0  0  0  0  0  0  0  0  0  0  0  0
    0.9266   -1.3600    0.0000 H   0  0  0  0  0  0  0  0  0  0  0  0
    1.6412   -0.1225    0.0000 H   0  0  0  0  0  0  0  0  0  0  0  0
   -0.7145   -1.4825    0.0000 H   0  0  0  0  0  0  0  0  0  0  0  0
    0.9266    1.3600    0.0000 H   0  0  0  0  0  0  0  0  0  0  0  0
   -1.6412   -0.1225    0.0000 H   0  0  0  0  0  0  0  0  0  0  0  0
    2.2690    0.3400    0.0000 H   0  0  0  0  0  0  0  0  0  0  0  0
    1.4289   -1.7950    0.0000 H   0  0  0  0  0  0  0  0  0  0  0  0
   -0.8400   -2.1350    0.0000 H   0  0  0  0  0  0  0  0  0  0  0  0
   -2.2690   -0.3400    0.0000 H   0  0  0  0  0  0  0  0  0  0  0  0
   -1.4289    1.7950    0.0000 H   0  0  0  0  0  0  0  0  0  0  0  0
    0.8400    2.1350    0.0000 H   0  0  0  0  0  0  0  0  0  0  0  0
  1  8  1  0  0  0  0
  1 13  1  6  0  0  0
  2  1  1  0  0  0  0
  2  9  1  0  0  0  0
  2 14  1  1  0  0  0
  3  1  1  0  0  0  0
  3  7  1  0  0  0  0
  3 15  1  1  0  0  0
  4  2  1  0  0  0  0
  4 10  1  0  0  0  0
  4 16  1  6  0  0  0
  5  3  1  0  0  0  0
  5 12  1  0  0  0  0
  5 17  1  6  0  0  0
  6  4  1  0  0  0  0
  6  5  1  0  0  0  0
  6 11  1  0  0  0  0
  6 18  1  1  0  0  0
  7 19  1  0  0  0  0
  8 20  1  0  0  0  0
  9 21  1  0  0  0  0
 10 22  1  0  0  0  0
 11 23  1  0  0  0  0
 12 24  1  0  0  0  0
M  END
>  <DRUGBANK_ID>
DB03106

>  <SECONDARY_ACCESSION_NUMBERS>
EXPT01892; DB05987; DB11931

>  <COMMON_NAME>
scyllo-inositol

>  <CAS_NUMBER>
488-59-5

>  <UNII>
1VS4X81277

>  <SYNONYMS>
1,3,5/2,4,6-cyclohexanehexol; Cocositol; Quercinitol; Scyllitol

$$$$
