1536
 OpenBabel10282417072D

 47 50  0  0  1  0  0  0  0  0999 V2000
    7.1353    1.7956    0.0000 O   0  0  0  0  0  0  0  0  0  0  0  0
    1.6498   -1.7578    0.0000 O   0  0  0  0  0  0  0  0  0  0  0  0
    5.3842   -0.4772    0.0000 C   0  0  2  0  0  0  0  0  0  0  0  0
    4.6697   -0.0648    0.0000 C   0  0  1  0  0  0  0  0  0  0  0  0
    6.0985   -0.0648    0.0000 C   0  0  1  0  0  0  0  0  0  0  0  0
    6.0985    0.7601    0.0000 C   0  0  2  0  0  0  0  0  0  0  0  0
    3.9191   -0.4829    0.0000 C   0  0  2  0  0  0  0  0  0  0  0  0
    4.6697    0.7601    0.0000 C   0  0  0  0  0  0  0  0  0  0  0  0
    5.3842    1.1725    0.0000 C   0  0  0  0  0  0  0  0  0  0  0  0
    5.3974   -1.3363    0.0000 C   0  0  0  0  0  0  0  0  0  0  0  0
    6.8790   -0.3162    0.0000 C   0  0  0  0  0  0  0  0  0  0  0  0
    3.9125   -1.3421    0.0000 C   0  0  0  0  0  0  0  0  0  0  0  0
    6.8790    1.0115    0.0000 C   0  0  0  0  0  0  0  0  0  0  0  0
    4.6566   -1.7717    0.0000 C   0  0  0  0  0  0  0  0  0  0  0  0
    7.3604    0.3477    0.0000 C   0  0  0  0  0  0  0  0  0  0  0  0
    3.1546   -0.0176    0.0000 C   0  0  0  0  0  0  0  0  0  0  0  0
    6.0985    1.5850    0.0000 C   0  0  0  0  0  0  0  0  0  0  0  0
    3.9254    0.3420    0.0000 C   0  0  0  0  0  0  0  0  0  0  0  0
    2.3726   -0.4531    0.0000 C   0  0  0  0  0  0  0  0  0  0  0  0
    3.1409   -1.7956    0.0000 C   0  0  0  0  0  0  0  0  0  0  0  0
    2.3657   -1.3480    0.0000 C   0  0  0  0  0  0  0  0  0  0  0  0
    5.9581   -0.8028    0.0000 H   0  0  0  0  0  0  0  0  0  0  0  0
    5.2413    0.2652    0.0000 H   0  0  0  0  0  0  0  0  0  0  0  0
    6.1683   -0.7210    0.0000 H   0  0  0  0  0  0  0  0  0  0  0  0
    3.7431    1.2952    0.0000 H   0  0  0  0  0  0  0  0  0  0  0  0
    4.6698    1.8301    0.0000 H   0  0  0  0  0  0  0  0  0  0  0  0
    5.3843    2.2425    0.0000 H   0  0  0  0  0  0  0  0  0  0  0  0
    4.4576    1.7076    0.0000 H   0  0  0  0  0  0  0  0  0  0  0  0
    6.3302   -1.8606    0.0000 H   0  0  0  0  0  0  0  0  0  0  0  0
    5.4077   -2.4063    0.0000 H   0  0  0  0  0  0  0  0  0  0  0  0
    7.2114   -1.3333    0.0000 H   0  0  0  0  0  0  0  0  0  0  0  0
    7.9361   -0.4822    0.0000 H   0  0  0  0  0  0  0  0  0  0  0  0
    4.6608   -2.8417    0.0000 H   0  0  0  0  0  0  0  0  0  0  0  0
    3.7310   -2.3085    0.0000 H   0  0  0  0  0  0  0  0  0  0  0  0
    8.4304    0.3477    0.0000 H   0  0  0  0  0  0  0  0  0  0  0  0
    7.8466    1.3009    0.0000 H   0  0  0  0  0  0  0  0  0  0  0  0
    3.1753    1.0522    0.0000 H   0  0  0  0  0  0  0  0  0  0  0  0
    2.2374    0.5334    0.0000 H   0  0  0  0  0  0  0  0  0  0  0  0
    7.0251    2.1200    0.0000 H   0  0  0  0  0  0  0  0  0  0  0  0
    5.1719    2.1200    0.0000 H   0  0  0  0  0  0  0  0  0  0  0  0
    6.0985    2.6550    0.0000 H   0  0  0  0  0  0  0  0  0  0  0  0
    4.8561    0.8699    0.0000 H   0  0  0  0  0  0  0  0  0  0  0  0
    3.0029    0.8841    0.0000 H   0  0  0  0  0  0  0  0  0  0  0  0
    3.9336    1.4120    0.0000 H   0  0  0  0  0  0  0  0  0  0  0  0
    1.4522    0.0926    0.0000 H   0  0  0  0  0  0  0  0  0  0  0  0
    1.4408   -0.9791    0.0000 H   0  0  0  0  0  0  0  0  0  0  0  0
    3.1449   -2.8276    0.0000 H   0  0  0  0  0  0  0  0  0  0  0  0
  1 13  2  0  0  0  0
  2 21  2  0  0  0  0
  3  4  1  0  0  0  0
  3  5  1  0  0  0  0
  3 10  1  0  0  0  0
  3 22  1  1  0  0  0
  4  7  1  0  0  0  0
  4  8  1  0  0  0  0
  4 23  1  6  0  0  0
  5  6  1  0  0  0  0
  5 11  1  0  0  0  0
  5 24  1  6  0  0  0
  6  9  1  0  0  0  0
  6 13  1  0  0  0  0
  6 17  1  1  0  0  0
  7 12  1  0  0  0  0
  7 16  1  0  0  0  0
  7 18  1  1  0  0  0
  8  9  1  0  0  0  0
  8 25  1  0  0  0  0
  8 26  1  0  0  0  0
  9 27  1  0  0  0  0
  9 28  1  0  0  0  0
 10 14  1  0  0  0  0
 10 29  1  0  0  0  0
 10 30  1  0  0  0  0
 11 15  1  0  0  0  0
 11 31  1  0  0  0  0
 11 32  1  0  0  0  0
 12 14  1  0  0  0  0
 12 20  2  0  0  0  0
 13 15  1  0  0  0  0
 14 33  1  0  0  0  0
 14 34  1  0  0  0  0
 15 35  1  0  0  0  0
 15 36  1  0  0  0  0
 16 19  1  0  0  0  0
 16 37  1  0  0  0  0
 16 38  1  0  0  0  0
 17 39  1  0  0  0  0
 17 40  1  0  0  0  0
 17 41  1  0  0  0  0
 18 42  1  0  0  0  0
 18 43  1  0  0  0  0
 18 44  1  0  0  0  0
 19 21  1  0  0  0  0
 19 45  1  0  0  0  0
 19 46  1  0  0  0  0
 20 21  1  0  0  0  0
 20 47  1  0  0  0  0
M  END
>  <DRUGBANK_ID>
DB01536

>  <SECONDARY_ACCESSION_NUMBERS>
EXPT00569; DB07386

>  <COMMON_NAME>
Androstenedione

>  <CAS_NUMBER>
63-05-8

>  <UNII>
409J2J96VR

>  <SYNONYMS>
4-Androstene-3,17-dione; 4-Androstenedione; Androst-4-ene-3,17-dione; Androstenedione; delta-4-Androstenedione

$$$$
