
 OpenBabel10282417072D

 58 60  0  0  0  0  0  0  0  0999 V2000
    1.4462   -0.5339    0.0000 N   0  0  0  0  0  0  0  0  0  0  0  0
    0.8347   -0.0097    0.0000 C   0  0  0  0  0  0  0  0  0  0  0  0
    1.4462   -1.3298    0.0000 C   0  0  1  0  0  0  0  0  0  0  0  0
    0.0097   -0.1843    0.0000 C   0  0  1  0  0  0  0  0  0  0  0  0
   -1.2521    0.4659    0.0000 C   0  0  0  0  0  0  0  0  0  0  0  0
    2.1549   -0.1164    0.0000 C   0  0  2  0  0  0  0  0  0  0  0  0
   -0.4465    0.4756    0.0000 N   0  0  0  0  0  0  0  0  0  0  0  0
    0.8057   -1.8539    0.0000 C   0  0  0  0  0  0  0  0  0  0  0  0
   -1.6598    1.1550    0.0000 C   0  0  1  0  0  0  0  0  0  0  0  0
    0.0000   -1.6695    0.0000 C   0  0  0  0  0  0  0  0  0  0  0  0
    2.1549    0.6989    0.0000 C   0  0  0  0  0  0  0  0  0  0  0  0
   -0.3398   -0.9026    0.0000 C   0  0  0  0  0  0  0  0  0  0  0  0
   -1.2521    1.8636    0.0000 S   0  0  0  0  0  0  0  0  0  0  0  0
   -1.6695    2.5528    0.0000 C   0  0  0  0  0  0  0  0  0  0  0  0
    1.0192    0.7862    0.0000 O   0  0  0  0  0  0  0  0  0  0  0  0
   -1.6403   -0.2426    0.0000 O   0  0  0  0  0  0  0  0  0  0  0  0
    1.4462    1.1161    0.0000 O   0  0  0  0  0  0  0  0  0  0  0  0
   -1.2909    3.2517    0.0000 O   0  0  0  0  0  0  0  0  0  0  0  0
   -2.4751    1.1550    0.0000 C   0  0  0  0  0  0  0  0  0  0  0  0
    2.8731    1.1065    0.0000 O   0  0  0  0  0  0  0  0  0  0  0  0
    2.1549   -1.7665    0.0000 C   0  0  0  0  0  0  0  0  0  0  0  0
    2.8827   -0.5435    0.0000 C   0  0  0  0  0  0  0  0  0  0  0  0
    1.0289   -2.6498    0.0000 C   0  0  0  0  0  0  0  0  0  0  0  0
   -0.5727   -2.2518    0.0000 C   0  0  0  0  0  0  0  0  0  0  0  0
    2.8827   -1.3685    0.0000 C   0  0  0  0  0  0  0  0  0  0  0  0
   -2.4945    2.5528    0.0000 C   0  0  0  0  0  0  0  0  0  0  0  0
   -2.8827    0.4561    0.0000 C   0  0  0  0  0  0  0  0  0  0  0  0
   -2.8827    1.8636    0.0000 C   0  0  0  0  0  0  0  0  0  0  0  0
    0.4561   -3.2517    0.0000 C   0  0  0  0  0  0  0  0  0  0  0  0
   -0.3398   -3.0672    0.0000 C   0  0  0  0  0  0  0  0  0  0  0  0
    1.4366   -2.1451    0.0000 H   0  0  0  0  0  0  0  0  0  0  0  0
    0.4053    0.8099    0.0000 H   0  0  0  0  0  0  0  0  0  0  0  0
    1.2259    0.4145    0.0000 H   0  0  0  0  0  0  0  0  0  0  0  0
    0.0054    1.3502    0.0000 H   0  0  0  0  0  0  0  0  0  0  0  0
   -0.5898    1.1615    0.0000 H   0  0  0  0  0  0  0  0  0  0  0  0
   -1.4096   -0.8835    0.0000 H   0  0  0  0  0  0  0  0  0  0  0  0
   -0.9314   -1.7942    0.0000 H   0  0  0  0  0  0  0  0  0  0  0  0
   -3.5451    1.1582    0.0000 H   0  0  0  0  0  0  0  0  0  0  0  0
    3.6811    0.6320    0.0000 H   0  0  0  0  0  0  0  0  0  0  0  0
    2.1272   -2.8361    0.0000 H   0  0  0  0  0  0  0  0  0  0  0  0
    3.0681   -2.3241    0.0000 H   0  0  0  0  0  0  0  0  0  0  0  0
    3.8112   -0.0118    0.0000 H   0  0  0  0  0  0  0  0  0  0  0  0
    3.8084   -1.0801    0.0000 H   0  0  0  0  0  0  0  0  0  0  0  0
    2.0304   -2.8987    0.0000 H   0  0  0  0  0  0  0  0  0  0  0  0
   -1.5728   -1.9970    0.0000 H   0  0  0  0  0  0  0  0  0  0  0  0
    3.8031   -1.9142    0.0000 H   0  0  0  0  0  0  0  0  0  0  0  0
    3.8124   -0.8389    0.0000 H   0  0  0  0  0  0  0  0  0  0  0  0
   -3.0295    3.4794    0.0000 H   0  0  0  0  0  0  0  0  0  0  0  0
   -3.0295    1.6262    0.0000 H   0  0  0  0  0  0  0  0  0  0  0  0
   -3.5645    2.5528    0.0000 H   0  0  0  0  0  0  0  0  0  0  0  0
   -3.9527    0.4608    0.0000 H   0  0  0  0  0  0  0  0  0  0  0  0
   -2.3518   -0.4729    0.0000 H   0  0  0  0  0  0  0  0  0  0  0  0
   -3.4218   -0.4682    0.0000 H   0  0  0  0  0  0  0  0  0  0  0  0
   -2.3462    2.7894    0.0000 H   0  0  0  0  0  0  0  0  0  0  0  0
   -3.9527    1.8653    0.0000 H   0  0  0  0  0  0  0  0  0  0  0  0
   -3.4162    2.7911    0.0000 H   0  0  0  0  0  0  0  0  0  0  0  0
    0.7524   -4.2403    0.0000 H   0  0  0  0  0  0  0  0  0  0  0  0
   -1.0509   -3.8151    0.0000 H   0  0  0  0  0  0  0  0  0  0  0  0
  2  1  1  0  0  0  0
  3  1  1  0  0  0  0
  3 31  1  1  0  0  0
  4  2  1  0  0  0  0
  4  7  1  0  0  0  0
  4 32  1  1  0  0  0
  5  7  1  0  0  0  0
  6  1  1  0  0  0  0
  6 11  1  0  0  0  0
  6 33  1  1  0  0  0
  7 34  1  0  0  0  0
  8  3  1  0  0  0  0
  9  5  1  0  0  0  0
  9 13  1  0  0  0  0
  9 35  1  1  0  0  0
 10  8  2  0  0  0  0
 10 12  1  0  0  0  0
 12  4  1  0  0  0  0
 12 36  1  0  0  0  0
 12 37  1  0  0  0  0
 14 13  1  0  0  0  0
 15  2  2  0  0  0  0
 16  5  2  0  0  0  0
 17 11  2  0  0  0  0
 18 14  2  0  0  0  0
 19  9  1  0  0  0  0
 19 38  1  0  0  0  0
 20 11  1  0  0  0  0
 20 39  1  0  0  0  0
 21  3  1  0  0  0  0
 21 40  1  0  0  0  0
 21 41  1  0  0  0  0
 22  6  1  0  0  0  0
 22 42  1  0  0  0  0
 22 43  1  0  0  0  0
 23  8  1  0  0  0  0
 23 44  1  0  0  0  0
 24 10  1  0  0  0  0
 24 45  1  0  0  0  0
 25 21  1  0  0  0  0
 25 22  1  0  0  0  0
 25 46  1  0  0  0  0
 25 47  1  0  0  0  0
 26 14  1  0  0  0  0
 26 48  1  0  0  0  0
 26 49  1  0  0  0  0
 26 50  1  0  0  0  0
 27 19  1  0  0  0  0
 27 51  1  0  0  0  0
 27 52  1  0  0  0  0
 27 53  1  0  0  0  0
 28 19  1  0  0  0  0
 28 54  1  0  0  0  0
 28 55  1  0  0  0  0
 28 56  1  0  0  0  0
 29 23  2  0  0  0  0
 29 57  1  0  0  0  0
 30 24  2  0  0  0  0
 30 29  1  0  0  0  0
 30 58  1  0  0  0  0
M  END
>  <DRUGBANK_ID>
DB06604

>  <COMMON_NAME>
Ilepatril

>  <CAS_NUMBER>
473289-62-2

>  <UNII>
5N1YAP5FCM

>  <SYNONYMS>
Ilepatril

$$$$
