
 OpenBabel10282417072D

 26 26  0  0  0  0  0  0  0  0999 V2000
   -1.8016    1.0400    0.0000 C   0  0  0  0  0  0  0  0  0  0  0  0
   -1.0772    0.6128    0.0000 C   0  0  0  0  0  0  0  0  0  0  0  0
   -0.3714    1.0400    0.0000 C   0  0  0  0  0  0  0  0  0  0  0  0
    0.3529    0.6128    0.0000 C   0  0  0  0  0  0  0  0  0  0  0  0
    1.0586    1.0400    0.0000 C   0  0  0  0  0  0  0  0  0  0  0  0
    1.7830    0.6128    0.0000 C   0  0  0  0  0  0  0  0  0  0  0  0
   -1.8016    1.8573    0.0000 O   0  0  0  0  0  0  0  0  0  0  0  0
   -2.5073    0.6128    0.0000 O   0  0  0  0  0  0  0  0  0  0  0  0
   -1.0772   -0.2043    0.0000 O   0  0  0  0  0  0  0  0  0  0  0  0
    2.5073    1.0400    0.0000 O   0  0  0  0  0  0  0  0  0  0  0  0
    1.0772   -1.4487    0.0000 C   0  0  0  0  0  0  0  0  0  0  0  0
    1.7830   -1.8573    0.0000 C   0  0  0  0  0  0  0  0  0  0  0  0
    2.5073   -1.4487    0.0000 C   0  0  0  0  0  0  0  0  0  0  0  0
    2.5073   -0.6315    0.0000 C   0  0  0  0  0  0  0  0  0  0  0  0
    1.7830   -0.2043    0.0000 C   0  0  0  0  0  0  0  0  0  0  0  0
    1.0772   -0.6315    0.0000 C   0  0  0  0  0  0  0  0  0  0  0  0
   -0.3773    2.0720    0.0000 H   0  0  0  0  0  0  0  0  0  0  0  0
    0.3588   -0.4192    0.0000 H   0  0  0  0  0  0  0  0  0  0  0  0
    1.0527    2.0720    0.0000 H   0  0  0  0  0  0  0  0  0  0  0  0
   -3.3283    1.0644    0.0000 H   0  0  0  0  0  0  0  0  0  0  0  0
   -1.8887   -0.6728    0.0000 H   0  0  0  0  0  0  0  0  0  0  0  0
    0.1832   -1.9642    0.0000 H   0  0  0  0  0  0  0  0  0  0  0  0
    1.7772   -2.8893    0.0000 H   0  0  0  0  0  0  0  0  0  0  0  0
    3.3985   -1.9691    0.0000 H   0  0  0  0  0  0  0  0  0  0  0  0
    3.4034   -0.1197    0.0000 H   0  0  0  0  0  0  0  0  0  0  0  0
    0.1782   -0.1248    0.0000 H   0  0  0  0  0  0  0  0  0  0  0  0
  1  2  1  0  0  0  0
  1  8  1  0  0  0  0
  1  7  2  0  0  0  0
  2  3  2  0  0  0  0
  2  9  1  0  0  0  0
  3  4  1  0  0  0  0
  3 17  1  0  0  0  0
  4  5  2  0  0  0  0
  4 18  1  0  0  0  0
  5  6  1  0  0  0  0
  5 19  1  0  0  0  0
  6 10  2  0  0  0  0
  6 15  1  0  0  0  0
  8 20  1  0  0  0  0
  9 21  1  0  0  0  0
 11 16  2  0  0  0  0
 11 12  1  0  0  0  0
 11 22  1  0  0  0  0
 12 13  2  0  0  0  0
 12 23  1  0  0  0  0
 13 14  1  0  0  0  0
 13 24  1  0  0  0  0
 14 15  2  0  0  0  0
 14 25  1  0  0  0  0
 15 16  1  0  0  0  0
 16 26  1  0  0  0  0
M  END
>  <DRUGBANK_ID>
DB07914

>  <COMMON_NAME>
2-hydroxy-6-oxo-6-phenyl-2,4-hexadienoic acid

>  <CAS_NUMBER>
50480-67-6

$$$$
