
 OpenBabel10282417072D

 45 47  0  0  0  0  0  0  0  0999 V2000
   -3.5724    7.0125    0.0000 C   0  0  0  0  0  0  0  0  0  0  0  0
   -2.8579    0.8250    0.0000 C   0  0  0  0  0  0  0  0  0  0  0  0
   -5.7158    2.4750    0.0000 C   0  0  0  0  0  0  0  0  0  0  0  0
   -2.1434    1.2375    0.0000 C   0  0  0  0  0  0  0  0  0  0  0  0
   -3.5724    1.2375    0.0000 C   0  0  0  0  0  0  0  0  0  0  0  0
   -5.0013    2.0625    0.0000 C   0  0  0  0  0  0  0  0  0  0  0  0
   -5.7158    3.3000    0.0000 C   0  0  0  0  0  0  0  0  0  0  0  0
   -2.1434    2.0625    0.0000 C   0  0  0  0  0  0  0  0  0  0  0  0
   -3.5724    2.0625    0.0000 C   0  0  0  0  0  0  0  0  0  0  0  0
   -4.2868    2.4750    0.0000 C   0  0  0  0  0  0  0  0  0  0  0  0
   -5.0013    3.7125    0.0000 C   0  0  0  0  0  0  0  0  0  0  0  0
   -2.8579    4.9500    0.0000 C   0  0  0  0  0  0  0  0  0  0  0  0
   -4.2868    4.9500    0.0000 C   0  0  0  0  0  0  0  0  0  0  0  0
   -2.8579    5.7750    0.0000 C   0  0  0  0  0  0  0  0  0  0  0  0
   -4.2868    5.7750    0.0000 C   0  0  0  0  0  0  0  0  0  0  0  0
   -2.8579    3.3000    0.0000 C   0  0  0  0  0  0  0  0  0  0  0  0
   -2.8579    2.4750    0.0000 C   0  0  0  0  0  0  0  0  0  0  0  0
   -4.2868    3.3000    0.0000 C   0  0  0  0  0  0  0  0  0  0  0  0
   -3.5724    4.5375    0.0000 C   0  0  0  0  0  0  0  0  0  0  0  0
   -3.5724    6.1875    0.0000 N   0  0  0  0  0  0  0  0  0  0  0  0
   -3.5724    3.7125    0.0000 N   0  0  0  0  0  0  0  0  0  0  0  0
   -2.6458    7.5475    0.0000 H   0  0  0  0  0  0  0  0  0  0  0  0
   -4.4990    7.5475    0.0000 H   0  0  0  0  0  0  0  0  0  0  0  0
   -3.5724    8.0825    0.0000 H   0  0  0  0  0  0  0  0  0  0  0  0
   -2.8579   -0.2070    0.0000 H   0  0  0  0  0  0  0  0  0  0  0  0
   -6.6095    1.9590    0.0000 H   0  0  0  0  0  0  0  0  0  0  0  0
   -1.2497    0.7215    0.0000 H   0  0  0  0  0  0  0  0  0  0  0  0
   -4.4661    0.7215    0.0000 H   0  0  0  0  0  0  0  0  0  0  0  0
   -5.0013    1.0305    0.0000 H   0  0  0  0  0  0  0  0  0  0  0  0
   -6.6095    3.8160    0.0000 H   0  0  0  0  0  0  0  0  0  0  0  0
   -1.2497    2.5785    0.0000 H   0  0  0  0  0  0  0  0  0  0  0  0
   -4.4661    2.5785    0.0000 H   0  0  0  0  0  0  0  0  0  0  0  0
   -3.3931    1.9590    0.0000 H   0  0  0  0  0  0  0  0  0  0  0  0
   -5.0013    4.7445    0.0000 H   0  0  0  0  0  0  0  0  0  0  0  0
   -1.9313    4.4150    0.0000 H   0  0  0  0  0  0  0  0  0  0  0  0
   -2.8579    3.8800    0.0000 H   0  0  0  0  0  0  0  0  0  0  0  0
   -5.2135    4.4150    0.0000 H   0  0  0  0  0  0  0  0  0  0  0  0
   -4.2868    3.8800    0.0000 H   0  0  0  0  0  0  0  0  0  0  0  0
   -1.9313    6.3100    0.0000 H   0  0  0  0  0  0  0  0  0  0  0  0
   -2.8579    6.8450    0.0000 H   0  0  0  0  0  0  0  0  0  0  0  0
   -5.2135    6.3100    0.0000 H   0  0  0  0  0  0  0  0  0  0  0  0
   -4.2868    6.8450    0.0000 H   0  0  0  0  0  0  0  0  0  0  0  0
   -1.9313    3.8350    0.0000 H   0  0  0  0  0  0  0  0  0  0  0  0
   -2.8579    4.3700    0.0000 H   0  0  0  0  0  0  0  0  0  0  0  0
   -4.4991    4.0025    0.0000 H   0  0  0  0  0  0  0  0  0  0  0  0
  1 22  1  0  0  0  0
  1 23  1  0  0  0  0
  1 24  1  0  0  0  0
  2 25  1  0  0  0  0
  3 26  1  0  0  0  0
  4  2  2  0  0  0  0
  4 27  1  0  0  0  0
  5  2  1  0  0  0  0
  5 28  1  0  0  0  0
  6  3  2  0  0  0  0
  6 29  1  0  0  0  0
  7  3  1  0  0  0  0
  7 30  1  0  0  0  0
  8  4  1  0  0  0  0
  8 31  1  0  0  0  0
  9  5  2  0  0  0  0
  9 32  1  0  0  0  0
 10  6  1  0  0  0  0
 10 33  1  0  0  0  0
 11  7  2  0  0  0  0
 11 34  1  0  0  0  0
 12 35  1  0  0  0  0
 12 36  1  0  0  0  0
 13 37  1  0  0  0  0
 13 38  1  0  0  0  0
 14 12  1  0  0  0  0
 14 39  1  0  0  0  0
 14 40  1  0  0  0  0
 15 13  1  0  0  0  0
 15 41  1  0  0  0  0
 15 42  1  0  0  0  0
 16 43  1  0  0  0  0
 16 44  1  0  0  0  0
 17  8  2  0  0  0  0
 17  9  1  0  0  0  0
 17 16  1  0  0  0  0
 18 10  2  0  0  0  0
 18 11  1  0  0  0  0
 19 12  1  0  0  0  0
 19 13  1  0  0  0  0
 19 45  1  0  0  0  0
 20  1  1  0  0  0  0
 20 14  1  0  0  0  0
 20 15  1  0  0  0  0
 21 16  1  0  0  0  0
 21 18  1  0  0  0  0
 21 19  1  0  0  0  0
M  END
>  <DRUGBANK_ID>
DB13489

>  <COMMON_NAME>
Bamipine

>  <CAS_NUMBER>
4945-47-5

>  <UNII>
Y6BHZ28O92

>  <SYNONYMS>
Bamipine

$$$$
