
 OpenBabel10282417072D

 47 47  0  0  0  0  0  0  0  0999 V2000
   -1.7750   -0.2091    0.0000 C   0  0  2  0  0  0  0  0  0  0  0  0
   -1.7750   -1.0456    0.0000 C   0  0  1  0  0  0  0  0  0  0  0  0
   -1.0641   -1.4639    0.0000 C   0  0  1  0  0  0  0  0  0  0  0  0
   -0.3531   -1.0456    0.0000 C   0  0  2  0  0  0  0  0  0  0  0  0
   -0.3531   -0.2091    0.0000 C   0  0  1  0  0  0  0  0  0  0  0  0
   -1.0641    0.2091    0.0000 O   0  0  0  0  0  0  0  0  0  0  0  0
   -2.5279    0.2091    0.0000 C   0  0  0  0  0  0  0  0  0  0  0  0
    0.3997   -1.4639    0.0000 O   0  0  0  0  0  0  0  0  0  0  0  0
   -2.5279   -1.4639    0.0000 O   0  0  0  0  0  0  0  0  0  0  0  0
   -1.0641   -2.3003    0.0000 O   0  0  0  0  0  0  0  0  0  0  0  0
    0.3997    0.2091    0.0000 O   0  0  0  0  0  0  0  0  0  0  0  0
    0.3579    1.0456    0.0000 C   0  0  1  0  0  0  0  0  0  0  0  0
    1.1107    1.4639    0.0000 C   0  0  1  0  0  0  0  0  0  0  0  0
    1.8218    1.0456    0.0000 C   0  0  2  0  0  0  0  0  0  0  0  0
    2.5327    1.4639    0.0000 C   0  0  0  0  0  0  0  0  0  0  0  0
    3.2438    1.0456    0.0000 O   0  0  0  0  0  0  0  0  0  0  0  0
   -0.3531    1.4639    0.0000 C   0  0  1  0  0  0  0  0  0  0  0  0
   -1.0641    1.0456    0.0000 C   0  0  0  0  0  0  0  0  0  0  0  0
   -1.7750    1.4639    0.0000 O   0  0  0  0  0  0  0  0  0  0  0  0
    1.1107    2.3003    0.0000 O   0  0  0  0  0  0  0  0  0  0  0  0
    1.8218    0.2091    0.0000 O   0  0  0  0  0  0  0  0  0  0  0  0
   -0.3531    2.3003    0.0000 O   0  0  0  0  0  0  0  0  0  0  0  0
   -3.2438   -0.2200    0.0000 O   0  0  0  0  0  0  0  0  0  0  0  0
   -1.7882    0.8608    0.0000 H   0  0  0  0  0  0  0  0  0  0  0  0
   -2.6972   -0.5030    0.0000 H   0  0  0  0  0  0  0  0  0  0  0  0
   -1.9929   -1.9951    0.0000 H   0  0  0  0  0  0  0  0  0  0  0  0
    0.5691   -0.5030    0.0000 H   0  0  0  0  0  0  0  0  0  0  0  0
    0.5691   -0.7517    0.0000 H   0  0  0  0  0  0  0  0  0  0  0  0
   -2.5455    1.2790    0.0000 H   0  0  0  0  0  0  0  0  0  0  0  0
   -3.4632    0.7288    0.0000 H   0  0  0  0  0  0  0  0  0  0  0  0
    0.4156   -2.4338    0.0000 H   0  0  0  0  0  0  0  0  0  0  0  0
   -3.3598   -0.9651    0.0000 H   0  0  0  0  0  0  0  0  0  0  0  0
   -1.9041   -2.7853    0.0000 H   0  0  0  0  0  0  0  0  0  0  0  0
    1.2934    0.5262    0.0000 H   0  0  0  0  0  0  0  0  0  0  0  0
    0.1885    2.0065    0.0000 H   0  0  0  0  0  0  0  0  0  0  0  0
    0.8930    0.5144    0.0000 H   0  0  0  0  0  0  0  0  0  0  0  0
    2.5326    2.5339    0.0000 H   0  0  0  0  0  0  0  0  0  0  0  0
    3.4615    1.9952    0.0000 H   0  0  0  0  0  0  0  0  0  0  0  0
    3.2359    0.0756    0.0000 H   0  0  0  0  0  0  0  0  0  0  0  0
    0.5757    1.9951    0.0000 H   0  0  0  0  0  0  0  0  0  0  0  0
   -1.0641   -0.0244    0.0000 H   0  0  0  0  0  0  0  0  0  0  0  0
   -1.9930    0.5144    0.0000 H   0  0  0  0  0  0  0  0  0  0  0  0
   -1.7670    2.4339    0.0000 H   0  0  0  0  0  0  0  0  0  0  0  0
    1.9507    2.7853    0.0000 H   0  0  0  0  0  0  0  0  0  0  0  0
    0.9818   -0.2759    0.0000 H   0  0  0  0  0  0  0  0  0  0  0  0
    0.4869    2.7853    0.0000 H   0  0  0  0  0  0  0  0  0  0  0  0
   -4.0917    0.2512    0.0000 H   0  0  0  0  0  0  0  0  0  0  0  0
  1  7  1  0  0  0  0
  1  2  1  0  0  0  0
  1 24  1  6  0  0  0
  2  9  1  0  0  0  0
  2  3  1  0  0  0  0
  2 25  1  6  0  0  0
  3 10  1  0  0  0  0
  3  4  1  0  0  0  0
  3 26  1  6  0  0  0
  4  5  1  0  0  0  0
  4  8  1  0  0  0  0
  4 27  1  1  0  0  0
  5  6  1  0  0  0  0
  5 11  1  0  0  0  0
  5 28  1  6  0  0  0
  6  1  1  0  0  0  0
  7 23  1  0  0  0  0
  7 29  1  0  0  0  0
  7 30  1  0  0  0  0
  8 31  1  0  0  0  0
  9 32  1  0  0  0  0
 10 33  1  0  0  0  0
 12 11  1  0  0  0  0
 12 13  1  0  0  0  0
 12 17  1  0  0  0  0
 12 34  1  1  0  0  0
 13 14  1  0  0  0  0
 13 20  1  0  0  0  0
 13 35  1  1  0  0  0
 14 15  1  0  0  0  0
 14 21  1  0  0  0  0
 14 36  1  1  0  0  0
 15 16  1  0  0  0  0
 15 37  1  0  0  0  0
 15 38  1  0  0  0  0
 16 39  1  0  0  0  0
 17 18  1  0  0  0  0
 17 22  1  0  0  0  0
 17 40  1  6  0  0  0
 18 19  1  0  0  0  0
 18 41  1  0  0  0  0
 18 42  1  0  0  0  0
 19 43  1  0  0  0  0
 20 44  1  0  0  0  0
 21 45  1  0  0  0  0
 22 46  1  0  0  0  0
 23 47  1  0  0  0  0
M  END
>  <DRUGBANK_ID>
DB12942

>  <COMMON_NAME>
Lactitol

>  <CAS_NUMBER>
585-86-4

>  <UNII>
L2B0WJF7ZY

>  <SYNONYMS>
Lactitol; Lactitolum

$$$$
