SCQ
 OpenBabel10282417072D

 38 41  0  0  0  0  0  0  0  0999 V2000
   -2.1507    0.8778    0.0000 C   0  0  0  0  0  0  0  0  0  0  0  0
   -1.3660    0.6229    0.0000 C   0  0  0  0  0  0  0  0  0  0  0  0
   -1.3660   -0.2021    0.0000 N   0  0  0  0  0  0  0  0  0  0  0  0
   -2.1507   -0.4571    0.0000 N   0  0  0  0  0  0  0  0  0  0  0  0
   -2.6356    0.2104    0.0000 C   0  0  0  0  0  0  0  0  0  0  0  0
   -0.6516    1.0354    0.0000 C   0  0  0  0  0  0  0  0  0  0  0  0
    0.0629    0.6229    0.0000 C   0  0  0  0  0  0  0  0  0  0  0  0
    0.0629   -0.2021    0.0000 C   0  0  0  0  0  0  0  0  0  0  0  0
   -0.6516   -0.6146    0.0000 C   0  0  0  0  0  0  0  0  0  0  0  0
   -0.6516   -1.4396    0.0000 N   0  0  0  0  0  0  0  0  0  0  0  0
    0.7774    1.0354    0.0000 C   0  0  0  0  0  0  0  0  0  0  0  0
   -1.3660   -1.8521    0.0000 C   0  0  0  0  0  0  0  0  0  0  0  0
   -1.3660   -2.6771    0.0000 C   0  0  0  0  0  0  0  0  0  0  0  0
   -2.0805   -3.0896    0.0000 C   0  0  0  0  0  0  0  0  0  0  0  0
   -2.0805   -3.9146    0.0000 N   0  0  0  0  0  0  0  0  0  0  0  0
   -1.3660   -4.3271    0.0000 C   0  0  0  0  0  0  0  0  0  0  0  0
   -0.6516   -3.9146    0.0000 N   0  0  0  0  0  0  0  0  0  0  0  0
   -0.6516   -3.0896    0.0000 C   0  0  0  0  0  0  0  0  0  0  0  0
    0.7774    1.8604    0.0000 C   0  0  0  0  0  0  0  0  0  0  0  0
    1.4918    2.2729    0.0000 C   0  0  0  0  0  0  0  0  0  0  0  0
    2.2063    1.8604    0.0000 C   0  0  0  0  0  0  0  0  0  0  0  0
    2.2063    1.0354    0.0000 C   0  0  0  0  0  0  0  0  0  0  0  0
    1.4918    0.6229    0.0000 C   0  0  0  0  0  0  0  0  0  0  0  0
   -2.4056    1.6624    0.0000 Br  0  0  0  0  0  0  0  0  0  0  0  0
   -3.6676    0.2104    0.0000 H   0  0  0  0  0  0  0  0  0  0  0  0
   -0.6516    2.0674    0.0000 H   0  0  0  0  0  0  0  0  0  0  0  0
    0.9566   -0.7181    0.0000 H   0  0  0  0  0  0  0  0  0  0  0  0
    0.2010   -1.9318    0.0000 H   0  0  0  0  0  0  0  0  0  0  0  0
   -2.2927   -1.3171    0.0000 H   0  0  0  0  0  0  0  0  0  0  0  0
   -2.2926   -2.3871    0.0000 H   0  0  0  0  0  0  0  0  0  0  0  0
   -2.9742   -2.5736    0.0000 H   0  0  0  0  0  0  0  0  0  0  0  0
   -1.3660   -5.3591    0.0000 H   0  0  0  0  0  0  0  0  0  0  0  0
    0.2421   -2.5736    0.0000 H   0  0  0  0  0  0  0  0  0  0  0  0
   -0.1163    2.3764    0.0000 H   0  0  0  0  0  0  0  0  0  0  0  0
    1.4918    3.3049    0.0000 H   0  0  0  0  0  0  0  0  0  0  0  0
    3.1000    2.3764    0.0000 H   0  0  0  0  0  0  0  0  0  0  0  0
    3.1000    0.5194    0.0000 H   0  0  0  0  0  0  0  0  0  0  0  0
    1.4918   -0.4091    0.0000 H   0  0  0  0  0  0  0  0  0  0  0  0
  1  2  2  0  0  0  0
  1 24  1  0  0  0  0
  2  6  1  0  0  0  0
  3  9  1  0  0  0  0
  3  2  1  0  0  0  0
  4  5  2  0  0  0  0
  4  3  1  0  0  0  0
  5  1  1  0  0  0  0
  5 25  1  0  0  0  0
  6  7  2  0  0  0  0
  6 26  1  0  0  0  0
  7 11  1  0  0  0  0
  8  7  1  0  0  0  0
  8 27  1  0  0  0  0
  9  8  2  0  0  0  0
 10 12  1  0  0  0  0
 10  9  1  0  0  0  0
 10 28  1  0  0  0  0
 11 19  1  0  0  0  0
 12 29  1  0  0  0  0
 12 30  1  0  0  0  0
 13 18  1  0  0  0  0
 13 12  1  0  0  0  0
 14 13  2  0  0  0  0
 14 31  1  0  0  0  0
 15 16  2  0  0  0  0
 15 14  1  0  0  0  0
 16 17  1  0  0  0  0
 16 32  1  0  0  0  0
 17 18  2  0  0  0  0
 18 33  1  0  0  0  0
 19 20  2  0  0  0  0
 19 34  1  0  0  0  0
 20 35  1  0  0  0  0
 21 20  1  0  0  0  0
 21 36  1  0  0  0  0
 22 21  2  0  0  0  0
 22 37  1  0  0  0  0
 23 11  2  0  0  0  0
 23 22  1  0  0  0  0
 23 38  1  0  0  0  0
M  END
>  <DRUGBANK_ID>
DB08536

>  <COMMON_NAME>
3-bromo-5-phenyl-N-(pyrimidin-5-ylmethyl)pyrazolo[1,5-a]pyridin-7-amine

$$$$
