
 OpenBabel10282417072D

 58 62  0  0  1  0  0  0  0  0999 V2000
    6.9246    2.3479    0.0000 C   0  0  0  0  0  0  0  0  0  0  0  0
    6.2102    1.9354    0.0000 O   0  0  0  0  0  0  0  0  0  0  0  0
    5.4957    2.3479    0.0000 C   0  0  0  0  0  0  0  0  0  0  0  0
    4.7812    1.9354    0.0000 C   0  0  0  0  0  0  0  0  0  0  0  0
    4.0668    2.3479    0.0000 C   0  0  0  0  0  0  0  0  0  0  0  0
    4.0668    3.1729    0.0000 C   0  0  0  0  0  0  0  0  0  0  0  0
    4.7812    3.5854    0.0000 C   0  0  0  0  0  0  0  0  0  0  0  0
    5.4957    3.1729    0.0000 C   0  0  0  0  0  0  0  0  0  0  0  0
    6.2102    3.5854    0.0000 O   0  0  0  0  0  0  0  0  0  0  0  0
    6.9246    3.1729    0.0000 C   0  0  0  0  0  0  0  0  0  0  0  0
    7.6391    3.5854    0.0000 C   0  0  2  0  0  0  0  0  0  0  0  0
    8.3536    3.1729    0.0000 O   0  0  0  0  0  0  0  0  0  0  0  0
    9.0681    3.5854    0.0000 P   0  0  0  0  0  0  0  0  0  0  0  0
    9.7825    3.9979    0.0000 O   0  0  0  0  0  0  0  0  0  0  0  0
    8.6556    4.2999    0.0000 O   0  0  0  0  0  0  0  0  0  0  0  0
    9.4806    2.8710    0.0000 O   0  0  0  0  0  0  0  0  0  0  0  0
    7.6391    4.4104    0.0000 C   0  0  0  0  0  0  0  0  0  0  0  0
    7.2266    5.1249    0.0000 C   0  0  0  0  0  0  0  0  0  0  0  0
    8.0516    5.1249    0.0000 C   0  0  0  0  0  0  0  0  0  0  0  0
    3.3523    1.9354    0.0000 N   0  0  0  0  0  0  0  0  0  0  0  0
    3.3523    1.1104    0.0000 C   0  0  0  0  0  0  0  0  0  0  0  0
    2.6378    0.6979    0.0000 N   0  0  0  0  0  0  0  0  0  0  0  0
    1.9233    1.1104    0.0000 C   0  0  0  0  0  0  0  0  0  0  0  0
    1.9233    1.9354    0.0000 C   0  0  0  0  0  0  0  0  0  0  0  0
    1.1387    2.1904    0.0000 S   0  0  0  0  0  0  0  0  0  0  0  0
    0.6538    1.5229    0.0000 C   0  0  0  0  0  0  0  0  0  0  0  0
    1.1387    0.8555    0.0000 C   0  0  0  0  0  0  0  0  0  0  0  0
   -0.1712    1.5229    0.0000 C   0  0  0  0  0  0  0  0  0  0  0  0
   -0.5837    0.8085    0.0000 C   0  0  0  0  0  0  0  0  0  0  0  0
   -1.4087    0.8085    0.0000 C   0  0  0  0  0  0  0  0  0  0  0  0
   -1.8212    1.5229    0.0000 C   0  0  0  0  0  0  0  0  0  0  0  0
   -2.6462    1.5229    0.0000 Cl  0  0  0  0  0  0  0  0  0  0  0  0
   -1.4087    2.2374    0.0000 C   0  0  0  0  0  0  0  0  0  0  0  0
   -0.5837    2.2374    0.0000 C   0  0  0  0  0  0  0  0  0  0  0  0
    2.6378    2.3479    0.0000 C   0  0  0  0  0  0  0  0  0  0  0  0
    2.6378    3.1729    0.0000 O   0  0  0  0  0  0  0  0  0  0  0  0
    7.8513    1.8129    0.0000 H   0  0  0  0  0  0  0  0  0  0  0  0
    6.9246    3.4179    0.0000 H   0  0  0  0  0  0  0  0  0  0  0  0
    7.8512    2.8829    0.0000 H   0  0  0  0  0  0  0  0  0  0  0  0
    4.7812    0.9034    0.0000 H   0  0  0  0  0  0  0  0  0  0  0  0
    3.1731    3.6889    0.0000 H   0  0  0  0  0  0  0  0  0  0  0  0
    4.7812    4.6174    0.0000 H   0  0  0  0  0  0  0  0  0  0  0  0
    6.9246    2.1029    0.0000 H   0  0  0  0  0  0  0  0  0  0  0  0
    7.8512    2.6379    0.0000 H   0  0  0  0  0  0  0  0  0  0  0  0
    7.6391    2.5154    0.0000 H   0  0  0  0  0  0  0  0  0  0  0  0
   10.6226    3.5129    0.0000 H   0  0  0  0  0  0  0  0  0  0  0  0
    9.1406    5.1399    0.0000 H   0  0  0  0  0  0  0  0  0  0  0  0
    7.6391    5.4804    0.0000 H   0  0  0  0  0  0  0  0  0  0  0  0
    6.3000    5.6599    0.0000 H   0  0  0  0  0  0  0  0  0  0  0  0
    7.5035    6.1584    0.0000 H   0  0  0  0  0  0  0  0  0  0  0  0
    8.9782    5.6599    0.0000 H   0  0  0  0  0  0  0  0  0  0  0  0
    8.8082    4.3683    0.0000 H   0  0  0  0  0  0  0  0  0  0  0  0
    4.2460    0.5944    0.0000 H   0  0  0  0  0  0  0  0  0  0  0  0
    0.8198   -0.1260    0.0000 H   0  0  0  0  0  0  0  0  0  0  0  0
   -0.0677   -0.0852    0.0000 H   0  0  0  0  0  0  0  0  0  0  0  0
   -1.9247   -0.0852    0.0000 H   0  0  0  0  0  0  0  0  0  0  0  0
   -1.9247    3.1311    0.0000 H   0  0  0  0  0  0  0  0  0  0  0  0
   -0.0677    3.1311    0.0000 H   0  0  0  0  0  0  0  0  0  0  0  0
  1  2  1  0  0  0  0
  1 37  1  0  0  0  0
  1 38  1  0  0  0  0
  1 39  1  0  0  0  0
  2  3  1  0  0  0  0
  3  4  2  0  0  0  0
  3  8  1  0  0  0  0
  4  5  1  0  0  0  0
  4 40  1  0  0  0  0
  5  6  2  0  0  0  0
  5 20  1  0  0  0  0
  6  7  1  0  0  0  0
  6 41  1  0  0  0  0
  7  8  2  0  0  0  0
  7 42  1  0  0  0  0
  8  9  1  0  0  0  0
  9 10  1  0  0  0  0
 10 43  1  0  0  0  0
 10 44  1  0  0  0  0
 11 10  1  0  0  0  0
 11 12  1  0  0  0  0
 11 17  1  0  0  0  0
 11 45  1  6  0  0  0
 12 13  1  0  0  0  0
 13 14  1  0  0  0  0
 13 15  1  0  0  0  0
 13 16  2  0  0  0  0
 14 46  1  0  0  0  0
 15 47  1  0  0  0  0
 17 18  1  0  0  0  0
 17 19  1  0  0  0  0
 17 48  1  0  0  0  0
 18 19  1  0  0  0  0
 18 49  1  0  0  0  0
 18 50  1  0  0  0  0
 19 51  1  0  0  0  0
 19 52  1  0  0  0  0
 20 21  1  0  0  0  0
 20 35  1  0  0  0  0
 21 22  2  0  0  0  0
 21 53  1  0  0  0  0
 22 23  1  0  0  0  0
 23 24  2  0  0  0  0
 23 27  1  0  0  0  0
 24 25  1  0  0  0  0
 24 35  1  0  0  0  0
 25 26  1  0  0  0  0
 26 27  2  0  0  0  0
 26 28  1  0  0  0  0
 27 54  1  0  0  0  0
 28 29  2  0  0  0  0
 28 34  1  0  0  0  0
 29 30  1  0  0  0  0
 29 55  1  0  0  0  0
 30 31  2  0  0  0  0
 30 56  1  0  0  0  0
 31 32  1  0  0  0  0
 31 33  1  0  0  0  0
 33 34  2  0  0  0  0
 33 57  1  0  0  0  0
 34 58  1  0  0  0  0
 35 36  2  0  0  0  0
M  END
>  <DRUGBANK_ID>
DB14787

>  <COMMON_NAME>
BMS-830216

>  <CAS_NUMBER>
1197420-06-6

>  <UNII>
ISL723GVQ8

$$$$
