
 OpenBabel10282417072D

 52 56  0  0  0  0  0  0  0  0999 V2000
    4.0755   -0.3700    0.0000 C   0  0  3  0  0  0  0  0  0  0  0  0
    4.9005   -0.3700    0.0000 C   0  0  0  0  0  0  0  0  0  0  0  0
    5.1555    0.4148    0.0000 N   0  0  0  0  0  0  0  0  0  0  0  0
    4.4880    0.8999    0.0000 C   0  0  0  0  0  0  0  0  0  0  0  0
    3.8204    0.4148    0.0000 S   0  0  0  0  0  0  0  0  0  0  0  0
   -5.3856   -0.0388    0.0000 C   0  0  0  0  0  0  0  0  0  0  0  0
   -4.9791   -0.7505    0.0000 C   0  0  0  0  0  0  0  0  0  0  0  0
   -4.1612   -0.7532    0.0000 C   0  0  0  0  0  0  0  0  0  0  0  0
   -3.7492   -0.0451    0.0000 C   0  0  0  0  0  0  0  0  0  0  0  0
   -4.1606    0.6674    0.0000 C   0  0  0  0  0  0  0  0  0  0  0  0
   -4.9771    0.6666    0.0000 C   0  0  0  0  0  0  0  0  0  0  0  0
   -2.9238   -0.0464    0.0000 C   0  0  0  0  0  0  0  0  0  0  0  0
   -2.4406   -0.7110    0.0000 O   0  0  0  0  0  0  0  0  0  0  0  0
   -1.6551   -0.4574    0.0000 C   0  0  0  0  0  0  0  0  0  0  0  0
   -1.6541    0.3678    0.0000 C   0  0  0  0  0  0  0  0  0  0  0  0
   -2.4384    0.6240    0.0000 N   0  0  0  0  0  0  0  0  0  0  0  0
   -0.9885   -0.9435    0.0000 C   0  0  0  0  0  0  0  0  0  0  0  0
   -0.9458    0.7908    0.0000 C   0  0  0  0  0  0  0  0  0  0  0  0
   -0.2249    0.3887    0.0000 C   0  0  0  0  0  0  0  0  0  0  0  0
    0.4833    0.8118    0.0000 O   0  0  0  0  0  0  0  0  0  0  0  0
    1.2041    0.4097    0.0000 C   0  0  0  0  0  0  0  0  0  0  0  0
    2.6442   -0.3941    0.0000 C   0  0  0  0  0  0  0  0  0  0  0  0
    2.6294    0.4352    0.0000 C   0  0  0  0  0  0  0  0  0  0  0  0
    1.9089    0.8335    0.0000 C   0  0  0  0  0  0  0  0  0  0  0  0
    1.9345   -0.8172    0.0000 C   0  0  0  0  0  0  0  0  0  0  0  0
    1.2159   -0.4202    0.0000 C   0  0  0  0  0  0  0  0  0  0  0  0
    0.6160   -0.9810    0.0000 C   0  0  0  0  0  0  0  0  0  0  0  0
    0.9641   -1.7249    0.0000 C   0  0  0  0  0  0  0  0  0  0  0  0
    1.7790   -1.6235    0.0000 S   0  0  0  0  0  0  0  0  0  0  0  0
    3.3652   -0.7952    0.0000 C   0  0  0  0  0  0  0  0  0  0  0  0
    4.4880    1.7249    0.0000 O   0  0  0  0  0  0  0  0  0  0  0  0
    5.3856   -1.0376    0.0000 O   0  0  0  0  0  0  0  0  0  0  0  0
    4.7044    0.4957    0.0000 H   0  0  0  0  0  0  0  0  0  0  0  0
    6.0918    0.7190    0.0000 H   0  0  0  0  0  0  0  0  0  0  0  0
   -6.4176   -0.0357    0.0000 H   0  0  0  0  0  0  0  0  0  0  0  0
   -5.4986   -1.6422    0.0000 H   0  0  0  0  0  0  0  0  0  0  0  0
   -3.6482   -1.6487    0.0000 H   0  0  0  0  0  0  0  0  0  0  0  0
   -3.6451    1.5614    0.0000 H   0  0  0  0  0  0  0  0  0  0  0  0
   -5.4930    1.5604    0.0000 H   0  0  0  0  0  0  0  0  0  0  0  0
   -1.1022   -2.0074    0.0000 H   0  0  0  0  0  0  0  0  0  0  0  0
   -0.0102   -0.5100    0.0000 H   0  0  0  0  0  0  0  0  0  0  0  0
   -0.1240   -1.5739    0.0000 H   0  0  0  0  0  0  0  0  0  0  0  0
   -0.9616    1.8607    0.0000 H   0  0  0  0  0  0  0  0  0  0  0  0
   -0.0272    1.3395    0.0000 H   0  0  0  0  0  0  0  0  0  0  0  0
   -0.2090   -0.6812    0.0000 H   0  0  0  0  0  0  0  0  0  0  0  0
    0.7096   -0.1324    0.0000 H   0  0  0  0  0  0  0  0  0  0  0  0
    3.5136    0.9674    0.0000 H   0  0  0  0  0  0  0  0  0  0  0  0
    1.8901    1.8653    0.0000 H   0  0  0  0  0  0  0  0  0  0  0  0
   -0.3973   -0.7854    0.0000 H   0  0  0  0  0  0  0  0  0  0  0  0
    0.4651   -2.6282    0.0000 H   0  0  0  0  0  0  0  0  0  0  0  0
    3.3822   -1.8651    0.0000 H   0  0  0  0  0  0  0  0  0  0  0  0
    4.3002   -1.3155    0.0000 H   0  0  0  0  0  0  0  0  0  0  0  0
  1  2  1  0  0  0  0
  1 30  1  0  0  0  0
  1 33  1  0  0  0  0
  2  3  1  0  0  0  0
  2 32  2  0  0  0  0
  3  4  1  0  0  0  0
  3 34  1  0  0  0  0
  4  5  1  0  0  0  0
  4 31  2  0  0  0  0
  5  1  1  0  0  0  0
  6  7  2  0  0  0  0
  6 35  1  0  0  0  0
  7  8  1  0  0  0  0
  7 36  1  0  0  0  0
  8  9  2  0  0  0  0
  8 37  1  0  0  0  0
  9 10  1  0  0  0  0
  9 12  1  0  0  0  0
 10 11  2  0  0  0  0
 10 38  1  0  0  0  0
 11  6  1  0  0  0  0
 11 39  1  0  0  0  0
 12 13  1  0  0  0  0
 13 14  1  0  0  0  0
 14 17  1  0  0  0  0
 14 15  2  0  0  0  0
 15 16  1  0  0  0  0
 15 18  1  0  0  0  0
 16 12  2  0  0  0  0
 17 40  1  0  0  0  0
 17 41  1  0  0  0  0
 17 42  1  0  0  0  0
 18 19  1  0  0  0  0
 18 43  1  0  0  0  0
 18 44  1  0  0  0  0
 19 20  1  0  0  0  0
 19 45  1  0  0  0  0
 19 46  1  0  0  0  0
 20 21  1  0  0  0  0
 21 26  2  0  0  0  0
 22 23  1  0  0  0  0
 22 30  1  0  0  0  0
 23 24  2  0  0  0  0
 23 47  1  0  0  0  0
 24 21  1  0  0  0  0
 24 48  1  0  0  0  0
 25 22  2  0  0  0  0
 25 26  1  0  0  0  0
 26 27  1  0  0  0  0
 27 28  2  0  0  0  0
 27 49  1  0  0  0  0
 28 29  1  0  0  0  0
 28 50  1  0  0  0  0
 29 25  1  0  0  0  0
 30 51  1  0  0  0  0
 30 52  1  0  0  0  0
M  END
>  <DRUGBANK_ID>
DB06519

>  <COMMON_NAME>
Edaglitazone

>  <CAS_NUMBER>
213411-83-7

>  <UNII>
8GKF7V499B

>  <SYNONYMS>
Edaglitazone

$$$$
