14A
 OpenBabel10282417072D

 54 55  0  0  0  0  0  0  0  0999 V2000
   -5.6016    0.9529    0.0000 N   0  0  0  0  0  0  0  0  0  0  0  0
   -4.8871    0.5404    0.0000 C   0  0  0  0  0  0  0  0  0  0  0  0
   -4.8871   -0.2846    0.0000 N   0  0  0  0  0  0  0  0  0  0  0  0
   -4.1726    0.9529    0.0000 N   0  0  0  0  0  0  0  0  0  0  0  0
   -3.4581    0.5404    0.0000 O   0  0  0  0  0  0  0  0  0  0  0  0
   -2.7437    0.9529    0.0000 C   0  0  0  0  0  0  0  0  0  0  0  0
   -2.0292    0.5404    0.0000 C   0  0  0  0  0  0  0  0  0  0  0  0
   -1.3147    0.9529    0.0000 C   0  0  0  0  0  0  0  0  0  0  0  0
   -0.6003    0.5404    0.0000 O   0  0  0  0  0  0  0  0  0  0  0  0
    0.1142    0.9529    0.0000 C   0  0  0  0  0  0  0  0  0  0  0  0
    0.1142    1.7779    0.0000 C   0  0  0  0  0  0  0  0  0  0  0  0
    0.8287    2.1904    0.0000 C   0  0  0  0  0  0  0  0  0  0  0  0
    1.5432    1.7779    0.0000 C   0  0  0  0  0  0  0  0  0  0  0  0
    1.5432    0.9529    0.0000 C   0  0  0  0  0  0  0  0  0  0  0  0
    0.8287    0.5404    0.0000 C   0  0  0  0  0  0  0  0  0  0  0  0
    0.8287    3.0154    0.0000 Cl  0  0  0  0  0  0  0  0  0  0  0  0
    2.2576    0.5404    0.0000 C   0  0  0  0  0  0  0  0  0  0  0  0
    2.9721    0.9529    0.0000 O   0  0  0  0  0  0  0  0  0  0  0  0
    2.2576   -0.2846    0.0000 N   0  0  0  0  0  0  0  0  0  0  0  0
    2.9721   -0.6971    0.0000 C   0  0  0  0  0  0  0  0  0  0  0  0
    2.9721   -1.5221    0.0000 C   0  0  0  0  0  0  0  0  0  0  0  0
    3.6866   -1.9346    0.0000 C   0  0  0  0  0  0  0  0  0  0  0  0
    1.5432   -0.6971    0.0000 C   0  0  0  0  0  0  0  0  0  0  0  0
    1.4569   -1.5176    0.0000 C   0  0  0  0  0  0  0  0  0  0  0  0
    0.6499   -1.6891    0.0000 C   0  0  0  0  0  0  0  0  0  0  0  0
    0.2374   -0.9746    0.0000 C   0  0  0  0  0  0  0  0  0  0  0  0
    0.7895   -0.3615    0.0000 C   0  0  0  0  0  0  0  0  0  0  0  0
   -5.6016    1.9374    0.0000 H   0  0  0  0  0  0  0  0  0  0  0  0
   -5.7397   -0.7769    0.0000 H   0  0  0  0  0  0  0  0  0  0  0  0
   -4.0345   -0.7769    0.0000 H   0  0  0  0  0  0  0  0  0  0  0  0
   -4.1726    1.9374    0.0000 H   0  0  0  0  0  0  0  0  0  0  0  0
   -2.7437    2.0229    0.0000 H   0  0  0  0  0  0  0  0  0  0  0  0
   -1.8171    1.4879    0.0000 H   0  0  0  0  0  0  0  0  0  0  0  0
   -2.0292   -0.5296    0.0000 H   0  0  0  0  0  0  0  0  0  0  0  0
   -1.1026    0.0054    0.0000 H   0  0  0  0  0  0  0  0  0  0  0  0
   -1.3147    2.0229    0.0000 H   0  0  0  0  0  0  0  0  0  0  0  0
   -0.3880    1.4879    0.0000 H   0  0  0  0  0  0  0  0  0  0  0  0
   -0.7795    2.2939    0.0000 H   0  0  0  0  0  0  0  0  0  0  0  0
    2.4369    2.2939    0.0000 H   0  0  0  0  0  0  0  0  0  0  0  0
    0.8287   -0.4916    0.0000 H   0  0  0  0  0  0  0  0  0  0  0  0
    3.8987   -0.1621    0.0000 H   0  0  0  0  0  0  0  0  0  0  0  0
    3.8987   -1.2321    0.0000 H   0  0  0  0  0  0  0  0  0  0  0  0
    2.0784   -2.0381    0.0000 H   0  0  0  0  0  0  0  0  0  0  0  0
    3.6866   -2.9666    0.0000 H   0  0  0  0  0  0  0  0  0  0  0  0
    4.5803   -1.4186    0.0000 H   0  0  0  0  0  0  0  0  0  0  0  0
    0.6165   -1.2320    0.0000 H   0  0  0  0  0  0  0  0  0  0  0  0
    2.2520   -2.2336    0.0000 H   0  0  0  0  0  0  0  0  0  0  0  0
    1.1799   -2.5511    0.0000 H   0  0  0  0  0  0  0  0  0  0  0  0
    0.2147   -2.6666    0.0000 H   0  0  0  0  0  0  0  0  0  0  0  0
   -0.4186   -1.7451    0.0000 H   0  0  0  0  0  0  0  0  0  0  0  0
   -0.8267   -0.8627    0.0000 H   0  0  0  0  0  0  0  0  0  0  0  0
   -0.1460    0.0243    0.0000 H   0  0  0  0  0  0  0  0  0  0  0  0
    0.5671    0.6851    0.0000 H   0  0  0  0  0  0  0  0  0  0  0  0
   -0.2440   -0.0845    0.0000 H   0  0  0  0  0  0  0  0  0  0  0  0
  1  2  2  0  0  0  0
  1 28  1  0  0  0  0
  2  3  1  0  0  0  0
  2  4  1  0  0  0  0
  3 29  1  0  0  0  0
  3 30  1  0  0  0  0
  4  5  1  0  0  0  0
  4 31  1  0  0  0  0
  5  6  1  0  0  0  0
  6  7  1  0  0  0  0
  6 32  1  0  0  0  0
  6 33  1  0  0  0  0
  7  8  1  0  0  0  0
  7 34  1  0  0  0  0
  7 35  1  0  0  0  0
  8  9  1  0  0  0  0
  8 36  1  0  0  0  0
  8 37  1  0  0  0  0
  9 10  1  0  0  0  0
 10 11  2  0  0  0  0
 10 15  1  0  0  0  0
 11 12  1  0  0  0  0
 11 38  1  0  0  0  0
 12 13  2  0  0  0  0
 12 16  1  0  0  0  0
 13 14  1  0  0  0  0
 13 39  1  0  0  0  0
 14 15  2  0  0  0  0
 14 17  1  0  0  0  0
 15 40  1  0  0  0  0
 17 18  2  0  0  0  0
 17 19  1  0  0  0  0
 19 20  1  0  0  0  0
 19 23  1  0  0  0  0
 20 21  1  0  0  0  0
 20 41  1  0  0  0  0
 20 42  1  0  0  0  0
 21 22  2  0  0  0  0
 21 43  1  0  0  0  0
 22 44  1  0  0  0  0
 22 45  1  0  0  0  0
 23 24  1  0  0  0  0
 23 27  1  0  0  0  0
 23 46  1  0  0  0  0
 24 25  1  0  0  0  0
 24 47  1  0  0  0  0
 24 48  1  0  0  0  0
 25 26  1  0  0  0  0
 25 49  1  0  0  0  0
 25 50  1  0  0  0  0
 26 27  1  0  0  0  0
 26 51  1  0  0  0  0
 26 52  1  0  0  0  0
 27 53  1  0  0  0  0
 27 54  1  0  0  0  0
M  END
>  <DRUGBANK_ID>
DB06859

>  <COMMON_NAME>
N-ALLYL-5-AMIDINOAMINOOXY-PROPYLOXY-3-CHLORO-N-CYCLOPENTYLBENZAMIDE

$$$$
