
 OpenBabel10282417072D

 47 47  0  0  0  0  0  0  0  0999 V2000
   -4.6440   -1.6500    0.0000 C   0  0  0  0  0  0  0  0  0  0  0  0
   -4.6440   -0.8250    0.0000 N   0  0  0  0  0  0  0  0  0  0  0  0
   -5.3585   -0.4125    0.0000 C   0  0  0  0  0  0  0  0  0  0  0  0
   -3.9295   -0.4125    0.0000 C   0  0  0  0  0  0  0  0  0  0  0  0
   -3.9295    0.4125    0.0000 C   0  0  0  0  0  0  0  0  0  0  0  0
   -3.2151    0.8250    0.0000 C   0  0  0  0  0  0  0  0  0  0  0  0
   -2.5006    0.4125    0.0000 C   0  0  0  0  0  0  0  0  0  0  0  0
   -2.5006   -0.4125    0.0000 C   0  0  0  0  0  0  0  0  0  0  0  0
   -3.2151   -0.8250    0.0000 C   0  0  0  0  0  0  0  0  0  0  0  0
   -1.7861    0.8250    0.0000 C   0  0  0  0  0  0  0  0  0  0  0  0
   -1.7861    1.6500    0.0000 O   0  0  0  0  0  0  0  0  0  0  0  0
   -1.0717    0.4125    0.0000 N   0  0  0  0  0  0  0  0  0  0  0  0
   -0.3572    0.8250    0.0000 C   0  0  0  0  0  0  0  0  0  0  0  0
    0.3572    0.4125    0.0000 C   0  0  0  0  0  0  0  0  0  0  0  0
    1.0717    0.8250    0.0000 C   0  0  0  0  0  0  0  0  0  0  0  0
    1.7861    0.4125    0.0000 C   0  0  0  0  0  0  0  0  0  0  0  0
    2.5006    0.8250    0.0000 C   0  0  0  0  0  0  0  0  0  0  0  0
    3.2151    0.4125    0.0000 C   0  0  0  0  0  0  0  0  0  0  0  0
    3.9295    0.8250    0.0000 C   0  0  0  0  0  0  0  0  0  0  0  0
    3.9295    1.6500    0.0000 O   0  0  0  0  0  0  0  0  0  0  0  0
    4.6440    0.4125    0.0000 N   0  0  0  0  0  0  0  0  0  0  0  0
    5.3585    0.8250    0.0000 O   0  0  0  0  0  0  0  0  0  0  0  0
   -5.5706   -2.1850    0.0000 H   0  0  0  0  0  0  0  0  0  0  0  0
   -3.7174   -2.1850    0.0000 H   0  0  0  0  0  0  0  0  0  0  0  0
   -4.6440   -2.7200    0.0000 H   0  0  0  0  0  0  0  0  0  0  0  0
   -5.3585    0.6575    0.0000 H   0  0  0  0  0  0  0  0  0  0  0  0
   -6.2851   -0.9475    0.0000 H   0  0  0  0  0  0  0  0  0  0  0  0
   -6.2852    0.1225    0.0000 H   0  0  0  0  0  0  0  0  0  0  0  0
   -4.8232    0.9285    0.0000 H   0  0  0  0  0  0  0  0  0  0  0  0
   -3.2151    1.8570    0.0000 H   0  0  0  0  0  0  0  0  0  0  0  0
   -1.6069   -0.9285    0.0000 H   0  0  0  0  0  0  0  0  0  0  0  0
   -3.2151   -1.8570    0.0000 H   0  0  0  0  0  0  0  0  0  0  0  0
   -1.0717   -0.5720    0.0000 H   0  0  0  0  0  0  0  0  0  0  0  0
   -0.3572    1.8950    0.0000 H   0  0  0  0  0  0  0  0  0  0  0  0
    0.5695    1.3600    0.0000 H   0  0  0  0  0  0  0  0  0  0  0  0
    0.3572   -0.6575    0.0000 H   0  0  0  0  0  0  0  0  0  0  0  0
    1.2838   -0.1225    0.0000 H   0  0  0  0  0  0  0  0  0  0  0  0
    1.0717    1.8950    0.0000 H   0  0  0  0  0  0  0  0  0  0  0  0
    1.9984    1.3600    0.0000 H   0  0  0  0  0  0  0  0  0  0  0  0
    1.7861   -0.6575    0.0000 H   0  0  0  0  0  0  0  0  0  0  0  0
    2.7127   -0.1225    0.0000 H   0  0  0  0  0  0  0  0  0  0  0  0
    2.5006    1.8950    0.0000 H   0  0  0  0  0  0  0  0  0  0  0  0
    3.4272    1.3600    0.0000 H   0  0  0  0  0  0  0  0  0  0  0  0
    3.2151   -0.6575    0.0000 H   0  0  0  0  0  0  0  0  0  0  0  0
    4.1418   -0.1225    0.0000 H   0  0  0  0  0  0  0  0  0  0  0  0
    4.6440   -0.5720    0.0000 H   0  0  0  0  0  0  0  0  0  0  0  0
    6.1985    0.3400    0.0000 H   0  0  0  0  0  0  0  0  0  0  0  0
  1  2  1  0  0  0  0
  1 23  1  0  0  0  0
  1 24  1  0  0  0  0
  1 25  1  0  0  0  0
  2  3  1  0  0  0  0
  2  4  1  0  0  0  0
  3 26  1  0  0  0  0
  3 27  1  0  0  0  0
  3 28  1  0  0  0  0
  4  5  2  0  0  0  0
  5  6  1  0  0  0  0
  5 29  1  0  0  0  0
  6  7  2  0  0  0  0
  6 30  1  0  0  0  0
  7  8  1  0  0  0  0
  7 10  1  0  0  0  0
  8  9  2  0  0  0  0
  8 31  1  0  0  0  0
  9  4  1  0  0  0  0
  9 32  1  0  0  0  0
 10 11  2  0  0  0  0
 10 12  1  0  0  0  0
 12 13  1  0  0  0  0
 12 33  1  0  0  0  0
 13 14  1  0  0  0  0
 13 34  1  0  0  0  0
 13 35  1  0  0  0  0
 14 15  1  0  0  0  0
 14 36  1  0  0  0  0
 14 37  1  0  0  0  0
 15 16  1  0  0  0  0
 15 38  1  0  0  0  0
 15 39  1  0  0  0  0
 16 17  1  0  0  0  0
 16 40  1  0  0  0  0
 16 41  1  0  0  0  0
 17 18  1  0  0  0  0
 17 42  1  0  0  0  0
 17 43  1  0  0  0  0
 18 19  1  0  0  0  0
 18 44  1  0  0  0  0
 18 45  1  0  0  0  0
 19 20  2  0  0  0  0
 19 21  1  0  0  0  0
 21 22  1  0  0  0  0
 21 46  1  0  0  0  0
 22 47  1  0  0  0  0
M  END
>  <DRUGBANK_ID>
DB02565

>  <SECONDARY_ACCESSION_NUMBERS>
EXPT00611

>  <COMMON_NAME>
4-(dimethylamino)-N-[7-(hydroxyamino)-7-oxoheptyl]benzamide

>  <CAS_NUMBER>
251456-60-7

>  <UNII>
J8W4VF5ZEJ

>  <SYNONYMS>
4-dimethylamino-N-(6-hydroxycarbamoylhexyl)benzamide; histone deacetylase inhibitor III; N-hydroxy-7-(4-dimethylaminobenzoyl)aminoheptanamide

$$$$
