5HD
 OpenBabel10282417072D

 38 37  0  0  0  0  0  0  0  0999 V2000
   -1.3303   -0.0978    0.0000 C   0  0  0  0  0  0  0  0  0  0  0  0
   -2.0447   -0.5103    0.0000 C   0  0  0  0  0  0  0  0  0  0  0  0
   -2.7592   -0.0978    0.0000 C   0  0  0  0  0  0  0  0  0  0  0  0
    3.6710   -0.5103    0.0000 O   0  0  0  0  0  0  0  0  0  0  0  0
    2.9566   -0.0978    0.0000 C   0  0  0  0  0  0  0  0  0  0  0  0
    2.2421   -0.5103    0.0000 C   0  0  0  0  0  0  0  0  0  0  0  0
    1.5276   -0.0978    0.0000 C   0  0  0  0  0  0  0  0  0  0  0  0
    0.8132   -0.5103    0.0000 C   0  0  0  0  0  0  0  0  0  0  0  0
    0.0987   -0.0978    0.0000 C   0  0  0  0  0  0  0  0  0  0  0  0
    0.0987    0.7272    0.0000 C   0  0  0  0  0  0  0  0  0  0  0  0
   -0.6158    1.1397    0.0000 C   0  0  0  0  0  0  0  0  0  0  0  0
   -0.6158    1.9647    0.0000 O   0  0  0  0  0  0  0  0  0  0  0  0
   -0.6158   -0.5103    0.0000 C   0  0  0  0  0  0  0  0  0  0  0  0
   -3.4737   -0.5103    0.0000 O   0  0  0  0  0  0  0  0  0  0  0  0
   -1.3303    0.9722    0.0000 H   0  0  0  0  0  0  0  0  0  0  0  0
   -0.4037    0.4372    0.0000 H   0  0  0  0  0  0  0  0  0  0  0  0
   -2.0447   -1.5803    0.0000 H   0  0  0  0  0  0  0  0  0  0  0  0
   -2.9713   -1.0453    0.0000 H   0  0  0  0  0  0  0  0  0  0  0  0
   -2.7592    0.9722    0.0000 H   0  0  0  0  0  0  0  0  0  0  0  0
   -3.6858    0.4372    0.0000 H   0  0  0  0  0  0  0  0  0  0  0  0
    3.6710   -1.4803    0.0000 H   0  0  0  0  0  0  0  0  0  0  0  0
    2.9566    0.9722    0.0000 H   0  0  0  0  0  0  0  0  0  0  0  0
    2.0300    0.4372    0.0000 H   0  0  0  0  0  0  0  0  0  0  0  0
    2.2421   -1.5803    0.0000 H   0  0  0  0  0  0  0  0  0  0  0  0
    1.3155   -1.0453    0.0000 H   0  0  0  0  0  0  0  0  0  0  0  0
    1.5276    0.9722    0.0000 H   0  0  0  0  0  0  0  0  0  0  0  0
    0.6009    0.4372    0.0000 H   0  0  0  0  0  0  0  0  0  0  0  0
    0.8132   -1.5803    0.0000 H   0  0  0  0  0  0  0  0  0  0  0  0
   -0.1134   -1.0453    0.0000 H   0  0  0  0  0  0  0  0  0  0  0  0
   -0.8279    0.4372    0.0000 H   0  0  0  0  0  0  0  0  0  0  0  0
    1.0253    1.2622    0.0000 H   0  0  0  0  0  0  0  0  0  0  0  0
    0.0987    1.7972    0.0000 H   0  0  0  0  0  0  0  0  0  0  0  0
   -1.5424    0.6047    0.0000 H   0  0  0  0  0  0  0  0  0  0  0  0
   -1.5424    1.6747    0.0000 H   0  0  0  0  0  0  0  0  0  0  0  0
    0.2242    2.4497    0.0000 H   0  0  0  0  0  0  0  0  0  0  0  0
   -0.6158   -1.5803    0.0000 H   0  0  0  0  0  0  0  0  0  0  0  0
   -1.5424   -1.0453    0.0000 H   0  0  0  0  0  0  0  0  0  0  0  0
   -4.3137   -0.0253    0.0000 H   0  0  0  0  0  0  0  0  0  0  0  0
  1  2  1  0  0  0  0
  1 15  1  0  0  0  0
  1 16  1  0  0  0  0
  2  3  1  0  0  0  0
  2 17  1  0  0  0  0
  2 18  1  0  0  0  0
  3 14  1  0  0  0  0
  3 19  1  0  0  0  0
  3 20  1  0  0  0  0
  4 21  1  0  0  0  0
  5  4  1  0  0  0  0
  5  6  1  0  0  0  0
  5 22  1  0  0  0  0
  5 23  1  0  0  0  0
  6  7  1  0  0  0  0
  6 24  1  0  0  0  0
  6 25  1  0  0  0  0
  7  8  1  0  0  0  0
  7 26  1  0  0  0  0
  7 27  1  0  0  0  0
  8 28  1  0  0  0  0
  8 29  1  0  0  0  0
  9  8  1  0  0  0  0
  9 13  1  0  0  0  0
  9 30  1  0  0  0  0
 10  9  1  0  0  0  0
 10 31  1  0  0  0  0
 10 32  1  0  0  0  0
 11 10  1  0  0  0  0
 11 33  1  0  0  0  0
 11 34  1  0  0  0  0
 12 11  1  0  0  0  0
 12 35  1  0  0  0  0
 13  1  1  0  0  0  0
 13 36  1  0  0  0  0
 13 37  1  0  0  0  0
 14 38  1  0  0  0  0
M  END
>  <DRUGBANK_ID>
DB07171

>  <COMMON_NAME>
5-(2-hydroxyethyl)nonane-1,9-diol

$$$$
