VGA
 OpenBabel10282417072D

 46 50  0  0  0  0  0  0  0  0999 V2000
   -0.5351    1.1605    0.0000 N   0  0  0  0  0  0  0  0  0  0  0  0
    0.2692    0.9769    0.0000 C   0  0  0  0  0  0  0  0  0  0  0  0
    0.6271    0.2336    0.0000 C   0  0  2  0  0  0  0  0  0  0  0  0
   -0.5351   -0.6933    0.0000 C   0  0  0  0  0  0  0  0  0  0  0  0
    0.2692   -0.5097    0.0000 N   0  0  0  0  0  0  0  0  0  0  0  0
   -1.1802   -0.1789    0.0000 C   0  0  0  0  0  0  0  0  0  0  0  0
   -1.1802    0.6461    0.0000 C   0  0  0  0  0  0  0  0  0  0  0  0
   -1.8946    1.0586    0.0000 C   0  0  0  0  0  0  0  0  0  0  0  0
   -2.6091    0.6461    0.0000 C   0  0  0  0  0  0  0  0  0  0  0  0
   -2.6091   -0.1789    0.0000 C   0  0  0  0  0  0  0  0  0  0  0  0
   -1.8946   -0.5914    0.0000 C   0  0  0  0  0  0  0  0  0  0  0  0
   -0.7187   -1.4976    0.0000 C   0  0  0  0  0  0  0  0  0  0  0  0
    0.7836    1.6219    0.0000 N   0  0  0  0  0  0  0  0  0  0  0  0
    0.6912    2.4417    0.0000 C   0  0  0  0  0  0  0  0  0  0  0  0
    1.5110    2.5341    0.0000 C   0  0  3  0  0  0  0  0  0  0  0  0
    1.6034    1.7143    0.0000 C   0  0  0  0  0  0  0  0  0  0  0  0
   -0.1140   -2.0587    0.0000 C   0  0  0  0  0  0  0  0  0  0  0  0
   -0.2975   -2.8630    0.0000 C   0  0  0  0  0  0  0  0  0  0  0  0
   -1.0859   -3.1062    0.0000 C   0  0  0  0  0  0  0  0  0  0  0  0
   -1.6906   -2.5451    0.0000 C   0  0  0  0  0  0  0  0  0  0  0  0
   -1.5071   -1.7408    0.0000 C   0  0  0  0  0  0  0  0  0  0  0  0
    1.4521    0.2336    0.0000 C   0  0  0  0  0  0  0  0  0  0  0  0
    1.9371    0.9011    0.0000 S   0  0  0  0  0  0  0  0  0  0  0  0
    2.7217    0.6461    0.0000 C   0  0  0  0  0  0  0  0  0  0  0  0
    2.7217   -0.1789    0.0000 C   0  0  0  0  0  0  0  0  0  0  0  0
    1.9371   -0.4338    0.0000 C   0  0  0  0  0  0  0  0  0  0  0  0
    2.0254    3.1791    0.0000 O   0  0  0  0  0  0  0  0  0  0  0  0
    0.9378    0.7280    0.0000 H   0  0  0  0  0  0  0  0  0  0  0  0
   -1.8946    2.0906    0.0000 H   0  0  0  0  0  0  0  0  0  0  0  0
   -3.5028    1.1621    0.0000 H   0  0  0  0  0  0  0  0  0  0  0  0
   -3.5028   -0.6949    0.0000 H   0  0  0  0  0  0  0  0  0  0  0  0
   -1.8946   -1.6234    0.0000 H   0  0  0  0  0  0  0  0  0  0  0  0
   -0.1454    3.1088    0.0000 H   0  0  0  0  0  0  0  0  0  0  0  0
    0.9874    3.4699    0.0000 H   0  0  0  0  0  0  0  0  0  0  0  0
    0.8439    1.6975    0.0000 H   0  0  0  0  0  0  0  0  0  0  0  0
    2.4400    1.0472    0.0000 H   0  0  0  0  0  0  0  0  0  0  0  0
    2.5399    2.2319    0.0000 H   0  0  0  0  0  0  0  0  0  0  0  0
    0.8721   -1.7545    0.0000 H   0  0  0  0  0  0  0  0  0  0  0  0
    0.4590   -3.5649    0.0000 H   0  0  0  0  0  0  0  0  0  0  0  0
   -1.3155   -4.1123    0.0000 H   0  0  0  0  0  0  0  0  0  0  0  0
   -2.6767   -2.8493    0.0000 H   0  0  0  0  0  0  0  0  0  0  0  0
   -2.2636   -1.0389    0.0000 H   0  0  0  0  0  0  0  0  0  0  0  0
    3.5566    1.2527    0.0000 H   0  0  0  0  0  0  0  0  0  0  0  0
    3.5566   -0.7855    0.0000 H   0  0  0  0  0  0  0  0  0  0  0  0
    1.6182   -1.4153    0.0000 H   0  0  0  0  0  0  0  0  0  0  0  0
    2.9846    3.0345    0.0000 H   0  0  0  0  0  0  0  0  0  0  0  0
  1  2  2  0  0  0  0
  1  7  1  0  0  0  0
  2  3  1  0  0  0  0
  2 13  1  0  0  0  0
  3  5  1  0  0  0  0
  3 22  1  0  0  0  0
  3 28  1  6  0  0  0
  4  5  2  0  0  0  0
  4  6  1  0  0  0  0
  4 12  1  0  0  0  0
  6  7  1  0  0  0  0
  6 11  2  0  0  0  0
  7  8  2  0  0  0  0
  8  9  1  0  0  0  0
  8 29  1  0  0  0  0
  9 10  2  0  0  0  0
  9 30  1  0  0  0  0
 10 11  1  0  0  0  0
 10 31  1  0  0  0  0
 11 32  1  0  0  0  0
 12 17  1  0  0  0  0
 12 21  2  0  0  0  0
 13 14  1  0  0  0  0
 13 16  1  0  0  0  0
 14 15  1  0  0  0  0
 14 33  1  0  0  0  0
 14 34  1  0  0  0  0
 15 16  1  0  0  0  0
 15 27  1  0  0  0  0
 15 35  1  0  0  0  0
 16 36  1  0  0  0  0
 16 37  1  0  0  0  0
 17 18  2  0  0  0  0
 17 38  1  0  0  0  0
 18 19  1  0  0  0  0
 18 39  1  0  0  0  0
 19 20  2  0  0  0  0
 19 40  1  0  0  0  0
 20 21  1  0  0  0  0
 20 41  1  0  0  0  0
 21 42  1  0  0  0  0
 22 23  1  0  0  0  0
 22 26  2  0  0  0  0
 23 24  1  0  0  0  0
 24 25  2  0  0  0  0
 24 43  1  0  0  0  0
 25 26  1  0  0  0  0
 25 44  1  0  0  0  0
 26 45  1  0  0  0  0
 27 46  1  0  0  0  0
M  END
>  <DRUGBANK_ID>
DB08698

>  <COMMON_NAME>
1-[(3S)-5-PHENYL-3-THIOPHEN-2-YL-3H-1,4-BENZODIAZEPIN-2-YL]AZETIDIN-3-OL

$$$$
