
 OpenBabel10282417072D

 68 69  0  0  1  0  0  0  0  0999 V2000
    2.8579   -4.1250    0.0000 C   0  0  0  0  0  0  0  0  0  0  0  0
    3.5724   -3.7125    0.0000 C   0  0  0  0  0  0  0  0  0  0  0  0
    4.2868   -4.1250    0.0000 C   0  0  0  0  0  0  0  0  0  0  0  0
    5.0013   -3.7125    0.0000 C   0  0  0  0  0  0  0  0  0  0  0  0
    5.7158   -4.1250    0.0000 C   0  0  0  0  0  0  0  0  0  0  0  0
    6.4302   -3.7125    0.0000 C   0  0  0  0  0  0  0  0  0  0  0  0
    7.1447   -4.1250    0.0000 C   0  0  0  0  0  0  0  0  0  0  0  0
   10.0026   -1.6500    0.0000 C   0  0  0  0  0  0  0  0  0  0  0  0
   12.0607   -6.9900    0.0000 C   0  0  0  0  0  0  0  0  0  0  0  0
   10.6111   -4.8638    0.0000 C   0  0  0  0  0  0  0  0  0  0  0  0
   10.0026   -2.4750    0.0000 C   0  0  2  0  0  0  0  0  0  0  0  0
   11.9745   -6.1695    0.0000 C   0  0  2  0  0  0  0  0  0  0  0  0
    7.8592   -3.7125    0.0000 C   0  0  0  0  0  0  0  0  0  0  0  0
    9.2881   -2.8875    0.0000 C   0  0  2  0  0  0  0  0  0  0  0  0
   12.5876   -5.6174    0.0000 C   0  0  2  0  0  0  0  0  0  0  0  0
   10.0026   -4.1250    0.0000 C   0  0  2  0  0  0  0  0  0  0  0  0
    9.2881   -3.7125    0.0000 C   0  0  1  0  0  0  0  0  0  0  0  0
   12.2520   -4.8638    0.0000 C   0  0  1  0  0  0  0  0  0  0  0  0
   10.7171   -3.7125    0.0000 C   0  0  2  0  0  0  0  0  0  0  0  0
   11.4315   -4.9500    0.0000 C   0  0  2  0  0  0  0  0  0  0  0  0
   10.7171   -1.2375    0.0000 O   0  0  0  0  0  0  0  0  0  0  0  0
   12.8144   -7.3255    0.0000 O   0  0  0  0  0  0  0  0  0  0  0  0
   10.1261   -5.5312    0.0000 O   0  0  0  0  0  0  0  0  0  0  0  0
    7.8592   -2.8875    0.0000 O   0  0  0  0  0  0  0  0  0  0  0  0
    8.5737   -2.4750    0.0000 O   0  0  0  0  0  0  0  0  0  0  0  0
   13.3945   -5.7890    0.0000 O   0  0  0  0  0  0  0  0  0  0  0  0
   10.0026   -4.9500    0.0000 O   0  0  0  0  0  0  0  0  0  0  0  0
   12.6645   -4.1493    0.0000 O   0  0  0  0  0  0  0  0  0  0  0  0
   10.7171   -2.8875    0.0000 O   0  0  0  0  0  0  0  0  0  0  0  0
    8.5737   -4.1250    0.0000 O   0  0  0  0  0  0  0  0  0  0  0  0
   11.2600   -5.7570    0.0000 O   0  0  0  0  0  0  0  0  0  0  0  0
   11.4315   -4.1250    0.0000 O   0  0  0  0  0  0  0  0  0  0  0  0
    9.1901   -2.3317    0.0000 H   0  0  0  0  0  0  0  0  0  0  0  0
   12.7994   -6.1839    0.0000 H   0  0  0  0  0  0  0  0  0  0  0  0
    9.0060   -2.1123    0.0000 H   0  0  0  0  0  0  0  0  0  0  0  0
   13.0608   -6.2932    0.0000 H   0  0  0  0  0  0  0  0  0  0  0  0
    9.2881   -4.5375    0.0000 H   0  0  0  0  0  0  0  0  0  0  0  0
    8.5737   -3.3000    0.0000 H   0  0  0  0  0  0  0  0  0  0  0  0
   13.0759   -4.9069    0.0000 H   0  0  0  0  0  0  0  0  0  0  0  0
   10.7171   -4.5375    0.0000 H   0  0  0  0  0  0  0  0  0  0  0  0
    1.9313   -3.5900    0.0000 H   0  0  0  0  0  0  0  0  0  0  0  0
    2.8579   -5.1950    0.0000 H   0  0  0  0  0  0  0  0  0  0  0  0
    1.9312   -4.6600    0.0000 H   0  0  0  0  0  0  0  0  0  0  0  0
    3.5724   -2.6425    0.0000 H   0  0  0  0  0  0  0  0  0  0  0  0
    4.4991   -3.1775    0.0000 H   0  0  0  0  0  0  0  0  0  0  0  0
    4.2868   -5.1950    0.0000 H   0  0  0  0  0  0  0  0  0  0  0  0
    5.2134   -4.6600    0.0000 H   0  0  0  0  0  0  0  0  0  0  0  0
    5.0013   -2.6425    0.0000 H   0  0  0  0  0  0  0  0  0  0  0  0
    5.9279   -3.1775    0.0000 H   0  0  0  0  0  0  0  0  0  0  0  0
    5.7158   -5.1950    0.0000 H   0  0  0  0  0  0  0  0  0  0  0  0
    6.6425   -4.6600    0.0000 H   0  0  0  0  0  0  0  0  0  0  0  0
    6.4302   -2.6425    0.0000 H   0  0  0  0  0  0  0  0  0  0  0  0
    7.3568   -3.1775    0.0000 H   0  0  0  0  0  0  0  0  0  0  0  0
    7.1447   -5.1950    0.0000 H   0  0  0  0  0  0  0  0  0  0  0  0
    8.0713   -4.6600    0.0000 H   0  0  0  0  0  0  0  0  0  0  0  0
    9.0760   -1.1150    0.0000 H   0  0  0  0  0  0  0  0  0  0  0  0
   10.0026   -0.5800    0.0000 H   0  0  0  0  0  0  0  0  0  0  0  0
   11.1951   -7.6189    0.0000 H   0  0  0  0  0  0  0  0  0  0  0  0
   12.1726   -8.0541    0.0000 H   0  0  0  0  0  0  0  0  0  0  0  0
   10.1759   -3.8863    0.0000 H   0  0  0  0  0  0  0  0  0  0  0  0
    9.5470   -4.7519    0.0000 H   0  0  0  0  0  0  0  0  0  0  0  0
   11.5571   -1.7225    0.0000 H   0  0  0  0  0  0  0  0  0  0  0  0
   12.9159   -8.2902    0.0000 H   0  0  0  0  0  0  0  0  0  0  0  0
    9.1614   -5.4297    0.0000 H   0  0  0  0  0  0  0  0  0  0  0  0
    8.5737   -1.5050    0.0000 H   0  0  0  0  0  0  0  0  0  0  0  0
   13.6942   -6.7116    0.0000 H   0  0  0  0  0  0  0  0  0  0  0  0
    9.1626   -5.4350    0.0000 H   0  0  0  0  0  0  0  0  0  0  0  0
   13.6345   -4.1493    0.0000 H   0  0  0  0  0  0  0  0  0  0  0  0
  1 41  1  0  0  0  0
  1 42  1  0  0  0  0
  1 43  1  0  0  0  0
  2  1  1  0  0  0  0
  2 44  1  0  0  0  0
  2 45  1  0  0  0  0
  3  2  1  0  0  0  0
  3 46  1  0  0  0  0
  3 47  1  0  0  0  0
  4  3  1  0  0  0  0
  4 48  1  0  0  0  0
  4 49  1  0  0  0  0
  5  4  1  0  0  0  0
  5 50  1  0  0  0  0
  5 51  1  0  0  0  0
  6  5  1  0  0  0  0
  6 52  1  0  0  0  0
  6 53  1  0  0  0  0
  7  6  1  0  0  0  0
  7 54  1  0  0  0  0
  7 55  1  0  0  0  0
  8 56  1  0  0  0  0
  8 57  1  0  0  0  0
  9 58  1  0  0  0  0
  9 59  1  0  0  0  0
 10 60  1  0  0  0  0
 10 61  1  0  0  0  0
 11  8  1  0  0  0  0
 11 33  1  6  0  0  0
 12  9  1  0  0  0  0
 12 34  1  6  0  0  0
 13  7  1  0  0  0  0
 14 11  1  0  0  0  0
 14 25  1  0  0  0  0
 14 35  1  1  0  0  0
 15 12  1  0  0  0  0
 15 26  1  0  0  0  0
 15 36  1  1  0  0  0
 16 27  1  0  0  0  0
 16 37  1  1  0  0  0
 17 14  1  0  0  0  0
 17 16  1  0  0  0  0
 17 30  1  0  0  0  0
 17 38  1  6  0  0  0
 18 15  1  0  0  0  0
 18 28  1  0  0  0  0
 18 39  1  6  0  0  0
 19 16  1  0  0  0  0
 19 32  1  0  0  0  0
 19 40  1  1  0  0  0
 20 10  1  0  0  0  0
 20 18  1  0  0  0  0
 20 32  1  1  0  0  0
 21  8  1  0  0  0  0
 21 62  1  0  0  0  0
 22  9  1  0  0  0  0
 22 63  1  0  0  0  0
 23 10  1  0  0  0  0
 23 64  1  0  0  0  0
 24 13  2  0  0  0  0
 25 65  1  0  0  0  0
 26 66  1  0  0  0  0
 27 67  1  0  0  0  0
 28 68  1  0  0  0  0
 29 11  1  0  0  0  0
 29 19  1  0  0  0  0
 30 13  1  0  0  0  0
 31 12  1  0  0  0  0
 31 20  1  0  0  0  0
M  END
>  <DRUGBANK_ID>
DB02346

>  <SECONDARY_ACCESSION_NUMBERS>
EXPT00139

>  <COMMON_NAME>
3'-O-N-Octanoyl-a-D-Glucopyranosyl-B-D-Fructofuranoside

$$$$
