
 OpenBabel10282417072D

 56 59  0  0  1  0  0  0  0  0999 V2000
   -2.8579   -6.6000    0.0000 C   0  0  0  0  0  0  0  0  0  0  0  0
   -2.1434   -6.1875    0.0000 C   0  0  0  0  0  0  0  0  0  0  0  0
   -2.1434   -5.3625    0.0000 O   0  0  0  0  0  0  0  0  0  0  0  0
   -1.4289   -4.9500    0.0000 C   0  0  2  0  0  0  0  0  0  0  0  0
   -1.4289   -4.1250    0.0000 C   0  0  0  0  0  0  0  0  0  0  0  0
   -0.7145   -3.7125    0.0000 C   0  0  0  0  0  0  0  0  0  0  0  0
   -0.7145   -2.8875    0.0000 C   0  0  0  0  0  0  0  0  0  0  0  0
   -0.0000   -2.4750    0.0000 C   0  0  0  0  0  0  0  0  0  0  0  0
    0.7145   -2.8875    0.0000 C   0  0  0  0  0  0  0  0  0  0  0  0
    0.7145   -3.7125    0.0000 C   0  0  0  0  0  0  0  0  0  0  0  0
   -0.0000   -4.1250    0.0000 C   0  0  0  0  0  0  0  0  0  0  0  0
    1.4289   -2.4750    0.0000 O   0  0  0  0  0  0  0  0  0  0  0  0
    1.4289   -1.6500    0.0000 C   0  0  0  0  0  0  0  0  0  0  0  0
    2.1434   -1.2375    0.0000 C   0  0  0  0  0  0  0  0  0  0  0  0
    2.1434   -0.4125    0.0000 N   0  0  0  0  0  0  0  0  0  0  0  0
    2.8579   -0.0000    0.0000 C   0  0  0  0  0  0  0  0  0  0  0  0
    3.5724   -0.4125    0.0000 C   0  0  0  0  0  0  0  0  0  0  0  0
    4.2868    0.0000    0.0000 C   0  0  0  0  0  0  0  0  0  0  0  0
    4.2868    0.8250    0.0000 C   0  0  0  0  0  0  0  0  0  0  0  0
    3.5724    1.2375    0.0000 C   0  0  0  0  0  0  0  0  0  0  0  0
    2.8579    0.8250    0.0000 C   0  0  0  0  0  0  0  0  0  0  0  0
    2.1434    1.2375    0.0000 O   0  0  0  0  0  0  0  0  0  0  0  0
    1.4289    0.8250    0.0000 C   0  0  0  0  0  0  0  0  0  0  0  0
    1.4289    0.0000    0.0000 C   0  0  0  0  0  0  0  0  0  0  0  0
    0.7145   -0.4125    0.0000 C   0  0  0  0  0  0  0  0  0  0  0  0
    0.0000   -0.0000    0.0000 C   0  0  0  0  0  0  0  0  0  0  0  0
    0.0000    0.8250    0.0000 C   0  0  0  0  0  0  0  0  0  0  0  0
    0.7145    1.2375    0.0000 C   0  0  0  0  0  0  0  0  0  0  0  0
   -0.7145   -5.3625    0.0000 C   0  0  0  0  0  0  0  0  0  0  0  0
   -0.0000   -4.9500    0.0000 O   0  0  0  0  0  0  0  0  0  0  0  0
   -0.7145   -6.1875    0.0000 O   0  0  0  0  0  0  0  0  0  0  0  0
   -3.7845   -6.0650    0.0000 H   0  0  0  0  0  0  0  0  0  0  0  0
   -2.8579   -7.6700    0.0000 H   0  0  0  0  0  0  0  0  0  0  0  0
   -3.7846   -7.1350    0.0000 H   0  0  0  0  0  0  0  0  0  0  0  0
   -1.2168   -6.7225    0.0000 H   0  0  0  0  0  0  0  0  0  0  0  0
   -1.2168   -5.6525    0.0000 H   0  0  0  0  0  0  0  0  0  0  0  0
   -2.3555   -4.4150    0.0000 H   0  0  0  0  0  0  0  0  0  0  0  0
   -2.3556   -3.5900    0.0000 H   0  0  0  0  0  0  0  0  0  0  0  0
   -1.4289   -3.0550    0.0000 H   0  0  0  0  0  0  0  0  0  0  0  0
   -1.6082   -2.3715    0.0000 H   0  0  0  0  0  0  0  0  0  0  0  0
    0.0000   -1.4430    0.0000 H   0  0  0  0  0  0  0  0  0  0  0  0
    1.6082   -4.2285    0.0000 H   0  0  0  0  0  0  0  0  0  0  0  0
    0.0000   -5.1570    0.0000 H   0  0  0  0  0  0  0  0  0  0  0  0
    0.5023   -1.1150    0.0000 H   0  0  0  0  0  0  0  0  0  0  0  0
    1.4289   -0.5800    0.0000 H   0  0  0  0  0  0  0  0  0  0  0  0
    3.0700   -1.7725    0.0000 H   0  0  0  0  0  0  0  0  0  0  0  0
    3.0700   -0.7025    0.0000 H   0  0  0  0  0  0  0  0  0  0  0  0
    3.5724   -1.4445    0.0000 H   0  0  0  0  0  0  0  0  0  0  0  0
    5.1805   -0.5160    0.0000 H   0  0  0  0  0  0  0  0  0  0  0  0
    5.1805    1.3410    0.0000 H   0  0  0  0  0  0  0  0  0  0  0  0
    3.5724    2.2695    0.0000 H   0  0  0  0  0  0  0  0  0  0  0  0
    0.7145   -1.4445    0.0000 H   0  0  0  0  0  0  0  0  0  0  0  0
   -0.8937   -0.5160    0.0000 H   0  0  0  0  0  0  0  0  0  0  0  0
   -0.8937    1.3410    0.0000 H   0  0  0  0  0  0  0  0  0  0  0  0
    0.7145    2.2695    0.0000 H   0  0  0  0  0  0  0  0  0  0  0  0
   -1.5260   -6.6560    0.0000 H   0  0  0  0  0  0  0  0  0  0  0  0
  1  2  1  0  0  0  0
  1 32  1  0  0  0  0
  1 33  1  0  0  0  0
  1 34  1  0  0  0  0
  2  3  1  0  0  0  0
  2 35  1  0  0  0  0
  2 36  1  0  0  0  0
  4  3  1  0  0  0  0
  4  5  1  0  0  0  0
  4 29  1  0  0  0  0
  4 37  1  1  0  0  0
  5  6  1  0  0  0  0
  5 38  1  0  0  0  0
  5 39  1  0  0  0  0
  6  7  2  0  0  0  0
  6 11  1  0  0  0  0
  7  8  1  0  0  0  0
  7 40  1  0  0  0  0
  8  9  2  0  0  0  0
  8 41  1  0  0  0  0
  9 10  1  0  0  0  0
  9 12  1  0  0  0  0
 10 11  2  0  0  0  0
 10 42  1  0  0  0  0
 11 43  1  0  0  0  0
 12 13  1  0  0  0  0
 13 14  1  0  0  0  0
 13 44  1  0  0  0  0
 13 45  1  0  0  0  0
 14 15  1  0  0  0  0
 14 46  1  0  0  0  0
 14 47  1  0  0  0  0
 15 16  1  0  0  0  0
 15 24  1  0  0  0  0
 16 17  2  0  0  0  0
 16 21  1  0  0  0  0
 17 18  1  0  0  0  0
 17 48  1  0  0  0  0
 18 19  2  0  0  0  0
 18 49  1  0  0  0  0
 19 20  1  0  0  0  0
 19 50  1  0  0  0  0
 20 21  2  0  0  0  0
 20 51  1  0  0  0  0
 21 22  1  0  0  0  0
 22 23  1  0  0  0  0
 23 24  2  0  0  0  0
 23 28  1  0  0  0  0
 24 25  1  0  0  0  0
 25 26  2  0  0  0  0
 25 52  1  0  0  0  0
 26 27  1  0  0  0  0
 26 53  1  0  0  0  0
 27 28  2  0  0  0  0
 27 54  1  0  0  0  0
 28 55  1  0  0  0  0
 29 30  2  0  0  0  0
 29 31  1  0  0  0  0
 31 56  1  0  0  0  0
M  END
>  <DRUGBANK_ID>
DB06533

>  <COMMON_NAME>
Ragaglitazar

>  <CAS_NUMBER>
222834-30-2

>  <UNII>
Q5ELR5A7Y5

>  <SYNONYMS>
Ragaglitazar

$$$$
