1032
 OpenBabel10282417072D

 38 38  0  0  0  0  0  0  0  0999 V2000
    3.0791    0.8745    0.0000 S   0  0  0  0  0  0  0  0  0  0  0  0
    2.2540    0.8745    0.0000 O   0  0  0  0  0  0  0  0  0  0  0  0
    3.9041    0.8745    0.0000 O   0  0  0  0  0  0  0  0  0  0  0  0
    2.3645   -2.8381    0.0000 O   0  0  0  0  0  0  0  0  0  0  0  0
    3.7935   -2.8381    0.0000 O   0  0  0  0  0  0  0  0  0  0  0  0
    3.0791    1.6995    0.0000 N   0  0  0  0  0  0  0  0  0  0  0  0
    3.7935    2.1120    0.0000 C   0  0  0  0  0  0  0  0  0  0  0  0
    2.3645    2.1120    0.0000 C   0  0  0  0  0  0  0  0  0  0  0  0
    3.7935    2.9371    0.0000 C   0  0  0  0  0  0  0  0  0  0  0  0
    2.3645    2.9371    0.0000 C   0  0  0  0  0  0  0  0  0  0  0  0
    3.0791    0.0495    0.0000 C   0  0  0  0  0  0  0  0  0  0  0  0
    4.5080    3.3496    0.0000 C   0  0  0  0  0  0  0  0  0  0  0  0
    1.6500    3.3496    0.0000 C   0  0  0  0  0  0  0  0  0  0  0  0
    2.3645   -0.3630    0.0000 C   0  0  0  0  0  0  0  0  0  0  0  0
    3.7935   -0.3630    0.0000 C   0  0  0  0  0  0  0  0  0  0  0  0
    2.3645   -1.1880    0.0000 C   0  0  0  0  0  0  0  0  0  0  0  0
    3.7935   -1.1880    0.0000 C   0  0  0  0  0  0  0  0  0  0  0  0
    3.0791   -1.6005    0.0000 C   0  0  0  0  0  0  0  0  0  0  0  0
    3.0791   -2.4256    0.0000 C   0  0  0  0  0  0  0  0  0  0  0  0
    1.5531   -2.3695    0.0000 H   0  0  0  0  0  0  0  0  0  0  0  0
    4.7202    1.5770    0.0000 H   0  0  0  0  0  0  0  0  0  0  0  0
    4.7201    2.6470    0.0000 H   0  0  0  0  0  0  0  0  0  0  0  0
    1.4379    1.5770    0.0000 H   0  0  0  0  0  0  0  0  0  0  0  0
    1.4378    2.6470    0.0000 H   0  0  0  0  0  0  0  0  0  0  0  0
    2.8669    3.4721    0.0000 H   0  0  0  0  0  0  0  0  0  0  0  0
    3.7935    4.0071    0.0000 H   0  0  0  0  0  0  0  0  0  0  0  0
    3.2911    3.4721    0.0000 H   0  0  0  0  0  0  0  0  0  0  0  0
    2.3645    4.0071    0.0000 H   0  0  0  0  0  0  0  0  0  0  0  0
    5.4346    2.8146    0.0000 H   0  0  0  0  0  0  0  0  0  0  0  0
    4.5080    4.4196    0.0000 H   0  0  0  0  0  0  0  0  0  0  0  0
    5.4347    3.8846    0.0000 H   0  0  0  0  0  0  0  0  0  0  0  0
    1.6500    4.4196    0.0000 H   0  0  0  0  0  0  0  0  0  0  0  0
    0.7234    2.8146    0.0000 H   0  0  0  0  0  0  0  0  0  0  0  0
    0.7233    3.8846    0.0000 H   0  0  0  0  0  0  0  0  0  0  0  0
    1.4708    0.1530    0.0000 H   0  0  0  0  0  0  0  0  0  0  0  0
    4.6872    0.1530    0.0000 H   0  0  0  0  0  0  0  0  0  0  0  0
    1.4708   -1.7040    0.0000 H   0  0  0  0  0  0  0  0  0  0  0  0
    4.6872   -1.7040    0.0000 H   0  0  0  0  0  0  0  0  0  0  0  0
  1  2  2  0  0  0  0
  1  3  2  0  0  0  0
  1  6  1  0  0  0  0
  1 11  1  0  0  0  0
  4 19  1  0  0  0  0
  4 20  1  0  0  0  0
  5 19  2  0  0  0  0
  6  7  1  0  0  0  0
  6  8  1  0  0  0  0
  7  9  1  0  0  0  0
  7 21  1  0  0  0  0
  7 22  1  0  0  0  0
  8 10  1  0  0  0  0
  8 23  1  0  0  0  0
  8 24  1  0  0  0  0
  9 12  1  0  0  0  0
  9 25  1  0  0  0  0
  9 26  1  0  0  0  0
 10 13  1  0  0  0  0
 10 27  1  0  0  0  0
 10 28  1  0  0  0  0
 11 14  2  0  0  0  0
 11 15  1  0  0  0  0
 12 29  1  0  0  0  0
 12 30  1  0  0  0  0
 12 31  1  0  0  0  0
 13 32  1  0  0  0  0
 13 33  1  0  0  0  0
 13 34  1  0  0  0  0
 14 16  1  0  0  0  0
 14 35  1  0  0  0  0
 15 17  2  0  0  0  0
 15 36  1  0  0  0  0
 16 18  2  0  0  0  0
 16 37  1  0  0  0  0
 17 18  1  0  0  0  0
 17 38  1  0  0  0  0
 18 19  1  0  0  0  0
M  END
>  <DRUGBANK_ID>
DB01032

>  <SECONDARY_ACCESSION_NUMBERS>
APRD00167

>  <COMMON_NAME>
Probenecid

>  <CAS_NUMBER>
57-66-9

>  <UNII>
PO572Z7917

>  <SYNONYMS>
4-((Dipropylamino)sulfonyl)benzoic acid; 4-(Di-n-propylsulfamoyl)benzoesäure; 4-(N,N-Dipropylsulfamoyl)benzoesäure; p-(Dipropylsulfamoyl)benzoic acid; Probenecid; Probenecid acid; Probenecida; Probenecide; Probenecidum

$$$$
