
 OpenBabel10282417072D

 31 30  0  0  0  0  0  0  0  0999 V2000
   -2.1435    0.8249    0.0000 C   0  0  0  0  0  0  0  0  0  0  0  0
    2.1434    0.8249    0.0000 C   0  0  0  0  0  0  0  0  0  0  0  0
   -2.8580    0.4124    0.0000 N   0  0  0  0  0  0  0  0  0  0  0  0
    2.1434    1.6500    0.0000 O   0  0  0  0  0  0  0  0  0  0  0  0
   -1.4290    0.4124    0.0000 N   0  0  0  0  0  0  0  0  0  0  0  0
    1.4289    0.4124    0.0000 C   0  0  1  0  0  0  0  0  0  0  0  0
   -2.1435    1.6500    0.0000 N   0  0  0  0  0  0  0  0  0  0  0  0
    1.4289   -0.4125    0.0000 N   0  0  0  0  0  0  0  0  0  0  0  0
   -0.7144    0.8249    0.0000 C   0  0  0  0  0  0  0  0  0  0  0  0
    0.7144    0.8249    0.0000 C   0  0  0  0  0  0  0  0  0  0  0  0
    0.0000    0.4124    0.0000 C   0  0  0  0  0  0  0  0  0  0  0  0
    2.8579    0.4124    0.0000 O   0  0  0  0  0  0  0  0  0  0  0  0
    0.7144   -0.8250    0.0000 C   0  0  0  0  0  0  0  0  0  0  0  0
    0.7144   -1.6500    0.0000 O   0  0  0  0  0  0  0  0  0  0  0  0
    0.0000   -0.4125    0.0000 C   0  0  0  0  0  0  0  0  0  0  0  0
   -3.7106    0.9047    0.0000 H   0  0  0  0  0  0  0  0  0  0  0  0
   -1.4290   -0.5721    0.0000 H   0  0  0  0  0  0  0  0  0  0  0  0
    2.3555   -0.1226    0.0000 H   0  0  0  0  0  0  0  0  0  0  0  0
   -1.2909    2.1422    0.0000 H   0  0  0  0  0  0  0  0  0  0  0  0
   -2.9961    2.1422    0.0000 H   0  0  0  0  0  0  0  0  0  0  0  0
    2.2815   -0.9048    0.0000 H   0  0  0  0  0  0  0  0  0  0  0  0
   -0.7143    1.8949    0.0000 H   0  0  0  0  0  0  0  0  0  0  0  0
    0.2123    1.3599    0.0000 H   0  0  0  0  0  0  0  0  0  0  0  0
    0.7144    1.8949    0.0000 H   0  0  0  0  0  0  0  0  0  0  0  0
   -0.2123    1.3599    0.0000 H   0  0  0  0  0  0  0  0  0  0  0  0
    0.0000   -0.6576    0.0000 H   0  0  0  0  0  0  0  0  0  0  0  0
    0.9267   -0.1226    0.0000 H   0  0  0  0  0  0  0  0  0  0  0  0
    2.8579   -0.5246    0.0000 H   0  0  0  0  0  0  0  0  0  0  0  0
    0.0000    0.6575    0.0000 H   0  0  0  0  0  0  0  0  0  0  0  0
   -0.9267   -0.9475    0.0000 H   0  0  0  0  0  0  0  0  0  0  0  0
   -0.9266    0.1225    0.0000 H   0  0  0  0  0  0  0  0  0  0  0  0
  1  3  2  0  0  0  0
  1  5  1  0  0  0  0
  1  7  1  0  0  0  0
  2  6  1  0  0  0  0
  2  4  2  0  0  0  0
  3 16  1  0  0  0  0
  5  9  1  0  0  0  0
  5 17  1  0  0  0  0
  6 10  1  0  0  0  0
  6  8  1  0  0  0  0
  6 18  1  6  0  0  0
  7 19  1  0  0  0  0
  7 20  1  0  0  0  0
  8 13  1  0  0  0  0
  8 21  1  0  0  0  0
  9 11  1  0  0  0  0
  9 22  1  0  0  0  0
  9 23  1  0  0  0  0
 10 11  1  0  0  0  0
 10 24  1  0  0  0  0
 10 25  1  0  0  0  0
 11 26  1  0  0  0  0
 11 27  1  0  0  0  0
 12  2  1  0  0  0  0
 12 28  1  0  0  0  0
 14 13  2  0  0  0  0
 15 13  1  0  0  0  0
 15 29  1  0  0  0  0
 15 30  1  0  0  0  0
 15 31  1  0  0  0  0
M  END
>  <DRUGBANK_ID>
DB01985

>  <SECONDARY_ACCESSION_NUMBERS>
EXPT00382

>  <COMMON_NAME>
N-acetyl-L-arginine

>  <CAS_NUMBER>
155-84-0

>  <UNII>
TQ7DL04CAE

>  <SYNONYMS>
N-Ac-L-Arg-OH; N-alpha-L-acetyl-arginine; N2-Acetyl-L-arginine

$$$$
