
 OpenBabel10282417072D

 46 49  0  0  1  0  0  0  0  0999 V2000
    0.6529   -1.2716    0.0000 C   0  0  0  0  0  0  0  0  0  0  0  0
    1.3673   -0.8590    0.0000 C   0  0  2  0  0  0  0  0  0  0  0  0
    2.0818   -1.2716    0.0000 C   0  0  2  0  0  0  0  0  0  0  0  0
    2.0818   -2.0966    0.0000 C   0  0  0  0  0  0  0  0  0  0  0  0
    1.3673   -2.5091    0.0000 C   0  0  0  0  0  0  0  0  0  0  0  0
    0.6529   -2.0966    0.0000 C   0  0  0  0  0  0  0  0  0  0  0  0
    1.3673   -0.0340    0.0000 N   0  0  0  0  0  0  0  0  0  0  0  0
    2.7963   -0.8590    0.0000 N   0  0  0  0  0  0  0  0  0  0  0  0
    0.6529    0.3784    0.0000 C   0  0  0  0  0  0  0  0  0  0  0  0
   -0.0616   -0.0340    0.0000 N   0  0  0  0  0  0  0  0  0  0  0  0
   -0.7761    0.3784    0.0000 C   0  0  0  0  0  0  0  0  0  0  0  0
   -0.7761    1.2034    0.0000 C   0  0  0  0  0  0  0  0  0  0  0  0
   -0.0616    1.6159    0.0000 C   0  0  0  0  0  0  0  0  0  0  0  0
    0.6528    1.2034    0.0000 C   0  0  0  0  0  0  0  0  0  0  0  0
   -1.4905   -0.0340    0.0000 C   0  0  0  0  0  0  0  0  0  0  0  0
   -2.2442    0.3015    0.0000 C   0  0  0  0  0  0  0  0  0  0  0  0
   -2.7963   -0.3116    0.0000 N   0  0  0  0  0  0  0  0  0  0  0  0
   -2.3838   -1.0260    0.0000 N   0  0  0  0  0  0  0  0  0  0  0  0
   -1.5768   -0.8546    0.0000 C   0  0  0  0  0  0  0  0  0  0  0  0
   -2.7194   -1.7797    0.0000 C   0  0  0  0  0  0  0  0  0  0  0  0
    1.3673    1.6159    0.0000 F   0  0  0  0  0  0  0  0  0  0  0  0
   -0.2331    2.4229    0.0000 C   0  0  0  0  0  0  0  0  0  0  0  0
   -1.0536    2.5091    0.0000 N   0  0  0  0  0  0  0  0  0  0  0  0
   -1.3892    1.7554    0.0000 C   0  0  0  0  0  0  0  0  0  0  0  0
   -2.1962    1.5839    0.0000 O   0  0  0  0  0  0  0  0  0  0  0  0
   -0.2738   -0.7367    0.0000 H   0  0  0  0  0  0  0  0  0  0  0  0
   -0.2737   -1.8066    0.0000 H   0  0  0  0  0  0  0  0  0  0  0  0
    0.4406   -0.3241    0.0000 H   0  0  0  0  0  0  0  0  0  0  0  0
    2.0818   -0.2016    0.0000 H   0  0  0  0  0  0  0  0  0  0  0  0
    3.0084   -2.6316    0.0000 H   0  0  0  0  0  0  0  0  0  0  0  0
    2.0818   -3.1666    0.0000 H   0  0  0  0  0  0  0  0  0  0  0  0
    1.3673   -3.5791    0.0000 H   0  0  0  0  0  0  0  0  0  0  0  0
    0.4406   -3.0441    0.0000 H   0  0  0  0  0  0  0  0  0  0  0  0
   -0.2738   -2.6316    0.0000 H   0  0  0  0  0  0  0  0  0  0  0  0
   -0.2737   -1.5616    0.0000 H   0  0  0  0  0  0  0  0  0  0  0  0
    2.2199    0.4583    0.0000 H   0  0  0  0  0  0  0  0  0  0  0  0
    3.6797   -1.3689    0.0000 H   0  0  0  0  0  0  0  0  0  0  0  0
    2.7962    0.1610    0.0000 H   0  0  0  0  0  0  0  0  0  0  0  0
   -2.4588    1.3109    0.0000 H   0  0  0  0  0  0  0  0  0  0  0  0
   -0.8100   -1.5452    0.0000 H   0  0  0  0  0  0  0  0  0  0  0  0
   -3.7835   -1.8915    0.0000 H   0  0  0  0  0  0  0  0  0  0  0  0
   -2.0905   -2.6454    0.0000 H   0  0  0  0  0  0  0  0  0  0  0  0
   -3.1546   -2.7572    0.0000 H   0  0  0  0  0  0  0  0  0  0  0  0
    0.4829    3.2181    0.0000 H   0  0  0  0  0  0  0  0  0  0  0  0
   -0.6166    3.4218    0.0000 H   0  0  0  0  0  0  0  0  0  0  0  0
   -1.5459    3.3617    0.0000 H   0  0  0  0  0  0  0  0  0  0  0  0
  1  2  1  0  0  0  0
  1  6  1  0  0  0  0
  1 26  1  0  0  0  0
  1 27  1  0  0  0  0
  2  7  1  0  0  0  0
  2 28  1  6  0  0  0
  3  2  1  0  0  0  0
  3  8  1  0  0  0  0
  3 29  1  6  0  0  0
  4  3  1  0  0  0  0
  4 30  1  0  0  0  0
  4 31  1  0  0  0  0
  5  4  1  0  0  0  0
  5 32  1  0  0  0  0
  5 33  1  0  0  0  0
  6  5  1  0  0  0  0
  6 34  1  0  0  0  0
  6 35  1  0  0  0  0
  7  9  1  0  0  0  0
  7 36  1  0  0  0  0
  8 37  1  0  0  0  0
  8 38  1  0  0  0  0
  9 14  1  0  0  0  0
 10  9  2  0  0  0  0
 11 10  1  0  0  0  0
 11 15  1  0  0  0  0
 12 11  2  0  0  0  0
 12 24  1  0  0  0  0
 13 12  1  0  0  0  0
 13 22  1  0  0  0  0
 14 13  2  0  0  0  0
 14 21  1  0  0  0  0
 16 17  2  0  0  0  0
 16 15  1  0  0  0  0
 16 39  1  0  0  0  0
 17 18  1  0  0  0  0
 18 19  1  0  0  0  0
 18 20  1  0  0  0  0
 19 15  2  0  0  0  0
 19 40  1  0  0  0  0
 20 41  1  0  0  0  0
 20 42  1  0  0  0  0
 20 43  1  0  0  0  0
 22 23  1  0  0  0  0
 22 44  1  0  0  0  0
 22 45  1  0  0  0  0
 23 24  1  0  0  0  0
 23 46  1  0  0  0  0
 24 25  2  0  0  0  0
M  END
>  <DRUGBANK_ID>
DB16849

>  <COMMON_NAME>
Mivavotinib

>  <CAS_NUMBER>
1312691-33-0

>  <UNII>
8QR88H79VX

>  <SYNONYMS>
6-{[(1r,2s)-2-Aminocyclohexyl]amino}-7-Fluoro-4-(1-Methyl-1h-Pyrazol-4-Yl)-1,2-Dihydro-3h-Pyrrolo[3,4-C]pyridin-3-One; Mivavotinib

$$$$
