393
 OpenBabel10282417072D

 56 57  0  0  1  0  0  0  0  0999 V2000
    3.0791   -0.9818    0.0000 O   0  0  0  0  0  0  0  0  0  0  0  0
    7.3659   -0.9818    0.0000 O   0  0  0  0  0  0  0  0  0  0  0  0
    3.7935    0.2558    0.0000 O   0  0  0  0  0  0  0  0  0  0  0  0
    6.6515    0.2558    0.0000 O   0  0  0  0  0  0  0  0  0  0  0  0
    9.5094   -0.5693    0.0000 O   0  0  0  0  0  0  0  0  0  0  0  0
    6.6515    2.7308    0.0000 O   0  5  0  0  0  0  0  0  0  0  0  0
    7.3659    1.4933    0.0000 O   0  0  0  0  0  0  0  0  0  0  0  0
    5.2224   -2.2193    0.0000 N   0  0  0  0  0  0  0  0  0  0  0  0
    6.6515    1.9058    0.0000 N   0  3  0  0  0  0  0  0  0  0  0  0
    5.2224   -0.5693    0.0000 C   0  0  3  0  0  0  0  0  0  0  0  0
    4.5080   -0.9818    0.0000 C   0  0  0  0  0  0  0  0  0  0  0  0
    5.9370   -0.9818    0.0000 C   0  0  0  0  0  0  0  0  0  0  0  0
    5.2224    0.2558    0.0000 C   0  0  0  0  0  0  0  0  0  0  0  0
    4.5080   -1.8068    0.0000 C   0  0  0  0  0  0  0  0  0  0  0  0
    5.9370   -1.8068    0.0000 C   0  0  0  0  0  0  0  0  0  0  0  0
    3.7935   -0.5693    0.0000 C   0  0  0  0  0  0  0  0  0  0  0  0
    5.9370    0.6683    0.0000 C   0  0  0  0  0  0  0  0  0  0  0  0
    6.6515   -0.5693    0.0000 C   0  0  0  0  0  0  0  0  0  0  0  0
    4.5080    0.6683    0.0000 C   0  0  0  0  0  0  0  0  0  0  0  0
    3.7935   -2.2193    0.0000 C   0  0  0  0  0  0  0  0  0  0  0  0
    6.6515   -2.2193    0.0000 C   0  0  0  0  0  0  0  0  0  0  0  0
    5.9370    1.4933    0.0000 C   0  0  0  0  0  0  0  0  0  0  0  0
    4.5080    1.4933    0.0000 C   0  0  0  0  0  0  0  0  0  0  0  0
    2.3645   -0.5693    0.0000 C   0  0  0  0  0  0  0  0  0  0  0  0
    5.2224    1.9058    0.0000 C   0  0  0  0  0  0  0  0  0  0  0  0
    8.0804   -0.5693    0.0000 C   0  0  0  0  0  0  0  0  0  0  0  0
    1.6500   -0.9818    0.0000 C   0  0  0  0  0  0  0  0  0  0  0  0
    2.3645    0.2558    0.0000 C   0  0  0  0  0  0  0  0  0  0  0  0
    8.7949   -0.9818    0.0000 C   0  0  0  0  0  0  0  0  0  0  0  0
   10.2239   -0.9818    0.0000 C   0  0  0  0  0  0  0  0  0  0  0  0
    5.2223   -3.2038    0.0000 H   0  0  0  0  0  0  0  0  0  0  0  0
    5.2225   -1.6393    0.0000 H   0  0  0  0  0  0  0  0  0  0  0  0
    6.8307    0.1523    0.0000 H   0  0  0  0  0  0  0  0  0  0  0  0
    3.6143    0.1523    0.0000 H   0  0  0  0  0  0  0  0  0  0  0  0
    2.8669   -1.6843    0.0000 H   0  0  0  0  0  0  0  0  0  0  0  0
    3.7935   -3.2893    0.0000 H   0  0  0  0  0  0  0  0  0  0  0  0
    2.8668   -2.7543    0.0000 H   0  0  0  0  0  0  0  0  0  0  0  0
    6.6515   -3.2893    0.0000 H   0  0  0  0  0  0  0  0  0  0  0  0
    7.5781   -1.6843    0.0000 H   0  0  0  0  0  0  0  0  0  0  0  0
    7.5782   -2.7543    0.0000 H   0  0  0  0  0  0  0  0  0  0  0  0
    3.6143    2.0093    0.0000 H   0  0  0  0  0  0  0  0  0  0  0  0
    1.4379   -0.0343    0.0000 H   0  0  0  0  0  0  0  0  0  0  0  0
    5.2223    2.9378    0.0000 H   0  0  0  0  0  0  0  0  0  0  0  0
    8.0804    0.5007    0.0000 H   0  0  0  0  0  0  0  0  0  0  0  0
    9.0070   -0.0343    0.0000 H   0  0  0  0  0  0  0  0  0  0  0  0
    0.7234   -0.4468    0.0000 H   0  0  0  0  0  0  0  0  0  0  0  0
    1.6500   -2.0518    0.0000 H   0  0  0  0  0  0  0  0  0  0  0  0
    0.7233   -1.5168    0.0000 H   0  0  0  0  0  0  0  0  0  0  0  0
    3.2911    0.7908    0.0000 H   0  0  0  0  0  0  0  0  0  0  0  0
    1.4379    0.7908    0.0000 H   0  0  0  0  0  0  0  0  0  0  0  0
    2.3645    1.3258    0.0000 H   0  0  0  0  0  0  0  0  0  0  0  0
    8.7949   -2.0518    0.0000 H   0  0  0  0  0  0  0  0  0  0  0  0
    7.8683   -1.5168    0.0000 H   0  0  0  0  0  0  0  0  0  0  0  0
   10.2239   -2.0518    0.0000 H   0  0  0  0  0  0  0  0  0  0  0  0
   11.1505   -0.4468    0.0000 H   0  0  0  0  0  0  0  0  0  0  0  0
   11.1506   -1.5168    0.0000 H   0  0  0  0  0  0  0  0  0  0  0  0
  1 16  1  0  0  0  0
  1 24  1  0  0  0  0
  2 18  1  0  0  0  0
  2 26  1  0  0  0  0
  3 16  2  0  0  0  0
  4 18  2  0  0  0  0
  5 29  1  0  0  0  0
  5 30  1  0  0  0  0
  6  9  1  0  0  0  0
  7  9  2  0  0  0  0
  8 14  1  0  0  0  0
  8 15  1  0  0  0  0
  8 31  1  0  0  0  0
  9 22  1  0  0  0  0
 10 11  1  0  0  0  0
 10 12  1  0  0  0  0
 10 13  1  0  0  0  0
 10 32  1  0  0  0  0
 11 14  2  0  0  0  0
 11 16  1  0  0  0  0
 12 15  2  0  0  0  0
 12 18  1  0  0  0  0
 13 17  2  0  0  0  0
 13 19  1  0  0  0  0
 14 20  1  0  0  0  0
 15 21  1  0  0  0  0
 17 22  1  0  0  0  0
 17 33  1  0  0  0  0
 19 23  2  0  0  0  0
 19 34  1  0  0  0  0
 20 35  1  0  0  0  0
 20 36  1  0  0  0  0
 20 37  1  0  0  0  0
 21 38  1  0  0  0  0
 21 39  1  0  0  0  0
 21 40  1  0  0  0  0
 22 25  2  0  0  0  0
 23 25  1  0  0  0  0
 23 41  1  0  0  0  0
 24 27  1  0  0  0  0
 24 28  1  0  0  0  0
 24 42  1  0  0  0  0
 25 43  1  0  0  0  0
 26 29  1  0  0  0  0
 26 44  1  0  0  0  0
 26 45  1  0  0  0  0
 27 46  1  0  0  0  0
 27 47  1  0  0  0  0
 27 48  1  0  0  0  0
 28 49  1  0  0  0  0
 28 50  1  0  0  0  0
 28 51  1  0  0  0  0
 29 52  1  0  0  0  0
 29 53  1  0  0  0  0
 30 54  1  0  0  0  0
 30 55  1  0  0  0  0
 30 56  1  0  0  0  0
M  CHG  2   6  -1   9   1
M  END
>  <DRUGBANK_ID>
DB00393

>  <SECONDARY_ACCESSION_NUMBERS>
APRD00612

>  <COMMON_NAME>
Nimodipine

>  <CAS_NUMBER>
66085-59-4

>  <UNII>
57WA9QZ5WH

>  <SYNONYMS>
2,6-dimethyl-4-(3'-nitrophenyl)-1,4-dihydropyridine-3,5-dicarboxylic acid 3-Î²-methoxyethyl ester 5-isopropyl ester; isopropyl 2-methoxyethyl 1,4-dihydro-2,6-dimethyl-4-(3-nitrophenyl)-3,5-pyridinedicarboxylate; isopropyl 2-methoxyethyl 1,4-dihydro-2,6-dimethyl-4-(m-nitrophenyl)-3,5-pyridinedicarboxylate; Nimodipine; Nimodipino; Nimodipinum

$$$$
